=
 OpenBabel10262421473D

 30 30  0  0  1  0  0  0  0  0999 V2000
  190.0110  177.4090  142.2050 C   0  0  2  0  0  0  0  0  0  0  0  0
  188.0230  178.1040  140.1100 C   0  0  0  0  0  2  0  0  0  0  0  0
  188.1420  178.9790  141.3540 C   0  0  0  0  0  2  0  0  0  0  0  0
  191.5090  176.8080  140.3550 C   0  0  0  0  0  1  0  0  0  0  0  0
  189.2400  177.1950  139.9170 C   0  0  0  0  0  2  0  0  0  0  0  0
  188.6910  178.1830  142.5390 C   0  0  1  0  0  3  0  0  0  0  0  0
  190.3590  177.6060  140.7680 N   0  0  0  0  0  0  0  0  0  0  0  0
  189.8460  175.9120  142.5350 C   0  0  0  0  0  1  0  0  0  0  0  0
  191.0960  178.0170  143.1300 C   0  0  1  0  0  3  0  0  0  0  0  0
  190.6660  179.2680  143.8840 C   0  0  0  0  0  1  0  0  0  0  0  0
  191.6100  177.0320  144.0720 N   0  0  0  0  0  2  0  0  0  0  0  0
  191.3910  177.5710  145.4060 C   0  0  0  0  0  2  0  0  0  0  0  0
  191.0260  176.4530  146.3720 C   0  0  2  0  0  3  0  0  0  0  0  0
  190.3730  177.0270  147.6170 C   0  0  0  0  0  1  0  0  0  0  0  0
  192.2240  175.5730  146.7250 C   0  0  0  0  0  2  0  0  0  0  0  0
  192.7030  175.7870  148.1530 C   0  0  0  0  0  1  0  0  0  0  0  0
  187.6630  177.3740  143.1090 O   0  0  0  0  0  0  0  0  0  0  0  0
  187.0960  177.6480  144.3550 C   0  0  0  0  0  0  0  0  0  0  0  0
  187.4620  176.9090  145.3970 C   0  0  0  0  0  2  0  0  0  0  0  0
  186.0680  178.7370  144.5190 C   0  0  2  0  0  3  0  0  0  0  0  0
  185.8270  178.9620  145.8780 O   0  0  0  0  0  1  0  0  0  0  0  0
  184.7660  178.4070  143.7850 C   0  0  1  0  0  3  0  0  0  0  0  0
  183.5680  178.7190  144.6670 C   0  0  0  0  0  1  0  0  0  0  0  0
  184.6520  179.2290  142.5020 C   0  0  0  0  0  2  0  0  0  0  0  0
  184.0650  178.4410  141.3280 C   0  0  1  0  0  3  0  0  0  0  0  0
  181.3890  178.4910  141.4000 C   0  0  0  0  0  3  0  0  0  0  0  0
  182.5950  178.4650  141.3660 C   0  0  0  0  0  0  0  0  0  0  0  0
  184.5900  178.9500  139.9900 C   0  0  0  0  0  2  0  0  0  0  0  0
  185.1280  177.8830  137.7940 C   0  0  0  0  0  1  0  0  0  0  0  0
  184.0480  178.1330  138.8280 C   0  0  0  0  0  2  0  0  0  0  0  0
  1  8  1  1  0  0  0
  1  6  1  0  0  0  0
  1  9  1  0  0  0  0
  2  3  1  0  0  0  0
  3  6  1  0  0  0  0
  4  7  1  0  0  0  0
  5  2  1  0  0  0  0
  5  7  1  0  0  0  0
  6 17  1  6  0  0  0
  7  1  1  0  0  0  0
  9 10  1  1  0  0  0
  9 11  1  0  0  0  0
 11 12  1  0  0  0  0
 12 13  1  0  0  0  0
 13 15  1  0  0  0  0
 13 14  1  1  0  0  0
 15 16  1  0  0  0  0
 17 18  1  0  0  0  0
 18 20  1  0  0  0  0
 18 19  2  0  0  0  0
 20 21  1  1  0  0  0
 22 20  1  0  0  0  0
 22 23  1  1  0  0  0
 24 22  1  0  0  0  0
 25 28  1  6  0  0  0
 25 27  1  0  0  0  0
 25 24  1  0  0  0  0
 27 26  3  0  0  0  0
 29 30  1  0  0  0  0
 30 28  1  0  0  0  0
M  END
>  <MODEL>
1

>  <REMARK>
 VINA RESULT:      -6.5      0.000      0.000
  Name = 
  14 active torsions:
  status: ('A' for Active; 'I' for Inactive)
    1  A    between atoms: C_1  and  O_2
    2  A    between atoms: C_1  and  C_4
    3  A    between atoms: O_2  and  C_22
    4  A    between atoms: C_3  and  C_11
    5  A    between atoms: C_4  and  C_27
    6  A    between atoms: C_6  and  C_8
    7  A    between atoms: C_6  and  C_21
    8  A    between atoms: C_7  and  C_10
    9  A    between atoms: C_7  and  C_15
   10  A    between atoms: C_8  and  C_12
   11  A    between atoms: C_8  and  C_13
   12  A    between atoms: C_10  and  N_25
   13  A    between atoms: C_11  and  N_25
   14  A    between atoms: C_13  and  C_27
                            x       y       z     vdW  Elec       q    Type
                         _______ _______ _______ _____ _____    ______ ____

>  <TORSDO>
F 14

$$$$
=
 OpenBabel10262421473D

 30 30  0  0  1  0  0  0  0  0999 V2000
  188.3960  177.7200  137.4930 C   0  0  2  0  0  0  0  0  0  0  0  0
  190.8380  176.4410  138.6010 C   0  0  0  0  0  2  0  0  0  0  0  0
  189.4840  176.1650  139.2480 C   0  0  0  0  0  2  0  0  0  0  0  0
  189.3810  177.3060  135.2810 C   0  0  0  0  0  1  0  0  0  0  0  0
  190.7030  177.0360  137.1970 C   0  0  0  0  0  2  0  0  0  0  0  0
  188.5080  177.3170  139.0020 C   0  0  1  0  0  3  0  0  0  0  0  0
  189.3390  176.8960  136.6810 N   0  0  0  0  0  0  0  0  0  0  0  0
  188.6870  179.2240  137.3210 C   0  0  0  0  0  1  0  0  0  0  0  0
  186.9250  177.4370  137.0950 C   0  0  1  0  0  3  0  0  0  0  0  0
  186.5560  175.9620  137.0140 C   0  0  0  0  0  1  0  0  0  0  0  0
  185.9910  178.1270  137.9740 N   0  0  0  0  0  2  0  0  0  0  0  0
  184.6900  177.5060  137.7770 C   0  0  0  0  0  2  0  0  0  0  0  0
  183.6430  178.1880  138.6460 C   0  0  2  0  0  3  0  0  0  0  0  0
  184.1330  179.5590  139.0800 C   0  0  0  0  0  1  0  0  0  0  0  0
  183.2370  177.3350  139.8460 C   0  0  0  0  0  2  0  0  0  0  0  0
  183.3320  178.0940  141.1610 C   0  0  0  0  0  1  0  0  0  0  0  0
  188.7970  178.4040  139.8800 O   0  0  0  0  0  0  0  0  0  0  0  0
  188.2830  178.4790  141.1760 C   0  0  0  0  0  0  0  0  0  0  0  0
  186.9870  178.7220  141.3340 C   0  0  0  0  0  2  0  0  0  0  0  0
  189.1780  178.3170  142.3780 C   0  0  2  0  0  3  0  0  0  0  0  0
  190.4540  177.9160  141.9690 O   0  0  0  0  0  1  0  0  0  0  0  0
  188.5970  177.3270  143.3910 C   0  0  1  0  0  3  0  0  0  0  0  0
  189.2260  175.9560  143.2110 C   0  0  0  0  0  1  0  0  0  0  0  0
  188.8670  177.8020  144.8190 C   0  0  0  0  0  2  0  0  0  0  0  0
  187.9160  177.1900  145.8500 C   0  0  1  0  0  3  0  0  0  0  0  0
  188.3590  178.2100  148.2850 C   0  0  0  0  0  3  0  0  0  0  0  0
  188.1610  177.7530  147.1860 C   0  0  0  0  0  0  0  0  0  0  0  0
  186.4570  177.3600  145.4390 C   0  0  0  0  0  2  0  0  0  0  0  0
  184.5380  178.9460  145.2030 C   0  0  0  0  0  1  0  0  0  0  0  0
  185.9810  178.7900  145.6410 C   0  0  0  0  0  2  0  0  0  0  0  0
  1  8  1  6  0  0  0
  1  6  1  0  0  0  0
  2  3  1  0  0  0  0
  4  7  1  0  0  0  0
  5  2  1  0  0  0  0
  6  3  1  0  0  0  0
  6 17  1  1  0  0  0
  7  5  1  0  0  0  0
  7  1  1  0  0  0  0
  9 10  1  1  0  0  0
  9  1  1  0  0  0  0
  9 11  1  0  0  0  0
 12 11  1  0  0  0  0
 12 13  1  0  0  0  0
 13 14  1  1  0  0  0
 13 15  1  0  0  0  0
 15 16  1  0  0  0  0
 17 18  1  0  0  0  0
 18 19  2  0  0  0  0
 18 20  1  0  0  0  0
 20 21  1  6  0  0  0
 20 22  1  0  0  0  0
 22 23  1  1  0  0  0
 22 24  1  0  0  0  0
 25 24  1  6  0  0  0
 25 27  1  0  0  0  0
 27 26  3  0  0  0  0
 28 30  1  0  0  0  0
 28 25  1  0  0  0  0
 29 30  1  0  0  0  0
M  END
>  <MODEL>
2

>  <REMARK>
 VINA RESULT:      -6.3      2.765      7.059
  Name = 
  14 active torsions:
  status: ('A' for Active; 'I' for Inactive)
    1  A    between atoms: C_1  and  O_2
    2  A    between atoms: C_1  and  C_4
    3  A    between atoms: O_2  and  C_22
    4  A    between atoms: C_3  and  C_11
    5  A    between atoms: C_4  and  C_27
    6  A    between atoms: C_6  and  C_8
    7  A    between atoms: C_6  and  C_21
    8  A    between atoms: C_7  and  C_10
    9  A    between atoms: C_7  and  C_15
   10  A    between atoms: C_8  and  C_12
   11  A    between atoms: C_8  and  C_13
   12  A    between atoms: C_10  and  N_25
   13  A    between atoms: C_11  and  N_25
   14  A    between atoms: C_13  and  C_27
                            x       y       z     vdW  Elec       q    Type
                         _______ _______ _______ _____ _____    ______ ____

>  <TORSDO>
F 14

$$$$
=
 OpenBabel10262421473D

 30 30  0  0  1  0  0  0  0  0999 V2000
  182.1270  177.8220  139.7240 C   0  0  2  0  0  0  0  0  0  0  0  0
  180.2080  178.1640  141.9670 C   0  0  0  0  0  2  0  0  0  0  0  0
  181.2850  179.2190  141.7290 C   0  0  0  0  0  2  0  0  0  0  0  0
  180.2180  176.9680  138.4370 C   0  0  0  0  0  1  0  0  0  0  0  0
  180.0070  177.2540  140.7520 C   0  0  0  0  0  2  0  0  0  0  0  0
  182.5000  178.6200  141.0190 C   0  0  1  0  0  3  0  0  0  0  0  0
  180.6440  177.8040  139.5540 N   0  0  0  0  0  0  0  0  0  0  0  0
  182.6930  176.3900  139.8010 C   0  0  0  0  0  1  0  0  0  0  0  0
  182.8120  178.5790  138.5570 C   0  0  1  0  0  3  0  0  0  0  0  0
  183.2530  179.9980  138.8870 C   0  0  0  0  0  1  0  0  0  0  0  0
  183.9400  177.8280  138.0230 N   0  0  0  0  0  2  0  0  0  0  0  0
  185.1460  178.5280  138.4390 C   0  0  0  0  0  2  0  0  0  0  0  0
  186.3140  178.1440  137.5410 C   0  0  2  0  0  3  0  0  0  0  0  0
  185.9400  176.9550  136.6720 C   0  0  0  0  0  1  0  0  0  0  0  0
  187.5930  177.8750  138.3320 C   0  0  0  0  0  2  0  0  0  0  0  0
  188.7970  178.6080  137.7600 C   0  0  0  0  0  1  0  0  0  0  0  0
  183.3030  177.8930  141.9460 O   0  0  0  0  0  0  0  0  0  0  0  0
  184.2830  178.5040  142.7320 C   0  0  0  0  0  0  0  0  0  0  0  0
  185.2360  179.2070  142.1290 C   0  0  0  0  0  2  0  0  0  0  0  0
  184.2840  178.3520  144.2310 C   0  0  2  0  0  3  0  0  0  0  0  0
  183.3370  179.2120  144.7960 O   0  0  0  0  0  1  0  0  0  0  0  0
  185.6710  178.6050  144.8280 C   0  0  1  0  0  3  0  0  0  0  0  0
  185.5460  179.1800  146.2300 C   0  0  0  0  0  1  0  0  0  0  0  0
  186.4650  177.3020  144.9070 C   0  0  0  0  0  2  0  0  0  0  0  0
  187.8780  177.4190  144.3290 C   0  0  1  0  0  3  0  0  0  0  0  0
  189.7100  177.3120  146.2770 C   0  0  0  0  0  3  0  0  0  0  0  0
  188.8860  177.3620  145.3970 C   0  0  0  0  0  0  0  0  0  0  0  0
  188.1400  176.3560  143.2660 C   0  0  0  0  0  2  0  0  0  0  0  0
  188.7830  178.2590  141.7770 C   0  0  0  0  0  1  0  0  0  0  0  0
  189.1210  176.8470  142.2130 C   0  0  0  0  0  2  0  0  0  0  0  0
  1  8  1  1  0  0  0
  1  6  1  0  0  0  0
  3  2  1  0  0  0  0
  4  7  1  0  0  0  0
  5  2  1  0  0  0  0
  6  3  1  0  0  0  0
  6 17  1  1  0  0  0
  7  1  1  0  0  0  0
  7  5  1  0  0  0  0
  9 10  1  1  0  0  0
  9  1  1  0  0  0  0
 11 12  1  0  0  0  0
 11  9  1  0  0  0  0
 13 14  1  1  0  0  0
 13 15  1  0  0  0  0
 13 12  1  0  0  0  0
 16 15  1  0  0  0  0
 17 18  1  0  0  0  0
 18 20  1  0  0  0  0
 19 18  2  0  0  0  0
 20 21  1  1  0  0  0
 20 22  1  0  0  0  0
 22 24  1  0  0  0  0
 22 23  1  1  0  0  0
 25 28  1  6  0  0  0
 25 24  1  0  0  0  0
 25 27  1  0  0  0  0
 27 26  3  0  0  0  0
 29 30  1  0  0  0  0
 30 28  1  0  0  0  0
M  END
>  <MODEL>
3

>  <REMARK>
 VINA RESULT:      -6.2      2.913      7.698
  Name = 
  14 active torsions:
  status: ('A' for Active; 'I' for Inactive)
    1  A    between atoms: C_1  and  O_2
    2  A    between atoms: C_1  and  C_4
    3  A    between atoms: O_2  and  C_22
    4  A    between atoms: C_3  and  C_11
    5  A    between atoms: C_4  and  C_27
    6  A    between atoms: C_6  and  C_8
    7  A    between atoms: C_6  and  C_21
    8  A    between atoms: C_7  and  C_10
    9  A    between atoms: C_7  and  C_15
   10  A    between atoms: C_8  and  C_12
   11  A    between atoms: C_8  and  C_13
   12  A    between atoms: C_10  and  N_25
   13  A    between atoms: C_11  and  N_25
   14  A    between atoms: C_13  and  C_27
                            x       y       z     vdW  Elec       q    Type
                         _______ _______ _______ _____ _____    ______ ____

>  <TORSDO>
F 14

$$$$
=
 OpenBabel10262421473D

 30 30  0  0  1  0  0  0  0  0999 V2000
  188.4040  177.8840  137.3100 C   0  0  2  0  0  0  0  0  0  0  0  0
  190.6590  176.2520  138.3470 C   0  0  0  0  0  2  0  0  0  0  0  0
  189.2660  176.0770  138.9440 C   0  0  0  0  0  2  0  0  0  0  0  0
  189.3960  177.5490  135.0890 C   0  0  0  0  0  1  0  0  0  0  0  0
  190.6280  176.9740  136.9970 C   0  0  0  0  0  2  0  0  0  0  0  0
  188.4300  177.3470  138.7810 C   0  0  1  0  0  3  0  0  0  0  0  0
  189.2720  177.0310  136.4470 N   0  0  0  0  0  0  0  0  0  0  0  0
  188.8630  179.3550  137.2730 C   0  0  0  0  0  1  0  0  0  0  0  0
  186.9210  177.8030  136.8640 C   0  0  1  0  0  3  0  0  0  0  0  0
  186.4130  176.3940  136.5900 C   0  0  0  0  0  1  0  0  0  0  0  0
  186.0390  178.4640  137.8140 N   0  0  0  0  0  2  0  0  0  0  0  0
  184.9860  177.5150  138.1430 C   0  0  0  0  0  2  0  0  0  0  0  0
  183.7740  178.2460  138.7020 C   0  0  2  0  0  3  0  0  0  0  0  0
  184.1480  179.6660  139.0880 C   0  0  0  0  0  1  0  0  0  0  0  0
  183.1320  177.5010  139.8710 C   0  0  0  0  0  2  0  0  0  0  0  0
  183.3710  178.1930  141.2050 C   0  0  0  0  0  1  0  0  0  0  0  0
  188.8130  178.3170  139.7540 O   0  0  0  0  0  0  0  0  0  0  0  0
  188.2890  178.3300  141.0480 C   0  0  0  0  0  0  0  0  0  0  0  0
  187.0530  178.7800  141.2310 C   0  0  0  0  0  2  0  0  0  0  0  0
  189.1120  177.8690  142.2240 C   0  0  2  0  0  3  0  0  0  0  0  0
  190.4710  178.0580  141.9560 O   0  0  0  0  0  1  0  0  0  0  0  0
  188.8260  176.4090  142.5820 C   0  0  1  0  0  3  0  0  0  0  0  0
  190.1120  175.7000  142.9740 C   0  0  0  0  0  1  0  0  0  0  0  0
  187.8490  176.3250  143.7540 C   0  0  0  0  0  2  0  0  0  0  0  0
  187.8600  177.5720  144.6410 C   0  0  1  0  0  3  0  0  0  0  0  0
  185.3680  178.4280  145.1090 C   0  0  0  0  0  3  0  0  0  0  0  0
  186.4920  178.0450  144.8960 C   0  0  0  0  0  0  0  0  0  0  0  0
  188.6100  177.3260  145.9460 C   0  0  0  0  0  2  0  0  0  0  0  0
  191.0060  176.8500  146.4800 C   0  0  0  0  0  1  0  0  0  0  0  0
  190.0370  177.8490  145.8800 C   0  0  0  0  0  2  0  0  0  0  0  0
  1  8  1  6  0  0  0
  1  6  1  0  0  0  0
  2  3  1  0  0  0  0
  4  7  1  0  0  0  0
  5  2  1  0  0  0  0
  6  3  1  0  0  0  0
  6 17  1  1  0  0  0
  7  5  1  0  0  0  0
  7  1  1  0  0  0  0
  9 10  1  1  0  0  0
  9  1  1  0  0  0  0
  9 11  1  0  0  0  0
 11 12  1  0  0  0  0
 12 13  1  0  0  0  0
 13 14  1  1  0  0  0
 13 15  1  0  0  0  0
 15 16  1  0  0  0  0
 17 18  1  0  0  0  0
 18 19  2  0  0  0  0
 18 20  1  0  0  0  0
 20 21  1  6  0  0  0
 20 22  1  0  0  0  0
 22 23  1  1  0  0  0
 22 24  1  0  0  0  0
 25 24  1  1  0  0  0
 25 27  1  0  0  0  0
 25 28  1  0  0  0  0
 27 26  3  0  0  0  0
 30 28  1  0  0  0  0
 30 29  1  0  0  0  0
M  END
>  <MODEL>
4

>  <REMARK>
 VINA RESULT:      -6.2      2.492      7.110
  Name = 
  14 active torsions:
  status: ('A' for Active; 'I' for Inactive)
    1  A    between atoms: C_1  and  O_2
    2  A    between atoms: C_1  and  C_4
    3  A    between atoms: O_2  and  C_22
    4  A    between atoms: C_3  and  C_11
    5  A    between atoms: C_4  and  C_27
    6  A    between atoms: C_6  and  C_8
    7  A    between atoms: C_6  and  C_21
    8  A    between atoms: C_7  and  C_10
    9  A    between atoms: C_7  and  C_15
   10  A    between atoms: C_8  and  C_12
   11  A    between atoms: C_8  and  C_13
   12  A    between atoms: C_10  and  N_25
   13  A    between atoms: C_11  and  N_25
   14  A    between atoms: C_13  and  C_27
                            x       y       z     vdW  Elec       q    Type
                         _______ _______ _______ _____ _____    ______ ____

>  <TORSDO>
F 14

$$$$
=
 OpenBabel10262421473D

 30 30  0  0  1  0  0  0  0  0999 V2000
  188.7730  177.5840  143.4060 C   0  0  2  0  0  0  0  0  0  0  0  0
  191.4170  177.6430  144.7620 C   0  0  0  0  0  2  0  0  0  0  0  0
  191.1940  178.4830  143.5070 C   0  0  0  0  0  2  0  0  0  0  0  0
  187.8010  177.5370  145.6610 C   0  0  0  0  0  1  0  0  0  0  0  0
  190.1010  177.1800  145.3930 C   0  0  0  0  0  2  0  0  0  0  0  0
  190.0980  177.8830  142.6260 C   0  0  1  0  0  3  0  0  0  0  0  0
  188.9550  177.9120  144.8500 N   0  0  0  0  0  0  0  0  0  0  0  0
  188.3700  176.1070  143.2210 C   0  0  0  0  0  1  0  0  0  0  0  0
  187.6950  178.4900  142.7590 C   0  0  1  0  0  3  0  0  0  0  0  0
  188.0160  178.9560  141.3460 C   0  0  0  0  0  1  0  0  0  0  0  0
  186.3830  177.8590  142.7790 N   0  0  0  0  0  2  0  0  0  0  0  0
  185.4070  178.9070  142.5210 C   0  0  0  0  0  2  0  0  0  0  0  0
  184.0020  178.4020  142.8130 C   0  0  2  0  0  3  0  0  0  0  0  0
  183.1390  178.5010  141.5670 C   0  0  0  0  0  1  0  0  0  0  0  0
  183.3580  179.1230  143.9960 C   0  0  0  0  0  2  0  0  0  0  0  0
  184.0960  178.8750  145.3020 C   0  0  0  0  0  1  0  0  0  0  0  0
  190.6100  176.7740  141.8890 O   0  0  0  0  0  0  0  0  0  0  0  0
  191.0250  176.8820  140.5610 C   0  0  0  0  0  0  0  0  0  0  0  0
  192.1410  177.5530  140.2950 C   0  0  0  0  0  2  0  0  0  0  0  0
  190.2170  176.2780  139.4410 C   0  0  2  0  0  3  0  0  0  0  0  0
  191.0200  175.4180  138.6860 O   0  0  0  0  0  1  0  0  0  0  0  0
  189.5850  177.3520  138.5520 C   0  0  1  0  0  3  0  0  0  0  0  0
  190.1310  177.2540  137.1370 C   0  0  0  0  0  1  0  0  0  0  0  0
  188.0670  177.1790  138.5000 C   0  0  0  0  0  2  0  0  0  0  0  0
  187.5520  176.7740  137.1170 C   0  0  1  0  0  3  0  0  0  0  0  0
  186.9390  174.1700  137.0530 C   0  0  0  0  0  3  0  0  0  0  0  0
  187.2180  175.3430  137.0810 C   0  0  0  0  0  0  0  0  0  0  0  0
  186.3620  177.6280  136.6890 C   0  0  0  0  0  2  0  0  0  0  0  0
  184.2760  177.7280  138.0630 C   0  0  0  0  0  1  0  0  0  0  0  0
  185.6780  178.2750  137.8830 C   0  0  0  0  0  2  0  0  0  0  0  0
  1  8  1  6  0  0  0
  1  7  1  0  0  0  0
  2  5  1  0  0  0  0
  3  2  1  0  0  0  0
  6 17  1  1  0  0  0
  6  1  1  0  0  0  0
  6  3  1  0  0  0  0
  7  5  1  0  0  0  0
  7  4  1  0  0  0  0
  9 10  1  6  0  0  0
  9 11  1  0  0  0  0
  9  1  1  0  0  0  0
 12 11  1  0  0  0  0
 12 13  1  0  0  0  0
 13 14  1  6  0  0  0
 13 15  1  0  0  0  0
 15 16  1  0  0  0  0
 18 17  1  0  0  0  0
 19 18  2  0  0  0  0
 20 21  1  6  0  0  0
 20 18  1  0  0  0  0
 22 23  1  6  0  0  0
 22 20  1  0  0  0  0
 24 22  1  0  0  0  0
 25 28  1  1  0  0  0
 25 24  1  0  0  0  0
 26 27  3  0  0  0  0
 27 25  1  0  0  0  0
 28 30  1  0  0  0  0
 30 29  1  0  0  0  0
M  END
>  <MODEL>
5

>  <REMARK>
 VINA RESULT:      -5.7      2.198      6.276
  Name = 
  14 active torsions:
  status: ('A' for Active; 'I' for Inactive)
    1  A    between atoms: C_1  and  O_2
    2  A    between atoms: C_1  and  C_4
    3  A    between atoms: O_2  and  C_22
    4  A    between atoms: C_3  and  C_11
    5  A    between atoms: C_4  and  C_27
    6  A    between atoms: C_6  and  C_8
    7  A    between atoms: C_6  and  C_21
    8  A    between atoms: C_7  and  C_10
    9  A    between atoms: C_7  and  C_15
   10  A    between atoms: C_8  and  C_12
   11  A    between atoms: C_8  and  C_13
   12  A    between atoms: C_10  and  N_25
   13  A    between atoms: C_11  and  N_25
   14  A    between atoms: C_13  and  C_27
                            x       y       z     vdW  Elec       q    Type
                         _______ _______ _______ _____ _____    ______ ____

>  <TORSDO>
F 14

$$$$
=
 OpenBabel10262421473D

 30 30  0  0  1  0  0  0  0  0999 V2000
  189.3880  177.3950  142.6480 C   0  0  2  0  0  0  0  0  0  0  0  0
  188.1590  178.1110  140.0400 C   0  0  0  0  0  2  0  0  0  0  0  0
  187.9930  179.0480  141.2330 C   0  0  0  0  0  2  0  0  0  0  0  0
  191.2950  176.5710  141.3390 C   0  0  0  0  0  1  0  0  0  0  0  0
  189.2930  177.1020  140.2440 C   0  0  0  0  0  2  0  0  0  0  0  0
  188.1040  178.2860  142.5540 C   0  0  1  0  0  3  0  0  0  0  0  0
  190.1520  177.4780  141.3690 N   0  0  0  0  0  0  0  0  0  0  0  0
  189.0010  175.9370  142.9690 C   0  0  0  0  0  1  0  0  0  0  0  0
  190.2110  177.9740  143.8280 C   0  0  1  0  0  3  0  0  0  0  0  0
  191.0160  179.2220  143.4940 C   0  0  0  0  0  1  0  0  0  0  0  0
  189.3720  178.2310  144.9900 N   0  0  0  0  0  2  0  0  0  0  0  0
  190.2280  178.1120  146.1610 C   0  0  0  0  0  2  0  0  0  0  0  0
  189.9990  176.7720  146.8460 C   0  0  2  0  0  3  0  0  0  0  0  0
  188.8060  176.8570  147.7820 C   0  0  0  0  0  1  0  0  0  0  0  0
  191.2450  176.2700  147.5750 C   0  0  0  0  0  2  0  0  0  0  0  0
  192.2180  175.5600  146.6460 C   0  0  0  0  0  1  0  0  0  0  0  0
  186.8870  177.5930  142.8270 O   0  0  0  0  0  0  0  0  0  0  0  0
  185.9420  178.0650  143.7410 C   0  0  0  0  0  0  0  0  0  0  0  0
  185.9870  177.6180  144.9910 C   0  0  0  0  0  2  0  0  0  0  0  0
  184.8730  179.0400  143.3200 C   0  0  2  0  0  3  0  0  0  0  0  0
  184.1610  179.4770  144.4420 O   0  0  0  0  0  1  0  0  0  0  0  0
  183.9280  178.4350  142.2790 C   0  0  1  0  0  3  0  0  0  0  0  0
  182.4840  178.7630  142.6220 C   0  0  0  0  0  1  0  0  0  0  0  0
  184.2360  178.9910  140.8890 C   0  0  0  0  0  2  0  0  0  0  0  0
  183.2290  178.5500  139.8240 C   0  0  1  0  0  3  0  0  0  0  0  0
  182.2250  180.6670  138.5310 C   0  0  0  0  0  3  0  0  0  0  0  0
  182.6790  179.7120  139.1110 C   0  0  0  0  0  0  0  0  0  0  0  0
  183.8420  177.5460  138.8530 C   0  0  0  0  0  2  0  0  0  0  0  0
  185.5730  177.1580  137.0910 C   0  0  0  0  0  1  0  0  0  0  0  0
  185.0370  178.1340  138.1200 C   0  0  0  0  0  2  0  0  0  0  0  0
  1  8  1  1  0  0  0
  1  9  1  0  0  0  0
  2  5  1  0  0  0  0
  2  3  1  0  0  0  0
  3  6  1  0  0  0  0
  4  7  1  0  0  0  0
  5  7  1  0  0  0  0
  6  1  1  0  0  0  0
  6 17  1  6  0  0  0
  7  1  1  0  0  0  0
  9 10  1  6  0  0  0
  9 11  1  0  0  0  0
 11 12  1  0  0  0  0
 12 13  1  0  0  0  0
 13 15  1  0  0  0  0
 13 14  1  1  0  0  0
 16 15  1  0  0  0  0
 17 18  1  0  0  0  0
 18 19  2  0  0  0  0
 20 18  1  0  0  0  0
 20 21  1  1  0  0  0
 22 23  1  1  0  0  0
 22 20  1  0  0  0  0
 24 22  1  0  0  0  0
 25 28  1  6  0  0  0
 25 24  1  0  0  0  0
 26 27  3  0  0  0  0
 27 25  1  0  0  0  0
 29 30  1  0  0  0  0
 30 28  1  0  0  0  0
M  END
>  <MODEL>
6

>  <REMARK>
 VINA RESULT:      -5.7      1.282      1.609
  Name = 
  14 active torsions:
  status: ('A' for Active; 'I' for Inactive)
    1  A    between atoms: C_1  and  O_2
    2  A    between atoms: C_1  and  C_4
    3  A    between atoms: O_2  and  C_22
    4  A    between atoms: C_3  and  C_11
    5  A    between atoms: C_4  and  C_27
    6  A    between atoms: C_6  and  C_8
    7  A    between atoms: C_6  and  C_21
    8  A    between atoms: C_7  and  C_10
    9  A    between atoms: C_7  and  C_15
   10  A    between atoms: C_8  and  C_12
   11  A    between atoms: C_8  and  C_13
   12  A    between atoms: C_10  and  N_25
   13  A    between atoms: C_11  and  N_25
   14  A    between atoms: C_13  and  C_27
                            x       y       z     vdW  Elec       q    Type
                         _______ _______ _______ _____ _____    ______ ____

>  <TORSDO>
F 14

$$$$
=
 OpenBabel10262421473D

 30 30  0  0  1  0  0  0  0  0999 V2000
  189.6910  177.3500  142.7860 C   0  0  2  0  0  0  0  0  0  0  0  0
  189.0560  177.9490  139.9460 C   0  0  0  0  0  2  0  0  0  0  0  0
  188.5900  178.9060  141.0400 C   0  0  0  0  0  2  0  0  0  0  0  0
  191.8740  176.5800  141.9660 C   0  0  0  0  0  1  0  0  0  0  0  0
  190.1510  176.9960  140.4330 C   0  0  0  0  0  2  0  0  0  0  0  0
  188.4280  178.1810  142.3770 C   0  0  1  0  0  3  0  0  0  0  0  0
  190.7200  177.4360  141.7090 N   0  0  0  0  0  0  0  0  0  0  0  0
  189.2970  175.8850  143.0600 C   0  0  0  0  0  1  0  0  0  0  0  0
  190.2050  177.9930  144.1000 C   0  0  1  0  0  3  0  0  0  0  0  0
  191.0070  179.2730  143.9150 C   0  0  0  0  0  1  0  0  0  0  0  0
  189.1180  178.2290  145.0400 N   0  0  0  0  0  2  0  0  0  0  0  0
  189.4950  177.5850  146.2900 C   0  0  0  0  0  2  0  0  0  0  0  0
  188.8140  178.2740  147.4640 C   0  0  2  0  0  3  0  0  0  0  0  0
  189.6470  178.1100  148.7240 C   0  0  0  0  0  1  0  0  0  0  0  0
  187.3820  177.7870  147.6740 C   0  0  0  0  0  2  0  0  0  0  0  0
  186.3490  178.8560  147.3520 C   0  0  0  0  0  1  0  0  0  0  0  0
  187.2080  177.4430  142.3930 O   0  0  0  0  0  0  0  0  0  0  0  0
  186.0640  177.8960  143.0520 C   0  0  0  0  0  0  0  0  0  0  0  0
  185.8490  177.4990  144.3010 C   0  0  0  0  0  2  0  0  0  0  0  0
  185.0720  178.7950  142.3590 C   0  0  2  0  0  3  0  0  0  0  0  0
  184.8030  179.9100  143.1590 O   0  0  0  0  0  1  0  0  0  0  0  0
  183.7800  178.0540  142.0070 C   0  0  1  0  0  3  0  0  0  0  0  0
  182.5720  178.8460  142.4790 C   0  0  0  0  0  1  0  0  0  0  0  0
  183.6710  177.8570  140.4950 C   0  0  0  0  0  2  0  0  0  0  0  0
  184.3180  178.9860  139.6890 C   0  0  1  0  0  3  0  0  0  0  0  0
  185.9280  178.0040  137.7890 C   0  0  0  0  0  3  0  0  0  0  0  0
  185.2040  178.4440  138.6480 C   0  0  0  0  0  0  0  0  0  0  0  0
  183.2710  179.9210  139.0910 C   0  0  0  0  0  2  0  0  0  0  0  0
  181.6960  179.1820  137.2950 C   0  0  0  0  0  1  0  0  0  0  0  0
  181.9750  179.1870  138.7860 C   0  0  0  0  0  2  0  0  0  0  0  0
  1  8  1  1  0  0  0
  1  9  1  0  0  0  0
  2  5  1  0  0  0  0
  2  3  1  0  0  0  0
  3  6  1  0  0  0  0
  5  7  1  0  0  0  0
  6 17  1  6  0  0  0
  6  1  1  0  0  0  0
  7  4  1  0  0  0  0
  7  1  1  0  0  0  0
  9 10  1  6  0  0  0
  9 11  1  0  0  0  0
 11 12  1  0  0  0  0
 12 13  1  0  0  0  0
 13 15  1  0  0  0  0
 13 14  1  1  0  0  0
 16 15  1  0  0  0  0
 17 18  1  0  0  0  0
 18 19  2  0  0  0  0
 20 18  1  0  0  0  0
 20 21  1  1  0  0  0
 22 20  1  0  0  0  0
 22 23  1  6  0  0  0
 24 22  1  0  0  0  0
 25 27  1  6  0  0  0
 25 24  1  0  0  0  0
 26 27  3  0  0  0  0
 28 25  1  0  0  0  0
 29 30  1  0  0  0  0
 30 28  1  0  0  0  0
M  END
>  <MODEL>
7

>  <REMARK>
 VINA RESULT:      -5.5      1.672      2.755
  Name = 
  14 active torsions:
  status: ('A' for Active; 'I' for Inactive)
    1  A    between atoms: C_1  and  O_2
    2  A    between atoms: C_1  and  C_4
    3  A    between atoms: O_2  and  C_22
    4  A    between atoms: C_3  and  C_11
    5  A    between atoms: C_4  and  C_27
    6  A    between atoms: C_6  and  C_8
    7  A    between atoms: C_6  and  C_21
    8  A    between atoms: C_7  and  C_10
    9  A    between atoms: C_7  and  C_15
   10  A    between atoms: C_8  and  C_12
   11  A    between atoms: C_8  and  C_13
   12  A    between atoms: C_10  and  N_25
   13  A    between atoms: C_11  and  N_25
   14  A    between atoms: C_13  and  C_27
                            x       y       z     vdW  Elec       q    Type
                         _______ _______ _______ _____ _____    ______ ____

>  <TORSDO>
F 14

$$$$
=
 OpenBabel10262421473D

 30 30  0  0  1  0  0  0  0  0999 V2000
  182.1610  177.8790  139.8650 C   0  0  2  0  0  0  0  0  0  0  0  0
  180.1280  178.2670  141.9960 C   0  0  0  0  0  2  0  0  0  0  0  0
  181.2210  179.3130  141.7990 C   0  0  0  0  0  2  0  0  0  0  0  0
  180.3200  177.0110  138.4910 C   0  0  0  0  0  1  0  0  0  0  0  0
  179.9870  177.3370  140.7880 C   0  0  0  0  0  2  0  0  0  0  0  0
  182.4690  178.6970  141.1640 C   0  0  1  0  0  3  0  0  0  0  0  0
  180.6900  177.8640  139.6170 N   0  0  0  0  0  0  0  0  0  0  0  0
  182.7150  176.4460  139.9960 C   0  0  0  0  0  1  0  0  0  0  0  0
  182.9120  178.6130  138.7240 C   0  0  1  0  0  3  0  0  0  0  0  0
  182.9280  180.1300  138.8420 C   0  0  0  0  0  1  0  0  0  0  0  0
  184.2740  178.1200  138.5760 N   0  0  0  0  0  2  0  0  0  0  0  0
  184.3760  177.5560  137.2380 C   0  0  0  0  0  2  0  0  0  0  0  0
  185.8070  177.1230  136.9560 C   0  0  2  0  0  3  0  0  0  0  0  0
  186.7850  178.0990  137.5860 C   0  0  0  0  0  1  0  0  0  0  0  0
  186.0790  176.9470  135.4630 C   0  0  0  0  0  2  0  0  0  0  0  0
  187.1030  177.9400  134.9350 C   0  0  0  0  0  1  0  0  0  0  0  0
  183.2180  177.9820  142.1450 O   0  0  0  0  0  0  0  0  0  0  0  0
  184.2190  178.5830  142.9110 C   0  0  0  0  0  0  0  0  0  0  0  0
  185.1360  179.3200  142.2950 C   0  0  0  0  0  2  0  0  0  0  0  0
  184.2820  178.3830  144.4040 C   0  0  2  0  0  3  0  0  0  0  0  0
  183.4220  179.2830  145.0400 O   0  0  0  0  0  1  0  0  0  0  0  0
  185.7090  178.5260  144.9380 C   0  0  1  0  0  3  0  0  0  0  0  0
  185.7140  179.3400  146.2210 C   0  0  0  0  0  1  0  0  0  0  0  0
  186.3120  177.1520  145.2310 C   0  0  0  0  0  2  0  0  0  0  0  0
  187.8080  177.0690  144.9200 C   0  0  1  0  0  3  0  0  0  0  0  0
  188.2690  177.6040  142.3390 C   0  0  0  0  0  3  0  0  0  0  0  0
  188.0650  177.3620  143.5030 C   0  0  0  0  0  0  0  0  0  0  0  0
  188.6220  177.9840  145.8290 C   0  0  0  0  0  2  0  0  0  0  0  0
  188.3830  177.6140  148.2900 C   0  0  0  0  0  1  0  0  0  0  0  0
  189.1570  177.2390  147.0420 C   0  0  0  0  0  2  0  0  0  0  0  0
  1  8  1  1  0  0  0
  1  6  1  0  0  0  0
  3  2  1  0  0  0  0
  4  7  1  0  0  0  0
  5  2  1  0  0  0  0
  6  3  1  0  0  0  0
  6 17  1  1  0  0  0
  7  1  1  0  0  0  0
  7  5  1  0  0  0  0
  9 10  1  1  0  0  0
  9  1  1  0  0  0  0
 11  9  1  0  0  0  0
 12 11  1  0  0  0  0
 13 12  1  0  0  0  0
 13 14  1  6  0  0  0
 15 13  1  0  0  0  0
 16 15  1  0  0  0  0
 17 18  1  0  0  0  0
 18 20  1  0  0  0  0
 19 18  2  0  0  0  0
 20 22  1  0  0  0  0
 20 21  1  1  0  0  0
 22 24  1  0  0  0  0
 22 23  1  1  0  0  0
 25 27  1  6  0  0  0
 25 24  1  0  0  0  0
 25 28  1  0  0  0  0
 26 27  3  0  0  0  0
 28 30  1  0  0  0  0
 30 29  1  0  0  0  0
M  END
>  <MODEL>
8

>  <REMARK>
 VINA RESULT:      -5.5      2.994      8.245
  Name = 
  14 active torsions:
  status: ('A' for Active; 'I' for Inactive)
    1  A    between atoms: C_1  and  O_2
    2  A    between atoms: C_1  and  C_4
    3  A    between atoms: O_2  and  C_22
    4  A    between atoms: C_3  and  C_11
    5  A    between atoms: C_4  and  C_27
    6  A    between atoms: C_6  and  C_8
    7  A    between atoms: C_6  and  C_21
    8  A    between atoms: C_7  and  C_10
    9  A    between atoms: C_7  and  C_15
   10  A    between atoms: C_8  and  C_12
   11  A    between atoms: C_8  and  C_13
   12  A    between atoms: C_10  and  N_25
   13  A    between atoms: C_11  and  N_25
   14  A    between atoms: C_13  and  C_27
                            x       y       z     vdW  Elec       q    Type
                         _______ _______ _______ _____ _____    ______ ____

>  <TORSDO>
F 14

$$$$
=
 OpenBabel10262421473D

 30 30  0  0  1  0  0  0  0  0999 V2000
  188.9040  177.4680  143.5130 C   0  0  2  0  0  0  0  0  0  0  0  0
  191.6600  177.7540  144.5850 C   0  0  0  0  0  2  0  0  0  0  0  0
  191.2270  178.5930  143.3860 C   0  0  0  0  0  2  0  0  0  0  0  0
  188.1880  177.2850  145.8550 C   0  0  0  0  0  1  0  0  0  0  0  0
  190.4690  177.1550  145.3370 C   0  0  0  0  0  2  0  0  0  0  0  0
  190.1030  177.9070  142.6070 C   0  0  1  0  0  3  0  0  0  0  0  0
  189.2080  177.7850  144.9390 N   0  0  0  0  0  0  0  0  0  0  0  0
  188.6230  175.9630  143.3290 C   0  0  0  0  0  1  0  0  0  0  0  0
  187.6820  178.2790  143.0100 C   0  0  1  0  0  3  0  0  0  0  0  0
  187.7080  178.6180  141.5260 C   0  0  0  0  0  1  0  0  0  0  0  0
  186.4280  177.6160  143.3380 N   0  0  0  0  0  2  0  0  0  0  0  0
  185.3680  178.3800  142.6970 C   0  0  0  0  0  2  0  0  0  0  0  0
  184.5510  179.1260  143.7410 C   0  0  2  0  0  3  0  0  0  0  0  0
  184.9200  178.6490  145.1350 C   0  0  0  0  0  1  0  0  0  0  0  0
  183.0470  179.0140  143.4930 C   0  0  0  0  0  2  0  0  0  0  0  0
  182.7190  178.6460  142.0540 C   0  0  0  0  0  1  0  0  0  0  0  0
  190.6340  176.8670  141.7890 O   0  0  0  0  0  0  0  0  0  0  0  0
  190.9790  177.0660  140.4500 C   0  0  0  0  0  0  0  0  0  0  0  0
  192.2020  177.4970  140.1650 C   0  0  0  0  0  2  0  0  0  0  0  0
  189.9810  176.8250  139.3470 C   0  0  2  0  0  3  0  0  0  0  0  0
  190.1280  175.5270  138.8480 O   0  0  0  0  0  1  0  0  0  0  0  0
  190.1150  177.8560  138.2230 C   0  0  1  0  0  3  0  0  0  0  0  0
  190.3510  177.1600  136.8930 C   0  0  0  0  0  1  0  0  0  0  0  0
  188.8440  178.6970  138.1130 C   0  0  0  0  0  2  0  0  0  0  0  0
  187.7200  177.9970  137.3450 C   0  0  1  0  0  3  0  0  0  0  0  0
  185.3730  178.3210  138.5890 C   0  0  0  0  0  3  0  0  0  0  0  0
  186.4310  178.1720  138.0290 C   0  0  0  0  0  0  0  0  0  0  0  0
  187.6460  178.4760  135.8980 C   0  0  0  0  0  2  0  0  0  0  0  0
  187.2590  176.1940  134.9540 C   0  0  0  0  0  1  0  0  0  0  0  0
  186.7180  177.6050  135.0670 C   0  0  0  0  0  2  0  0  0  0  0  0
  1  8  1  6  0  0  0
  1  7  1  0  0  0  0
  2  5  1  0  0  0  0
  3  2  1  0  0  0  0
  6 17  1  1  0  0  0
  6  3  1  0  0  0  0
  6  1  1  0  0  0  0
  7  5  1  0  0  0  0
  7  4  1  0  0  0  0
  9 10  1  6  0  0  0
  9 11  1  0  0  0  0
  9  1  1  0  0  0  0
 12 11  1  0  0  0  0
 12 13  1  0  0  0  0
 13 14  1  1  0  0  0
 15 13  1  0  0  0  0
 16 15  1  0  0  0  0
 18 17  1  0  0  0  0
 19 18  2  0  0  0  0
 20 21  1  6  0  0  0
 20 18  1  0  0  0  0
 22 23  1  6  0  0  0
 22 20  1  0  0  0  0
 24 22  1  0  0  0  0
 25 28  1  6  0  0  0
 25 27  1  0  0  0  0
 25 24  1  0  0  0  0
 27 26  3  0  0  0  0
 29 30  1  0  0  0  0
 30 28  1  0  0  0  0
M  END
>  <MODEL>
9

>  <REMARK>
 VINA RESULT:      -5.4      2.232      6.206
  Name = 
  14 active torsions:
  status: ('A' for Active; 'I' for Inactive)
    1  A    between atoms: C_1  and  O_2
    2  A    between atoms: C_1  and  C_4
    3  A    between atoms: O_2  and  C_22
    4  A    between atoms: C_3  and  C_11
    5  A    between atoms: C_4  and  C_27
    6  A    between atoms: C_6  and  C_8
    7  A    between atoms: C_6  and  C_21
    8  A    between atoms: C_7  and  C_10
    9  A    between atoms: C_7  and  C_15
   10  A    between atoms: C_8  and  C_12
   11  A    between atoms: C_8  and  C_13
   12  A    between atoms: C_10  and  N_25
   13  A    between atoms: C_11  and  N_25
   14  A    between atoms: C_13  and  C_27
                            x       y       z     vdW  Elec       q    Type
                         _______ _______ _______ _____ _____    ______ ____

>  <TORSDO>
F 14

$$$$
