=
 OpenBabel10262420033D

 27 31  0  0  1  0  0  0  0  0999 V2000
  178.9310  177.7390  138.5350 C   0  0  0  0  0  2  0  0  0  0  0  0
  180.3070  179.6500  139.4770 C   0  0  1  0  0  0  0  0  0  0  0  0
  182.6470  179.4630  138.5580 C   0  0  0  0  0  2  0  0  0  0  0  0
  180.8870  183.2830  137.2040 C   0  0  0  0  0  3  0  0  0  0  0  0
  180.5990  182.5800  134.8560 C   0  0  0  0  0  3  0  0  0  0  0  0
  180.1420  181.0010  139.9960 N   0  0  0  0  0  2  0  0  0  0  0  0
  180.8390  180.4130  136.0350 N   0  0  0  0  0  0  0  0  0  0  0  0
  180.3660  178.5190  140.4880 C   0  0  2  0  0  3  0  0  0  0  0  0
  183.1650  175.7010  138.4990 C   0  0  0  0  0  2  0  0  0  0  0  0
  180.5820  181.2510  134.9060 C   0  0  0  0  0  3  0  0  0  0  0  0
  181.8020  175.0240  138.5270 C   0  0  0  0  0  2  0  0  0  0  0  0
  180.8900  180.6770  137.3040 C   0  0  0  0  0  0  0  0  0  0  0  0
  179.0860  178.7540  139.6710 C   0  0  2  0  0  3  0  0  0  0  0  0
  180.8700  183.4860  135.9250 N   0  0  0  0  0  0  0  0  0  0  0  0
  180.6460  182.0190  137.9010 C   0  0  0  0  0  0  0  0  0  0  0  0
  179.1680  176.3060  139.0090 C   0  0  0  0  0  2  0  0  0  0  0  0
  181.1630  179.5200  138.2170 C   0  0  2  0  0  3  0  0  0  0  0  0
  183.0870  177.0790  139.1380 C   0  0  0  0  0  2  0  0  0  0  0  0
  180.3300  182.1170  139.1610 N   0  0  0  0  0  0  0  0  0  0  0  0
  180.8330  175.7470  137.6000 C   0  0  0  0  0  2  0  0  0  0  0  0
  179.5000  175.4640  137.9350 O   0  0  0  0  0  0  0  0  0  0  0  0
  183.2330  178.1490  138.0710 C   0  0  0  0  0  2  0  0  0  0  0  0
  181.2790  178.6210  143.9780 C   0  0  0  0  0  2  0  0  0  0  0  0
  180.1530  178.9770  141.9240 C   0  0  2  0  0  3  0  0  0  0  0  0
  181.4900  179.1720  142.6020 C   0  0  0  0  0  2  0  0  0  0  0  0
  179.8430  178.1540  143.9690 C   0  0  0  0  0  2  0  0  0  0  0  0
  179.4350  178.0050  142.6350 O   0  0  0  0  0  0  0  0  0  0  0  0
  1 16  1  0  0  0  0
  2 13  1  0  0  0  0
  2  6  1  1  0  0  0
  2  8  1  0  0  0  0
  4 15  1  0  0  0  0
  5 10  2  0  0  0  0
  5 14  1  0  0  0  0
  7 12  2  0  0  0  0
  8 24  1  1  0  0  0
  9 11  1  0  0  0  0
  9 18  1  0  0  0  0
 10  7  1  0  0  0  0
 12 15  1  0  0  0  0
 12 17  1  0  0  0  0
 13  1  1  6  0  0  0
 13  8  1  0  0  0  0
 14  4  2  0  0  0  0
 15 19  2  0  0  0  0
 17  3  1  1  0  0  0
 17  2  1  0  0  0  0
 19  6  1  0  0  0  0
 20 21  1  0  0  0  0
 20 11  1  0  0  0  0
 21 16  1  0  0  0  0
 22  3  1  0  0  0  0
 22 18  1  0  0  0  0
 24 25  1  1  0  0  0
 24 27  1  0  0  0  0
 25 23  1  0  0  0  0
 26 23  1  0  0  0  0
 27 26  1  0  0  0  0
M  END
>  <MODEL>
1

>  <REMARK>
 VINA RESULT:      -5.8      0.000      0.000
  Name = 
  1 active torsions:
  status: ('A' for Active; 'I' for Inactive)
    1  A    between atoms: C_9  and  C_11
                            x       y       z     vdW  Elec       q    Type
                         _______ _______ _______ _____ _____    ______ ____

>  <TORSDO>
F 1

$$$$
=
 OpenBabel10262420033D

 27 31  0  0  1  0  0  0  0  0999 V2000
  188.8860  178.7400  136.5000 C   0  0  0  0  0  2  0  0  0  0  0  0
  190.0340  177.2840  138.2320 C   0  0  1  0  0  0  0  0  0  0  0  0
  189.6060  174.8710  137.6400 C   0  0  0  0  0  2  0  0  0  0  0  0
  193.9560  175.6290  137.4750 C   0  0  0  0  0  3  0  0  0  0  0  0
  194.1100  175.5360  135.0140 C   0  0  0  0  0  3  0  0  0  0  0  0
  191.1540  177.3200  139.1620 N   0  0  0  0  0  2  0  0  0  0  0  0
  191.6890  175.9230  135.3830 N   0  0  0  0  0  0  0  0  0  0  0  0
  188.6620  177.6320  138.7820 C   0  0  2  0  0  3  0  0  0  0  0  0
  186.0400  175.0050  136.3430 C   0  0  0  0  0  2  0  0  0  0  0  0
  192.8740  175.7910  134.5940 C   0  0  0  0  0  3  0  0  0  0  0  0
  185.7230  176.4390  135.9440 C   0  0  0  0  0  2  0  0  0  0  0  0
  191.5240  176.0930  136.6580 C   0  0  0  0  0  0  0  0  0  0  0  0
  189.4300  178.6540  137.9290 C   0  0  2  0  0  3  0  0  0  0  0  0
  194.5470  175.3430  136.3590 N   0  0  0  0  0  0  0  0  0  0  0  0
  192.6300  176.2230  137.6460 C   0  0  0  0  0  0  0  0  0  0  0  0
  187.3630  178.8560  136.4720 C   0  0  0  0  0  2  0  0  0  0  0  0
  190.1090  176.2190  137.1390 C   0  0  2  0  0  3  0  0  0  0  0  0
  187.1270  174.9770  137.4060 C   0  0  0  0  0  2  0  0  0  0  0  0
  192.4000  176.7730  138.8040 N   0  0  0  0  0  0  0  0  0  0  0  0
  186.9030  177.0540  135.2020 C   0  0  0  0  0  2  0  0  0  0  0  0
  186.8460  178.4570  135.2290 O   0  0  0  0  0  0  0  0  0  0  0  0
  188.4120  174.4300  136.8110 C   0  0  0  0  0  2  0  0  0  0  0  0
  188.1520  177.0110  142.3010 C   0  0  0  0  0  2  0  0  0  0  0  0
  188.6850  178.0590  140.2440 C   0  0  2  0  0  3  0  0  0  0  0  0
  189.0550  176.8800  141.1140 C   0  0  0  0  0  2  0  0  0  0  0  0
  187.3390  178.2480  142.0060 C   0  0  0  0  0  2  0  0  0  0  0  0
  187.4150  178.5110  140.6300 O   0  0  0  0  0  0  0  0  0  0  0  0
  2  8  1  0  0  0  0
  2  6  1  1  0  0  0
  4 15  1  0  0  0  0
  5 14  1  0  0  0  0
  7 12  2  0  0  0  0
  8 24  1  1  0  0  0
  9 18  1  0  0  0  0
 10  5  2  0  0  0  0
 10  7  1  0  0  0  0
 11  9  1  0  0  0  0
 12 17  1  0  0  0  0
 12 15  1  0  0  0  0
 13  1  1  6  0  0  0
 13  2  1  0  0  0  0
 13  8  1  0  0  0  0
 14  4  2  0  0  0  0
 15 19  2  0  0  0  0
 16  1  1  0  0  0  0
 17  3  1  1  0  0  0
 17  2  1  0  0  0  0
 19  6  1  0  0  0  0
 20 21  1  0  0  0  0
 20 11  1  0  0  0  0
 21 16  1  0  0  0  0
 22 18  1  0  0  0  0
 22  3  1  0  0  0  0
 24 27  1  0  0  0  0
 24 25  1  1  0  0  0
 25 23  1  0  0  0  0
 26 23  1  0  0  0  0
 27 26  1  0  0  0  0
M  END
>  <MODEL>
2

>  <REMARK>
 VINA RESULT:      -5.6      8.150     10.233
  Name = 
  1 active torsions:
  status: ('A' for Active; 'I' for Inactive)
    1  A    between atoms: C_9  and  C_11
                            x       y       z     vdW  Elec       q    Type
                         _______ _______ _______ _____ _____    ______ ____

>  <TORSDO>
F 1

$$$$
=
 OpenBabel10262420033D

 27 31  0  0  1  0  0  0  0  0999 V2000
  181.3020  179.0150  136.6600 C   0  0  0  0  0  2  0  0  0  0  0  0
  182.5620  178.9450  138.8610 C   0  0  1  0  0  0  0  0  0  0  0  0
  182.8460  176.5310  139.5290 C   0  0  0  0  0  2  0  0  0  0  0  0
  186.8400  178.3240  138.9360 C   0  0  0  0  0  3  0  0  0  0  0  0
  187.3160  177.1270  136.8310 C   0  0  0  0  0  3  0  0  0  0  0  0
  183.5110  179.7330  139.6340 N   0  0  0  0  0  2  0  0  0  0  0  0
  184.8510  176.9350  137.0080 N   0  0  0  0  0  0  0  0  0  0  0  0
  181.0890  179.1050  139.1960 C   0  0  2  0  0  3  0  0  0  0  0  0
  179.5530  175.0150  138.3970 C   0  0  0  0  0  2  0  0  0  0  0  0
  186.1170  176.7900  136.3620 C   0  0  0  0  0  3  0  0  0  0  0  0
  178.9310  175.9320  137.3550 C   0  0  0  0  0  2  0  0  0  0  0  0
  184.4910  177.6330  138.0410 C   0  0  0  0  0  0  0  0  0  0  0  0
  181.6690  179.7740  137.9390 C   0  0  2  0  0  3  0  0  0  0  0  0
  187.6180  177.7270  138.0910 N   0  0  0  0  0  0  0  0  0  0  0  0
  185.3950  178.5220  138.8200 C   0  0  0  0  0  0  0  0  0  0  0  0
  179.8150  178.6650  136.6070 C   0  0  0  0  0  2  0  0  0  0  0  0
  183.0430  177.5620  138.4240 C   0  0  2  0  0  3  0  0  0  0  0  0
  180.4710  175.8030  139.3180 C   0  0  0  0  0  2  0  0  0  0  0  0
  184.8900  179.4630  139.5660 N   0  0  0  0  0  0  0  0  0  0  0  0
  179.9950  176.4310  136.3860 C   0  0  0  0  0  2  0  0  0  0  0  0
  179.5760  177.5980  135.7260 O   0  0  0  0  0  0  0  0  0  0  0  0
  181.9170  175.4320  139.0430 C   0  0  0  0  0  2  0  0  0  0  0  0
  179.5350  180.2340  142.2510 C   0  0  0  0  0  2  0  0  0  0  0  0
  180.8210  180.1580  140.2620 C   0  0  2  0  0  3  0  0  0  0  0  0
  180.6660  179.4910  141.6100 C   0  0  0  0  0  2  0  0  0  0  0  0
  179.1360  181.2560  141.2150 C   0  0  0  0  0  2  0  0  0  0  0  0
  179.6330  180.8430  139.9710 O   0  0  0  0  0  0  0  0  0  0  0  0
  2  8  1  0  0  0  0
  2  6  1  1  0  0  0
  5 14  1  0  0  0  0
  7 12  2  0  0  0  0
  8 24  1  1  0  0  0
  9 18  1  0  0  0  0
 10  5  2  0  0  0  0
 10  7  1  0  0  0  0
 11  9  1  0  0  0  0
 12 17  1  0  0  0  0
 12 15  1  0  0  0  0
 13  1  1  6  0  0  0
 13  2  1  0  0  0  0
 13  8  1  0  0  0  0
 14  4  2  0  0  0  0
 15  4  1  0  0  0  0
 15 19  2  0  0  0  0
 16  1  1  0  0  0  0
 17  2  1  0  0  0  0
 17  3  1  1  0  0  0
 19  6  1  0  0  0  0
 20 11  1  0  0  0  0
 21 20  1  0  0  0  0
 21 16  1  0  0  0  0
 22 18  1  0  0  0  0
 22  3  1  0  0  0  0
 24 25  1  1  0  0  0
 25 23  1  0  0  0  0
 26 23  1  0  0  0  0
 27 24  1  0  0  0  0
 27 26  1  0  0  0  0
M  END
>  <MODEL>
3

>  <REMARK>
 VINA RESULT:      -5.4      2.945      4.585
  Name = 
  1 active torsions:
  status: ('A' for Active; 'I' for Inactive)
    1  A    between atoms: C_9  and  C_11
                            x       y       z     vdW  Elec       q    Type
                         _______ _______ _______ _____ _____    ______ ____

>  <TORSDO>
F 1

$$$$
=
 OpenBabel10262420033D

 27 31  0  0  1  0  0  0  0  0999 V2000
  183.1280  178.9770  139.2840 C   0  0  0  0  0  2  0  0  0  0  0  0
  181.3180  178.8660  137.5090 C   0  0  1  0  0  0  0  0  0  0  0  0
  179.2020  179.8330  138.4810 C   0  0  0  0  0  2  0  0  0  0  0  0
  180.4420  182.2980  135.0300 C   0  0  0  0  0  3  0  0  0  0  0  0
  181.1810  184.2250  136.3810 C   0  0  0  0  0  3  0  0  0  0  0  0
  181.1680  178.8380  136.0610 N   0  0  0  0  0  2  0  0  0  0  0  0
  181.1580  182.3870  138.0430 N   0  0  0  0  0  0  0  0  0  0  0  0
  181.3140  177.5310  138.2340 C   0  0  2  0  0  3  0  0  0  0  0  0
  179.3640  178.6160  142.0740 C   0  0  0  0  0  2  0  0  0  0  0  0
  181.4230  183.7150  137.5850 C   0  0  0  0  0  3  0  0  0  0  0  0
  180.8060  178.2530  142.3980 C   0  0  0  0  0  2  0  0  0  0  0  0
  180.8810  181.2970  137.3970 C   0  0  0  0  0  0  0  0  0  0  0  0
  182.6370  178.2810  138.0110 C   0  0  2  0  0  3  0  0  0  0  0  0
  180.6060  183.5620  135.2550 N   0  0  0  0  0  0  0  0  0  0  0  0
  180.7990  181.1880  135.9150 C   0  0  0  0  0  0  0  0  0  0  0  0
  183.0790  178.0530  140.4990 C   0  0  0  0  0  2  0  0  0  0  0  0
  180.6870  180.0610  138.2230 C   0  0  2  0  0  3  0  0  0  0  0  0
  179.1080  178.4930  140.5810 C   0  0  0  0  0  2  0  0  0  0  0  0
  180.9100  180.0220  135.3460 N   0  0  0  0  0  0  0  0  0  0  0  0
  181.7560  179.2990  141.8280 C   0  0  0  0  0  2  0  0  0  0  0  0
  183.0570  178.7870  141.6960 O   0  0  0  0  0  0  0  0  0  0  0  0
  178.9310  179.8740  139.9740 C   0  0  0  0  0  2  0  0  0  0  0  0
  179.9250  174.3620  137.2080 C   0  0  0  0  0  2  0  0  0  0  0  0
  181.2370  176.3330  137.2980 C   0  0  2  0  0  3  0  0  0  0  0  0
  179.8060  175.8540  137.1980 C   0  0  0  0  0  2  0  0  0  0  0  0
  181.4100  174.1140  137.3190 C   0  0  0  0  0  2  0  0  0  0  0  0
  182.0190  175.2820  137.7990 O   0  0  0  0  0  0  0  0  0  0  0  0
  1 16  1  0  0  0  0
  2  6  1  6  0  0  0
  2 13  1  0  0  0  0
  2 17  1  0  0  0  0
  2  8  1  0  0  0  0
  3 22  1  0  0  0  0
  4 14  2  0  0  0  0
  4 15  1  0  0  0  0
  5 10  2  0  0  0  0
  8 24  1  6  0  0  0
  9 11  1  0  0  0  0
 10  7  1  0  0  0  0
 12  7  2  0  0  0  0
 12 17  1  0  0  0  0
 13  8  1  0  0  0  0
 13  1  1  1  0  0  0
 14  5  1  0  0  0  0
 15 12  1  0  0  0  0
 16 21  1  0  0  0  0
 17  3  1  6  0  0  0
 18  9  1  0  0  0  0
 19 15  2  0  0  0  0
 19  6  1  0  0  0  0
 20 11  1  0  0  0  0
 21 20  1  0  0  0  0
 22 18  1  0  0  0  0
 23 26  1  0  0  0  0
 24 25  1  1  0  0  0
 24 27  1  0  0  0  0
 25 23  1  0  0  0  0
 26 27  1  0  0  0  0
M  END
>  <MODEL>
4

>  <REMARK>
 VINA RESULT:      -4.8      1.584      4.617
  Name = 
  1 active torsions:
  status: ('A' for Active; 'I' for Inactive)
    1  A    between atoms: C_9  and  C_11
                            x       y       z     vdW  Elec       q    Type
                         _______ _______ _______ _____ _____    ______ ____

>  <TORSDO>
F 1

$$$$
=
 OpenBabel10262420033D

 27 31  0  0  1  0  0  0  0  0999 V2000
  182.9000  177.5400  139.7870 C   0  0  0  0  0  2  0  0  0  0  0  0
  183.1470  175.6940  138.0640 C   0  0  1  0  0  0  0  0  0  0  0  0
  183.2570  176.7580  135.7810 C   0  0  0  0  0  2  0  0  0  0  0  0
  187.0430  174.6080  136.5350 C   0  0  0  0  0  3  0  0  0  0  0  0
  188.4030  176.6430  136.8410 C   0  0  0  0  0  3  0  0  0  0  0  0
  183.6520  174.3340  137.9430 N   0  0  0  0  0  2  0  0  0  0  0  0
  186.0970  177.4880  137.1740 N   0  0  0  0  0  0  0  0  0  0  0  0
  181.6600  175.8640  138.3250 C   0  0  2  0  0  3  0  0  0  0  0  0
  180.8050  179.6350  136.1400 C   0  0  0  0  0  2  0  0  0  0  0  0
  187.5230  177.5870  137.1670 C   0  0  0  0  0  3  0  0  0  0  0  0
  180.6180  179.9310  137.6210 C   0  0  0  0  0  2  0  0  0  0  0  0
  185.3080  176.4590  137.1370 C   0  0  0  0  0  0  0  0  0  0  0  0
  182.6690  176.0600  139.4680 C   0  0  2  0  0  3  0  0  0  0  0  0
  188.1290  175.3040  136.4310 N   0  0  0  0  0  0  0  0  0  0  0  0
  185.7650  175.0430  137.0990 C   0  0  0  0  0  0  0  0  0  0  0  0
  181.5880  178.3120  139.9130 C   0  0  0  0  0  2  0  0  0  0  0  0
  183.8370  176.7410  137.1900 C   0  0  2  0  0  3  0  0  0  0  0  0
  181.2200  178.1870  135.9350 C   0  0  0  0  0  2  0  0  0  0  0  0
  184.9490  174.0920  137.4560 N   0  0  0  0  0  0  0  0  0  0  0  0
  181.9590  179.8830  138.3430 C   0  0  0  0  0  2  0  0  0  0  0  0
  181.7880  179.6890  139.7230 O   0  0  0  0  0  0  0  0  0  0  0  0
  182.6700  178.1270  135.4860 C   0  0  0  0  0  2  0  0  0  0  0  0
  178.9460  173.5950  137.6130 C   0  0  0  0  0  2  0  0  0  0  0  0
  180.9230  174.5450  138.5090 C   0  0  2  0  0  3  0  0  0  0  0  0
  180.2830  174.1310  137.2040 C   0  0  0  0  0  2  0  0  0  0  0  0
  178.9330  173.7530  139.1140 C   0  0  0  0  0  2  0  0  0  0  0  0
  179.9110  174.6920  139.4690 O   0  0  0  0  0  0  0  0  0  0  0  0
  1 16  1  0  0  0  0
  2  6  1  6  0  0  0
  2  8  1  0  0  0  0
  2 13  1  0  0  0  0
  4 15  1  0  0  0  0
  5 10  2  0  0  0  0
  8 24  1  1  0  0  0
  8 13  1  0  0  0  0
  9 11  1  0  0  0  0
 10  7  1  0  0  0  0
 11 20  1  0  0  0  0
 12  7  2  0  0  0  0
 12 17  1  0  0  0  0
 13  1  1  6  0  0  0
 14  4  2  0  0  0  0
 14  5  1  0  0  0  0
 15 12  1  0  0  0  0
 15 19  2  0  0  0  0
 17  3  1  6  0  0  0
 17  2  1  0  0  0  0
 18  9  1  0  0  0  0
 19  6  1  0  0  0  0
 20 21  1  0  0  0  0
 21 16  1  0  0  0  0
 22  3  1  0  0  0  0
 22 18  1  0  0  0  0
 23 26  1  0  0  0  0
 24 25  1  6  0  0  0
 24 27  1  0  0  0  0
 25 23  1  0  0  0  0
 26 27  1  0  0  0  0
M  END
>  <MODEL>
5

>  <REMARK>
 VINA RESULT:      -4.5      3.763      6.563
  Name = 
  1 active torsions:
  status: ('A' for Active; 'I' for Inactive)
    1  A    between atoms: C_9  and  C_11
                            x       y       z     vdW  Elec       q    Type
                         _______ _______ _______ _____ _____    ______ ____

>  <TORSDO>
F 1

$$$$
=
 OpenBabel10262420033D

 27 31  0  0  1  0  0  0  0  0999 V2000
  181.5820  175.5760  138.4000 C   0  0  0  0  0  2  0  0  0  0  0  0
  183.0970  177.4050  139.2900 C   0  0  1  0  0  0  0  0  0  0  0  0
  181.9740  179.6250  138.8840 C   0  0  0  0  0  2  0  0  0  0  0  0
  182.4790  179.0590  143.2370 C   0  0  0  0  0  3  0  0  0  0  0  0
  180.0880  178.6590  143.6930 C   0  0  0  0  0  3  0  0  0  0  0  0
  184.1390  177.6120  140.2860 N   0  0  0  0  0  0  0  0  0  0  0  0
  180.2430  178.2400  141.2550 N   0  0  0  0  0  0  0  0  0  0  0  0
  183.5430  177.1100  137.8680 C   0  0  2  0  0  3  0  0  0  0  0  0
  180.3240  179.0610  135.5110 C   0  0  0  0  0  2  0  0  0  0  0  0
  179.5870  178.2660  142.5250 C   0  0  0  0  0  3  0  0  0  0  0  0
  180.1950  177.5630  135.2790 C   0  0  0  0  0  2  0  0  0  0  0  0
  181.4970  178.3230  140.9370 C   0  0  0  0  0  0  0  0  0  0  0  0
  183.0160  175.9750  138.7600 C   0  0  2  0  0  3  0  0  0  0  0  0
  181.4060  179.1410  143.9560 N   0  0  0  0  0  2  0  0  0  0  0  0
  182.6130  178.4490  141.9140 C   0  0  0  0  0  0  0  0  0  0  0  0
  181.4000  175.3840  136.8950 C   0  0  0  0  0  2  0  0  0  0  0  0
  181.8240  178.2290  139.4760 C   0  0  2  0  0  3  0  0  0  0  0  0
  181.4780  179.3550  136.4560 C   0  0  0  0  0  2  0  0  0  0  0  0
  183.8240  178.1330  141.5540 N   0  0  0  0  0  0  0  0  0  0  0  0
  179.7400  176.8670  136.5560 C   0  0  0  0  0  2  0  0  0  0  0  0
  180.0490  175.4980  136.5280 O   0  0  0  0  0  0  0  0  0  0  0  0
  180.9380  179.8320  137.7930 C   0  0  0  0  0  2  0  0  0  0  0  0
  186.7260  178.2250  136.5840 C   0  0  0  0  0  2  0  0  0  0  0  0
  185.0530  176.9890  137.7190 C   0  0  2  0  0  3  0  0  0  0  0  0
  185.6700  178.3670  137.6360 C   0  0  0  0  0  2  0  0  0  0  0  0
  186.6200  176.7830  136.1520 C   0  0  0  0  0  2  0  0  0  0  0  0
  185.3640  176.2960  136.5410 O   0  0  0  0  0  0  0  0  0  0  0  0
  2 17  1  0  0  0  0
  2  6  1  1  0  0  0
  4 14  1  0  0  0  0
  5 14  1  0  0  0  0
  6 19  2  0  0  0  0
  7 10  1  0  0  0  0
  8 24  1  1  0  0  0
  8 13  1  0  0  0  0
  8  2  1  0  0  0  0
  9 18  1  0  0  0  0
 10  5  2  0  0  0  0
 11  9  1  0  0  0  0
 11 20  1  0  0  0  0
 12  7  2  0  0  0  0
 12 15  1  0  0  0  0
 13  1  1  6  0  0  0
 13  2  1  0  0  0  0
 15  4  2  0  0  0  0
 16  1  1  0  0  0  0
 17  3  1  1  0  0  0
 17 12  1  0  0  0  0
 18 22  1  0  0  0  0
 19 15  1  0  0  0  0
 21 20  1  0  0  0  0
 21 16  1  0  0  0  0
 22  3  1  0  0  0  0
 23 25  1  0  0  0  0
 24 25  1  6  0  0  0
 26 27  1  0  0  0  0
 26 23  1  0  0  0  0
 27 24  1  0  0  0  0
M  END
>  <MODEL>
6

>  <REMARK>
 VINA RESULT:      -4.4      2.933      5.974
  Name = 
  1 active torsions:
  status: ('A' for Active; 'I' for Inactive)
    1  A    between atoms: C_9  and  C_11
                            x       y       z     vdW  Elec       q    Type
                         _______ _______ _______ _____ _____    ______ ____

>  <TORSDO>
F 1

$$$$
=
 OpenBabel10262420033D

 27 31  0  0  1  0  0  0  0  0999 V2000
  190.5650  174.2180  137.6970 C   0  0  0  0  0  2  0  0  0  0  0  0
  191.8000  176.3580  138.2770 C   0  0  1  0  0  0  0  0  0  0  0  0
  190.1420  178.2560  138.2480 C   0  0  0  0  0  2  0  0  0  0  0  0
  191.8030  177.8770  142.3250 C   0  0  0  0  0  3  0  0  0  0  0  0
  189.7470  176.9480  143.3220 C   0  0  0  0  0  3  0  0  0  0  0  0
  192.9790  176.8100  139.0020 N   0  0  0  0  0  0  0  0  0  0  0  0
  189.3960  176.5430  140.9020 N   0  0  0  0  0  0  0  0  0  0  0  0
  191.9420  176.1540  136.7780 C   0  0  2  0  0  3  0  0  0  0  0  0
  187.8940  177.2860  135.3460 C   0  0  0  0  0  2  0  0  0  0  0  0
  189.0790  176.4350  142.2920 C   0  0  0  0  0  3  0  0  0  0  0  0
  188.0530  175.7950  135.0870 C   0  0  0  0  0  2  0  0  0  0  0  0
  190.4840  176.9060  140.2970 C   0  0  0  0  0  0  0  0  0  0  0  0
  191.9160  174.9390  137.7200 C   0  0  2  0  0  3  0  0  0  0  0  0
  190.9460  177.7210  143.2820 N   0  0  0  0  0  2  0  0  0  0  0  0
  191.7450  177.2970  140.9830 C   0  0  0  0  0  0  0  0  0  0  0  0
  190.0720  173.9700  136.2720 C   0  0  0  0  0  2  0  0  0  0  0  0
  190.4590  176.8710  138.7980 C   0  0  2  0  0  3  0  0  0  0  0  0
  189.1460  177.8490  135.9990 C   0  0  0  0  0  2  0  0  0  0  0  0
  192.8720  177.2620  140.3300 N   0  0  0  0  0  0  0  0  0  0  0  0
  188.0900  175.0310  136.4040 C   0  0  0  0  0  2  0  0  0  0  0  0
  188.6820  173.7680  136.2440 O   0  0  0  0  0  0  0  0  0  0  0  0
  188.8530  178.2060  137.4460 C   0  0  0  0  0  2  0  0  0  0  0  0
  194.7100  175.3850  134.5940 C   0  0  0  0  0  2  0  0  0  0  0  0
  193.3590  176.3790  136.2670 C   0  0  2  0  0  3  0  0  0  0  0  0
  193.4130  176.1100  134.7810 C   0  0  0  0  0  2  0  0  0  0  0  0
  195.2830  175.2960  135.9870 C   0  0  0  0  0  2  0  0  0  0  0  0
  194.2440  175.5000  136.9070 O   0  0  0  0  0  0  0  0  0  0  0  0
  2 17  1  0  0  0  0
  2  6  1  1  0  0  0
  4 14  1  0  0  0  0
  6 19  2  0  0  0  0
  7 10  1  0  0  0  0
  8 24  1  1  0  0  0
  8 13  1  0  0  0  0
  8  2  1  0  0  0  0
  9 18  1  0  0  0  0
 10  5  2  0  0  0  0
 11  9  1  0  0  0  0
 11 20  1  0  0  0  0
 12  7  2  0  0  0  0
 12 15  1  0  0  0  0
 13  1  1  6  0  0  0
 13  2  1  0  0  0  0
 14  5  1  0  0  0  0
 15  4  2  0  0  0  0
 16  1  1  0  0  0  0
 17  3  1  6  0  0  0
 17 12  1  0  0  0  0
 18 22  1  0  0  0  0
 19 15  1  0  0  0  0
 21 16  1  0  0  0  0
 21 20  1  0  0  0  0
 22  3  1  0  0  0  0
 23 25  1  0  0  0  0
 23 26  1  0  0  0  0
 24 25  1  6  0  0  0
 24 27  1  0  0  0  0
 26 27  1  0  0  0  0
M  END
>  <MODEL>
7

>  <REMARK>
 VINA RESULT:      -4.3      9.366     12.086
  Name = 
  1 active torsions:
  status: ('A' for Active; 'I' for Inactive)
    1  A    between atoms: C_9  and  C_11
                            x       y       z     vdW  Elec       q    Type
                         _______ _______ _______ _____ _____    ______ ____

>  <TORSDO>
F 1

$$$$
=
 OpenBabel10262420033D

 27 31  0  0  1  0  0  0  0  0999 V2000
  179.9650  176.0390  137.7120 C   0  0  0  0  0  2  0  0  0  0  0  0
  181.8120  177.5000  136.7670 C   0  0  1  0  0  0  0  0  0  0  0  0
  183.4450  178.0010  138.6210 C   0  0  0  0  0  2  0  0  0  0  0  0
  185.5430  175.7610  135.4420 C   0  0  0  0  0  3  0  0  0  0  0  0
  185.7210  173.6610  136.7240 C   0  0  0  0  0  3  0  0  0  0  0  0
  182.4730  177.7940  135.5040 N   0  0  0  0  0  2  0  0  0  0  0  0
  183.9180  174.8660  137.9240 N   0  0  0  0  0  0  0  0  0  0  0  0
  180.6870  178.4260  137.1960 C   0  0  2  0  0  3  0  0  0  0  0  0
  181.1390  178.3790  141.6140 C   0  0  0  0  0  2  0  0  0  0  0  0
  184.7580  173.7450  137.6380 C   0  0  0  0  0  3  0  0  0  0  0  0
  179.8180  177.6920  141.2980 C   0  0  0  0  0  2  0  0  0  0  0  0
  183.6760  175.9490  137.2530 C   0  0  0  0  0  0  0  0  0  0  0  0
  180.3630  177.0380  136.6210 C   0  0  2  0  0  3  0  0  0  0  0  0
  186.1370  174.6700  135.8040 N   0  0  0  0  0  0  0  0  0  0  0  0
  184.2540  176.2660  135.9180 C   0  0  0  0  0  0  0  0  0  0  0  0
  178.9320  176.6220  138.6740 C   0  0  0  0  0  2  0  0  0  0  0  0
  182.7000  176.9100  137.8620 C   0  0  2  0  0  3  0  0  0  0  0  0
  181.8290  178.8200  140.3330 C   0  0  0  0  0  2  0  0  0  0  0  0
  183.6740  177.1500  135.1570 N   0  0  0  0  0  0  0  0  0  0  0  0
  180.0680  176.3610  140.6010 C   0  0  0  0  0  2  0  0  0  0  0  0
  178.9310  175.9330  139.8980 O   0  0  0  0  0  0  0  0  0  0  0  0
  183.0570  177.9610  140.0890 C   0  0  0  0  0  2  0  0  0  0  0  0
  180.2210  181.8640  136.2020 C   0  0  0  0  0  2  0  0  0  0  0  0
  180.3600  179.4990  136.1660 C   0  0  2  0  0  3  0  0  0  0  0  0
  181.1790  180.7380  136.4430 C   0  0  0  0  0  2  0  0  0  0  0  0
  178.9360  181.1730  135.8150 C   0  0  0  0  0  2  0  0  0  0  0  0
  179.0020  179.8410  136.2470 O   0  0  0  0  0  0  0  0  0  0  0  0
  1 16  1  0  0  0  0
  2  6  1  6  0  0  0
  2  8  1  0  0  0  0
  2 17  1  0  0  0  0
  3 22  1  0  0  0  0
  4 14  2  0  0  0  0
  4 15  1  0  0  0  0
  5 10  2  0  0  0  0
  8 24  1  6  0  0  0
 10  7  1  0  0  0  0
 11  9  1  0  0  0  0
 12 17  1  0  0  0  0
 12  7  2  0  0  0  0
 13  2  1  0  0  0  0
 13  8  1  0  0  0  0
 13  1  1  1  0  0  0
 14  5  1  0  0  0  0
 15 12  1  0  0  0  0
 16 21  1  0  0  0  0
 17  3  1  6  0  0  0
 18  9  1  0  0  0  0
 19  6  1  0  0  0  0
 19 15  2  0  0  0  0
 20 11  1  0  0  0  0
 21 20  1  0  0  0  0
 22 18  1  0  0  0  0
 23 25  1  0  0  0  0
 24 27  1  0  0  0  0
 24 25  1  1  0  0  0
 26 23  1  0  0  0  0
 26 27  1  0  0  0  0
M  END
>  <MODEL>
8

>  <REMARK>
 VINA RESULT:      -3.8      2.978      6.013
  Name = 
  1 active torsions:
  status: ('A' for Active; 'I' for Inactive)
    1  A    between atoms: C_9  and  C_11
                            x       y       z     vdW  Elec       q    Type
                         _______ _______ _______ _____ _____    ______ ____

>  <TORSDO>
F 1

$$$$
=
 OpenBabel10262420033D

 27 31  0  0  1  0  0  0  0  0999 V2000
  181.3760  176.1420  135.8550 C   0  0  0  0  0  2  0  0  0  0  0  0
  182.9490  176.2650  137.8420 C   0  0  1  0  0  0  0  0  0  0  0  0
  184.5960  174.3660  137.6610 C   0  0  0  0  0  2  0  0  0  0  0  0
  186.8050  178.1890  137.4910 C   0  0  0  0  0  3  0  0  0  0  0  0
  187.3430  178.0340  135.0880 C   0  0  0  0  0  3  0  0  0  0  0  0
  183.4920  177.2340  138.7840 N   0  0  0  0  0  2  0  0  0  0  0  0
  185.4590  176.4390  135.3170 N   0  0  0  0  0  0  0  0  0  0  0  0
  181.7320  175.4720  138.2860 C   0  0  2  0  0  3  0  0  0  0  0  0
  182.4280  171.5810  136.2610 C   0  0  0  0  0  2  0  0  0  0  0  0
  186.4280  177.2020  134.5950 C   0  0  0  0  0  3  0  0  0  0  0  0
  181.1990  172.2020  135.6130 C   0  0  0  0  0  2  0  0  0  0  0  0
  185.0330  176.5300  136.5390 C   0  0  0  0  0  0  0  0  0  0  0  0
  181.5720  176.6340  137.2930 C   0  0  2  0  0  3  0  0  0  0  0  0
  187.5640  178.3680  136.4570 N   0  0  0  0  0  0  0  0  0  0  0  0
  185.4880  177.5520  137.5200 C   0  0  0  0  0  0  0  0  0  0  0  0
  180.3270  175.0360  135.7650 C   0  0  0  0  0  2  0  0  0  0  0  0
  183.9680  175.5580  136.9500 C   0  0  2  0  0  3  0  0  0  0  0  0
  182.9790  172.4960  137.3430 C   0  0  0  0  0  2  0  0  0  0  0  0
  184.7510  177.8220  138.5590 N   0  0  0  0  0  0  0  0  0  0  0  0
  181.5920  173.4360  134.8110 C   0  0  0  0  0  2  0  0  0  0  0  0
  180.4880  174.2770  134.5950 O   0  0  0  0  0  0  0  0  0  0  0  0
  184.2980  173.0930  136.8870 C   0  0  0  0  0  2  0  0  0  0  0  0
  179.1630  175.5810  140.8190 C   0  0  0  0  0  2  0  0  0  0  0  0
  181.2030  175.8860  139.6530 C   0  0  2  0  0  3  0  0  0  0  0  0
  180.2850  174.8130  140.1910 C   0  0  0  0  0  2  0  0  0  0  0  0
  179.5330  177.0260  140.5820 C   0  0  0  0  0  2  0  0  0  0  0  0
  180.4720  177.0770  139.5420 O   0  0  0  0  0  0  0  0  0  0  0  0
  2  8  1  0  0  0  0
  2  6  1  1  0  0  0
  4 15  1  0  0  0  0
  5 14  1  0  0  0  0
  7 12  2  0  0  0  0
  8 24  1  1  0  0  0
  9 18  1  0  0  0  0
 10  5  2  0  0  0  0
 10  7  1  0  0  0  0
 11  9  1  0  0  0  0
 12 17  1  0  0  0  0
 12 15  1  0  0  0  0
 13  1  1  6  0  0  0
 13  2  1  0  0  0  0
 13  8  1  0  0  0  0
 14  4  2  0  0  0  0
 15 19  2  0  0  0  0
 16  1  1  0  0  0  0
 17  3  1  1  0  0  0
 17  2  1  0  0  0  0
 19  6  1  0  0  0  0
 20 11  1  0  0  0  0
 21 20  1  0  0  0  0
 21 16  1  0  0  0  0
 22 18  1  0  0  0  0
 22  3  1  0  0  0  0
 24 25  1  6  0  0  0
 25 23  1  0  0  0  0
 26 23  1  0  0  0  0
 27 24  1  0  0  0  0
 27 26  1  0  0  0  0
M  END
>  <MODEL>
9

>  <REMARK>
 VINA RESULT:      -3.4      3.943      5.368
  Name = 
  1 active torsions:
  status: ('A' for Active; 'I' for Inactive)
    1  A    between atoms: C_9  and  C_11
                            x       y       z     vdW  Elec       q    Type
                         _______ _______ _______ _____ _____    ______ ____

>  <TORSDO>
F 1

$$$$
