=
 OpenBabel10262423013D

 37 42  0  0  1  0  0  0  0  0999 V2000
  182.2670  179.5150  137.1420 O   0  0  0  0  0  0  0  0  0  0  0  0
  185.7160  177.8190  139.1880 C   0  0  1  0  0  3  0  0  0  0  0  0
  181.0190  179.1990  136.5700 C   0  0  1  0  0  3  0  0  0  0  0  0
  182.5410  177.9150  141.3110 C   0  0  0  0  0  2  0  0  0  0  0  0
  184.3750  178.3980  139.6000 C   0  0  2  0  0  3  0  0  0  0  0  0
  185.6180  177.5510  137.6820 C   0  0  1  0  0  3  0  0  0  0  0  0
  184.0500  177.9860  141.0390 C   0  0  1  0  0  3  0  0  0  0  0  0
  180.0780  178.8890  137.5720 O   0  0  0  0  0  0  0  0  0  0  0  0
  184.1320  177.4140  137.3800 C   0  0  2  0  0  3  0  0  0  0  0  0
  187.0140  178.5140  140.8860 C   0  0  0  0  0  2  0  0  0  0  0  0
  180.8450  178.4590  138.6550 C   0  0  2  0  0  0  0  0  0  0  0  0
  181.7960  179.2110  140.9790 C   0  0  0  0  0  2  0  0  0  0  0  0
  186.7610  178.6960  139.5200 O   0  0  0  0  0  0  0  0  0  0  0  0
  183.3690  177.8170  138.6350 C   0  0  2  0  0  3  0  0  0  0  0  0
  184.7970  178.7980  142.1280 C   0  0  2  0  0  3  0  0  0  0  0  0
  181.5010  179.5670  139.4960 C   0  0  1  0  0  3  0  0  0  0  0  0
  182.2630  178.8470  138.3660 C   0  0  1  0  0  0  0  0  0  0  0  0
  186.1220  179.4510  141.6990 C   0  0  0  0  0  2  0  0  0  0  0  0
  187.0240  176.6810  143.7240 N   0  0  0  0  0  1  0  0  0  0  0  0
  185.0000  178.0180  143.4360 C   0  0  2  0  0  3  0  0  0  0  0  0
  184.1620  178.5630  144.5970 C   0  0  0  0  0  2  0  0  0  0  0  0
  184.8740  179.0960  146.8350 O   0  0  0  0  0  0  0  0  0  0  0  0
  186.4760  178.3810  145.2850 N   0  0  0  0  0  2  0  0  0  0  0  0
  185.1590  178.7090  145.6730 C   0  0  0  0  0  0  0  0  0  0  0  0
  186.4700  178.0140  143.8810 C   0  0  1  0  0  3  0  0  0  0  0  0
  180.5970  177.0430  139.1780 C   0  0  0  0  0  2  0  0  0  0  0  0
  180.0970  176.1550  138.0550 C   0  0  0  0  0  1  0  0  0  0  0  0
  180.7570  181.5660  136.4400 O   0  0  0  0  0  1  0  0  0  0  0  0
  180.5130  180.3750  135.7570 C   0  0  0  0  0  2  0  0  0  0  0  0
  183.7810  176.0140  136.9750 C   0  0  0  0  0  0  0  0  0  0  0  0
  183.3290  175.7960  135.7400 C   0  0  0  0  0  2  0  0  0  0  0  0
  183.6940  174.9170  137.9980 C   0  0  0  0  0  2  0  0  0  0  0  0
  184.4080  173.6590  137.5290 C   0  0  0  0  0  2  0  0  0  0  0  0
  185.7880  173.8640  137.5250 O   0  0  0  0  0  1  0  0  0  0  0  0
  186.1800  178.6800  136.8260 C   0  0  0  0  0  2  0  0  0  0  0  0
  187.1950  178.1350  135.8400 C   0  0  0  0  0  2  0  0  0  0  0  0
  188.5530  178.0650  136.5020 C   0  0  0  0  0  1  0  0  0  0  0  0
  1 17  1  0  0  0  0
  2 13  1  6  0  0  0
  2  5  1  0  0  0  0
  3 29  1  1  0  0  0
  3  1  1  0  0  0  0
  3  8  1  0  0  0  0
  5  7  1  0  0  0  0
  6  2  1  0  0  0  0
  7  4  1  0  0  0  0
  7 15  1  0  0  0  0
  8 11  1  0  0  0  0
  9  6  1  0  0  0  0
  9 14  1  0  0  0  0
 10 18  1  0  0  0  0
 11 26  1  0  0  0  0
 11 16  1  0  0  0  0
 12  4  1  0  0  0  0
 13 10  1  0  0  0  0
 14  5  1  0  0  0  0
 15 20  1  0  0  0  0
 16 12  1  0  0  0  0
 17 14  1  0  0  0  0
 17 11  1  0  0  0  0
 17 16  1  0  0  0  0
 18 15  1  0  0  0  0
 19 25  1  0  0  0  0
 20 25  1  0  0  0  0
 20 21  1  0  0  0  0
 21 24  1  0  0  0  0
 23 24  1  0  0  0  0
 24 22  2  0  0  0  0
 25 23  1  0  0  0  0
 27 26  1  0  0  0  0
 29 28  1  0  0  0  0
 30  9  1  0  0  0  0
 30 32  1  0  0  0  0
 31 30  2  0  0  0  0
 33 32  1  0  0  0  0
 34 33  1  0  0  0  0
 35  6  1  0  0  0  0
 36 37  1  0  0  0  0
 36 35  1  0  0  0  0
M  END
>  <MODEL>
1

>  <REMARK>
 VINA RESULT:      -5.7      0.000      0.000
  Name = 
  8 active torsions:
  status: ('A' for Active; 'I' for Inactive)
    1  A    between atoms: C_3  and  C_32
    2  A    between atoms: C_5  and  C_23
    3  A    between atoms: C_6  and  C_31
    4  A    between atoms: C_9  and  C_13
    5  A    between atoms: C_9  and  C_16
    6  A    between atoms: C_11  and  C_26
    7  A    between atoms: C_20  and  C_21
    8  A    between atoms: C_21  and  C_32
                            x       y       z     vdW  Elec       q    Type
                         _______ _______ _______ _____ _____    ______ ____

>  <TORSDO>
F 8

$$$$
=
 OpenBabel10262423013D

 37 42  0  0  1  0  0  0  0  0999 V2000
  180.6540  179.7810  137.6860 O   0  0  0  0  0  0  0  0  0  0  0  0
  182.9820  176.4470  136.1270 C   0  0  1  0  0  3  0  0  0  0  0  0
  179.8420  180.1930  138.7610 C   0  0  1  0  0  3  0  0  0  0  0  0
  184.5360  178.1340  139.1820 C   0  0  0  0  0  2  0  0  0  0  0  0
  183.2430  177.6330  137.0370 C   0  0  2  0  0  3  0  0  0  0  0  0
  181.4580  176.3240  136.0170 C   0  0  1  0  0  3  0  0  0  0  0  0
  184.5330  177.4060  137.8310 C   0  0  1  0  0  3  0  0  0  0  0  0
  180.6180  180.3920  139.9200 O   0  0  0  0  0  0  0  0  0  0  0  0
  180.8950  177.0050  137.2580 C   0  0  2  0  0  3  0  0  0  0  0  0
  184.9550  176.2910  135.0620 C   0  0  0  0  0  2  0  0  0  0  0  0
  181.7400  179.5850  139.7380 C   0  0  2  0  0  0  0  0  0  0  0  0
  184.2740  179.6390  139.0690 C   0  0  0  0  0  2  0  0  0  0  0  0
  183.6060  176.6260  134.8820 O   0  0  0  0  0  0  0  0  0  0  0  0
  182.0500  177.7060  137.9600 C   0  0  2  0  0  3  0  0  0  0  0  0
  185.8370  177.6620  137.0330 C   0  0  2  0  0  3  0  0  0  0  0  0
  182.8300  180.1480  138.8090 C   0  0  1  0  0  3  0  0  0  0  0  0
  181.7510  179.1740  138.2970 C   0  0  1  0  0  0  0  0  0  0  0  0
  185.7330  177.5300  135.5040 C   0  0  0  0  0  2  0  0  0  0  0  0
  187.9690  175.0850  136.1370 N   0  0  0  0  0  1  0  0  0  0  0  0
  187.0330  176.8480  137.5470 C   0  0  2  0  0  3  0  0  0  0  0  0
  187.8140  177.5610  138.6560 C   0  0  0  0  0  2  0  0  0  0  0  0
  190.1910  177.9040  138.8300 O   0  0  0  0  0  0  0  0  0  0  0  0
  189.3430  176.8550  136.9170 N   0  0  0  0  0  2  0  0  0  0  0  0
  189.2060  177.4700  138.1800 C   0  0  0  0  0  0  0  0  0  0  0  0
  188.0240  176.5080  136.4230 C   0  0  1  0  0  3  0  0  0  0  0  0
  182.0040  178.4980  140.7800 C   0  0  0  0  0  2  0  0  0  0  0  0
  181.0140  178.6200  141.9210 C   0  0  0  0  0  1  0  0  0  0  0  0
  180.0510  182.4070  137.8980 O   0  0  0  0  0  1  0  0  0  0  0  0
  179.1340  181.4850  138.4040 C   0  0  0  0  0  2  0  0  0  0  0  0
  180.2390  176.0170  138.1760 C   0  0  0  0  0  0  0  0  0  0  0  0
  179.2980  176.4470  139.0140 C   0  0  0  0  0  2  0  0  0  0  0  0
  180.7950  174.6300  138.3360 C   0  0  0  0  0  2  0  0  0  0  0  0
  179.7070  173.6330  138.7020 C   0  0  0  0  0  2  0  0  0  0  0  0
  179.8040  172.4990  137.8940 O   0  0  0  0  0  1  0  0  0  0  0  0
  180.8790  177.0140  134.7870 C   0  0  0  0  0  2  0  0  0  0  0  0
  179.5260  177.6170  135.1120 C   0  0  0  0  0  2  0  0  0  0  0  0
  179.4690  179.0370  134.5940 C   0  0  0  0  0  1  0  0  0  0  0  0
  1 17  1  0  0  0  0
  1  3  1  0  0  0  0
  2 13  1  6  0  0  0
  2  5  1  0  0  0  0
  3 29  1  6  0  0  0
  3  8  1  0  0  0  0
  5  7  1  0  0  0  0
  5 14  1  0  0  0  0
  6  2  1  0  0  0  0
  6  9  1  0  0  0  0
  7  4  1  0  0  0  0
  9 14  1  0  0  0  0
  9 30  1  0  0  0  0
 10 18  1  0  0  0  0
 11  8  1  0  0  0  0
 11 26  1  0  0  0  0
 12  4  1  0  0  0  0
 13 10  1  0  0  0  0
 14 17  1  0  0  0  0
 15 20  1  0  0  0  0
 15  7  1  0  0  0  0
 16 12  1  0  0  0  0
 16 11  1  0  0  0  0
 17 16  1  0  0  0  0
 17 11  1  0  0  0  0
 18 15  1  0  0  0  0
 19 25  1  0  0  0  0
 20 21  1  0  0  0  0
 23 24  1  0  0  0  0
 24 21  1  0  0  0  0
 24 22  2  0  0  0  0
 25 23  1  0  0  0  0
 25 20  1  0  0  0  0
 26 27  1  0  0  0  0
 28 29  1  0  0  0  0
 30 32  1  0  0  0  0
 30 31  2  0  0  0  0
 32 33  1  0  0  0  0
 34 33  1  0  0  0  0
 35 36  1  0  0  0  0
 35  6  1  0  0  0  0
 37 36  1  0  0  0  0
M  END
>  <MODEL>
2

>  <REMARK>
 VINA RESULT:      -4.5      3.306      5.351
  Name = 
  8 active torsions:
  status: ('A' for Active; 'I' for Inactive)
    1  A    between atoms: C_3  and  C_32
    2  A    between atoms: C_5  and  C_23
    3  A    between atoms: C_6  and  C_31
    4  A    between atoms: C_9  and  C_13
    5  A    between atoms: C_9  and  C_16
    6  A    between atoms: C_11  and  C_26
    7  A    between atoms: C_20  and  C_21
    8  A    between atoms: C_21  and  C_32
                            x       y       z     vdW  Elec       q    Type
                         _______ _______ _______ _____ _____    ______ ____

>  <TORSDO>
F 8

$$$$
=
 OpenBabel10262423013D

 37 42  0  0  1  0  0  0  0  0999 V2000
  188.9180  176.1110  139.0880 O   0  0  0  0  0  0  0  0  0  0  0  0
  185.5100  174.6600  136.7990 C   0  0  1  0  0  3  0  0  0  0  0  0
  190.0630  176.9300  139.0230 C   0  0  1  0  0  3  0  0  0  0  0  0
  185.2910  178.3560  137.7390 C   0  0  0  0  0  2  0  0  0  0  0  0
  185.8020  175.8540  137.6890 C   0  0  2  0  0  3  0  0  0  0  0  0
  186.8700  174.0380  136.4640 C   0  0  1  0  0  3  0  0  0  0  0  0
  184.7550  176.9470  137.4530 C   0  0  1  0  0  3  0  0  0  0  0  0
  189.6970  178.2910  138.9950 O   0  0  0  0  0  0  0  0  0  0  0  0
  187.8930  175.1520  136.6430 C   0  0  2  0  0  3  0  0  0  0  0  0
  183.3500  174.2840  137.2950 C   0  0  0  0  0  2  0  0  0  0  0  0
  188.4030  178.2990  138.4760 C   0  0  2  0  0  0  0  0  0  0  0  0
  185.8780  178.5160  139.1440 C   0  0  0  0  0  2  0  0  0  0  0  0
  184.6420  173.7610  137.4400 O   0  0  0  0  0  0  0  0  0  0  0  0
  187.1770  176.3330  137.2870 C   0  0  2  0  0  3  0  0  0  0  0  0
  183.3920  176.6950  138.1470 C   0  0  2  0  0  3  0  0  0  0  0  0
  187.2800  177.9300  139.4610 C   0  0  1  0  0  3  0  0  0  0  0  0
  187.9080  176.8850  138.5180 C   0  0  1  0  0  0  0  0  0  0  0  0
  183.0490  175.2280  138.4580 C   0  0  0  0  0  2  0  0  0  0  0  0
  180.3780  175.9770  136.6010 N   0  0  0  0  0  1  0  0  0  0  0  0
  182.2110  177.3640  137.4270 C   0  0  2  0  0  3  0  0  0  0  0  0
  182.0770  178.8560  137.7520 C   0  0  0  0  0  2  0  0  0  0  0  0
  180.1070  180.0700  138.4210 O   0  0  0  0  0  0  0  0  0  0  0  0
  179.9510  177.7540  138.1130 N   0  0  0  0  0  2  0  0  0  0  0  0
  180.6550  178.9780  138.1200 C   0  0  0  0  0  0  0  0  0  0  0  0
  180.8730  176.6900  137.7640 C   0  0  1  0  0  3  0  0  0  0  0  0
  188.1640  179.0880  137.1880 C   0  0  0  0  0  2  0  0  0  0  0  0
  189.3720  178.9770  136.2790 C   0  0  0  0  0  1  0  0  0  0  0  0
  190.1970  176.7660  141.3990 O   0  0  0  0  0  1  0  0  0  0  0  0
  190.9480  176.6740  140.2270 C   0  0  0  0  0  2  0  0  0  0  0  0
  188.5030  175.5530  135.3340 C   0  0  0  0  0  0  0  0  0  0  0  0
  187.8860  176.4730  134.5940 C   0  0  0  0  0  2  0  0  0  0  0  0
  189.6390  174.7690  134.7420 C   0  0  0  0  0  2  0  0  0  0  0  0
  190.7420  174.5310  135.7610 C   0  0  0  0  0  2  0  0  0  0  0  0
  191.4470  175.7120  135.9910 O   0  0  0  0  0  1  0  0  0  0  0  0
  187.2540  172.8820  137.3820 C   0  0  0  0  0  2  0  0  0  0  0  0
  187.9500  171.7920  136.5890 C   0  0  0  0  0  2  0  0  0  0  0  0
  187.1180  171.4440  135.3740 C   0  0  0  0  0  1  0  0  0  0  0  0
  2 13  1  1  0  0  0
  2  5  1  0  0  0  0
  3  1  1  0  0  0  0
  3 29  1  1  0  0  0
  4 12  1  0  0  0  0
  6  9  1  0  0  0  0
  6  2  1  0  0  0  0
  6 35  1  0  0  0  0
  7  5  1  0  0  0  0
  7  4  1  0  0  0  0
  7 15  1  0  0  0  0
  8  3  1  0  0  0  0
  9 14  1  0  0  0  0
 10 13  1  0  0  0  0
 10 18  1  0  0  0  0
 11 17  1  0  0  0  0
 11  8  1  0  0  0  0
 11 16  1  0  0  0  0
 12 16  1  0  0  0  0
 14  5  1  0  0  0  0
 14 17  1  0  0  0  0
 15 18  1  0  0  0  0
 17  1  1  0  0  0  0
 17 16  1  0  0  0  0
 19 25  1  0  0  0  0
 20 21  1  0  0  0  0
 20 25  1  0  0  0  0
 20 15  1  0  0  0  0
 21 24  1  0  0  0  0
 23 24  1  0  0  0  0
 24 22  2  0  0  0  0
 25 23  1  0  0  0  0
 26 11  1  0  0  0  0
 27 26  1  0  0  0  0
 29 28  1  0  0  0  0
 30  9  1  0  0  0  0
 31 30  2  0  0  0  0
 32 30  1  0  0  0  0
 32 33  1  0  0  0  0
 33 34  1  0  0  0  0
 36 35  1  0  0  0  0
 37 36  1  0  0  0  0
M  END
>  <MODEL>
3

>  <REMARK>
 VINA RESULT:      -3.5      3.563      7.203
  Name = 
  8 active torsions:
  status: ('A' for Active; 'I' for Inactive)
    1  A    between atoms: C_3  and  C_32
    2  A    between atoms: C_5  and  C_23
    3  A    between atoms: C_6  and  C_31
    4  A    between atoms: C_9  and  C_13
    5  A    between atoms: C_9  and  C_16
    6  A    between atoms: C_11  and  C_26
    7  A    between atoms: C_20  and  C_21
    8  A    between atoms: C_21  and  C_32
                            x       y       z     vdW  Elec       q    Type
                         _______ _______ _______ _____ _____    ______ ____

>  <TORSDO>
F 8

$$$$
=
 OpenBabel10262423013D

 37 42  0  0  1  0  0  0  0  0999 V2000
  181.7150  179.2130  138.3460 O   0  0  0  0  0  0  0  0  0  0  0  0
  184.2890  176.6670  135.9260 C   0  0  1  0  0  3  0  0  0  0  0  0
  181.0310  179.2940  139.5750 C   0  0  1  0  0  3  0  0  0  0  0  0
  186.0110  178.1500  138.9970 C   0  0  0  0  0  2  0  0  0  0  0  0
  184.4900  177.7320  136.9890 C   0  0  2  0  0  3  0  0  0  0  0  0
  182.8110  176.2680  136.0000 C   0  0  1  0  0  3  0  0  0  0  0  0
  185.9120  177.6450  137.5510 C   0  0  1  0  0  3  0  0  0  0  0  0
  181.9410  179.4660  140.6380 O   0  0  0  0  0  0  0  0  0  0  0  0
  182.3510  176.6330  137.4050 C   0  0  2  0  0  3  0  0  0  0  0  0
  186.0580  177.0600  134.5980 C   0  0  0  0  0  2  0  0  0  0  0  0
  183.1390  178.9290  140.1680 C   0  0  2  0  0  0  0  0  0  0  0  0
  185.4820  179.5750  139.1870 C   0  0  0  0  0  2  0  0  0  0  0  0
  184.6610  177.1490  134.6610 O   0  0  0  0  0  0  0  0  0  0  0  0
  183.4690  177.4330  138.0610 C   0  0  2  0  0  3  0  0  0  0  0  0
  187.0040  178.2660  136.6440 C   0  0  2  0  0  3  0  0  0  0  0  0
  183.9500  179.8260  139.2160 C   0  0  1  0  0  3  0  0  0  0  0  0
  182.9840  178.7470  138.6880 C   0  0  1  0  0  0  0  0  0  0  0  0
  186.6770  178.3460  135.1440 C   0  0  0  0  0  2  0  0  0  0  0  0
  188.7980  176.2530  138.8160 N   0  0  0  0  0  1  0  0  0  0  0  0
  188.3900  177.6330  136.8420 C   0  0  2  0  0  3  0  0  0  0  0  0
  189.1930  177.5260  135.5410 C   0  0  0  0  0  2  0  0  0  0  0  0
  190.3620  175.6140  134.6590 O   0  0  0  0  0  0  0  0  0  0  0  0
  189.1410  175.3690  136.6410 N   0  0  0  0  0  2  0  0  0  0  0  0
  189.6280  176.1170  135.5480 C   0  0  0  0  0  0  0  0  0  0  0  0
  188.2990  176.2270  137.4530 C   0  0  1  0  0  3  0  0  0  0  0  0
  183.7510  177.7710  140.9560 C   0  0  0  0  0  2  0  0  0  0  0  0
  183.8780  178.1480  142.4190 C   0  0  0  0  0  1  0  0  0  0  0  0
  179.3210  180.4910  140.7300 O   0  0  0  0  0  1  0  0  0  0  0  0
  180.0650  180.4630  139.5500 C   0  0  0  0  0  2  0  0  0  0  0  0
  182.0320  175.4110  138.2130 C   0  0  0  0  0  0  0  0  0  0  0  0
  181.2410  175.5340  139.2790 C   0  0  0  0  0  2  0  0  0  0  0  0
  182.7770  174.1260  137.9900 C   0  0  0  0  0  2  0  0  0  0  0  0
  182.0680  173.2380  136.9800 C   0  0  0  0  0  2  0  0  0  0  0  0
  182.6840  171.9880  136.9250 O   0  0  0  0  0  1  0  0  0  0  0  0
  181.9300  177.0080  135.0000 C   0  0  0  0  0  2  0  0  0  0  0  0
  180.6500  177.4710  135.6700 C   0  0  0  0  0  2  0  0  0  0  0  0
  179.6950  177.9990  134.6220 C   0  0  0  0  0  1  0  0  0  0  0  0
  1 17  1  0  0  0  0
  1  3  1  0  0  0  0
  2 13  1  6  0  0  0
  2  6  1  0  0  0  0
  2  5  1  0  0  0  0
  3 29  1  6  0  0  0
  3  8  1  0  0  0  0
  4 12  1  0  0  0  0
  5  7  1  0  0  0  0
  5 14  1  0  0  0  0
  6  9  1  0  0  0  0
  7  4  1  0  0  0  0
  9 14  1  0  0  0  0
  9 30  1  0  0  0  0
 10 13  1  0  0  0  0
 10 18  1  0  0  0  0
 11  8  1  0  0  0  0
 11 26  1  0  0  0  0
 12 16  1  0  0  0  0
 14 17  1  0  0  0  0
 15 20  1  0  0  0  0
 15  7  1  0  0  0  0
 16 11  1  0  0  0  0
 17 16  1  0  0  0  0
 17 11  1  0  0  0  0
 18 15  1  0  0  0  0
 20 25  1  0  0  0  0
 21 24  1  0  0  0  0
 21 20  1  0  0  0  0
 22 24  2  0  0  0  0
 23 25  1  0  0  0  0
 24 23  1  0  0  0  0
 25 19  1  0  0  0  0
 26 27  1  0  0  0  0
 29 28  1  0  0  0  0
 30 31  2  0  0  0  0
 32 30  1  0  0  0  0
 33 32  1  0  0  0  0
 34 33  1  0  0  0  0
 35 36  1  0  0  0  0
 35  6  1  0  0  0  0
 37 36  1  0  0  0  0
M  END
>  <MODEL>
4

>  <REMARK>
 VINA RESULT:      -3.1      2.641      5.714
  Name = 
  8 active torsions:
  status: ('A' for Active; 'I' for Inactive)
    1  A    between atoms: C_3  and  C_32
    2  A    between atoms: C_5  and  C_23
    3  A    between atoms: C_6  and  C_31
    4  A    between atoms: C_9  and  C_13
    5  A    between atoms: C_9  and  C_16
    6  A    between atoms: C_11  and  C_26
    7  A    between atoms: C_20  and  C_21
    8  A    between atoms: C_21  and  C_32
                            x       y       z     vdW  Elec       q    Type
                         _______ _______ _______ _____ _____    ______ ____

>  <TORSDO>
F 8

$$$$
=
 OpenBabel10262423013D

 37 42  0  0  1  0  0  0  0  0999 V2000
  190.1510  179.3100  143.0710 O   0  0  0  0  0  0  0  0  0  0  0  0
  187.0170  177.8790  140.4090 C   0  0  1  0  0  3  0  0  0  0  0  0
  190.9930  178.9350  144.1370 C   0  0  1  0  0  3  0  0  0  0  0  0
  190.4580  176.3740  139.7090 C   0  0  0  0  0  2  0  0  0  0  0  0
  188.5340  177.9070  140.3970 C   0  0  2  0  0  3  0  0  0  0  0  0
  186.5980  178.1850  141.8510 C   0  0  1  0  0  3  0  0  0  0  0  0
  189.0650  176.9140  139.3580 C   0  0  1  0  0  3  0  0  0  0  0  0
  191.9910  178.0450  143.6900 O   0  0  0  0  0  0  0  0  0  0  0  0
  187.7910  177.8090  142.7200 C   0  0  2  0  0  3  0  0  0  0  0  0
  186.5730  178.1790  138.2260 C   0  0  0  0  0  2  0  0  0  0  0  0
  191.4460  177.4430  142.5560 C   0  0  2  0  0  0  0  0  0  0  0  0
  191.5020  177.4710  139.9360 C   0  0  0  0  0  2  0  0  0  0  0  0
  186.4930  178.7950  139.4820 O   0  0  0  0  0  0  0  0  0  0  0  0
  188.9580  177.5040  141.7890 C   0  0  2  0  0  3  0  0  0  0  0  0
  188.9900  177.4130  137.8920 C   0  0  2  0  0  3  0  0  0  0  0  0
  191.4920  178.2760  141.2640 C   0  0  1  0  0  3  0  0  0  0  0  0
  190.2440  178.2500  142.1690 C   0  0  1  0  0  0  0  0  0  0  0  0
  187.9300  178.4860  137.5930 C   0  0  0  0  0  2  0  0  0  0  0  0
  190.5120  176.1400  135.0540 N   0  0  0  0  0  1  0  0  0  0  0  0
  188.8810  176.2730  136.8680 C   0  0  2  0  0  3  0  0  0  0  0  0
  188.0770  175.0750  137.3850 C   0  0  0  0  0  2  0  0  0  0  0  0
  188.6660  172.7410  137.3280 O   0  0  0  0  0  0  0  0  0  0  0  0
  190.2100  174.3100  136.5340 N   0  0  0  0  0  2  0  0  0  0  0  0
  188.9700  173.9390  137.0950 C   0  0  0  0  0  0  0  0  0  0  0  0
  190.2600  175.7570  136.4320 C   0  0  1  0  0  3  0  0  0  0  0  0
  191.2950  175.9210  142.5700 C   0  0  0  0  0  2  0  0  0  0  0  0
  191.6810  175.3720  143.9290 C   0  0  0  0  0  1  0  0  0  0  0  0
  193.0370  180.0190  144.7180 O   0  0  0  0  0  1  0  0  0  0  0  0
  191.6500  180.1660  144.7310 C   0  0  0  0  0  2  0  0  0  0  0  0
  187.4850  176.6260  143.5890 C   0  0  0  0  0  0  0  0  0  0  0  0
  187.9300  175.4250  143.2190 C   0  0  0  0  0  2  0  0  0  0  0  0
  186.4950  176.7330  144.7130 C   0  0  0  0  0  2  0  0  0  0  0  0
  186.8900  177.8170  145.7030 C   0  0  0  0  0  2  0  0  0  0  0  0
  188.1470  177.5400  146.2410 O   0  0  0  0  0  1  0  0  0  0  0  0
  186.2740  179.6560  142.0910 C   0  0  0  0  0  2  0  0  0  0  0  0
  185.1110  179.7850  143.0560 C   0  0  0  0  0  2  0  0  0  0  0  0
  184.1040  178.6910  142.7800 C   0  0  0  0  0  1  0  0  0  0  0  0
  1  3  1  0  0  0  0
  2 13  1  6  0  0  0
  2  6  1  0  0  0  0
  3 29  1  6  0  0  0
  4 12  1  0  0  0  0
  5  2  1  0  0  0  0
  5 14  1  0  0  0  0
  6 35  1  0  0  0  0
  6  9  1  0  0  0  0
  7  4  1  0  0  0  0
  7  5  1  0  0  0  0
  8  3  1  0  0  0  0
  9 30  1  0  0  0  0
 10 13  1  0  0  0  0
 11 26  1  0  0  0  0
 11  8  1  0  0  0  0
 12 16  1  0  0  0  0
 14 17  1  0  0  0  0
 14  9  1  0  0  0  0
 15  7  1  0  0  0  0
 16 17  1  0  0  0  0
 16 11  1  0  0  0  0
 17 11  1  0  0  0  0
 17  1  1  0  0  0  0
 18 15  1  0  0  0  0
 18 10  1  0  0  0  0
 19 25  1  0  0  0  0
 20 21  1  0  0  0  0
 20 15  1  0  0  0  0
 23 24  1  0  0  0  0
 24 22  2  0  0  0  0
 24 21  1  0  0  0  0
 25 23  1  0  0  0  0
 25 20  1  0  0  0  0
 26 27  1  0  0  0  0
 28 29  1  0  0  0  0
 30 32  1  0  0  0  0
 31 30  2  0  0  0  0
 32 33  1  0  0  0  0
 33 34  1  0  0  0  0
 35 36  1  0  0  0  0
 37 36  1  0  0  0  0
M  END
>  <MODEL>
5

>  <REMARK>
 VINA RESULT:      -2.7      4.267      9.070
  Name = 
  8 active torsions:
  status: ('A' for Active; 'I' for Inactive)
    1  A    between atoms: C_3  and  C_32
    2  A    between atoms: C_5  and  C_23
    3  A    between atoms: C_6  and  C_31
    4  A    between atoms: C_9  and  C_13
    5  A    between atoms: C_9  and  C_16
    6  A    between atoms: C_11  and  C_26
    7  A    between atoms: C_20  and  C_21
    8  A    between atoms: C_21  and  C_32
                            x       y       z     vdW  Elec       q    Type
                         _______ _______ _______ _____ _____    ______ ____

>  <TORSDO>
F 8

$$$$
