=
 OpenBabel10262419593D

 27 31  0  0  1  0  0  0  0  0999 V2000
  191.8210  177.5790  139.1980 N   0  0  0  0  0  2  0  0  0  0  0  0
  189.4180  177.6870  139.0030 C   0  0  0  0  0  0  0  0  0  0  0  0
  189.8440  175.3370  138.1340 C   0  0  0  0  0  2  0  0  0  0  0  0
  186.6460  178.0530  135.9470 N   0  0  0  0  0  0  0  0  0  0  0  0
  185.4810  176.3760  134.5960 C   0  0  0  0  0  1  0  0  0  0  0  0
  189.0340  178.8910  138.6570 N   0  0  0  0  0  0  0  0  0  0  0  0
  187.2190  175.9690  136.3510 C   0  0  0  0  0  0  0  0  0  0  0  0
  193.1100  174.8820  136.2180 C   0  0  0  0  0  2  0  0  0  0  0  0
  187.1740  174.4780  136.3200 C   0  0  0  0  0  1  0  0  0  0  0  0
  194.0200  175.0850  137.4130 C   0  0  1  0  0  3  0  0  0  0  0  0
  187.9760  176.7520  137.1950 C   0  0  0  0  0  0  0  0  0  0  0  0
  190.5690  177.5330  139.8330 N   0  0  0  0  0  0  0  0  0  0  0  0
  186.4470  176.7880  135.6010 N   0  0  0  0  0  0  0  0  0  0  0  0
  187.5750  178.0210  136.9200 C   0  0  0  0  0  0  0  0  0  0  0  0
  192.1510  176.2580  138.6510 C   0  0  2  0  0  3  0  0  0  0  0  0
  188.8070  176.4320  138.3980 C   0  0  2  0  0  3  0  0  0  0  0  0
  191.6960  174.6420  136.7160 C   0  0  0  0  0  2  0  0  0  0  0  0
  188.0490  179.1270  137.6750 N   0  0  0  0  0  2  0  0  0  0  0  0
  195.3360  175.2270  136.9750 O   0  0  0  0  0  1  0  0  0  0  0  0
  193.5930  176.3430  138.1460 C   0  0  0  0  0  2  0  0  0  0  0  0
  191.1610  175.8270  137.5250 C   0  0  1  0  0  3  0  0  0  0  0  0
  190.2630  176.4930  143.9040 N   0  0  0  0  0  0  0  0  0  0  0  0
  190.4600  177.1750  141.2230 C   0  0  0  0  0  0  0  0  0  0  0  0
  191.5880  177.2190  142.0550 C   0  0  0  0  0  3  0  0  0  0  0  0
  191.4680  176.8710  143.4020 C   0  0  0  0  0  3  0  0  0  0  0  0
  189.1510  176.4440  143.1230 C   0  0  0  0  0  3  0  0  0  0  0  0
  189.2290  176.7830  141.7710 C   0  0  0  0  0  3  0  0  0  0  0  0
  1 12  1  0  0  0  0
  2 12  1  0  0  0  0
  4 14  2  0  0  0  0
  5 13  1  0  0  0  0
  6  2  2  0  0  0  0
  7 11  2  0  0  0  0
  8 17  1  0  0  0  0
  8 10  1  0  0  0  0
  9  7  1  0  0  0  0
 10 19  1  6  0  0  0
 10 20  1  0  0  0  0
 11 16  1  0  0  0  0
 12 23  1  0  0  0  0
 13  4  1  0  0  0  0
 13  7  1  0  0  0  0
 14 11  1  0  0  0  0
 14 18  1  0  0  0  0
 15 20  1  6  0  0  0
 15  1  1  0  0  0  0
 16  3  1  6  0  0  0
 16  2  1  0  0  0  0
 18  6  1  0  0  0  0
 21 17  1  1  0  0  0
 21  3  1  0  0  0  0
 21 15  1  0  0  0  0
 23 27  2  0  0  0  0
 23 24  1  0  0  0  0
 24 25  2  0  0  0  0
 25 22  1  0  0  0  0
 26 22  2  0  0  0  0
 27 26  1  0  0  0  0
M  END
>  <MODEL>
1

>  <REMARK>
 VINA RESULT:      -6.5      0.000      0.000
  Name = 
  1 active torsions:
  status: ('A' for Active; 'I' for Inactive)
    1  A    between atoms: C_9  and  N_15
                            x       y       z     vdW  Elec       q    Type
                         _______ _______ _______ _____ _____    ______ ____

>  <TORSDO>
F 1

$$$$
=
 OpenBabel10262419593D

 27 31  0  0  1  0  0  0  0  0999 V2000
  180.5720  179.6730  140.7320 N   0  0  0  0  0  2  0  0  0  0  0  0
  180.6870  177.2760  140.9850 C   0  0  0  0  0  0  0  0  0  0  0  0
  181.9630  177.5690  138.8070 C   0  0  0  0  0  2  0  0  0  0  0  0
  178.9310  173.9620  139.2280 N   0  0  0  0  0  0  0  0  0  0  0  0
  179.5960  172.5890  137.3130 C   0  0  0  0  0  1  0  0  0  0  0  0
  179.5800  176.8110  141.5100 N   0  0  0  0  0  0  0  0  0  0  0  0
  180.7410  174.6390  138.1800 C   0  0  0  0  0  0  0  0  0  0  0  0
  180.7400  180.4130  136.5800 C   0  0  0  0  0  2  0  0  0  0  0  0
  181.9050  174.6160  137.2470 C   0  0  0  0  0  1  0  0  0  0  0  0
  181.1780  181.5320  137.5040 C   0  0  1  0  0  3  0  0  0  0  0  0
  180.5300  175.5300  139.2100 C   0  0  0  0  0  0  0  0  0  0  0  0
  181.1550  178.5670  141.3730 N   0  0  0  0  0  0  0  0  0  0  0  0
  179.7470  173.7220  138.2090 N   0  0  0  0  0  0  0  0  0  0  0  0
  179.4170  175.0610  139.8330 C   0  0  0  0  0  0  0  0  0  0  0  0
  181.2420  179.9150  139.4490 C   0  0  2  0  0  3  0  0  0  0  0  0
  181.3950  176.5820  139.8310 C   0  0  2  0  0  3  0  0  0  0  0  0
  181.4150  179.1260  137.0180 C   0  0  0  0  0  2  0  0  0  0  0  0
  178.9350  175.6510  141.0320 N   0  0  0  0  0  2  0  0  0  0  0  0
  180.6290  182.7360  137.0660 O   0  0  0  0  0  1  0  0  0  0  0  0
  180.6810  181.2320  138.9060 C   0  0  0  0  0  2  0  0  0  0  0  0
  181.0370  178.7350  138.4500 C   0  0  1  0  0  3  0  0  0  0  0  0
  184.4550  179.0500  143.9460 N   0  0  0  0  0  0  0  0  0  0  0  0
  182.2860  178.7340  142.2480 C   0  0  0  0  0  0  0  0  0  0  0  0
  182.0920  179.0010  143.6100 C   0  0  0  0  0  3  0  0  0  0  0  0
  183.1970  179.1590  144.4490 C   0  0  0  0  0  3  0  0  0  0  0  0
  184.6750  178.7880  142.6300 C   0  0  0  0  0  3  0  0  0  0  0  0
  183.5960  178.6250  141.7590 C   0  0  0  0  0  3  0  0  0  0  0  0
  1 12  1  0  0  0  0
  2 12  1  0  0  0  0
  2  6  2  0  0  0  0
  4 14  2  0  0  0  0
  5 13  1  0  0  0  0
  7 13  1  0  0  0  0
  7 11  2  0  0  0  0
  8 17  1  0  0  0  0
  8 10  1  0  0  0  0
  9  7  1  0  0  0  0
 10 19  1  6  0  0  0
 10 20  1  0  0  0  0
 11 16  1  0  0  0  0
 11 14  1  0  0  0  0
 12 23  1  0  0  0  0
 13  4  1  0  0  0  0
 14 18  1  0  0  0  0
 15 20  1  6  0  0  0
 15  1  1  0  0  0  0
 16  3  1  6  0  0  0
 16  2  1  0  0  0  0
 18  6  1  0  0  0  0
 21 17  1  6  0  0  0
 21  3  1  0  0  0  0
 21 15  1  0  0  0  0
 22 25  1  0  0  0  0
 23 24  1  0  0  0  0
 24 25  2  0  0  0  0
 26 22  2  0  0  0  0
 27 23  2  0  0  0  0
 27 26  1  0  0  0  0
M  END
>  <MODEL>
2

>  <REMARK>
 VINA RESULT:      -6.4      8.088      9.870
  Name = 
  1 active torsions:
  status: ('A' for Active; 'I' for Inactive)
    1  A    between atoms: C_9  and  N_15
                            x       y       z     vdW  Elec       q    Type
                         _______ _______ _______ _____ _____    ______ ____

>  <TORSDO>
F 1

$$$$
=
 OpenBabel10262419593D

 27 31  0  0  1  0  0  0  0  0999 V2000
  181.1780  178.1180  137.7140 N   0  0  0  0  0  2  0  0  0  0  0  0
  181.9150  179.2960  139.6880 C   0  0  0  0  0  0  0  0  0  0  0  0
  184.1540  178.7170  138.6370 C   0  0  0  0  0  2  0  0  0  0  0  0
  183.6440  178.3190  143.3230 N   0  0  0  0  0  0  0  0  0  0  0  0
  185.9860  178.1390  144.0160 C   0  0  0  0  0  1  0  0  0  0  0  0
  181.1230  179.0430  140.7020 N   0  0  0  0  0  0  0  0  0  0  0  0
  185.1180  178.6490  141.7240 C   0  0  0  0  0  0  0  0  0  0  0  0
  184.2590  175.3950  136.7670 C   0  0  0  0  0  2  0  0  0  0  0  0
  186.4380  178.8820  141.0690 C   0  0  0  0  0  1  0  0  0  0  0  0
  183.3380  175.8210  135.6410 C   0  0  1  0  0  3  0  0  0  0  0  0
  183.8750  178.7860  141.1440 C   0  0  0  0  0  0  0  0  0  0  0  0
  181.3670  179.3460  138.3710 N   0  0  0  0  0  0  0  0  0  0  0  0
  184.9380  178.3470  143.0300 N   0  0  0  0  0  0  0  0  0  0  0  0
  183.0050  178.5900  142.1700 C   0  0  0  0  0  0  0  0  0  0  0  0
  182.4310  177.6950  137.0800 C   0  0  2  0  0  3  0  0  0  0  0  0
  183.4280  179.3450  139.8300 C   0  0  2  0  0  3  0  0  0  0  0  0
  184.7210  176.6320  137.5160 C   0  0  0  0  0  2  0  0  0  0  0  0
  181.6060  178.7640  141.9980 N   0  0  0  0  0  2  0  0  0  0  0  0
  182.9690  174.7030  134.8950 O   0  0  0  0  0  1  0  0  0  0  0  0
  182.0980  176.4600  136.2400 C   0  0  0  0  0  2  0  0  0  0  0  0
  183.5500  177.4060  138.1280 C   0  0  1  0  0  3  0  0  0  0  0  0
  180.8230  182.9990  136.3460 N   0  0  0  0  0  0  0  0  0  0  0  0
  181.1770  180.5920  137.6750 C   0  0  0  0  0  0  0  0  0  0  0  0
  181.4370  181.8080  138.3220 C   0  0  0  0  0  3  0  0  0  0  0  0
  181.2510  183.0100  137.6350 C   0  0  0  0  0  3  0  0  0  0  0  0
  180.5670  181.8350  135.6910 C   0  0  0  0  0  3  0  0  0  0  0  0
  180.7390  180.6130  136.3420 C   0  0  0  0  0  3  0  0  0  0  0  0
  1 12  1  0  0  0  0
  2 16  1  0  0  0  0
  2  6  2  0  0  0  0
  6 18  1  0  0  0  0
  7 13  1  0  0  0  0
  8 17  1  0  0  0  0
  9  7  1  0  0  0  0
 10 19  1  1  0  0  0
 10 20  1  0  0  0  0
 10  8  1  0  0  0  0
 11  7  2  0  0  0  0
 11 14  1  0  0  0  0
 12  2  1  0  0  0  0
 13  4  1  0  0  0  0
 13  5  1  0  0  0  0
 14  4  2  0  0  0  0
 15 20  1  1  0  0  0
 15  1  1  0  0  0  0
 15 21  1  0  0  0  0
 16  3  1  6  0  0  0
 16 11  1  0  0  0  0
 18 14  1  0  0  0  0
 21 17  1  6  0  0  0
 21  3  1  0  0  0  0
 22 25  1  0  0  0  0
 23 24  1  0  0  0  0
 23 12  1  0  0  0  0
 25 24  2  0  0  0  0
 26 27  1  0  0  0  0
 26 22  2  0  0  0  0
 27 23  2  0  0  0  0
M  END
>  <MODEL>
3

>  <REMARK>
 VINA RESULT:      -6.0      6.140      9.524
  Name = 
  1 active torsions:
  status: ('A' for Active; 'I' for Inactive)
    1  A    between atoms: C_9  and  N_15
                            x       y       z     vdW  Elec       q    Type
                         _______ _______ _______ _____ _____    ______ ____

>  <TORSDO>
F 1

$$$$
=
 OpenBabel10262419593D

 27 31  0  0  1  0  0  0  0  0999 V2000
  181.4820  178.0610  140.2680 N   0  0  0  0  0  2  0  0  0  0  0  0
  183.5060  179.2030  139.6180 C   0  0  0  0  0  0  0  0  0  0  0  0
  183.1090  177.7670  137.5600 C   0  0  0  0  0  2  0  0  0  0  0  0
  187.5170  178.2510  139.2080 N   0  0  0  0  0  0  0  0  0  0  0  0
  188.8040  177.4080  137.3030 C   0  0  0  0  0  1  0  0  0  0  0  0
  184.2930  179.3780  140.6520 N   0  0  0  0  0  0  0  0  0  0  0  0
  186.3400  177.8360  137.3980 C   0  0  0  0  0  0  0  0  0  0  0  0
  181.5300  174.3630  138.2360 C   0  0  0  0  0  2  0  0  0  0  0  0
  186.0370  177.5200  135.9710 C   0  0  0  0  0  1  0  0  0  0  0  0
  180.1800  174.9010  138.6690 C   0  0  1  0  0  3  0  0  0  0  0  0
  185.4490  178.2910  138.3460 C   0  0  0  0  0  0  0  0  0  0  0  0
  182.0920  179.2390  139.8040 N   0  0  0  0  0  0  0  0  0  0  0  0
  187.5700  177.8050  137.9590 N   0  0  0  0  0  0  0  0  0  0  0  0
  186.2240  178.5470  139.4340 C   0  0  0  0  0  0  0  0  0  0  0  0
  181.2210  177.1590  139.1410 C   0  0  2  0  0  3  0  0  0  0  0  0
  184.0330  178.7680  138.2590 C   0  0  2  0  0  3  0  0  0  0  0  0
  182.2980  175.4730  137.5420 C   0  0  0  0  0  2  0  0  0  0  0  0
  185.6840  179.1480  140.6020 N   0  0  0  0  0  2  0  0  0  0  0  0
  179.4310  173.8720  139.2370 O   0  0  0  0  0  1  0  0  0  0  0  0
  180.3970  175.9950  139.6980 C   0  0  0  0  0  2  0  0  0  0  0  0
  182.5390  176.6710  138.4640 C   0  0  1  0  0  3  0  0  0  0  0  0
  179.7610  182.5220  138.5640 N   0  0  0  0  0  0  0  0  0  0  0  0
  181.2980  180.3610  139.3750 C   0  0  0  0  0  0  0  0  0  0  0  0
  180.0610  180.6220  139.9800 C   0  0  0  0  0  3  0  0  0  0  0  0
  179.3010  181.7150  139.5560 C   0  0  0  0  0  3  0  0  0  0  0  0
  180.9590  182.2960  137.9620 C   0  0  0  0  0  3  0  0  0  0  0  0
  181.7480  181.2130  138.3550 C   0  0  0  0  0  3  0  0  0  0  0  0
  2 12  1  0  0  0  0
  2  6  2  0  0  0  0
  3 21  1  0  0  0  0
  4 14  2  0  0  0  0
  5 13  1  0  0  0  0
  7 13  1  0  0  0  0
  7 11  2  0  0  0  0
  8 10  1  0  0  0  0
  9  7  1  0  0  0  0
 10 19  1  1  0  0  0
 10 20  1  0  0  0  0
 11 14  1  0  0  0  0
 12  1  1  0  0  0  0
 13  4  1  0  0  0  0
 14 18  1  0  0  0  0
 15 20  1  1  0  0  0
 15  1  1  0  0  0  0
 16  3  1  1  0  0  0
 16 11  1  0  0  0  0
 16  2  1  0  0  0  0
 17  8  1  0  0  0  0
 18  6  1  0  0  0  0
 21 17  1  6  0  0  0
 21 15  1  0  0  0  0
 22 25  1  0  0  0  0
 23 12  1  0  0  0  0
 23 24  1  0  0  0  0
 25 24  2  0  0  0  0
 26 27  1  0  0  0  0
 26 22  2  0  0  0  0
 27 23  2  0  0  0  0
M  END
>  <MODEL>
4

>  <REMARK>
 VINA RESULT:      -6.0      6.304      9.213
  Name = 
  1 active torsions:
  status: ('A' for Active; 'I' for Inactive)
    1  A    between atoms: C_9  and  N_15
                            x       y       z     vdW  Elec       q    Type
                         _______ _______ _______ _____ _____    ______ ____

>  <TORSDO>
F 1

$$$$
=
 OpenBabel10262419593D

 27 31  0  0  1  0  0  0  0  0999 V2000
  182.4080  178.9550  137.5100 N   0  0  0  0  0  2  0  0  0  0  0  0
  183.6780  177.9530  139.3010 C   0  0  0  0  0  0  0  0  0  0  0  0
  181.5300  178.5320  140.5290 C   0  0  0  0  0  2  0  0  0  0  0  0
  185.6790  179.2540  142.6860 N   0  0  0  0  0  0  0  0  0  0  0  0
  184.9350  179.5670  144.9970 C   0  0  0  0  0  1  0  0  0  0  0  0
  184.9490  178.2510  139.1920 N   0  0  0  0  0  0  0  0  0  0  0  0
  183.5450  178.8610  143.0400 C   0  0  0  0  0  0  0  0  0  0  0  0
  179.7880  181.7100  139.3420 C   0  0  0  0  0  2  0  0  0  0  0  0
  182.2730  178.6280  143.7850 C   0  0  0  0  0  1  0  0  0  0  0  0
  179.3900  181.1700  137.9830 C   0  0  1  0  0  3  0  0  0  0  0  0
  183.7650  178.6370  141.6980 C   0  0  0  0  0  0  0  0  0  0  0  0
  182.8960  177.7870  138.1180 N   0  0  0  0  0  0  0  0  0  0  0  0
  184.7140  179.2510  143.5960 N   0  0  0  0  0  0  0  0  0  0  0  0
  185.0930  178.8770  141.5340 C   0  0  0  0  0  0  0  0  0  0  0  0
  181.1640  179.3750  138.1640 C   0  0  2  0  0  3  0  0  0  0  0  0
  182.9500  177.9680  140.6360 C   0  0  2  0  0  3  0  0  0  0  0  0
  180.2010  180.5480  140.2280 C   0  0  0  0  0  2  0  0  0  0  0  0
  185.7410  178.6410  140.2920 N   0  0  0  0  0  2  0  0  0  0  0  0
  178.9330  182.2170  137.1840 O   0  0  0  0  0  1  0  0  0  0  0  0
  180.6050  180.5330  137.3340 C   0  0  0  0  0  2  0  0  0  0  0  0
  181.3940  179.7810  139.6530 C   0  0  1  0  0  3  0  0  0  0  0  0
  181.6850  173.9820  136.7760 N   0  0  0  0  0  0  0  0  0  0  0  0
  182.4770  176.4870  137.6620 C   0  0  0  0  0  0  0  0  0  0  0  0
  183.1610  175.8520  136.6160 C   0  0  0  0  0  3  0  0  0  0  0  0
  182.7460  174.5910  136.1830 C   0  0  0  0  0  3  0  0  0  0  0  0
  181.0040  174.5720  137.7940 C   0  0  0  0  0  3  0  0  0  0  0  0
  181.3870  175.8330  138.2550 C   0  0  0  0  0  3  0  0  0  0  0  0
  1 12  1  0  0  0  0
  1 15  1  0  0  0  0
  2 16  1  0  0  0  0
  4 13  1  0  0  0  0
  6  2  2  0  0  0  0
  6 18  1  0  0  0  0
  7 13  1  0  0  0  0
  7  9  1  0  0  0  0
  8 17  1  0  0  0  0
 10 19  1  6  0  0  0
 10  8  1  0  0  0  0
 11  7  2  0  0  0  0
 12  2  1  0  0  0  0
 13  5  1  0  0  0  0
 14 11  1  0  0  0  0
 14  4  2  0  0  0  0
 15 20  1  6  0  0  0
 15 21  1  0  0  0  0
 16  3  1  6  0  0  0
 16 11  1  0  0  0  0
 18 14  1  0  0  0  0
 20 10  1  0  0  0  0
 21 17  1  1  0  0  0
 21  3  1  0  0  0  0
 22 26  1  0  0  0  0
 23 12  1  0  0  0  0
 23 27  1  0  0  0  0
 24 23  2  0  0  0  0
 25 24  1  0  0  0  0
 25 22  2  0  0  0  0
 26 27  2  0  0  0  0
M  END
>  <MODEL>
5

>  <REMARK>
 VINA RESULT:      -5.7      7.032     10.274
  Name = 
  1 active torsions:
  status: ('A' for Active; 'I' for Inactive)
    1  A    between atoms: C_9  and  N_15
                            x       y       z     vdW  Elec       q    Type
                         _______ _______ _______ _____ _____    ______ ____

>  <TORSDO>
F 1

$$$$
=
 OpenBabel10262419593D

 27 31  0  0  1  0  0  0  0  0999 V2000
  186.2330  179.0040  138.9500 N   0  0  0  0  0  2  0  0  0  0  0  0
  183.8630  179.2710  139.3190 C   0  0  0  0  0  0  0  0  0  0  0  0
  183.9180  176.9070  138.3900 C   0  0  0  0  0  2  0  0  0  0  0  0
  180.4870  179.8470  136.9900 N   0  0  0  0  0  0  0  0  0  0  0  0
  178.9310  178.2620  135.9580 C   0  0  0  0  0  1  0  0  0  0  0  0
  183.4890  180.5020  139.0640 N   0  0  0  0  0  0  0  0  0  0  0  0
  180.9980  177.7260  137.2620 C   0  0  0  0  0  0  0  0  0  0  0  0
  186.6120  176.2560  135.7700 C   0  0  0  0  0  2  0  0  0  0  0  0
  180.8490  176.2410  137.2530 C   0  0  0  0  0  1  0  0  0  0  0  0
  187.7870  176.3870  136.7190 C   0  0  1  0  0  3  0  0  0  0  0  0
  181.9810  178.4500  137.9020 C   0  0  0  0  0  0  0  0  0  0  0  0
  185.1630  179.0350  139.8600 N   0  0  0  0  0  0  0  0  0  0  0  0
  180.1290  178.6010  136.7070 N   0  0  0  0  0  0  0  0  0  0  0  0
  181.6120  179.7450  137.7200 C   0  0  0  0  0  0  0  0  0  0  0  0
  186.3380  177.6690  138.3510 C   0  0  2  0  0  3  0  0  0  0  0  0
  183.0460  178.0650  138.8810 C   0  0  2  0  0  3  0  0  0  0  0  0
  185.3400  176.1050  136.5850 C   0  0  0  0  0  2  0  0  0  0  0  0
  182.3210  180.8110  138.3370 N   0  0  0  0  0  2  0  0  0  0  0  0
  188.9710  176.4460  135.9860 O   0  0  0  0  0  1  0  0  0  0  0  0
  187.6260  177.6640  137.5230 C   0  0  0  0  0  2  0  0  0  0  0  0
  185.0870  177.3140  137.4890 C   0  0  1  0  0  3  0  0  0  0  0  0
  185.7450  177.9760  143.8950 N   0  0  0  0  0  0  0  0  0  0  0  0
  185.3560  178.6720  141.2390 C   0  0  0  0  0  0  0  0  0  0  0  0
  186.6280  178.3060  141.7010 C   0  0  0  0  0  3  0  0  0  0  0  0
  186.8030  177.9580  143.0420 C   0  0  0  0  0  3  0  0  0  0  0  0
  184.5010  178.3300  143.4770 C   0  0  0  0  0  3  0  0  0  0  0  0
  184.2840  178.6840  142.1440 C   0  0  0  0  0  3  0  0  0  0  0  0
  1 12  1  0  0  0  0
  2 12  1  0  0  0  0
  4 14  2  0  0  0  0
  5 13  1  0  0  0  0
  6  2  2  0  0  0  0
  7 11  2  0  0  0  0
  8 17  1  0  0  0  0
  8 10  1  0  0  0  0
  9  7  1  0  0  0  0
 10 19  1  6  0  0  0
 10 20  1  0  0  0  0
 11 16  1  0  0  0  0
 12 23  1  0  0  0  0
 13  4  1  0  0  0  0
 13  7  1  0  0  0  0
 14 11  1  0  0  0  0
 14 18  1  0  0  0  0
 15 20  1  6  0  0  0
 15  1  1  0  0  0  0
 16  3  1  6  0  0  0
 16  2  1  0  0  0  0
 18  6  1  0  0  0  0
 21 17  1  6  0  0  0
 21 15  1  0  0  0  0
 21  3  1  0  0  0  0
 23 24  2  0  0  0  0
 23 27  1  0  0  0  0
 24 25  1  0  0  0  0
 25 22  2  0  0  0  0
 26 22  1  0  0  0  0
 27 26  2  0  0  0  0
M  END
>  <MODEL>
6

>  <REMARK>
 VINA RESULT:      -5.7      4.562      6.020
  Name = 
  1 active torsions:
  status: ('A' for Active; 'I' for Inactive)
    1  A    between atoms: C_9  and  N_15
                            x       y       z     vdW  Elec       q    Type
                         _______ _______ _______ _____ _____    ______ ____

>  <TORSDO>
F 1

$$$$
=
 OpenBabel10262419593D

 27 31  0  0  1  0  0  0  0  0999 V2000
  190.8550  177.0060  137.6280 N   0  0  0  0  0  2  0  0  0  0  0  0
  188.4850  177.4590  137.7100 C   0  0  0  0  0  0  0  0  0  0  0  0
  188.4670  174.9180  137.6930 C   0  0  0  0  0  2  0  0  0  0  0  0
  185.2760  177.2570  135.1000 N   0  0  0  0  0  0  0  0  0  0  0  0
  183.6970  175.4550  134.5960 C   0  0  0  0  0  1  0  0  0  0  0  0
  188.1920  178.5250  137.0070 N   0  0  0  0  0  0  0  0  0  0  0  0
  185.6600  175.3620  136.1470 C   0  0  0  0  0  0  0  0  0  0  0  0
  191.2610  173.2880  135.6730 C   0  0  0  0  0  2  0  0  0  0  0  0
  185.4330  173.9790  136.6580 C   0  0  0  0  0  1  0  0  0  0  0  0
  192.3870  173.7170  136.5920 C   0  0  1  0  0  3  0  0  0  0  0  0
  186.6430  176.2390  136.5530 C   0  0  0  0  0  0  0  0  0  0  0  0
  189.7400  177.3940  138.3890 N   0  0  0  0  0  0  0  0  0  0  0  0
  184.8690  176.0040  135.2570 N   0  0  0  0  0  0  0  0  0  0  0  0
  186.3530  177.3920  135.8950 C   0  0  0  0  0  0  0  0  0  0  0  0
  190.9220  175.5430  137.5530 C   0  0  2  0  0  3  0  0  0  0  0  0
  187.6310  176.2010  137.6760 C   0  0  2  0  0  3  0  0  0  0  0  0
  189.9400  173.4780  136.3970 C   0  0  0  0  0  2  0  0  0  0  0  0
  187.0820  178.5870  136.1380 N   0  0  0  0  0  2  0  0  0  0  0  0
  193.6110  173.4740  135.9710 O   0  0  0  0  0  1  0  0  0  0  0  0
  192.2510  175.2020  136.8740 C   0  0  0  0  0  2  0  0  0  0  0  0
  189.7030  174.9390  136.7900 C   0  0  1  0  0  3  0  0  0  0  0  0
  190.0100  177.8390  142.5690 N   0  0  0  0  0  0  0  0  0  0  0  0
  189.8380  177.5460  139.8170 C   0  0  0  0  0  0  0  0  0  0  0  0
  188.7300  177.9800  140.5590 C   0  0  0  0  0  3  0  0  0  0  0  0
  188.8380  178.1220  141.9440 C   0  0  0  0  0  3  0  0  0  0  0  0
  191.1000  177.4120  141.8770 C   0  0  0  0  0  3  0  0  0  0  0  0
  191.0340  177.2590  140.4910 C   0  0  0  0  0  3  0  0  0  0  0  0
  1 12  1  0  0  0  0
  2 12  1  0  0  0  0
  4 13  1  0  0  0  0
  4 14  2  0  0  0  0
  5 13  1  0  0  0  0
  6  2  2  0  0  0  0
  7 11  2  0  0  0  0
  7  9  1  0  0  0  0
  8 17  1  0  0  0  0
  8 10  1  0  0  0  0
 10 19  1  6  0  0  0
 10 20  1  0  0  0  0
 11 16  1  0  0  0  0
 12 23  1  0  0  0  0
 13  7  1  0  0  0  0
 14 18  1  0  0  0  0
 14 11  1  0  0  0  0
 15 20  1  6  0  0  0
 15  1  1  0  0  0  0
 16  3  1  6  0  0  0
 16  2  1  0  0  0  0
 18  6  1  0  0  0  0
 21 17  1  1  0  0  0
 21 15  1  0  0  0  0
 21  3  1  0  0  0  0
 23 27  2  0  0  0  0
 23 24  1  0  0  0  0
 24 25  2  0  0  0  0
 25 22  1  0  0  0  0
 26 22  2  0  0  0  0
 27 26  1  0  0  0  0
M  END
>  <MODEL>
7

>  <REMARK>
 VINA RESULT:      -5.6      1.495      2.075
  Name = 
  1 active torsions:
  status: ('A' for Active; 'I' for Inactive)
    1  A    between atoms: C_9  and  N_15
                            x       y       z     vdW  Elec       q    Type
                         _______ _______ _______ _____ _____    ______ ____

>  <TORSDO>
F 1

$$$$
=
 OpenBabel10262419593D

 27 31  0  0  1  0  0  0  0  0999 V2000
  182.1420  176.1180  136.7490 N   0  0  0  0  0  2  0  0  0  0  0  0
  182.3540  178.2370  137.8850 C   0  0  0  0  0  0  0  0  0  0  0  0
  181.8210  176.7150  139.8490 C   0  0  0  0  0  2  0  0  0  0  0  0
  179.8110  180.9920  139.6450 N   0  0  0  0  0  0  0  0  0  0  0  0
  178.9780  181.2070  141.9380 C   0  0  0  0  0  1  0  0  0  0  0  0
  181.8870  179.2110  137.1420 N   0  0  0  0  0  0  0  0  0  0  0  0
  180.4450  179.3980  141.0210 C   0  0  0  0  0  0  0  0  0  0  0  0
  179.4660  173.8190  139.0650 C   0  0  0  0  0  2  0  0  0  0  0  0
  180.6670  178.6660  142.3020 C   0  0  0  0  0  1  0  0  0  0  0  0
  180.4340  173.0690  138.1730 C   0  0  1  0  0  3  0  0  0  0  0  0
  181.0040  179.1020  139.7960 C   0  0  0  0  0  0  0  0  0  0  0  0
  182.9840  177.1210  137.2570 N   0  0  0  0  0  0  0  0  0  0  0  0
  179.7170  180.5300  140.8850 N   0  0  0  0  0  0  0  0  0  0  0  0
  180.5990  180.1190  138.9910 C   0  0  0  0  0  0  0  0  0  0  0  0
  181.7700  175.1890  137.8220 C   0  0  2  0  0  3  0  0  0  0  0  0
  182.0790  178.1490  139.3790 C   0  0  2  0  0  3  0  0  0  0  0  0
  180.2360  174.8680  139.8480 C   0  0  0  0  0  2  0  0  0  0  0  0
  181.0670  180.2380  137.6550 N   0  0  0  0  0  2  0  0  0  0  0  0
  179.7560  172.0490  137.5070 O   0  0  0  0  0  1  0  0  0  0  0  0
  181.0140  174.0370  137.1570 C   0  0  0  0  0  2  0  0  0  0  0  0
  180.9200  175.8840  138.9300 C   0  0  1  0  0  3  0  0  0  0  0  0
  187.1620  176.5950  137.3710 N   0  0  0  0  0  0  0  0  0  0  0  0
  184.4120  176.9370  137.2910 C   0  0  0  0  0  0  0  0  0  0  0  0
  185.2360  177.9200  137.8580 C   0  0  0  0  0  3  0  0  0  0  0  0
  186.6190  177.7290  137.8870 C   0  0  0  0  0  3  0  0  0  0  0  0
  186.3880  175.6230  136.8190 C   0  0  0  0  0  3  0  0  0  0  0  0
  185.0020  175.7760  136.7690 C   0  0  0  0  0  3  0  0  0  0  0  0
  1 12  1  0  0  0  0
  1 15  1  0  0  0  0
  2 16  1  0  0  0  0
  4 13  1  0  0  0  0
  6 18  1  0  0  0  0
  6  2  2  0  0  0  0
  7  9  1  0  0  0  0
  8 17  1  0  0  0  0
 10 19  1  6  0  0  0
 10  8  1  0  0  0  0
 11  7  2  0  0  0  0
 12 23  1  0  0  0  0
 12  2  1  0  0  0  0
 13  7  1  0  0  0  0
 13  5  1  0  0  0  0
 14  4  2  0  0  0  0
 14 11  1  0  0  0  0
 15 20  1  6  0  0  0
 15 21  1  0  0  0  0
 16 11  1  0  0  0  0
 16  3  1  6  0  0  0
 18 14  1  0  0  0  0
 20 10  1  0  0  0  0
 21 17  1  1  0  0  0
 21  3  1  0  0  0  0
 22 25  1  0  0  0  0
 23 24  1  0  0  0  0
 24 25  2  0  0  0  0
 26 22  2  0  0  0  0
 27 26  1  0  0  0  0
 27 23  2  0  0  0  0
M  END
>  <MODEL>
8

>  <REMARK>
 VINA RESULT:      -4.9      6.833      9.580
  Name = 
  1 active torsions:
  status: ('A' for Active; 'I' for Inactive)
    1  A    between atoms: C_9  and  N_15
                            x       y       z     vdW  Elec       q    Type
                         _______ _______ _______ _____ _____    ______ ____

>  <TORSDO>
F 1

$$$$
=
 OpenBabel10262419593D

 27 31  0  0  1  0  0  0  0  0999 V2000
  181.5640  178.6730  135.9290 N   0  0  0  0  0  2  0  0  0  0  0  0
  183.2680  177.4530  137.1260 C   0  0  0  0  0  0  0  0  0  0  0  0
  182.1450  178.6790  139.0480 C   0  0  0  0  0  2  0  0  0  0  0  0
  186.8620  178.3230  138.9910 N   0  0  0  0  0  0  0  0  0  0  0  0
  187.3890  178.9580  141.2970 C   0  0  0  0  0  1  0  0  0  0  0  0
  184.3680  177.3760  136.4170 N   0  0  0  0  0  0  0  0  0  0  0  0
  185.1210  178.5650  140.3120 C   0  0  0  0  0  0  0  0  0  0  0  0
  180.8090  182.1490  138.2000 C   0  0  0  0  0  2  0  0  0  0  0  0
  184.3360  178.7390  141.5690 C   0  0  0  0  0  1  0  0  0  0  0  0
  179.7070  181.6690  137.2770 C   0  0  1  0  0  3  0  0  0  0  0  0
  184.6260  178.2160  139.0740 C   0  0  0  0  0  0  0  0  0  0  0  0
  182.0060  177.4500  136.4580 N   0  0  0  0  0  0  0  0  0  0  0  0
  186.4680  178.6410  140.2180 N   0  0  0  0  0  0  0  0  0  0  0  0
  185.7350  178.0630  138.3030 C   0  0  0  0  0  0  0  0  0  0  0  0
  180.9060  179.4610  136.9770 C   0  0  2  0  0  3  0  0  0  0  0  0
  183.2810  177.7460  138.6190 C   0  0  2  0  0  3  0  0  0  0  0  0
  181.3190  180.9680  139.0070 C   0  0  0  0  0  2  0  0  0  0  0  0
  185.6490  177.5870  136.9680 N   0  0  0  0  0  2  0  0  0  0  0  0
  179.1740  182.7570  136.5870 O   0  0  0  0  0  1  0  0  0  0  0  0
  180.2950  180.6820  136.2850 C   0  0  0  0  0  2  0  0  0  0  0  0
  181.8940  179.8660  138.1130 C   0  0  1  0  0  3  0  0  0  0  0  0
  179.4920  174.0700  136.4950 N   0  0  0  0  0  0  0  0  0  0  0  0
  181.1430  176.2970  136.4740 C   0  0  0  0  0  0  0  0  0  0  0  0
  181.2770  175.3020  135.4970 C   0  0  0  0  0  3  0  0  0  0  0  0
  180.4350  174.1880  135.5240 C   0  0  0  0  0  3  0  0  0  0  0  0
  179.3400  175.0170  137.4580 C   0  0  0  0  0  3  0  0  0  0  0  0
  180.1620  176.1460  137.4650 C   0  0  0  0  0  3  0  0  0  0  0  0
  1 12  1  0  0  0  0
  1 15  1  0  0  0  0
  2 16  1  0  0  0  0
  4 13  1  0  0  0  0
  6 18  1  0  0  0  0
  6  2  2  0  0  0  0
  7  9  1  0  0  0  0
  8 17  1  0  0  0  0
 10 19  1  6  0  0  0
 10  8  1  0  0  0  0
 11  7  2  0  0  0  0
 12 23  1  0  0  0  0
 12  2  1  0  0  0  0
 13  7  1  0  0  0  0
 13  5  1  0  0  0  0
 14  4  2  0  0  0  0
 14 11  1  0  0  0  0
 15 20  1  6  0  0  0
 15 21  1  0  0  0  0
 16  3  1  6  0  0  0
 16 11  1  0  0  0  0
 18 14  1  0  0  0  0
 20 10  1  0  0  0  0
 21 17  1  1  0  0  0
 21  3  1  0  0  0  0
 22 26  1  0  0  0  0
 23 27  1  0  0  0  0
 24 25  1  0  0  0  0
 24 23  2  0  0  0  0
 25 22  2  0  0  0  0
 26 27  2  0  0  0  0
M  END
>  <MODEL>
9

>  <REMARK>
 VINA RESULT:      -4.9      6.228     10.197
  Name = 
  1 active torsions:
  status: ('A' for Active; 'I' for Inactive)
    1  A    between atoms: C_9  and  N_15
                            x       y       z     vdW  Elec       q    Type
                         _______ _______ _______ _____ _____    ______ ____

>  <TORSDO>
F 1

$$$$
