=
 OpenBabel10262421263D

 32 36  0  0  1  0  0  0  0  0999 V2000
  184.3220  179.3550  139.9030 C   0  0  0  0  0  3  0  0  0  0  0  0
  178.9310  176.7310  140.7940 C   0  0  0  0  0  2  0  0  0  0  0  0
  179.0400  176.4890  139.2760 C   0  0  0  0  0  2  0  0  0  0  0  0
  185.0580  178.8690  142.3240 C   0  0  2  0  0  3  0  0  0  0  0  0
  182.5470  178.8890  142.4980 C   0  0  0  0  0  3  0  0  0  0  0  0
  180.2620  177.0720  141.4000 C   0  0  0  0  0  3  0  0  0  0  0  0
  182.4280  178.2690  141.1460 C   0  0  1  0  0  3  0  0  0  0  0  0
  181.0370  177.9560  140.7640 C   0  0  0  0  0  0  0  0  0  0  0  0
  181.9520  179.1460  138.8760 C   0  0  2  0  0  0  0  0  0  0  0  0
  183.7470  179.2100  143.0070 C   0  0  0  0  0  0  0  0  0  0  0  0
  180.1320  177.3160  138.5630 C   0  0  0  0  0  2  0  0  0  0  0  0
  180.6650  178.4810  139.4180 C   0  0  1  0  0  3  0  0  0  0  0  0
  182.5960  178.3230  137.9410 O   0  0  0  0  0  1  0  0  0  0  0  0
  185.2580  179.2090  140.8570 C   0  0  0  0  0  3  0  0  0  0  0  0
  182.8360  179.3130  140.1350 C   0  0  2  0  0  3  0  0  0  0  0  0
  181.2220  180.4160  136.7930 C   0  0  0  0  0  3  0  0  0  0  0  0
  180.5670  181.4000  136.1590 C   0  0  0  0  0  0  0  0  0  0  0  0
  180.6040  181.3630  138.9950 C   0  0  0  0  0  0  0  0  0  0  0  0
  179.8760  182.3660  138.2810 N   0  0  0  0  0  2  0  0  0  0  0  0
  180.1960  182.6620  136.8880 C   0  0  0  0  0  2  0  0  0  0  0  0
  180.2330  181.2540  134.7160 C   0  0  0  0  0  1  0  0  0  0  0  0
  180.4100  181.2220  140.2300 O   0  0  0  0  0  0  0  0  0  0  0  0
  181.6280  180.5280  138.2480 C   0  0  1  0  0  3  0  0  0  0  0  0
  183.4460  178.9650  145.3440 O   0  0  0  0  0  1  0  0  0  0  0  0
  183.8070  179.8700  144.3450 C   0  0  0  0  0  2  0  0  0  0  0  0
  185.6150  177.4960  142.7080 C   0  0  0  0  0  2  0  0  0  0  0  0
  187.1080  177.5010  143.0320 C   0  0  0  0  0  2  0  0  0  0  0  0
  186.9760  177.5970  146.5980 C   0  0  0  0  0  3  0  0  0  0  0  0
  188.5900  177.7700  145.0830 C   0  0  0  0  0  3  0  0  0  0  0  0
  186.4230  177.4870  145.4150 O   0  0  0  0  0  0  0  0  0  0  0  0
  188.3410  177.7780  146.4450 C   0  0  0  0  0  3  0  0  0  0  0  0
  187.3540  177.5940  144.5020 C   0  0  0  0  0  0  0  0  0  0  0  0
  1 14  2  0  0  0  0
  2  6  1  0  0  0  0
  3  2  1  0  0  0  0
  4 26  1  6  0  0  0
  4 10  1  0  0  0  0
  5 10  2  0  0  0  0
  7  5  1  1  0  0  0
  8  7  1  0  0  0  0
  8  6  2  0  0  0  0
  9 13  1  6  0  0  0
  9 12  1  0  0  0  0
  9 15  1  0  0  0  0
 10 25  1  0  0  0  0
 11  3  1  0  0  0  0
 12 11  1  6  0  0  0
 12  8  1  0  0  0  0
 14  4  1  0  0  0  0
 15  1  1  6  0  0  0
 15  7  1  0  0  0  0
 17 16  2  0  0  0  0
 17 20  1  0  0  0  0
 18 22  2  0  0  0  0
 19 18  1  0  0  0  0
 20 19  1  0  0  0  0
 21 17  1  0  0  0  0
 23 16  1  6  0  0  0
 23  9  1  0  0  0  0
 23 18  1  0  0  0  0
 25 24  1  0  0  0  0
 26 27  1  0  0  0  0
 27 32  1  0  0  0  0
 29 31  1  0  0  0  0
 30 28  1  0  0  0  0
 31 28  2  0  0  0  0
 32 29  2  0  0  0  0
 32 30  1  0  0  0  0
M  END
>  <MODEL>
1

>  <REMARK>
 VINA RESULT:      -7.1      0.000      0.000
  Name = 
  5 active torsions:
  status: ('A' for Active; 'I' for Inactive)
    1  A    between atoms: C_8  and  C_23
    2  A    between atoms: C_12  and  C_21
    3  A    between atoms: C_16  and  C_32
    4  A    between atoms: C_19  and  C_23
    5  A    between atoms: C_19  and  C_24
                            x       y       z     vdW  Elec       q    Type
                         _______ _______ _______ _____ _____    ______ ____

>  <TORSDO>
F 5

$$$$
=
 OpenBabel10262421263D

 32 36  0  0  1  0  0  0  0  0999 V2000
  182.0040  177.5950  140.7250 C   0  0  0  0  0  3  0  0  0  0  0  0
  180.9650  182.6530  137.5490 C   0  0  0  0  0  2  0  0  0  0  0  0
  179.5190  182.3870  138.0110 C   0  0  0  0  0  2  0  0  0  0  0  0
  184.4350  178.2950  141.2120 C   0  0  2  0  0  3  0  0  0  0  0  0
  183.9050  179.5560  139.1000 C   0  0  0  0  0  3  0  0  0  0  0  0
  181.9600  181.8820  138.3680 C   0  0  0  0  0  3  0  0  0  0  0  0
  182.4980  179.7600  139.5510 C   0  0  1  0  0  3  0  0  0  0  0  0
  181.7020  180.5970  138.6320 C   0  0  0  0  0  0  0  0  0  0  0  0
  180.3390  178.6500  139.0430 C   0  0  2  0  0  0  0  0  0  0  0  0
  184.7690  178.8400  139.8370 C   0  0  0  0  0  0  0  0  0  0  0  0
  179.2670  180.9730  138.5790 C   0  0  0  0  0  2  0  0  0  0  0  0
  180.3980  179.9800  138.2540 C   0  0  1  0  0  3  0  0  0  0  0  0
  179.5100  178.7630  140.1690 O   0  0  0  0  0  1  0  0  0  0  0  0
  183.1490  177.5160  141.4260 C   0  0  0  0  0  3  0  0  0  0  0  0
  181.8040  178.4210  139.4840 C   0  0  2  0  0  3  0  0  0  0  0  0
  180.8900  177.1160  137.0860 C   0  0  0  0  0  3  0  0  0  0  0  0
  180.8500  175.9430  136.4370 C   0  0  0  0  0  0  0  0  0  0  0  0
  179.3810  176.2450  138.8440 C   0  0  0  0  0  0  0  0  0  0  0  0
  179.4040  174.9960  138.1470 N   0  0  0  0  0  2  0  0  0  0  0  0
  179.7670  174.9440  136.7340 C   0  0  0  0  0  2  0  0  0  0  0  0
  181.8670  175.6430  135.3930 C   0  0  0  0  0  1  0  0  0  0  0  0
  178.9310  176.2870  140.0190 O   0  0  0  0  0  0  0  0  0  0  0  0
  179.8560  177.4950  138.1270 C   0  0  1  0  0  3  0  0  0  0  0  0
  186.1500  178.6460  137.9220 O   0  0  0  0  0  1  0  0  0  0  0  0
  186.1530  178.6280  139.3180 C   0  0  0  0  0  2  0  0  0  0  0  0
  184.7530  179.2630  142.3540 C   0  0  0  0  0  2  0  0  0  0  0  0
  183.9050  179.0450  143.6060 C   0  0  0  0  0  2  0  0  0  0  0  0
  185.3630  178.5240  146.8230 C   0  0  0  0  0  3  0  0  0  0  0  0
  185.9600  178.0570  144.7360 C   0  0  0  0  0  3  0  0  0  0  0  0
  184.4160  178.9630  146.0310 O   0  0  0  0  0  0  0  0  0  0  0  0
  186.3610  177.9450  146.0560 C   0  0  0  0  0  3  0  0  0  0  0  0
  184.7470  178.7070  144.7920 C   0  0  0  0  0  0  0  0  0  0  0  0
  1 14  2  0  0  0  0
  2  3  1  0  0  0  0
  2  6  1  0  0  0  0
  3 11  1  0  0  0  0
  4 14  1  0  0  0  0
  4 26  1  1  0  0  0
  5 10  2  0  0  0  0
  6  8  2  0  0  0  0
  7  5  1  6  0  0  0
  8  7  1  0  0  0  0
  9 15  1  0  0  0  0
  9 13  1  1  0  0  0
 10  4  1  0  0  0  0
 12 11  1  1  0  0  0
 12  8  1  0  0  0  0
 12  9  1  0  0  0  0
 15  7  1  0  0  0  0
 15  1  1  1  0  0  0
 17 20  1  0  0  0  0
 17 16  2  0  0  0  0
 18 22  2  0  0  0  0
 19 18  1  0  0  0  0
 20 19  1  0  0  0  0
 21 17  1  0  0  0  0
 23 16  1  6  0  0  0
 23 18  1  0  0  0  0
 23  9  1  0  0  0  0
 24 25  1  0  0  0  0
 25 10  1  0  0  0  0
 26 27  1  0  0  0  0
 27 32  1  0  0  0  0
 29 32  2  0  0  0  0
 29 31  1  0  0  0  0
 30 28  1  0  0  0  0
 31 28  2  0  0  0  0
 32 30  1  0  0  0  0
M  END
>  <MODEL>
2

>  <REMARK>
 VINA RESULT:      -6.7      2.247      4.393
  Name = 
  5 active torsions:
  status: ('A' for Active; 'I' for Inactive)
    1  A    between atoms: C_8  and  C_23
    2  A    between atoms: C_12  and  C_21
    3  A    between atoms: C_16  and  C_32
    4  A    between atoms: C_19  and  C_23
    5  A    between atoms: C_19  and  C_24
                            x       y       z     vdW  Elec       q    Type
                         _______ _______ _______ _____ _____    ______ ____

>  <TORSDO>
F 5

$$$$
=
 OpenBabel10262421263D

 32 36  0  0  1  0  0  0  0  0999 V2000
  183.2550  179.1760  139.0290 C   0  0  0  0  0  3  0  0  0  0  0  0
  179.3260  174.5650  138.7910 C   0  0  0  0  0  2  0  0  0  0  0  0
  179.8730  174.4570  137.3540 C   0  0  0  0  0  2  0  0  0  0  0  0
  183.5400  178.9180  141.5760 C   0  0  2  0  0  3  0  0  0  0  0  0
  181.2680  177.9170  141.1660 C   0  0  0  0  0  3  0  0  0  0  0  0
  180.2280  175.3860  139.6680 C   0  0  0  0  0  3  0  0  0  0  0  0
  181.7250  177.3640  139.8580 C   0  0  1  0  0  3  0  0  0  0  0  0
  180.7070  176.5360  139.1820 C   0  0  0  0  0  0  0  0  0  0  0  0
  181.4780  178.0780  137.4960 C   0  0  2  0  0  0  0  0  0  0  0  0
  182.0840  178.6700  141.9200 C   0  0  0  0  0  0  0  0  0  0  0  0
  180.6740  175.6860  136.8690 C   0  0  0  0  0  2  0  0  0  0  0  0
  180.4790  176.9260  137.7610 C   0  0  1  0  0  3  0  0  0  0  0  0
  182.5970  177.6270  136.7790 O   0  0  0  0  0  1  0  0  0  0  0  0
  183.9220  179.3760  140.1800 C   0  0  0  0  0  3  0  0  0  0  0  0
  181.9020  178.5290  138.9140 C   0  0  2  0  0  3  0  0  0  0  0  0
  180.9650  180.5720  137.4350 C   0  0  0  0  0  3  0  0  0  0  0  0
  180.7690  181.7380  136.8020 C   0  0  0  0  0  0  0  0  0  0  0  0
  181.1500  179.3800  135.2730 C   0  0  0  0  0  0  0  0  0  0  0  0
  180.9880  180.6520  134.6380 N   0  0  0  0  0  2  0  0  0  0  0  0
  180.3680  181.7630  135.3540 C   0  0  0  0  0  2  0  0  0  0  0  0
  180.9220  183.0160  137.5490 C   0  0  0  0  0  1  0  0  0  0  0  0
  181.5560  178.4010  134.5950 O   0  0  0  0  0  0  0  0  0  0  0  0
  180.7810  179.2390  136.7380 C   0  0  1  0  0  3  0  0  0  0  0  0
  180.6440  180.2540  142.9340 O   0  0  0  0  0  1  0  0  0  0  0  0
  181.5610  179.2370  143.1990 C   0  0  0  0  0  2  0  0  0  0  0  0
  184.4960  177.8690  142.1510 C   0  0  0  0  0  2  0  0  0  0  0  0
  185.7630  178.4580  142.7700 C   0  0  0  0  0  2  0  0  0  0  0  0
  186.3600  177.7760  146.2220 C   0  0  0  0  0  3  0  0  0  0  0  0
  184.8470  178.9430  145.0930 C   0  0  0  0  0  3  0  0  0  0  0  0
  186.6430  177.6630  144.9470 O   0  0  0  0  0  0  0  0  0  0  0  0
  185.2360  178.5720  146.3680 C   0  0  0  0  0  3  0  0  0  0  0  0
  185.7580  178.3380  144.2580 C   0  0  0  0  0  0  0  0  0  0  0  0
  1 14  2  0  0  0  0
  2  6  1  0  0  0  0
  3  2  1  0  0  0  0
  4 10  1  0  0  0  0
  4 26  1  6  0  0  0
  5 10  2  0  0  0  0
  7  5  1  1  0  0  0
  8  6  2  0  0  0  0
  8  7  1  0  0  0  0
  9 13  1  6  0  0  0
  9 12  1  0  0  0  0
  9 15  1  0  0  0  0
 10 25  1  0  0  0  0
 11  3  1  0  0  0  0
 12 11  1  6  0  0  0
 12  8  1  0  0  0  0
 14  4  1  0  0  0  0
 15  1  1  6  0  0  0
 15  7  1  0  0  0  0
 17 16  2  0  0  0  0
 17 21  1  0  0  0  0
 18 23  1  0  0  0  0
 19 18  1  0  0  0  0
 19 20  1  0  0  0  0
 20 17  1  0  0  0  0
 22 18  2  0  0  0  0
 23 16  1  1  0  0  0
 23  9  1  0  0  0  0
 24 25  1  0  0  0  0
 26 27  1  0  0  0  0
 27 32  1  0  0  0  0
 28 31  2  0  0  0  0
 29 31  1  0  0  0  0
 30 28  1  0  0  0  0
 32 30  1  0  0  0  0
 32 29  2  0  0  0  0
M  END
>  <MODEL>
3

>  <REMARK>
 VINA RESULT:      -6.6      1.723      2.616
  Name = 
  5 active torsions:
  status: ('A' for Active; 'I' for Inactive)
    1  A    between atoms: C_8  and  C_23
    2  A    between atoms: C_12  and  C_21
    3  A    between atoms: C_16  and  C_32
    4  A    between atoms: C_19  and  C_23
    5  A    between atoms: C_19  and  C_24
                            x       y       z     vdW  Elec       q    Type
                         _______ _______ _______ _____ _____    ______ ____

>  <TORSDO>
F 5

$$$$
=
 OpenBabel10262421263D

 32 36  0  0  1  0  0  0  0  0999 V2000
  192.5130  176.7900  137.8140 C   0  0  0  0  0  3  0  0  0  0  0  0
  188.3720  173.0410  135.4600 C   0  0  0  0  0  2  0  0  0  0  0  0
  187.5750  174.3530  135.3270 C   0  0  0  0  0  2  0  0  0  0  0  0
  194.4470  175.2420  137.1050 C   0  0  2  0  0  3  0  0  0  0  0  0
  192.4960  173.6600  137.2620 C   0  0  0  0  0  3  0  0  0  0  0  0
  189.8360  173.2990  135.6750 C   0  0  0  0  0  3  0  0  0  0  0  0
  191.5730  174.7160  136.7540 C   0  0  1  0  0  3  0  0  0  0  0  0
  190.1900  174.2400  136.5560 C   0  0  0  0  0  0  0  0  0  0  0  0
  189.9730  176.2790  137.8260 C   0  0  2  0  0  0  0  0  0  0  0  0
  193.7960  173.9220  137.4720 C   0  0  0  0  0  0  0  0  0  0  0  0
  188.1390  175.5410  136.1380 C   0  0  0  0  0  2  0  0  0  0  0  0
  189.1680  175.1150  137.2000 C   0  0  1  0  0  3  0  0  0  0  0  0
  189.8920  177.4360  137.0380 O   0  0  0  0  0  1  0  0  0  0  0  0
  193.8080  176.5490  137.5410 C   0  0  0  0  0  3  0  0  0  0  0  0
  191.4270  175.7500  137.8440 C   0  0  2  0  0  3  0  0  0  0  0  0
  190.6240  176.7550  140.2420 C   0  0  0  0  0  3  0  0  0  0  0  0
  190.4580  177.3540  141.4300 C   0  0  0  0  0  0  0  0  0  0  0  0
  188.5060  177.7260  139.4060 C   0  0  0  0  0  0  0  0  0  0  0  0
  188.3920  178.3860  140.6700 N   0  0  0  0  0  2  0  0  0  0  0  0
  189.1100  177.8820  141.8360 C   0  0  0  0  0  2  0  0  0  0  0  0
  191.6100  177.4700  142.3650 C   0  0  0  0  0  1  0  0  0  0  0  0
  187.7710  178.0900  138.4520 O   0  0  0  0  0  0  0  0  0  0  0  0
  189.4780  176.5690  139.2680 C   0  0  1  0  0  3  0  0  0  0  0  0
  195.4290  173.3370  139.0850 O   0  0  0  0  0  1  0  0  0  0  0  0
  194.6670  172.8430  138.0250 C   0  0  0  0  0  2  0  0  0  0  0  0
  194.9940  175.2840  135.6760 C   0  0  0  0  0  2  0  0  0  0  0  0
  196.4360  175.7780  135.5780 C   0  0  0  0  0  2  0  0  0  0  0  0
  198.6350  174.4320  138.0470 C   0  0  0  0  0  3  0  0  0  0  0  0
  197.7270  173.6680  136.1710 C   0  0  0  0  0  3  0  0  0  0  0  0
  197.8990  175.3920  137.5430 O   0  0  0  0  0  0  0  0  0  0  0  0
  198.5620  173.3230  137.2200 C   0  0  0  0  0  3  0  0  0  0  0  0
  197.3570  174.9680  136.4300 C   0  0  0  0  0  0  0  0  0  0  0  0
  2  6  1  0  0  0  0
  3  2  1  0  0  0  0
  3 11  1  0  0  0  0
  4 26  1  6  0  0  0
  4 10  1  0  0  0  0
  4 14  1  0  0  0  0
  5 10  2  0  0  0  0
  6  8  2  0  0  0  0
  7  5  1  1  0  0  0
  7 15  1  0  0  0  0
  8  7  1  0  0  0  0
  8 12  1  0  0  0  0
  9 13  1  6  0  0  0
  9 15  1  0  0  0  0
  9 23  1  0  0  0  0
 10 25  1  0  0  0  0
 12 11  1  6  0  0  0
 12  9  1  0  0  0  0
 14  1  2  0  0  0  0
 15  1  1  6  0  0  0
 16 17  2  0  0  0  0
 17 20  1  0  0  0  0
 17 21  1  0  0  0  0
 18 19  1  0  0  0  0
 19 20  1  0  0  0  0
 22 18  2  0  0  0  0
 23 18  1  0  0  0  0
 23 16  1  1  0  0  0
 25 24  1  0  0  0  0
 27 26  1  0  0  0  0
 27 32  1  0  0  0  0
 29 32  2  0  0  0  0
 29 31  1  0  0  0  0
 30 28  1  0  0  0  0
 31 28  2  0  0  0  0
 32 30  1  0  0  0  0
M  END
>  <MODEL>
4

>  <REMARK>
 VINA RESULT:      -6.5      8.934     11.422
  Name = 
  5 active torsions:
  status: ('A' for Active; 'I' for Inactive)
    1  A    between atoms: C_8  and  C_23
    2  A    between atoms: C_12  and  C_21
    3  A    between atoms: C_16  and  C_32
    4  A    between atoms: C_19  and  C_23
    5  A    between atoms: C_19  and  C_24
                            x       y       z     vdW  Elec       q    Type
                         _______ _______ _______ _____ _____    ______ ____

>  <TORSDO>
F 5

$$$$
=
 OpenBabel10262421263D

 32 36  0  0  1  0  0  0  0  0999 V2000
  191.9680  176.9430  139.1100 C   0  0  0  0  0  3  0  0  0  0  0  0
  186.7360  176.3830  136.1010 C   0  0  0  0  0  2  0  0  0  0  0  0
  186.4400  177.7250  136.8000 C   0  0  0  0  0  2  0  0  0  0  0  0
  193.2310  175.5460  137.3520 C   0  0  2  0  0  3  0  0  0  0  0  0
  190.8580  174.7510  137.0950 C   0  0  0  0  0  3  0  0  0  0  0  0
  188.2030  176.0620  136.1140 C   0  0  0  0  0  3  0  0  0  0  0  0
  190.3460  176.1240  137.3770 C   0  0  1  0  0  3  0  0  0  0  0  0
  188.8790  176.2410  137.2530 C   0  0  0  0  0  0  0  0  0  0  0  0
  189.4090  177.2450  139.3810 C   0  0  2  0  0  0  0  0  0  0  0  0
  192.1720  174.4820  137.1390 C   0  0  0  0  0  0  0  0  0  0  0  0
  187.3970  178.0780  137.9600 C   0  0  0  0  0  2  0  0  0  0  0  0
  188.2380  176.8800  138.4380 C   0  0  1  0  0  3  0  0  0  0  0  0
  189.7160  178.6110  139.3050 O   0  0  0  0  0  1  0  0  0  0  0  0
  193.0930  176.5340  138.4980 C   0  0  0  0  0  3  0  0  0  0  0  0
  190.5900  176.4050  138.8400 C   0  0  2  0  0  3  0  0  0  0  0  0
  190.3120  176.4470  141.6250 C   0  0  0  0  0  3  0  0  0  0  0  0
  190.3250  176.4120  142.9650 C   0  0  0  0  0  0  0  0  0  0  0  0
  188.2820  177.8630  141.6370 C   0  0  0  0  0  0  0  0  0  0  0  0
  188.3600  177.8410  143.0650 N   0  0  0  0  0  2  0  0  0  0  0  0
  189.0970  176.7830  143.7490 C   0  0  0  0  0  2  0  0  0  0  0  0
  191.5540  175.9720  143.6790 C   0  0  0  0  0  1  0  0  0  0  0  0
  187.5270  178.6990  141.0740 O   0  0  0  0  0  0  0  0  0  0  0  0
  189.0760  176.8440  140.8420 C   0  0  1  0  0  3  0  0  0  0  0  0
  192.1840  172.6430  135.6460 O   0  0  0  0  0  1  0  0  0  0  0  0
  192.6280  173.0810  136.8940 C   0  0  0  0  0  2  0  0  0  0  0  0
  193.7280  176.1900  136.0550 C   0  0  0  0  0  2  0  0  0  0  0  0
  194.6070  175.2740  135.2060 C   0  0  0  0  0  2  0  0  0  0  0  0
  197.5760  174.8520  137.1430 C   0  0  0  0  0  3  0  0  0  0  0  0
  196.1400  173.4780  136.1520 C   0  0  0  0  0  3  0  0  0  0  0  0
  196.6600  175.5870  136.5610 O   0  0  0  0  0  0  0  0  0  0  0  0
  197.2950  173.5150  136.9140 C   0  0  0  0  0  3  0  0  0  0  0  0
  195.8040  174.7990  135.9620 C   0  0  0  0  0  0  0  0  0  0  0  0
  2  6  1  0  0  0  0
  2  3  1  0  0  0  0
  3 11  1  0  0  0  0
  4 26  1  6  0  0  0
  4 14  1  0  0  0  0
  5 10  2  0  0  0  0
  6  8  2  0  0  0  0
  7  5  1  1  0  0  0
  7 15  1  0  0  0  0
  8  7  1  0  0  0  0
  8 12  1  0  0  0  0
  9 13  1  6  0  0  0
  9 23  1  0  0  0  0
 10  4  1  0  0  0  0
 12 11  1  6  0  0  0
 12  9  1  0  0  0  0
 14  1  2  0  0  0  0
 15  1  1  6  0  0  0
 15  9  1  0  0  0  0
 16 17  2  0  0  0  0
 17 21  1  0  0  0  0
 17 20  1  0  0  0  0
 18 19  1  0  0  0  0
 19 20  1  0  0  0  0
 22 18  2  0  0  0  0
 23 16  1  1  0  0  0
 23 18  1  0  0  0  0
 24 25  1  0  0  0  0
 25 10  1  0  0  0  0
 27 32  1  0  0  0  0
 27 26  1  0  0  0  0
 29 31  1  0  0  0  0
 30 28  1  0  0  0  0
 31 28  2  0  0  0  0
 32 29  2  0  0  0  0
 32 30  1  0  0  0  0
M  END
>  <MODEL>
5

>  <REMARK>
 VINA RESULT:      -6.4      7.889     10.763
  Name = 
  5 active torsions:
  status: ('A' for Active; 'I' for Inactive)
    1  A    between atoms: C_8  and  C_23
    2  A    between atoms: C_12  and  C_21
    3  A    between atoms: C_16  and  C_32
    4  A    between atoms: C_19  and  C_23
    5  A    between atoms: C_19  and  C_24
                            x       y       z     vdW  Elec       q    Type
                         _______ _______ _______ _____ _____    ______ ____

>  <TORSDO>
F 5

$$$$
=
 OpenBabel10262421263D

 32 36  0  0  1  0  0  0  0  0999 V2000
  182.2950  178.0930  137.4880 C   0  0  0  0  0  3  0  0  0  0  0  0
  183.9270  178.7840  143.2850 C   0  0  0  0  0  2  0  0  0  0  0  0
  182.4010  178.7210  143.4960 C   0  0  0  0  0  2  0  0  0  0  0  0
  184.5390  176.9730  136.8970 C   0  0  2  0  0  3  0  0  0  0  0  0
  185.1190  178.3490  138.9230 C   0  0  0  0  0  3  0  0  0  0  0  0
  184.3230  178.2540  141.9370 C   0  0  0  0  0  3  0  0  0  0  0  0
  183.7770  178.0790  139.5160 C   0  0  1  0  0  3  0  0  0  0  0  0
  183.6120  178.6380  140.8720 C   0  0  0  0  0  0  0  0  0  0  0  0
  181.6580  179.3590  139.6570 C   0  0  2  0  0  0  0  0  0  0  0  0
  185.4410  177.8870  137.7040 C   0  0  0  0  0  0  0  0  0  0  0  0
  181.5590  178.8940  142.2130 C   0  0  0  0  0  2  0  0  0  0  0  0
  182.3700  179.4490  141.0270 C   0  0  1  0  0  3  0  0  0  0  0  0
  180.5930  178.4470  139.6950 O   0  0  0  0  0  1  0  0  0  0  0  0
  183.0770  177.3330  136.7000 C   0  0  0  0  0  3  0  0  0  0  0  0
  182.7630  178.8460  138.7030 C   0  0  2  0  0  3  0  0  0  0  0  0
  181.1840  180.9260  137.7050 C   0  0  0  0  0  3  0  0  0  0  0  0
  180.4810  181.8830  137.0820 C   0  0  0  0  0  0  0  0  0  0  0  0
  179.7930  181.1650  139.7390 C   0  0  0  0  0  0  0  0  0  0  0  0
  179.0380  182.1450  139.0220 N   0  0  0  0  0  2  0  0  0  0  0  0
  179.6170  182.8290  137.8700 C   0  0  0  0  0  2  0  0  0  0  0  0
  180.5810  182.0290  135.6050 C   0  0  0  0  0  1  0  0  0  0  0  0
  179.3300  180.6920  140.8090 O   0  0  0  0  0  0  0  0  0  0  0  0
  181.1560  180.7590  139.2110 C   0  0  1  0  0  3  0  0  0  0  0  0
  187.6280  178.6820  138.1480 O   0  0  0  0  0  1  0  0  0  0  0  0
  186.7810  178.2250  137.1380 C   0  0  0  0  0  2  0  0  0  0  0  0
  184.7640  175.4840  137.1740 C   0  0  0  0  0  2  0  0  0  0  0  0
  183.5490  174.7740  137.7700 C   0  0  0  0  0  2  0  0  0  0  0  0
  182.5330  171.5870  136.5240 C   0  0  0  0  0  3  0  0  0  0  0  0
  184.4800  172.5240  137.0350 C   0  0  0  0  0  3  0  0  0  0  0  0
  182.2890  172.8030  136.9480 O   0  0  0  0  0  0  0  0  0  0  0  0
  183.8990  171.3600  136.5610 C   0  0  0  0  0  3  0  0  0  0  0  0
  183.4230  173.3760  137.2630 C   0  0  0  0  0  0  0  0  0  0  0  0
  2  3  1  0  0  0  0
  4 26  1  1  0  0  0
  4 10  1  0  0  0  0
  6  2  1  0  0  0  0
  7  5  1  6  0  0  0
  7  8  1  0  0  0  0
  8 12  1  0  0  0  0
  8  6  2  0  0  0  0
  9 13  1  1  0  0  0
  9 12  1  0  0  0  0
 10  5  2  0  0  0  0
 11  3  1  0  0  0  0
 12 11  1  1  0  0  0
 14  4  1  0  0  0  0
 14  1  2  0  0  0  0
 15  1  1  6  0  0  0
 15  7  1  0  0  0  0
 15  9  1  0  0  0  0
 17 16  2  0  0  0  0
 17 20  1  0  0  0  0
 18 22  2  0  0  0  0
 19 18  1  0  0  0  0
 20 19  1  0  0  0  0
 21 17  1  0  0  0  0
 23 16  1  6  0  0  0
 23  9  1  0  0  0  0
 23 18  1  0  0  0  0
 25 10  1  0  0  0  0
 25 24  1  0  0  0  0
 26 27  1  0  0  0  0
 28 31  2  0  0  0  0
 28 30  1  0  0  0  0
 29 32  2  0  0  0  0
 30 32  1  0  0  0  0
 31 29  1  0  0  0  0
 32 27  1  0  0  0  0
M  END
>  <MODEL>
6

>  <REMARK>
 VINA RESULT:      -6.4      3.285      5.875
  Name = 
  5 active torsions:
  status: ('A' for Active; 'I' for Inactive)
    1  A    between atoms: C_8  and  C_23
    2  A    between atoms: C_12  and  C_21
    3  A    between atoms: C_16  and  C_32
    4  A    between atoms: C_19  and  C_23
    5  A    between atoms: C_19  and  C_24
                            x       y       z     vdW  Elec       q    Type
                         _______ _______ _______ _____ _____    ______ ____

>  <TORSDO>
F 5

$$$$
=
 OpenBabel10262421263D

 32 36  0  0  1  0  0  0  0  0999 V2000
  188.4530  178.4870  139.7800 C   0  0  0  0  0  3  0  0  0  0  0  0
  192.5390  175.0400  136.9230 C   0  0  0  0  0  2  0  0  0  0  0  0
  192.2280  176.0100  135.7650 C   0  0  0  0  0  2  0  0  0  0  0  0
  189.5000  177.9790  142.0790 C   0  0  2  0  0  3  0  0  0  0  0  0
  190.1990  175.9950  140.6980 C   0  0  0  0  0  3  0  0  0  0  0  0
  192.0810  175.5870  138.2440 C   0  0  0  0  0  3  0  0  0  0  0  0
  190.3440  176.8600  139.4910 C   0  0  1  0  0  3  0  0  0  0  0  0
  190.8660  176.1410  138.3120 C   0  0  0  0  0  0  0  0  0  0  0  0
  188.9230  177.3250  137.5130 C   0  0  2  0  0  0  0  0  0  0  0  0
  189.7610  176.5010  141.8610 C   0  0  0  0  0  0  0  0  0  0  0  0
  190.9560  176.8650  135.9580 C   0  0  0  0  0  2  0  0  0  0  0  0
  190.0440  176.3470  137.0850 C   0  0  1  0  0  3  0  0  0  0  0  0
  189.1920  178.6300  137.0740 O   0  0  0  0  0  1  0  0  0  0  0  0
  188.6550  178.7540  141.0830 C   0  0  0  0  0  3  0  0  0  0  0  0
  188.9570  177.2670  139.0580 C   0  0  2  0  0  3  0  0  0  0  0  0
  187.2990  175.3790  137.2660 C   0  0  0  0  0  3  0  0  0  0  0  0
  186.0700  174.8440  137.2230 C   0  0  0  0  0  0  0  0  0  0  0  0
  186.3500  177.6590  137.4260 C   0  0  0  0  0  0  0  0  0  0  0  0
  185.0570  177.0450  137.4270 N   0  0  0  0  0  2  0  0  0  0  0  0
  184.8770  175.6990  136.8940 C   0  0  0  0  0  2  0  0  0  0  0  0
  185.8900  173.3880  137.4730 C   0  0  0  0  0  1  0  0  0  0  0  0
  186.4570  178.8680  137.7580 O   0  0  0  0  0  0  0  0  0  0  0  0
  187.5480  176.8450  136.9770 C   0  0  1  0  0  3  0  0  0  0  0  0
  190.7590  174.8520  143.2380 O   0  0  0  0  0  1  0  0  0  0  0  0
  189.5890  175.5820  143.0260 C   0  0  0  0  0  2  0  0  0  0  0  0
  190.7270  178.7570  142.5650 C   0  0  0  0  0  2  0  0  0  0  0  0
  190.5850  179.3160  143.9790 C   0  0  0  0  0  2  0  0  0  0  0  0
  191.4150  176.6660  146.2230 C   0  0  0  0  0  3  0  0  0  0  0  0
  189.6030  177.8930  145.8460 C   0  0  0  0  0  3  0  0  0  0  0  0
  191.6970  177.5040  145.2550 O   0  0  0  0  0  0  0  0  0  0  0  0
  190.1070  176.8690  146.6300 C   0  0  0  0  0  3  0  0  0  0  0  0
  190.6410  178.2350  145.0080 C   0  0  0  0  0  0  0  0  0  0  0  0
  1 14  2  0  0  0  0
  2  6  1  0  0  0  0
  3 11  1  0  0  0  0
  3  2  1  0  0  0  0
  4 26  1  6  0  0  0
  5 10  2  0  0  0  0
  6  8  2  0  0  0  0
  7  5  1  1  0  0  0
  8  7  1  0  0  0  0
  9 13  1  6  0  0  0
  9 15  1  0  0  0  0
 10  4  1  0  0  0  0
 10 25  1  0  0  0  0
 12 11  1  6  0  0  0
 12  9  1  0  0  0  0
 12  8  1  0  0  0  0
 14  4  1  0  0  0  0
 15  7  1  0  0  0  0
 15  1  1  1  0  0  0
 17 16  2  0  0  0  0
 17 21  1  0  0  0  0
 18 19  1  0  0  0  0
 18 22  2  0  0  0  0
 20 17  1  0  0  0  0
 20 19  1  0  0  0  0
 23 16  1  1  0  0  0
 23 18  1  0  0  0  0
 23  9  1  0  0  0  0
 25 24  1  0  0  0  0
 26 27  1  0  0  0  0
 27 32  1  0  0  0  0
 28 31  2  0  0  0  0
 29 31  1  0  0  0  0
 30 28  1  0  0  0  0
 32 30  1  0  0  0  0
 32 29  2  0  0  0  0
M  END
>  <MODEL>
7

>  <REMARK>
 VINA RESULT:      -6.3      5.546      7.892
  Name = 
  5 active torsions:
  status: ('A' for Active; 'I' for Inactive)
    1  A    between atoms: C_8  and  C_23
    2  A    between atoms: C_12  and  C_21
    3  A    between atoms: C_16  and  C_32
    4  A    between atoms: C_19  and  C_23
    5  A    between atoms: C_19  and  C_24
                            x       y       z     vdW  Elec       q    Type
                         _______ _______ _______ _____ _____    ______ ____

>  <TORSDO>
F 5

$$$$
=
 OpenBabel10262421263D

 32 36  0  0  1  0  0  0  0  0999 V2000
  182.4470  179.1010  137.9360 C   0  0  0  0  0  3  0  0  0  0  0  0
  184.0740  178.5220  143.7470 C   0  0  0  0  0  2  0  0  0  0  0  0
  185.3020  179.3150  143.2570 C   0  0  0  0  0  2  0  0  0  0  0  0
  179.9440  178.9580  138.5300 C   0  0  2  0  0  3  0  0  0  0  0  0
  181.0420  177.7580  140.4500 C   0  0  0  0  0  3  0  0  0  0  0  0
  182.9280  178.6200  142.7810 C   0  0  0  0  0  3  0  0  0  0  0  0
  182.2000  178.6980  140.4030 C   0  0  1  0  0  3  0  0  0  0  0  0
  183.1860  178.4700  141.4770 C   0  0  0  0  0  0  0  0  0  0  0  0
  184.4860  178.5830  139.4490 C   0  0  2  0  0  0  0  0  0  0  0  0
  180.0430  177.8480  139.5590 C   0  0  0  0  0  0  0  0  0  0  0  0
  185.4630  179.3810  141.7220 C   0  0  0  0  0  2  0  0  0  0  0  0
  184.5860  178.3580  140.9770 C   0  0  1  0  0  3  0  0  0  0  0  0
  184.8830  179.8810  139.0980 O   0  0  0  0  0  1  0  0  0  0  0  0
  181.1450  179.2960  137.6630 C   0  0  0  0  0  3  0  0  0  0  0  0
  182.9810  178.3890  139.1490 C   0  0  2  0  0  3  0  0  0  0  0  0
  184.7470  177.1880  137.3340 C   0  0  0  0  0  3  0  0  0  0  0  0
  185.4710  176.5960  136.3720 C   0  0  0  0  0  0  0  0  0  0  0  0
  186.8060  177.8680  138.5270 C   0  0  0  0  0  0  0  0  0  0  0  0
  187.5410  177.2690  137.4560 N   0  0  0  0  0  2  0  0  0  0  0  0
  186.9180  176.2610  136.6050 C   0  0  0  0  0  2  0  0  0  0  0  0
  184.8280  176.2430  135.0780 C   0  0  0  0  0  1  0  0  0  0  0  0
  187.4030  178.6280  139.3340 O   0  0  0  0  0  0  0  0  0  0  0  0
  185.3360  177.5310  138.6870 C   0  0  1  0  0  3  0  0  0  0  0  0
  179.1530  175.8260  138.7050 O   0  0  0  0  0  1  0  0  0  0  0  0
  178.9310  176.8530  139.6220 C   0  0  0  0  0  2  0  0  0  0  0  0
  179.1900  180.1940  139.0270 C   0  0  0  0  0  2  0  0  0  0  0  0
  180.0990  181.3410  139.4660 C   0  0  0  0  0  2  0  0  0  0  0  0
  179.1270  184.3350  137.7820 C   0  0  0  0  0  3  0  0  0  0  0  0
  180.8170  182.9070  137.5940 C   0  0  0  0  0  3  0  0  0  0  0  0
  178.9580  183.3990  138.6840 O   0  0  0  0  0  0  0  0  0  0  0  0
  180.2840  184.0710  137.0670 C   0  0  0  0  0  3  0  0  0  0  0  0
  179.9400  182.5390  138.5890 C   0  0  0  0  0  0  0  0  0  0  0  0
  3  2  1  0  0  0  0
  4 26  1  1  0  0  0
  4 10  1  0  0  0  0
  6  2  1  0  0  0  0
  7  5  1  1  0  0  0
  7  8  1  0  0  0  0
  8  6  2  0  0  0  0
  9 13  1  6  0  0  0
  9 12  1  0  0  0  0
 10 25  1  0  0  0  0
 10  5  2  0  0  0  0
 11  3  1  0  0  0  0
 12  8  1  0  0  0  0
 12 11  1  1  0  0  0
 14  1  2  0  0  0  0
 14  4  1  0  0  0  0
 15  1  1  6  0  0  0
 15  9  1  0  0  0  0
 15  7  1  0  0  0  0
 17 20  1  0  0  0  0
 17 16  2  0  0  0  0
 18 23  1  0  0  0  0
 18 22  2  0  0  0  0
 19 18  1  0  0  0  0
 20 19  1  0  0  0  0
 21 17  1  0  0  0  0
 23 16  1  6  0  0  0
 23  9  1  0  0  0  0
 24 25  1  0  0  0  0
 26 27  1  0  0  0  0
 28 30  1  0  0  0  0
 29 32  2  0  0  0  0
 31 29  1  0  0  0  0
 31 28  2  0  0  0  0
 32 30  1  0  0  0  0
 32 27  1  0  0  0  0
M  END
>  <MODEL>
8

>  <REMARK>
 VINA RESULT:      -6.2      3.036      7.423
  Name = 
  5 active torsions:
  status: ('A' for Active; 'I' for Inactive)
    1  A    between atoms: C_8  and  C_23
    2  A    between atoms: C_12  and  C_21
    3  A    between atoms: C_16  and  C_32
    4  A    between atoms: C_19  and  C_23
    5  A    between atoms: C_19  and  C_24
                            x       y       z     vdW  Elec       q    Type
                         _______ _______ _______ _____ _____    ______ ____

>  <TORSDO>
F 5

$$$$
=
 OpenBabel10262421263D

 32 36  0  0  1  0  0  0  0  0999 V2000
  193.0640  175.9860  137.9730 C   0  0  0  0  0  3  0  0  0  0  0  0
  191.4130  171.2210  134.6090 C   0  0  0  0  0  2  0  0  0  0  0  0
  192.6110  170.5720  135.3290 C   0  0  0  0  0  2  0  0  0  0  0  0
  190.6650  176.9240  137.9820 C   0  0  2  0  0  3  0  0  0  0  0  0
  190.7070  175.5220  135.8920 C   0  0  0  0  0  3  0  0  0  0  0  0
  190.9530  172.4670  135.3090 C   0  0  0  0  0  3  0  0  0  0  0  0
  191.5940  174.5230  136.5560 C   0  0  1  0  0  3  0  0  0  0  0  0
  191.8790  173.3410  135.7180 C   0  0  0  0  0  0  0  0  0  0  0  0
  194.0330  174.0750  136.5150 C   0  0  2  0  0  0  0  0  0  0  0  0
  190.3310  176.6420  136.5290 C   0  0  0  0  0  0  0  0  0  0  0  0
  193.5540  171.5630  136.0480 C   0  0  0  0  0  2  0  0  0  0  0  0
  193.3330  173.0260  135.6200 C   0  0  1  0  0  3  0  0  0  0  0  0
  194.4010  173.5250  137.7520 O   0  0  0  0  0  1  0  0  0  0  0  0
  192.0930  176.7690  138.4740 C   0  0  0  0  0  3  0  0  0  0  0  0
  192.9520  175.1630  136.7190 C   0  0  2  0  0  3  0  0  0  0  0  0
  195.0580  176.1020  135.3620 C   0  0  0  0  0  3  0  0  0  0  0  0
  196.0800  176.9140  135.0540 C   0  0  0  0  0  0  0  0  0  0  0  0
  196.5840  174.5580  136.5500 C   0  0  0  0  0  0  0  0  0  0  0  0
  197.6380  175.4750  136.2430 N   0  0  0  0  0  2  0  0  0  0  0  0
  197.4980  176.4220  135.1400 C   0  0  0  0  0  2  0  0  0  0  0  0
  195.8060  178.3020  134.5940 C   0  0  0  0  0  1  0  0  0  0  0  0
  196.7810  173.6590  137.4090 O   0  0  0  0  0  0  0  0  0  0  0  0
  195.2740  174.6660  135.7940 C   0  0  1  0  0  3  0  0  0  0  0  0
  189.2520  178.7490  136.6050 O   0  0  0  0  0  1  0  0  0  0  0  0
  189.4800  177.6310  135.8020 C   0  0  0  0  0  2  0  0  0  0  0  0
  189.6230  176.3900  138.9680 C   0  0  0  0  0  2  0  0  0  0  0  0
  189.1220  177.4340  139.9650 C   0  0  0  0  0  2  0  0  0  0  0  0
  190.3440  176.0210  143.0070 C   0  0  0  0  0  3  0  0  0  0  0  0
  189.1480  177.8160  142.4800 C   0  0  0  0  0  3  0  0  0  0  0  0
  190.1940  176.0300  141.7050 O   0  0  0  0  0  0  0  0  0  0  0  0
  189.7020  177.1250  143.5440 C   0  0  0  0  0  3  0  0  0  0  0  0
  189.4850  177.0770  141.3680 C   0  0  0  0  0  0  0  0  0  0  0  0
  1 14  2  0  0  0  0
  2  6  1  0  0  0  0
  2  3  1  0  0  0  0
  3 11  1  0  0  0  0
  4 14  1  0  0  0  0
  4 26  1  1  0  0  0
  5 10  2  0  0  0  0
  6  8  2  0  0  0  0
  7  5  1  6  0  0  0
  7 15  1  0  0  0  0
  8  7  1  0  0  0  0
  9 15  1  0  0  0  0
  9 13  1  1  0  0  0
 10  4  1  0  0  0  0
 12  8  1  0  0  0  0
 12 11  1  1  0  0  0
 12  9  1  0  0  0  0
 15  1  1  1  0  0  0
 17 20  1  0  0  0  0
 17 16  2  0  0  0  0
 18 22  2  0  0  0  0
 19 18  1  0  0  0  0
 20 19  1  0  0  0  0
 21 17  1  0  0  0  0
 23 16  1  1  0  0  0
 23  9  1  0  0  0  0
 23 18  1  0  0  0  0
 25 10  1  0  0  0  0
 25 24  1  0  0  0  0
 26 27  1  0  0  0  0
 27 32  1  0  0  0  0
 28 31  2  0  0  0  0
 29 31  1  0  0  0  0
 30 28  1  0  0  0  0
 32 30  1  0  0  0  0
 32 29  2  0  0  0  0
M  END
>  <MODEL>
9

>  <REMARK>
 VINA RESULT:      -6.0      9.605     12.353
  Name = 
  5 active torsions:
  status: ('A' for Active; 'I' for Inactive)
    1  A    between atoms: C_8  and  C_23
    2  A    between atoms: C_12  and  C_21
    3  A    between atoms: C_16  and  C_32
    4  A    between atoms: C_19  and  C_23
    5  A    between atoms: C_19  and  C_24
                            x       y       z     vdW  Elec       q    Type
                         _______ _______ _______ _____ _____    ______ ____

>  <TORSDO>
F 5

$$$$
