=
 OpenBabel10262422163D

 43 47  0  0  1  0  0  0  0  0999 V2000
  181.3460  177.3370  137.2790 C   0  0  0  0  0  0  0  0  0  0  0  0
  180.8260  177.5960  136.1580 O   0  0  0  0  0  0  0  0  0  0  0  0
  181.1480  178.2480  138.3810 N   0  0  0  0  0  0  0  0  0  0  0  0
  181.6070  178.6940  142.0620 O   0  0  0  0  0  0  0  0  0  0  0  0
  183.0020  178.6750  142.0890 C   0  0  0  0  0  0  0  0  0  0  0  0
  185.2170  178.5530  140.7670 C   0  0  0  0  0  2  0  0  0  0  0  0
  180.8860  178.5980  140.8300 C   0  0  2  0  0  3  0  0  0  0  0  0
  183.6540  179.0530  143.1890 C   0  0  0  0  0  3  0  0  0  0  0  0
  183.0440  178.6920  139.7030 O   0  0  0  0  0  0  0  0  0  0  0  0
  179.6710  177.7150  141.0210 C   0  0  0  0  0  1  0  0  0  0  0  0
  185.1520  179.0640  143.2450 C   0  0  2  0  0  3  0  0  0  0  0  0
  181.7800  178.0690  139.6880 C   0  0  2  0  0  3  0  0  0  0  0  0
  185.7040  179.4870  141.8830 C   0  0  0  0  0  2  0  0  0  0  0  0
  183.7180  178.2130  140.8380 C   0  0  2  0  0  3  0  0  0  0  0  0
  185.6980  177.7040  143.6590 C   0  0  0  0  0  2  0  0  0  0  0  0
  187.2160  177.7100  143.6280 C   0  0  0  0  0  2  0  0  0  0  0  0
  187.7110  178.0590  144.8850 O   0  0  0  0  0  0  0  0  0  0  0  0
  188.7700  177.1730  145.1030 C   0  0  0  0  0  2  0  0  0  0  0  0
  188.7570  176.5570  147.4080 O   0  0  0  0  0  1  0  0  0  0  0  0
  189.3650  177.4050  146.4810 C   0  0  0  0  0  2  0  0  0  0  0  0
  180.1270  179.2860  138.2850 C   0  0  0  0  0  2  0  0  0  0  0  0
  180.1620  182.1780  135.7600 C   0  0  0  0  0  2  0  0  0  0  0  0
  180.4260  183.3400  136.7240 C   0  0  0  0  0  0  0  0  0  0  0  0
  181.0840  184.4630  135.9530 C   0  0  0  0  0  1  0  0  0  0  0  0
  180.8640  181.6470  138.5620 C   0  0  0  0  0  2  0  0  0  0  0  0
  179.6610  180.9330  136.4930 C   0  0  0  0  0  2  0  0  0  0  0  0
  180.6620  180.5100  137.5620 C   0  0  0  0  0  3  0  0  0  0  0  0
  179.1180  183.8610  137.3010 C   0  0  0  0  0  1  0  0  0  0  0  0
  181.3700  182.9040  137.8490 C   0  0  0  0  0  2  0  0  0  0  0  0
  182.1460  176.0660  137.4360 C   0  0  1  0  0  3  0  0  0  0  0  0
  179.8590  172.5070  136.5650 C   0  0  0  0  0  0  0  0  0  0  0  0
  180.5690  174.2050  138.1480 C   0  0  0  0  0  0  0  0  0  0  0  0
  180.6390  173.1000  135.5720 C   0  0  0  0  0  3  0  0  0  0  0  0
  178.9310  171.0680  136.2030 Cl  0  0  0  0  0  0  0  0  0  0  0  0
  181.3370  174.8270  137.1390 C   0  0  0  0  0  0  0  0  0  0  0  0
  179.8290  173.0560  137.8510 C   0  0  0  0  0  3  0  0  0  0  0  0
  181.3730  174.2540  135.8580 C   0  0  0  0  0  3  0  0  0  0  0  0
  180.5560  174.7150  139.5480 C   0  0  0  0  0  1  0  0  0  0  0  0
  184.4050  176.9690  137.3010 O   0  0  0  0  0  0  0  0  0  0  0  0
  184.6770  175.5910  137.4330 C   0  0  0  0  0  2  0  0  0  0  0  0
  183.4950  176.0850  136.6980 C   0  0  1  0  0  0  0  0  0  0  0  0
  183.6030  176.1280  135.1790 C   0  0  0  0  0  2  0  0  0  0  0  0
  183.8560  177.4270  134.7470 O   0  0  0  0  0  1  0  0  0  0  0  0
  1  3  1  0  0  0  0
  2  1  2  0  0  0  0
  4  5  1  0  0  0  0
  5  8  2  0  0  0  0
  6 13  1  0  0  0  0
  7 10  1  1  0  0  0
  7  4  1  0  0  0  0
  8 11  1  0  0  0  0
  9 14  1  0  0  0  0
 11 15  1  6  0  0  0
 12  3  1  6  0  0  0
 12  9  1  0  0  0  0
 12  7  1  0  0  0  0
 13 11  1  0  0  0  0
 14  6  1  1  0  0  0
 14  5  1  0  0  0  0
 16 15  1  0  0  0  0
 16 17  1  0  0  0  0
 17 18  1  0  0  0  0
 18 20  1  0  0  0  0
 20 19  1  0  0  0  0
 21  3  1  0  0  0  0
 22 26  1  0  0  0  0
 22 23  1  0  0  0  0
 23 28  1  0  0  0  0
 23 29  1  0  0  0  0
 24 23  1  0  0  0  0
 26 27  1  0  0  0  0
 27 21  1  0  0  0  0
 27 25  1  0  0  0  0
 29 25  1  0  0  0  0
 30  1  1  6  0  0  0
 31 36  1  0  0  0  0
 32 38  1  0  0  0  0
 33 37  1  0  0  0  0
 33 31  2  0  0  0  0
 34 31  1  0  0  0  0
 35 30  1  0  0  0  0
 35 32  1  0  0  0  0
 36 32  2  0  0  0  0
 37 35  2  0  0  0  0
 39 40  1  0  0  0  0
 41 42  1  6  0  0  0
 41 39  1  0  0  0  0
 41 40  1  0  0  0  0
 41 30  1  0  0  0  0
 43 42  1  0  0  0  0
M  END
>  <MODEL>
1

>  <REMARK>
 VINA RESULT:      -6.1      0.000      0.000
  Name = 
  12 active torsions:
  status: ('A' for Active; 'I' for Inactive)
    1  A    between atoms: C_1  and  N_34
    2  A    between atoms: C_1  and  C_35
    3  A    between atoms: C_2  and  C_27
    4  A    between atoms: C_8  and  C_30
    5  A    between atoms: C_11  and  C_22
    6  A    between atoms: C_11  and  C_36
    7  A    between atoms: C_21  and  C_30
    8  A    between atoms: C_27  and  C_30
    9  A    between atoms: O_29  and  C_31
   10  A    between atoms: O_29  and  C_36
   11  A    between atoms: C_31  and  C_40
   12  A    between atoms: N_34  and  C_38
                            x       y       z     vdW  Elec       q    Type
                         _______ _______ _______ _____ _____    ______ ____

>  <TORSDO>
F 12

$$$$
=
 OpenBabel10262422163D

 43 47  0  0  1  0  0  0  0  0999 V2000
  183.6520  177.6180  137.3660 C   0  0  0  0  0  0  0  0  0  0  0  0
  183.4640  177.8510  136.1400 O   0  0  0  0  0  0  0  0  0  0  0  0
  182.7150  178.1300  138.3380 N   0  0  0  0  0  0  0  0  0  0  0  0
  181.7740  178.2630  141.9510 O   0  0  0  0  0  0  0  0  0  0  0  0
  183.0230  178.6110  142.4660 C   0  0  0  0  0  0  0  0  0  0  0  0
  185.4880  179.2310  142.0050 C   0  0  0  0  0  2  0  0  0  0  0  0
  181.5640  178.1200  140.5440 C   0  0  2  0  0  3  0  0  0  0  0  0
  183.1340  179.0220  143.7300 C   0  0  0  0  0  3  0  0  0  0  0  0
  183.8500  178.9080  140.2470 O   0  0  0  0  0  0  0  0  0  0  0  0
  180.6630  176.9310  140.2830 C   0  0  0  0  0  1  0  0  0  0  0  0
  184.4570  179.4220  144.3090 C   0  0  2  0  0  3  0  0  0  0  0  0
  182.8990  177.9790  139.7820 C   0  0  2  0  0  3  0  0  0  0  0  0
  185.2840  180.1280  143.2340 C   0  0  0  0  0  2  0  0  0  0  0  0
  184.2150  178.5000  141.5400 C   0  0  2  0  0  3  0  0  0  0  0  0
  185.2010  178.2180  144.8710 C   0  0  0  0  0  2  0  0  0  0  0  0
  186.1150  178.6410  146.0060 C   0  0  0  0  0  2  0  0  0  0  0  0
  187.3870  178.1020  145.8110 O   0  0  0  0  0  0  0  0  0  0  0  0
  187.5880  177.2690  146.9150 C   0  0  0  0  0  2  0  0  0  0  0  0
  188.9570  178.4970  148.4350 O   0  0  0  0  0  1  0  0  0  0  0  0
  188.9820  177.4810  147.4790 C   0  0  0  0  0  2  0  0  0  0  0  0
  181.4260  178.6490  137.8940 C   0  0  0  0  0  2  0  0  0  0  0  0
  180.7270  181.6840  135.6480 C   0  0  0  0  0  2  0  0  0  0  0  0
  180.4040  182.7190  136.7310 C   0  0  0  0  0  0  0  0  0  0  0  0
  180.6960  184.0980  136.1790 C   0  0  0  0  0  1  0  0  0  0  0  0
  181.1840  181.0560  138.4810 C   0  0  0  0  0  2  0  0  0  0  0  0
  180.6310  180.2540  136.1820 C   0  0  0  0  0  2  0  0  0  0  0  0
  181.5600  180.0710  137.3760 C   0  0  0  0  0  3  0  0  0  0  0  0
  178.9310  182.6580  137.1050 C   0  0  0  0  0  1  0  0  0  0  0  0
  181.2790  182.4960  137.9690 C   0  0  0  0  0  2  0  0  0  0  0  0
  184.8450  176.7890  137.7780 C   0  0  1  0  0  3  0  0  0  0  0  0
  184.8400  172.8280  136.0540 C   0  0  0  0  0  0  0  0  0  0  0  0
  183.7780  174.5050  137.4510 C   0  0  0  0  0  0  0  0  0  0  0  0
  185.8960  173.7030  135.7980 C   0  0  0  0  0  3  0  0  0  0  0  0
  184.8420  171.2260  135.3480 Cl  0  0  0  0  0  0  0  0  0  0  0  0
  184.8300  175.4060  137.1730 C   0  0  0  0  0  0  0  0  0  0  0  0
  183.7870  173.2270  136.8830 C   0  0  0  0  0  3  0  0  0  0  0  0
  185.8910  174.9840  136.3550 C   0  0  0  0  0  3  0  0  0  0  0  0
  182.6670  174.8620  138.3790 C   0  0  0  0  0  1  0  0  0  0  0  0
  186.1560  178.8190  138.0810 O   0  0  0  0  0  0  0  0  0  0  0  0
  186.9300  177.8920  138.8090 C   0  0  0  0  0  2  0  0  0  0  0  0
  186.1930  177.5040  137.5900 C   0  0  1  0  0  0  0  0  0  0  0  0
  187.0020  177.4140  136.3020 C   0  0  0  0  0  2  0  0  0  0  0  0
  186.4520  178.2400  135.3250 O   0  0  0  0  0  1  0  0  0  0  0  0
  1  3  1  0  0  0  0
  2  1  2  0  0  0  0
  4  5  1  0  0  0  0
  5  8  2  0  0  0  0
  6 13  1  0  0  0  0
  7 10  1  1  0  0  0
  7  4  1  0  0  0  0
  8 11  1  0  0  0  0
  9 14  1  0  0  0  0
 11 15  1  6  0  0  0
 12  3  1  6  0  0  0
 12  9  1  0  0  0  0
 12  7  1  0  0  0  0
 13 11  1  0  0  0  0
 14  6  1  1  0  0  0
 14  5  1  0  0  0  0
 15 16  1  0  0  0  0
 17 16  1  0  0  0  0
 17 18  1  0  0  0  0
 18 20  1  0  0  0  0
 20 19  1  0  0  0  0
 21  3  1  0  0  0  0
 22 26  1  0  0  0  0
 22 23  1  0  0  0  0
 23 28  1  0  0  0  0
 23 29  1  0  0  0  0
 24 23  1  0  0  0  0
 26 27  1  0  0  0  0
 27 21  1  0  0  0  0
 27 25  1  0  0  0  0
 29 25  1  0  0  0  0
 30  1  1  6  0  0  0
 31 36  1  0  0  0  0
 32 38  1  0  0  0  0
 33 31  2  0  0  0  0
 33 37  1  0  0  0  0
 34 31  1  0  0  0  0
 35 32  1  0  0  0  0
 35 30  1  0  0  0  0
 36 32  2  0  0  0  0
 37 35  2  0  0  0  0
 39 40  1  0  0  0  0
 41 42  1  6  0  0  0
 41 30  1  0  0  0  0
 41 39  1  0  0  0  0
 41 40  1  0  0  0  0
 43 42  1  0  0  0  0
M  END
>  <MODEL>
2

>  <REMARK>
 VINA RESULT:      -5.8      1.939      2.521
  Name = 
  12 active torsions:
  status: ('A' for Active; 'I' for Inactive)
    1  A    between atoms: C_1  and  N_34
    2  A    between atoms: C_1  and  C_35
    3  A    between atoms: C_2  and  C_27
    4  A    between atoms: C_8  and  C_30
    5  A    between atoms: C_11  and  C_22
    6  A    between atoms: C_11  and  C_36
    7  A    between atoms: C_21  and  C_30
    8  A    between atoms: C_27  and  C_30
    9  A    between atoms: O_29  and  C_31
   10  A    between atoms: O_29  and  C_36
   11  A    between atoms: C_31  and  C_40
   12  A    between atoms: N_34  and  C_38
                            x       y       z     vdW  Elec       q    Type
                         _______ _______ _______ _____ _____    ______ ____

>  <TORSDO>
F 12

$$$$
=
 OpenBabel10262422163D

 43 47  0  0  1  0  0  0  0  0999 V2000
  186.5800  177.7960  137.5800 C   0  0  0  0  0  0  0  0  0  0  0  0
  185.9560  178.2230  136.5690 O   0  0  0  0  0  0  0  0  0  0  0  0
  186.2110  178.2690  138.8930 N   0  0  0  0  0  0  0  0  0  0  0  0
  187.4330  178.6150  142.4070 O   0  0  0  0  0  0  0  0  0  0  0  0
  188.6850  178.0220  142.2380 C   0  0  0  0  0  0  0  0  0  0  0  0
  190.4030  176.9510  140.6360 C   0  0  0  0  0  2  0  0  0  0  0  0
  186.5360  178.7820  141.3060 C   0  0  2  0  0  3  0  0  0  0  0  0
  189.6110  178.1360  143.1900 C   0  0  0  0  0  3  0  0  0  0  0  0
  188.3210  177.9370  139.8810 O   0  0  0  0  0  0  0  0  0  0  0  0
  185.1200  178.4870  141.7550 C   0  0  0  0  0  1  0  0  0  0  0  0
  190.9730  177.5290  143.0330 C   0  0  2  0  0  3  0  0  0  0  0  0
  186.9320  177.8910  140.1090 C   0  0  2  0  0  3  0  0  0  0  0  0
  191.4070  177.6390  141.5710 C   0  0  0  0  0  2  0  0  0  0  0  0
  188.9300  177.2630  140.9520 C   0  0  2  0  0  3  0  0  0  0  0  0
  190.9890  176.0810  143.5030 C   0  0  0  0  0  2  0  0  0  0  0  0
  191.7070  175.9630  144.8350 C   0  0  0  0  0  2  0  0  0  0  0  0
  191.5620  177.1490  145.5550 O   0  0  0  0  0  0  0  0  0  0  0  0
  191.2190  176.7370  146.8450 C   0  0  0  0  0  2  0  0  0  0  0  0
  193.0750  176.0010  148.1520 O   0  0  0  0  0  1  0  0  0  0  0  0
  192.0900  175.5660  147.2640 C   0  0  0  0  0  2  0  0  0  0  0  0
  184.9580  178.9930  139.0740 C   0  0  0  0  0  2  0  0  0  0  0  0
  182.4440  176.1620  138.4340 C   0  0  0  0  0  2  0  0  0  0  0  0
  181.1440  176.9730  138.4930 C   0  0  0  0  0  0  0  0  0  0  0  0
  180.0900  176.2480  137.6840 C   0  0  0  0  0  1  0  0  0  0  0  0
  182.5310  179.0970  138.5290 C   0  0  0  0  0  2  0  0  0  0  0  0
  183.6110  176.9130  139.0760 C   0  0  0  0  0  2  0  0  0  0  0  0
  183.8070  178.2650  138.4020 C   0  0  0  0  0  3  0  0  0  0  0  0
  180.6500  177.0860  139.9270 C   0  0  0  0  0  1  0  0  0  0  0  0
  181.3490  178.3660  137.8870 C   0  0  0  0  0  2  0  0  0  0  0  0
  187.6820  176.7830  137.3840 C   0  0  1  0  0  3  0  0  0  0  0  0
  186.1740  172.9090  136.2100 C   0  0  0  0  0  0  0  0  0  0  0  0
  187.9910  174.2820  137.0520 C   0  0  0  0  0  0  0  0  0  0  0  0
  185.3590  174.0380  136.1140 C   0  0  0  0  0  3  0  0  0  0  0  0
  185.5550  171.3420  135.7380 Cl  0  0  0  0  0  0  0  0  0  0  0  0
  187.1610  175.4240  136.9840 C   0  0  0  0  0  0  0  0  0  0  0  0
  187.4880  173.0330  136.6730 C   0  0  0  0  0  3  0  0  0  0  0  0
  185.8510  175.2870  136.4980 C   0  0  0  0  0  3  0  0  0  0  0  0
  189.4160  174.3750  137.4770 C   0  0  0  0  0  1  0  0  0  0  0  0
  189.2410  178.5680  136.8190 O   0  0  0  0  0  0  0  0  0  0  0  0
  190.1350  177.5150  137.1050 C   0  0  0  0  0  2  0  0  0  0  0  0
  188.8220  177.2730  136.4750 C   0  0  1  0  0  0  0  0  0  0  0  0
  188.8150  177.0750  134.9640 C   0  0  0  0  0  2  0  0  0  0  0  0
  189.7660  176.1270  134.5950 O   0  0  0  0  0  1  0  0  0  0  0  0
  1  3  1  0  0  0  0
  2  1  2  0  0  0  0
  3 21  1  0  0  0  0
  5  4  1  0  0  0  0
  5  8  2  0  0  0  0
  6 13  1  0  0  0  0
  7 10  1  1  0  0  0
  7  4  1  0  0  0  0
  9 12  1  0  0  0  0
  9 14  1  0  0  0  0
 11  8  1  0  0  0  0
 11 15  1  6  0  0  0
 12  3  1  6  0  0  0
 12  7  1  0  0  0  0
 13 11  1  0  0  0  0
 14  6  1  6  0  0  0
 14  5  1  0  0  0  0
 15 16  1  0  0  0  0
 16 17  1  0  0  0  0
 17 18  1  0  0  0  0
 18 20  1  0  0  0  0
 20 19  1  0  0  0  0
 22 23  1  0  0  0  0
 22 26  1  0  0  0  0
 23 28  1  0  0  0  0
 24 23  1  0  0  0  0
 27 25  1  0  0  0  0
 27 21  1  0  0  0  0
 27 26  1  0  0  0  0
 29 23  1  0  0  0  0
 29 25  1  0  0  0  0
 30  1  1  6  0  0  0
 31 36  1  0  0  0  0
 32 38  1  0  0  0  0
 33 31  2  0  0  0  0
 33 37  1  0  0  0  0
 34 31  1  0  0  0  0
 35 32  1  0  0  0  0
 35 30  1  0  0  0  0
 36 32  2  0  0  0  0
 37 35  2  0  0  0  0
 39 40  1  0  0  0  0
 41 42  1  6  0  0  0
 41 39  1  0  0  0  0
 41 40  1  0  0  0  0
 41 30  1  0  0  0  0
 43 42  1  0  0  0  0
M  END
>  <MODEL>
3

>  <REMARK>
 VINA RESULT:      -5.2      3.437      5.745
  Name = 
  12 active torsions:
  status: ('A' for Active; 'I' for Inactive)
    1  A    between atoms: C_1  and  N_34
    2  A    between atoms: C_1  and  C_35
    3  A    between atoms: C_2  and  C_27
    4  A    between atoms: C_8  and  C_30
    5  A    between atoms: C_11  and  C_22
    6  A    between atoms: C_11  and  C_36
    7  A    between atoms: C_21  and  C_30
    8  A    between atoms: C_27  and  C_30
    9  A    between atoms: O_29  and  C_31
   10  A    between atoms: O_29  and  C_36
   11  A    between atoms: C_31  and  C_40
   12  A    between atoms: N_34  and  C_38
                            x       y       z     vdW  Elec       q    Type
                         _______ _______ _______ _____ _____    ______ ____

>  <TORSDO>
F 12

$$$$
=
 OpenBabel10262422163D

 43 47  0  0  1  0  0  0  0  0999 V2000
  188.6100  177.0580  137.8860 C   0  0  0  0  0  0  0  0  0  0  0  0
  187.6570  177.8740  138.0230 O   0  0  0  0  0  0  0  0  0  0  0  0
  189.7640  177.1630  138.7480 N   0  0  0  0  0  0  0  0  0  0  0  0
  193.4010  176.3680  138.4270 O   0  0  0  0  0  0  0  0  0  0  0  0
  193.2860  175.2660  137.5780 C   0  0  0  0  0  0  0  0  0  0  0  0
  191.7530  173.7230  136.1870 C   0  0  0  0  0  2  0  0  0  0  0  0
  192.2490  177.1080  138.8440 C   0  0  2  0  0  3  0  0  0  0  0  0
  194.3670  174.7750  136.9720 C   0  0  0  0  0  3  0  0  0  0  0  0
  190.9520  175.7010  137.3370 O   0  0  0  0  0  0  0  0  0  0  0  0
  192.3920  177.4880  140.3030 C   0  0  0  0  0  1  0  0  0  0  0  0
  194.2770  173.6050  136.0400 C   0  0  2  0  0  3  0  0  0  0  0  0
  190.9470  176.3140  138.6050 C   0  0  2  0  0  3  0  0  0  0  0  0
  192.9690  173.6900  135.2520 C   0  0  0  0  0  2  0  0  0  0  0  0
  191.9070  174.6720  137.3880 C   0  0  2  0  0  3  0  0  0  0  0  0
  194.3770  172.2870  136.7960 C   0  0  0  0  0  2  0  0  0  0  0  0
  195.6290  172.2610  137.6530 C   0  0  0  0  0  2  0  0  0  0  0  0
  196.7590  172.2250  136.8360 O   0  0  0  0  0  0  0  0  0  0  0  0
  197.6790  173.0630  137.4700 C   0  0  0  0  0  2  0  0  0  0  0  0
  197.7660  175.4440  137.3470 O   0  0  0  0  0  1  0  0  0  0  0  0
  197.9570  174.2790  136.6040 C   0  0  0  0  0  2  0  0  0  0  0  0
  189.7000  178.0010  139.9400 C   0  0  0  0  0  2  0  0  0  0  0  0
  188.6300  176.1310  143.1170 C   0  0  0  0  0  2  0  0  0  0  0  0
  187.7300  177.2040  143.7400 C   0  0  0  0  0  0  0  0  0  0  0  0
  186.7250  176.5220  144.6430 C   0  0  0  0  0  1  0  0  0  0  0  0
  187.9100  178.5320  141.5860 C   0  0  0  0  0  2  0  0  0  0  0  0
  189.5600  176.7160  142.0540 C   0  0  0  0  0  2  0  0  0  0  0  0
  188.7490  177.4150  140.9680 C   0  0  0  0  0  3  0  0  0  0  0  0
  188.5530  178.1660  144.5850 C   0  0  0  0  0  1  0  0  0  0  0  0
  186.9680  177.9670  142.6520 C   0  0  0  0  0  2  0  0  0  0  0  0
  188.5030  175.9790  136.8350 C   0  0  1  0  0  3  0  0  0  0  0  0
  185.0540  173.4390  137.3920 C   0  0  0  0  0  0  0  0  0  0  0  0
  187.4460  173.6780  137.0510 C   0  0  0  0  0  0  0  0  0  0  0  0
  184.9050  174.8260  137.3510 C   0  0  0  0  0  3  0  0  0  0  0  0
  183.6530  172.4160  137.6240 Cl  0  0  0  0  0  0  0  0  0  0  0  0
  187.3050  175.0840  137.0370 C   0  0  0  0  0  0  0  0  0  0  0  0
  186.3210  172.8680  137.2370 C   0  0  0  0  0  3  0  0  0  0  0  0
  186.0240  175.6420  137.1750 C   0  0  0  0  0  3  0  0  0  0  0  0
  188.7650  173.0220  136.8260 C   0  0  0  0  0  1  0  0  0  0  0  0
  189.7100  177.3680  135.2380 O   0  0  0  0  0  0  0  0  0  0  0  0
  189.8070  176.1050  134.6180 C   0  0  0  0  0  2  0  0  0  0  0  0
  188.6150  176.5030  135.3940 C   0  0  1  0  0  0  0  0  0  0  0  0
  187.4100  176.9850  134.5950 C   0  0  0  0  0  2  0  0  0  0  0  0
  187.0440  178.2670  134.9950 O   0  0  0  0  0  1  0  0  0  0  0  0
  1  2  2  0  0  0  0
  1  3  1  0  0  0  0
  3 21  1  0  0  0  0
  4  7  1  0  0  0  0
  5  4  1  0  0  0  0
  7 10  1  1  0  0  0
  8  5  2  0  0  0  0
  9 14  1  0  0  0  0
  9 12  1  0  0  0  0
 11 15  1  1  0  0  0
 11  8  1  0  0  0  0
 12  3  1  6  0  0  0
 12  7  1  0  0  0  0
 13 11  1  0  0  0  0
 13  6  1  0  0  0  0
 14  6  1  6  0  0  0
 14  5  1  0  0  0  0
 15 16  1  0  0  0  0
 17 18  1  0  0  0  0
 17 16  1  0  0  0  0
 20 19  1  0  0  0  0
 20 18  1  0  0  0  0
 21 27  1  0  0  0  0
 22 23  1  0  0  0  0
 23 28  1  0  0  0  0
 23 24  1  0  0  0  0
 25 29  1  0  0  0  0
 26 22  1  0  0  0  0
 27 25  1  0  0  0  0
 27 26  1  0  0  0  0
 29 23  1  0  0  0  0
 30 35  1  0  0  0  0
 30  1  1  1  0  0  0
 31 34  1  0  0  0  0
 32 36  1  0  0  0  0
 33 31  1  0  0  0  0
 35 32  2  0  0  0  0
 35 37  1  0  0  0  0
 36 31  2  0  0  0  0
 37 33  2  0  0  0  0
 38 32  1  0  0  0  0
 39 41  1  0  0  0  0
 40 39  1  0  0  0  0
 40 41  1  0  0  0  0
 41 42  1  6  0  0  0
 41 30  1  0  0  0  0
 42 43  1  0  0  0  0
M  END
>  <MODEL>
4

>  <REMARK>
 VINA RESULT:      -5.2      6.762      9.844
  Name = 
  12 active torsions:
  status: ('A' for Active; 'I' for Inactive)
    1  A    between atoms: C_1  and  N_34
    2  A    between atoms: C_1  and  C_35
    3  A    between atoms: C_2  and  C_27
    4  A    between atoms: C_8  and  C_30
    5  A    between atoms: C_11  and  C_22
    6  A    between atoms: C_11  and  C_36
    7  A    between atoms: C_21  and  C_30
    8  A    between atoms: C_27  and  C_30
    9  A    between atoms: O_29  and  C_31
   10  A    between atoms: O_29  and  C_36
   11  A    between atoms: C_31  and  C_40
   12  A    between atoms: N_34  and  C_38
                            x       y       z     vdW  Elec       q    Type
                         _______ _______ _______ _____ _____    ______ ____

>  <TORSDO>
F 12

$$$$
=
 OpenBabel10262422163D

 43 47  0  0  1  0  0  0  0  0999 V2000
  186.2770  177.0830  137.8740 C   0  0  0  0  0  0  0  0  0  0  0  0
  185.1730  177.4640  138.3520 O   0  0  0  0  0  0  0  0  0  0  0  0
  187.5030  177.4320  138.5540 N   0  0  0  0  0  0  0  0  0  0  0  0
  190.3350  177.4700  136.1170 O   0  0  0  0  0  0  0  0  0  0  0  0
  190.7920  176.1690  136.3280 C   0  0  0  0  0  0  0  0  0  0  0  0
  190.4810  173.9050  137.5320 C   0  0  0  0  0  2  0  0  0  0  0  0
  189.1860  177.9740  136.8040 C   0  0  2  0  0  3  0  0  0  0  0  0
  191.6660  175.6230  135.4820 C   0  0  0  0  0  3  0  0  0  0  0  0
  188.8990  175.7330  137.7140 O   0  0  0  0  0  0  0  0  0  0  0  0
  189.4300  179.4120  137.2140 C   0  0  0  0  0  1  0  0  0  0  0  0
  192.1630  174.2210  135.6670 C   0  0  2  0  0  3  0  0  0  0  0  0
  188.8280  177.1040  138.0280 C   0  0  2  0  0  3  0  0  0  0  0  0
  191.0270  173.3520  136.2090 C   0  0  0  0  0  2  0  0  0  0  0  0
  190.2580  175.4280  137.5350 C   0  0  2  0  0  3  0  0  0  0  0  0
  193.3720  174.1810  136.5920 C   0  0  0  0  0  2  0  0  0  0  0  0
  194.2450  175.4040  136.3780 C   0  0  0  0  0  2  0  0  0  0  0  0
  195.3260  175.3700  137.2590 O   0  0  0  0  0  0  0  0  0  0  0  0
  196.2840  174.5870  136.6110 C   0  0  0  0  0  2  0  0  0  0  0  0
  198.0180  175.3430  138.0650 O   0  0  0  0  0  1  0  0  0  0  0  0
  197.3820  174.1980  137.5840 C   0  0  0  0  0  2  0  0  0  0  0  0
  187.4500  177.9540  139.9150 C   0  0  0  0  0  2  0  0  0  0  0  0
  190.7970  177.2520  141.6600 C   0  0  0  0  0  2  0  0  0  0  0  0
  190.3070  177.1880  143.1110 C   0  0  0  0  0  0  0  0  0  0  0  0
  191.2730  176.3370  143.9070 C   0  0  0  0  0  1  0  0  0  0  0  0
  187.9200  177.2360  142.2520 C   0  0  0  0  0  2  0  0  0  0  0  0
  189.7830  177.9440  140.7480 C   0  0  0  0  0  2  0  0  0  0  0  0
  188.4380  177.2320  140.8150 C   0  0  0  0  0  3  0  0  0  0  0  0
  190.2780  178.5790  143.7270 C   0  0  0  0  0  1  0  0  0  0  0  0
  188.9180  176.5430  143.1830 C   0  0  0  0  0  2  0  0  0  0  0  0
  186.2810  176.2540  136.6120 C   0  0  1  0  0  3  0  0  0  0  0  0
  184.0020  172.6060  137.0090 C   0  0  0  0  0  0  0  0  0  0  0  0
  186.0040  173.7530  136.2550 C   0  0  0  0  0  0  0  0  0  0  0  0
  183.4830  173.8120  137.4790 C   0  0  0  0  0  3  0  0  0  0  0  0
  183.0760  171.1300  137.1790 Cl  0  0  0  0  0  0  0  0  0  0  0  0
  185.4960  174.9730  136.7540 C   0  0  0  0  0  0  0  0  0  0  0  0
  185.2580  172.5780  136.3940 C   0  0  0  0  0  3  0  0  0  0  0  0
  184.2260  174.9880  137.3520 C   0  0  0  0  0  3  0  0  0  0  0  0
  187.3080  173.6850  135.5350 C   0  0  0  0  0  1  0  0  0  0  0  0
  186.1820  178.4140  135.4890 O   0  0  0  0  0  0  0  0  0  0  0  0
  187.0000  177.6880  134.5980 C   0  0  0  0  0  2  0  0  0  0  0  0
  185.9030  177.0450  135.3490 C   0  0  1  0  0  0  0  0  0  0  0  0
  184.6000  176.8190  134.5940 C   0  0  0  0  0  2  0  0  0  0  0  0
  183.5700  177.5560  135.1710 O   0  0  0  0  0  1  0  0  0  0  0  0
  1  2  2  0  0  0  0
  1  3  1  0  0  0  0
  3 21  1  0  0  0  0
  4  5  1  0  0  0  0
  4  7  1  0  0  0  0
  5 14  1  0  0  0  0
  7 10  1  1  0  0  0
  7 12  1  0  0  0  0
  8 11  1  0  0  0  0
  8  5  2  0  0  0  0
  9 12  1  0  0  0  0
 11 13  1  0  0  0  0
 11 15  1  1  0  0  0
 12  3  1  6  0  0  0
 13  6  1  0  0  0  0
 14  6  1  6  0  0  0
 14  9  1  0  0  0  0
 16 15  1  0  0  0  0
 16 17  1  0  0  0  0
 18 17  1  0  0  0  0
 18 20  1  0  0  0  0
 20 19  1  0  0  0  0
 21 27  1  0  0  0  0
 22 23  1  0  0  0  0
 23 29  1  0  0  0  0
 23 28  1  0  0  0  0
 23 24  1  0  0  0  0
 25 29  1  0  0  0  0
 26 27  1  0  0  0  0
 26 22  1  0  0  0  0
 27 25  1  0  0  0  0
 30 35  1  0  0  0  0
 30  1  1  1  0  0  0
 31 34  1  0  0  0  0
 31 33  1  0  0  0  0
 32 36  1  0  0  0  0
 32 35  2  0  0  0  0
 35 37  1  0  0  0  0
 36 31  2  0  0  0  0
 37 33  2  0  0  0  0
 38 32  1  0  0  0  0
 40 41  1  0  0  0  0
 40 39  1  0  0  0  0
 41 42  1  6  0  0  0
 41 39  1  0  0  0  0
 41 30  1  0  0  0  0
 42 43  1  0  0  0  0
M  END
>  <MODEL>
5

>  <REMARK>
 VINA RESULT:      -4.9      5.607      8.910
  Name = 
  12 active torsions:
  status: ('A' for Active; 'I' for Inactive)
    1  A    between atoms: C_1  and  N_34
    2  A    between atoms: C_1  and  C_35
    3  A    between atoms: C_2  and  C_27
    4  A    between atoms: C_8  and  C_30
    5  A    between atoms: C_11  and  C_22
    6  A    between atoms: C_11  and  C_36
    7  A    between atoms: C_21  and  C_30
    8  A    between atoms: C_27  and  C_30
    9  A    between atoms: O_29  and  C_31
   10  A    between atoms: O_29  and  C_36
   11  A    between atoms: C_31  and  C_40
   12  A    between atoms: N_34  and  C_38
                            x       y       z     vdW  Elec       q    Type
                         _______ _______ _______ _____ _____    ______ ____

>  <TORSDO>
F 12

$$$$
=
 OpenBabel10262422163D

 43 47  0  0  1  0  0  0  0  0999 V2000
  187.6460  175.5120  136.3190 C   0  0  0  0  0  0  0  0  0  0  0  0
  187.9820  175.1320  135.1630 O   0  0  0  0  0  0  0  0  0  0  0  0
  188.5440  176.3480  137.0800 N   0  0  0  0  0  0  0  0  0  0  0  0
  187.7420  178.7210  139.8520 O   0  0  0  0  0  0  0  0  0  0  0  0
  188.4980  178.1130  140.8550 C   0  0  0  0  0  0  0  0  0  0  0  0
  190.1450  176.2400  141.5260 C   0  0  0  0  0  2  0  0  0  0  0  0
  187.7330  178.2110  138.5160 C   0  0  2  0  0  3  0  0  0  0  0  0
  188.7270  178.7550  142.0010 C   0  0  0  0  0  3  0  0  0  0  0  0
  189.4330  176.6240  139.2410 O   0  0  0  0  0  0  0  0  0  0  0  0
  186.3300  178.2890  137.9520 C   0  0  0  0  0  1  0  0  0  0  0  0
  189.5510  178.1390  143.0910 C   0  0  2  0  0  3  0  0  0  0  0  0
  188.2730  176.7660  138.4560 C   0  0  2  0  0  3  0  0  0  0  0  0
  190.6850  177.3260  142.4670 C   0  0  0  0  0  2  0  0  0  0  0  0
  189.0290  176.7220  140.5820 C   0  0  2  0  0  3  0  0  0  0  0  0
  188.6960  177.2730  144.0070 C   0  0  0  0  0  2  0  0  0  0  0  0
  188.6600  177.8560  145.4080 C   0  0  0  0  0  2  0  0  0  0  0  0
  189.9040  177.6890  146.0190 O   0  0  0  0  0  0  0  0  0  0  0  0
  189.6040  177.3810  147.3480 C   0  0  0  0  0  2  0  0  0  0  0  0
  187.9000  177.6790  148.9920 O   0  0  0  0  0  1  0  0  0  0  0  0
  188.1290  177.6210  147.6160 C   0  0  0  0  0  2  0  0  0  0  0  0
  189.6770  176.9820  136.4150 C   0  0  0  0  0  2  0  0  0  0  0  0
  193.1930  175.6700  135.6020 C   0  0  0  0  0  2  0  0  0  0  0  0
  193.2930  174.5690  136.6630 C   0  0  0  0  0  0  0  0  0  0  0  0
  194.2760  173.5250  136.1800 C   0  0  0  0  0  1  0  0  0  0  0  0
  190.8340  174.9160  137.1820 C   0  0  0  0  0  2  0  0  0  0  0  0
  192.0870  176.6750  135.9290 C   0  0  0  0  0  2  0  0  0  0  0  0
  190.7480  175.9610  136.0720 C   0  0  0  0  0  3  0  0  0  0  0  0
  193.8100  175.1380  137.9760 C   0  0  0  0  0  1  0  0  0  0  0  0
  191.9330  173.8950  136.8730 C   0  0  0  0  0  2  0  0  0  0  0  0
  186.3010  175.0940  136.8630 C   0  0  1  0  0  3  0  0  0  0  0  0
  183.0700  177.5090  135.3170 C   0  0  0  0  0  0  0  0  0  0  0  0
  183.9560  176.0570  137.0490 C   0  0  0  0  0  0  0  0  0  0  0  0
  184.2560  177.3770  134.5940 C   0  0  0  0  0  3  0  0  0  0  0  0
  181.7670  178.4930  134.6880 Cl  0  0  0  0  0  0  0  0  0  0  0  0
  185.1700  175.9420  136.3350 C   0  0  0  0  0  0  0  0  0  0  0  0
  182.9200  176.8460  136.5400 C   0  0  0  0  0  3  0  0  0  0  0  0
  185.2980  176.5980  135.1010 C   0  0  0  0  0  3  0  0  0  0  0  0
  183.7250  175.3180  138.3230 C   0  0  0  0  0  1  0  0  0  0  0  0
  187.1270  172.8190  137.1350 O   0  0  0  0  0  0  0  0  0  0  0  0
  186.0030  172.7970  137.9860 C   0  0  0  0  0  2  0  0  0  0  0  0
  186.0210  173.5880  136.7390 C   0  0  1  0  0  0  0  0  0  0  0  0
  185.3220  172.9760  135.5320 C   0  0  0  0  0  2  0  0  0  0  0  0
  186.2430  172.3200  134.7190 O   0  0  0  0  0  1  0  0  0  0  0  0
  1  3  1  0  0  0  0
  2  1  2  0  0  0  0
  4  5  1  0  0  0  0
  5  8  2  0  0  0  0
  6 13  1  0  0  0  0
  7 10  1  1  0  0  0
  7  4  1  0  0  0  0
  8 11  1  0  0  0  0
  9 14  1  0  0  0  0
 11 15  1  6  0  0  0
 12  3  1  6  0  0  0
 12  7  1  0  0  0  0
 12  9  1  0  0  0  0
 13 11  1  0  0  0  0
 14  5  1  0  0  0  0
 14  6  1  1  0  0  0
 15 16  1  0  0  0  0
 16 17  1  0  0  0  0
 17 18  1  0  0  0  0
 18 20  1  0  0  0  0
 20 19  1  0  0  0  0
 21  3  1  0  0  0  0
 22 26  1  0  0  0  0
 22 23  1  0  0  0  0
 23 29  1  0  0  0  0
 23 28  1  0  0  0  0
 24 23  1  0  0  0  0
 26 27  1  0  0  0  0
 27 21  1  0  0  0  0
 27 25  1  0  0  0  0
 29 25  1  0  0  0  0
 30  1  1  6  0  0  0
 31 36  1  0  0  0  0
 32 38  1  0  0  0  0
 33 37  1  0  0  0  0
 33 31  2  0  0  0  0
 34 31  1  0  0  0  0
 35 30  1  0  0  0  0
 35 32  1  0  0  0  0
 36 32  2  0  0  0  0
 37 35  2  0  0  0  0
 39 40  1  0  0  0  0
 41 42  1  6  0  0  0
 41 30  1  0  0  0  0
 41 39  1  0  0  0  0
 41 40  1  0  0  0  0
 43 42  1  0  0  0  0
M  END
>  <MODEL>
6

>  <REMARK>
 VINA RESULT:      -4.8      4.739      7.955
  Name = 
  12 active torsions:
  status: ('A' for Active; 'I' for Inactive)
    1  A    between atoms: C_1  and  N_34
    2  A    between atoms: C_1  and  C_35
    3  A    between atoms: C_2  and  C_27
    4  A    between atoms: C_8  and  C_30
    5  A    between atoms: C_11  and  C_22
    6  A    between atoms: C_11  and  C_36
    7  A    between atoms: C_21  and  C_30
    8  A    between atoms: C_27  and  C_30
    9  A    between atoms: O_29  and  C_31
   10  A    between atoms: O_29  and  C_36
   11  A    between atoms: C_31  and  C_40
   12  A    between atoms: N_34  and  C_38
                            x       y       z     vdW  Elec       q    Type
                         _______ _______ _______ _____ _____    ______ ____

>  <TORSDO>
F 12

$$$$
=
 OpenBabel10262422163D

 43 47  0  0  1  0  0  0  0  0999 V2000
  180.9100  178.5900  137.5000 C   0  0  0  0  0  0  0  0  0  0  0  0
  180.3360  179.0990  136.4980 O   0  0  0  0  0  0  0  0  0  0  0  0
  181.0090  179.3500  138.7240 N   0  0  0  0  0  0  0  0  0  0  0  0
  181.7730  178.9820  142.3630 O   0  0  0  0  0  0  0  0  0  0  0  0
  183.1630  178.9030  142.2640 C   0  0  0  0  0  0  0  0  0  0  0  0
  185.2600  178.9800  140.7580 C   0  0  0  0  0  2  0  0  0  0  0  0
  180.9560  179.1800  141.2050 C   0  0  2  0  0  3  0  0  0  0  0  0
  183.9170  179.0120  143.3570 C   0  0  0  0  0  3  0  0  0  0  0  0
  183.0220  179.4270  139.9400 O   0  0  0  0  0  0  0  0  0  0  0  0
  179.7100  178.3240  141.3110 C   0  0  0  0  0  1  0  0  0  0  0  0
  185.4130  178.9520  143.2850 C   0  0  2  0  0  3  0  0  0  0  0  0
  181.7280  178.8720  139.9050 C   0  0  2  0  0  3  0  0  0  0  0  0
  185.8820  179.6340  141.9990 C   0  0  0  0  0  2  0  0  0  0  0  0
  183.7530  178.6910  140.8860 C   0  0  2  0  0  3  0  0  0  0  0  0
  185.9120  177.5150  143.3560 C   0  0  0  0  0  2  0  0  0  0  0  0
  187.3790  177.4420  142.9760 C   0  0  0  0  0  2  0  0  0  0  0  0
  187.8850  176.1800  143.2890 O   0  0  0  0  0  0  0  0  0  0  0  0
  189.2650  176.3710  143.3960 C   0  0  0  0  0  2  0  0  0  0  0  0
  190.6690  178.1820  144.0590 O   0  0  0  0  0  1  0  0  0  0  0  0
  189.5620  177.4260  144.4470 C   0  0  0  0  0  2  0  0  0  0  0  0
  180.2050  180.5550  138.8920 C   0  0  0  0  0  2  0  0  0  0  0  0
  179.4750  183.2340  136.2390 C   0  0  0  0  0  2  0  0  0  0  0  0
  180.4330  184.3260  136.7260 C   0  0  0  0  0  0  0  0  0  0  0  0
  180.7930  185.2080  135.5500 C   0  0  0  0  0  1  0  0  0  0  0  0
  181.4290  182.6550  138.3550 C   0  0  0  0  0  2  0  0  0  0  0  0
  179.2010  182.1920  137.3250 C   0  0  0  0  0  2  0  0  0  0  0  0
  180.5080  181.5690  137.8020 C   0  0  0  0  0  3  0  0  0  0  0  0
  179.7620  185.1920  137.7830 C   0  0  0  0  0  1  0  0  0  0  0  0
  181.7200  183.7070  137.2820 C   0  0  0  0  0  2  0  0  0  0  0  0
  181.4610  177.1890  137.3920 C   0  0  1  0  0  3  0  0  0  0  0  0
  179.7850  174.5060  140.3340 C   0  0  0  0  0  0  0  0  0  0  0  0
  181.7280  175.4590  139.2360 C   0  0  0  0  0  0  0  0  0  0  0  0
  178.9460  175.2680  139.5200 C   0  0  0  0  0  3  0  0  0  0  0  0
  179.0990  173.4250  141.5280 Cl  0  0  0  0  0  0  0  0  0  0  0  0
  180.8850  176.2550  138.4290 C   0  0  0  0  0  0  0  0  0  0  0  0
  181.1730  174.5980  140.1880 C   0  0  0  0  0  3  0  0  0  0  0  0
  179.4930  176.1370  138.5740 C   0  0  0  0  0  3  0  0  0  0  0  0
  183.2100  175.4760  139.0720 C   0  0  0  0  0  1  0  0  0  0  0  0
  181.8670  177.5230  135.0140 O   0  0  0  0  0  0  0  0  0  0  0  0
  182.6860  176.4030  135.2690 C   0  0  0  0  0  2  0  0  0  0  0  0
  181.4030  176.6060  135.9710 C   0  0  1  0  0  0  0  0  0  0  0  0
  180.2080  175.8170  135.4510 C   0  0  0  0  0  2  0  0  0  0  0  0
  180.3230  174.4740  135.8000 O   0  0  0  0  0  1  0  0  0  0  0  0
  1  3  1  0  0  0  0
  2  1  2  0  0  0  0
  3 21  1  0  0  0  0
  5  4  1  0  0  0  0
  5  8  2  0  0  0  0
  6 13  1  0  0  0  0
  7 10  1  1  0  0  0
  7  4  1  0  0  0  0
  9 14  1  0  0  0  0
 11 15  1  6  0  0  0
 11  8  1  0  0  0  0
 12  3  1  6  0  0  0
 12  9  1  0  0  0  0
 12  7  1  0  0  0  0
 13 11  1  0  0  0  0
 14  6  1  1  0  0  0
 14  5  1  0  0  0  0
 16 17  1  0  0  0  0
 16 15  1  0  0  0  0
 17 18  1  0  0  0  0
 18 20  1  0  0  0  0
 19 20  1  0  0  0  0
 22 23  1  0  0  0  0
 22 26  1  0  0  0  0
 23 29  1  0  0  0  0
 23 28  1  0  0  0  0
 24 23  1  0  0  0  0
 26 27  1  0  0  0  0
 27 25  1  0  0  0  0
 27 21  1  0  0  0  0
 29 25  1  0  0  0  0
 30  1  1  6  0  0  0
 30 35  1  0  0  0  0
 31 34  1  0  0  0  0
 32 36  2  0  0  0  0
 33 31  2  0  0  0  0
 35 37  2  0  0  0  0
 35 32  1  0  0  0  0
 36 31  1  0  0  0  0
 37 33  1  0  0  0  0
 38 32  1  0  0  0  0
 39 40  1  0  0  0  0
 39 41  1  0  0  0  0
 40 41  1  0  0  0  0
 41 42  1  6  0  0  0
 41 30  1  0  0  0  0
 42 43  1  0  0  0  0
M  END
>  <MODEL>
7

>  <REMARK>
 VINA RESULT:      -4.7      1.865      2.327
  Name = 
  12 active torsions:
  status: ('A' for Active; 'I' for Inactive)
    1  A    between atoms: C_1  and  N_34
    2  A    between atoms: C_1  and  C_35
    3  A    between atoms: C_2  and  C_27
    4  A    between atoms: C_8  and  C_30
    5  A    between atoms: C_11  and  C_22
    6  A    between atoms: C_11  and  C_36
    7  A    between atoms: C_21  and  C_30
    8  A    between atoms: C_27  and  C_30
    9  A    between atoms: O_29  and  C_31
   10  A    between atoms: O_29  and  C_36
   11  A    between atoms: C_31  and  C_40
   12  A    between atoms: N_34  and  C_38
                            x       y       z     vdW  Elec       q    Type
                         _______ _______ _______ _____ _____    ______ ____

>  <TORSDO>
F 12

$$$$
=
 OpenBabel10262422163D

 43 47  0  0  1  0  0  0  0  0999 V2000
  181.6280  178.2470  137.2040 C   0  0  0  0  0  0  0  0  0  0  0  0
  181.1460  178.7190  136.1380 O   0  0  0  0  0  0  0  0  0  0  0  0
  181.4150  178.9440  138.4510 N   0  0  0  0  0  0  0  0  0  0  0  0
  181.6530  178.5030  142.1530 O   0  0  0  0  0  0  0  0  0  0  0  0
  183.0370  178.6260  142.2770 C   0  0  0  0  0  0  0  0  0  0  0  0
  185.3070  179.0760  141.1300 C   0  0  0  0  0  2  0  0  0  0  0  0
  181.0040  178.6420  140.8860 C   0  0  2  0  0  3  0  0  0  0  0  0
  183.5890  178.7850  143.4800 C   0  0  0  0  0  3  0  0  0  0  0  0
  183.1820  179.2430  139.9760 O   0  0  0  0  0  0  0  0  0  0  0  0
  179.8980  177.6150  140.7670 C   0  0  0  0  0  1  0  0  0  0  0  0
  185.0700  178.9410  143.6470 C   0  0  2  0  0  3  0  0  0  0  0  0
  182.0060  178.5130  139.7180 C   0  0  2  0  0  3  0  0  0  0  0  0
  185.6270  179.7470  142.4730 C   0  0  0  0  0  2  0  0  0  0  0  0
  183.8590  178.5710  141.0070 C   0  0  2  0  0  3  0  0  0  0  0  0
  185.7580  177.5870  143.7570 C   0  0  0  0  0  2  0  0  0  0  0  0
  186.6100  177.5250  145.0120 C   0  0  0  0  0  2  0  0  0  0  0  0
  187.9280  177.8640  144.7050 O   0  0  0  0  0  0  0  0  0  0  0  0
  188.6570  177.5060  145.8410 C   0  0  0  0  0  2  0  0  0  0  0  0
  188.3050  176.8060  148.0950 O   0  0  0  0  0  1  0  0  0  0  0  0
  187.7760  177.5970  147.0740 C   0  0  0  0  0  2  0  0  0  0  0  0
  180.4180  180.0070  138.5220 C   0  0  0  0  0  2  0  0  0  0  0  0
  179.8540  182.8080  135.9580 C   0  0  0  0  0  2  0  0  0  0  0  0
  180.4990  183.9700  136.7210 C   0  0  0  0  0  0  0  0  0  0  0  0
  180.9560  185.0080  135.7180 C   0  0  0  0  0  1  0  0  0  0  0  0
  181.3780  182.3010  138.4170 C   0  0  0  0  0  2  0  0  0  0  0  0
  179.5240  181.6350  136.8810 C   0  0  0  0  0  2  0  0  0  0  0  0
  180.7820  181.1570  137.5990 C   0  0  0  0  0  3  0  0  0  0  0  0
  179.4890  184.6220  137.6540 C   0  0  0  0  0  1  0  0  0  0  0  0
  181.7200  183.4860  137.5100 C   0  0  0  0  0  2  0  0  0  0  0  0
  182.3990  176.9500  137.1450 C   0  0  1  0  0  3  0  0  0  0  0  0
  186.6490  177.5540  136.6660 C   0  0  0  0  0  0  0  0  0  0  0  0
  184.6020  176.4410  135.9850 C   0  0  0  0  0  0  0  0  0  0  0  0
  185.9490  178.2460  137.6550 C   0  0  0  0  0  3  0  0  0  0  0  0
  188.3700  177.8080  136.4740 Cl  0  0  0  0  0  0  0  0  0  0  0  0
  183.8820  177.1600  136.9650 C   0  0  0  0  0  0  0  0  0  0  0  0
  185.9770  176.6500  135.8370 C   0  0  0  0  0  3  0  0  0  0  0  0
  184.5740  178.0500  137.8030 C   0  0  0  0  0  3  0  0  0  0  0  0
  183.9420  175.4210  135.1220 C   0  0  0  0  0  1  0  0  0  0  0  0
  183.0020  174.9300  138.3660 O   0  0  0  0  0  0  0  0  0  0  0  0
  183.0470  175.8880  139.4000 C   0  0  0  0  0  2  0  0  0  0  0  0
  182.0730  175.9800  138.2940 C   0  0  1  0  0  0  0  0  0  0  0  0
  180.6600  175.4930  138.5860 C   0  0  0  0  0  2  0  0  0  0  0  0
  180.1640  174.7650  137.5070 O   0  0  0  0  0  1  0  0  0  0  0  0
  1  3  1  0  0  0  0
  2  1  2  0  0  0  0
  3 21  1  0  0  0  0
  4  5  1  0  0  0  0
  5  8  2  0  0  0  0
  6 13  1  0  0  0  0
  7 10  1  6  0  0  0
  7  4  1  0  0  0  0
  8 11  1  0  0  0  0
  9 14  1  0  0  0  0
 11 15  1  6  0  0  0
 12  3  1  6  0  0  0
 12  9  1  0  0  0  0
 12  7  1  0  0  0  0
 13 11  1  0  0  0  0
 14  6  1  1  0  0  0
 14  5  1  0  0  0  0
 15 16  1  0  0  0  0
 17 16  1  0  0  0  0
 17 18  1  0  0  0  0
 18 20  1  0  0  0  0
 20 19  1  0  0  0  0
 22 23  1  0  0  0  0
 22 26  1  0  0  0  0
 23 29  1  0  0  0  0
 23 28  1  0  0  0  0
 24 23  1  0  0  0  0
 26 27  1  0  0  0  0
 27 25  1  0  0  0  0
 27 21  1  0  0  0  0
 29 25  1  0  0  0  0
 30  1  1  1  0  0  0
 30 41  1  0  0  0  0
 31 33  1  0  0  0  0
 32 35  2  0  0  0  0
 33 37  2  0  0  0  0
 34 31  1  0  0  0  0
 35 30  1  0  0  0  0
 35 37  1  0  0  0  0
 36 32  1  0  0  0  0
 36 31  2  0  0  0  0
 38 32  1  0  0  0  0
 39 40  1  0  0  0  0
 41 39  1  0  0  0  0
 41 42  1  1  0  0  0
 41 40  1  0  0  0  0
 43 42  1  0  0  0  0
M  END
>  <MODEL>
8

>  <REMARK>
 VINA RESULT:      -4.5      2.281      3.421
  Name = 
  12 active torsions:
  status: ('A' for Active; 'I' for Inactive)
    1  A    between atoms: C_1  and  N_34
    2  A    between atoms: C_1  and  C_35
    3  A    between atoms: C_2  and  C_27
    4  A    between atoms: C_8  and  C_30
    5  A    between atoms: C_11  and  C_22
    6  A    between atoms: C_11  and  C_36
    7  A    between atoms: C_21  and  C_30
    8  A    between atoms: C_27  and  C_30
    9  A    between atoms: O_29  and  C_31
   10  A    between atoms: O_29  and  C_36
   11  A    between atoms: C_31  and  C_40
   12  A    between atoms: N_34  and  C_38
                            x       y       z     vdW  Elec       q    Type
                         _______ _______ _______ _____ _____    ______ ____

>  <TORSDO>
F 12

$$$$
=
 OpenBabel10262422163D

 43 47  0  0  1  0  0  0  0  0999 V2000
  183.5510  178.0480  137.8110 C   0  0  0  0  0  0  0  0  0  0  0  0
  182.9820  179.0650  138.2970 O   0  0  0  0  0  0  0  0  0  0  0  0
  184.9880  177.9340  137.8880 N   0  0  0  0  0  0  0  0  0  0  0  0
  186.5500  175.9560  135.1290 O   0  0  0  0  0  0  0  0  0  0  0  0
  186.3320  174.6820  135.6550 C   0  0  0  0  0  0  0  0  0  0  0  0
  185.3160  173.2310  137.5340 C   0  0  0  0  0  2  0  0  0  0  0  0
  186.0840  177.1280  135.8050 C   0  0  2  0  0  3  0  0  0  0  0  0
  186.5070  173.6050  134.8880 C   0  0  0  0  0  3  0  0  0  0  0  0
  185.0090  175.6320  137.3990 O   0  0  0  0  0  0  0  0  0  0  0  0
  187.1280  178.2210  135.7030 C   0  0  0  0  0  1  0  0  0  0  0  0
  186.2630  172.2230  135.4140 C   0  0  2  0  0  3  0  0  0  0  0  0
  185.7350  176.8330  137.2800 C   0  0  2  0  0  3  0  0  0  0  0  0
  185.0750  172.2530  136.3760 C   0  0  0  0  0  2  0  0  0  0  0  0
  185.9000  174.5880  137.1020 C   0  0  2  0  0  3  0  0  0  0  0  0
  187.5050  171.6640  136.0940 C   0  0  0  0  0  2  0  0  0  0  0  0
  188.6830  172.6020  135.9040 C   0  0  0  0  0  2  0  0  0  0  0  0
  189.1460  173.0340  137.1480 O   0  0  0  0  0  0  0  0  0  0  0  0
  190.3530  173.6800  136.8680 C   0  0  0  0  0  2  0  0  0  0  0  0
  190.2210  175.7060  138.1220 O   0  0  0  0  0  1  0  0  0  0  0  0
  190.1410  175.1830  136.8310 C   0  0  0  0  0  2  0  0  0  0  0  0
  185.7370  178.8250  138.7670 C   0  0  0  0  0  2  0  0  0  0  0  0
  188.6140  177.2850  140.7900 C   0  0  0  0  0  2  0  0  0  0  0  0
  188.2910  177.8810  142.1640 C   0  0  0  0  0  0  0  0  0  0  0  0
  188.8720  176.9750  143.2290 C   0  0  0  0  0  1  0  0  0  0  0  0
  186.0850  178.7130  141.2290 C   0  0  0  0  0  2  0  0  0  0  0  0
  187.9110  178.0420  139.6630 C   0  0  0  0  0  2  0  0  0  0  0  0
  186.4030  178.0500  139.8900 C   0  0  0  0  0  3  0  0  0  0  0  0
  188.9260  179.2560  142.3120 C   0  0  0  0  0  1  0  0  0  0  0  0
  186.7760  177.9670  142.3740 C   0  0  0  0  0  2  0  0  0  0  0  0
  182.7040  176.9690  137.1800 C   0  0  1  0  0  3  0  0  0  0  0  0
  180.0160  175.1080  140.0040 C   0  0  0  0  0  0  0  0  0  0  0  0
  181.4190  174.9470  138.0290 C   0  0  0  0  0  0  0  0  0  0  0  0
  180.3390  176.4600  140.1290 C   0  0  0  0  0  3  0  0  0  0  0  0
  178.9310  174.3590  141.1550 Cl  0  0  0  0  0  0  0  0  0  0  0  0
  181.7720  176.3080  138.1670 C   0  0  0  0  0  0  0  0  0  0  0  0
  180.5510  174.3560  138.9530 C   0  0  0  0  0  3  0  0  0  0  0  0
  181.2120  177.0550  139.2150 C   0  0  0  0  0  3  0  0  0  0  0  0
  181.9120  174.1220  136.8900 C   0  0  0  0  0  1  0  0  0  0  0  0
  182.8910  177.9180  134.9450 O   0  0  0  0  0  0  0  0  0  0  0  0
  182.2980  176.6710  134.6550 C   0  0  0  0  0  2  0  0  0  0  0  0
  181.9880  177.4130  135.8940 C   0  0  1  0  0  0  0  0  0  0  0  0
  180.6910  178.2110  135.9060 C   0  0  0  0  0  2  0  0  0  0  0  0
  180.9530  179.5670  135.7270 O   0  0  0  0  0  1  0  0  0  0  0  0
  1  3  1  0  0  0  0
  1  2  2  0  0  0  0
  3 21  1  0  0  0  0
  4  5  1  0  0  0  0
  4  7  1  0  0  0  0
  5 14  1  0  0  0  0
  7 10  1  1  0  0  0
  7 12  1  0  0  0  0
  8 11  1  0  0  0  0
  8  5  2  0  0  0  0
 11 15  1  1  0  0  0
 11 13  1  0  0  0  0
 12  9  1  0  0  0  0
 12  3  1  6  0  0  0
 13  6  1  0  0  0  0
 14  9  1  0  0  0  0
 14  6  1  6  0  0  0
 16 15  1  0  0  0  0
 16 17  1  0  0  0  0
 18 17  1  0  0  0  0
 20 18  1  0  0  0  0
 20 19  1  0  0  0  0
 21 27  1  0  0  0  0
 22 23  1  0  0  0  0
 23 28  1  0  0  0  0
 23 29  1  0  0  0  0
 23 24  1  0  0  0  0
 25 29  1  0  0  0  0
 26 27  1  0  0  0  0
 26 22  1  0  0  0  0
 27 25  1  0  0  0  0
 30  1  1  1  0  0  0
 30 35  1  0  0  0  0
 31 33  1  0  0  0  0
 31 34  1  0  0  0  0
 32 35  2  0  0  0  0
 32 36  1  0  0  0  0
 35 37  1  0  0  0  0
 36 31  2  0  0  0  0
 37 33  2  0  0  0  0
 38 32  1  0  0  0  0
 39 41  1  0  0  0  0
 40 39  1  0  0  0  0
 40 41  1  0  0  0  0
 41 42  1  1  0  0  0
 41 30  1  0  0  0  0
 43 42  1  0  0  0  0
M  END
>  <MODEL>
9

>  <REMARK>
 VINA RESULT:      -4.3      3.408      7.291
  Name = 
  12 active torsions:
  status: ('A' for Active; 'I' for Inactive)
    1  A    between atoms: C_1  and  N_34
    2  A    between atoms: C_1  and  C_35
    3  A    between atoms: C_2  and  C_27
    4  A    between atoms: C_8  and  C_30
    5  A    between atoms: C_11  and  C_22
    6  A    between atoms: C_11  and  C_36
    7  A    between atoms: C_21  and  C_30
    8  A    between atoms: C_27  and  C_30
    9  A    between atoms: O_29  and  C_31
   10  A    between atoms: O_29  and  C_36
   11  A    between atoms: C_31  and  C_40
   12  A    between atoms: N_34  and  C_38
                            x       y       z     vdW  Elec       q    Type
                         _______ _______ _______ _____ _____    ______ ____

>  <TORSDO>
F 12

$$$$
