=
 OpenBabel10262420453D

 28 31  0  0  1  0  0  0  0  0999 V2000
  188.9970  177.8550  145.9060 C   0  0  1  0  0  3  0  0  0  0  0  0
  187.9530  176.9890  145.1900 C   0  0  2  0  0  3  0  0  0  0  0  0
  191.5690  176.7480  145.0280 C   0  0  0  0  0  2  0  0  0  0  0  0
  189.1380  178.5100  143.5780 O   0  0  0  0  0  1  0  0  0  0  0  0
  191.2870  176.9880  146.5220 C   0  0  0  0  0  2  0  0  0  0  0  0
  190.3130  176.3760  144.2370 C   0  0  1  0  0  3  0  0  0  0  0  0
  189.7970  176.9910  146.8790 C   0  0  0  0  0  2  0  0  0  0  0  0
  189.2210  177.4280  144.4610 C   0  0  1  0  0  0  0  0  0  0  0  0
  186.7330  177.7890  144.8110 C   0  0  0  0  0  0  0  0  0  0  0  0
  184.4000  179.1560  144.0530 C   0  0  0  0  0  3  0  0  0  0  0  0
  186.3670  177.8790  143.4600 C   0  0  0  0  0  3  0  0  0  0  0  0
  186.1870  178.2360  147.1420 O   0  0  0  0  0  1  0  0  0  0  0  0
  185.8910  178.3570  145.7900 C   0  0  0  0  0  0  0  0  0  0  0  0
  184.7380  179.0470  145.4040 C   0  0  0  0  0  3  0  0  0  0  0  0
  185.2120  178.5670  143.0810 C   0  0  0  0  0  3  0  0  0  0  0  0
  190.6330  176.2100  142.7600 C   0  0  0  0  0  2  0  0  0  0  0  0
  191.7670  176.9660  142.4260 O   0  0  0  0  0  0  0  0  0  0  0  0
  192.6230  177.2710  140.2860 F   0  0  0  0  0  0  0  0  0  0  0  0
  191.5650  177.5260  141.1490 C   0  0  1  0  0  3  0  0  0  0  0  0
  190.2300  177.1000  140.5430 C   0  0  0  0  0  2  0  0  0  0  0  0
  189.0220  178.2530  138.9080 C   0  0  0  0  0  2  0  0  0  0  0  0
  189.9820  176.1630  138.4230 C   0  0  0  0  0  2  0  0  0  0  0  0
  188.9050  178.0780  136.3610 C   0  0  1  0  0  3  0  0  0  0  0  0
  190.1980  177.4200  139.1250 N   0  0  0  0  0  0  0  0  0  0  0  0
  190.0440  177.1210  136.1190 C   0  0  0  0  0  3  0  0  0  0  0  0
  190.5210  176.2590  137.0290 C   0  0  0  0  0  3  0  0  0  0  0  0
  187.5650  177.3600  136.4060 C   0  0  0  0  0  1  0  0  0  0  0  0
  189.1200  178.9920  137.5730 C   0  0  0  0  0  2  0  0  0  0  0  0
  1  7  1  1  0  0  0
  2  9  1  6  0  0  0
  2  1  1  0  0  0  0
  3  5  1  0  0  0  0
  5  7  1  0  0  0  0
  6 16  1  6  0  0  0
  6  8  1  0  0  0  0
  6  3  1  0  0  0  0
  8  4  1  6  0  0  0
  8  2  1  0  0  0  0
  8  1  1  0  0  0  0
  9 13  1  0  0  0  0
 10 14  1  0  0  0  0
 11  9  2  0  0  0  0
 13 12  1  0  0  0  0
 14 13  2  0  0  0  0
 15 11  1  0  0  0  0
 15 10  2  0  0  0  0
 17 16  1  0  0  0  0
 19 18  1  6  0  0  0
 19 17  1  0  0  0  0
 20 19  1  0  0  0  0
 21 24  1  0  0  0  0
 22 24  1  0  0  0  0
 23 27  1  1  0  0  0
 23 28  1  0  0  0  0
 24 20  1  0  0  0  0
 25 23  1  0  0  0  0
 25 26  2  0  0  0  0
 26 22  1  0  0  0  0
 28 21  1  0  0  0  0
M  END
>  <MODEL>
1

>  <REMARK>
 VINA RESULT:      -9.0      0.000      0.000
  Name = 
  6 active torsions:
  status: ('A' for Active; 'I' for Inactive)
    1  A    between atoms: C_2  and  C_3
    2  A    between atoms: C_5  and  O_20
    3  A    between atoms: C_5  and  C_21
    4  A    between atoms: C_10  and  N_13
    5  A    between atoms: C_10  and  C_25
    6  A    between atoms: O_20  and  C_25
                            x       y       z     vdW  Elec       q    Type
                         _______ _______ _______ _____ _____    ______ ____

>  <TORSDO>
F 6

$$$$
=
 OpenBabel10262420453D

 28 31  0  0  1  0  0  0  0  0999 V2000
  186.9840  177.5860  145.8690 C   0  0  1  0  0  3  0  0  0  0  0  0
  188.2650  178.2730  145.3800 C   0  0  2  0  0  3  0  0  0  0  0  0
  184.9910  178.2460  143.8190 C   0  0  0  0  0  2  0  0  0  0  0  0
  187.6880  176.2910  143.9460 O   0  0  0  0  0  1  0  0  0  0  0  0
  184.6800  178.4560  145.3110 C   0  0  0  0  0  2  0  0  0  0  0  0
  186.4690  178.4510  143.4840 C   0  0  1  0  0  3  0  0  0  0  0  0
  185.9260  178.6420  146.1840 C   0  0  0  0  0  2  0  0  0  0  0  0
  187.3400  177.5720  144.3890 C   0  0  1  0  0  0  0  0  0  0  0  0
  189.4930  177.4710  145.7280 C   0  0  0  0  0  0  0  0  0  0  0  0
  191.8620  176.0870  146.3220 C   0  0  0  0  0  3  0  0  0  0  0  0
  190.3510  177.0540  144.7000 C   0  0  0  0  0  3  0  0  0  0  0  0
  189.0630  177.6760  148.1170 O   0  0  0  0  0  1  0  0  0  0  0  0
  189.8560  177.2250  147.0680 C   0  0  0  0  0  0  0  0  0  0  0  0
  191.0310  176.5240  147.3560 C   0  0  0  0  0  3  0  0  0  0  0  0
  191.5250  176.3570  144.9940 C   0  0  0  0  0  3  0  0  0  0  0  0
  186.7340  178.1730  142.0120 C   0  0  0  0  0  2  0  0  0  0  0  0
  187.7900  178.9760  141.5540 O   0  0  0  0  0  0  0  0  0  0  0  0
  188.7330  176.8640  141.3230 F   0  0  0  0  0  0  0  0  0  0  0  0
  188.6830  178.1610  140.8290 C   0  0  1  0  0  3  0  0  0  0  0  0
  188.3880  178.1830  139.3310 C   0  0  0  0  0  2  0  0  0  0  0  0
  190.2040  177.0860  138.3500 C   0  0  0  0  0  2  0  0  0  0  0  0
  188.0350  176.7960  137.4910 C   0  0  0  0  0  2  0  0  0  0  0  0
  190.4040  175.0710  136.7920 C   0  0  1  0  0  3  0  0  0  0  0  0
  188.8030  176.9300  138.7210 N   0  0  0  0  0  0  0  0  0  0  0  0
  188.9780  174.5850  136.8190 C   0  0  0  0  0  3  0  0  0  0  0  0
  187.9180  175.3500  137.1190 C   0  0  0  0  0  3  0  0  0  0  0  0
  190.6770  175.9510  135.5810 C   0  0  0  0  0  1  0  0  0  0  0  0
  190.8550  175.7250  138.1030 C   0  0  0  0  0  2  0  0  0  0  0  0
  1  7  1  6  0  0  0
  2  9  1  1  0  0  0
  2  1  1  0  0  0  0
  3  5  1  0  0  0  0
  5  7  1  0  0  0  0
  6 16  1  6  0  0  0
  6  3  1  0  0  0  0
  6  8  1  0  0  0  0
  8  4  1  6  0  0  0
  8  2  1  0  0  0  0
  8  1  1  0  0  0  0
  9 13  1  0  0  0  0
 10 14  1  0  0  0  0
 11 15  1  0  0  0  0
 11  9  2  0  0  0  0
 13 14  2  0  0  0  0
 13 12  1  0  0  0  0
 15 10  2  0  0  0  0
 17 16  1  0  0  0  0
 19 18  1  1  0  0  0
 19 17  1  0  0  0  0
 20 19  1  0  0  0  0
 21 24  1  0  0  0  0
 22 24  1  0  0  0  0
 23 27  1  6  0  0  0
 23 25  1  0  0  0  0
 23 28  1  0  0  0  0
 24 20  1  0  0  0  0
 25 26  2  0  0  0  0
 26 22  1  0  0  0  0
 28 21  1  0  0  0  0
M  END
>  <MODEL>
2

>  <REMARK>
 VINA RESULT:      -8.6      1.833      4.257
  Name = 
  6 active torsions:
  status: ('A' for Active; 'I' for Inactive)
    1  A    between atoms: C_2  and  C_3
    2  A    between atoms: C_5  and  O_20
    3  A    between atoms: C_5  and  C_21
    4  A    between atoms: C_10  and  N_13
    5  A    between atoms: C_10  and  C_25
    6  A    between atoms: O_20  and  C_25
                            x       y       z     vdW  Elec       q    Type
                         _______ _______ _______ _____ _____    ______ ____

>  <TORSDO>
F 6

$$$$
=
 OpenBabel10262420453D

 28 31  0  0  1  0  0  0  0  0999 V2000
  188.9520  177.6980  146.0270 C   0  0  1  0  0  3  0  0  0  0  0  0
  188.0710  176.9490  145.0200 C   0  0  2  0  0  3  0  0  0  0  0  0
  191.6800  176.8420  145.3690 C   0  0  0  0  0  2  0  0  0  0  0  0
  189.3920  178.7720  143.9010 O   0  0  0  0  0  1  0  0  0  0  0  0
  191.1730  176.7970  146.8210 C   0  0  0  0  0  2  0  0  0  0  0  0
  190.5740  176.5860  144.3440 C   0  0  1  0  0  3  0  0  0  0  0  0
  189.6490  176.6930  146.9430 C   0  0  0  0  0  2  0  0  0  0  0  0
  189.4050  177.5490  144.5820 C   0  0  1  0  0  0  0  0  0  0  0  0
  186.8770  177.7710  144.6070 C   0  0  0  0  0  0  0  0  0  0  0  0
  184.5940  179.1800  143.7800 C   0  0  0  0  0  3  0  0  0  0  0  0
  186.5780  177.9060  143.2430 C   0  0  0  0  0  3  0  0  0  0  0  0
  186.2200  178.1480  146.9220 O   0  0  0  0  0  1  0  0  0  0  0  0
  185.9910  178.3140  145.5610 C   0  0  0  0  0  0  0  0  0  0  0  0
  184.8640  179.0260  145.1410 C   0  0  0  0  0  3  0  0  0  0  0  0
  185.4480  178.6150  142.8310 C   0  0  0  0  0  3  0  0  0  0  0  0
  191.1130  176.7020  142.9260 C   0  0  0  0  0  2  0  0  0  0  0  0
  190.2800  176.0040  142.0370 O   0  0  0  0  0  0  0  0  0  0  0  0
  189.2420  177.8500  141.0790 F   0  0  0  0  0  0  0  0  0  0  0  0
  190.1150  176.7880  140.8780 C   0  0  1  0  0  3  0  0  0  0  0  0
  191.4530  177.2580  140.3110 C   0  0  0  0  0  2  0  0  0  0  0  0
  190.4690  176.0000  138.6040 C   0  0  0  0  0  2  0  0  0  0  0  0
  192.8000  176.2940  138.6720 C   0  0  0  0  0  2  0  0  0  0  0  0
  191.2710  175.2370  136.3010 C   0  0  1  0  0  3  0  0  0  0  0  0
  191.5260  176.9630  138.8890 N   0  0  0  0  0  0  0  0  0  0  0  0
  192.5510  176.0250  136.2030 C   0  0  0  0  0  3  0  0  0  0  0  0
  193.2430  176.4890  137.2540 C   0  0  0  0  0  3  0  0  0  0  0  0
  191.5180  173.8160  136.7850 C   0  0  0  0  0  1  0  0  0  0  0  0
  190.1750  175.9460  137.1050 C   0  0  0  0  0  2  0  0  0  0  0  0
  1  7  1  1  0  0  0
  2  9  1  6  0  0  0
  2  1  1  0  0  0  0
  3  5  1  0  0  0  0
  5  7  1  0  0  0  0
  6 16  1  6  0  0  0
  6  8  1  0  0  0  0
  6  3  1  0  0  0  0
  8  4  1  6  0  0  0
  8  2  1  0  0  0  0
  8  1  1  0  0  0  0
  9 13  1  0  0  0  0
 10 14  1  0  0  0  0
 11  9  2  0  0  0  0
 13 12  1  0  0  0  0
 14 13  2  0  0  0  0
 15 11  1  0  0  0  0
 15 10  2  0  0  0  0
 17 16  1  0  0  0  0
 19 18  1  1  0  0  0
 19 17  1  0  0  0  0
 20 19  1  0  0  0  0
 21 24  1  0  0  0  0
 22 24  1  0  0  0  0
 23 27  1  1  0  0  0
 23 28  1  0  0  0  0
 24 20  1  0  0  0  0
 25 23  1  0  0  0  0
 25 26  2  0  0  0  0
 26 22  1  0  0  0  0
 28 21  1  0  0  0  0
M  END
>  <MODEL>
3

>  <REMARK>
 VINA RESULT:      -8.6      1.433      1.954
  Name = 
  6 active torsions:
  status: ('A' for Active; 'I' for Inactive)
    1  A    between atoms: C_2  and  C_3
    2  A    between atoms: C_5  and  O_20
    3  A    between atoms: C_5  and  C_21
    4  A    between atoms: C_10  and  N_13
    5  A    between atoms: C_10  and  C_25
    6  A    between atoms: O_20  and  C_25
                            x       y       z     vdW  Elec       q    Type
                         _______ _______ _______ _____ _____    ______ ____

>  <TORSDO>
F 6

$$$$
=
 OpenBabel10262420453D

 28 31  0  0  1  0  0  0  0  0999 V2000
  189.1450  177.9350  145.0960 C   0  0  1  0  0  3  0  0  0  0  0  0
  187.9700  177.0160  144.7440 C   0  0  2  0  0  3  0  0  0  0  0  0
  191.2700  177.1220  143.2420 C   0  0  0  0  0  2  0  0  0  0  0  0
  188.3630  178.7270  142.9450 O   0  0  0  0  0  1  0  0  0  0  0  0
  191.5520  177.2540  144.7490 C   0  0  0  0  0  2  0  0  0  0  0  0
  189.8370  176.6790  142.9410 C   0  0  1  0  0  3  0  0  0  0  0  0
  190.3070  177.0980  145.6290 C   0  0  0  0  0  2  0  0  0  0  0  0
  188.8410  177.6110  143.6400 C   0  0  1  0  0  0  0  0  0  0  0  0
  186.6460  177.7180  144.9100 C   0  0  0  0  0  0  0  0  0  0  0  0
  184.1150  178.9030  145.1730 C   0  0  0  0  0  3  0  0  0  0  0  0
  185.8410  177.9340  143.7830 C   0  0  0  0  0  3  0  0  0  0  0  0
  186.8930  177.8080  147.3320 O   0  0  0  0  0  1  0  0  0  0  0  0
  186.1510  178.0630  146.1850 C   0  0  0  0  0  0  0  0  0  0  0  0
  184.8950  178.6650  146.3060 C   0  0  0  0  0  3  0  0  0  0  0  0
  184.5850  178.5330  143.9110 C   0  0  0  0  0  3  0  0  0  0  0  0
  189.5920  176.6240  141.4410 C   0  0  0  0  0  2  0  0  0  0  0  0
  190.7380  176.1500  140.7830 O   0  0  0  0  0  0  0  0  0  0  0  0
  192.2320  177.7980  140.1070 F   0  0  0  0  0  0  0  0  0  0  0  0
  191.0890  177.0780  139.7820 C   0  0  1  0  0  3  0  0  0  0  0  0
  191.2090  176.4200  138.4100 C   0  0  0  0  0  2  0  0  0  0  0  0
  189.6280  178.1270  138.1850 C   0  0  0  0  0  2  0  0  0  0  0  0
  189.2430  176.0160  137.2260 C   0  0  0  0  0  2  0  0  0  0  0  0
  187.6680  178.5040  136.5910 C   0  0  1  0  0  3  0  0  0  0  0  0
  190.2650  177.0200  137.4820 N   0  0  0  0  0  0  0  0  0  0  0  0
  187.9120  177.3820  135.6160 C   0  0  0  0  0  3  0  0  0  0  0  0
  188.6030  176.2670  135.8950 C   0  0  0  0  0  3  0  0  0  0  0  0
  186.6460  178.1180  137.6500 C   0  0  0  0  0  1  0  0  0  0  0  0
  188.9520  179.0790  137.1980 C   0  0  0  0  0  2  0  0  0  0  0  0
  1  7  1  1  0  0  0
  2  9  1  6  0  0  0
  2  1  1  0  0  0  0
  3  5  1  0  0  0  0
  5  7  1  0  0  0  0
  6 16  1  6  0  0  0
  6  3  1  0  0  0  0
  6  8  1  0  0  0  0
  8  4  1  6  0  0  0
  8  2  1  0  0  0  0
  8  1  1  0  0  0  0
  9 13  1  0  0  0  0
 10 14  1  0  0  0  0
 11 15  1  0  0  0  0
 11  9  2  0  0  0  0
 13 14  2  0  0  0  0
 13 12  1  0  0  0  0
 15 10  2  0  0  0  0
 17 16  1  0  0  0  0
 19 18  1  1  0  0  0
 19 17  1  0  0  0  0
 20 19  1  0  0  0  0
 22 24  1  0  0  0  0
 23 28  1  0  0  0  0
 23 27  1  1  0  0  0
 24 21  1  0  0  0  0
 24 20  1  0  0  0  0
 25 26  2  0  0  0  0
 25 23  1  0  0  0  0
 26 22  1  0  0  0  0
 28 21  1  0  0  0  0
M  END
>  <MODEL>
4

>  <REMARK>
 VINA RESULT:      -8.5      1.100      1.400
  Name = 
  6 active torsions:
  status: ('A' for Active; 'I' for Inactive)
    1  A    between atoms: C_2  and  C_3
    2  A    between atoms: C_5  and  O_20
    3  A    between atoms: C_5  and  C_21
    4  A    between atoms: C_10  and  N_13
    5  A    between atoms: C_10  and  C_25
    6  A    between atoms: O_20  and  C_25
                            x       y       z     vdW  Elec       q    Type
                         _______ _______ _______ _____ _____    ______ ____

>  <TORSDO>
F 6

$$$$
=
 OpenBabel10262420453D

 28 31  0  0  1  0  0  0  0  0999 V2000
  187.0800  177.5030  145.3260 C   0  0  1  0  0  3  0  0  0  0  0  0
  188.4150  178.1850  145.0050 C   0  0  2  0  0  3  0  0  0  0  0  0
  185.3770  178.1490  143.0250 C   0  0  0  0  0  2  0  0  0  0  0  0
  188.0290  176.1910  143.5240 O   0  0  0  0  0  1  0  0  0  0  0  0
  184.8710  178.3710  144.4610 C   0  0  0  0  0  2  0  0  0  0  0  0
  186.8870  178.3490  142.8860 C   0  0  1  0  0  3  0  0  0  0  0  0
  185.9910  178.5630  145.4900 C   0  0  0  0  0  2  0  0  0  0  0  0
  187.6280  177.4760  143.9060 C   0  0  1  0  0  0  0  0  0  0  0  0
  189.5850  177.3850  145.5190 C   0  0  0  0  0  0  0  0  0  0  0  0
  191.8520  176.0020  146.4300 C   0  0  0  0  0  3  0  0  0  0  0  0
  190.5570  176.9360  144.6140 C   0  0  0  0  0  3  0  0  0  0  0  0
  188.8720  177.6540  147.8330 O   0  0  0  0  0  1  0  0  0  0  0  0
  189.7810  177.1710  146.9000 C   0  0  0  0  0  0  0  0  0  0  0  0
  190.9060  176.4700  147.3450 C   0  0  0  0  0  3  0  0  0  0  0  0
  191.6800  176.2400  145.0650 C   0  0  0  0  0  3  0  0  0  0  0  0
  187.3440  178.0590  141.4660 C   0  0  0  0  0  2  0  0  0  0  0  0
  188.6450  178.5470  141.2700 O   0  0  0  0  0  0  0  0  0  0  0  0
  189.0540  179.2140  139.0810 F   0  0  0  0  0  0  0  0  0  0  0  0
  189.0750  178.1590  139.9850 C   0  0  1  0  0  3  0  0  0  0  0  0
  190.4390  177.4750  140.0210 C   0  0  0  0  0  2  0  0  0  0  0  0
  189.8090  176.1400  138.2090 C   0  0  0  0  0  2  0  0  0  0  0  0
  192.0710  176.3180  138.8240 C   0  0  0  0  0  2  0  0  0  0  0  0
  191.0850  175.1590  136.2240 C   0  0  1  0  0  3  0  0  0  0  0  0
  190.8300  177.0660  138.6820 N   0  0  0  0  0  0  0  0  0  0  0  0
  192.4030  175.8700  136.3910 C   0  0  0  0  0  3  0  0  0  0  0  0
  192.8520  176.3790  137.5480 C   0  0  0  0  0  3  0  0  0  0  0  0
  191.1110  173.7690  136.8420 C   0  0  0  0  0  1  0  0  0  0  0  0
  189.8800  175.9840  136.6900 C   0  0  0  0  0  2  0  0  0  0  0  0
  1  7  1  6  0  0  0
  2  1  1  0  0  0  0
  2  9  1  1  0  0  0
  3  5  1  0  0  0  0
  5  7  1  0  0  0  0
  6 16  1  6  0  0  0
  6  3  1  0  0  0  0
  6  8  1  0  0  0  0
  8  4  1  6  0  0  0
  8  2  1  0  0  0  0
  8  1  1  0  0  0  0
  9 13  1  0  0  0  0
 10 14  1  0  0  0  0
 11 15  1  0  0  0  0
 11  9  2  0  0  0  0
 13 14  2  0  0  0  0
 13 12  1  0  0  0  0
 15 10  2  0  0  0  0
 17 16  1  0  0  0  0
 19 18  1  6  0  0  0
 19 20  1  0  0  0  0
 19 17  1  0  0  0  0
 21 24  1  0  0  0  0
 23 25  1  0  0  0  0
 23 28  1  0  0  0  0
 23 27  1  1  0  0  0
 24 22  1  0  0  0  0
 24 20  1  0  0  0  0
 25 26  2  0  0  0  0
 26 22  1  0  0  0  0
 28 21  1  0  0  0  0
M  END
>  <MODEL>
5

>  <REMARK>
 VINA RESULT:      -8.3      1.738      4.215
  Name = 
  6 active torsions:
  status: ('A' for Active; 'I' for Inactive)
    1  A    between atoms: C_2  and  C_3
    2  A    between atoms: C_5  and  O_20
    3  A    between atoms: C_5  and  C_21
    4  A    between atoms: C_10  and  N_13
    5  A    between atoms: C_10  and  C_25
    6  A    between atoms: O_20  and  C_25
                            x       y       z     vdW  Elec       q    Type
                         _______ _______ _______ _____ _____    ______ ____

>  <TORSDO>
F 6

$$$$
=
 OpenBabel10262420453D

 28 31  0  0  1  0  0  0  0  0999 V2000
  190.1090  177.1340  143.8750 C   0  0  1  0  0  3  0  0  0  0  0  0
  189.3970  178.1630  142.9870 C   0  0  2  0  0  3  0  0  0  0  0  0
  188.5380  177.1210  146.3540 C   0  0  0  0  0  2  0  0  0  0  0  0
  188.0310  176.0670  143.2320 O   0  0  0  0  0  1  0  0  0  0  0  0
  190.0700  177.2610  146.3970 C   0  0  0  0  0  2  0  0  0  0  0  0
  187.9170  177.7520  145.1070 C   0  0  1  0  0  3  0  0  0  0  0  0
  190.6770  177.8320  145.1100 C   0  0  0  0  0  2  0  0  0  0  0  0
  188.5880  177.1940  143.8460 C   0  0  1  0  0  0  0  0  0  0  0  0
  189.4530  177.7750  141.5320 C   0  0  0  0  0  0  0  0  0  0  0  0
  189.5540  176.9100  138.8630 C   0  0  0  0  0  3  0  0  0  0  0  0
  190.5480  177.0340  141.0640 C   0  0  0  0  0  3  0  0  0  0  0  0
  187.2500  178.7200  141.0980 O   0  0  0  0  0  1  0  0  0  0  0  0
  188.3810  178.0430  140.6560 C   0  0  0  0  0  0  0  0  0  0  0  0
  188.4440  177.6200  139.3250 C   0  0  0  0  0  3  0  0  0  0  0  0
  190.6040  176.6120  139.7340 C   0  0  0  0  0  3  0  0  0  0  0  0
  186.4120  177.5330  145.0820 C   0  0  0  0  0  2  0  0  0  0  0  0
  185.7460  178.7550  145.2630 O   0  0  0  0  0  0  0  0  0  0  0  0
  183.4920  178.9370  145.8020 F   0  0  0  0  0  0  0  0  0  0  0  0
  184.4160  178.6040  144.8200 C   0  0  1  0  0  3  0  0  0  0  0  0
  184.1560  179.3620  143.5210 C   0  0  0  0  0  2  0  0  0  0  0  0
  183.6620  178.6930  141.3370 C   0  0  0  0  0  2  0  0  0  0  0  0
  181.9510  179.4280  142.7700 C   0  0  0  0  0  2  0  0  0  0  0  0
  181.5060  177.9850  140.1640 C   0  0  1  0  0  3  0  0  0  0  0  0
  183.1800  178.6510  142.7120 N   0  0  0  0  0  0  0  0  0  0  0  0
  180.5870  177.8910  141.3540 C   0  0  0  0  0  3  0  0  0  0  0  0
  180.7730  178.5390  142.5140 C   0  0  0  0  0  3  0  0  0  0  0  0
  181.3740  179.3240  139.4540 C   0  0  0  0  0  1  0  0  0  0  0  0
  182.9630  177.6340  140.4850 C   0  0  0  0  0  2  0  0  0  0  0  0
  1  7  1  1  0  0  0
  2  9  1  6  0  0  0
  2  8  1  0  0  0  0
  2  1  1  0  0  0  0
  3  5  1  0  0  0  0
  6 16  1  6  0  0  0
  6  3  1  0  0  0  0
  7  5  1  0  0  0  0
  8  4  1  6  0  0  0
  8  1  1  0  0  0  0
  8  6  1  0  0  0  0
 10 14  2  0  0  0  0
 10 15  1  0  0  0  0
 11  9  1  0  0  0  0
 13 12  1  0  0  0  0
 13  9  2  0  0  0  0
 14 13  1  0  0  0  0
 15 11  2  0  0  0  0
 16 17  1  0  0  0  0
 19 17  1  0  0  0  0
 19 18  1  1  0  0  0
 20 19  1  0  0  0  0
 21 24  1  0  0  0  0
 23 27  1  1  0  0  0
 23 28  1  0  0  0  0
 23 25  1  0  0  0  0
 24 22  1  0  0  0  0
 24 20  1  0  0  0  0
 25 26  2  0  0  0  0
 26 22  1  0  0  0  0
 28 21  1  0  0  0  0
M  END
>  <MODEL>
6

>  <REMARK>
 VINA RESULT:      -8.2      3.463      6.630
  Name = 
  6 active torsions:
  status: ('A' for Active; 'I' for Inactive)
    1  A    between atoms: C_2  and  C_3
    2  A    between atoms: C_5  and  O_20
    3  A    between atoms: C_5  and  C_21
    4  A    between atoms: C_10  and  N_13
    5  A    between atoms: C_10  and  C_25
    6  A    between atoms: O_20  and  C_25
                            x       y       z     vdW  Elec       q    Type
                         _______ _______ _______ _____ _____    ______ ____

>  <TORSDO>
F 6

$$$$
=
 OpenBabel10262420453D

 28 31  0  0  1  0  0  0  0  0999 V2000
  186.8020  177.5970  146.1820 C   0  0  1  0  0  3  0  0  0  0  0  0
  188.0270  178.3240  145.6150 C   0  0  2  0  0  3  0  0  0  0  0  0
  184.6470  178.2520  144.3000 C   0  0  0  0  0  2  0  0  0  0  0  0
  187.3890  176.3590  144.1840 O   0  0  0  0  0  1  0  0  0  0  0  0
  184.4440  178.4240  145.8160 C   0  0  0  0  0  2  0  0  0  0  0  0
  186.0920  178.4990  143.8610 C   0  0  1  0  0  3  0  0  0  0  0  0
  185.7470  178.6210  146.5980 C   0  0  0  0  0  2  0  0  0  0  0  0
  187.0470  177.6220  144.6790 C   0  0  1  0  0  0  0  0  0  0  0  0
  189.2950  177.5450  145.8530 C   0  0  0  0  0  0  0  0  0  0  0  0
  191.7330  176.2070  146.2440 C   0  0  0  0  0  3  0  0  0  0  0  0
  190.1070  177.2080  144.7600 C   0  0  0  0  0  3  0  0  0  0  0  0
  188.9940  177.6130  148.2690 O   0  0  0  0  0  1  0  0  0  0  0  0
  189.7400  177.2410  147.1570 C   0  0  0  0  0  0  0  0  0  0  0  0
  190.9480  176.5640  147.3430 C   0  0  0  0  0  3  0  0  0  0  0  0
  191.3140  176.5340  144.9520 C   0  0  0  0  0  3  0  0  0  0  0  0
  186.2530  178.2580  142.3680 C   0  0  0  0  0  2  0  0  0  0  0  0
  185.0380  178.5030  141.7080 O   0  0  0  0  0  0  0  0  0  0  0  0
  186.3370  178.4310  139.7820 F   0  0  0  0  0  0  0  0  0  0  0  0
  185.3240  179.0950  140.4620 C   0  0  1  0  0  3  0  0  0  0  0  0
  184.0730  179.2460  139.6000 C   0  0  0  0  0  2  0  0  0  0  0  0
  182.9990  177.2580  139.0040 C   0  0  0  0  0  2  0  0  0  0  0  0
  181.7870  179.0130  139.9920 C   0  0  0  0  0  2  0  0  0  0  0  0
  180.7790  176.1910  139.6810 C   0  0  1  0  0  3  0  0  0  0  0  0
  183.0560  178.2980  140.0230 N   0  0  0  0  0  0  0  0  0  0  0  0
  180.3840  177.1150  140.8040 C   0  0  0  0  0  3  0  0  0  0  0  0
  180.8210  178.3760  140.9430 C   0  0  0  0  0  3  0  0  0  0  0  0
  180.1150  176.5810  138.3690 C   0  0  0  0  0  1  0  0  0  0  0  0
  182.2940  176.0110  139.5390 C   0  0  0  0  0  2  0  0  0  0  0  0
  1  7  1  6  0  0  0
  2  9  1  1  0  0  0
  2  1  1  0  0  0  0
  3  5  1  0  0  0  0
  5  7  1  0  0  0  0
  6 16  1  6  0  0  0
  6  3  1  0  0  0  0
  6  8  1  0  0  0  0
  8  4  1  6  0  0  0
  8  2  1  0  0  0  0
  8  1  1  0  0  0  0
  9 13  1  0  0  0  0
 10 14  1  0  0  0  0
 11 15  1  0  0  0  0
 11  9  2  0  0  0  0
 13 14  2  0  0  0  0
 13 12  1  0  0  0  0
 15 10  2  0  0  0  0
 17 16  1  0  0  0  0
 19 18  1  6  0  0  0
 19 17  1  0  0  0  0
 20 24  1  0  0  0  0
 20 19  1  0  0  0  0
 21 28  1  0  0  0  0
 21 24  1  0  0  0  0
 22 24  1  0  0  0  0
 22 26  1  0  0  0  0
 23 27  1  6  0  0  0
 23 25  1  0  0  0  0
 25 26  2  0  0  0  0
 28 23  1  0  0  0  0
M  END
>  <MODEL>
7

>  <REMARK>
 VINA RESULT:      -8.2      3.789      6.459
  Name = 
  6 active torsions:
  status: ('A' for Active; 'I' for Inactive)
    1  A    between atoms: C_2  and  C_3
    2  A    between atoms: C_5  and  O_20
    3  A    between atoms: C_5  and  C_21
    4  A    between atoms: C_10  and  N_13
    5  A    between atoms: C_10  and  C_25
    6  A    between atoms: O_20  and  C_25
                            x       y       z     vdW  Elec       q    Type
                         _______ _______ _______ _____ _____    ______ ____

>  <TORSDO>
F 6

$$$$
=
 OpenBabel10262420453D

 28 31  0  0  1  0  0  0  0  0999 V2000
  189.7680  176.9690  144.4910 C   0  0  1  0  0  3  0  0  0  0  0  0
  189.3320  178.1160  143.5710 C   0  0  2  0  0  3  0  0  0  0  0  0
  187.8800  177.0930  146.7340 C   0  0  0  0  0  2  0  0  0  0  0  0
  187.6760  176.2250  143.5210 O   0  0  0  0  0  1  0  0  0  0  0  0
  189.3960  177.0160  146.9880 C   0  0  0  0  0  2  0  0  0  0  0  0
  187.5290  177.8470  145.4500 C   0  0  1  0  0  3  0  0  0  0  0  0
  190.2470  177.5380  145.8250 C   0  0  0  0  0  2  0  0  0  0  0  0
  188.2880  177.2430  144.2620 C   0  0  1  0  0  0  0  0  0  0  0  0
  189.5380  177.7720  142.1180 C   0  0  0  0  0  0  0  0  0  0  0  0
  189.8960  177.2710  139.3790 C   0  0  0  0  0  3  0  0  0  0  0  0
  188.4760  177.9420  141.2170 C   0  0  0  0  0  3  0  0  0  0  0  0
  191.8940  177.2670  142.4750 O   0  0  0  0  0  1  0  0  0  0  0  0
  190.8020  177.3870  141.6240 C   0  0  0  0  0  0  0  0  0  0  0  0
  190.9690  177.1270  140.2610 C   0  0  0  0  0  3  0  0  0  0  0  0
  188.6510  177.6850  139.8560 C   0  0  0  0  0  3  0  0  0  0  0  0
  186.0270  177.8420  145.2130 C   0  0  0  0  0  2  0  0  0  0  0  0
  185.4920  179.1100  145.4920 O   0  0  0  0  0  0  0  0  0  0  0  0
  184.9210  180.6800  143.8770 F   0  0  0  0  0  0  0  0  0  0  0  0
  184.6070  179.4550  144.4510 C   0  0  1  0  0  3  0  0  0  0  0  0
  184.5010  178.3520  143.4010 C   0  0  0  0  0  2  0  0  0  0  0  0
  182.5650  178.3660  142.0910 C   0  0  0  0  0  2  0  0  0  0  0  0
  184.6850  178.2960  141.0780 C   0  0  0  0  0  2  0  0  0  0  0  0
  182.1120  178.9070  139.6350 C   0  0  1  0  0  3  0  0  0  0  0  0
  183.9270  178.8800  142.1750 N   0  0  0  0  0  0  0  0  0  0  0  0
  183.4570  179.4600  139.2430 C   0  0  0  0  0  3  0  0  0  0  0  0
  184.6080  179.1840  139.8750 C   0  0  0  0  0  3  0  0  0  0  0  0
  181.9780  177.4360  139.2680 C   0  0  0  0  0  1  0  0  0  0  0  0
  181.7380  179.1810  141.0960 C   0  0  0  0  0  2  0  0  0  0  0  0
  1  7  1  1  0  0  0
  2  9  1  6  0  0  0
  2  8  1  0  0  0  0
  2  1  1  0  0  0  0
  3  5  1  0  0  0  0
  6 16  1  6  0  0  0
  6  3  1  0  0  0  0
  7  5  1  0  0  0  0
  8  4  1  6  0  0  0
  8  1  1  0  0  0  0
  8  6  1  0  0  0  0
 10 15  2  0  0  0  0
 10 14  1  0  0  0  0
 11  9  2  0  0  0  0
 13  9  1  0  0  0  0
 13 12  1  0  0  0  0
 14 13  2  0  0  0  0
 15 11  1  0  0  0  0
 16 17  1  0  0  0  0
 19 18  1  6  0  0  0
 19 17  1  0  0  0  0
 20 19  1  0  0  0  0
 21 24  1  0  0  0  0
 22 24  1  0  0  0  0
 23 27  1  1  0  0  0
 23 28  1  0  0  0  0
 24 20  1  0  0  0  0
 25 23  1  0  0  0  0
 25 26  2  0  0  0  0
 26 22  1  0  0  0  0
 28 21  1  0  0  0  0
M  END
>  <MODEL>
8

>  <REMARK>
 VINA RESULT:      -8.2      3.123      6.006
  Name = 
  6 active torsions:
  status: ('A' for Active; 'I' for Inactive)
    1  A    between atoms: C_2  and  C_3
    2  A    between atoms: C_5  and  O_20
    3  A    between atoms: C_5  and  C_21
    4  A    between atoms: C_10  and  N_13
    5  A    between atoms: C_10  and  C_25
    6  A    between atoms: O_20  and  C_25
                            x       y       z     vdW  Elec       q    Type
                         _______ _______ _______ _____ _____    ______ ____

>  <TORSDO>
F 6

$$$$
=
 OpenBabel10262420453D

 28 31  0  0  1  0  0  0  0  0999 V2000
  186.8010  177.6010  146.2210 C   0  0  1  0  0  3  0  0  0  0  0  0
  187.9980  178.3230  145.5900 C   0  0  2  0  0  3  0  0  0  0  0  0
  184.5480  178.2880  144.4700 C   0  0  0  0  0  2  0  0  0  0  0  0
  187.2630  176.3740  144.1830 O   0  0  0  0  0  1  0  0  0  0  0  0
  184.4330  178.4490  145.9970 C   0  0  0  0  0  2  0  0  0  0  0  0
  185.9670  178.5270  143.9510 C   0  0  1  0  0  3  0  0  0  0  0  0
  185.7810  178.6300  146.7040 C   0  0  0  0  0  2  0  0  0  0  0  0
  186.9600  177.6360  144.7070 C   0  0  1  0  0  0  0  0  0  0  0  0
  189.2710  177.5310  145.7490 C   0  0  0  0  0  0  0  0  0  0  0  0
  191.7160  176.1710  145.9890 C   0  0  0  0  0  3  0  0  0  0  0  0
  190.0130  177.1930  144.6090 C   0  0  0  0  0  3  0  0  0  0  0  0
  189.1150  177.5910  148.1790 O   0  0  0  0  0  1  0  0  0  0  0  0
  189.7900  177.2180  147.0230 C   0  0  0  0  0  0  0  0  0  0  0  0
  191.0010  176.5300  147.1340 C   0  0  0  0  0  3  0  0  0  0  0  0
  191.2240  176.5080  144.7260 C   0  0  0  0  0  3  0  0  0  0  0  0
  186.0400  178.2970  142.4500 C   0  0  0  0  0  2  0  0  0  0  0  0
  185.6810  179.4690  141.7660 O   0  0  0  0  0  0  0  0  0  0  0  0
  185.9570  178.6140  139.6220 F   0  0  0  0  0  0  0  0  0  0  0  0
  185.0540  179.1010  140.5580 C   0  0  1  0  0  3  0  0  0  0  0  0
  183.9000  178.1270  140.7870 C   0  0  0  0  0  2  0  0  0  0  0  0
  181.8170  178.6300  141.7210 C   0  0  0  0  0  2  0  0  0  0  0  0
  181.9890  178.0240  139.4560 C   0  0  0  0  0  2  0  0  0  0  0  0
  179.5530  179.2650  140.7210 C   0  0  1  0  0  3  0  0  0  0  0  0
  182.6310  178.7830  140.5210 N   0  0  0  0  0  0  0  0  0  0  0  0
  179.9550  179.4600  139.2820 C   0  0  0  0  0  3  0  0  0  0  0  0
  181.0320  178.9020  138.7100 C   0  0  0  0  0  3  0  0  0  0  0  0
  178.9820  177.8770  140.9650 C   0  0  0  0  0  1  0  0  0  0  0  0
  180.6580  179.6260  141.7210 C   0  0  0  0  0  2  0  0  0  0  0  0
  1  7  1  6  0  0  0
  2  9  1  1  0  0  0
  2  1  1  0  0  0  0
  3  5  1  0  0  0  0
  5  7  1  0  0  0  0
  6 16  1  6  0  0  0
  6  3  1  0  0  0  0
  6  8  1  0  0  0  0
  8  4  1  6  0  0  0
  8  2  1  0  0  0  0
  8  1  1  0  0  0  0
  9 13  1  0  0  0  0
 10 14  1  0  0  0  0
 11 15  1  0  0  0  0
 11  9  2  0  0  0  0
 13 14  2  0  0  0  0
 13 12  1  0  0  0  0
 15 10  2  0  0  0  0
 17 16  1  0  0  0  0
 19 18  1  6  0  0  0
 19 20  1  0  0  0  0
 19 17  1  0  0  0  0
 21 28  1  0  0  0  0
 22 24  1  0  0  0  0
 23 27  1  6  0  0  0
 23 28  1  0  0  0  0
 24 20  1  0  0  0  0
 24 21  1  0  0  0  0
 25 23  1  0  0  0  0
 26 25  2  0  0  0  0
 26 22  1  0  0  0  0
M  END
>  <MODEL>
9

>  <REMARK>
 VINA RESULT:      -8.2      3.937      6.744
  Name = 
  6 active torsions:
  status: ('A' for Active; 'I' for Inactive)
    1  A    between atoms: C_2  and  C_3
    2  A    between atoms: C_5  and  O_20
    3  A    between atoms: C_5  and  C_21
    4  A    between atoms: C_10  and  N_13
    5  A    between atoms: C_10  and  C_25
    6  A    between atoms: O_20  and  C_25
                            x       y       z     vdW  Elec       q    Type
                         _______ _______ _______ _____ _____    ______ ____

>  <TORSDO>
F 6

$$$$
