=
 OpenBabel10262419523D

 25 29  0  0  1  0  0  0  0  0999 V2000
  185.6780  178.5430  144.5550 C   0  0  0  0  0  0  0  0  0  0  0  0
  187.0010  178.1040  144.6090 C   0  0  0  0  0  0  0  0  0  0  0  0
  185.4210  178.3140  146.9480 C   0  0  0  0  0  3  0  0  0  0  0  0
  184.8750  179.0520  143.4140 C   0  0  2  0  0  3  0  0  0  0  0  0
  182.2860  178.7600  142.1860 C   0  0  0  0  0  3  0  0  0  0  0  0
  186.7440  177.8510  147.0290 C   0  0  0  0  0  3  0  0  0  0  0  0
  183.5750  179.3200  144.1300 C   0  0  0  0  0  0  0  0  0  0  0  0
  182.3260  179.3910  143.3670 C   0  0  0  0  0  3  0  0  0  0  0  0
  188.8700  177.2990  145.9040 C   0  0  0  0  0  0  0  0  0  0  0  0
  189.5230  176.8970  147.1830 C   0  0  0  0  0  1  0  0  0  0  0  0
  187.7620  178.0170  143.4880 N   0  0  0  0  0  0  0  0  0  0  0  0
  183.4520  177.9780  141.6990 C   0  0  0  0  0  3  0  0  0  0  0  0
  184.9220  178.6670  145.6960 C   0  0  0  0  0  0  0  0  0  0  0  0
  183.6050  179.1120  145.4110 N   0  0  0  0  0  0  0  0  0  0  0  0
  189.5860  177.2290  144.7500 N   0  0  0  0  0  0  0  0  0  0  0  0
  184.6490  178.0580  142.3050 C   0  0  0  0  0  3  0  0  0  0  0  0
  189.0500  177.5830  143.5490 C   0  0  0  0  0  0  0  0  0  0  0  0
  187.5410  177.7460  145.8650 C   0  0  0  0  0  0  0  0  0  0  0  0
  190.0080  177.3210  139.9000 C   0  0  0  0  0  0  0  0  0  0  0  0
  189.8600  177.4930  142.3200 C   0  0  0  0  0  0  0  0  0  0  0  0
  189.2400  177.4070  141.0640 C   0  0  0  0  0  3  0  0  0  0  0  0
  189.4000  177.2380  138.6930 F   0  0  0  0  0  0  0  0  0  0  0  0
  191.2620  177.4940  142.3910 C   0  0  0  0  0  3  0  0  0  0  0  0
  191.4030  177.3220  139.9810 C   0  0  0  0  0  3  0  0  0  0  0  0
  192.0300  177.4070  141.2260 C   0  0  0  0  0  3  0  0  0  0  0  0
  1  2  2  0  0  0  0
  1 13  1  0  0  0  0
  2 18  1  0  0  0  0
  3  6  1  0  0  0  0
  4 16  1  6  0  0  0
  4  7  1  0  0  0  0
  4  1  1  0  0  0  0
  5  8  2  0  0  0  0
  7 14  2  0  0  0  0
  8  7  1  0  0  0  0
  9 10  1  0  0  0  0
 11 17  2  0  0  0  0
 11  2  1  0  0  0  0
 12  5  1  0  0  0  0
 12 16  2  0  0  0  0
 13  3  2  0  0  0  0
 14 13  1  0  0  0  0
 15  9  2  0  0  0  0
 17 15  1  0  0  0  0
 18  9  1  0  0  0  0
 18  6  2  0  0  0  0
 19 24  2  0  0  0  0
 19 21  1  0  0  0  0
 20 23  1  0  0  0  0
 20 17  1  0  0  0  0
 21 20  2  0  0  0  0
 22 19  1  0  0  0  0
 24 25  1  0  0  0  0
 25 23  2  0  0  0  0
M  END
>  <MODEL>
1

>  <REMARK>
 VINA RESULT:     -10.5      0.000      0.000
  Name = 
  1 active torsions:
  status: ('A' for Active; 'I' for Inactive)
    1  A    between atoms: C_6  and  C_23
                            x       y       z     vdW  Elec       q    Type
                         _______ _______ _______ _____ _____    ______ ____

>  <TORSDO>
F 1

$$$$
=
 OpenBabel10262419523D

 25 29  0  0  1  0  0  0  0  0999 V2000
  185.6790  178.5140  144.4900 C   0  0  0  0  0  0  0  0  0  0  0  0
  187.0030  178.0750  144.4550 C   0  0  0  0  0  0  0  0  0  0  0  0
  185.5690  178.2470  146.8900 C   0  0  0  0  0  3  0  0  0  0  0  0
  184.8070  179.0400  143.4090 C   0  0  2  0  0  3  0  0  0  0  0  0
  182.1470  178.7650  142.3380 C   0  0  0  0  0  3  0  0  0  0  0  0
  186.8960  177.7840  146.8820 C   0  0  0  0  0  3  0  0  0  0  0  0
  183.5530  179.2950  144.2070 C   0  0  0  0  0  0  0  0  0  0  0  0
  182.2600  179.3770  143.5240 C   0  0  0  0  0  3  0  0  0  0  0  0
  188.9480  177.2520  145.6190 C   0  0  0  0  0  0  0  0  0  0  0  0
  189.6790  176.8310  146.8500 C   0  0  0  0  0  1  0  0  0  0  0  0
  187.6930  178.0070  143.2880 N   0  0  0  0  0  0  0  0  0  0  0  0
  183.2820  177.9910  141.7680 C   0  0  0  0  0  3  0  0  0  0  0  0
  184.9940  178.6190  145.6770 C   0  0  0  0  0  0  0  0  0  0  0  0
  183.6630  179.0670  145.4810 N   0  0  0  0  0  0  0  0  0  0  0  0
  189.5920  177.2010  144.4230 N   0  0  0  0  0  0  0  0  0  0  0  0
  184.5130  178.0630  142.3000 C   0  0  0  0  0  3  0  0  0  0  0  0
  188.9830  177.5740  143.2630 C   0  0  0  0  0  0  0  0  0  0  0  0
  187.6190  177.6980  145.6700 C   0  0  0  0  0  0  0  0  0  0  0  0
  191.8080  177.3270  140.7610 C   0  0  0  0  0  0  0  0  0  0  0  0
  189.7160  177.5040  141.9840 C   0  0  0  0  0  0  0  0  0  0  0  0
  191.1140  177.3920  141.9720 C   0  0  0  0  0  3  0  0  0  0  0  0
  193.1570  177.2190  140.7590 F   0  0  0  0  0  0  0  0  0  0  0  0
  189.0220  177.5500  140.7650 C   0  0  0  0  0  3  0  0  0  0  0  0
  191.1090  177.3730  139.5510 C   0  0  0  0  0  3  0  0  0  0  0  0
  189.7170  177.4850  139.5530 C   0  0  0  0  0  3  0  0  0  0  0  0
  1 13  1  0  0  0  0
  2  1  2  0  0  0  0
  2 18  1  0  0  0  0
  4 16  1  6  0  0  0
  4  7  1  0  0  0  0
  4  1  1  0  0  0  0
  5  8  2  0  0  0  0
  6  3  1  0  0  0  0
  7 14  2  0  0  0  0
  8  7  1  0  0  0  0
  9 18  1  0  0  0  0
  9 10  1  0  0  0  0
 11  2  1  0  0  0  0
 12 16  2  0  0  0  0
 12  5  1  0  0  0  0
 13  3  2  0  0  0  0
 14 13  1  0  0  0  0
 15  9  2  0  0  0  0
 17 11  2  0  0  0  0
 17 15  1  0  0  0  0
 18  6  2  0  0  0  0
 19 21  1  0  0  0  0
 20 17  1  0  0  0  0
 21 20  2  0  0  0  0
 22 19  1  0  0  0  0
 23 20  1  0  0  0  0
 24 25  1  0  0  0  0
 24 19  2  0  0  0  0
 25 23  2  0  0  0  0
M  END
>  <MODEL>
2

>  <REMARK>
 VINA RESULT:     -10.4      0.904      1.322
  Name = 
  1 active torsions:
  status: ('A' for Active; 'I' for Inactive)
    1  A    between atoms: C_6  and  C_23
                            x       y       z     vdW  Elec       q    Type
                         _______ _______ _______ _____ _____    ______ ____

>  <TORSDO>
F 1

$$$$
=
 OpenBabel10262419523D

 25 29  0  0  1  0  0  0  0  0999 V2000
  188.7440  177.3130  142.9670 C   0  0  0  0  0  0  0  0  0  0  0  0
  187.6840  177.6610  143.8040 C   0  0  0  0  0  0  0  0  0  0  0  0
  190.2720  177.1540  144.8350 C   0  0  0  0  0  3  0  0  0  0  0  0
  188.7740  177.0470  141.5060 C   0  0  2  0  0  3  0  0  0  0  0  0
  190.2880  177.6870  139.1410 C   0  0  0  0  0  3  0  0  0  0  0  0
  189.2260  177.5210  145.6980 C   0  0  0  0  0  3  0  0  0  0  0  0
  190.2410  176.7380  141.3430 C   0  0  0  0  0  0  0  0  0  0  0  0
  190.8700  176.8660  140.0260 C   0  0  0  0  0  3  0  0  0  0  0  0
  186.8570  178.1310  146.0210 C   0  0  0  0  0  0  0  0  0  0  0  0
  187.0240  178.2760  147.4960 C   0  0  0  0  0  1  0  0  0  0  0  0
  186.4400  177.8900  143.3100 N   0  0  0  0  0  0  0  0  0  0  0  0
  189.0800  178.4720  139.5070 C   0  0  0  0  0  3  0  0  0  0  0  0
  189.9930  177.0430  143.4740 C   0  0  0  0  0  0  0  0  0  0  0  0
  190.9210  176.7280  142.4490 N   0  0  0  0  0  0  0  0  0  0  0  0
  185.6330  178.3520  145.4730 N   0  0  0  0  0  0  0  0  0  0  0  0
  188.4040  178.2240  140.6410 C   0  0  0  0  0  3  0  0  0  0  0  0
  185.4130  178.2340  144.1340 C   0  0  0  0  0  0  0  0  0  0  0  0
  187.9300  177.7740  145.1920 C   0  0  0  0  0  0  0  0  0  0  0  0
  182.5840  178.6850  141.6650 C   0  0  0  0  0  0  0  0  0  0  0  0
  184.0690  178.4820  143.5780 C   0  0  0  0  0  0  0  0  0  0  0  0
  183.8570  178.4500  142.1910 C   0  0  0  0  0  3  0  0  0  0  0  0
  182.3890  178.6520  140.3260 F   0  0  0  0  0  0  0  0  0  0  0  0
  182.9870  178.7520  144.4300 C   0  0  0  0  0  3  0  0  0  0  0  0
  181.5120  178.9530  142.5200 C   0  0  0  0  0  3  0  0  0  0  0  0
  181.7130  178.9870  143.9020 C   0  0  0  0  0  3  0  0  0  0  0  0
  1 13  2  0  0  0  0
  1  2  1  0  0  0  0
  2 18  2  0  0  0  0
  3  6  2  0  0  0  0
  4 16  1  6  0  0  0
  4  1  1  0  0  0  0
  5 12  1  0  0  0  0
  5  8  2  0  0  0  0
  7  4  1  0  0  0  0
  7 14  2  0  0  0  0
  8  7  1  0  0  0  0
  9 10  1  0  0  0  0
 11  2  1  0  0  0  0
 11 17  2  0  0  0  0
 12 16  2  0  0  0  0
 13  3  1  0  0  0  0
 14 13  1  0  0  0  0
 15  9  2  0  0  0  0
 17 15  1  0  0  0  0
 18  6  1  0  0  0  0
 18  9  1  0  0  0  0
 19 21  2  0  0  0  0
 19 24  1  0  0  0  0
 20 17  1  0  0  0  0
 20 23  2  0  0  0  0
 21 20  1  0  0  0  0
 22 19  1  0  0  0  0
 24 25  2  0  0  0  0
 25 23  1  0  0  0  0
M  END
>  <MODEL>
3

>  <REMARK>
 VINA RESULT:     -10.4      1.929      6.258
  Name = 
  1 active torsions:
  status: ('A' for Active; 'I' for Inactive)
    1  A    between atoms: C_6  and  C_23
                            x       y       z     vdW  Elec       q    Type
                         _______ _______ _______ _____ _____    ______ ____

>  <TORSDO>
F 1

$$$$
=
 OpenBabel10262419523D

 25 29  0  0  1  0  0  0  0  0999 V2000
  185.3550  178.5550  144.0570 C   0  0  0  0  0  0  0  0  0  0  0  0
  186.6740  178.1270  143.9000 C   0  0  0  0  0  0  0  0  0  0  0  0
  185.4640  178.2720  146.4560 C   0  0  0  0  0  3  0  0  0  0  0  0
  184.3850  179.0810  143.0620 C   0  0  2  0  0  3  0  0  0  0  0  0
  181.6420  178.7900  142.2330 C   0  0  0  0  0  3  0  0  0  0  0  0
  186.7870  177.8190  146.3250 C   0  0  0  0  0  3  0  0  0  0  0  0
  183.2070  179.3210  143.9720 C   0  0  0  0  0  0  0  0  0  0  0  0
  181.8560  179.3960  143.4080 C   0  0  0  0  0  3  0  0  0  0  0  0
  188.7220  177.3120  144.8790 C   0  0  0  0  0  0  0  0  0  0  0  0
  189.5630  176.8890  146.0360 C   0  0  0  0  0  1  0  0  0  0  0  0
  187.2560  178.0710  142.6750 N   0  0  0  0  0  0  0  0  0  0  0  0
  182.7260  178.0290  141.5580 C   0  0  0  0  0  3  0  0  0  0  0  0
  184.7790  178.6470  145.3010 C   0  0  0  0  0  0  0  0  0  0  0  0
  183.4320  179.0860  145.2290 N   0  0  0  0  0  0  0  0  0  0  0  0
  189.2560  177.2740  143.6290 N   0  0  0  0  0  0  0  0  0  0  0  0
  184.0000  178.1080  141.9780 C   0  0  0  0  0  3  0  0  0  0  0  0
  188.5420  177.6480  142.5310 C   0  0  0  0  0  0  0  0  0  0  0  0
  187.4000  177.7470  145.0520 C   0  0  0  0  0  0  0  0  0  0  0  0
  189.1830  178.2580  138.8540 C   0  0  0  0  0  0  0  0  0  0  0  0
  189.1570  177.5930  141.1920 C   0  0  0  0  0  0  0  0  0  0  0  0
  188.6000  178.3110  140.1230 C   0  0  0  0  0  3  0  0  0  0  0  0
  188.6390  178.9550  137.8290 F   0  0  0  0  0  0  0  0  0  0  0  0
  190.3080  176.8200  140.9700 C   0  0  0  0  0  3  0  0  0  0  0  0
  190.3290  177.4850  138.6430 C   0  0  0  0  0  3  0  0  0  0  0  0
  190.8910  176.7660  139.7000 C   0  0  0  0  0  3  0  0  0  0  0  0
  1 13  1  0  0  0  0
  2  1  2  0  0  0  0
  2 18  1  0  0  0  0
  4 16  1  6  0  0  0
  4  7  1  0  0  0  0
  4  1  1  0  0  0  0
  5  8  2  0  0  0  0
  6  3  1  0  0  0  0
  7 14  2  0  0  0  0
  8  7  1  0  0  0  0
  9 18  1  0  0  0  0
  9 10  1  0  0  0  0
 11  2  1  0  0  0  0
 12 16  2  0  0  0  0
 12  5  1  0  0  0  0
 13  3  2  0  0  0  0
 14 13  1  0  0  0  0
 15  9  2  0  0  0  0
 17 11  2  0  0  0  0
 17 15  1  0  0  0  0
 18  6  2  0  0  0  0
 19 21  1  0  0  0  0
 20 17  1  0  0  0  0
 21 20  2  0  0  0  0
 22 19  1  0  0  0  0
 23 20  1  0  0  0  0
 24 19  2  0  0  0  0
 24 25  1  0  0  0  0
 25 23  2  0  0  0  0
M  END
>  <MODEL>
4

>  <REMARK>
 VINA RESULT:     -10.3      0.996      1.132
  Name = 
  1 active torsions:
  status: ('A' for Active; 'I' for Inactive)
    1  A    between atoms: C_6  and  C_23
                            x       y       z     vdW  Elec       q    Type
                         _______ _______ _______ _____ _____    ______ ____

>  <TORSDO>
F 1

$$$$
=
 OpenBabel10262419523D

 25 29  0  0  1  0  0  0  0  0999 V2000
  187.4250  177.6970  145.2060 C   0  0  0  0  0  0  0  0  0  0  0  0
  186.5340  178.1310  144.2230 C   0  0  0  0  0  0  0  0  0  0  0  0
  185.8710  178.2530  146.9730 C   0  0  0  0  0  3  0  0  0  0  0  0
  188.7520  177.0410  145.0840 C   0  0  2  0  0  3  0  0  0  0  0  0
  191.4260  177.1780  146.1440 C   0  0  0  0  0  3  0  0  0  0  0  0
  184.9630  178.7150  146.0060 C   0  0  0  0  0  3  0  0  0  0  0  0
  189.0810  176.8820  146.5470 C   0  0  0  0  0  0  0  0  0  0  0  0
  190.4750  176.7150  146.9650 C   0  0  0  0  0  3  0  0  0  0  0  0
  184.4030  179.0940  143.6330 C   0  0  0  0  0  0  0  0  0  0  0  0
  183.0650  179.6630  143.9680 C   0  0  0  0  0  1  0  0  0  0  0  0
  186.8480  178.0590  142.9050 N   0  0  0  0  0  0  0  0  0  0  0  0
  191.0700  177.8800  144.8820 C   0  0  0  0  0  3  0  0  0  0  0  0
  187.0890  177.7350  146.5380 C   0  0  0  0  0  0  0  0  0  0  0  0
  188.1440  177.2630  147.3610 N   0  0  0  0  0  0  0  0  0  0  0  0
  184.7690  179.0020  142.3270 N   0  0  0  0  0  0  0  0  0  0  0  0
  189.8110  177.8760  144.4130 C   0  0  0  0  0  3  0  0  0  0  0  0
  185.9750  178.4900  141.9540 C   0  0  0  0  0  0  0  0  0  0  0  0
  185.2850  178.6550  144.6300 C   0  0  0  0  0  0  0  0  0  0  0  0
  188.0150  178.1740  138.7850 C   0  0  0  0  0  0  0  0  0  0  0  0
  186.3350  178.4060  140.5260 C   0  0  0  0  0  0  0  0  0  0  0  0
  187.6750  178.2530  140.1380 C   0  0  0  0  0  3  0  0  0  0  0  0
  189.3110  178.0260  138.4210 F   0  0  0  0  0  0  0  0  0  0  0  0
  185.3410  178.4780  139.5370 C   0  0  0  0  0  3  0  0  0  0  0  0
  187.0190  178.2460  137.8080 C   0  0  0  0  0  3  0  0  0  0  0  0
  185.6820  178.3990  138.1830 C   0  0  0  0  0  3  0  0  0  0  0  0
  1 13  1  0  0  0  0
  2 18  1  0  0  0  0
  2  1  2  0  0  0  0
  4 16  1  6  0  0  0
  4  1  1  0  0  0  0
  4  7  1  0  0  0  0
  5  8  2  0  0  0  0
  6  3  1  0  0  0  0
  7  8  1  0  0  0  0
  7 14  2  0  0  0  0
  9 10  1  0  0  0  0
  9 18  1  0  0  0  0
 11  2  1  0  0  0  0
 12  5  1  0  0  0  0
 13  3  2  0  0  0  0
 13 14  1  0  0  0  0
 15  9  2  0  0  0  0
 16 12  2  0  0  0  0
 17 15  1  0  0  0  0
 17 11  2  0  0  0  0
 18  6  2  0  0  0  0
 19 21  1  0  0  0  0
 20 17  1  0  0  0  0
 21 20  2  0  0  0  0
 22 19  1  0  0  0  0
 23 20  1  0  0  0  0
 24 25  1  0  0  0  0
 24 19  2  0  0  0  0
 25 23  2  0  0  0  0
M  END
>  <MODEL>
5

>  <REMARK>
 VINA RESULT:     -10.1      1.966      5.229
  Name = 
  1 active torsions:
  status: ('A' for Active; 'I' for Inactive)
    1  A    between atoms: C_6  and  C_23
                            x       y       z     vdW  Elec       q    Type
                         _______ _______ _______ _____ _____    ______ ____

>  <TORSDO>
F 1

$$$$
=
 OpenBabel10262419523D

 25 29  0  0  1  0  0  0  0  0999 V2000
  186.8560  177.8220  144.2200 C   0  0  0  0  0  0  0  0  0  0  0  0
  186.8600  178.0150  142.8370 C   0  0  0  0  0  0  0  0  0  0  0  0
  184.6160  178.7110  144.4180 C   0  0  0  0  0  3  0  0  0  0  0  0
  187.8610  177.1850  145.1080 C   0  0  2  0  0  3  0  0  0  0  0  0
  189.2350  177.6060  147.6040 C   0  0  0  0  0  3  0  0  0  0  0  0
  184.6000  178.9330  143.0310 C   0  0  0  0  0  3  0  0  0  0  0  0
  187.1580  177.3520  146.4320 C   0  0  0  0  0  0  0  0  0  0  0  0
  187.9310  177.3090  147.6760 C   0  0  0  0  0  3  0  0  0  0  0  0
  185.7350  178.7800  140.8460 C   0  0  0  0  0  0  0  0  0  0  0  0
  184.5750  179.3790  140.1240 C   0  0  0  0  0  1  0  0  0  0  0  0
  187.9310  177.6670  142.0790 N   0  0  0  0  0  0  0  0  0  0  0  0
  189.8560  178.0120  146.3160 C   0  0  0  0  0  3  0  0  0  0  0  0
  185.7560  178.1380  144.9800 C   0  0  0  0  0  0  0  0  0  0  0  0
  185.9740  177.8780  146.3570 N   0  0  0  0  0  0  0  0  0  0  0  0
  186.8350  178.4170  140.1350 N   0  0  0  0  0  0  0  0  0  0  0  0
  189.1980  177.8790  145.1520 C   0  0  0  0  0  3  0  0  0  0  0  0
  187.9270  177.8630  140.7330 C   0  0  0  0  0  0  0  0  0  0  0  0
  185.7160  178.5860  142.2340 C   0  0  0  0  0  0  0  0  0  0  0  0
  191.4980  177.1280  139.7270 C   0  0  0  0  0  0  0  0  0  0  0  0
  189.1020  177.4820  139.9260 C   0  0  0  0  0  0  0  0  0  0  0  0
  190.3860  177.4890  140.4920 C   0  0  0  0  0  3  0  0  0  0  0  0
  192.7330  177.1380  140.2810 F   0  0  0  0  0  0  0  0  0  0  0  0
  188.9480  177.1070  138.5820 C   0  0  0  0  0  3  0  0  0  0  0  0
  191.3360  176.7560  138.3890 C   0  0  0  0  0  3  0  0  0  0  0  0
  190.0620  176.7460  137.8170 C   0  0  0  0  0  3  0  0  0  0  0  0
  1 13  1  0  0  0  0
  1  4  1  0  0  0  0
  2  1  2  0  0  0  0
  3 13  2  0  0  0  0
  4 16  1  1  0  0  0
  4  7  1  0  0  0  0
  5  8  2  0  0  0  0
  6  3  1  0  0  0  0
  7  8  1  0  0  0  0
  9 18  1  0  0  0  0
 10  9  1  0  0  0  0
 11  2  1  0  0  0  0
 12  5  1  0  0  0  0
 13 14  1  0  0  0  0
 14  7  2  0  0  0  0
 15 17  1  0  0  0  0
 15  9  2  0  0  0  0
 16 12  2  0  0  0  0
 17 11  2  0  0  0  0
 18  2  1  0  0  0  0
 18  6  2  0  0  0  0
 19 22  1  0  0  0  0
 19 21  1  0  0  0  0
 20 21  2  0  0  0  0
 20 17  1  0  0  0  0
 23 20  1  0  0  0  0
 24 19  2  0  0  0  0
 25 24  1  0  0  0  0
 25 23  2  0  0  0  0
M  END
>  <MODEL>
6

>  <REMARK>
 VINA RESULT:     -10.0      1.756      4.669
  Name = 
  1 active torsions:
  status: ('A' for Active; 'I' for Inactive)
    1  A    between atoms: C_6  and  C_23
                            x       y       z     vdW  Elec       q    Type
                         _______ _______ _______ _____ _____    ______ ____

>  <TORSDO>
F 1

$$$$
=
 OpenBabel10262419523D

 25 29  0  0  1  0  0  0  0  0999 V2000
  187.1880  178.3940  141.2570 C   0  0  0  0  0  0  0  0  0  0  0  0
  186.6090  178.3540  142.5270 C   0  0  0  0  0  0  0  0  0  0  0  0
  185.0460  178.7840  140.2050 C   0  0  0  0  0  3  0  0  0  0  0  0
  188.6130  178.3330  140.8430 C   0  0  2  0  0  3  0  0  0  0  0  0
  190.3410  177.0350  138.9400 C   0  0  0  0  0  3  0  0  0  0  0  0
  184.4340  178.7290  141.4690 C   0  0  0  0  0  3  0  0  0  0  0  0
  188.4380  178.4360  139.3490 C   0  0  0  0  0  0  0  0  0  0  0  0
  189.4980  177.9580  138.4580 C   0  0  0  0  0  3  0  0  0  0  0  0
  184.6400  178.4680  143.9140 C   0  0  0  0  0  0  0  0  0  0  0  0
  183.1710  178.6280  144.1240 C   0  0  0  0  0  1  0  0  0  0  0  0
  187.3620  178.1620  143.6390 N   0  0  0  0  0  0  0  0  0  0  0  0
  190.1690  176.4850  140.3100 C   0  0  0  0  0  3  0  0  0  0  0  0
  186.4290  178.6280  140.1360 C   0  0  0  0  0  0  0  0  0  0  0  0
  187.2140  178.6110  138.9540 N   0  0  0  0  0  0  0  0  0  0  0  0
  185.4400  178.2700  144.9950 N   0  0  0  0  0  0  0  0  0  0  0  0
  189.3160  177.0450  141.1850 C   0  0  0  0  0  3  0  0  0  0  0  0
  186.7880  178.1190  144.8730 C   0  0  0  0  0  0  0  0  0  0  0  0
  185.2090  178.5180  142.6340 C   0  0  0  0  0  0  0  0  0  0  0  0
  189.6990  177.1570  147.0880 C   0  0  0  0  0  0  0  0  0  0  0  0
  187.6230  177.9070  146.0700 C   0  0  0  0  0  0  0  0  0  0  0  0
  188.9090  177.3580  145.9530 C   0  0  0  0  0  3  0  0  0  0  0  0
  190.9390  176.6270  146.9640 F   0  0  0  0  0  0  0  0  0  0  0  0
  187.1400  178.2520  147.3430 C   0  0  0  0  0  3  0  0  0  0  0  0
  189.2100  177.5030  148.3500 C   0  0  0  0  0  3  0  0  0  0  0  0
  187.9310  178.0500  148.4780 C   0  0  0  0  0  3  0  0  0  0  0  0
  1  2  1  0  0  0  0
  2 18  2  0  0  0  0
  2 11  1  0  0  0  0
  3  6  2  0  0  0  0
  4 16  1  6  0  0  0
  4  1  1  0  0  0  0
  5 12  1  0  0  0  0
  6 18  1  0  0  0  0
  7  4  1  0  0  0  0
  8  5  2  0  0  0  0
  8  7  1  0  0  0  0
  9 10  1  0  0  0  0
  9 15  2  0  0  0  0
 11 17  2  0  0  0  0
 12 16  2  0  0  0  0
 13  3  1  0  0  0  0
 13  1  2  0  0  0  0
 14  7  2  0  0  0  0
 14 13  1  0  0  0  0
 17 15  1  0  0  0  0
 17 20  1  0  0  0  0
 18  9  1  0  0  0  0
 19 24  1  0  0  0  0
 20 23  2  0  0  0  0
 21 20  1  0  0  0  0
 21 19  2  0  0  0  0
 22 19  1  0  0  0  0
 23 25  1  0  0  0  0
 24 25  2  0  0  0  0
M  END
>  <MODEL>
7

>  <REMARK>
 VINA RESULT:     -10.0      2.356      6.189
  Name = 
  1 active torsions:
  status: ('A' for Active; 'I' for Inactive)
    1  A    between atoms: C_6  and  C_23
                            x       y       z     vdW  Elec       q    Type
                         _______ _______ _______ _____ _____    ______ ____

>  <TORSDO>
F 1

$$$$
=
 OpenBabel10262419523D

 25 29  0  0  1  0  0  0  0  0999 V2000
  186.8490  177.8210  144.1650 C   0  0  0  0  0  0  0  0  0  0  0  0
  186.8490  178.0170  142.7830 C   0  0  0  0  0  0  0  0  0  0  0  0
  184.6090  178.7090  144.3720 C   0  0  0  0  0  3  0  0  0  0  0  0
  187.8570  177.1840  145.0500 C   0  0  2  0  0  3  0  0  0  0  0  0
  189.2370  177.6020  147.5430 C   0  0  0  0  0  3  0  0  0  0  0  0
  184.5890  178.9340  142.9850 C   0  0  0  0  0  3  0  0  0  0  0  0
  187.1570  177.3480  146.3760 C   0  0  0  0  0  0  0  0  0  0  0  0
  187.9340  177.3030  147.6180 C   0  0  0  0  0  3  0  0  0  0  0  0
  185.7180  178.7850  140.7960 C   0  0  0  0  0  0  0  0  0  0  0  0
  184.5560  179.3840  140.0780 C   0  0  0  0  0  1  0  0  0  0  0  0
  187.9180  177.6720  142.0220 N   0  0  0  0  0  0  0  0  0  0  0  0
  189.8540  178.0100  146.2530 C   0  0  0  0  0  3  0  0  0  0  0  0
  185.7510  178.1360  144.9290 C   0  0  0  0  0  0  0  0  0  0  0  0
  185.9730  177.8730  146.3060 N   0  0  0  0  0  0  0  0  0  0  0  0
  186.8160  178.4240  140.0810 N   0  0  0  0  0  0  0  0  0  0  0  0
  189.1930  177.8790  145.0910 C   0  0  0  0  0  3  0  0  0  0  0  0
  187.9100  177.8700  140.6760 C   0  0  0  0  0  0  0  0  0  0  0  0
  185.7030  178.5880  142.1850 C   0  0  0  0  0  0  0  0  0  0  0  0
  190.1180  177.1280  137.6960 C   0  0  0  0  0  0  0  0  0  0  0  0
  189.0830  177.4910  139.8650 C   0  0  0  0  0  0  0  0  0  0  0  0
  189.0080  177.4880  138.4630 C   0  0  0  0  0  3  0  0  0  0  0  0
  190.0360  177.1280  136.3450 F   0  0  0  0  0  0  0  0  0  0  0  0
  190.2880  177.1280  140.4860 C   0  0  0  0  0  3  0  0  0  0  0  0
  191.3140  176.7680  138.3230 C   0  0  0  0  0  3  0  0  0  0  0  0
  191.3990  176.7670  139.7170 C   0  0  0  0  0  3  0  0  0  0  0  0
  1 13  1  0  0  0  0
  1  4  1  0  0  0  0
  2  1  2  0  0  0  0
  3 13  2  0  0  0  0
  4 16  1  1  0  0  0
  4  7  1  0  0  0  0
  5  8  2  0  0  0  0
  6  3  1  0  0  0  0
  7  8  1  0  0  0  0
  9 18  1  0  0  0  0
 10  9  1  0  0  0  0
 11  2  1  0  0  0  0
 12  5  1  0  0  0  0
 13 14  1  0  0  0  0
 14  7  2  0  0  0  0
 15 17  1  0  0  0  0
 15  9  2  0  0  0  0
 16 12  2  0  0  0  0
 17 11  2  0  0  0  0
 18  2  1  0  0  0  0
 18  6  2  0  0  0  0
 19 24  2  0  0  0  0
 19 21  1  0  0  0  0
 20 23  1  0  0  0  0
 20 17  1  0  0  0  0
 21 20  2  0  0  0  0
 22 19  1  0  0  0  0
 24 25  1  0  0  0  0
 25 23  2  0  0  0  0
M  END
>  <MODEL>
8

>  <REMARK>
 VINA RESULT:     -10.0      1.683      4.556
  Name = 
  1 active torsions:
  status: ('A' for Active; 'I' for Inactive)
    1  A    between atoms: C_6  and  C_23
                            x       y       z     vdW  Elec       q    Type
                         _______ _______ _______ _____ _____    ______ ____

>  <TORSDO>
F 1

$$$$
=
 OpenBabel10262419523D

 25 29  0  0  1  0  0  0  0  0999 V2000
  187.6780  177.6060  145.3540 C   0  0  0  0  0  0  0  0  0  0  0  0
  186.8130  178.0610  144.3580 C   0  0  0  0  0  0  0  0  0  0  0  0
  186.1110  178.1970  147.0970 C   0  0  0  0  0  3  0  0  0  0  0  0
  188.9920  176.9210  145.2530 C   0  0  2  0  0  3  0  0  0  0  0  0
  191.6520  176.9960  146.3530 C   0  0  0  0  0  3  0  0  0  0  0  0
  185.2280  178.6800  146.1170 C   0  0  0  0  0  3  0  0  0  0  0  0
  189.2940  176.7530  146.7200 C   0  0  0  0  0  0  0  0  0  0  0  0
  190.6780  176.5540  147.1590 C   0  0  0  0  0  3  0  0  0  0  0  0
  184.7140  179.0730  143.7360 C   0  0  0  0  0  0  0  0  0  0  0  0
  183.3840  179.6720  144.0500 C   0  0  0  0  0  1  0  0  0  0  0  0
  187.1460  177.9820  143.0440 N   0  0  0  0  0  0  0  0  0  0  0  0
  191.3320  177.7060  145.0870 C   0  0  0  0  0  3  0  0  0  0  0  0
  187.3230  177.6520  146.6810 C   0  0  0  0  0  0  0  0  0  0  0  0
  188.3540  177.1550  147.5200 N   0  0  0  0  0  0  0  0  0  0  0  0
  185.0980  178.9720  142.4350 N   0  0  0  0  0  0  0  0  0  0  0  0
  190.0800  177.7310  144.5980 C   0  0  0  0  0  3  0  0  0  0  0  0
  186.2980  178.4330  142.0800 C   0  0  0  0  0  0  0  0  0  0  0  0
  185.5710  178.6130  144.7460 C   0  0  0  0  0  0  0  0  0  0  0  0
  186.0540  178.2520  138.3100 C   0  0  0  0  0  0  0  0  0  0  0  0
  186.6780  178.3410  140.6580 C   0  0  0  0  0  0  0  0  0  0  0  0
  185.6940  178.3400  139.6570 C   0  0  0  0  0  3  0  0  0  0  0  0
  185.0980  178.2530  137.3520 F   0  0  0  0  0  0  0  0  0  0  0  0
  188.0290  178.2530  140.2880 C   0  0  0  0  0  3  0  0  0  0  0  0
  187.4020  178.1650  137.9510 C   0  0  0  0  0  3  0  0  0  0  0  0
  188.3890  178.1640  138.9400 C   0  0  0  0  0  3  0  0  0  0  0  0
  1 13  1  0  0  0  0
  2 18  1  0  0  0  0
  2  1  2  0  0  0  0
  4 16  1  1  0  0  0
  4  1  1  0  0  0  0
  4  7  1  0  0  0  0
  5  8  2  0  0  0  0
  6  3  1  0  0  0  0
  7  8  1  0  0  0  0
  7 14  2  0  0  0  0
  9 10  1  0  0  0  0
  9 18  1  0  0  0  0
 11  2  1  0  0  0  0
 12  5  1  0  0  0  0
 13  3  2  0  0  0  0
 13 14  1  0  0  0  0
 15  9  2  0  0  0  0
 16 12  2  0  0  0  0
 17 15  1  0  0  0  0
 17 11  2  0  0  0  0
 18  6  2  0  0  0  0
 19 21  1  0  0  0  0
 20 17  1  0  0  0  0
 21 20  2  0  0  0  0
 22 19  1  0  0  0  0
 23 20  1  0  0  0  0
 24 19  2  0  0  0  0
 24 25  1  0  0  0  0
 25 23  2  0  0  0  0
M  END
>  <MODEL>
9

>  <REMARK>
 VINA RESULT:      -9.9      2.128      5.211
  Name = 
  1 active torsions:
  status: ('A' for Active; 'I' for Inactive)
    1  A    between atoms: C_6  and  C_23
                            x       y       z     vdW  Elec       q    Type
                         _______ _______ _______ _____ _____    ______ ____

>  <TORSDO>
F 1

$$$$
