=
 OpenBabel10262423333D

 34 38  0  0  1  0  0  0  0  0999 V2000
  189.7420  176.1380  144.1790 C   0  0  1  0  0  3  0  0  0  0  0  0
  187.3920  177.6420  146.6760 C   0  0  0  0  0  3  0  0  0  0  0  0
  189.7220  177.4850  146.7090 O   0  0  0  0  0  0  0  0  0  0  0  0
  190.5980  176.7010  141.8260 C   0  0  2  0  0  3  0  0  0  0  0  0
  189.8430  175.7050  142.7090 C   0  0  0  0  0  2  0  0  0  0  0  0
  191.6680  177.7400  143.8620 N   0  0  0  0  0  0  0  0  0  0  0  0
  190.8800  178.9730  143.8370 C   0  0  0  0  0  1  0  0  0  0  0  0
  191.8740  177.2410  142.4960 C   0  0  0  0  0  2  0  0  0  0  0  0
  190.9590  177.1400  146.1490 C   0  0  0  0  0  0  0  0  0  0  0  0
  191.0690  176.6990  144.7150 C   0  0  1  0  0  3  0  0  0  0  0  0
  191.9990  177.2230  146.8520 O   0  0  0  0  0  0  0  0  0  0  0  0
  186.0270  177.4660  146.1020 C   0  0  0  0  0  2  0  0  0  0  0  0
  185.7930  178.3910  144.9480 C   0  0  0  0  0  0  0  0  0  0  0  0
  186.5210  178.2980  143.8360 C   0  0  0  0  0  3  0  0  0  0  0  0
  188.5170  177.3930  146.0030 C   0  0  0  0  0  0  0  0  0  0  0  0
  187.6830  177.4090  143.6400 C   0  0  0  0  0  3  0  0  0  0  0  0
  188.5480  176.9750  144.5740 C   0  0  0  0  0  0  0  0  0  0  0  0
  184.7660  179.3380  144.9890 O   0  0  0  0  0  0  0  0  0  0  0  0
  182.9460  178.9440  143.4570 C   0  0  0  0  0  1  0  0  0  0  0  0
  183.3880  178.9930  144.9080 C   0  0  0  0  0  2  0  0  0  0  0  0
  189.6800  177.8020  141.2870 C   0  0  0  0  0  2  0  0  0  0  0  0
  187.3570  178.4430  139.3830 O   0  0  0  0  0  0  0  0  0  0  0  0
  190.6280  176.9050  139.0920 C   0  0  0  0  0  2  0  0  0  0  0  0
  187.8240  175.3950  136.2120 C   0  0  1  0  0  3  0  0  0  0  0  0
  187.2750  176.1620  137.4230 C   0  0  0  0  0  2  0  0  0  0  0  0
  188.3880  176.6940  138.2000 N   0  0  0  0  0  0  0  0  0  0  0  0
  190.0240  175.1280  137.4210 C   0  0  0  0  0  3  0  0  0  0  0  0
  189.6960  176.1590  138.1950 C   0  0  0  0  0  0  0  0  0  0  0  0
  188.9590  174.4350  136.6110 C   0  0  0  0  0  2  0  0  0  0  0  0
  189.7210  177.9620  139.7630 C   0  0  1  0  0  3  0  0  0  0  0  0
  188.3790  177.7510  139.1330 C   0  0  0  0  0  0  0  0  0  0  0  0
  186.7200  174.6780  135.4340 C   0  0  0  0  0  2  0  0  0  0  0  0
  185.5030  174.3380  136.2880 C   0  0  0  0  0  2  0  0  0  0  0  0
  185.5720  172.9570  136.7330 N   0  0  0  0  0  1  0  0  0  0  0  0
  1  5  1  6  0  0  0
  1 17  1  0  0  0  0
  1 10  1  0  0  0  0
  4 21  1  1  0  0  0
  4  8  1  0  0  0  0
  4  5  1  0  0  0  0
  6 10  1  0  0  0  0
  7  6  1  0  0  0  0
  8  6  1  0  0  0  0
  9  3  1  0  0  0  0
  9 11  2  0  0  0  0
 10  9  1  1  0  0  0
 12  2  1  0  0  0  0
 13 18  1  0  0  0  0
 13 12  1  0  0  0  0
 14 13  2  0  0  0  0
 15  2  2  0  0  0  0
 15  3  1  0  0  0  0
 16 14  1  0  0  0  0
 16 17  2  0  0  0  0
 17 15  1  0  0  0  0
 19 20  1  0  0  0  0
 20 18  1  0  0  0  0
 23 30  1  0  0  0  0
 24 32  1  1  0  0  0
 24 29  1  0  0  0  0
 24 25  1  0  0  0  0
 25 26  1  0  0  0  0
 26 31  1  0  0  0  0
 27 28  2  0  0  0  0
 28 26  1  0  0  0  0
 28 23  1  0  0  0  0
 29 27  1  0  0  0  0
 30 21  1  1  0  0  0
 31 22  2  0  0  0  0
 31 30  1  0  0  0  0
 32 33  1  0  0  0  0
 33 34  1  0  0  0  0
M  END
>  <MODEL>
1

>  <REMARK>
 VINA RESULT:      -9.3      0.000      0.000
  Name = 
  6 active torsions:
  status: ('A' for Active; 'I' for Inactive)
    1  A    between atoms: O_3  and  C_24
    2  A    between atoms: O_3  and  C_25
    3  A    between atoms: C_7  and  C_11
    4  A    between atoms: C_8  and  C_18
    5  A    between atoms: C_11  and  C_15
    6  A    between atoms: C_18  and  C_30
                            x       y       z     vdW  Elec       q    Type
                         _______ _______ _______ _____ _____    ______ ____

>  <TORSDO>
F 6

$$$$
=
 OpenBabel10262423333D

 34 38  0  0  1  0  0  0  0  0999 V2000
  188.7600  177.9300  136.4720 C   0  0  1  0  0  3  0  0  0  0  0  0
  185.8080  176.3200  134.8250 C   0  0  0  0  0  3  0  0  0  0  0  0
  188.0650  175.7210  134.7830 O   0  0  0  0  0  0  0  0  0  0  0  0
  189.6810  178.1770  138.8550 C   0  0  2  0  0  3  0  0  0  0  0  0
  189.1490  178.8870  137.6080 C   0  0  0  0  0  2  0  0  0  0  0  0
  190.1660  176.1020  137.5020 N   0  0  0  0  0  0  0  0  0  0  0  0
  189.0660  175.3050  138.0430 C   0  0  0  0  0  1  0  0  0  0  0  0
  190.6620  177.0400  138.5180 C   0  0  0  0  0  2  0  0  0  0  0  0
  189.4040  175.8690  135.1650 C   0  0  0  0  0  0  0  0  0  0  0  0
  189.7990  176.8150  136.2660 C   0  0  1  0  0  3  0  0  0  0  0  0
  190.2890  175.1810  134.5950 O   0  0  0  0  0  0  0  0  0  0  0  0
  184.6260  177.1340  135.2320 C   0  0  0  0  0  2  0  0  0  0  0  0
  184.2700  176.9040  136.6670 C   0  0  0  0  0  0  0  0  0  0  0  0
  185.1150  177.2270  137.6440 C   0  0  0  0  0  3  0  0  0  0  0  0
  187.0260  176.4690  135.3490 C   0  0  0  0  0  0  0  0  0  0  0  0
  186.4980  177.7090  137.4610 C   0  0  0  0  0  3  0  0  0  0  0  0
  187.3390  177.4180  136.4530 C   0  0  0  0  0  0  0  0  0  0  0  0
  183.0150  176.3970  137.0190 O   0  0  0  0  0  0  0  0  0  0  0  0
  182.1800  175.7480  139.1860 C   0  0  0  0  0  1  0  0  0  0  0  0
  182.8440  175.2930  137.8990 C   0  0  0  0  0  2  0  0  0  0  0  0
  188.5530  177.7490  139.7980 C   0  0  0  0  0  2  0  0  0  0  0  0
  190.4190  178.0290  142.2220 O   0  0  0  0  0  0  0  0  0  0  0  0
  186.9210  178.6860  141.5230 C   0  0  0  0  0  2  0  0  0  0  0  0
  187.6320  177.6970  145.6410 C   0  0  1  0  0  3  0  0  0  0  0  0
  188.7250  177.3600  144.6170 C   0  0  0  0  0  2  0  0  0  0  0  0
  188.3420  177.8910  143.3140 N   0  0  0  0  0  0  0  0  0  0  0  0
  185.9880  177.9740  143.7450 C   0  0  0  0  0  3  0  0  0  0  0  0
  187.0120  178.1540  142.9150 C   0  0  0  0  0  0  0  0  0  0  0  0
  186.2270  177.3690  145.1050 C   0  0  0  0  0  2  0  0  0  0  0  0
  188.3830  178.6530  141.0240 C   0  0  1  0  0  3  0  0  0  0  0  0
  189.1660  178.1650  142.2030 C   0  0  0  0  0  0  0  0  0  0  0  0
  187.8910  177.0400  146.9970 C   0  0  0  0  0  2  0  0  0  0  0  0
  189.2250  177.4390  147.6170 C   0  0  0  0  0  2  0  0  0  0  0  0
  189.0110  178.3540  148.7250 N   0  0  0  0  0  1  0  0  0  0  0  0
  1  5  1  1  0  0  0
  2 12  1  0  0  0  0
  2 15  2  0  0  0  0
  3  9  1  0  0  0  0
  3 15  1  0  0  0  0
  4 21  1  6  0  0  0
  5  4  1  0  0  0  0
  6  7  1  0  0  0  0
  6  8  1  0  0  0  0
  8  4  1  0  0  0  0
 10  9  1  6  0  0  0
 10  1  1  0  0  0  0
 10  6  1  0  0  0  0
 11  9  2  0  0  0  0
 12 13  1  0  0  0  0
 13 18  1  0  0  0  0
 13 14  2  0  0  0  0
 15 17  1  0  0  0  0
 16 14  1  0  0  0  0
 17  1  1  0  0  0  0
 17 16  2  0  0  0  0
 18 20  1  0  0  0  0
 20 19  1  0  0  0  0
 23 28  1  0  0  0  0
 24 32  1  1  0  0  0
 25 24  1  0  0  0  0
 26 25  1  0  0  0  0
 27 29  1  0  0  0  0
 28 26  1  0  0  0  0
 28 27  2  0  0  0  0
 29 24  1  0  0  0  0
 30 21  1  6  0  0  0
 30 23  1  0  0  0  0
 30 31  1  0  0  0  0
 31 22  2  0  0  0  0
 31 26  1  0  0  0  0
 32 33  1  0  0  0  0
 33 34  1  0  0  0  0
M  END
>  <MODEL>
2

>  <REMARK>
 VINA RESULT:      -7.5      2.818      8.397
  Name = 
  6 active torsions:
  status: ('A' for Active; 'I' for Inactive)
    1  A    between atoms: O_3  and  C_24
    2  A    between atoms: O_3  and  C_25
    3  A    between atoms: C_7  and  C_11
    4  A    between atoms: C_8  and  C_18
    5  A    between atoms: C_11  and  C_15
    6  A    between atoms: C_18  and  C_30
                            x       y       z     vdW  Elec       q    Type
                         _______ _______ _______ _____ _____    ______ ____

>  <TORSDO>
F 6

$$$$
=
 OpenBabel10262423333D

 34 38  0  0  1  0  0  0  0  0999 V2000
  182.2640  179.2860  140.0290 C   0  0  1  0  0  3  0  0  0  0  0  0
  182.4670  178.8040  143.7370 C   0  0  0  0  0  3  0  0  0  0  0  0
  180.7900  178.1920  142.2300 O   0  0  0  0  0  0  0  0  0  0  0  0
  183.4000  178.3180  137.9420 C   0  0  2  0  0  3  0  0  0  0  0  0
  183.1250  179.5630  138.7880 C   0  0  0  0  0  2  0  0  0  0  0  0
  181.4500  177.1240  139.0090 N   0  0  0  0  0  0  0  0  0  0  0  0
  182.2530  176.2180  139.8290 C   0  0  0  0  0  1  0  0  0  0  0  0
  182.1520  177.4360  137.7570 C   0  0  0  0  0  2  0  0  0  0  0  0
  180.2480  178.0750  140.9440 C   0  0  0  0  0  0  0  0  0  0  0  0
  181.0770  178.3590  139.7210 C   0  0  1  0  0  3  0  0  0  0  0  0
  179.0530  177.7040  140.8090 O   0  0  0  0  0  0  0  0  0  0  0  0
  183.7810  179.3770  144.1460 C   0  0  0  0  0  2  0  0  0  0  0  0
  184.9190  178.5050  143.7160 C   0  0  0  0  0  0  0  0  0  0  0  0
  185.1620  178.2810  142.4260 C   0  0  0  0  0  3  0  0  0  0  0  0
  182.1000  178.6260  142.4660 C   0  0  0  0  0  0  0  0  0  0  0  0
  184.3160  178.7250  141.3010 C   0  0  0  0  0  3  0  0  0  0  0  0
  182.9850  178.9130  141.3030 C   0  0  0  0  0  0  0  0  0  0  0  0
  185.7900  177.9510  144.6590 O   0  0  0  0  0  0  0  0  0  0  0  0
  188.0460  177.4990  145.3820 C   0  0  0  0  0  1  0  0  0  0  0  0
  186.9980  177.2880  144.3050 C   0  0  0  0  0  2  0  0  0  0  0  0
  184.6250  177.5440  138.4390 C   0  0  0  0  0  2  0  0  0  0  0  0
  186.4470  176.4420  136.2260 O   0  0  0  0  0  0  0  0  0  0  0  0
  186.8500  178.5990  139.1140 C   0  0  0  0  0  2  0  0  0  0  0  0
  190.4260  176.4210  138.1590 C   0  0  1  0  0  3  0  0  0  0  0  0
  189.1010  175.9380  137.5510 C   0  0  0  0  0  2  0  0  0  0  0  0
  188.0440  176.8830  137.8930 N   0  0  0  0  0  0  0  0  0  0  0  0
  189.1210  177.7950  139.8280 C   0  0  0  0  0  3  0  0  0  0  0  0
  188.0730  177.7480  139.0110 C   0  0  0  0  0  0  0  0  0  0  0  0
  190.2620  176.8280  139.6340 C   0  0  0  0  0  2  0  0  0  0  0  0
  185.9630  178.1060  137.9470 C   0  0  1  0  0  3  0  0  0  0  0  0
  186.7980  177.0690  137.2610 C   0  0  0  0  0  0  0  0  0  0  0  0
  191.5500  175.4020  137.9730 C   0  0  0  0  0  2  0  0  0  0  0  0
  192.8120  176.0000  137.3610 C   0  0  0  0  0  2  0  0  0  0  0  0
  193.5530  176.7450  138.3630 N   0  0  0  0  0  1  0  0  0  0  0  0
  1  5  1  6  0  0  0
  1 17  1  0  0  0  0
  2 12  1  0  0  0  0
  3 15  1  0  0  0  0
  4 21  1  1  0  0  0
  4  5  1  0  0  0  0
  6 10  1  0  0  0  0
  6  7  1  0  0  0  0
  8  4  1  0  0  0  0
  8  6  1  0  0  0  0
  9  3  1  0  0  0  0
 10  1  1  0  0  0  0
 10  9  1  1  0  0  0
 11  9  2  0  0  0  0
 13 12  1  0  0  0  0
 13 18  1  0  0  0  0
 14 13  2  0  0  0  0
 15  2  2  0  0  0  0
 16 17  2  0  0  0  0
 16 14  1  0  0  0  0
 17 15  1  0  0  0  0
 20 18  1  0  0  0  0
 20 19  1  0  0  0  0
 22 31  2  0  0  0  0
 24 32  1  1  0  0  0
 24 29  1  0  0  0  0
 25 26  1  0  0  0  0
 25 24  1  0  0  0  0
 26 28  1  0  0  0  0
 28 23  1  0  0  0  0
 28 27  2  0  0  0  0
 29 27  1  0  0  0  0
 30 21  1  1  0  0  0
 30 23  1  0  0  0  0
 31 26  1  0  0  0  0
 31 30  1  0  0  0  0
 33 32  1  0  0  0  0
 33 34  1  0  0  0  0
M  END
>  <MODEL>
3

>  <REMARK>
 VINA RESULT:      -7.5      3.199      7.027
  Name = 
  6 active torsions:
  status: ('A' for Active; 'I' for Inactive)
    1  A    between atoms: O_3  and  C_24
    2  A    between atoms: O_3  and  C_25
    3  A    between atoms: C_7  and  C_11
    4  A    between atoms: C_8  and  C_18
    5  A    between atoms: C_11  and  C_15
    6  A    between atoms: C_18  and  C_30
                            x       y       z     vdW  Elec       q    Type
                         _______ _______ _______ _____ _____    ______ ____

>  <TORSDO>
F 6

$$$$
=
 OpenBabel10262423333D

 34 38  0  0  1  0  0  0  0  0999 V2000
  182.5710  179.1450  138.0940 C   0  0  1  0  0  3  0  0  0  0  0  0
  179.2050  178.2650  139.4780 C   0  0  0  0  0  3  0  0  0  0  0  0
  180.2610  177.5470  137.5230 O   0  0  0  0  0  0  0  0  0  0  0  0
  185.0250  178.6560  138.6630 C   0  0  2  0  0  3  0  0  0  0  0  0
  183.9380  179.7200  138.4900 C   0  0  0  0  0  2  0  0  0  0  0  0
  183.6700  177.0110  137.3110 N   0  0  0  0  0  0  0  0  0  0  0  0
  183.2730  176.1720  138.4410 C   0  0  0  0  0  1  0  0  0  0  0  0
  184.9970  177.5920  137.5500 C   0  0  0  0  0  2  0  0  0  0  0  0
  181.3440  177.4900  136.6360 C   0  0  0  0  0  0  0  0  0  0  0  0
  182.6840  178.0630  137.0070 C   0  0  1  0  0  3  0  0  0  0  0  0
  181.1990  176.9280  135.5200 O   0  0  0  0  0  0  0  0  0  0  0  0
  179.0900  179.0130  140.7630 C   0  0  0  0  0  2  0  0  0  0  0  0
  179.9620  178.4180  141.8250 C   0  0  0  0  0  0  0  0  0  0  0  0
  181.2870  178.3970  141.6920 C   0  0  0  0  0  3  0  0  0  0  0  0
  180.3320  178.1780  138.7700 C   0  0  0  0  0  0  0  0  0  0  0  0
  182.0380  178.8140  140.4920 C   0  0  0  0  0  3  0  0  0  0  0  0
  181.6310  178.7580  139.2110 C   0  0  0  0  0  0  0  0  0  0  0  0
  179.4080  177.9200  143.0090 O   0  0  0  0  0  0  0  0  0  0  0  0
  178.9330  180.1000  143.9230 C   0  0  0  0  0  1  0  0  0  0  0  0
  179.3530  178.6720  144.2150 C   0  0  0  0  0  2  0  0  0  0  0  0
  185.0280  178.0610  140.0740 C   0  0  0  0  0  2  0  0  0  0  0  0
  188.0300  178.2080  140.7090 O   0  0  0  0  0  0  0  0  0  0  0  0
  184.9460  178.9960  142.4480 C   0  0  0  0  0  2  0  0  0  0  0  0
  188.1110  177.8600  145.1180 C   0  0  1  0  0  3  0  0  0  0  0  0
  188.2640  177.5200  143.6290 C   0  0  0  0  0  2  0  0  0  0  0  0
  187.1520  178.1020  142.8870 N   0  0  0  0  0  0  0  0  0  0  0  0
  185.6440  178.2460  144.7420 C   0  0  0  0  0  3  0  0  0  0  0  0
  185.8940  178.4190  143.4470 C   0  0  0  0  0  0  0  0  0  0  0  0
  186.6810  177.5920  145.6200 C   0  0  0  0  0  2  0  0  0  0  0  0
  185.7330  178.9320  141.1190 C   0  0  1  0  0  3  0  0  0  0  0  0
  187.0710  178.3840  141.5080 C   0  0  0  0  0  0  0  0  0  0  0  0
  189.1580  177.1540  145.9810 C   0  0  0  0  0  2  0  0  0  0  0  0
  188.7690  177.0680  147.4530 C   0  0  0  0  0  2  0  0  0  0  0  0
  189.1030  178.3060  148.1350 N   0  0  0  0  0  1  0  0  0  0  0  0
  1  5  1  1  0  0  0
  1 17  1  0  0  0  0
  2 12  1  0  0  0  0
  3 15  1  0  0  0  0
  4 21  1  1  0  0  0
  5  4  1  0  0  0  0
  6  8  1  0  0  0  0
  6  7  1  0  0  0  0
  8  4  1  0  0  0  0
  9  3  1  0  0  0  0
 10  9  1  1  0  0  0
 10  6  1  0  0  0  0
 10  1  1  0  0  0  0
 11  9  2  0  0  0  0
 12 13  1  0  0  0  0
 13 18  1  0  0  0  0
 14 13  2  0  0  0  0
 15 17  1  0  0  0  0
 15  2  2  0  0  0  0
 16 14  1  0  0  0  0
 17 16  2  0  0  0  0
 18 20  1  0  0  0  0
 19 20  1  0  0  0  0
 22 31  2  0  0  0  0
 23 28  1  0  0  0  0
 24 29  1  0  0  0  0
 24 32  1  1  0  0  0
 25 24  1  0  0  0  0
 26 28  1  0  0  0  0
 26 25  1  0  0  0  0
 27 29  1  0  0  0  0
 28 27  2  0  0  0  0
 30 21  1  6  0  0  0
 30 31  1  0  0  0  0
 30 23  1  0  0  0  0
 31 26  1  0  0  0  0
 32 33  1  0  0  0  0
 33 34  1  0  0  0  0
M  END
>  <MODEL>
4

>  <REMARK>
 VINA RESULT:      -7.2      4.008      8.946
  Name = 
  6 active torsions:
  status: ('A' for Active; 'I' for Inactive)
    1  A    between atoms: O_3  and  C_24
    2  A    between atoms: O_3  and  C_25
    3  A    between atoms: C_7  and  C_11
    4  A    between atoms: C_8  and  C_18
    5  A    between atoms: C_11  and  C_15
    6  A    between atoms: C_18  and  C_30
                            x       y       z     vdW  Elec       q    Type
                         _______ _______ _______ _____ _____    ______ ____

>  <TORSDO>
F 6

$$$$
=
 OpenBabel10262423333D

 34 38  0  0  1  0  0  0  0  0999 V2000
  179.9880  177.6210  139.4540 C   0  0  1  0  0  3  0  0  0  0  0  0
  181.2320  176.0660  136.2830 C   0  0  0  0  0  3  0  0  0  0  0  0
  180.2600  178.1580  136.6520 O   0  0  0  0  0  0  0  0  0  0  0  0
  181.0080  178.5920  141.5990 C   0  0  2  0  0  3  0  0  0  0  0  0
  180.1000  177.5260  140.9820 C   0  0  0  0  0  2  0  0  0  0  0  0
  180.8050  180.0090  139.5200 N   0  0  0  0  0  0  0  0  0  0  0  0
  182.1590  179.7550  139.0280 C   0  0  0  0  0  1  0  0  0  0  0  0
  180.7860  179.9880  140.9880 C   0  0  0  0  0  2  0  0  0  0  0  0
  179.7230  179.1590  137.4700 C   0  0  0  0  0  0  0  0  0  0  0  0
  179.8130  179.0700  138.9700 C   0  0  1  0  0  3  0  0  0  0  0  0
  179.1770  180.1620  136.9420 O   0  0  0  0  0  0  0  0  0  0  0  0
  181.7670  174.7290  136.6730 C   0  0  0  0  0  2  0  0  0  0  0  0
  183.0600  174.8510  137.4170 C   0  0  0  0  0  0  0  0  0  0  0  0
  183.1170  175.4710  138.5950 C   0  0  0  0  0  3  0  0  0  0  0  0
  180.8580  176.9990  137.1610 C   0  0  0  0  0  0  0  0  0  0  0  0
  182.0070  176.2000  139.2390 C   0  0  0  0  0  3  0  0  0  0  0  0
  180.9940  176.8460  138.6360 C   0  0  0  0  0  0  0  0  0  0  0  0
  184.2290  174.2670  136.9200 O   0  0  0  0  0  0  0  0  0  0  0  0
  183.8960  171.8860  137.1090 C   0  0  0  0  0  1  0  0  0  0  0  0
  184.7840  173.0690  137.4500 C   0  0  0  0  0  2  0  0  0  0  0  0
  182.4770  178.1600  141.6100 C   0  0  0  0  0  2  0  0  0  0  0  0
  185.5310  178.4170  141.4090 O   0  0  0  0  0  0  0  0  0  0  0  0
  182.9960  179.2080  143.8790 C   0  0  0  0  0  2  0  0  0  0  0  0
  186.8020  178.2880  145.6440 C   0  0  1  0  0  3  0  0  0  0  0  0
  186.5640  177.8800  144.1830 C   0  0  0  0  0  2  0  0  0  0  0  0
  185.2720  178.3950  143.7450 N   0  0  0  0  0  0  0  0  0  0  0  0
  184.3110  178.5890  145.9300 C   0  0  0  0  0  3  0  0  0  0  0  0
  184.1980  178.7050  144.6090 C   0  0  0  0  0  0  0  0  0  0  0  0
  185.5690  178.0080  146.5220 C   0  0  0  0  0  2  0  0  0  0  0  0
  183.4010  179.0990  142.3920 C   0  0  1  0  0  3  0  0  0  0  0  0
  184.8150  178.6070  142.4280 C   0  0  0  0  0  0  0  0  0  0  0  0
  188.0670  177.6530  146.2210 C   0  0  0  0  0  2  0  0  0  0  0  0
  187.9940  177.4210  147.7260 C   0  0  0  0  0  2  0  0  0  0  0  0
  189.0080  178.2080  148.4060 N   0  0  0  0  0  1  0  0  0  0  0  0
  1  5  1  1  0  0  0
  2 12  1  0  0  0  0
  2 15  2  0  0  0  0
  3 15  1  0  0  0  0
  3  9  1  0  0  0  0
  4 21  1  6  0  0  0
  5  4  1  0  0  0  0
  6  8  1  0  0  0  0
  7  6  1  0  0  0  0
  8  4  1  0  0  0  0
 10  9  1  6  0  0  0
 10  1  1  0  0  0  0
 10  6  1  0  0  0  0
 11  9  2  0  0  0  0
 12 13  1  0  0  0  0
 13 14  2  0  0  0  0
 14 16  1  0  0  0  0
 15 17  1  0  0  0  0
 17 16  2  0  0  0  0
 17  1  1  0  0  0  0
 18 13  1  0  0  0  0
 18 20  1  0  0  0  0
 19 20  1  0  0  0  0
 22 31  2  0  0  0  0
 23 28  1  0  0  0  0
 24 32  1  1  0  0  0
 24 29  1  0  0  0  0
 25 24  1  0  0  0  0
 26 25  1  0  0  0  0
 26 28  1  0  0  0  0
 27 29  1  0  0  0  0
 28 27  2  0  0  0  0
 30 21  1  6  0  0  0
 30 31  1  0  0  0  0
 30 23  1  0  0  0  0
 31 26  1  0  0  0  0
 32 33  1  0  0  0  0
 33 34  1  0  0  0  0
M  END
>  <MODEL>
5

>  <REMARK>
 VINA RESULT:      -7.1      4.415     10.353
  Name = 
  6 active torsions:
  status: ('A' for Active; 'I' for Inactive)
    1  A    between atoms: O_3  and  C_24
    2  A    between atoms: O_3  and  C_25
    3  A    between atoms: C_7  and  C_11
    4  A    between atoms: C_8  and  C_18
    5  A    between atoms: C_11  and  C_15
    6  A    between atoms: C_18  and  C_30
                            x       y       z     vdW  Elec       q    Type
                         _______ _______ _______ _____ _____    ______ ____

>  <TORSDO>
F 6

$$$$
=
 OpenBabel10262423333D

 34 38  0  0  1  0  0  0  0  0999 V2000
  181.7860  177.3180  138.6160 C   0  0  1  0  0  3  0  0  0  0  0  0
  182.6820  177.4800  134.9840 C   0  0  0  0  0  3  0  0  0  0  0  0
  181.1070  178.7030  136.2000 O   0  0  0  0  0  0  0  0  0  0  0  0
  182.8630  177.9790  140.8490 C   0  0  2  0  0  3  0  0  0  0  0  0
  182.3110  176.8470  139.9800 C   0  0  0  0  0  2  0  0  0  0  0  0
  181.6070  179.6850  139.4770 N   0  0  0  0  0  0  0  0  0  0  0  0
  182.7800  180.2220  138.7880 C   0  0  0  0  0  1  0  0  0  0  0  0
  181.9720  179.2350  140.8270 C   0  0  0  0  0  2  0  0  0  0  0  0
  180.4530  179.0710  137.3830 C   0  0  0  0  0  0  0  0  0  0  0  0
  180.9490  178.6040  138.7240 C   0  0  1  0  0  3  0  0  0  0  0  0
  179.4480  179.8250  137.3230 O   0  0  0  0  0  0  0  0  0  0  0  0
  183.7710  176.4790  134.7920 C   0  0  0  0  0  2  0  0  0  0  0  0
  185.0600  176.9490  135.3910 C   0  0  0  0  0  0  0  0  0  0  0  0
  185.1720  177.1580  136.7010 C   0  0  0  0  0  3  0  0  0  0  0  0
  182.2140  177.8460  136.1780 C   0  0  0  0  0  0  0  0  0  0  0  0
  184.0700  177.0880  137.6810 C   0  0  0  0  0  3  0  0  0  0  0  0
  182.7690  177.3520  137.4690 C   0  0  0  0  0  0  0  0  0  0  0  0
  186.1950  177.1240  134.5940 O   0  0  0  0  0  0  0  0  0  0  0  0
  188.3250  175.9970  134.6900 C   0  0  0  0  0  1  0  0  0  0  0  0
  187.5120  177.2030  135.1260 C   0  0  0  0  0  2  0  0  0  0  0  0
  184.3350  178.2710  140.5470 C   0  0  0  0  0  2  0  0  0  0  0  0
  187.3540  178.6240  140.9870 O   0  0  0  0  0  0  0  0  0  0  0  0
  184.3600  178.9650  143.0040 C   0  0  0  0  0  2  0  0  0  0  0  0
  187.8030  177.8660  145.3220 C   0  0  1  0  0  3  0  0  0  0  0  0
  187.8690  177.6850  143.7990 C   0  0  0  0  0  2  0  0  0  0  0  0
  186.6590  178.2330  143.1980 N   0  0  0  0  0  0  0  0  0  0  0  0
  185.2920  178.0640  145.1570 C   0  0  0  0  0  3  0  0  0  0  0  0
  185.4250  178.3810  143.8720 C   0  0  0  0  0  0  0  0  0  0  0  0
  186.4430  177.4250  145.8910 C   0  0  0  0  0  2  0  0  0  0  0  0
  185.0440  179.0980  141.6250 C   0  0  1  0  0  3  0  0  0  0  0  0
  186.4490  178.6370  141.8630 C   0  0  0  0  0  0  0  0  0  0  0  0
  188.9670  177.1770  146.0340 C   0  0  0  0  0  2  0  0  0  0  0  0
  188.7420  177.0060  147.5330 C   0  0  0  0  0  2  0  0  0  0  0  0
  188.9890  178.2580  148.2250 N   0  0  0  0  0  1  0  0  0  0  0  0
  1 10  1  0  0  0  0
  1  5  1  1  0  0  0
  2 15  2  0  0  0  0
  3  9  1  0  0  0  0
  4 21  1  6  0  0  0
  5  4  1  0  0  0  0
  6  8  1  0  0  0  0
  7  6  1  0  0  0  0
  8  4  1  0  0  0  0
 10  9  1  6  0  0  0
 10  6  1  0  0  0  0
 11  9  2  0  0  0  0
 12  2  1  0  0  0  0
 12 13  1  0  0  0  0
 13 14  2  0  0  0  0
 14 16  1  0  0  0  0
 15  3  1  0  0  0  0
 15 17  1  0  0  0  0
 17 16  2  0  0  0  0
 17  1  1  0  0  0  0
 18 20  1  0  0  0  0
 18 13  1  0  0  0  0
 19 20  1  0  0  0  0
 22 31  2  0  0  0  0
 23 28  1  0  0  0  0
 24 29  1  0  0  0  0
 24 32  1  1  0  0  0
 25 24  1  0  0  0  0
 26 25  1  0  0  0  0
 26 28  1  0  0  0  0
 27 29  1  0  0  0  0
 28 27  2  0  0  0  0
 30 21  1  6  0  0  0
 30 31  1  0  0  0  0
 30 23  1  0  0  0  0
 31 26  1  0  0  0  0
 32 33  1  0  0  0  0
 33 34  1  0  0  0  0
M  END
>  <MODEL>
6

>  <REMARK>
 VINA RESULT:      -7.0      3.993      9.932
  Name = 
  6 active torsions:
  status: ('A' for Active; 'I' for Inactive)
    1  A    between atoms: O_3  and  C_24
    2  A    between atoms: O_3  and  C_25
    3  A    between atoms: C_7  and  C_11
    4  A    between atoms: C_8  and  C_18
    5  A    between atoms: C_11  and  C_15
    6  A    between atoms: C_18  and  C_30
                            x       y       z     vdW  Elec       q    Type
                         _______ _______ _______ _____ _____    ______ ____

>  <TORSDO>
F 6

$$$$
=
 OpenBabel10262423333D

 34 38  0  0  1  0  0  0  0  0999 V2000
  189.6880  176.4050  144.8180 C   0  0  1  0  0  3  0  0  0  0  0  0
  186.9280  177.8480  146.8970 C   0  0  0  0  0  3  0  0  0  0  0  0
  189.2300  177.7860  147.2880 O   0  0  0  0  0  0  0  0  0  0  0  0
  190.8720  176.9680  142.6120 C   0  0  2  0  0  3  0  0  0  0  0  0
  190.0290  175.9550  143.3900 C   0  0  0  0  0  2  0  0  0  0  0  0
  191.5770  178.0800  144.7650 N   0  0  0  0  0  0  0  0  0  0  0  0
  190.7560  179.2790  144.5960 C   0  0  0  0  0  1  0  0  0  0  0  0
  192.0090  177.5700  143.4580 C   0  0  0  0  0  2  0  0  0  0  0  0
  190.5500  177.4830  146.9300 C   0  0  0  0  0  0  0  0  0  0  0  0
  190.8950  177.0270  145.5390 C   0  0  1  0  0  3  0  0  0  0  0  0
  191.4670  177.6190  147.7820 O   0  0  0  0  0  0  0  0  0  0  0  0
  185.6750  177.6080  146.1260 C   0  0  0  0  0  2  0  0  0  0  0  0
  185.5850  178.5050  144.9310 C   0  0  0  0  0  0  0  0  0  0  0  0
  186.4770  178.4260  143.9450 C   0  0  0  0  0  3  0  0  0  0  0  0
  188.1510  177.6350  146.4090 C   0  0  0  0  0  0  0  0  0  0  0  0
  187.6890  177.5830  143.9460 C   0  0  0  0  0  3  0  0  0  0  0  0
  188.4170  177.1980  145.0100 C   0  0  0  0  0  0  0  0  0  0  0  0
  184.5280  179.4110  144.7950 O   0  0  0  0  0  0  0  0  0  0  0  0
  182.7680  178.7830  143.2710 C   0  0  0  0  0  1  0  0  0  0  0  0
  183.1660  179.0070  144.7180 C   0  0  0  0  0  2  0  0  0  0  0  0
  190.0060  178.0230  141.9170 C   0  0  0  0  0  2  0  0  0  0  0  0
  190.4390  175.6100  140.0660 O   0  0  0  0  0  0  0  0  0  0  0  0
  188.3410  178.5680  140.0600 C   0  0  0  0  0  2  0  0  0  0  0  0
  189.2950  177.2050  136.1020 C   0  0  1  0  0  3  0  0  0  0  0  0
  190.1430  176.6830  137.2700 C   0  0  0  0  0  2  0  0  0  0  0  0
  189.5760  177.1620  138.5260 N   0  0  0  0  0  0  0  0  0  0  0  0
  188.4310  179.0480  137.5950 C   0  0  0  0  0  3  0  0  0  0  0  0
  188.7740  178.3190  138.6540 C   0  0  0  0  0  0  0  0  0  0  0  0
  188.9970  178.7090  136.2400 C   0  0  0  0  0  2  0  0  0  0  0  0
  189.0500  177.4540  140.8640 C   0  0  1  0  0  3  0  0  0  0  0  0
  189.7630  176.6460  139.8250 C   0  0  0  0  0  0  0  0  0  0  0  0
  189.9160  176.8710  134.7450 C   0  0  0  0  0  2  0  0  0  0  0  0
  190.3110  175.4050  134.6060 C   0  0  0  0  0  2  0  0  0  0  0  0
  191.6920  175.2150  135.0140 N   0  0  0  0  0  1  0  0  0  0  0  0
  1  5  1  6  0  0  0
  1 17  1  0  0  0  0
  1 10  1  0  0  0  0
  4 21  1  1  0  0  0
  4  5  1  0  0  0  0
  4  8  1  0  0  0  0
  6 10  1  0  0  0  0
  7  6  1  0  0  0  0
  8  6  1  0  0  0  0
  9  3  1  0  0  0  0
  9 11  2  0  0  0  0
 10  9  1  1  0  0  0
 12  2  1  0  0  0  0
 13 12  1  0  0  0  0
 14 16  1  0  0  0  0
 14 13  2  0  0  0  0
 15  2  2  0  0  0  0
 15  3  1  0  0  0  0
 16 17  2  0  0  0  0
 17 15  1  0  0  0  0
 18 13  1  0  0  0  0
 19 20  1  0  0  0  0
 20 18  1  0  0  0  0
 23 30  1  0  0  0  0
 24 32  1  6  0  0  0
 24 29  1  0  0  0  0
 24 25  1  0  0  0  0
 25 26  1  0  0  0  0
 26 28  1  0  0  0  0
 26 31  1  0  0  0  0
 27 28  2  0  0  0  0
 28 23  1  0  0  0  0
 29 27  1  0  0  0  0
 30 21  1  1  0  0  0
 31 22  2  0  0  0  0
 31 30  1  0  0  0  0
 33 32  1  0  0  0  0
 33 34  1  0  0  0  0
M  END
>  <MODEL>
7

>  <REMARK>
 VINA RESULT:      -6.8      1.950      2.355
  Name = 
  6 active torsions:
  status: ('A' for Active; 'I' for Inactive)
    1  A    between atoms: O_3  and  C_24
    2  A    between atoms: O_3  and  C_25
    3  A    between atoms: C_7  and  C_11
    4  A    between atoms: C_8  and  C_18
    5  A    between atoms: C_11  and  C_15
    6  A    between atoms: C_18  and  C_30
                            x       y       z     vdW  Elec       q    Type
                         _______ _______ _______ _____ _____    ______ ____

>  <TORSDO>
F 6

$$$$
=
 OpenBabel10262423333D

 34 38  0  0  1  0  0  0  0  0999 V2000
  189.4360  175.4400  135.2190 C   0  0  1  0  0  3  0  0  0  0  0  0
  187.4460  172.2690  135.1290 C   0  0  0  0  0  3  0  0  0  0  0  0
  189.7500  172.6060  134.9350 O   0  0  0  0  0  0  0  0  0  0  0  0
  190.1250  177.1790  136.9760 C   0  0  2  0  0  3  0  0  0  0  0  0
  189.3710  176.9060  135.6720 C   0  0  0  0  0  2  0  0  0  0  0  0
  191.4510  175.0510  136.6900 N   0  0  0  0  0  0  0  0  0  0  0  0
  190.7680  174.3010  137.7440 C   0  0  0  0  0  1  0  0  0  0  0  0
  191.4950  176.4790  137.0280 C   0  0  0  0  0  2  0  0  0  0  0  0
  190.9000  173.4040  134.9340 C   0  0  0  0  0  0  0  0  0  0  0  0
  190.8470  174.8460  135.3620 C   0  0  1  0  0  3  0  0  0  0  0  0
  192.0010  172.9010  134.5940 O   0  0  0  0  0  0  0  0  0  0  0  0
  186.0260  172.6790  135.3280 C   0  0  0  0  0  2  0  0  0  0  0  0
  185.7690  173.0980  136.7420 C   0  0  0  0  0  0  0  0  0  0  0  0
  186.3850  174.1550  137.2670 C   0  0  0  0  0  3  0  0  0  0  0  0
  188.4830  173.0970  135.2740 C   0  0  0  0  0  0  0  0  0  0  0  0
  187.4490  174.9440  136.6150 C   0  0  0  0  0  3  0  0  0  0  0  0
  188.3540  174.5120  135.7190 C   0  0  0  0  0  0  0  0  0  0  0  0
  184.8290  172.4220  137.5270 O   0  0  0  0  0  0  0  0  0  0  0  0
  182.7230  173.3930  136.8670 C   0  0  0  0  0  1  0  0  0  0  0  0
  183.5160  172.1150  137.0750 C   0  0  0  0  0  2  0  0  0  0  0  0
  189.2570  176.9110  138.2080 C   0  0  0  0  0  2  0  0  0  0  0  0
  191.5080  177.5090  140.2110 O   0  0  0  0  0  0  0  0  0  0  0  0
  187.9560  178.2070  139.9830 C   0  0  0  0  0  2  0  0  0  0  0  0
  189.3290  177.8990  144.0400 C   0  0  1  0  0  3  0  0  0  0  0  0
  190.2280  177.3400  142.9290 C   0  0  0  0  0  2  0  0  0  0  0  0
  189.6420  177.6590  141.6320 N   0  0  0  0  0  0  0  0  0  0  0  0
  187.3950  177.9290  142.4170 C   0  0  0  0  0  3  0  0  0  0  0  0
  188.2690  177.9150  141.4140 C   0  0  0  0  0  0  0  0  0  0  0  0
  187.8480  177.5530  143.8050 C   0  0  0  0  0  2  0  0  0  0  0  0
  189.3130  178.0180  139.2670 C   0  0  1  0  0  3  0  0  0  0  0  0
  190.2730  177.7010  140.3720 C   0  0  0  0  0  0  0  0  0  0  0  0
  189.7980  177.4710  145.4310 C   0  0  0  0  0  2  0  0  0  0  0  0
  191.0570  176.6110  145.4050 C   0  0  0  0  0  2  0  0  0  0  0  0
  191.8660  176.8690  146.5830 N   0  0  0  0  0  1  0  0  0  0  0  0
  1 10  1  0  0  0  0
  1  5  1  1  0  0  0
  1 17  1  0  0  0  0
  2 15  2  0  0  0  0
  2 12  1  0  0  0  0
  3 15  1  0  0  0  0
  4  8  1  0  0  0  0
  4 21  1  1  0  0  0
  5  4  1  0  0  0  0
  6  8  1  0  0  0  0
  6  7  1  0  0  0  0
  9  3  1  0  0  0  0
 10  9  1  1  0  0  0
 10  6  1  0  0  0  0
 11  9  2  0  0  0  0
 12 13  1  0  0  0  0
 13 14  2  0  0  0  0
 13 18  1  0  0  0  0
 15 17  1  0  0  0  0
 16 14  1  0  0  0  0
 17 16  2  0  0  0  0
 19 20  1  0  0  0  0
 20 18  1  0  0  0  0
 22 31  2  0  0  0  0
 23 28  1  0  0  0  0
 24 32  1  1  0  0  0
 25 24  1  0  0  0  0
 26 25  1  0  0  0  0
 27 29  1  0  0  0  0
 28 26  1  0  0  0  0
 28 27  2  0  0  0  0
 29 24  1  0  0  0  0
 30 21  1  6  0  0  0
 30 23  1  0  0  0  0
 30 31  1  0  0  0  0
 31 26  1  0  0  0  0
 33 32  1  0  0  0  0
 33 34  1  0  0  0  0
M  END
>  <MODEL>
8

>  <REMARK>
 VINA RESULT:      -6.7      3.186      8.675
  Name = 
  6 active torsions:
  status: ('A' for Active; 'I' for Inactive)
    1  A    between atoms: O_3  and  C_24
    2  A    between atoms: O_3  and  C_25
    3  A    between atoms: C_7  and  C_11
    4  A    between atoms: C_8  and  C_18
    5  A    between atoms: C_11  and  C_15
    6  A    between atoms: C_18  and  C_30
                            x       y       z     vdW  Elec       q    Type
                         _______ _______ _______ _____ _____    ______ ____

>  <TORSDO>
F 6

$$$$
=
 OpenBabel10262423333D

 34 38  0  0  1  0  0  0  0  0999 V2000
  185.3900  177.7470  136.3340 C   0  0  1  0  0  3  0  0  0  0  0  0
  182.1590  178.0640  138.1980 C   0  0  0  0  0  3  0  0  0  0  0  0
  182.7490  176.6390  136.4440 O   0  0  0  0  0  0  0  0  0  0  0  0
  187.7530  176.8640  136.8040 C   0  0  2  0  0  3  0  0  0  0  0  0
  186.8880  178.0700  136.4300 C   0  0  0  0  0  2  0  0  0  0  0  0
  185.9130  175.2880  136.0990 N   0  0  0  0  0  0  0  0  0  0  0  0
  185.5270  174.8870  137.4520 C   0  0  0  0  0  1  0  0  0  0  0  0
  187.3500  175.5860  136.0470 C   0  0  0  0  0  2  0  0  0  0  0  0
  183.6560  176.1040  135.5200 C   0  0  0  0  0  0  0  0  0  0  0  0
  185.1240  176.4250  135.5950 C   0  0  1  0  0  3  0  0  0  0  0  0
  183.2380  175.3220  134.6270 O   0  0  0  0  0  0  0  0  0  0  0  0
  182.3860  179.1240  139.2220 C   0  0  0  0  0  2  0  0  0  0  0  0
  183.2690  178.6380  140.3290 C   0  0  0  0  0  0  0  0  0  0  0  0
  184.5290  178.2760  140.0930 C   0  0  0  0  0  3  0  0  0  0  0  0
  183.1290  177.5370  137.4490 C   0  0  0  0  0  0  0  0  0  0  0  0
  185.1620  178.1810  138.7630 C   0  0  0  0  0  3  0  0  0  0  0  0
  184.5680  177.8920  137.5920 C   0  0  0  0  0  0  0  0  0  0  0  0
  182.8080  178.6060  141.6490 O   0  0  0  0  0  0  0  0  0  0  0  0
  182.8250  178.9840  144.0300 C   0  0  0  0  0  1  0  0  0  0  0  0
  183.6560  178.8100  142.7720 C   0  0  0  0  0  2  0  0  0  0  0  0
  187.8460  176.6710  138.3200 C   0  0  0  0  0  2  0  0  0  0  0  0
  190.6260  175.6360  139.1170 O   0  0  0  0  0  0  0  0  0  0  0  0
  188.4840  178.3960  140.0900 C   0  0  0  0  0  2  0  0  0  0  0  0
  191.0520  177.0890  143.2740 C   0  0  1  0  0  3  0  0  0  0  0  0
  190.8550  176.1530  142.0730 C   0  0  0  0  0  2  0  0  0  0  0  0
  190.0600  176.8350  141.0580 N   0  0  0  0  0  0  0  0  0  0  0  0
  189.0190  178.3970  142.5450 C   0  0  0  0  0  3  0  0  0  0  0  0
  189.1670  177.8980  141.3210 C   0  0  0  0  0  0  0  0  0  0  0  0
  189.7300  177.7480  143.7050 C   0  0  0  0  0  2  0  0  0  0  0  0
  188.9910  177.4460  138.9810 C   0  0  1  0  0  3  0  0  0  0  0  0
  189.9590  176.5430  139.6820 C   0  0  0  0  0  0  0  0  0  0  0  0
  191.7460  176.3880  144.4420 C   0  0  0  0  0  2  0  0  0  0  0  0
  191.0390  176.5960  145.7770 C   0  0  0  0  0  2  0  0  0  0  0  0
  191.9920  176.5140  146.8690 N   0  0  0  0  0  1  0  0  0  0  0  0
  1  5  1  1  0  0  0
  1 17  1  0  0  0  0
  2 12  1  0  0  0  0
  3 15  1  0  0  0  0
  4 21  1  1  0  0  0
  5  4  1  0  0  0  0
  6  7  1  0  0  0  0
  8  6  1  0  0  0  0
  8  4  1  0  0  0  0
  9  3  1  0  0  0  0
 10  9  1  1  0  0  0
 10  6  1  0  0  0  0
 10  1  1  0  0  0  0
 11  9  2  0  0  0  0
 12 13  1  0  0  0  0
 13 18  1  0  0  0  0
 14 13  2  0  0  0  0
 15 17  1  0  0  0  0
 15  2  2  0  0  0  0
 16 14  1  0  0  0  0
 17 16  2  0  0  0  0
 18 20  1  0  0  0  0
 20 19  1  0  0  0  0
 22 31  2  0  0  0  0
 23 28  1  0  0  0  0
 24 29  1  0  0  0  0
 24 32  1  1  0  0  0
 25 24  1  0  0  0  0
 26 28  1  0  0  0  0
 26 25  1  0  0  0  0
 27 29  1  0  0  0  0
 28 27  2  0  0  0  0
 30 21  1  1  0  0  0
 30 31  1  0  0  0  0
 30 23  1  0  0  0  0
 31 26  1  0  0  0  0
 32 33  1  0  0  0  0
 33 34  1  0  0  0  0
M  END
>  <MODEL>
9

>  <REMARK>
 VINA RESULT:      -6.6      2.942      8.002
  Name = 
  6 active torsions:
  status: ('A' for Active; 'I' for Inactive)
    1  A    between atoms: O_3  and  C_24
    2  A    between atoms: O_3  and  C_25
    3  A    between atoms: C_7  and  C_11
    4  A    between atoms: C_8  and  C_18
    5  A    between atoms: C_11  and  C_15
    6  A    between atoms: C_18  and  C_30
                            x       y       z     vdW  Elec       q    Type
                         _______ _______ _______ _____ _____    ______ ____

>  <TORSDO>
F 6

$$$$
