=
 OpenBabel10262419373D

 31 35  0  0  1  0  0  0  0  0999 V2000
  185.1410  178.3140  144.5550 C   0  0  2  0  0  3  0  0  0  0  0  0
  188.6830  177.6440  143.4210 C   0  0  0  0  0  0  0  0  0  0  0  0
  189.4200  177.5800  144.6240 C   0  0  0  0  0  0  0  0  0  0  0  0
  188.8170  176.8520  146.9070 C   0  0  0  0  0  3  0  0  0  0  0  0
  187.2550  177.8760  143.3600 N   0  0  0  0  0  0  0  0  0  0  0  0
  184.4570  178.4720  143.1950 C   0  0  0  0  0  2  0  0  0  0  0  0
  188.8000  177.9760  145.9280 C   0  0  0  0  0  2  0  0  0  0  0  0
  188.5760  177.6330  140.9380 C   0  0  2  0  0  3  0  0  0  0  0  0
  185.5030  179.6650  145.1480 C   0  0  0  0  0  1  0  0  0  0  0  0
  191.3870  177.1380  143.3430 N   0  0  0  0  0  0  0  0  0  0  0  0
  189.9440  176.3330  147.3880 C   0  0  0  0  0  3  0  0  0  0  0  0
  187.5560  178.5880  141.1140 O   0  0  0  0  0  0  0  0  0  0  0  0
  189.3700  177.5180  142.2110 C   0  0  0  0  0  0  0  0  0  0  0  0
  186.3760  177.4210  144.4400 C   0  0  0  0  0  2  0  0  0  0  0  0
  191.3010  176.7300  146.9680 C   0  0  0  0  0  3  0  0  0  0  0  0
  186.6350  178.0490  142.0330 C   0  0  2  0  0  3  0  0  0  0  0  0
  185.4330  178.9800  142.1360 C   0  0  0  0  0  2  0  0  0  0  0  0
  190.7000  177.2480  142.2070 N   0  0  0  0  0  0  0  0  0  0  0  0
  190.7990  177.2870  144.5590 C   0  0  0  0  0  0  0  0  0  0  0  0
  191.6640  177.1470  145.7500 C   0  0  0  0  0  3  0  0  0  0  0  0
  189.4590  178.0420  139.7600 C   0  0  0  0  0  2  0  0  0  0  0  0
  191.1330  176.7380  138.3570 C   0  0  0  0  0  1  0  0  0  0  0  0
  189.6730  176.9110  138.7520 C   0  0  2  0  0  3  0  0  0  0  0  0
  186.4310  177.0800  136.0320 C   0  0  2  0  0  3  0  0  0  0  0  0
  188.3320  178.1730  137.1610 C   0  0  0  0  0  3  0  0  0  0  0  0
  188.8260  174.5250  136.9330 C   0  0  0  0  0  1  0  0  0  0  0  0
  185.2960  177.1900  134.6220 S   0  0  0  0  0  1  0  0  0  0  0  0
  187.2810  178.3420  136.1000 C   0  0  0  0  0  2  0  0  0  0  0  0
  187.9230  175.7340  137.1010 C   0  0  1  0  0  3  0  0  0  0  0  0
  188.7010  176.9570  137.5950 C   0  0  0  0  0  0  0  0  0  0  0  0
  187.2800  175.9740  135.8650 O   0  0  0  0  0  0  0  0  0  0  0  0
  1  9  1  6  0  0  0
  2  3  1  0  0  0  0
  3  7  1  0  0  0  0
  4 11  2  0  0  0  0
  5  2  1  0  0  0  0
  5 14  1  0  0  0  0
  6  1  1  0  0  0  0
  7  4  1  0  0  0  0
  8 21  1  6  0  0  0
  8 12  1  0  0  0  0
  8 13  1  0  0  0  0
 10 19  1  0  0  0  0
 12 16  1  0  0  0  0
 13  2  2  0  0  0  0
 14  1  1  0  0  0  0
 15 11  1  0  0  0  0
 16 17  1  1  0  0  0
 16  5  1  0  0  0  0
 17  6  1  0  0  0  0
 18 13  1  0  0  0  0
 18 10  2  0  0  0  0
 19  3  2  0  0  0  0
 19 20  1  0  0  0  0
 20 15  2  0  0  0  0
 23 22  1  6  0  0  0
 23 21  1  0  0  0  0
 24 27  1  6  0  0  0
 24 28  1  0  0  0  0
 25 30  2  0  0  0  0
 28 25  1  0  0  0  0
 29 26  1  6  0  0  0
 29 30  1  0  0  0  0
 30 23  1  0  0  0  0
 31 24  1  0  0  0  0
 31 29  1  0  0  0  0
M  END
>  <MODEL>
1

>  <REMARK>
 VINA RESULT:      -9.7      0.000      0.000
  Name = 
  3 active torsions:
  status: ('A' for Active; 'I' for Inactive)
    1  A    between atoms: C_9  and  C_22
    2  A    between atoms: C_9  and  C_23
    3  A    between atoms: C_15  and  C_23
                            x       y       z     vdW  Elec       q    Type
                         _______ _______ _______ _____ _____    ______ ____

>  <TORSDO>
F 3

$$$$
=
 OpenBabel10262419373D

 31 35  0  0  1  0  0  0  0  0999 V2000
  185.0750  178.2720  144.7990 C   0  0  2  0  0  3  0  0  0  0  0  0
  188.5360  177.8370  143.3480 C   0  0  0  0  0  0  0  0  0  0  0  0
  189.3690  177.7130  144.4820 C   0  0  0  0  0  0  0  0  0  0  0  0
  188.9760  176.7910  146.7400 C   0  0  0  0  0  3  0  0  0  0  0  0
  187.1010  178.0130  143.4150 N   0  0  0  0  0  0  0  0  0  0  0  0
  184.2800  178.5030  143.5120 C   0  0  0  0  0  2  0  0  0  0  0  0
  188.8420  177.9840  145.8570 C   0  0  0  0  0  2  0  0  0  0  0  0
  188.2330  178.0100  140.8870 C   0  0  2  0  0  3  0  0  0  0  0  0
  185.4350  179.5880  145.4670 C   0  0  0  0  0  1  0  0  0  0  0  0
  191.2420  177.4510  143.0230 N   0  0  0  0  0  0  0  0  0  0  0  0
  190.1560  176.2840  147.0910 C   0  0  0  0  0  3  0  0  0  0  0  0
  187.1970  178.9050  141.2150 O   0  0  0  0  0  0  0  0  0  0  0  0
  189.1290  177.8310  142.0820 C   0  0  0  0  0  0  0  0  0  0  0  0
  186.3280  177.4420  144.5200 C   0  0  0  0  0  2  0  0  0  0  0  0
  191.4600  176.7670  146.6010 C   0  0  0  0  0  3  0  0  0  0  0  0
  186.3720  178.2610  142.1570 C   0  0  2  0  0  3  0  0  0  0  0  0
  185.1490  179.1300  142.4250 C   0  0  0  0  0  2  0  0  0  0  0  0
  190.4640  177.6180  141.9550 N   0  0  0  0  0  0  0  0  0  0  0  0
  190.7480  177.4830  144.2890 C   0  0  0  0  0  0  0  0  0  0  0  0
  191.7100  177.2910  145.3950 C   0  0  0  0  0  3  0  0  0  0  0  0
  189.0040  178.5420  139.6800 C   0  0  0  0  0  2  0  0  0  0  0  0
  187.0990  177.4050  138.4360 C   0  0  0  0  0  1  0  0  0  0  0  0
  188.5130  177.9610  138.3530 C   0  0  2  0  0  3  0  0  0  0  0  0
  191.8130  175.9460  136.6240 C   0  0  2  0  0  3  0  0  0  0  0  0
  190.2700  176.2840  138.5170 C   0  0  0  0  0  3  0  0  0  0  0  0
  188.7050  177.2560  135.3220 C   0  0  0  0  0  1  0  0  0  0  0  0
  193.0130  174.8020  135.8890 S   0  0  0  0  0  1  0  0  0  0  0  0
  191.3850  175.4270  137.9900 C   0  0  0  0  0  2  0  0  0  0  0  0
  189.9210  177.1450  136.2250 C   0  0  1  0  0  3  0  0  0  0  0  0
  189.5220  177.0440  137.7000 C   0  0  0  0  0  0  0  0  0  0  0  0
  190.6810  176.0320  135.7990 O   0  0  0  0  0  0  0  0  0  0  0  0
  1  9  1  6  0  0  0
  2  5  1  0  0  0  0
  2  3  1  0  0  0  0
  3  7  1  0  0  0  0
  4 11  2  0  0  0  0
  5 14  1  0  0  0  0
  6  1  1  0  0  0  0
  7  4  1  0  0  0  0
  8 21  1  6  0  0  0
  8 12  1  0  0  0  0
  8 13  1  0  0  0  0
 10 19  1  0  0  0  0
 12 16  1  0  0  0  0
 13  2  2  0  0  0  0
 14  1  1  0  0  0  0
 15 11  1  0  0  0  0
 16 17  1  1  0  0  0
 16  5  1  0  0  0  0
 17  6  1  0  0  0  0
 18 13  1  0  0  0  0
 18 10  2  0  0  0  0
 19  3  2  0  0  0  0
 19 20  1  0  0  0  0
 20 15  2  0  0  0  0
 23 22  1  1  0  0  0
 23 21  1  0  0  0  0
 24 27  1  6  0  0  0
 24 28  1  0  0  0  0
 28 25  1  0  0  0  0
 29 26  1  6  0  0  0
 29 30  1  0  0  0  0
 30 23  1  0  0  0  0
 30 25  2  0  0  0  0
 31 29  1  0  0  0  0
 31 24  1  0  0  0  0
M  END
>  <MODEL>
2

>  <REMARK>
 VINA RESULT:      -9.3      1.858      2.456
  Name = 
  3 active torsions:
  status: ('A' for Active; 'I' for Inactive)
    1  A    between atoms: C_9  and  C_22
    2  A    between atoms: C_9  and  C_23
    3  A    between atoms: C_15  and  C_23
                            x       y       z     vdW  Elec       q    Type
                         _______ _______ _______ _____ _____    ______ ____

>  <TORSDO>
F 3

$$$$
=
 OpenBabel10262419373D

 31 35  0  0  1  0  0  0  0  0999 V2000
  185.7440  178.0390  146.6570 C   0  0  2  0  0  3  0  0  0  0  0  0
  187.2630  178.1110  143.1980 C   0  0  0  0  0  0  0  0  0  0  0  0
  188.6510  177.9920  143.4330 C   0  0  0  0  0  0  0  0  0  0  0  0
  189.9470  176.8560  145.2030 C   0  0  0  0  0  3  0  0  0  0  0  0
  186.2650  178.1200  144.2470 N   0  0  0  0  0  0  0  0  0  0  0  0
  184.2750  178.2810  146.3030 C   0  0  0  0  0  2  0  0  0  0  0  0
  189.2090  178.0920  144.8180 C   0  0  0  0  0  2  0  0  0  0  0  0
  185.3430  178.4420  141.6550 C   0  0  2  0  0  3  0  0  0  0  0  0
  186.4300  179.3300  147.0700 C   0  0  0  0  0  1  0  0  0  0  0  0
  189.0090  178.0570  141.0720 N   0  0  0  0  0  0  0  0  0  0  0  0
  191.0570  176.4580  144.5850 C   0  0  0  0  0  3  0  0  0  0  0  0
  184.7940  179.1870  142.7170 O   0  0  0  0  0  0  0  0  0  0  0  0
  186.8200  178.2710  141.8830 C   0  0  0  0  0  0  0  0  0  0  0  0
  186.4820  177.3800  145.4920 C   0  0  0  0  0  2  0  0  0  0  0  0
  191.6500  177.1210  143.4090 C   0  0  0  0  0  3  0  0  0  0  0  0
  184.8630  178.3820  143.8700 C   0  0  2  0  0  3  0  0  0  0  0  0
  184.1390  179.0860  145.0120 C   0  0  0  0  0  2  0  0  0  0  0  0
  187.7050  178.2190  140.8540 N   0  0  0  0  0  0  0  0  0  0  0  0
  189.5220  177.9340  142.3240 C   0  0  0  0  0  0  0  0  0  0  0  0
  190.9860  177.7630  142.4400 C   0  0  0  0  0  3  0  0  0  0  0  0
  185.0550  179.1520  140.3330 C   0  0  0  0  0  2  0  0  0  0  0  0
  184.6370  177.9510  138.1300 C   0  0  0  0  0  1  0  0  0  0  0  0
  184.0480  178.4030  139.4590 C   0  0  2  0  0  3  0  0  0  0  0  0
  180.5280  180.7360  139.7810 C   0  0  2  0  0  3  0  0  0  0  0  0
  182.6910  180.2710  138.6910 C   0  0  0  0  0  3  0  0  0  0  0  0
  181.2560  177.2170  140.1780 C   0  0  0  0  0  1  0  0  0  0  0  0
  178.9450  181.6020  139.6000 S   0  0  0  0  0  1  0  0  0  0  0  0
  181.4510  181.1180  138.6300 C   0  0  0  0  0  2  0  0  0  0  0  0
  181.4910  178.7170  140.1950 C   0  0  1  0  0  3  0  0  0  0  0  0
  182.7140  179.1070  139.3580 C   0  0  0  0  0  0  0  0  0  0  0  0
  180.3110  179.3500  139.7440 O   0  0  0  0  0  0  0  0  0  0  0  0
  1  9  1  6  0  0  0
  2  3  1  0  0  0  0
  2  5  1  0  0  0  0
  3  7  1  0  0  0  0
  5 14  1  0  0  0  0
  6  1  1  0  0  0  0
  7  4  1  0  0  0  0
  8 21  1  6  0  0  0
  8 13  1  0  0  0  0
  8 12  1  0  0  0  0
 10 19  1  0  0  0  0
 11  4  2  0  0  0  0
 12 16  1  0  0  0  0
 13  2  2  0  0  0  0
 14  1  1  0  0  0  0
 15 11  1  0  0  0  0
 16  5  1  0  0  0  0
 16 17  1  1  0  0  0
 17  6  1  0  0  0  0
 18 10  2  0  0  0  0
 18 13  1  0  0  0  0
 19 20  1  0  0  0  0
 19  3  2  0  0  0  0
 20 15  2  0  0  0  0
 23 22  1  6  0  0  0
 23 21  1  0  0  0  0
 24 27  1  6  0  0  0
 25 30  2  0  0  0  0
 28 25  1  0  0  0  0
 28 24  1  0  0  0  0
 29 26  1  6  0  0  0
 30 23  1  0  0  0  0
 30 29  1  0  0  0  0
 31 24  1  0  0  0  0
 31 29  1  0  0  0  0
M  END
>  <MODEL>
3

>  <REMARK>
 VINA RESULT:      -9.2      3.365      4.848
  Name = 
  3 active torsions:
  status: ('A' for Active; 'I' for Inactive)
    1  A    between atoms: C_9  and  C_22
    2  A    between atoms: C_9  and  C_23
    3  A    between atoms: C_15  and  C_23
                            x       y       z     vdW  Elec       q    Type
                         _______ _______ _______ _____ _____    ______ ____

>  <TORSDO>
F 3

$$$$
=
 OpenBabel10262419373D

 31 35  0  0  1  0  0  0  0  0999 V2000
  189.7060  176.2810  136.4980 C   0  0  2  0  0  3  0  0  0  0  0  0
  188.2010  177.5900  139.7070 C   0  0  0  0  0  0  0  0  0  0  0  0
  186.9460  178.1030  139.3110 C   0  0  0  0  0  0  0  0  0  0  0  0
  185.3750  177.4550  137.5180 C   0  0  0  0  0  3  0  0  0  0  0  0
  189.1410  176.9660  138.7990 N   0  0  0  0  0  0  0  0  0  0  0  0
  191.0830  175.8550  137.0100 C   0  0  0  0  0  2  0  0  0  0  0  0
  186.5930  178.2400  137.8620 C   0  0  0  0  0  2  0  0  0  0  0  0
  189.9420  177.2100  141.4400 C   0  0  2  0  0  3  0  0  0  0  0  0
  189.7580  177.6630  135.8670 C   0  0  0  0  0  1  0  0  0  0  0  0
  186.5190  178.6910  141.5860 N   0  0  0  0  0  0  0  0  0  0  0  0
  184.1750  177.7270  138.0270 C   0  0  0  0  0  3  0  0  0  0  0  0
  190.8470  177.4360  140.3850 O   0  0  0  0  0  0  0  0  0  0  0  0
  188.5840  177.7220  141.0440 C   0  0  0  0  0  0  0  0  0  0  0  0
  188.6710  176.2340  137.6210 C   0  0  0  0  0  2  0  0  0  0  0  0
  183.9050  178.7630  139.0410 C   0  0  0  0  0  3  0  0  0  0  0  0
  190.4690  176.5920  139.3230 C   0  0  2  0  0  3  0  0  0  0  0  0
  191.5120  176.6870  138.2160 C   0  0  0  0  0  2  0  0  0  0  0  0
  187.7220  178.2520  141.9500 N   0  0  0  0  0  0  0  0  0  0  0  0
  186.0890  178.6330  140.2990 C   0  0  0  0  0  0  0  0  0  0  0  0
  184.7350  179.1560  140.0140 C   0  0  0  0  0  3  0  0  0  0  0  0
  190.4540  177.8940  142.7060 C   0  0  0  0  0  2  0  0  0  0  0  0
  191.0870  175.4870  143.2300 C   0  0  0  0  0  1  0  0  0  0  0  0
  190.9430  176.9040  143.7650 C   0  0  2  0  0  3  0  0  0  0  0  0
  188.9930  177.9420  147.3790 C   0  0  2  0  0  3  0  0  0  0  0  0
  188.8840  177.3130  144.9970 C   0  0  0  0  0  3  0  0  0  0  0  0
  191.9590  176.0350  146.5810 C   0  0  0  0  0  1  0  0  0  0  0  0
  188.0390  178.0540  148.9170 S   0  0  0  0  0  1  0  0  0  0  0  0
  188.0650  177.5700  146.2300 C   0  0  0  0  0  2  0  0  0  0  0  0
  190.8840  177.0970  146.4370 C   0  0  1  0  0  3  0  0  0  0  0  0
  190.1920  177.0180  145.0720 C   0  0  0  0  0  0  0  0  0  0  0  0
  189.9740  176.9460  147.5070 O   0  0  0  0  0  0  0  0  0  0  0  0
  1  9  1  1  0  0  0
  1  6  1  0  0  0  0
  1 14  1  0  0  0  0
  2 13  1  0  0  0  0
  3  2  2  0  0  0  0
  3 19  1  0  0  0  0
  4  7  1  0  0  0  0
  4 11  2  0  0  0  0
  5 16  1  0  0  0  0
  5  2  1  0  0  0  0
  6 17  1  0  0  0  0
  7  3  1  0  0  0  0
  8 21  1  1  0  0  0
 10 18  1  0  0  0  0
 11 15  1  0  0  0  0
 12  8  1  0  0  0  0
 13  8  1  0  0  0  0
 13 18  2  0  0  0  0
 14  5  1  0  0  0  0
 15 20  2  0  0  0  0
 16 17  1  6  0  0  0
 16 12  1  0  0  0  0
 19 10  2  0  0  0  0
 20 19  1  0  0  0  0
 21 23  1  0  0  0  0
 23 22  1  6  0  0  0
 23 30  1  0  0  0  0
 24 31  1  0  0  0  0
 24 27  1  1  0  0  0
 25 30  2  0  0  0  0
 25 28  1  0  0  0  0
 28 24  1  0  0  0  0
 29 26  1  6  0  0  0
 29 31  1  0  0  0  0
 30 29  1  0  0  0  0
M  END
>  <MODEL>
4

>  <REMARK>
 VINA RESULT:      -9.2      3.444      8.182
  Name = 
  3 active torsions:
  status: ('A' for Active; 'I' for Inactive)
    1  A    between atoms: C_9  and  C_22
    2  A    between atoms: C_9  and  C_23
    3  A    between atoms: C_15  and  C_23
                            x       y       z     vdW  Elec       q    Type
                         _______ _______ _______ _____ _____    ______ ____

>  <TORSDO>
F 3

$$$$
=
 OpenBabel10262419373D

 31 35  0  0  1  0  0  0  0  0999 V2000
  190.7090  176.9260  146.9230 C   0  0  2  0  0  3  0  0  0  0  0  0
  188.3560  177.5440  144.0320 C   0  0  0  0  0  0  0  0  0  0  0  0
  187.1040  177.7590  144.6510 C   0  0  0  0  0  0  0  0  0  0  0  0
  186.4730  178.7230  146.8360 C   0  0  0  0  0  3  0  0  0  0  0  0
  189.5800  177.2750  144.7580 N   0  0  0  0  0  0  0  0  0  0  0  0
  191.9900  176.6020  146.1530 C   0  0  0  0  0  2  0  0  0  0  0  0
  186.9130  177.4970  146.1120 C   0  0  0  0  0  2  0  0  0  0  0  0
  189.7520  177.2760  141.9930 C   0  0  2  0  0  3  0  0  0  0  0  0
  189.9850  175.6580  147.3430 C   0  0  0  0  0  1  0  0  0  0  0  0
  186.1460  178.1000  142.4900 N   0  0  0  0  0  0  0  0  0  0  0  0
  185.3050  179.3180  146.6010 C   0  0  0  0  0  3  0  0  0  0  0  0
  190.4490  176.3240  142.7620 O   0  0  0  0  0  0  0  0  0  0  0  0
  188.4200  177.5510  142.6360 C   0  0  0  0  0  0  0  0  0  0  0  0
  189.7930  177.8280  146.0970 C   0  0  0  0  0  2  0  0  0  0  0  0
  184.3460  178.9080  145.5590 C   0  0  0  0  0  3  0  0  0  0  0  0
  190.7890  176.9410  143.9820 C   0  0  2  0  0  3  0  0  0  0  0  0
  191.6810  176.0000  144.7830 C   0  0  0  0  0  2  0  0  0  0  0  0
  187.3150  177.8480  141.9050 N   0  0  0  0  0  0  0  0  0  0  0  0
  185.9930  178.0740  143.8400 C   0  0  0  0  0  0  0  0  0  0  0  0
  184.6450  178.3650  144.3730 C   0  0  0  0  0  3  0  0  0  0  0  0
  189.5910  176.7580  140.5650 C   0  0  0  0  0  2  0  0  0  0  0  0
  189.0560  178.5370  138.8270 C   0  0  0  0  0  1  0  0  0  0  0  0
  190.1430  177.7220  139.5130 C   0  0  2  0  0  3  0  0  0  0  0  0
  192.6540  175.2660  137.1470 C   0  0  2  0  0  3  0  0  0  0  0  0
  190.6970  176.7530  137.3510 C   0  0  0  0  0  3  0  0  0  0  0  0
  193.2250  177.5030  139.9300 C   0  0  0  0  0  1  0  0  0  0  0  0
  193.8180  174.5170  135.9750 S   0  0  0  0  0  1  0  0  0  0  0  0
  191.5580  175.9950  136.3800 C   0  0  0  0  0  2  0  0  0  0  0  0
  192.4880  176.5160  139.0410 C   0  0  1  0  0  3  0  0  0  0  0  0
  191.1370  177.0720  138.5790 C   0  0  0  0  0  0  0  0  0  0  0  0
  193.3320  176.1920  137.9550 O   0  0  0  0  0  0  0  0  0  0  0  0
  1  9  1  6  0  0  0
  2  3  1  0  0  0  0
  2  5  1  0  0  0  0
  3  7  1  0  0  0  0
  5 14  1  0  0  0  0
  6  1  1  0  0  0  0
  7  4  1  0  0  0  0
  8 21  1  6  0  0  0
  8 13  1  0  0  0  0
  8 12  1  0  0  0  0
 10 19  1  0  0  0  0
 11  4  2  0  0  0  0
 12 16  1  0  0  0  0
 13  2  2  0  0  0  0
 14  1  1  0  0  0  0
 15 11  1  0  0  0  0
 16  5  1  0  0  0  0
 16 17  1  1  0  0  0
 17  6  1  0  0  0  0
 18 10  2  0  0  0  0
 18 13  1  0  0  0  0
 19 20  1  0  0  0  0
 19  3  2  0  0  0  0
 20 15  2  0  0  0  0
 23 22  1  6  0  0  0
 23 21  1  0  0  0  0
 24 27  1  6  0  0  0
 24 31  1  0  0  0  0
 25 30  2  0  0  0  0
 28 24  1  0  0  0  0
 28 25  1  0  0  0  0
 29 26  1  1  0  0  0
 30 29  1  0  0  0  0
 30 23  1  0  0  0  0
 31 29  1  0  0  0  0
M  END
>  <MODEL>
5

>  <REMARK>
 VINA RESULT:      -9.1      2.726      4.980
  Name = 
  3 active torsions:
  status: ('A' for Active; 'I' for Inactive)
    1  A    between atoms: C_9  and  C_22
    2  A    between atoms: C_9  and  C_23
    3  A    between atoms: C_15  and  C_23
                            x       y       z     vdW  Elec       q    Type
                         _______ _______ _______ _____ _____    ______ ____

>  <TORSDO>
F 3

$$$$
=
 OpenBabel10262419373D

 31 35  0  0  1  0  0  0  0  0999 V2000
  190.7620  177.5080  145.1740 C   0  0  2  0  0  3  0  0  0  0  0  0
  187.7930  178.0680  142.9060 C   0  0  0  0  0  0  0  0  0  0  0  0
  186.6850  178.0530  143.7830 C   0  0  0  0  0  0  0  0  0  0  0  0
  186.4290  178.7150  146.1490 C   0  0  0  0  0  3  0  0  0  0  0  0
  189.1650  177.9010  143.3350 N   0  0  0  0  0  0  0  0  0  0  0  0
  191.8780  177.4330  144.1300 C   0  0  0  0  0  2  0  0  0  0  0  0
  186.8410  177.6320  145.2110 C   0  0  0  0  0  2  0  0  0  0  0  0
  188.7420  178.1820  140.6120 C   0  0  2  0  0  3  0  0  0  0  0  0
  190.2920  176.1200  145.5760 C   0  0  0  0  0  1  0  0  0  0  0  0
  185.2560  178.4600  141.9130 N   0  0  0  0  0  0  0  0  0  0  0  0
  185.1790  179.1650  146.2250 C   0  0  0  0  0  3  0  0  0  0  0  0
  189.6900  177.2660  141.1070 O   0  0  0  0  0  0  0  0  0  0  0  0
  187.5560  178.2130  141.5360 C   0  0  0  0  0  0  0  0  0  0  0  0
  189.5940  178.3500  144.6610 C   0  0  0  0  0  2  0  0  0  0  0  0
  184.0720  178.7280  145.3540 C   0  0  0  0  0  3  0  0  0  0  0  0
  190.2110  177.8070  142.2990 C   0  0  2  0  0  3  0  0  0  0  0  0
  191.3530  176.9250  142.7880 C   0  0  0  0  0  2  0  0  0  0  0  0
  186.2940  178.4250  141.0810 N   0  0  0  0  0  0  0  0  0  0  0  0
  185.3980  178.2880  143.2540 C   0  0  0  0  0  0  0  0  0  0  0  0
  184.1710  178.3430  144.0760 C   0  0  0  0  0  3  0  0  0  0  0  0
  188.3400  177.7830  139.1930 C   0  0  0  0  0  2  0  0  0  0  0  0
  189.0040  179.2860  137.2520 C   0  0  0  0  0  1  0  0  0  0  0  0
  189.4060  178.1260  138.1500 C   0  0  2  0  0  3  0  0  0  0  0  0
  190.3870  174.3490  136.5040 C   0  0  2  0  0  3  0  0  0  0  0  0
  189.2970  176.5520  136.2970 C   0  0  0  0  0  3  0  0  0  0  0  0
  192.1080  176.6650  138.6820 C   0  0  0  0  0  1  0  0  0  0  0  0
  191.0050  172.9190  135.5740 S   0  0  0  0  0  1  0  0  0  0  0  0
  189.6570  175.2940  135.5580 C   0  0  0  0  0  2  0  0  0  0  0  0
  190.9430  175.9340  138.0380 C   0  0  1  0  0  3  0  0  0  0  0  0
  189.9350  176.9100  137.4230 C   0  0  0  0  0  0  0  0  0  0  0  0
  191.4660  175.0350  137.0820 O   0  0  0  0  0  0  0  0  0  0  0  0
  1  9  1  6  0  0  0
  2  5  1  0  0  0  0
  2  3  1  0  0  0  0
  3  7  1  0  0  0  0
  4 11  2  0  0  0  0
  5 14  1  0  0  0  0
  6  1  1  0  0  0  0
  7  4  1  0  0  0  0
  8 21  1  6  0  0  0
  8 12  1  0  0  0  0
  8 13  1  0  0  0  0
 10 19  1  0  0  0  0
 12 16  1  0  0  0  0
 13  2  2  0  0  0  0
 14  1  1  0  0  0  0
 15 11  1  0  0  0  0
 16 17  1  1  0  0  0
 16  5  1  0  0  0  0
 17  6  1  0  0  0  0
 18 13  1  0  0  0  0
 18 10  2  0  0  0  0
 19  3  2  0  0  0  0
 19 20  1  0  0  0  0
 20 15  2  0  0  0  0
 23 22  1  6  0  0  0
 23 21  1  0  0  0  0
 24 27  1  6  0  0  0
 24 31  1  0  0  0  0
 25 30  2  0  0  0  0
 28 25  1  0  0  0  0
 28 24  1  0  0  0  0
 29 26  1  6  0  0  0
 30 29  1  0  0  0  0
 30 23  1  0  0  0  0
 31 29  1  0  0  0  0
M  END
>  <MODEL>
6

>  <REMARK>
 VINA RESULT:      -9.0      2.152      4.525
  Name = 
  3 active torsions:
  status: ('A' for Active; 'I' for Inactive)
    1  A    between atoms: C_9  and  C_22
    2  A    between atoms: C_9  and  C_23
    3  A    between atoms: C_15  and  C_23
                            x       y       z     vdW  Elec       q    Type
                         _______ _______ _______ _____ _____    ______ ____

>  <TORSDO>
F 3

$$$$
=
 OpenBabel10262419373D

 31 35  0  0  1  0  0  0  0  0999 V2000
  191.0390  177.0580  143.2370 C   0  0  2  0  0  3  0  0  0  0  0  0
  187.4810  178.0460  142.4390 C   0  0  0  0  0  0  0  0  0  0  0  0
  186.8040  177.9080  143.6720 C   0  0  0  0  0  0  0  0  0  0  0  0
  187.5430  178.1730  146.0140 C   0  0  0  0  0  3  0  0  0  0  0  0
  188.8930  177.7830  142.2600 N   0  0  0  0  0  0  0  0  0  0  0  0
  191.6520  177.1350  141.8370 C   0  0  0  0  0  2  0  0  0  0  0  0
  187.4660  177.2530  144.8440 C   0  0  0  0  0  2  0  0  0  0  0  0
  187.4720  178.5200  140.0000 C   0  0  2  0  0  3  0  0  0  0  0  0
  190.6470  175.6320  143.5870 C   0  0  0  0  0  1  0  0  0  0  0  0
  184.8000  178.6490  142.6020 N   0  0  0  0  0  0  0  0  0  0  0  0
  186.4620  178.6300  146.6430 C   0  0  0  0  0  3  0  0  0  0  0  0
  188.4570  177.5160  139.9400 O   0  0  0  0  0  0  0  0  0  0  0  0
  186.7440  178.4210  141.3120 C   0  0  0  0  0  0  0  0  0  0  0  0
  189.8400  177.9970  143.3570 C   0  0  0  0  0  2  0  0  0  0  0  0
  185.0720  178.3650  146.2300 C   0  0  0  0  0  3  0  0  0  0  0  0
  189.4430  177.8410  140.8920 C   0  0  2  0  0  3  0  0  0  0  0  0
  190.6070  176.8680  140.7560 C   0  0  0  0  0  2  0  0  0  0  0  0
  185.4280  178.7310  141.4310 N   0  0  0  0  0  0  0  0  0  0  0  0
  185.4370  178.2540  143.7360 C   0  0  0  0  0  0  0  0  0  0  0  0
  184.6350  178.1960  144.9760 C   0  0  0  0  0  3  0  0  0  0  0  0
  186.5190  178.3700  138.8150 C   0  0  0  0  0  2  0  0  0  0  0  0
  187.4350  178.6540  136.4590 C   0  0  0  0  0  1  0  0  0  0  0  0
  187.1680  177.6910  137.6070 C   0  0  2  0  0  3  0  0  0  0  0  0
  185.1700  173.9770  137.2250 C   0  0  2  0  0  3  0  0  0  0  0  0
  185.1440  176.4390  137.0970 C   0  0  0  0  0  3  0  0  0  0  0  0
  188.5350  175.1030  136.5350 C   0  0  0  0  0  1  0  0  0  0  0  0
  184.3010  172.4670  136.7180 S   0  0  0  0  0  1  0  0  0  0  0  0
  184.3450  175.1950  136.8290 C   0  0  0  0  0  2  0  0  0  0  0  0
  187.1810  175.0410  137.2190 C   0  0  1  0  0  3  0  0  0  0  0  0
  186.4820  176.4040  137.2120 C   0  0  0  0  0  0  0  0  0  0  0  0
  186.4130  174.0430  136.5760 O   0  0  0  0  0  0  0  0  0  0  0  0
  1 14  1  0  0  0  0
  1  9  1  6  0  0  0
  2  3  1  0  0  0  0
  3 19  2  0  0  0  0
  3  7  1  0  0  0  0
  4 11  2  0  0  0  0
  5  2  1  0  0  0  0
  5 14  1  0  0  0  0
  6  1  1  0  0  0  0
  7  4  1  0  0  0  0
  8 21  1  6  0  0  0
  8 13  1  0  0  0  0
 10 19  1  0  0  0  0
 12  8  1  0  0  0  0
 12 16  1  0  0  0  0
 13 18  1  0  0  0  0
 13  2  2  0  0  0  0
 15 11  1  0  0  0  0
 16 17  1  1  0  0  0
 16  5  1  0  0  0  0
 17  6  1  0  0  0  0
 18 10  2  0  0  0  0
 19 20  1  0  0  0  0
 20 15  2  0  0  0  0
 23 22  1  6  0  0  0
 23 21  1  0  0  0  0
 24 27  1  6  0  0  0
 25 30  2  0  0  0  0
 28 25  1  0  0  0  0
 28 24  1  0  0  0  0
 29 26  1  6  0  0  0
 30 29  1  0  0  0  0
 30 23  1  0  0  0  0
 31 29  1  0  0  0  0
 31 24  1  0  0  0  0
M  END
>  <MODEL>
7

>  <REMARK>
 VINA RESULT:      -9.0      2.010      4.299
  Name = 
  3 active torsions:
  status: ('A' for Active; 'I' for Inactive)
    1  A    between atoms: C_9  and  C_22
    2  A    between atoms: C_9  and  C_23
    3  A    between atoms: C_15  and  C_23
                            x       y       z     vdW  Elec       q    Type
                         _______ _______ _______ _____ _____    ______ ____

>  <TORSDO>
F 3

$$$$
=
 OpenBabel10262419373D

 31 35  0  0  1  0  0  0  0  0999 V2000
  190.8530  176.4940  143.6960 C   0  0  2  0  0  3  0  0  0  0  0  0
  188.5080  177.7520  141.0150 C   0  0  0  0  0  0  0  0  0  0  0  0
  189.2750  177.6820  139.8300 C   0  0  0  0  0  0  0  0  0  0  0  0
  191.0900  176.1680  139.1120 C   0  0  0  0  0  3  0  0  0  0  0  0
  188.9970  177.3550  142.3180 N   0  0  0  0  0  0  0  0  0  0  0  0
  189.9770  176.7100  144.9320 C   0  0  0  0  0  2  0  0  0  0  0  0
  190.7440  177.3970  139.8800 C   0  0  0  0  0  2  0  0  0  0  0  0
  186.4260  178.3810  142.2180 C   0  0  2  0  0  3  0  0  0  0  0  0
  191.8220  177.6470  143.5000 C   0  0  0  0  0  1  0  0  0  0  0  0
  187.3890  178.5000  138.6140 N   0  0  0  0  0  0  0  0  0  0  0  0
  190.9290  176.0730  137.7940 C   0  0  0  0  0  3  0  0  0  0  0  0
  187.2990  178.7150  143.2710 O   0  0  0  0  0  0  0  0  0  0  0  0
  187.2130  178.2720  140.9400 C   0  0  0  0  0  0  0  0  0  0  0  0
  189.9920  176.2880  142.4500 C   0  0  0  0  0  2  0  0  0  0  0  0
  190.3210  177.1130  136.9430 C   0  0  0  0  0  3  0  0  0  0  0  0
  188.1350  177.6030  143.4890 C   0  0  2  0  0  3  0  0  0  0  0  0
  188.9920  177.8590  144.7230 C   0  0  0  0  0  2  0  0  0  0  0  0
  186.6830  178.6120  139.7380 N   0  0  0  0  0  0  0  0  0  0  0  0
  188.6680  178.0400  138.6080 C   0  0  0  0  0  0  0  0  0  0  0  0
  189.3520  177.9640  137.2990 C   0  0  0  0  0  3  0  0  0  0  0  0
  185.3270  179.4370  142.1130 C   0  0  0  0  0  2  0  0  0  0  0  0
  184.3560  178.2670  144.1530 C   0  0  0  0  0  1  0  0  0  0  0  0
  184.0620  179.0620  142.8890 C   0  0  2  0  0  3  0  0  0  0  0  0
  181.1000  178.0600  140.0320 C   0  0  2  0  0  3  0  0  0  0  0  0
  183.3780  177.7820  140.9350 C   0  0  0  0  0  3  0  0  0  0  0  0
  181.0220  178.8740  143.5540 C   0  0  0  0  0  1  0  0  0  0  0  0
  179.8390  177.3130  138.9640 S   0  0  0  0  0  1  0  0  0  0  0  0
  182.3940  177.2640  139.9250 C   0  0  0  0  0  2  0  0  0  0  0  0
  181.5040  178.8850  142.1140 C   0  0  1  0  0  3  0  0  0  0  0  0
  182.9780  178.4830  142.0080 C   0  0  0  0  0  0  0  0  0  0  0  0
  180.6630  178.0310  141.3660 O   0  0  0  0  0  0  0  0  0  0  0  0
  1  9  1  6  0  0  0
  1  6  1  0  0  0  0
  2  5  1  0  0  0  0
  3  7  1  0  0  0  0
  3  2  2  0  0  0  0
  4  7  1  0  0  0  0
  5 14  1  0  0  0  0
  5 16  1  0  0  0  0
  8 21  1  6  0  0  0
  8 12  1  0  0  0  0
 10 18  1  0  0  0  0
 11  4  2  0  0  0  0
 12 16  1  0  0  0  0
 13  2  1  0  0  0  0
 13  8  1  0  0  0  0
 14  1  1  0  0  0  0
 15 20  2  0  0  0  0
 15 11  1  0  0  0  0
 16 17  1  1  0  0  0
 17  6  1  0  0  0  0
 18 13  2  0  0  0  0
 19 10  2  0  0  0  0
 19  3  1  0  0  0  0
 20 19  1  0  0  0  0
 21 23  1  0  0  0  0
 23 22  1  1  0  0  0
 24 27  1  6  0  0  0
 24 31  1  0  0  0  0
 25 30  2  0  0  0  0
 28 24  1  0  0  0  0
 28 25  1  0  0  0  0
 29 26  1  1  0  0  0
 30 29  1  0  0  0  0
 30 23  1  0  0  0  0
 31 29  1  0  0  0  0
M  END
>  <MODEL>
8

>  <REMARK>
 VINA RESULT:      -8.7      2.736      6.634
  Name = 
  3 active torsions:
  status: ('A' for Active; 'I' for Inactive)
    1  A    between atoms: C_9  and  C_22
    2  A    between atoms: C_9  and  C_23
    3  A    between atoms: C_15  and  C_23
                            x       y       z     vdW  Elec       q    Type
                         _______ _______ _______ _____ _____    ______ ____

>  <TORSDO>
F 3

$$$$
=
 OpenBabel10262419373D

 31 35  0  0  1  0  0  0  0  0999 V2000
  190.4110  177.6040  141.6360 C   0  0  2  0  0  3  0  0  0  0  0  0
  187.1640  178.1090  143.4990 C   0  0  0  0  0  0  0  0  0  0  0  0
  187.4660  177.7200  144.8240 C   0  0  0  0  0  0  0  0  0  0  0  0
  189.5470  177.8170  146.1510 C   0  0  0  0  0  3  0  0  0  0  0  0
  188.1220  178.0940  142.4150 N   0  0  0  0  0  0  0  0  0  0  0  0
  189.9540  177.9420  140.2160 C   0  0  0  0  0  2  0  0  0  0  0  0
  188.7600  177.0430  145.1500 C   0  0  0  0  0  2  0  0  0  0  0  0
  185.5390  178.8630  141.7760 C   0  0  2  0  0  3  0  0  0  0  0  0
  190.4040  176.1030  141.8730 C   0  0  0  0  0  1  0  0  0  0  0  0
  185.2230  178.2600  145.4450 N   0  0  0  0  0  0  0  0  0  0  0  0
  189.1250  178.0200  147.3980 C   0  0  0  0  0  3  0  0  0  0  0  0
  186.2850  178.0410  140.9100 O   0  0  0  0  0  0  0  0  0  0  0  0
  185.8540  178.4950  143.2000 C   0  0  0  0  0  0  0  0  0  0  0  0
  189.5460  178.3220  142.6710 C   0  0  0  0  0  2  0  0  0  0  0  0
  187.8160  177.5920  147.9240 C   0  0  0  0  0  3  0  0  0  0  0  0
  187.6390  178.4000  141.0550 C   0  0  2  0  0  3  0  0  0  0  0  0
  188.4680  177.6450  140.0230 C   0  0  0  0  0  2  0  0  0  0  0  0
  184.9260  178.5790  144.1870 N   0  0  0  0  0  0  0  0  0  0  0  0
  186.4630  177.8370  145.8090 C   0  0  0  0  0  0  0  0  0  0  0  0
  186.6720  177.5070  147.2350 C   0  0  0  0  0  3  0  0  0  0  0  0
  184.0510  178.7070  141.4710 C   0  0  0  0  0  2  0  0  0  0  0  0
  183.7630  179.6740  139.1360 C   0  0  0  0  0  1  0  0  0  0  0  0
  183.7690  178.4180  139.9950 C   0  0  2  0  0  3  0  0  0  0  0  0
  180.6670  175.5360  140.0510 C   0  0  2  0  0  3  0  0  0  0  0  0
  181.4280  177.8620  140.3560 C   0  0  0  0  0  3  0  0  0  0  0  0
  183.5870  176.0450  137.9810 C   0  0  0  0  0  1  0  0  0  0  0  0
  179.2100  174.4850  139.8010 S   0  0  0  0  0  1  0  0  0  0  0  0
  180.2210  176.9670  140.3190 C   0  0  0  0  0  2  0  0  0  0  0  0
  182.7160  176.0780  139.2250 C   0  0  1  0  0  3  0  0  0  0  0  0
  182.5880  177.4980  139.7870 C   0  0  0  0  0  0  0  0  0  0  0  0
  181.4610  175.5200  138.8940 O   0  0  0  0  0  0  0  0  0  0  0  0
  1  9  1  1  0  0  0
  1 14  1  0  0  0  0
  2  3  1  0  0  0  0
  3  7  1  0  0  0  0
  3 19  2  0  0  0  0
  4 11  2  0  0  0  0
  5 14  1  0  0  0  0
  5  2  1  0  0  0  0
  6  1  1  0  0  0  0
  7  4  1  0  0  0  0
  8 21  1  6  0  0  0
  8 13  1  0  0  0  0
 10 19  1  0  0  0  0
 11 15  1  0  0  0  0
 12 16  1  0  0  0  0
 12  8  1  0  0  0  0
 13  2  2  0  0  0  0
 13 18  1  0  0  0  0
 16 17  1  6  0  0  0
 16  5  1  0  0  0  0
 17  6  1  0  0  0  0
 18 10  2  0  0  0  0
 19 20  1  0  0  0  0
 20 15  2  0  0  0  0
 23 22  1  6  0  0  0
 23 21  1  0  0  0  0
 24 27  1  6  0  0  0
 24 28  1  0  0  0  0
 28 25  1  0  0  0  0
 29 26  1  6  0  0  0
 29 30  1  0  0  0  0
 30 23  1  0  0  0  0
 30 25  2  0  0  0  0
 31 29  1  0  0  0  0
 31 24  1  0  0  0  0
M  END
>  <MODEL>
9

>  <REMARK>
 VINA RESULT:      -8.6      3.183      5.316
  Name = 
  3 active torsions:
  status: ('A' for Active; 'I' for Inactive)
    1  A    between atoms: C_9  and  C_22
    2  A    between atoms: C_9  and  C_23
    3  A    between atoms: C_15  and  C_23
                            x       y       z     vdW  Elec       q    Type
                         _______ _______ _______ _____ _____    ______ ____

>  <TORSDO>
F 3

$$$$
