=
 OpenBabel10262420443D

 28 31  0  0  1  0  0  0  0  0999 V2000
  187.8040  178.2510  138.7730 C   0  0  0  0  0  0  0  0  0  0  0  0
  186.5960  178.1620  138.0130 N   0  0  0  0  0  2  0  0  0  0  0  0
  190.4040  177.8830  140.3550 C   0  0  0  0  0  2  0  0  0  0  0  0
  188.8630  176.5180  141.8560 C   0  0  0  0  0  2  0  0  0  0  0  0
  189.9300  176.6520  138.1640 C   0  0  0  0  0  2  0  0  0  0  0  0
  187.8580  177.7350  139.9690 N   0  0  0  0  0  0  0  0  0  0  0  0
  189.8030  177.8390  137.4060 O   0  0  0  0  0  0  0  0  0  0  0  0
  188.7340  178.6480  142.0810 C   0  0  0  0  0  2  0  0  0  0  0  0
  190.8580  176.8000  139.3730 C   0  0  0  0  0  2  0  0  0  0  0  0
  188.5940  177.4630  143.0200 C   0  0  1  0  0  3  0  0  0  0  0  0
  189.0280  178.8090  138.0990 C   0  0  0  0  0  2  0  0  0  0  0  0
  188.9840  177.7040  140.9200 C   0  0  2  0  0  0  0  0  0  0  0  0
  185.3990  177.4810  138.5000 C   0  0  2  0  0  3  0  0  0  0  0  0
  182.5700  177.6030  137.8410 C   0  0  0  0  0  2  0  0  0  0  0  0
  184.8570  176.5700  137.3890 C   0  0  0  0  0  2  0  0  0  0  0  0
  184.8970  179.7380  139.4270 N   0  0  0  0  0  1  0  0  0  0  0  0
  184.3180  178.4890  138.9520 C   0  0  1  0  0  3  0  0  0  0  0  0
  183.4080  178.7380  137.9070 O   0  0  0  0  0  0  0  0  0  0  0  0
  183.3570  176.3090  137.5410 C   0  0  0  0  0  2  0  0  0  0  0  0
  187.1670  177.3530  143.4630 C   0  0  0  0  0  3  0  0  0  0  0  0
  186.7420  177.3470  144.7310 C   0  0  0  0  0  3  0  0  0  0  0  0
  188.0220  178.5910  148.1470 C   0  0  0  0  0  2  0  0  0  0  0  0
  187.5630  177.4680  145.9490 C   0  0  0  0  0  0  0  0  0  0  0  0
  189.7420  177.2130  147.0400 C   0  0  0  0  0  0  0  0  0  0  0  0
  186.9860  177.8410  147.2990 C   0  0  0  0  0  2  0  0  0  0  0  0
  188.8530  177.1130  145.8670 C   0  0  0  0  0  3  0  0  0  0  0  0
  191.0200  176.5910  147.0160 N   0  0  0  0  0  1  0  0  0  0  0  0
  189.3390  177.8660  148.1360 C   0  0  0  0  0  3  0  0  0  0  0  0
  1  6  2  0  0  0  0
  2  1  1  0  0  0  0
  4 10  1  0  0  0  0
  5  9  1  0  0  0  0
  6 12  1  0  0  0  0
  7 11  1  0  0  0  0
  7  5  1  0  0  0  0
  8 10  1  0  0  0  0
  9  3  1  0  0  0  0
 10 20  1  6  0  0  0
 11  1  1  0  0  0  0
 12  3  1  6  0  0  0
 12  4  1  0  0  0  0
 12  8  1  0  0  0  0
 13  2  1  6  0  0  0
 13 17  1  0  0  0  0
 14 18  1  0  0  0  0
 15 19  1  0  0  0  0
 15 13  1  0  0  0  0
 17 16  1  6  0  0  0
 18 17  1  0  0  0  0
 19 14  1  0  0  0  0
 20 21  2  0  0  0  0
 21 23  1  0  0  0  0
 23 25  1  0  0  0  0
 24 28  2  0  0  0  0
 25 22  1  0  0  0  0
 26 23  2  0  0  0  0
 26 24  1  0  0  0  0
 27 24  1  0  0  0  0
 28 22  1  0  0  0  0
M  END
>  <MODEL>
1

>  <REMARK>
 VINA RESULT:      -8.6      0.000      0.000
  Name = 
  3 active torsions:
  status: ('A' for Active; 'I' for Inactive)
    1  A    between atoms: N_2  and  C_3
    2  A    between atoms: C_9  and  C_18
    3  A    between atoms: C_14  and  C_25
                            x       y       z     vdW  Elec       q    Type
                         _______ _______ _______ _____ _____    ______ ____

>  <TORSDO>
F 3

$$$$
=
 OpenBabel10262420443D

 28 31  0  0  1  0  0  0  0  0999 V2000
  188.7220  175.7560  136.7150 C   0  0  0  0  0  0  0  0  0  0  0  0
  187.5060  175.1220  136.3090 N   0  0  0  0  0  2  0  0  0  0  0  0
  191.4100  176.6530  137.8860 C   0  0  0  0  0  2  0  0  0  0  0  0
  190.1250  176.3890  140.0700 C   0  0  0  0  0  2  0  0  0  0  0  0
  191.0150  174.2980  136.9680 C   0  0  0  0  0  2  0  0  0  0  0  0
  188.8920  176.0960  137.9630 N   0  0  0  0  0  0  0  0  0  0  0  0
  190.7000  174.7490  135.6650 O   0  0  0  0  0  0  0  0  0  0  0  0
  189.7240  178.1840  138.9650 C   0  0  0  0  0  2  0  0  0  0  0  0
  191.9620  175.2340  137.7230 C   0  0  0  0  0  2  0  0  0  0  0  0
  189.7800  177.8250  140.4400 C   0  0  1  0  0  3  0  0  0  0  0  0
  189.8330  175.8740  135.7070 C   0  0  0  0  0  2  0  0  0  0  0  0
  190.0500  176.7480  138.6000 C   0  0  2  0  0  0  0  0  0  0  0  0
  186.4310  174.7940  137.2420 C   0  0  2  0  0  3  0  0  0  0  0  0
  183.7910  173.6040  136.9780 C   0  0  0  0  0  2  0  0  0  0  0  0
  186.2950  173.2670  137.3300 C   0  0  0  0  0  2  0  0  0  0  0  0
  185.2910  176.6710  136.0660 N   0  0  0  0  0  1  0  0  0  0  0  0
  185.0930  175.4350  136.8110 C   0  0  1  0  0  3  0  0  0  0  0  0
  184.3310  174.5240  136.0540 O   0  0  0  0  0  0  0  0  0  0  0  0
  184.8880  172.8390  137.7530 C   0  0  0  0  0  2  0  0  0  0  0  0
  188.4000  177.9000  141.0170 C   0  0  0  0  0  3  0  0  0  0  0  0
  188.0960  177.8890  142.3200 C   0  0  0  0  0  3  0  0  0  0  0  0
  191.3920  177.6960  144.3090 C   0  0  0  0  0  2  0  0  0  0  0  0
  189.0350  177.8260  143.4550 C   0  0  0  0  0  0  0  0  0  0  0  0
  189.4800  177.1630  145.7710 C   0  0  0  0  0  0  0  0  0  0  0  0
  190.4030  178.4740  143.4300 C   0  0  0  0  0  2  0  0  0  0  0  0
  188.5970  177.2700  144.5930 C   0  0  0  0  0  3  0  0  0  0  0  0
  188.9320  176.8220  147.0390 N   0  0  0  0  0  1  0  0  0  0  0  0
  190.7890  177.4090  145.6560 C   0  0  0  0  0  3  0  0  0  0  0  0
  1  6  2  0  0  0  0
  2  1  1  0  0  0  0
  4 10  1  0  0  0  0
  5  9  1  0  0  0  0
  6 12  1  0  0  0  0
  7 11  1  0  0  0  0
  7  5  1  0  0  0  0
  8 10  1  0  0  0  0
  9  3  1  0  0  0  0
 10 20  1  6  0  0  0
 11  1  1  0  0  0  0
 12  3  1  6  0  0  0
 12  8  1  0  0  0  0
 12  4  1  0  0  0  0
 13  2  1  6  0  0  0
 13 15  1  0  0  0  0
 14 19  1  0  0  0  0
 15 19  1  0  0  0  0
 17 16  1  6  0  0  0
 17 13  1  0  0  0  0
 18 17  1  0  0  0  0
 18 14  1  0  0  0  0
 20 21  2  0  0  0  0
 21 23  1  0  0  0  0
 22 28  1  0  0  0  0
 23 26  2  0  0  0  0
 24 27  1  0  0  0  0
 25 23  1  0  0  0  0
 25 22  1  0  0  0  0
 26 24  1  0  0  0  0
 28 24  2  0  0  0  0
M  END
>  <MODEL>
2

>  <REMARK>
 VINA RESULT:      -7.9      2.417      3.393
  Name = 
  3 active torsions:
  status: ('A' for Active; 'I' for Inactive)
    1  A    between atoms: N_2  and  C_3
    2  A    between atoms: C_9  and  C_18
    3  A    between atoms: C_14  and  C_25
                            x       y       z     vdW  Elec       q    Type
                         _______ _______ _______ _____ _____    ______ ____

>  <TORSDO>
F 3

$$$$
=
 OpenBabel10262420443D

 28 31  0  0  1  0  0  0  0  0999 V2000
  186.6910  178.1210  137.3540 C   0  0  0  0  0  0  0  0  0  0  0  0
  185.2860  177.9980  137.1180 N   0  0  0  0  0  2  0  0  0  0  0  0
  189.6950  177.8280  137.8920 C   0  0  0  0  0  2  0  0  0  0  0  0
  188.8300  176.7570  140.0360 C   0  0  0  0  0  2  0  0  0  0  0  0
  188.4340  176.3460  136.2330 C   0  0  0  0  0  2  0  0  0  0  0  0
  187.1900  177.7660  138.5050 N   0  0  0  0  0  0  0  0  0  0  0  0
  188.0310  177.4270  135.4160 O   0  0  0  0  0  0  0  0  0  0  0  0
  188.7940  178.9030  139.9870 C   0  0  0  0  0  2  0  0  0  0  0  0
  189.7470  176.6020  136.9770 C   0  0  0  0  0  2  0  0  0  0  0  0
  189.0160  177.8610  141.0690 C   0  0  1  0  0  3  0  0  0  0  0  0
  187.5730  178.5200  136.2010 C   0  0  0  0  0  2  0  0  0  0  0  0
  188.5910  177.8010  138.9640 C   0  0  2  0  0  0  0  0  0  0  0  0
  184.3600  177.4520  138.1060 C   0  0  2  0  0  3  0  0  0  0  0  0
  181.5440  177.8560  138.7070 C   0  0  0  0  0  2  0  0  0  0  0  0
  183.3170  176.5850  137.3860 C   0  0  0  0  0  2  0  0  0  0  0  0
  184.5020  179.7620  139.0260 N   0  0  0  0  0  1  0  0  0  0  0  0
  183.6690  178.5730  138.9150 C   0  0  1  0  0  3  0  0  0  0  0  0
  182.4240  178.8980  138.3440 O   0  0  0  0  0  0  0  0  0  0  0  0
  182.0100  176.4820  138.1760 C   0  0  0  0  0  2  0  0  0  0  0  0
  187.8600  177.8870  142.0210 C   0  0  0  0  0  3  0  0  0  0  0  0
  187.9470  177.8520  143.3560 C   0  0  0  0  0  3  0  0  0  0  0  0
  191.6800  177.8820  144.3140 C   0  0  0  0  0  2  0  0  0  0  0  0
  189.1750  177.8060  144.1710 C   0  0  0  0  0  0  0  0  0  0  0  0
  190.3260  177.0090  146.1810 C   0  0  0  0  0  0  0  0  0  0  0  0
  190.4140  178.6100  143.8390 C   0  0  0  0  0  2  0  0  0  0  0  0
  189.1350  177.1100  145.3150 C   0  0  0  0  0  3  0  0  0  0  0  0
  190.1990  176.5020  147.5040 N   0  0  0  0  0  1  0  0  0  0  0  0
  191.5190  177.4160  145.7340 C   0  0  0  0  0  3  0  0  0  0  0  0
  1  6  2  0  0  0  0
  2  1  1  0  0  0  0
  4 10  1  0  0  0  0
  5  9  1  0  0  0  0
  6 12  1  0  0  0  0
  7 11  1  0  0  0  0
  7  5  1  0  0  0  0
  8 10  1  0  0  0  0
  9  3  1  0  0  0  0
 10 20  1  1  0  0  0
 11  1  1  0  0  0  0
 12  3  1  6  0  0  0
 12  8  1  0  0  0  0
 12  4  1  0  0  0  0
 13  2  1  6  0  0  0
 13 17  1  0  0  0  0
 15 13  1  0  0  0  0
 15 19  1  0  0  0  0
 17 16  1  6  0  0  0
 18 14  1  0  0  0  0
 18 17  1  0  0  0  0
 19 14  1  0  0  0  0
 20 21  2  0  0  0  0
 21 23  1  0  0  0  0
 22 28  1  0  0  0  0
 23 26  2  0  0  0  0
 24 27  1  0  0  0  0
 25 23  1  0  0  0  0
 25 22  1  0  0  0  0
 26 24  1  0  0  0  0
 28 24  2  0  0  0  0
M  END
>  <MODEL>
3

>  <REMARK>
 VINA RESULT:      -7.3      1.562      2.276
  Name = 
  3 active torsions:
  status: ('A' for Active; 'I' for Inactive)
    1  A    between atoms: N_2  and  C_3
    2  A    between atoms: C_9  and  C_18
    3  A    between atoms: C_14  and  C_25
                            x       y       z     vdW  Elec       q    Type
                         _______ _______ _______ _____ _____    ______ ____

>  <TORSDO>
F 3

$$$$
=
 OpenBabel10262420443D

 28 31  0  0  1  0  0  0  0  0999 V2000
  183.0850  176.7580  138.4720 C   0  0  0  0  0  0  0  0  0  0  0  0
  183.6250  175.8730  137.4870 N   0  0  0  0  0  2  0  0  0  0  0  0
  182.1480  179.0590  140.2690 C   0  0  0  0  0  2  0  0  0  0  0  0
  184.6570  179.4760  140.4140 C   0  0  0  0  0  2  0  0  0  0  0  0
  181.9360  179.1160  137.7210 C   0  0  0  0  0  2  0  0  0  0  0  0
  183.8870  177.4730  139.2110 N   0  0  0  0  0  0  0  0  0  0  0  0
  181.1090  177.9700  137.6620 O   0  0  0  0  0  0  0  0  0  0  0  0
  183.9060  177.8820  141.6390 C   0  0  0  0  0  2  0  0  0  0  0  0
  181.8040  179.8940  139.0330 C   0  0  0  0  0  2  0  0  0  0  0  0
  185.0210  178.9040  141.7780 C   0  0  1  0  0  3  0  0  0  0  0  0
  181.5920  176.9450  138.5190 C   0  0  0  0  0  2  0  0  0  0  0  0
  183.5580  178.4420  140.2730 C   0  0  2  0  0  0  0  0  0  0  0  0
  185.0570  175.7470  137.2320 C   0  0  2  0  0  3  0  0  0  0  0  0
  186.6570  174.5570  135.1160 C   0  0  0  0  0  2  0  0  0  0  0  0
  185.4240  176.6020  136.0100 C   0  0  0  0  0  2  0  0  0  0  0  0
  184.5930  173.3480  137.7170 N   0  0  0  0  0  1  0  0  0  0  0  0
  185.4640  174.2730  137.0060 C   0  0  1  0  0  3  0  0  0  0  0  0
  185.4800  173.9710  135.6300 O   0  0  0  0  0  0  0  0  0  0  0  0
  186.6820  176.0900  135.3070 C   0  0  0  0  0  2  0  0  0  0  0  0
  186.3420  178.2010  141.7150 C   0  0  0  0  0  3  0  0  0  0  0  0
  187.0640  177.8000  142.7680 C   0  0  0  0  0  3  0  0  0  0  0  0
  185.3830  179.0650  145.9970 C   0  0  0  0  0  2  0  0  0  0  0  0
  186.7170  177.9370  144.1940 C   0  0  0  0  0  0  0  0  0  0  0  0
  187.3840  177.7310  146.5420 C   0  0  0  0  0  0  0  0  0  0  0  0
  185.3240  178.2920  144.6720 C   0  0  0  0  0  2  0  0  0  0  0  0
  187.6530  177.6130  145.0950 C   0  0  0  0  0  3  0  0  0  0  0  0
  188.2750  177.1390  147.4790 N   0  0  0  0  0  1  0  0  0  0  0  0
  186.2920  178.3710  146.9730 C   0  0  0  0  0  3  0  0  0  0  0  0
  1 11  1  0  0  0  0
  1  6  2  0  0  0  0
  2  1  1  0  0  0  0
  4 10  1  0  0  0  0
  5  9  1  0  0  0  0
  6 12  1  0  0  0  0
  7  5  1  0  0  0  0
  7 11  1  0  0  0  0
  8 10  1  0  0  0  0
  9  3  1  0  0  0  0
 10 20  1  6  0  0  0
 12  3  1  6  0  0  0
 12  4  1  0  0  0  0
 12  8  1  0  0  0  0
 13  2  1  6  0  0  0
 14 19  1  0  0  0  0
 14 18  1  0  0  0  0
 15 13  1  0  0  0  0
 17 13  1  0  0  0  0
 17 16  1  1  0  0  0
 18 17  1  0  0  0  0
 19 15  1  0  0  0  0
 20 21  2  0  0  0  0
 21 23  1  0  0  0  0
 22 28  1  0  0  0  0
 23 25  1  0  0  0  0
 23 26  2  0  0  0  0
 24 28  2  0  0  0  0
 24 27  1  0  0  0  0
 25 22  1  0  0  0  0
 26 24  1  0  0  0  0
M  END
>  <MODEL>
4

>  <REMARK>
 VINA RESULT:      -7.2      2.851      5.133
  Name = 
  3 active torsions:
  status: ('A' for Active; 'I' for Inactive)
    1  A    between atoms: N_2  and  C_3
    2  A    between atoms: C_9  and  C_18
    3  A    between atoms: C_14  and  C_25
                            x       y       z     vdW  Elec       q    Type
                         _______ _______ _______ _____ _____    ______ ____

>  <TORSDO>
F 3

$$$$
=
 OpenBabel10262420443D

 28 31  0  0  1  0  0  0  0  0999 V2000
  189.2830  175.6800  137.3020 C   0  0  0  0  0  0  0  0  0  0  0  0
  190.3160  174.8230  136.8070 N   0  0  0  0  0  2  0  0  0  0  0  0
  187.3880  177.9300  138.1650 C   0  0  0  0  0  2  0  0  0  0  0  0
  189.4310  178.6280  139.5190 C   0  0  0  0  0  2  0  0  0  0  0  0
  188.5050  177.8650  135.8650 C   0  0  0  0  0  2  0  0  0  0  0  0
  189.5380  176.5070  138.2770 N   0  0  0  0  0  0  0  0  0  0  0  0
  187.9140  176.6330  135.5000 O   0  0  0  0  0  0  0  0  0  0  0  0
  188.2820  177.0090  140.3340 C   0  0  0  0  0  2  0  0  0  0  0  0
  187.6630  178.6740  136.8560 C   0  0  0  0  0  2  0  0  0  0  0  0
  189.0880  178.1520  140.9250 C   0  0  1  0  0  3  0  0  0  0  0  0
  187.9680  175.7020  136.5710 C   0  0  0  0  0  2  0  0  0  0  0  0
  188.6400  177.4740  138.9360 C   0  0  2  0  0  0  0  0  0  0  0  0
  191.6820  174.8470  137.3230 C   0  0  2  0  0  3  0  0  0  0  0  0
  194.3100  175.2010  136.1280 C   0  0  0  0  0  2  0  0  0  0  0  0
  192.2460  176.2680  137.1790 C   0  0  0  0  0  2  0  0  0  0  0  0
  191.8280  172.6850  136.0930 N   0  0  0  0  0  1  0  0  0  0  0  0
  192.5820  173.8290  136.5860 C   0  0  1  0  0  3  0  0  0  0  0  0
  193.2720  174.4530  135.5290 O   0  0  0  0  0  0  0  0  0  0  0  0
  193.7730  176.2760  137.1000 C   0  0  0  0  0  2  0  0  0  0  0  0
  190.3050  177.5990  141.6010 C   0  0  0  0  0  3  0  0  0  0  0  0
  190.3780  177.2050  142.8770 C   0  0  0  0  0  3  0  0  0  0  0  0
  186.8450  177.3390  144.4100 C   0  0  0  0  0  2  0  0  0  0  0  0
  189.2940  177.2070  143.8760 C   0  0  0  0  0  0  0  0  0  0  0  0
  188.5470  177.7010  146.1570 C   0  0  0  0  0  0  0  0  0  0  0  0
  187.9310  176.6020  143.6130 C   0  0  0  0  0  2  0  0  0  0  0  0
  189.5810  177.6600  145.1040 C   0  0  0  0  0  3  0  0  0  0  0  0
  188.9220  177.9270  147.5100 N   0  0  0  0  0  1  0  0  0  0  0  0
  187.2620  177.5030  145.8450 C   0  0  0  0  0  3  0  0  0  0  0  0
  1  6  2  0  0  0  0
  2  1  1  0  0  0  0
  4 10  1  0  0  0  0
  5  9  1  0  0  0  0
  6 12  1  0  0  0  0
  7  5  1  0  0  0  0
  7 11  1  0  0  0  0
  8 10  1  0  0  0  0
  9  3  1  0  0  0  0
 10 20  1  1  0  0  0
 11  1  1  0  0  0  0
 12  3  1  6  0  0  0
 12  4  1  0  0  0  0
 12  8  1  0  0  0  0
 13  2  1  6  0  0  0
 14 19  1  0  0  0  0
 15 13  1  0  0  0  0
 17 16  1  6  0  0  0
 17 13  1  0  0  0  0
 18 14  1  0  0  0  0
 18 17  1  0  0  0  0
 19 15  1  0  0  0  0
 20 21  2  0  0  0  0
 21 23  1  0  0  0  0
 22 28  1  0  0  0  0
 23 26  2  0  0  0  0
 24 27  1  0  0  0  0
 25 23  1  0  0  0  0
 25 22  1  0  0  0  0
 26 24  1  0  0  0  0
 28 24  2  0  0  0  0
M  END
>  <MODEL>
5

>  <REMARK>
 VINA RESULT:      -7.2      2.893      5.696
  Name = 
  3 active torsions:
  status: ('A' for Active; 'I' for Inactive)
    1  A    between atoms: N_2  and  C_3
    2  A    between atoms: C_9  and  C_18
    3  A    between atoms: C_14  and  C_25
                            x       y       z     vdW  Elec       q    Type
                         _______ _______ _______ _____ _____    ______ ____

>  <TORSDO>
F 3

$$$$
=
 OpenBabel10262420443D

 28 31  0  0  1  0  0  0  0  0999 V2000
  189.5600  177.9080  138.8110 C   0  0  0  0  0  0  0  0  0  0  0  0
  189.4370  178.0660  140.2270 N   0  0  0  0  0  2  0  0  0  0  0  0
  189.4200  177.1880  135.8340 C   0  0  0  0  0  2  0  0  0  0  0  0
  190.0400  174.8890  136.7410 C   0  0  0  0  0  2  0  0  0  0  0  0
  187.3360  177.5720  137.2670 C   0  0  0  0  0  2  0  0  0  0  0  0
  189.9790  176.7750  138.3190 N   0  0  0  0  0  0  0  0  0  0  0  0
  187.6780  178.9060  137.5890 O   0  0  0  0  0  0  0  0  0  0  0  0
  191.6550  176.2940  136.5810 C   0  0  0  0  0  2  0  0  0  0  0  0
  187.8930  177.1110  135.9170 C   0  0  0  0  0  2  0  0  0  0  0  0
  191.5280  174.7880  136.4280 C   0  0  1  0  0  3  0  0  0  0  0  0
  189.0550  179.0140  137.9260 C   0  0  0  0  0  2  0  0  0  0  0  0
  190.1770  176.3890  136.9090 C   0  0  2  0  0  0  0  0  0  0  0  0
  189.7280  176.9940  141.1750 C   0  0  2  0  0  3  0  0  0  0  0  0
  190.5750  176.9000  143.9550 C   0  0  0  0  0  2  0  0  0  0  0  0
  188.6570  176.9970  142.2760 C   0  0  0  0  0  2  0  0  0  0  0  0
  192.0590  177.8210  140.8830 N   0  0  0  0  0  1  0  0  0  0  0  0
  191.1380  177.1470  141.7880 C   0  0  1  0  0  3  0  0  0  0  0  0
  191.0700  177.8310  143.0170 O   0  0  0  0  0  0  0  0  0  0  0  0
  189.1700  176.3780  143.5780 C   0  0  0  0  0  2  0  0  0  0  0  0
  192.2540  174.1170  137.5530 C   0  0  0  0  0  3  0  0  0  0  0  0
  193.5550  173.8060  137.5680 C   0  0  0  0  0  3  0  0  0  0  0  0
  196.0230  173.2200  134.6660 C   0  0  0  0  0  2  0  0  0  0  0  0
  194.5480  174.0700  136.5110 C   0  0  0  0  0  0  0  0  0  0  0  0
  196.3930  175.4430  135.6660 C   0  0  0  0  0  0  0  0  0  0  0  0
  194.5890  173.3000  135.2070 C   0  0  0  0  0  2  0  0  0  0  0  0
  195.3660  175.1180  136.6750 C   0  0  0  0  0  3  0  0  0  0  0  0
  197.0660  176.6950  135.7170 N   0  0  0  0  0  1  0  0  0  0  0  0
  196.6730  174.5750  134.6880 C   0  0  0  0  0  3  0  0  0  0  0  0
  1  2  1  0  0  0  0
  3  9  1  0  0  0  0
  4 12  1  0  0  0  0
  5  7  1  0  0  0  0
  6  1  2  0  0  0  0
  7 11  1  0  0  0  0
  8 12  1  0  0  0  0
  9  5  1  0  0  0  0
 10  8  1  0  0  0  0
 10  4  1  0  0  0  0
 10 20  1  1  0  0  0
 11  1  1  0  0  0  0
 12  3  1  6  0  0  0
 12  6  1  0  0  0  0
 13  2  1  6  0  0  0
 13 17  1  0  0  0  0
 13 15  1  0  0  0  0
 15 19  1  0  0  0  0
 17 16  1  6  0  0  0
 17 18  1  0  0  0  0
 18 14  1  0  0  0  0
 19 14  1  0  0  0  0
 20 21  2  0  0  0  0
 22 28  1  0  0  0  0
 22 25  1  0  0  0  0
 23 26  2  0  0  0  0
 23 21  1  0  0  0  0
 24 27  1  0  0  0  0
 24 26  1  0  0  0  0
 25 23  1  0  0  0  0
 28 24  2  0  0  0  0
M  END
>  <MODEL>
6

>  <REMARK>
 VINA RESULT:      -7.1      4.334      8.899
  Name = 
  3 active torsions:
  status: ('A' for Active; 'I' for Inactive)
    1  A    between atoms: N_2  and  C_3
    2  A    between atoms: C_9  and  C_18
    3  A    between atoms: C_14  and  C_25
                            x       y       z     vdW  Elec       q    Type
                         _______ _______ _______ _____ _____    ______ ____

>  <TORSDO>
F 3

$$$$
=
 OpenBabel10262420443D

 28 31  0  0  1  0  0  0  0  0999 V2000
  188.2320  176.0210  137.2440 C   0  0  0  0  0  0  0  0  0  0  0  0
  188.4620  174.7540  136.6220 N   0  0  0  0  0  2  0  0  0  0  0  0
  188.2520  178.8610  138.3980 C   0  0  0  0  0  2  0  0  0  0  0  0
  190.2500  177.9300  139.6760 C   0  0  0  0  0  2  0  0  0  0  0  0
  189.0710  178.3190  136.0370 C   0  0  0  0  0  2  0  0  0  0  0  0
  188.9580  176.3830  138.2650 N   0  0  0  0  0  0  0  0  0  0  0  0
  187.8230  177.8080  135.6110 O   0  0  0  0  0  0  0  0  0  0  0  0
  188.3200  177.3690  140.4290 C   0  0  0  0  0  2  0  0  0  0  0  0
  188.9520  179.3760  137.1380 C   0  0  0  0  0  2  0  0  0  0  0  0
  189.6730  177.6520  141.0580 C   0  0  1  0  0  3  0  0  0  0  0  0
  187.2520  176.9630  136.6000 C   0  0  0  0  0  2  0  0  0  0  0  0
  188.9020  177.6290  139.0530 C   0  0  2  0  0  0  0  0  0  0  0  0
  189.5120  173.8350  137.0530 C   0  0  2  0  0  3  0  0  0  0  0  0
  191.8240  172.6290  135.7680 C   0  0  0  0  0  2  0  0  0  0  0  0
  190.8510  174.5860  137.0820 C   0  0  0  0  0  2  0  0  0  0  0  0
  188.3160  172.2780  135.5200 N   0  0  0  0  0  1  0  0  0  0  0  0
  189.6000  172.6020  136.1260 C   0  0  1  0  0  3  0  0  0  0  0  0
  190.5760  172.8010  135.1310 O   0  0  0  0  0  0  0  0  0  0  0  0
  192.0430  173.6420  136.9140 C   0  0  0  0  0  2  0  0  0  0  0  0
  190.2330  176.3780  141.6130 C   0  0  0  0  0  3  0  0  0  0  0  0
  190.1800  175.9930  142.8930 C   0  0  0  0  0  3  0  0  0  0  0  0
  189.6100  177.4540  146.4140 C   0  0  0  0  0  2  0  0  0  0  0  0
  189.5510  176.7120  144.0160 C   0  0  0  0  0  0  0  0  0  0  0  0
  187.5110  177.5000  145.1200 C   0  0  0  0  0  0  0  0  0  0  0  0
  190.3480  177.4550  145.0680 C   0  0  0  0  0  2  0  0  0  0  0  0
  188.2150  176.8030  144.0250 C   0  0  0  0  0  3  0  0  0  0  0  0
  186.1320  177.8200  144.9850 N   0  0  0  0  0  1  0  0  0  0  0  0
  188.1720  177.8530  146.2270 C   0  0  0  0  0  3  0  0  0  0  0  0
  1  6  2  0  0  0  0
  2  1  1  0  0  0  0
  4 10  1  0  0  0  0
  5  9  1  0  0  0  0
  6 12  1  0  0  0  0
  7  5  1  0  0  0  0
  7 11  1  0  0  0  0
  8 10  1  0  0  0  0
  9  3  1  0  0  0  0
 10 20  1  6  0  0  0
 11  1  1  0  0  0  0
 12  3  1  6  0  0  0
 12  4  1  0  0  0  0
 12  8  1  0  0  0  0
 13  2  1  6  0  0  0
 13 15  1  0  0  0  0
 14 19  1  0  0  0  0
 17 16  1  6  0  0  0
 17 13  1  0  0  0  0
 18 14  1  0  0  0  0
 18 17  1  0  0  0  0
 19 15  1  0  0  0  0
 20 21  2  0  0  0  0
 21 23  1  0  0  0  0
 23 26  2  0  0  0  0
 23 25  1  0  0  0  0
 24 28  2  0  0  0  0
 25 22  1  0  0  0  0
 26 24  1  0  0  0  0
 27 24  1  0  0  0  0
 28 22  1  0  0  0  0
M  END
>  <MODEL>
7

>  <REMARK>
 VINA RESULT:      -7.1      2.955      5.098
  Name = 
  3 active torsions:
  status: ('A' for Active; 'I' for Inactive)
    1  A    between atoms: N_2  and  C_3
    2  A    between atoms: C_9  and  C_18
    3  A    between atoms: C_14  and  C_25
                            x       y       z     vdW  Elec       q    Type
                         _______ _______ _______ _____ _____    ______ ____

>  <TORSDO>
F 3

$$$$
=
 OpenBabel10262420443D

 28 31  0  0  1  0  0  0  0  0999 V2000
  190.4200  177.3390  140.4780 C   0  0  0  0  0  0  0  0  0  0  0  0
  190.7520  176.7160  139.2340 N   0  0  0  0  0  2  0  0  0  0  0  0
  189.5160  178.1700  143.2870 C   0  0  0  0  0  2  0  0  0  0  0  0
  187.2540  177.4340  142.3750 C   0  0  0  0  0  2  0  0  0  0  0  0
  190.7950  176.0030  142.8270 C   0  0  0  0  0  2  0  0  0  0  0  0
  189.1710  177.4550  140.8320 N   0  0  0  0  0  0  0  0  0  0  0  0
  191.9270  176.6630  142.2960 O   0  0  0  0  0  0  0  0  0  0  0  0
  187.9260  179.3730  141.7460 C   0  0  0  0  0  2  0  0  0  0  0  0
  190.0270  176.8420  143.8520 C   0  0  0  0  0  2  0  0  0  0  0  0
  186.5710  178.7550  142.0470 C   0  0  1  0  0  3  0  0  0  0  0  0
  191.5420  177.7070  141.4110 C   0  0  0  0  0  2  0  0  0  0  0  0
  188.6010  178.0510  142.0560 C   0  0  2  0  0  0  0  0  0  0  0  0
  189.7480  176.1590  138.3320 C   0  0  2  0  0  3  0  0  0  0  0  0
  189.5300  175.8720  135.4460 C   0  0  0  0  0  2  0  0  0  0  0  0
  190.3190  174.8980  137.6670 C   0  0  0  0  0  2  0  0  0  0  0  0
  189.4310  178.5580  137.7410 N   0  0  0  0  0  1  0  0  0  0  0  0
  189.3150  177.1880  137.2630 C   0  0  1  0  0  3  0  0  0  0  0  0
  190.0620  177.0160  136.0810 O   0  0  0  0  0  0  0  0  0  0  0  0
  189.6530  174.6050  136.3220 C   0  0  0  0  0  2  0  0  0  0  0  0
  185.7900  178.6390  140.7740 C   0  0  0  0  0  3  0  0  0  0  0  0
  184.4580  178.5750  140.6780 C   0  0  0  0  0  3  0  0  0  0  0  0
  181.1380  179.0550  142.5760 C   0  0  0  0  0  2  0  0  0  0  0  0
  183.4800  178.6280  141.7800 C   0  0  0  0  0  0  0  0  0  0  0  0
  183.0240  178.9790  144.1620 C   0  0  0  0  0  0  0  0  0  0  0  0
  182.0210  178.2580  141.6060 C   0  0  0  0  0  2  0  0  0  0  0  0
  183.9410  178.9010  143.0080 C   0  0  0  0  0  3  0  0  0  0  0  0
  183.5480  179.0030  145.4830 N   0  0  0  0  0  1  0  0  0  0  0  0
  181.7010  179.0030  143.9690 C   0  0  0  0  0  3  0  0  0  0  0  0
  1  6  2  0  0  0  0
  1 11  1  0  0  0  0
  2  1  1  0  0  0  0
  3  9  1  0  0  0  0
  5  9  1  0  0  0  0
  6 12  1  0  0  0  0
  7  5  1  0  0  0  0
  8 10  1  0  0  0  0
 10 20  1  6  0  0  0
 10  4  1  0  0  0  0
 11  7  1  0  0  0  0
 12  8  1  6  0  0  0
 12  4  1  0  0  0  0
 12  3  1  0  0  0  0
 13  2  1  1  0  0  0
 14 18  1  0  0  0  0
 14 19  1  0  0  0  0
 15 13  1  0  0  0  0
 17 16  1  1  0  0  0
 17 13  1  0  0  0  0
 18 17  1  0  0  0  0
 19 15  1  0  0  0  0
 21 20  2  0  0  0  0
 21 23  1  0  0  0  0
 22 28  1  0  0  0  0
 23 26  2  0  0  0  0
 24 27  1  0  0  0  0
 25 23  1  0  0  0  0
 25 22  1  0  0  0  0
 26 24  1  0  0  0  0
 28 24  2  0  0  0  0
M  END
>  <MODEL>
8

>  <REMARK>
 VINA RESULT:      -6.9      3.289      5.498
  Name = 
  3 active torsions:
  status: ('A' for Active; 'I' for Inactive)
    1  A    between atoms: N_2  and  C_3
    2  A    between atoms: C_9  and  C_18
    3  A    between atoms: C_14  and  C_25
                            x       y       z     vdW  Elec       q    Type
                         _______ _______ _______ _____ _____    ______ ____

>  <TORSDO>
F 3

$$$$
=
 OpenBabel10262420443D

 28 31  0  0  1  0  0  0  0  0999 V2000
  188.5810  177.9930  141.1370 C   0  0  0  0  0  0  0  0  0  0  0  0
  189.2690  177.6260  139.9390 N   0  0  0  0  0  2  0  0  0  0  0  0
  186.9210  178.2520  143.7020 C   0  0  0  0  0  2  0  0  0  0  0  0
  185.0340  177.6470  142.1000 C   0  0  0  0  0  2  0  0  0  0  0  0
  188.4330  176.2450  143.2270 C   0  0  0  0  0  2  0  0  0  0  0  0
  187.2770  178.0090  141.1580 N   0  0  0  0  0  0  0  0  0  0  0  0
  189.6110  177.0220  143.1440 O   0  0  0  0  0  0  0  0  0  0  0  0
  185.6990  179.6860  142.0270 C   0  0  0  0  0  2  0  0  0  0  0  0
  187.3650  176.8540  144.1390 C   0  0  0  0  0  2  0  0  0  0  0  0
  184.3630  178.9890  141.8390 C   0  0  1  0  0  3  0  0  0  0  0  0
  189.3920  178.2050  142.3870 C   0  0  0  0  0  2  0  0  0  0  0  0
  186.3680  178.3460  142.2690 C   0  0  2  0  0  0  0  0  0  0  0  0
  188.5780  177.2250  138.7160 C   0  0  2  0  0  3  0  0  0  0  0  0
  189.3960  176.7660  135.9640 C   0  0  0  0  0  2  0  0  0  0  0  0
  189.0550  175.8230  138.3090 C   0  0  0  0  0  2  0  0  0  0  0  0
  189.0550  179.5830  138.0700 N   0  0  0  0  0  1  0  0  0  0  0  0
  188.8200  178.2350  137.5720 C   0  0  1  0  0  3  0  0  0  0  0  0
  189.8950  177.8170  136.7640 O   0  0  0  0  0  0  0  0  0  0  0  0
  188.8930  175.5740  136.8090 C   0  0  0  0  0  2  0  0  0  0  0  0
  183.9490  179.0970  140.4040 C   0  0  0  0  0  3  0  0  0  0  0  0
  182.7030  178.9580  139.9370 C   0  0  0  0  0  3  0  0  0  0  0  0
  180.0830  179.1300  142.7580 C   0  0  0  0  0  2  0  0  0  0  0  0
  181.4810  178.6960  140.7190 C   0  0  0  0  0  0  0  0  0  0  0  0
  179.6800  177.1550  141.3390 C   0  0  0  0  0  0  0  0  0  0  0  0
  180.7910  179.7580  141.5500 C   0  0  0  0  0  2  0  0  0  0  0  0
  180.9020  177.4960  140.5830 C   0  0  0  0  0  3  0  0  0  0  0  0
  178.9330  175.9960  140.9910 N   0  0  0  0  0  1  0  0  0  0  0  0
  179.2610  177.9450  142.3320 C   0  0  0  0  0  3  0  0  0  0  0  0
  1  6  2  0  0  0  0
  1 11  1  0  0  0  0
  2  1  1  0  0  0  0
  3  9  1  0  0  0  0
  4 12  1  0  0  0  0
  5  9  1  0  0  0  0
  6 12  1  0  0  0  0
  7  5  1  0  0  0  0
 10 20  1  6  0  0  0
 10  8  1  0  0  0  0
 10  4  1  0  0  0  0
 11  7  1  0  0  0  0
 12  8  1  6  0  0  0
 12  3  1  0  0  0  0
 13  2  1  1  0  0  0
 14 18  1  0  0  0  0
 14 19  1  0  0  0  0
 15 13  1  0  0  0  0
 17 16  1  1  0  0  0
 17 13  1  0  0  0  0
 18 17  1  0  0  0  0
 19 15  1  0  0  0  0
 21 20  2  0  0  0  0
 21 23  1  0  0  0  0
 23 25  1  0  0  0  0
 24 28  2  0  0  0  0
 25 22  1  0  0  0  0
 26 23  2  0  0  0  0
 26 24  1  0  0  0  0
 27 24  1  0  0  0  0
 28 22  1  0  0  0  0
M  END
>  <MODEL>
9

>  <REMARK>
 VINA RESULT:      -6.8      3.139      6.691
  Name = 
  3 active torsions:
  status: ('A' for Active; 'I' for Inactive)
    1  A    between atoms: N_2  and  C_3
    2  A    between atoms: C_9  and  C_18
    3  A    between atoms: C_14  and  C_25
                            x       y       z     vdW  Elec       q    Type
                         _______ _______ _______ _____ _____    ______ ____

>  <TORSDO>
F 3

$$$$
