=
 OpenBabel10252414553D

 34 38  0  0  1  0  0  0  0  0999 V2000
  190.1990  176.1830  137.6390 C   0  0  0  0  0  0  0  0  0  0  0  0
  192.5760  176.5980  138.4240 C   0  0  0  0  0  0  0  0  0  0  0  0
  190.6140  177.2710  139.7820 C   0  0  0  0  0  0  0  0  0  0  0  0
  191.9170  178.3990  143.2600 C   0  0  0  0  0  1  0  0  0  0  0  0
  193.0830  176.1900  137.3460 O   0  0  0  0  0  0  0  0  0  0  0  0
  193.0060  177.4790  140.6090 C   0  0  0  0  0  3  0  0  0  0  0  0
  191.1060  176.6920  138.5940 C   0  0  0  0  0  0  0  0  0  0  0  0
  191.0170  177.7010  142.2400 C   0  0  1  0  0  0  0  0  0  0  0  0
  189.2270  177.3640  140.0170 C   0  0  0  0  0  0  0  0  0  0  0  0
  188.8220  176.2600  137.8910 C   0  0  0  0  0  3  0  0  0  0  0  0
  193.4400  176.9410  139.5110 N   0  0  0  0  0  0  0  0  0  0  0  0
  189.6810  178.4410  142.2690 C   0  0  0  0  0  2  0  0  0  0  0  0
  188.7390  177.9340  141.2620 N   0  0  0  0  0  0  0  0  0  0  0  0
  191.5580  177.8630  140.8000 C   0  0  2  0  0  3  0  0  0  0  0  0
  188.3450  176.8350  139.0660 C   0  0  0  0  0  3  0  0  0  0  0  0
  185.1320  179.0400  140.9510 C   0  0  0  0  0  0  0  0  0  0  0  0
  184.5120  178.5200  142.2130 C   0  0  0  0  0  2  0  0  0  0  0  0
  187.3380  178.1350  141.5380 C   0  0  0  0  0  0  0  0  0  0  0  0
  185.5670  178.4020  143.3080 C   0  0  0  0  0  2  0  0  0  0  0  0
  186.5580  178.8030  140.6740 C   0  0  0  0  0  3  0  0  0  0  0  0
  186.7520  177.5730  142.8120 C   0  0  0  0  0  2  0  0  0  0  0  0
  184.4240  179.6500  140.1100 O   0  0  0  0  0  0  0  0  0  0  0  0
  190.3500  176.0970  135.1650 C   0  0  0  0  0  1  0  0  0  0  0  0
  190.6710  175.5980  136.4560 O   0  0  0  0  0  0  0  0  0  0  0  0
  190.7570  176.3500  142.5950 O   0  0  0  0  0  0  0  0  0  0  0  0
  189.8580  176.2830  143.6720 C   0  0  0  0  0  2  0  0  0  0  0  0
  190.6290  176.3620  144.9740 C   0  0  0  0  0  2  0  0  0  0  0  0
  191.6460  176.9960  147.6050 O   0  0  0  0  0  1  0  0  0  0  0  0
  189.9120  177.2780  145.9520 C   0  0  2  0  0  3  0  0  0  0  0  0
  190.2670  176.9290  147.4030 C   0  0  2  0  0  3  0  0  0  0  0  0
  188.1240  178.1080  148.0250 C   0  0  0  0  0  3  0  0  0  0  0  0
  187.6030  177.7900  146.8310 C   0  0  0  0  0  3  0  0  0  0  0  0
  188.4070  177.1120  145.7530 C   0  0  0  0  0  2  0  0  0  0  0  0
  189.5820  177.9130  148.3490 C   0  0  0  0  0  2  0  0  0  0  0  0
  1 10  2  0  0  0  0
  1  7  1  0  0  0  0
  2  7  1  0  0  0  0
  2 11  1  0  0  0  0
  3  9  1  0  0  0  0
  3 14  1  0  0  0  0
  5  2  2  0  0  0  0
  7  3  2  0  0  0  0
  8 12  1  0  0  0  0
  8 25  1  0  0  0  0
  8  4  1  1  0  0  0
  9 13  1  0  0  0  0
 10 15  1  0  0  0  0
 11  6  2  0  0  0  0
 13 18  1  0  0  0  0
 13 12  1  0  0  0  0
 14  6  1  1  0  0  0
 14  8  1  0  0  0  0
 15  9  2  0  0  0  0
 16 17  1  0  0  0  0
 17 19  1  0  0  0  0
 18 21  1  0  0  0  0
 20 16  1  0  0  0  0
 20 18  2  0  0  0  0
 21 19  1  0  0  0  0
 22 16  2  0  0  0  0
 23 24  1  0  0  0  0
 24  1  1  0  0  0  0
 25 26  1  0  0  0  0
 26 27  1  0  0  0  0
 29 27  1  6  0  0  0
 29 30  1  0  0  0  0
 30 28  1  6  0  0  0
 30 34  1  0  0  0  0
 31 34  1  0  0  0  0
 32 31  2  0  0  0  0
 33 29  1  0  0  0  0
 33 32  1  0  0  0  0
M  END
>  <MODEL>
1

>  <REMARK>
 VINA RESULT:      -8.9      0.000      0.000
  Name = 
  6 active torsions:
  status: ('A' for Active; 'I' for Inactive)
    1  A    between atoms: C_1  and  O_19
    2  A    between atoms: C_3  and  C_13
    3  A    between atoms: C_3  and  C_17
    4  A    between atoms: C_12  and  N_28
    5  A    between atoms: C_17  and  O_29
    6  A    between atoms: C_18  and  O_29
                            x       y       z     vdW  Elec       q    Type
                         _______ _______ _______ _____ _____    ______ ____

>  <TORSDO>
F 6

$$$$
=
 OpenBabel10252414553D

 34 38  0  0  1  0  0  0  0  0999 V2000
  188.8040  173.7080  136.4500 C   0  0  0  0  0  0  0  0  0  0  0  0
  191.3260  173.7830  136.7160 C   0  0  0  0  0  0  0  0  0  0  0  0
  189.8550  175.5190  137.7010 C   0  0  0  0  0  0  0  0  0  0  0  0
  192.0430  177.7520  140.0010 C   0  0  0  0  0  1  0  0  0  0  0  0
  191.5100  172.7940  135.9560 O   0  0  0  0  0  0  0  0  0  0  0  0
  192.3610  175.4350  138.1050 C   0  0  0  0  0  3  0  0  0  0  0  0
  189.9690  174.3390  136.9360 C   0  0  0  0  0  0  0  0  0  0  0  0
  190.8340  176.9290  139.5560 C   0  0  1  0  0  0  0  0  0  0  0  0
  188.5920  176.0830  137.9690 C   0  0  0  0  0  0  0  0  0  0  0  0
  187.5500  174.2640  136.7420 C   0  0  0  0  0  3  0  0  0  0  0  0
  192.4460  174.3490  137.4020 N   0  0  0  0  0  0  0  0  0  0  0  0
  189.7020  177.9250  139.3160 C   0  0  0  0  0  2  0  0  0  0  0  0
  188.4910  177.2800  138.7880 N   0  0  0  0  0  0  0  0  0  0  0  0
  191.0860  176.2390  138.1940 C   0  0  2  0  0  3  0  0  0  0  0  0
  187.4470  175.4290  137.4960 C   0  0  0  0  0  3  0  0  0  0  0  0
  185.6470  179.0470  140.5520 C   0  0  0  0  0  0  0  0  0  0  0  0
  184.6660  179.2920  139.4470 C   0  0  0  0  0  2  0  0  0  0  0  0
  187.2440  177.9580  139.0380 C   0  0  0  0  0  0  0  0  0  0  0  0
  184.8390  178.2460  138.3490 C   0  0  0  0  0  2  0  0  0  0  0  0
  186.9270  178.3780  140.2730 C   0  0  0  0  0  3  0  0  0  0  0  0
  186.2960  178.2030  137.8870 C   0  0  0  0  0  2  0  0  0  0  0  0
  185.3920  179.4490  141.7170 O   0  0  0  0  0  0  0  0  0  0  0  0
  188.0050  171.4370  135.8520 C   0  0  0  0  0  1  0  0  0  0  0  0
  188.8980  172.5320  135.6950 O   0  0  0  0  0  0  0  0  0  0  0  0
  190.3970  176.0320  140.5680 O   0  0  0  0  0  0  0  0  0  0  0  0
  190.5030  176.6260  141.8370 C   0  0  0  0  0  2  0  0  0  0  0  0
  189.5670  175.9230  142.7990 C   0  0  0  0  0  2  0  0  0  0  0  0
  190.6830  176.9180  145.2730 O   0  0  0  0  0  1  0  0  0  0  0  0
  188.8680  176.9400  143.6860 C   0  0  2  0  0  3  0  0  0  0  0  0
  189.2990  176.7910  145.1500 C   0  0  2  0  0  3  0  0  0  0  0  0
  187.1500  177.9860  145.7210 C   0  0  0  0  0  3  0  0  0  0  0  0
  186.5850  177.5030  144.6050 C   0  0  0  0  0  3  0  0  0  0  0  0
  187.3610  176.7110  143.5840 C   0  0  0  0  0  2  0  0  0  0  0  0
  188.6280  177.8720  145.9950 C   0  0  0  0  0  2  0  0  0  0  0  0
  1 10  2  0  0  0  0
  1  7  1  0  0  0  0
  2  7  1  0  0  0  0
  2 11  1  0  0  0  0
  3  9  1  0  0  0  0
  3 14  1  0  0  0  0
  5  2  2  0  0  0  0
  7  3  2  0  0  0  0
  8  4  1  1  0  0  0
  8 25  1  0  0  0  0
  9 13  1  0  0  0  0
 10 15  1  0  0  0  0
 11  6  2  0  0  0  0
 12  8  1  0  0  0  0
 13 18  1  0  0  0  0
 13 12  1  0  0  0  0
 14  6  1  1  0  0  0
 14  8  1  0  0  0  0
 15  9  2  0  0  0  0
 16 22  2  0  0  0  0
 17 16  1  0  0  0  0
 18 20  2  0  0  0  0
 19 17  1  0  0  0  0
 20 16  1  0  0  0  0
 21 19  1  0  0  0  0
 21 18  1  0  0  0  0
 24 23  1  0  0  0  0
 24  1  1  0  0  0  0
 25 26  1  0  0  0  0
 26 27  1  0  0  0  0
 29 27  1  6  0  0  0
 29 30  1  0  0  0  0
 30 28  1  6  0  0  0
 30 34  1  0  0  0  0
 31 34  1  0  0  0  0
 32 31  2  0  0  0  0
 33 29  1  0  0  0  0
 33 32  1  0  0  0  0
M  END
>  <MODEL>
2

>  <REMARK>
 VINA RESULT:      -8.7      2.105      3.013
  Name = 
  6 active torsions:
  status: ('A' for Active; 'I' for Inactive)
    1  A    between atoms: C_1  and  O_19
    2  A    between atoms: C_3  and  C_13
    3  A    between atoms: C_3  and  C_17
    4  A    between atoms: C_12  and  N_28
    5  A    between atoms: C_17  and  O_29
    6  A    between atoms: C_18  and  O_29
                            x       y       z     vdW  Elec       q    Type
                         _______ _______ _______ _____ _____    ______ ____

>  <TORSDO>
F 6

$$$$
=
 OpenBabel10252414553D

 34 38  0  0  1  0  0  0  0  0999 V2000
  189.2840  176.2140  136.9940 C   0  0  0  0  0  0  0  0  0  0  0  0
  191.4640  176.4890  138.2620 C   0  0  0  0  0  0  0  0  0  0  0  0
  189.3220  177.3760  139.1380 C   0  0  0  0  0  0  0  0  0  0  0  0
  189.9420  178.5820  142.7750 C   0  0  0  0  0  1  0  0  0  0  0  0
  192.1540  175.9890  137.3340 O   0  0  0  0  0  0  0  0  0  0  0  0
  191.4910  177.4480  140.4570 C   0  0  0  0  0  3  0  0  0  0  0  0
  190.0050  176.7010  138.1060 C   0  0  0  0  0  0  0  0  0  0  0  0
  189.2250  177.9020  141.6080 C   0  0  1  0  0  0  0  0  0  0  0  0
  187.9290  177.5860  139.0630 C   0  0  0  0  0  0  0  0  0  0  0  0
  187.8970  176.4060  136.9390 C   0  0  0  0  0  3  0  0  0  0  0  0
  192.1020  176.8220  139.4980 N   0  0  0  0  0  0  0  0  0  0  0  0
  187.9810  178.7400  141.3210 C   0  0  0  0  0  2  0  0  0  0  0  0
  187.2360  178.2540  140.1520 N   0  0  0  0  0  0  0  0  0  0  0  0
  190.0740  177.9480  140.3150 C   0  0  2  0  0  3  0  0  0  0  0  0
  187.2300  177.0750  137.9620 C   0  0  0  0  0  3  0  0  0  0  0  0
  183.6360  178.7910  141.1880 C   0  0  0  0  0  0  0  0  0  0  0  0
  182.9760  179.2080  139.9080 C   0  0  0  0  0  2  0  0  0  0  0  0
  185.8310  178.5740  140.1100 C   0  0  0  0  0  0  0  0  0  0  0  0
  183.7350  178.6350  138.7150 C   0  0  0  0  0  2  0  0  0  0  0  0
  185.0770  178.4950  141.2170 C   0  0  0  0  0  3  0  0  0  0  0  0
  185.2150  179.0110  138.8010 C   0  0  0  0  0  2  0  0  0  0  0  0
  182.9630  178.7300  142.2480 O   0  0  0  0  0  0  0  0  0  0  0  0
  189.8850  175.9430  134.6030 C   0  0  0  0  0  1  0  0  0  0  0  0
  189.9460  175.5340  135.9630 O   0  0  0  0  0  0  0  0  0  0  0  0
  188.7820  176.5940  141.9440 O   0  0  0  0  0  0  0  0  0  0  0  0
  188.6130  176.4680  143.3340 C   0  0  0  0  0  2  0  0  0  0  0  0
  187.1740  176.7760  143.6930 C   0  0  0  0  0  2  0  0  0  0  0  0
  185.0170  178.3010  144.8690 O   0  0  0  0  0  1  0  0  0  0  0  0
  187.0520  177.0460  145.1840 C   0  0  2  0  0  3  0  0  0  0  0  0
  186.2830  178.3460  145.4530 C   0  0  2  0  0  3  0  0  0  0  0  0
  187.4160  178.3410  147.7090 C   0  0  0  0  0  3  0  0  0  0  0  0
  188.4550  177.6750  147.1850 C   0  0  0  0  0  3  0  0  0  0  0  0
  188.4590  177.1700  145.7660 C   0  0  0  0  0  2  0  0  0  0  0  0
  186.1240  178.5440  146.9590 C   0  0  0  0  0  2  0  0  0  0  0  0
  1  7  1  0  0  0  0
  2 11  1  0  0  0  0
  3 14  1  0  0  0  0
  5  2  2  0  0  0  0
  7  2  1  0  0  0  0
  7  3  2  0  0  0  0
  8 25  1  0  0  0  0
  8  4  1  1  0  0  0
  9  3  1  0  0  0  0
  9 13  1  0  0  0  0
 10  1  2  0  0  0  0
 10 15  1  0  0  0  0
 11  6  2  0  0  0  0
 12  8  1  0  0  0  0
 13 12  1  0  0  0  0
 14  6  1  1  0  0  0
 14  8  1  0  0  0  0
 15  9  2  0  0  0  0
 16 20  1  0  0  0  0
 16 22  2  0  0  0  0
 17 16  1  0  0  0  0
 18 13  1  0  0  0  0
 18 20  2  0  0  0  0
 19 21  1  0  0  0  0
 19 17  1  0  0  0  0
 21 18  1  0  0  0  0
 23 24  1  0  0  0  0
 24  1  1  0  0  0  0
 25 26  1  0  0  0  0
 26 27  1  0  0  0  0
 29 27  1  6  0  0  0
 29 30  1  0  0  0  0
 29 33  1  0  0  0  0
 30 28  1  6  0  0  0
 30 34  1  0  0  0  0
 32 31  2  0  0  0  0
 33 32  1  0  0  0  0
 34 31  1  0  0  0  0
M  END
>  <MODEL>
3

>  <REMARK>
 VINA RESULT:      -8.5      1.736      2.581
  Name = 
  6 active torsions:
  status: ('A' for Active; 'I' for Inactive)
    1  A    between atoms: C_1  and  O_19
    2  A    between atoms: C_3  and  C_13
    3  A    between atoms: C_3  and  C_17
    4  A    between atoms: C_12  and  N_28
    5  A    between atoms: C_17  and  O_29
    6  A    between atoms: C_18  and  O_29
                            x       y       z     vdW  Elec       q    Type
                         _______ _______ _______ _____ _____    ______ ____

>  <TORSDO>
F 6

$$$$
=
 OpenBabel10252414553D

 34 38  0  0  1  0  0  0  0  0999 V2000
  186.6310  177.7330  144.7970 C   0  0  0  0  0  0  0  0  0  0  0  0
  184.2980  178.6350  145.2240 C   0  0  0  0  0  0  0  0  0  0  0  0
  185.2770  178.5690  142.9480 C   0  0  0  0  0  0  0  0  0  0  0  0
  182.4690  179.4820  140.4290 C   0  0  0  0  0  1  0  0  0  0  0  0
  184.4070  178.5330  146.4750 O   0  0  0  0  0  0  0  0  0  0  0  0
  182.8800  179.2720  143.4030 C   0  0  0  0  0  3  0  0  0  0  0  0
  185.4340  178.3160  144.3260 C   0  0  0  0  0  0  0  0  0  0  0  0
  183.6680  178.7290  141.0050 C   0  0  1  0  0  0  0  0  0  0  0  0
  186.3090  178.2620  142.0380 C   0  0  0  0  0  0  0  0  0  0  0  0
  187.6420  177.4100  143.8820 C   0  0  0  0  0  3  0  0  0  0  0  0
  183.0410  179.0300  144.6680 N   0  0  0  0  0  0  0  0  0  0  0  0
  184.8630  179.0820  140.1220 C   0  0  0  0  0  2  0  0  0  0  0  0
  186.1170  178.4990  140.6170 N   0  0  0  0  0  0  0  0  0  0  0  0
  184.0270  179.2330  142.4230 C   0  0  2  0  0  3  0  0  0  0  0  0
  187.4800  177.6640  142.5230 C   0  0  0  0  0  3  0  0  0  0  0  0
  187.8970  177.6290  137.3910 C   0  0  0  0  0  0  0  0  0  0  0  0
  189.3400  177.8440  137.7350 C   0  0  0  0  0  2  0  0  0  0  0  0
  187.1540  178.2850  139.6370 C   0  0  0  0  0  0  0  0  0  0  0  0
  189.5580  177.6530  139.2330 C   0  0  0  0  0  2  0  0  0  0  0  0
  186.8500  177.8770  138.3950 C   0  0  0  0  0  3  0  0  0  0  0  0
  188.5930  178.5370  140.0240 C   0  0  0  0  0  2  0  0  0  0  0  0
  187.5770  177.2700  136.2290 O   0  0  0  0  0  0  0  0  0  0  0  0
  188.0690  177.4870  146.8020 C   0  0  0  0  0  1  0  0  0  0  0  0
  186.8000  177.4680  146.1620 O   0  0  0  0  0  0  0  0  0  0  0  0
  183.4970  177.3200  140.9360 O   0  0  0  0  0  0  0  0  0  0  0  0
  182.4320  176.9900  140.0800 C   0  0  0  0  0  2  0  0  0  0  0  0
  182.6830  175.6270  139.4700 C   0  0  0  0  0  2  0  0  0  0  0  0
  184.4610  173.9110  137.9680 O   0  0  0  0  0  1  0  0  0  0  0  0
  182.9080  175.7560  137.9720 C   0  0  2  0  0  3  0  0  0  0  0  0
  184.2950  175.2380  137.5710 C   0  0  2  0  0  3  0  0  0  0  0  0
  184.0320  176.6590  135.5010 C   0  0  0  0  0  3  0  0  0  0  0  0
  183.2410  177.5030  136.1810 C   0  0  0  0  0  3  0  0  0  0  0  0
  182.7990  177.2330  137.5960 C   0  0  0  0  0  2  0  0  0  0  0  0
  184.4540  175.3220  136.0540 C   0  0  0  0  0  2  0  0  0  0  0  0
  1 24  1  0  0  0  0
  2  5  2  0  0  0  0
  3  7  2  0  0  0  0
  6 11  2  0  0  0  0
  7  1  1  0  0  0  0
  7  2  1  0  0  0  0
  8  4  1  6  0  0  0
  8 14  1  0  0  0  0
  9 15  2  0  0  0  0
  9  3  1  0  0  0  0
 10  1  2  0  0  0  0
 11  2  1  0  0  0  0
 12 13  1  0  0  0  0
 12  8  1  0  0  0  0
 13  9  1  0  0  0  0
 14  3  1  0  0  0  0
 14  6  1  1  0  0  0
 15 10  1  0  0  0  0
 16 17  1  0  0  0  0
 16 20  1  0  0  0  0
 17 19  1  0  0  0  0
 18 21  1  0  0  0  0
 18 13  1  0  0  0  0
 19 21  1  0  0  0  0
 20 18  2  0  0  0  0
 22 16  2  0  0  0  0
 24 23  1  0  0  0  0
 25  8  1  0  0  0  0
 26 25  1  0  0  0  0
 27 26  1  0  0  0  0
 29 27  1  1  0  0  0
 30 28  1  6  0  0  0
 30 29  1  0  0  0  0
 31 34  1  0  0  0  0
 31 32  2  0  0  0  0
 32 33  1  0  0  0  0
 33 29  1  0  0  0  0
 34 30  1  0  0  0  0
M  END
>  <MODEL>
4

>  <REMARK>
 VINA RESULT:      -8.4      3.425      8.825
  Name = 
  6 active torsions:
  status: ('A' for Active; 'I' for Inactive)
    1  A    between atoms: C_1  and  O_19
    2  A    between atoms: C_3  and  C_13
    3  A    between atoms: C_3  and  C_17
    4  A    between atoms: C_12  and  N_28
    5  A    between atoms: C_17  and  O_29
    6  A    between atoms: C_18  and  O_29
                            x       y       z     vdW  Elec       q    Type
                         _______ _______ _______ _____ _____    ______ ____

>  <TORSDO>
F 6

$$$$
=
 OpenBabel10252414553D

 34 38  0  0  1  0  0  0  0  0999 V2000
  186.6350  177.7570  144.8850 C   0  0  0  0  0  0  0  0  0  0  0  0
  184.2820  178.6280  145.2590 C   0  0  0  0  0  0  0  0  0  0  0  0
  185.3050  178.5530  143.0020 C   0  0  0  0  0  0  0  0  0  0  0  0
  182.5320  179.3980  140.4210 C   0  0  0  0  0  1  0  0  0  0  0  0
  184.3680  178.5420  146.5130 O   0  0  0  0  0  0  0  0  0  0  0  0
  182.8890  179.2250  143.4050 C   0  0  0  0  0  3  0  0  0  0  0  0
  185.4390  178.3180  144.3860 C   0  0  0  0  0  0  0  0  0  0  0  0
  183.7310  178.6680  141.0280 C   0  0  1  0  0  0  0  0  0  0  0  0
  186.3590  178.2530  142.1150 C   0  0  0  0  0  0  0  0  0  0  0  0
  187.6690  177.4400  143.9930 C   0  0  0  0  0  3  0  0  0  0  0  0
  183.0300  178.9990  144.6750 N   0  0  0  0  0  0  0  0  0  0  0  0
  184.9370  179.0310  140.1640 C   0  0  0  0  0  2  0  0  0  0  0  0
  186.1900  178.4710  140.6880 N   0  0  0  0  0  0  0  0  0  0  0  0
  184.0560  179.1930  142.4470 C   0  0  2  0  0  3  0  0  0  0  0  0
  187.5290  177.6780  142.6290 C   0  0  0  0  0  3  0  0  0  0  0  0
  188.0440  177.5890  137.5090 C   0  0  0  0  0  0  0  0  0  0  0  0
  189.4760  177.8360  137.8750 C   0  0  0  0  0  2  0  0  0  0  0  0
  187.2480  178.2630  139.7310 C   0  0  0  0  0  0  0  0  0  0  0  0
  189.6700  177.6690  139.3790 C   0  0  0  0  0  2  0  0  0  0  0  0
  186.9750  177.8330  138.4900 C   0  0  0  0  0  3  0  0  0  0  0  0
  188.6750  178.5470  140.1400 C   0  0  0  0  0  2  0  0  0  0  0  0
  187.7520  177.2080  136.3460 O   0  0  0  0  0  0  0  0  0  0  0  0
  188.0440  177.5080  146.9110 C   0  0  0  0  0  1  0  0  0  0  0  0
  186.7830  177.5100  146.2560 O   0  0  0  0  0  0  0  0  0  0  0  0
  183.5820  177.2570  140.9710 O   0  0  0  0  0  0  0  0  0  0  0  0
  182.4480  176.9070  140.2180 C   0  0  0  0  0  2  0  0  0  0  0  0
  182.8630  175.9980  139.0800 C   0  0  0  0  0  2  0  0  0  0  0  0
  182.1990  175.2860  136.3570 O   0  0  0  0  0  1  0  0  0  0  0  0
  181.7200  175.0660  138.7110 C   0  0  2  0  0  3  0  0  0  0  0  0
  181.1820  175.3750  137.3080 C   0  0  2  0  0  3  0  0  0  0  0  0
  179.0720  174.2070  138.0530 C   0  0  0  0  0  3  0  0  0  0  0  0
  179.3240  174.5600  139.3220 C   0  0  0  0  0  3  0  0  0  0  0  0
  180.5970  175.2560  139.7290 C   0  0  0  0  0  2  0  0  0  0  0  0
  180.0840  174.3750  136.9490 C   0  0  0  0  0  2  0  0  0  0  0  0
  1 24  1  0  0  0  0
  2  5  2  0  0  0  0
  3  7  2  0  0  0  0
  6 11  2  0  0  0  0
  7  1  1  0  0  0  0
  7  2  1  0  0  0  0
  8  4  1  6  0  0  0
  8 14  1  0  0  0  0
  9 15  2  0  0  0  0
  9  3  1  0  0  0  0
 10  1  2  0  0  0  0
 11  2  1  0  0  0  0
 12 13  1  0  0  0  0
 12  8  1  0  0  0  0
 13  9  1  0  0  0  0
 14  3  1  0  0  0  0
 14  6  1  1  0  0  0
 15 10  1  0  0  0  0
 16 17  1  0  0  0  0
 16 20  1  0  0  0  0
 17 19  1  0  0  0  0
 18 21  1  0  0  0  0
 18 13  1  0  0  0  0
 19 21  1  0  0  0  0
 20 18  2  0  0  0  0
 22 16  2  0  0  0  0
 24 23  1  0  0  0  0
 25  8  1  0  0  0  0
 26 25  1  0  0  0  0
 27 26  1  0  0  0  0
 29 27  1  1  0  0  0
 29 33  1  0  0  0  0
 30 28  1  6  0  0  0
 30 29  1  0  0  0  0
 31 32  2  0  0  0  0
 32 33  1  0  0  0  0
 34 30  1  0  0  0  0
 34 31  1  0  0  0  0
M  END
>  <MODEL>
5

>  <REMARK>
 VINA RESULT:      -8.0      3.966      9.161
  Name = 
  6 active torsions:
  status: ('A' for Active; 'I' for Inactive)
    1  A    between atoms: C_1  and  O_19
    2  A    between atoms: C_3  and  C_13
    3  A    between atoms: C_3  and  C_17
    4  A    between atoms: C_12  and  N_28
    5  A    between atoms: C_17  and  O_29
    6  A    between atoms: C_18  and  O_29
                            x       y       z     vdW  Elec       q    Type
                         _______ _______ _______ _____ _____    ______ ____

>  <TORSDO>
F 6

$$$$
=
 OpenBabel10252414553D

 34 38  0  0  1  0  0  0  0  0999 V2000
  187.5550  173.1510  136.8000 C   0  0  0  0  0  0  0  0  0  0  0  0
  189.8810  174.1610  136.7250 C   0  0  0  0  0  0  0  0  0  0  0  0
  187.8500  175.5680  136.9310 C   0  0  0  0  0  0  0  0  0  0  0  0
  189.0010  179.2020  137.6600 C   0  0  0  0  0  1  0  0  0  0  0  0
  190.4370  173.0520  136.5040 O   0  0  0  0  0  0  0  0  0  0  0  0
  190.2050  176.5110  137.0540 C   0  0  0  0  0  3  0  0  0  0  0  0
  188.4050  174.2780  136.8030 C   0  0  0  0  0  0  0  0  0  0  0  0
  188.1720  177.9240  137.7880 C   0  0  1  0  0  0  0  0  0  0  0  0
  186.4550  175.7450  137.0380 C   0  0  0  0  0  0  0  0  0  0  0  0
  186.1710  173.3340  136.9300 C   0  0  0  0  0  3  0  0  0  0  0  0
  190.6970  175.3160  136.9390 N   0  0  0  0  0  0  0  0  0  0  0  0
  186.7890  178.2520  137.2320 C   0  0  0  0  0  2  0  0  0  0  0  0
  185.9040  177.0790  137.2030 N   0  0  0  0  0  0  0  0  0  0  0  0
  188.7310  176.7930  136.8910 C   0  0  2  0  0  3  0  0  0  0  0  0
  185.6310  174.6120  137.0550 C   0  0  0  0  0  3  0  0  0  0  0  0
  182.4320  177.9280  138.4490 C   0  0  0  0  0  0  0  0  0  0  0  0
  181.5960  177.8280  137.2100 C   0  0  0  0  0  2  0  0  0  0  0  0
  184.4870  177.3450  137.2390 C   0  0  0  0  0  0  0  0  0  0  0  0
  182.2360  176.8580  136.2210 C   0  0  0  0  0  2  0  0  0  0  0  0
  183.8810  177.6800  138.3890 C   0  0  0  0  0  3  0  0  0  0  0  0
  183.6900  177.2540  135.9590 C   0  0  0  0  0  2  0  0  0  0  0  0
  181.9000  178.2620  139.5390 O   0  0  0  0  0  0  0  0  0  0  0  0
  187.7490  170.9780  135.6210 C   0  0  0  0  0  1  0  0  0  0  0  0
  188.0890  171.8610  136.6810 O   0  0  0  0  0  0  0  0  0  0  0  0
  187.9990  177.5340  139.1430 O   0  0  0  0  0  0  0  0  0  0  0  0
  188.7960  178.3190  139.9920 C   0  0  0  0  0  2  0  0  0  0  0  0
  189.4840  177.4250  141.0030 C   0  0  0  0  0  2  0  0  0  0  0  0
  191.3990  178.3160  142.9770 O   0  0  0  0  0  1  0  0  0  0  0  0
  189.1030  177.8400  142.4150 C   0  0  2  0  0  3  0  0  0  0  0  0
  190.2640  177.6190  143.3920 C   0  0  2  0  0  3  0  0  0  0  0  0
  188.5060  177.6130  145.2030 C   0  0  0  0  0  3  0  0  0  0  0  0
  187.6020  177.1540  144.3250 C   0  0  0  0  0  3  0  0  0  0  0  0
  187.9100  176.9950  142.8580 C   0  0  0  0  0  2  0  0  0  0  0  0
  189.8640  178.1100  144.7820 C   0  0  0  0  0  2  0  0  0  0  0  0
  1  7  2  0  0  0  0
  1 10  1  0  0  0  0
  2  7  1  0  0  0  0
  2 11  1  0  0  0  0
  3  9  2  0  0  0  0
  5  2  2  0  0  0  0
  7  3  1  0  0  0  0
  8  4  1  6  0  0  0
  8 25  1  0  0  0  0
  9 15  1  0  0  0  0
  9 13  1  0  0  0  0
 10 15  2  0  0  0  0
 11  6  2  0  0  0  0
 12  8  1  0  0  0  0
 13 12  1  0  0  0  0
 13 18  1  0  0  0  0
 14  3  1  0  0  0  0
 14  6  1  1  0  0  0
 14  8  1  0  0  0  0
 16 22  2  0  0  0  0
 17 16  1  0  0  0  0
 18 20  2  0  0  0  0
 19 17  1  0  0  0  0
 20 16  1  0  0  0  0
 21 19  1  0  0  0  0
 21 18  1  0  0  0  0
 23 24  1  0  0  0  0
 24  1  1  0  0  0  0
 25 26  1  0  0  0  0
 26 27  1  0  0  0  0
 29 27  1  6  0  0  0
 29 33  1  0  0  0  0
 29 30  1  0  0  0  0
 30 28  1  6  0  0  0
 30 34  1  0  0  0  0
 32 31  2  0  0  0  0
 33 32  1  0  0  0  0
 34 31  1  0  0  0  0
M  END
>  <MODEL>
6

>  <REMARK>
 VINA RESULT:      -7.8      3.268      4.690
  Name = 
  6 active torsions:
  status: ('A' for Active; 'I' for Inactive)
    1  A    between atoms: C_1  and  O_19
    2  A    between atoms: C_3  and  C_13
    3  A    between atoms: C_3  and  C_17
    4  A    between atoms: C_12  and  N_28
    5  A    between atoms: C_17  and  O_29
    6  A    between atoms: C_18  and  O_29
                            x       y       z     vdW  Elec       q    Type
                         _______ _______ _______ _____ _____    ______ ____

>  <TORSDO>
F 6

$$$$
=
 OpenBabel10252414553D

 34 38  0  0  1  0  0  0  0  0999 V2000
  189.0880  177.6570  141.5760 C   0  0  0  0  0  0  0  0  0  0  0  0
  186.9160  178.6140  140.6790 C   0  0  0  0  0  0  0  0  0  0  0  0
  188.5830  177.5370  139.1930 C   0  0  0  0  0  0  0  0  0  0  0  0
  186.9640  177.1540  135.6860 C   0  0  0  0  0  1  0  0  0  0  0  0
  186.5790  179.0950  141.7930 O   0  0  0  0  0  0  0  0  0  0  0  0
  186.3100  178.3270  138.3790 C   0  0  0  0  0  3  0  0  0  0  0  0
  188.2250  177.9420  140.4950 C   0  0  0  0  0  0  0  0  0  0  0  0
  187.7680  176.7670  136.9280 C   0  0  1  0  0  0  0  0  0  0  0  0
  189.8010  176.8680  138.9560 C   0  0  0  0  0  0  0  0  0  0  0  0
  190.2860  176.9720  141.3350 C   0  0  0  0  0  3  0  0  0  0  0  0
  185.9970  178.6900  139.5850 N   0  0  0  0  0  0  0  0  0  0  0  0
  189.2290  176.7010  136.4900 C   0  0  0  0  0  2  0  0  0  0  0  0
  190.1380  176.4290  137.6120 N   0  0  0  0  0  0  0  0  0  0  0  0
  187.7010  177.8670  138.0130 C   0  0  2  0  0  3  0  0  0  0  0  0
  190.6330  176.5770  140.0450 C   0  0  0  0  0  3  0  0  0  0  0  0
  193.7560  175.9480  136.6110 C   0  0  0  0  0  0  0  0  0  0  0  0
  193.9020  174.4570  136.5830 C   0  0  0  0  0  2  0  0  0  0  0  0
  191.3980  175.8120  137.2800 C   0  0  0  0  0  0  0  0  0  0  0  0
  192.5540  173.8020  136.2970 C   0  0  0  0  0  2  0  0  0  0  0  0
  192.4700  176.5610  136.9780 C   0  0  0  0  0  3  0  0  0  0  0  0
  191.5030  174.3040  137.2870 C   0  0  0  0  0  2  0  0  0  0  0  0
  194.7470  176.6790  136.3560 O   0  0  0  0  0  0  0  0  0  0  0  0
  188.8560  177.1800  143.9990 C   0  0  0  0  0  1  0  0  0  0  0  0
  188.7450  178.0460  142.8770 O   0  0  0  0  0  0  0  0  0  0  0  0
  187.4150  175.4780  137.4100 O   0  0  0  0  0  0  0  0  0  0  0  0
  187.3260  174.5580  136.3520 C   0  0  0  0  0  2  0  0  0  0  0  0
  187.7020  173.1790  136.8540 C   0  0  0  0  0  2  0  0  0  0  0  0
  187.1950  171.4490  134.5940 O   0  0  0  0  0  1  0  0  0  0  0  0
  186.5070  172.2450  136.7640 C   0  0  2  0  0  3  0  0  0  0  0  0
  186.1170  171.9790  135.3040 C   0  0  2  0  0  3  0  0  0  0  0  0
  183.8490  171.3430  136.2110 C   0  0  0  0  0  3  0  0  0  0  0  0
  184.0310  172.1720  137.2490 C   0  0  0  0  0  3  0  0  0  0  0  0
  185.3290  172.9000  137.4830 C   0  0  0  0  0  2  0  0  0  0  0  0
  184.9590  170.9850  135.2560 C   0  0  0  0  0  2  0  0  0  0  0  0
  1 24  1  0  0  0  0
  2  5  2  0  0  0  0
  3  7  1  0  0  0  0
  6 11  2  0  0  0  0
  7  2  1  0  0  0  0
  7  1  2  0  0  0  0
  8  4  1  6  0  0  0
  8 25  1  0  0  0  0
  8 14  1  0  0  0  0
  9  3  2  0  0  0  0
  9 15  1  0  0  0  0
 10  1  1  0  0  0  0
 11  2  1  0  0  0  0
 12  8  1  0  0  0  0
 12 13  1  0  0  0  0
 13  9  1  0  0  0  0
 14  6  1  1  0  0  0
 14  3  1  0  0  0  0
 15 10  2  0  0  0  0
 16 20  1  0  0  0  0
 17 16  1  0  0  0  0
 18 21  1  0  0  0  0
 18 13  1  0  0  0  0
 19 17  1  0  0  0  0
 19 21  1  0  0  0  0
 20 18  2  0  0  0  0
 22 16  2  0  0  0  0
 24 23  1  0  0  0  0
 26 27  1  0  0  0  0
 26 25  1  0  0  0  0
 29 27  1  6  0  0  0
 29 33  1  0  0  0  0
 30 28  1  6  0  0  0
 30 29  1  0  0  0  0
 31 32  2  0  0  0  0
 32 33  1  0  0  0  0
 34 30  1  0  0  0  0
 34 31  1  0  0  0  0
M  END
>  <MODEL>
7

>  <REMARK>
 VINA RESULT:      -7.8      3.409      8.828
  Name = 
  6 active torsions:
  status: ('A' for Active; 'I' for Inactive)
    1  A    between atoms: C_1  and  O_19
    2  A    between atoms: C_3  and  C_13
    3  A    between atoms: C_3  and  C_17
    4  A    between atoms: C_12  and  N_28
    5  A    between atoms: C_17  and  O_29
    6  A    between atoms: C_18  and  O_29
                            x       y       z     vdW  Elec       q    Type
                         _______ _______ _______ _____ _____    ______ ____

>  <TORSDO>
F 6

$$$$
=
 OpenBabel10252414553D

 34 38  0  0  1  0  0  0  0  0999 V2000
  184.9810  178.4430  141.5490 C   0  0  0  0  0  0  0  0  0  0  0  0
  184.9460  178.9250  139.0580 C   0  0  0  0  0  0  0  0  0  0  0  0
  187.0480  178.3860  140.2560 C   0  0  0  0  0  0  0  0  0  0  0  0
  189.8310  177.8970  137.5950 C   0  0  0  0  0  1  0  0  0  0  0  0
  183.7230  179.2280  139.0570 O   0  0  0  0  0  0  0  0  0  0  0  0
  186.9280  178.6780  137.7360 C   0  0  0  0  0  3  0  0  0  0  0  0
  185.6550  178.5960  140.3180 C   0  0  0  0  0  0  0  0  0  0  0  0
  189.0030  177.6180  138.8500 C   0  0  1  0  0  0  0  0  0  0  0  0
  187.7760  178.0440  141.4140 C   0  0  0  0  0  0  0  0  0  0  0  0
  185.7090  178.0800  142.6900 C   0  0  0  0  0  3  0  0  0  0  0  0
  185.6460  178.8650  137.8120 N   0  0  0  0  0  0  0  0  0  0  0  0
  189.9060  177.9320  140.0400 C   0  0  0  0  0  2  0  0  0  0  0  0
  189.2060  177.7980  141.3250 N   0  0  0  0  0  0  0  0  0  0  0  0
  187.8020  178.5870  138.9640 C   0  0  2  0  0  3  0  0  0  0  0  0
  187.0850  177.8760  142.6200 C   0  0  0  0  0  3  0  0  0  0  0  0
  191.3880  176.0000  143.8410 C   0  0  0  0  0  0  0  0  0  0  0  0
  191.6550  177.0560  144.8700 C   0  0  0  0  0  2  0  0  0  0  0  0
  190.0290  177.5220  142.4760 C   0  0  0  0  0  0  0  0  0  0  0  0
  190.5200  178.0750  144.8830 C   0  0  0  0  0  2  0  0  0  0  0  0
  190.5680  176.3070  142.6580 C   0  0  0  0  0  3  0  0  0  0  0  0
  190.2880  178.6260  143.4760 C   0  0  0  0  0  2  0  0  0  0  0  0
  191.8980  174.8570  143.9690 O   0  0  0  0  0  0  0  0  0  0  0  0
  182.9320  178.9980  142.8310 C   0  0  0  0  0  1  0  0  0  0  0  0
  183.5960  178.6410  141.6260 O   0  0  0  0  0  0  0  0  0  0  0  0
  188.6330  176.2500  138.9510 O   0  0  0  0  0  0  0  0  0  0  0  0
  189.2790  175.4860  137.9640 C   0  0  0  0  0  2  0  0  0  0  0  0
  188.3120  175.2130  136.8300 C   0  0  0  0  0  2  0  0  0  0  0  0
  187.8770  172.4110  137.3920 O   0  0  0  0  0  1  0  0  0  0  0  0
  187.0060  174.6600  137.3760 C   0  0  2  0  0  3  0  0  0  0  0  0
  186.8060  173.1970  136.9640 C   0  0  2  0  0  3  0  0  0  0  0  0
  184.3520  173.5930  137.4000 C   0  0  0  0  0  3  0  0  0  0  0  0
  184.5080  174.8910  137.1000 C   0  0  0  0  0  3  0  0  0  0  0  0
  185.8580  175.4980  136.8170 C   0  0  0  0  0  2  0  0  0  0  0  0
  185.5200  172.6600  137.5880 C   0  0  0  0  0  2  0  0  0  0  0  0
  1 24  1  0  0  0  0
  1 10  1  0  0  0  0
  2  7  1  0  0  0  0
  3  7  1  0  0  0  0
  3  9  2  0  0  0  0
  5  2  2  0  0  0  0
  6 11  2  0  0  0  0
  7  1  2  0  0  0  0
  8  4  1  6  0  0  0
  8 25  1  0  0  0  0
  8 14  1  0  0  0  0
  8 12  1  0  0  0  0
  9 15  1  0  0  0  0
 11  2  1  0  0  0  0
 12 13  1  0  0  0  0
 13  9  1  0  0  0  0
 13 18  1  0  0  0  0
 14  6  1  6  0  0  0
 14  3  1  0  0  0  0
 15 10  2  0  0  0  0
 16 22  2  0  0  0  0
 16 17  1  0  0  0  0
 17 19  1  0  0  0  0
 18 20  2  0  0  0  0
 18 21  1  0  0  0  0
 20 16  1  0  0  0  0
 21 19  1  0  0  0  0
 24 23  1  0  0  0  0
 26 25  1  0  0  0  0
 27 26  1  0  0  0  0
 29 27  1  6  0  0  0
 30 29  1  0  0  0  0
 30 28  1  1  0  0  0
 30 34  1  0  0  0  0
 31 34  1  0  0  0  0
 32 31  2  0  0  0  0
 33 32  1  0  0  0  0
 33 29  1  0  0  0  0
M  END
>  <MODEL>
8

>  <REMARK>
 VINA RESULT:      -7.5      2.458      7.668
  Name = 
  6 active torsions:
  status: ('A' for Active; 'I' for Inactive)
    1  A    between atoms: C_1  and  O_19
    2  A    between atoms: C_3  and  C_13
    3  A    between atoms: C_3  and  C_17
    4  A    between atoms: C_12  and  N_28
    5  A    between atoms: C_17  and  O_29
    6  A    between atoms: C_18  and  O_29
                            x       y       z     vdW  Elec       q    Type
                         _______ _______ _______ _____ _____    ______ ____

>  <TORSDO>
F 6

$$$$
=
 OpenBabel10252414553D

 34 38  0  0  1  0  0  0  0  0999 V2000
  185.8040  178.5150  139.4310 C   0  0  0  0  0  0  0  0  0  0  0  0
  185.8770  177.4300  137.1390 C   0  0  0  0  0  0  0  0  0  0  0  0
  183.7360  177.8750  138.3070 C   0  0  0  0  0  0  0  0  0  0  0  0
  180.8560  177.1710  135.8010 C   0  0  0  0  0  1  0  0  0  0  0  0
  187.1350  177.3590  137.1300 O   0  0  0  0  0  0  0  0  0  0  0  0
  183.8570  176.9790  135.9330 C   0  0  0  0  0  3  0  0  0  0  0  0
  185.1450  177.9370  138.3240 C   0  0  0  0  0  0  0  0  0  0  0  0
  181.6430  177.9020  136.8900 C   0  0  1  0  0  0  0  0  0  0  0  0
  182.9800  178.3660  139.3910 C   0  0  0  0  0  0  0  0  0  0  0  0
  185.0430  179.0210  140.4940 C   0  0  0  0  0  3  0  0  0  0  0  0
  185.1530  177.0480  135.9660 N   0  0  0  0  0  0  0  0  0  0  0  0
  180.8400  177.7460  138.1790 C   0  0  0  0  0  2  0  0  0  0  0  0
  181.5280  178.3230  139.3410 N   0  0  0  0  0  0  0  0  0  0  0  0
  183.0070  177.2220  137.1570 C   0  0  2  0  0  3  0  0  0  0  0  0
  183.6530  178.9540  140.4700 C   0  0  0  0  0  3  0  0  0  0  0  0
  179.4570  180.4470  141.6910 C   0  0  0  0  0  0  0  0  0  0  0  0
  179.0260  179.4660  142.7390 C   0  0  0  0  0  2  0  0  0  0  0  0
  180.6920  178.7320  140.4430 C   0  0  0  0  0  0  0  0  0  0  0  0
  180.0350  178.3270  142.8390 C   0  0  0  0  0  2  0  0  0  0  0  0
  180.2880  180.0070  140.5600 C   0  0  0  0  0  3  0  0  0  0  0  0
  180.2640  177.7020  141.4620 C   0  0  0  0  0  2  0  0  0  0  0  0
  179.0760  181.6440  141.7590 O   0  0  0  0  0  0  0  0  0  0  0  0
  187.9680  178.2960  140.6220 C   0  0  0  0  0  1  0  0  0  0  0  0
  187.2020  178.5910  139.4620 O   0  0  0  0  0  0  0  0  0  0  0  0
  181.7500  179.2940  136.6270 O   0  0  0  0  0  0  0  0  0  0  0  0
  180.6840  179.7320  135.8230 C   0  0  0  0  0  2  0  0  0  0  0  0
  179.9400  180.8410  136.5370 C   0  0  0  0  0  2  0  0  0  0  0  0
  181.7380  182.1660  138.3730 O   0  0  0  0  0  1  0  0  0  0  0  0
  180.5960  182.1820  136.2490 C   0  0  2  0  0  3  0  0  0  0  0  0
  180.9170  182.9340  137.5460 C   0  0  2  0  0  3  0  0  0  0  0  0
  180.9480  185.0180  136.1220 C   0  0  0  0  0  3  0  0  0  0  0  0
  180.0770  184.4510  135.2740 C   0  0  0  0  0  3  0  0  0  0  0  0
  179.6300  183.0190  135.4130 C   0  0  0  0  0  2  0  0  0  0  0  0
  181.6350  184.2410  137.2160 C   0  0  0  0  0  2  0  0  0  0  0  0
  1 24  1  0  0  0  0
  1 10  1  0  0  0  0
  2  7  1  0  0  0  0
  3  7  1  0  0  0  0
  3  9  2  0  0  0  0
  5  2  2  0  0  0  0
  6 11  2  0  0  0  0
  7  1  2  0  0  0  0
  8  4  1  6  0  0  0
  8 14  1  0  0  0  0
  8 12  1  0  0  0  0
  9 15  1  0  0  0  0
 11  2  1  0  0  0  0
 12 13  1  0  0  0  0
 13  9  1  0  0  0  0
 13 18  1  0  0  0  0
 14  6  1  6  0  0  0
 14  3  1  0  0  0  0
 15 10  2  0  0  0  0
 16 22  2  0  0  0  0
 16 17  1  0  0  0  0
 17 19  1  0  0  0  0
 18 20  2  0  0  0  0
 18 21  1  0  0  0  0
 20 16  1  0  0  0  0
 21 19  1  0  0  0  0
 24 23  1  0  0  0  0
 25  8  1  0  0  0  0
 26 27  1  0  0  0  0
 26 25  1  0  0  0  0
 29 27  1  1  0  0  0
 29 30  1  0  0  0  0
 30 28  1  1  0  0  0
 31 34  1  0  0  0  0
 32 33  1  0  0  0  0
 32 31  2  0  0  0  0
 33 29  1  0  0  0  0
 34 30  1  0  0  0  0
M  END
>  <MODEL>
9

>  <REMARK>
 VINA RESULT:      -7.4      5.482      9.995
  Name = 
  6 active torsions:
  status: ('A' for Active; 'I' for Inactive)
    1  A    between atoms: C_1  and  O_19
    2  A    between atoms: C_3  and  C_13
    3  A    between atoms: C_3  and  C_17
    4  A    between atoms: C_12  and  N_28
    5  A    between atoms: C_17  and  O_29
    6  A    between atoms: C_18  and  O_29
                            x       y       z     vdW  Elec       q    Type
                         _______ _______ _______ _____ _____    ______ ____

>  <TORSDO>
F 6

$$$$
