=
 OpenBabel10262420063D

 27 30  0  0  1  0  0  0  0  0999 V2000
  187.7130  177.8630  143.0650 C   0  0  2  0  0  3  0  0  0  0  0  0
  186.2430  178.1240  142.8800 C   0  0  0  0  0  0  0  0  0  0  0  0
  185.7700  178.6440  145.3260 C   0  0  0  0  0  1  0  0  0  0  0  0
  181.9020  178.4980  141.1120 C   0  0  0  0  0  3  0  0  0  0  0  0
  181.1990  178.8320  142.2640 C   0  0  0  0  0  3  0  0  0  0  0  0
  185.5520  178.0060  141.6870 C   0  0  0  0  0  3  0  0  0  0  0  0
  182.9350  178.8950  144.0980 C   0  0  0  0  0  0  0  0  0  0  0  0
  183.0400  179.1290  145.4310 F   0  0  0  0  0  0  0  0  0  0  0  0
  184.0880  178.5710  143.3770 C   0  0  0  0  0  0  0  0  0  0  0  0
  181.6540  179.0050  143.5670 C   0  0  0  0  0  3  0  0  0  0  0  0
  184.2240  178.2790  141.9510 C   0  0  0  0  0  0  0  0  0  0  0  0
  185.3690  178.4550  143.9000 C   0  0  0  0  0  0  0  0  0  0  0  0
  183.2570  178.2480  140.9640 C   0  0  0  0  0  3  0  0  0  0  0  0
  189.7030  177.8300  139.1900 C   0  0  0  0  0  3  0  0  0  0  0  0
  188.5700  178.0550  141.8040 C   0  0  2  0  0  3  0  0  0  0  0  0
  187.7700  178.5610  140.5990 C   0  0  0  0  0  2  0  0  0  0  0  0
  188.5730  178.5410  139.3240 C   0  0  0  0  0  3  0  0  0  0  0  0
  190.3230  177.0740  140.3370 C   0  0  0  0  0  2  0  0  0  0  0  0
  189.3130  176.7730  141.4410 C   0  0  0  0  0  2  0  0  0  0  0  0
  188.0400  176.6550  143.9610 C   0  0  0  0  0  2  0  0  0  0  0  0
  191.7290  176.7120  146.6610 C   0  0  0  0  0  3  0  0  0  0  0  0
  190.5790  176.3610  147.5440 C   0  0  0  0  0  2  0  0  0  0  0  0
  189.1520  176.8760  144.9380 C   0  0  0  0  0  0  0  0  0  0  0  0
  191.6410  176.7650  145.3330 C   0  0  0  0  0  3  0  0  0  0  0  0
  189.4470  177.3210  147.3840 C   0  0  0  0  0  3  0  0  0  0  0  0
  188.8040  177.5040  146.2310 C   0  0  0  0  0  3  0  0  0  0  0  0
  190.4020  176.5810  144.5520 C   0  0  0  0  0  3  0  0  0  0  0  0
  1 20  1  6  0  0  0
  2  1  1  0  0  0  0
  2 12  1  0  0  0  0
  4  5  2  0  0  0  0
  5 10  1  0  0  0  0
  6 11  1  0  0  0  0
  6  2  2  0  0  0  0
  7  8  1  0  0  0  0
  9 12  2  0  0  0  0
  9  7  1  0  0  0  0
 10  7  2  0  0  0  0
 11  9  1  0  0  0  0
 12  3  1  0  0  0  0
 13  4  1  0  0  0  0
 13 11  2  0  0  0  0
 14 17  2  0  0  0  0
 14 18  1  0  0  0  0
 15  1  1  1  0  0  0
 16 15  1  0  0  0  0
 17 16  1  0  0  0  0
 18 19  1  0  0  0  0
 19 15  1  0  0  0  0
 20 23  1  0  0  0  0
 21 22  1  0  0  0  0
 23 26  1  0  0  0  0
 24 21  2  0  0  0  0
 25 22  1  0  0  0  0
 26 25  2  0  0  0  0
 27 23  2  0  0  0  0
 27 24  1  0  0  0  0
M  END
>  <MODEL>
1

>  <REMARK>
 VINA RESULT:     -10.3      0.000      0.000
  Name = 
  4 active torsions:
  status: ('A' for Active; 'I' for Inactive)
    1  A    between atoms: C_1  and  C_15
    2  A    between atoms: C_1  and  C_18
    3  A    between atoms: C_2  and  C_15
    4  A    between atoms: C_9  and  C_15
                            x       y       z     vdW  Elec       q    Type
                         _______ _______ _______ _____ _____    ______ ____

>  <TORSDO>
F 4

$$$$
=
 OpenBabel10262420063D

 27 30  0  0  1  0  0  0  0  0999 V2000
  188.3920  177.9180  142.3070 C   0  0  2  0  0  3  0  0  0  0  0  0
  188.3660  177.8830  140.8040 C   0  0  0  0  0  0  0  0  0  0  0  0
  185.9880  178.7630  140.5730 C   0  0  0  0  0  1  0  0  0  0  0  0
  189.4140  177.1690  136.2750 C   0  0  0  0  0  3  0  0  0  0  0  0
  188.2280  177.5870  135.6830 C   0  0  0  0  0  3  0  0  0  0  0  0
  189.3920  177.4270  139.9940 C   0  0  0  0  0  3  0  0  0  0  0  0
  186.7450  178.2900  137.6050 C   0  0  0  0  0  0  0  0  0  0  0  0
  185.5040  178.7840  137.8410 F   0  0  0  0  0  0  0  0  0  0  0  0
  187.5900  178.0390  138.6900 C   0  0  0  0  0  0  0  0  0  0  0  0
  187.0640  178.0770  136.2680 C   0  0  0  0  0  3  0  0  0  0  0  0
  188.9540  177.5130  138.6870 C   0  0  0  0  0  0  0  0  0  0  0  0
  187.2790  178.2450  140.0280 C   0  0  0  0  0  0  0  0  0  0  0  0
  189.7460  177.1320  137.6200 C   0  0  0  0  0  3  0  0  0  0  0  0
  191.9720  177.6130  144.7700 C   0  0  0  0  0  3  0  0  0  0  0  0
  189.7900  177.8010  142.9340 C   0  0  2  0  0  3  0  0  0  0  0  0
  189.9990  176.4980  143.7130 C   0  0  0  0  0  2  0  0  0  0  0  0
  191.2880  176.4930  144.4940 C   0  0  0  0  0  3  0  0  0  0  0  0
  191.5670  178.9620  144.2320 C   0  0  0  0  0  2  0  0  0  0  0  0
  190.0960  179.0010  143.8260 C   0  0  0  0  0  2  0  0  0  0  0  0
  187.2490  177.1400  142.9840 C   0  0  0  0  0  2  0  0  0  0  0  0
  185.4430  178.5800  146.9310 C   0  0  0  0  0  3  0  0  0  0  0  0
  184.3100  178.5010  145.9640 C   0  0  0  0  0  2  0  0  0  0  0  0
  186.6320  177.8250  144.1640 C   0  0  0  0  0  0  0  0  0  0  0  0
  186.6590  178.1000  146.6710 C   0  0  0  0  0  3  0  0  0  0  0  0
  184.6200  179.2160  144.6910 C   0  0  0  0  0  3  0  0  0  0  0  0
  185.6280  178.8760  143.8890 C   0  0  0  0  0  3  0  0  0  0  0  0
  187.0890  177.5150  145.3860 C   0  0  0  0  0  3  0  0  0  0  0  0
  1 20  1  1  0  0  0
  2  1  1  0  0  0  0
  4 13  1  0  0  0  0
  5 10  1  0  0  0  0
  5  4  2  0  0  0  0
  6  2  2  0  0  0  0
  7  8  1  0  0  0  0
  7  9  1  0  0  0  0
  9 12  2  0  0  0  0
 10  7  2  0  0  0  0
 11  9  1  0  0  0  0
 11  6  1  0  0  0  0
 12  3  1  0  0  0  0
 12  2  1  0  0  0  0
 13 11  2  0  0  0  0
 15  1  1  1  0  0  0
 15 16  1  0  0  0  0
 15 19  1  0  0  0  0
 16 17  1  0  0  0  0
 17 14  2  0  0  0  0
 18 14  1  0  0  0  0
 19 18  1  0  0  0  0
 20 23  1  0  0  0  0
 22 21  1  0  0  0  0
 23 27  2  0  0  0  0
 24 21  2  0  0  0  0
 25 22  1  0  0  0  0
 26 23  1  0  0  0  0
 26 25  2  0  0  0  0
 27 24  1  0  0  0  0
M  END
>  <MODEL>
2

>  <REMARK>
 VINA RESULT:     -10.1      2.541      5.746
  Name = 
  4 active torsions:
  status: ('A' for Active; 'I' for Inactive)
    1  A    between atoms: C_1  and  C_15
    2  A    between atoms: C_1  and  C_18
    3  A    between atoms: C_2  and  C_15
    4  A    between atoms: C_9  and  C_15
                            x       y       z     vdW  Elec       q    Type
                         _______ _______ _______ _____ _____    ______ ____

>  <TORSDO>
F 4

$$$$
=
 OpenBabel10262420063D

 27 30  0  0  1  0  0  0  0  0999 V2000
  187.3250  177.8210  144.3720 C   0  0  2  0  0  3  0  0  0  0  0  0
  186.0410  178.1150  143.6450 C   0  0  0  0  0  0  0  0  0  0  0  0
  184.6810  178.6300  145.7340 C   0  0  0  0  0  1  0  0  0  0  0  0
  182.7070  178.5970  140.3630 C   0  0  0  0  0  3  0  0  0  0  0  0
  181.6250  178.9390  141.1660 C   0  0  0  0  0  3  0  0  0  0  0  0
  185.8540  178.0210  142.2770 C   0  0  0  0  0  3  0  0  0  0  0  0
  182.5330  178.9510  143.5240 C   0  0  0  0  0  0  0  0  0  0  0  0
  182.1270  179.1750  144.7990 F   0  0  0  0  0  0  0  0  0  0  0  0
  183.8670  178.6070  143.2910 C   0  0  0  0  0  0  0  0  0  0  0  0
  181.5530  179.0930  142.5460 C   0  0  0  0  0  3  0  0  0  0  0  0
  184.5310  178.3220  142.0200 C   0  0  0  0  0  0  0  0  0  0  0  0
  184.8500  178.4600  144.2600 C   0  0  0  0  0  0  0  0  0  0  0  0
  184.0120  178.3180  140.7390 C   0  0  0  0  0  3  0  0  0  0  0  0
  191.1670  177.1120  142.4460 C   0  0  0  0  0  3  0  0  0  0  0  0
  188.5640  177.6940  143.4730 C   0  0  2  0  0  3  0  0  0  0  0  0
  188.9290  176.2420  143.1450 C   0  0  0  0  0  2  0  0  0  0  0  0
  190.2590  176.1250  142.4450 C   0  0  0  0  0  3  0  0  0  0  0  0
  190.8940  178.4630  143.0580 C   0  0  0  0  0  2  0  0  0  0  0  0
  189.7640  178.4120  144.0830 C   0  0  0  0  0  2  0  0  0  0  0  0
  187.1870  176.8160  145.5300 C   0  0  0  0  0  2  0  0  0  0  0  0
  189.5020  178.3960  149.1430 C   0  0  0  0  0  3  0  0  0  0  0  0
  190.5080  178.2140  148.0560 C   0  0  0  0  0  2  0  0  0  0  0  0
  188.0380  177.1100  146.7250 C   0  0  0  0  0  0  0  0  0  0  0  0
  188.1880  178.3010  148.9440 C   0  0  0  0  0  3  0  0  0  0  0  0
  190.4220  176.8560  147.4460 C   0  0  0  0  0  3  0  0  0  0  0  0
  189.3320  176.4010  146.8270 C   0  0  0  0  0  3  0  0  0  0  0  0
  187.5420  177.9200  147.6730 C   0  0  0  0  0  3  0  0  0  0  0  0
  1 20  1  6  0  0  0
  2 12  1  0  0  0  0
  2  1  1  0  0  0  0
  4 13  1  0  0  0  0
  4  5  2  0  0  0  0
  5 10  1  0  0  0  0
  6  2  2  0  0  0  0
  7  8  1  0  0  0  0
  9  7  1  0  0  0  0
  9 12  2  0  0  0  0
 10  7  2  0  0  0  0
 11  6  1  0  0  0  0
 11  9  1  0  0  0  0
 12  3  1  0  0  0  0
 13 11  2  0  0  0  0
 14 18  1  0  0  0  0
 15 19  1  0  0  0  0
 15  1  1  1  0  0  0
 16 15  1  0  0  0  0
 17 14  2  0  0  0  0
 17 16  1  0  0  0  0
 18 19  1  0  0  0  0
 20 23  1  0  0  0  0
 22 21  1  0  0  0  0
 23 26  1  0  0  0  0
 23 27  2  0  0  0  0
 24 21  2  0  0  0  0
 25 22  1  0  0  0  0
 26 25  2  0  0  0  0
 27 24  1  0  0  0  0
M  END
>  <MODEL>
3

>  <REMARK>
 VINA RESULT:     -10.1      1.653      2.385
  Name = 
  4 active torsions:
  status: ('A' for Active; 'I' for Inactive)
    1  A    between atoms: C_1  and  C_15
    2  A    between atoms: C_1  and  C_18
    3  A    between atoms: C_2  and  C_15
    4  A    between atoms: C_9  and  C_15
                            x       y       z     vdW  Elec       q    Type
                         _______ _______ _______ _____ _____    ______ ____

>  <TORSDO>
F 4

$$$$
=
 OpenBabel10262420063D

 27 30  0  0  1  0  0  0  0  0999 V2000
  188.4020  177.8850  142.3060 C   0  0  2  0  0  3  0  0  0  0  0  0
  188.3500  177.8430  140.8030 C   0  0  0  0  0  0  0  0  0  0  0  0
  190.7720  177.1290  140.4870 C   0  0  0  0  0  1  0  0  0  0  0  0
  187.0220  178.2390  136.3090 C   0  0  0  0  0  3  0  0  0  0  0  0
  188.2050  177.8780  135.6750 C   0  0  0  0  0  3  0  0  0  0  0  0
  187.2520  178.1790  140.0300 C   0  0  0  0  0  3  0  0  0  0  0  0
  189.8320  177.3890  137.5450 C   0  0  0  0  0  0  0  0  0  0  0  0
  191.1180  177.0000  137.7370 F   0  0  0  0  0  0  0  0  0  0  0  0
  189.0270  177.6340  138.6610 C   0  0  0  0  0  0  0  0  0  0  0  0
  189.4310  177.5070  136.2180 C   0  0  0  0  0  3  0  0  0  0  0  0
  187.6280  178.0570  138.7070 C   0  0  0  0  0  0  0  0  0  0  0  0
  189.4200  177.5220  139.9880 C   0  0  0  0  0  0  0  0  0  0  0  0
  186.7570  178.3220  137.6670 C   0  0  0  0  0  3  0  0  0  0  0  0
  192.0260  177.6110  144.7080 C   0  0  0  0  0  3  0  0  0  0  0  0
  189.8090  177.7590  142.9100 C   0  0  2  0  0  3  0  0  0  0  0  0
  189.9920  176.5020  143.7670 C   0  0  0  0  0  2  0  0  0  0  0  0
  191.2980  176.5010  144.5190 C   0  0  0  0  0  3  0  0  0  0  0  0
  191.6550  178.9360  144.0930 C   0  0  0  0  0  2  0  0  0  0  0  0
  190.1770  179.0020  143.7150 C   0  0  0  0  0  2  0  0  0  0  0  0
  187.2630  177.1220  143.0070 C   0  0  0  0  0  2  0  0  0  0  0  0
  185.3050  178.7550  146.8020 C   0  0  0  0  0  3  0  0  0  0  0  0
  184.2110  178.6280  145.7960 C   0  0  0  0  0  2  0  0  0  0  0  0
  186.6010  177.8640  144.1250 C   0  0  0  0  0  0  0  0  0  0  0  0
  186.5290  178.2640  146.6150 C   0  0  0  0  0  3  0  0  0  0  0  0
  184.5710  179.2780  144.5030 C   0  0  0  0  0  3  0  0  0  0  0  0
  185.6100  178.8990  143.7590 C   0  0  0  0  0  3  0  0  0  0  0  0
  187.0090  177.6160  145.3790 C   0  0  0  0  0  3  0  0  0  0  0  0
  1 20  1  1  0  0  0
  2  1  1  0  0  0  0
  4 13  2  0  0  0  0
  5 10  2  0  0  0  0
  5  4  1  0  0  0  0
  6  2  1  0  0  0  0
  7  8  1  0  0  0  0
  7  9  2  0  0  0  0
  9 11  1  0  0  0  0
  9 12  1  0  0  0  0
 10  7  1  0  0  0  0
 11  6  2  0  0  0  0
 12  3  1  0  0  0  0
 12  2  2  0  0  0  0
 13 11  1  0  0  0  0
 15  1  1  1  0  0  0
 15 19  1  0  0  0  0
 15 16  1  0  0  0  0
 16 17  1  0  0  0  0
 17 14  2  0  0  0  0
 18 14  1  0  0  0  0
 19 18  1  0  0  0  0
 20 23  1  0  0  0  0
 22 21  1  0  0  0  0
 23 27  2  0  0  0  0
 24 21  2  0  0  0  0
 25 22  1  0  0  0  0
 26 23  1  0  0  0  0
 26 25  2  0  0  0  0
 27 24  1  0  0  0  0
M  END
>  <MODEL>
4

>  <REMARK>
 VINA RESULT:      -9.7      3.035      6.089
  Name = 
  4 active torsions:
  status: ('A' for Active; 'I' for Inactive)
    1  A    between atoms: C_1  and  C_15
    2  A    between atoms: C_1  and  C_18
    3  A    between atoms: C_2  and  C_15
    4  A    between atoms: C_9  and  C_15
                            x       y       z     vdW  Elec       q    Type
                         _______ _______ _______ _____ _____    ______ ____

>  <TORSDO>
F 4

$$$$
=
 OpenBabel10262420063D

 27 30  0  0  1  0  0  0  0  0999 V2000
  188.3020  177.7470  142.1020 C   0  0  2  0  0  3  0  0  0  0  0  0
  186.8960  178.0710  142.5280 C   0  0  0  0  0  0  0  0  0  0  0  0
  187.3380  177.8770  145.0270 C   0  0  0  0  0  1  0  0  0  0  0  0
  182.2850  178.9940  142.5840 C   0  0  0  0  0  3  0  0  0  0  0  0
  182.0550  178.9950  143.9550 C   0  0  0  0  0  3  0  0  0  0  0  0
  185.8340  178.3080  141.6720 C   0  0  0  0  0  3  0  0  0  0  0  0
  184.3040  178.5070  145.0000 C   0  0  0  0  0  0  0  0  0  0  0  0
  184.8780  178.3490  146.2190 F   0  0  0  0  0  0  0  0  0  0  0  0
  185.1000  178.3870  143.8570 C   0  0  0  0  0  0  0  0  0  0  0  0
  182.9400  178.7820  145.0080 C   0  0  0  0  0  3  0  0  0  0  0  0
  184.7140  178.5130  142.4530 C   0  0  0  0  0  0  0  0  0  0  0  0
  186.4600  178.1090  143.8400 C   0  0  0  0  0  0  0  0  0  0  0  0
  183.4730  178.7780  141.9040 C   0  0  0  0  0  3  0  0  0  0  0  0
  191.6810  177.1990  144.7960 C   0  0  0  0  0  3  0  0  0  0  0  0
  189.3050  177.5750  143.2540 C   0  0  2  0  0  3  0  0  0  0  0  0
  190.3190  178.7190  143.3510 C   0  0  0  0  0  2  0  0  0  0  0  0
  191.4180  178.4330  144.3420 C   0  0  0  0  0  3  0  0  0  0  0  0
  190.8320  176.0070  144.4360 C   0  0  0  0  0  2  0  0  0  0  0  0
  190.0300  176.2360  143.1570 C   0  0  0  0  0  2  0  0  0  0  0  0
  188.7840  178.5130  140.8560 C   0  0  0  0  0  2  0  0  0  0  0  0
  190.8880  176.2600  137.4800 C   0  0  0  0  0  3  0  0  0  0  0  0
  189.8440  177.1010  136.8260 C   0  0  0  0  0  2  0  0  0  0  0  0
  189.2670  177.6490  139.7330 C   0  0  0  0  0  0  0  0  0  0  0  0
  191.2160  176.3720  138.7660 C   0  0  0  0  0  3  0  0  0  0  0  0
  188.5080  176.9170  137.4630 C   0  0  0  0  0  3  0  0  0  0  0  0
  188.2640  177.2030  138.7420 C   0  0  0  0  0  3  0  0  0  0  0  0
  190.5490  177.2560  139.7420 C   0  0  0  0  0  3  0  0  0  0  0  0
  1 20  1  6  0  0  0
  1  2  1  0  0  0  0
  2 12  1  0  0  0  0
  4  5  2  0  0  0  0
  5 10  1  0  0  0  0
  6 11  1  0  0  0  0
  6  2  2  0  0  0  0
  7 10  2  0  0  0  0
  7  8  1  0  0  0  0
  9  7  1  0  0  0  0
 11  9  1  0  0  0  0
 12  9  2  0  0  0  0
 12  3  1  0  0  0  0
 13 11  2  0  0  0  0
 13  4  1  0  0  0  0
 15  1  1  6  0  0  0
 15 16  1  0  0  0  0
 16 17  1  0  0  0  0
 17 14  2  0  0  0  0
 18 14  1  0  0  0  0
 19 15  1  0  0  0  0
 19 18  1  0  0  0  0
 21 24  2  0  0  0  0
 22 25  1  0  0  0  0
 22 21  1  0  0  0  0
 23 27  2  0  0  0  0
 23 20  1  0  0  0  0
 24 27  1  0  0  0  0
 25 26  2  0  0  0  0
 26 23  1  0  0  0  0
M  END
>  <MODEL>
5

>  <REMARK>
 VINA RESULT:      -9.5      1.461      4.716
  Name = 
  4 active torsions:
  status: ('A' for Active; 'I' for Inactive)
    1  A    between atoms: C_1  and  C_15
    2  A    between atoms: C_1  and  C_18
    3  A    between atoms: C_2  and  C_15
    4  A    between atoms: C_9  and  C_15
                            x       y       z     vdW  Elec       q    Type
                         _______ _______ _______ _____ _____    ______ ____

>  <TORSDO>
F 4

$$$$
=
 OpenBabel10262420063D

 27 30  0  0  1  0  0  0  0  0999 V2000
  183.2960  178.6010  141.0500 C   0  0  2  0  0  3  0  0  0  0  0  0
  184.2780  178.3690  142.1660 C   0  0  0  0  0  0  0  0  0  0  0  0
  182.6800  179.0030  144.0440 C   0  0  0  0  0  1  0  0  0  0  0  0
  188.1680  177.5030  144.6640 C   0  0  0  0  0  3  0  0  0  0  0  0
  187.6920  177.7490  145.9460 C   0  0  0  0  0  3  0  0  0  0  0  0
  185.6000  177.9900  142.0060 C   0  0  0  0  0  3  0  0  0  0  0  0
  185.2700  178.3990  145.6360 C   0  0  0  0  0  0  0  0  0  0  0  0
  184.1850  178.7670  146.3620 F   0  0  0  0  0  0  0  0  0  0  0  0
  185.1520  178.3080  144.2450 C   0  0  0  0  0  0  0  0  0  0  0  0
  186.4240  178.1390  146.3670 C   0  0  0  0  0  3  0  0  0  0  0  0
  186.1680  177.9360  143.2630 C   0  0  0  0  0  0  0  0  0  0  0  0
  184.0050  178.5680  143.5080 C   0  0  0  0  0  0  0  0  0  0  0  0
  187.4910  177.5860  143.4570 C   0  0  0  0  0  3  0  0  0  0  0  0
  179.9960  175.9450  140.0360 C   0  0  0  0  0  3  0  0  0  0  0  0
  182.1780  177.5540  140.9430 C   0  0  2  0  0  3  0  0  0  0  0  0
  182.4240  176.5140  139.8440 C   0  0  0  0  0  2  0  0  0  0  0  0
  181.2280  175.6280  139.6090 C   0  0  0  0  0  3  0  0  0  0  0  0
  179.7210  177.1640  140.8790 C   0  0  0  0  0  2  0  0  0  0  0  0
  180.8180  178.2170  140.7430 C   0  0  0  0  0  2  0  0  0  0  0  0
  183.9280  179.0960  139.7370 C   0  0  0  0  0  2  0  0  0  0  0  0
  180.6120  180.9640  137.2020 C   0  0  0  0  0  3  0  0  0  0  0  0
  180.3400  179.4970  137.2210 C   0  0  0  0  0  2  0  0  0  0  0  0
  182.9540  179.6020  138.7190 C   0  0  0  0  0  0  0  0  0  0  0  0
  181.5290  181.5460  137.9740 C   0  0  0  0  0  3  0  0  0  0  0  0
  181.5500  178.7060  136.8510 C   0  0  0  0  0  3  0  0  0  0  0  0
  182.6840  178.7370  137.5510 C   0  0  0  0  0  3  0  0  0  0  0  0
  182.4580  180.8390  138.8770 C   0  0  0  0  0  3  0  0  0  0  0  0
  1 20  1  6  0  0  0
  1  2  1  0  0  0  0
  2 12  1  0  0  0  0
  4  5  2  0  0  0  0
  5 10  1  0  0  0  0
  6  2  2  0  0  0  0
  6 11  1  0  0  0  0
  7  8  1  0  0  0  0
  7 10  2  0  0  0  0
  9  7  1  0  0  0  0
 11 13  2  0  0  0  0
 11  9  1  0  0  0  0
 12  3  1  0  0  0  0
 12  9  2  0  0  0  0
 13  4  1  0  0  0  0
 14 18  1  0  0  0  0
 15  1  1  6  0  0  0
 16 15  1  0  0  0  0
 17 16  1  0  0  0  0
 17 14  2  0  0  0  0
 19 18  1  0  0  0  0
 19 15  1  0  0  0  0
 21 22  1  0  0  0  0
 21 24  2  0  0  0  0
 23 27  2  0  0  0  0
 23 20  1  0  0  0  0
 24 27  1  0  0  0  0
 25 22  1  0  0  0  0
 25 26  2  0  0  0  0
 26 23  1  0  0  0  0
M  END
>  <MODEL>
6

>  <REMARK>
 VINA RESULT:      -9.5      2.405      8.186
  Name = 
  4 active torsions:
  status: ('A' for Active; 'I' for Inactive)
    1  A    between atoms: C_1  and  C_15
    2  A    between atoms: C_1  and  C_18
    3  A    between atoms: C_2  and  C_15
    4  A    between atoms: C_9  and  C_15
                            x       y       z     vdW  Elec       q    Type
                         _______ _______ _______ _____ _____    ______ ____

>  <TORSDO>
F 4

$$$$
=
 OpenBabel10262420063D

 27 30  0  0  1  0  0  0  0  0999 V2000
  187.1010  177.8930  143.9440 C   0  0  2  0  0  3  0  0  0  0  0  0
  185.9740  178.1700  142.9860 C   0  0  0  0  0  0  0  0  0  0  0  0
  187.4560  178.5000  140.9430 C   0  0  0  0  0  1  0  0  0  0  0  0
  181.7600  179.0330  141.0850 C   0  0  0  0  0  3  0  0  0  0  0  0
  182.1350  179.2910  139.7720 C   0  0  0  0  0  3  0  0  0  0  0  0
  184.6330  178.2360  143.3230 C   0  0  0  0  0  3  0  0  0  0  0  0
  184.6500  179.0390  139.7440 C   0  0  0  0  0  0  0  0  0  0  0  0
  185.6990  179.1260  138.8890 F   0  0  0  0  0  0  0  0  0  0  0  0
  184.8930  178.7110  141.0820 C   0  0  0  0  0  0  0  0  0  0  0  0
  183.3990  179.2920  139.1900 C   0  0  0  0  0  3  0  0  0  0  0  0
  183.9360  178.5610  142.1760 C   0  0  0  0  0  0  0  0  0  0  0  0
  186.1370  178.4610  141.6440 C   0  0  0  0  0  0  0  0  0  0  0  0
  182.5610  178.7060  142.1680 C   0  0  0  0  0  3  0  0  0  0  0  0
  191.1650  176.8460  142.7790 C   0  0  0  0  0  3  0  0  0  0  0  0
  188.4610  177.6200  143.2840 C   0  0  2  0  0  3  0  0  0  0  0  0
  188.8060  176.1300  143.1990 C   0  0  0  0  0  2  0  0  0  0  0  0
  190.2240  175.8910  142.7470 C   0  0  0  0  0  3  0  0  0  0  0  0
  190.8600  178.2700  143.1690 C   0  0  0  0  0  2  0  0  0  0  0  0
  189.5800  178.3790  143.9930 C   0  0  0  0  0  2  0  0  0  0  0  0
  186.7140  177.0170  145.1490 C   0  0  0  0  0  2  0  0  0  0  0  0
  188.8670  178.5520  148.8790 C   0  0  0  0  0  3  0  0  0  0  0  0
  189.9370  178.2080  147.8980 C   0  0  0  0  0  2  0  0  0  0  0  0
  187.4870  177.2890  146.4020 C   0  0  0  0  0  0  0  0  0  0  0  0
  187.5720  178.5800  148.5670 C   0  0  0  0  0  3  0  0  0  0  0  0
  189.7590  176.8330  147.3460 C   0  0  0  0  0  3  0  0  0  0  0  0
  188.6840  176.4580  146.6530 C   0  0  0  0  0  3  0  0  0  0  0  0
  187.0000  178.1960  147.2620 C   0  0  0  0  0  3  0  0  0  0  0  0
  1 20  1  6  0  0  0
  2  6  1  0  0  0  0
  2  1  1  0  0  0  0
  3 12  1  0  0  0  0
  4 13  2  0  0  0  0
  5  4  1  0  0  0  0
  7  9  2  0  0  0  0
  8  7  1  0  0  0  0
  9 12  1  0  0  0  0
  9 11  1  0  0  0  0
 10  7  1  0  0  0  0
 10  5  2  0  0  0  0
 11  6  2  0  0  0  0
 12  2  2  0  0  0  0
 13 11  1  0  0  0  0
 14 18  1  0  0  0  0
 15  1  1  1  0  0  0
 15 19  1  0  0  0  0
 16 15  1  0  0  0  0
 17 14  2  0  0  0  0
 17 16  1  0  0  0  0
 18 19  1  0  0  0  0
 20 23  1  0  0  0  0
 22 21  1  0  0  0  0
 23 26  1  0  0  0  0
 23 27  2  0  0  0  0
 24 21  2  0  0  0  0
 25 22  1  0  0  0  0
 26 25  2  0  0  0  0
 27 24  1  0  0  0  0
M  END
>  <MODEL>
7

>  <REMARK>
 VINA RESULT:      -9.5      2.057      3.318
  Name = 
  4 active torsions:
  status: ('A' for Active; 'I' for Inactive)
    1  A    between atoms: C_1  and  C_15
    2  A    between atoms: C_1  and  C_18
    3  A    between atoms: C_2  and  C_15
    4  A    between atoms: C_9  and  C_15
                            x       y       z     vdW  Elec       q    Type
                         _______ _______ _______ _____ _____    ______ ____

>  <TORSDO>
F 4

$$$$
=
 OpenBabel10262420063D

 27 30  0  0  1  0  0  0  0  0999 V2000
  186.8420  177.8790  142.2390 C   0  0  2  0  0  3  0  0  0  0  0  0
  187.2440  177.8390  143.6880 C   0  0  0  0  0  0  0  0  0  0  0  0
  184.9650  178.5100  144.6010 C   0  0  0  0  0  1  0  0  0  0  0  0
  189.6780  177.5520  147.7020 C   0  0  0  0  0  3  0  0  0  0  0  0
  188.6800  177.8780  148.6130 C   0  0  0  0  0  3  0  0  0  0  0  0
  188.5160  177.5610  144.1590 C   0  0  0  0  0  3  0  0  0  0  0  0
  186.6170  178.2860  147.2130 C   0  0  0  0  0  0  0  0  0  0  0  0
  185.3110  178.6280  147.3500 F   0  0  0  0  0  0  0  0  0  0  0  0
  187.1230  178.0520  145.9300 C   0  0  0  0  0  0  0  0  0  0  0  0
  187.3440  178.1970  148.3960 C   0  0  0  0  0  3  0  0  0  0  0  0
  188.4790  177.6760  145.5350 C   0  0  0  0  0  0  0  0  0  0  0  0
  186.4060  178.1420  144.7450 C   0  0  0  0  0  0  0  0  0  0  0  0
  189.5950  177.4610  146.3210 C   0  0  0  0  0  3  0  0  0  0  0  0
  190.4000  177.3700  139.7770 C   0  0  0  0  0  3  0  0  0  0  0  0
  187.9520  177.4980  141.2470 C   0  0  2  0  0  3  0  0  0  0  0  0
  189.2000  176.9210  141.9250 C   0  0  0  0  0  2  0  0  0  0  0  0
  190.3510  176.7530  140.9670 C   0  0  0  0  0  3  0  0  0  0  0  0
  189.2590  178.2020  139.2500 C   0  0  0  0  0  2  0  0  0  0  0  0
  188.3340  178.6830  140.3650 C   0  0  0  0  0  2  0  0  0  0  0  0
  185.9340  179.0620  141.8600 C   0  0  0  0  0  2  0  0  0  0  0  0
  182.3000  177.4400  139.6090 C   0  0  0  0  0  3  0  0  0  0  0  0
  183.4830  177.1340  138.7550 C   0  0  0  0  0  2  0  0  0  0  0  0
  184.7830  178.7140  140.9690 C   0  0  0  0  0  0  0  0  0  0  0  0
  182.3980  177.8970  140.8570 C   0  0  0  0  0  3  0  0  0  0  0  0
  184.3330  178.3410  138.5350 C   0  0  0  0  0  3  0  0  0  0  0  0
  184.9300  179.0030  139.5260 C   0  0  0  0  0  3  0  0  0  0  0  0
  183.6580  178.2530  141.5380 C   0  0  0  0  0  3  0  0  0  0  0  0
  1 20  1  6  0  0  0
  1  2  1  0  0  0  0
  2  6  2  0  0  0  0
  2 12  1  0  0  0  0
  3 12  1  0  0  0  0
  4  5  2  0  0  0  0
  6 11  1  0  0  0  0
  7  8  1  0  0  0  0
  7 10  2  0  0  0  0
  9  7  1  0  0  0  0
 10  5  1  0  0  0  0
 11  9  1  0  0  0  0
 11 13  2  0  0  0  0
 12  9  2  0  0  0  0
 13  4  1  0  0  0  0
 14 17  2  0  0  0  0
 15 16  1  0  0  0  0
 15  1  1  1  0  0  0
 17 16  1  0  0  0  0
 18 14  1  0  0  0  0
 18 19  1  0  0  0  0
 19 15  1  0  0  0  0
 21 24  2  0  0  0  0
 22 21  1  0  0  0  0
 23 27  2  0  0  0  0
 23 20  1  0  0  0  0
 24 27  1  0  0  0  0
 25 22  1  0  0  0  0
 25 26  2  0  0  0  0
 26 23  1  0  0  0  0
M  END
>  <MODEL>
8

>  <REMARK>
 VINA RESULT:      -9.4      1.481      6.407
  Name = 
  4 active torsions:
  status: ('A' for Active; 'I' for Inactive)
    1  A    between atoms: C_1  and  C_15
    2  A    between atoms: C_1  and  C_18
    3  A    between atoms: C_2  and  C_15
    4  A    between atoms: C_9  and  C_15
                            x       y       z     vdW  Elec       q    Type
                         _______ _______ _______ _____ _____    ______ ____

>  <TORSDO>
F 4

$$$$
=
 OpenBabel10262420063D

 27 30  0  0  1  0  0  0  0  0999 V2000
  186.7780  177.8050  144.2210 C   0  0  2  0  0  3  0  0  0  0  0  0
  185.4050  178.1010  143.6820 C   0  0  0  0  0  0  0  0  0  0  0  0
  186.1060  178.1740  141.2360 C   0  0  0  0  0  1  0  0  0  0  0  0
  180.8410  179.1510  143.2550 C   0  0  0  0  0  3  0  0  0  0  0  0
  180.7520  179.2880  141.8740 C   0  0  0  0  0  3  0  0  0  0  0  0
  184.2670  178.2930  144.4470 C   0  0  0  0  0  3  0  0  0  0  0  0
  183.0870  178.8430  141.0180 C   0  0  0  0  0  0  0  0  0  0  0  0
  183.7810  178.7890  139.8530 F   0  0  0  0  0  0  0  0  0  0  0  0
  183.7610  178.5900  142.2170 C   0  0  0  0  0  0  0  0  0  0  0  0
  181.7360  179.1520  140.9000 C   0  0  0  0  0  3  0  0  0  0  0  0
  183.2340  178.5900  143.5800 C   0  0  0  0  0  0  0  0  0  0  0  0
  185.1090  178.2850  142.3430 C   0  0  0  0  0  0  0  0  0  0  0  0
  181.9500  178.8400  144.0260 C   0  0  0  0  0  3  0  0  0  0  0  0
  187.5630  178.1170  148.4940 C   0  0  0  0  0  3  0  0  0  0  0  0
  186.8670  177.7130  145.7520 C   0  0  2  0  0  3  0  0  0  0  0  0
  186.3820  178.9800  146.4660 C   0  0  0  0  0  2  0  0  0  0  0  0
  186.6720  178.9560  147.9440 C   0  0  0  0  0  3  0  0  0  0  0  0
  188.2730  177.0540  147.6970 C   0  0  0  0  0  2  0  0  0  0  0  0
  188.2830  177.3670  146.2020 C   0  0  0  0  0  2  0  0  0  0  0  0
  187.9210  178.5330  143.4910 C   0  0  0  0  0  2  0  0  0  0  0  0
  191.5090  175.7030  143.6460 C   0  0  0  0  0  3  0  0  0  0  0  0
  191.6780  176.6450  144.7900 C   0  0  0  0  0  2  0  0  0  0  0  0
  189.2250  177.7990  143.4700 C   0  0  0  0  0  0  0  0  0  0  0  0
  190.3980  175.6360  142.9140 C   0  0  0  0  0  3  0  0  0  0  0  0
  191.5500  178.0670  144.3580 C   0  0  0  0  0  3  0  0  0  0  0  0
  190.4420  178.5670  143.8120 C   0  0  0  0  0  3  0  0  0  0  0  0
  189.2270  176.5230  143.0560 C   0  0  0  0  0  3  0  0  0  0  0  0
  1 20  1  1  0  0  0
  2  1  1  0  0  0  0
  2  6  1  0  0  0  0
  3 12  1  0  0  0  0
  4 13  2  0  0  0  0
  5  4  1  0  0  0  0
  7  9  2  0  0  0  0
  8  7  1  0  0  0  0
  9 12  1  0  0  0  0
  9 11  1  0  0  0  0
 10  7  1  0  0  0  0
 10  5  2  0  0  0  0
 11 13  1  0  0  0  0
 11  6  2  0  0  0  0
 12  2  2  0  0  0  0
 15  1  1  6  0  0  0
 15 19  1  0  0  0  0
 15 16  1  0  0  0  0
 16 17  1  0  0  0  0
 17 14  2  0  0  0  0
 18 14  1  0  0  0  0
 19 18  1  0  0  0  0
 21 22  1  0  0  0  0
 23 20  1  0  0  0  0
 23 26  1  0  0  0  0
 24 27  1  0  0  0  0
 24 21  2  0  0  0  0
 25 22  1  0  0  0  0
 26 25  2  0  0  0  0
 27 23  2  0  0  0  0
M  END
>  <MODEL>
9

>  <REMARK>
 VINA RESULT:      -9.2      1.948      4.186
  Name = 
  4 active torsions:
  status: ('A' for Active; 'I' for Inactive)
    1  A    between atoms: C_1  and  C_15
    2  A    between atoms: C_1  and  C_18
    3  A    between atoms: C_2  and  C_15
    4  A    between atoms: C_9  and  C_15
                            x       y       z     vdW  Elec       q    Type
                         _______ _______ _______ _____ _____    ______ ____

>  <TORSDO>
F 4

$$$$
