=
 OpenBabel10262423223D

 34 36  0  0  1  0  0  0  0  0999 V2000
  185.6310  178.8120  140.4930 C   0  0  0  0  0  0  0  0  0  0  0  0
  184.5590  179.1170  142.7210 C   0  0  1  0  0  3  0  0  0  0  0  0
  185.6770  178.6960  141.8250 C   0  0  0  0  0  3  0  0  0  0  0  0
  182.6820  178.3250  141.3050 C   0  0  0  0  0  3  0  0  0  0  0  0
  182.1240  179.4240  139.2810 F   0  0  0  0  0  0  0  0  0  0  0  0
  183.3340  178.3030  142.4670 C   0  0  0  0  0  3  0  0  0  0  0  0
  184.6570  180.1740  138.8280 O   0  0  0  0  0  0  0  0  0  0  0  0
  184.4530  179.4060  139.8060 C   0  0  0  0  0  0  0  0  0  0  0  0
  183.0930  179.0950  140.1650 N   0  0  0  0  0  0  0  0  0  0  0  0
  189.2370  178.1470  139.4750 C   0  0  0  0  0  3  0  0  0  0  0  0
  188.3410  179.0550  141.4720 F   0  0  0  0  0  0  0  0  0  0  0  0
  189.0760  177.6430  138.1820 C   0  0  0  0  0  0  0  0  0  0  0  0
  187.7840  177.5380  137.6470 C   0  0  0  0  0  3  0  0  0  0  0  0
  188.1310  178.5340  140.2370 C   0  0  0  0  0  0  0  0  0  0  0  0
  186.6740  177.9230  138.4000 C   0  0  0  0  0  3  0  0  0  0  0  0
  186.8280  178.4180  139.7070 C   0  0  0  0  0  0  0  0  0  0  0  0
  190.2240  177.2650  137.4680 O   0  0  0  0  0  0  0  0  0  0  0  0
  190.6620  175.1410  138.3090 O   0  0  0  0  0  0  0  0  0  0  0  0
  192.5340  176.3380  137.4870 C   0  0  0  0  0  1  0  0  0  0  0  0
  191.0840  176.2040  137.7820 C   0  0  0  0  0  0  0  0  0  0  0  0
  184.9470  179.0540  144.0960 O   0  0  0  0  0  0  0  0  0  0  0  0
  187.7380  176.6070  144.3290 C   0  0  0  0  0  2  0  0  0  0  0  0
  186.3570  178.3980  146.0190 C   0  0  0  0  0  3  0  0  0  0  0  0
  188.4750  177.2350  145.5200 C   0  0  2  0  0  3  0  0  0  0  0  0
  187.4950  177.8720  146.4790 C   0  0  0  0  0  0  0  0  0  0  0  0
  186.0050  178.2830  144.5950 C   0  0  0  0  0  0  0  0  0  0  0  0
  186.6870  177.4900  143.8180 N   0  0  0  0  0  0  0  0  0  0  0  0
  190.7600  178.0190  144.7820 C   0  0  0  0  0  3  0  0  0  0  0  0
  189.4690  178.2510  145.0510 C   0  0  0  0  0  3  0  0  0  0  0  0
  191.6020  175.7960  143.8540 C   0  0  0  0  0  1  0  0  0  0  0  0
  191.8320  176.3600  146.2650 C   0  0  0  0  0  1  0  0  0  0  0  0
  191.4400  176.7630  144.9290 N   0  0  0  0  0  0  0  0  0  0  0  0
  187.7990  178.0020  147.9090 C   0  0  0  0  0  3  0  0  0  0  0  0
  189.0420  178.0480  148.3700 C   0  0  0  0  0  2  0  0  0  0  0  0
  1  3  2  0  0  0  0
  2 21  1  1  0  0  0
  3  2  1  0  0  0  0
  4  6  2  0  0  0  0
  5  9  1  0  0  0  0
  6  2  1  0  0  0  0
  7  8  2  0  0  0  0
  8  9  1  0  0  0  0
  8  1  1  0  0  0  0
  9  4  1  0  0  0  0
 10 14  1  0  0  0  0
 12 10  2  0  0  0  0
 13 12  1  0  0  0  0
 13 15  2  0  0  0  0
 14 11  1  0  0  0  0
 15 16  1  0  0  0  0
 16 14  2  0  0  0  0
 16  1  1  0  0  0  0
 17 20  1  0  0  0  0
 17 12  1  0  0  0  0
 19 20  1  0  0  0  0
 20 18  2  0  0  0  0
 21 26  1  0  0  0  0
 22 24  1  0  0  0  0
 23 25  2  0  0  0  0
 24 29  1  6  0  0  0
 24 25  1  0  0  0  0
 25 33  1  0  0  0  0
 26 23  1  0  0  0  0
 27 22  1  0  0  0  0
 27 26  2  0  0  0  0
 28 32  1  0  0  0  0
 28 29  2  0  0  0  0
 30 32  1  0  0  0  0
 32 31  1  0  0  0  0
 33 34  2  0  0  0  0
M  END
>  <MODEL>
1

>  <REMARK>
 VINA RESULT:      -9.3      0.000      0.000
  Name = 
  8 active torsions:
  status: ('A' for Active; 'I' for Inactive)
    1  A    between atoms: C_1  and  C_34
    2  A    between atoms: C_7  and  N_21
    3  A    between atoms: C_8  and  O_18
    4  A    between atoms: C_14  and  C_16
    5  A    between atoms: O_18  and  C_30
    6  A    between atoms: O_23  and  C_24
    7  A    between atoms: O_23  and  C_25
    8  A    between atoms: C_26  and  C_28
                            x       y       z     vdW  Elec       q    Type
                         _______ _______ _______ _____ _____    ______ ____

>  <TORSDO>
F 8

$$$$
=
 OpenBabel10262423223D

 34 36  0  0  1  0  0  0  0  0999 V2000
  182.9290  178.3870  141.3140 C   0  0  0  0  0  0  0  0  0  0  0  0
  183.7220  179.3930  143.4510 C   0  0  1  0  0  3  0  0  0  0  0  0
  183.9090  178.6020  142.1990 C   0  0  0  0  0  3  0  0  0  0  0  0
  181.4580  178.5620  144.0340 C   0  0  0  0  0  3  0  0  0  0  0  0
  179.5560  179.1940  142.7680 F   0  0  0  0  0  0  0  0  0  0  0  0
  182.7380  178.7330  144.3590 C   0  0  0  0  0  3  0  0  0  0  0  0
  180.9680  179.4210  140.5020 O   0  0  0  0  0  0  0  0  0  0  0  0
  181.5700  178.9600  141.5080 C   0  0  0  0  0  0  0  0  0  0  0  0
  180.8870  178.9540  142.7760 N   0  0  0  0  0  0  0  0  0  0  0  0
  184.3990  177.4320  137.9370 C   0  0  0  0  0  3  0  0  0  0  0  0
  184.6490  179.4050  139.2240 F   0  0  0  0  0  0  0  0  0  0  0  0
  183.8390  176.1670  137.7330 C   0  0  0  0  0  0  0  0  0  0  0  0
  182.9700  175.6440  138.7010 C   0  0  0  0  0  3  0  0  0  0  0  0
  184.1120  178.1660  139.0910 C   0  0  0  0  0  0  0  0  0  0  0  0
  182.6770  176.3710  139.8560 C   0  0  0  0  0  3  0  0  0  0  0  0
  183.2480  177.6360  140.0720 C   0  0  0  0  0  0  0  0  0  0  0  0
  184.1690  175.4750  136.5570 O   0  0  0  0  0  0  0  0  0  0  0  0
  183.8270  173.3260  135.7370 O   0  0  0  0  0  0  0  0  0  0  0  0
  185.6460  173.5890  137.2320 C   0  0  0  0  0  1  0  0  0  0  0  0
  184.4910  174.1150  136.4590 C   0  0  0  0  0  0  0  0  0  0  0  0
  184.9690  179.6170  144.1130 O   0  0  0  0  0  0  0  0  0  0  0  0
  187.4620  176.9160  143.5460 C   0  0  0  0  0  2  0  0  0  0  0  0
  186.3520  178.3400  145.7170 C   0  0  0  0  0  3  0  0  0  0  0  0
  188.3040  177.1310  144.8110 C   0  0  2  0  0  3  0  0  0  0  0  0
  187.4360  177.5960  145.9580 C   0  0  0  0  0  0  0  0  0  0  0  0
  185.9460  178.6370  144.3340 C   0  0  0  0  0  0  0  0  0  0  0  0
  186.5060  178.0070  143.3410 N   0  0  0  0  0  0  0  0  0  0  0  0
  190.7090  177.8900  144.6600 C   0  0  0  0  0  3  0  0  0  0  0  0
  189.3950  178.1250  144.5570 C   0  0  0  0  0  3  0  0  0  0  0  0
  191.7420  176.3680  146.4290 C   0  0  0  0  0  1  0  0  0  0  0  0
  191.6820  175.7080  144.0320 C   0  0  0  0  0  1  0  0  0  0  0  0
  191.3150  176.6540  145.0680 N   0  0  0  0  0  0  0  0  0  0  0  0
  187.7970  177.3180  147.3530 C   0  0  0  0  0  3  0  0  0  0  0  0
  188.2050  178.2680  148.1840 C   0  0  0  0  0  2  0  0  0  0  0  0
  1  8  1  0  0  0  0
  1  3  2  0  0  0  0
  2 21  1  1  0  0  0
  2  6  1  0  0  0  0
  3  2  1  0  0  0  0
  4  6  2  0  0  0  0
  5  9  1  0  0  0  0
  7  8  2  0  0  0  0
  8  9  1  0  0  0  0
  9  4  1  0  0  0  0
 10 14  1  0  0  0  0
 12 10  2  0  0  0  0
 12 13  1  0  0  0  0
 13 15  2  0  0  0  0
 14 11  1  0  0  0  0
 14 16  2  0  0  0  0
 15 16  1  0  0  0  0
 16  1  1  0  0  0  0
 17 12  1  0  0  0  0
 18 20  2  0  0  0  0
 20 17  1  0  0  0  0
 20 19  1  0  0  0  0
 21 26  1  0  0  0  0
 22 24  1  0  0  0  0
 23 25  2  0  0  0  0
 24 29  1  6  0  0  0
 24 25  1  0  0  0  0
 25 33  1  0  0  0  0
 26 23  1  0  0  0  0
 27 22  1  0  0  0  0
 27 26  2  0  0  0  0
 28 32  1  0  0  0  0
 29 28  2  0  0  0  0
 31 32  1  0  0  0  0
 32 30  1  0  0  0  0
 33 34  2  0  0  0  0
M  END
>  <MODEL>
2

>  <REMARK>
 VINA RESULT:      -9.3      3.062      3.672
  Name = 
  8 active torsions:
  status: ('A' for Active; 'I' for Inactive)
    1  A    between atoms: C_1  and  C_34
    2  A    between atoms: C_7  and  N_21
    3  A    between atoms: C_8  and  O_18
    4  A    between atoms: C_14  and  C_16
    5  A    between atoms: O_18  and  C_30
    6  A    between atoms: O_23  and  C_24
    7  A    between atoms: O_23  and  C_25
    8  A    between atoms: C_26  and  C_28
                            x       y       z     vdW  Elec       q    Type
                         _______ _______ _______ _____ _____    ______ ____

>  <TORSDO>
F 8

$$$$
=
 OpenBabel10262423223D

 34 36  0  0  1  0  0  0  0  0999 V2000
  188.3410  177.6180  145.5360 C   0  0  0  0  0  0  0  0  0  0  0  0
  186.0390  177.8890  146.4500 C   0  0  1  0  0  3  0  0  0  0  0  0
  187.0370  177.8410  145.3400 C   0  0  0  0  0  3  0  0  0  0  0  0
  187.4390  179.1010  148.1020 C   0  0  0  0  0  3  0  0  0  0  0  0
  189.2840  178.0480  149.1510 F   0  0  0  0  0  0  0  0  0  0  0  0
  186.3240  179.0240  147.3760 C   0  0  0  0  0  3  0  0  0  0  0  0
  189.7770  176.4860  147.0300 O   0  0  0  0  0  0  0  0  0  0  0  0
  188.8890  177.3690  146.8970 C   0  0  0  0  0  0  0  0  0  0  0  0
  188.4990  178.1330  148.0540 N   0  0  0  0  0  0  0  0  0  0  0  0
  189.8710  176.5140  142.2320 C   0  0  0  0  0  3  0  0  0  0  0  0
  188.0210  175.6550  143.4380 F   0  0  0  0  0  0  0  0  0  0  0  0
  190.9400  177.4060  142.1040 C   0  0  0  0  0  0  0  0  0  0  0  0
  191.1590  178.3540  143.1130 C   0  0  0  0  0  3  0  0  0  0  0  0
  189.0210  176.5670  143.3400 C   0  0  0  0  0  0  0  0  0  0  0  0
  190.3160  178.4140  144.2240 C   0  0  0  0  0  3  0  0  0  0  0  0
  189.2310  177.5290  144.3500 C   0  0  0  0  0  0  0  0  0  0  0  0
  191.7560  177.3070  140.9660 O   0  0  0  0  0  0  0  0  0  0  0  0
  190.2670  177.8330  139.2580 O   0  0  0  0  0  0  0  0  0  0  0  0
  192.1180  176.4860  138.6450 C   0  0  0  0  0  1  0  0  0  0  0  0
  191.3190  177.2530  139.6360 C   0  0  0  0  0  0  0  0  0  0  0  0
  184.7040  177.9580  145.9420 O   0  0  0  0  0  0  0  0  0  0  0  0
  184.9070  179.4870  142.5570 C   0  0  0  0  0  2  0  0  0  0  0  0
  182.9180  178.7050  144.4020 C   0  0  0  0  0  3  0  0  0  0  0  0
  183.5350  179.0390  142.0360 C   0  0  2  0  0  3  0  0  0  0  0  0
  182.5240  178.9980  143.1600 C   0  0  0  0  0  0  0  0  0  0  0  0
  184.3450  178.5090  144.7040 C   0  0  0  0  0  0  0  0  0  0  0  0
  185.2470  178.8270  143.8200 N   0  0  0  0  0  0  0  0  0  0  0  0
  183.0470  177.3420  140.2310 C   0  0  0  0  0  3  0  0  0  0  0  0
  183.6300  177.6950  141.3820 C   0  0  0  0  0  3  0  0  0  0  0  0
  180.7420  178.0520  139.3970 C   0  0  0  0  0  1  0  0  0  0  0  0
  182.8190  179.0540  138.4660 C   0  0  0  0  0  1  0  0  0  0  0  0
  182.1920  178.1700  139.4280 N   0  0  0  0  0  0  0  0  0  0  0  0
  181.0920  179.1950  142.9090 C   0  0  0  0  0  3  0  0  0  0  0  0
  180.1620  178.8490  143.7890 C   0  0  0  0  0  2  0  0  0  0  0  0
  1  8  1  0  0  0  0
  2 21  1  6  0  0  0
  2  6  1  0  0  0  0
  3  1  2  0  0  0  0
  3  2  1  0  0  0  0
  6  4  2  0  0  0  0
  8  7  2  0  0  0  0
  8  9  1  0  0  0  0
  9  4  1  0  0  0  0
  9  5  1  0  0  0  0
 10 14  1  0  0  0  0
 12 10  2  0  0  0  0
 12 13  1  0  0  0  0
 13 15  2  0  0  0  0
 14 11  1  0  0  0  0
 14 16  2  0  0  0  0
 15 16  1  0  0  0  0
 16  1  1  0  0  0  0
 17 12  1  0  0  0  0
 18 20  2  0  0  0  0
 19 20  1  0  0  0  0
 20 17  1  0  0  0  0
 22 27  1  0  0  0  0
 23 26  1  0  0  0  0
 24 29  1  1  0  0  0
 24 22  1  0  0  0  0
 24 25  1  0  0  0  0
 25 23  2  0  0  0  0
 26 21  1  0  0  0  0
 27 26  2  0  0  0  0
 28 29  2  0  0  0  0
 30 32  1  0  0  0  0
 31 32  1  0  0  0  0
 32 28  1  0  0  0  0
 33 25  1  0  0  0  0
 33 34  2  0  0  0  0
M  END
>  <MODEL>
3

>  <REMARK>
 VINA RESULT:      -9.1      2.854      6.929
  Name = 
  8 active torsions:
  status: ('A' for Active; 'I' for Inactive)
    1  A    between atoms: C_1  and  C_34
    2  A    between atoms: C_7  and  N_21
    3  A    between atoms: C_8  and  O_18
    4  A    between atoms: C_14  and  C_16
    5  A    between atoms: O_18  and  C_30
    6  A    between atoms: O_23  and  C_24
    7  A    between atoms: O_23  and  C_25
    8  A    between atoms: C_26  and  C_28
                            x       y       z     vdW  Elec       q    Type
                         _______ _______ _______ _____ _____    ______ ____

>  <TORSDO>
F 8

$$$$
=
 OpenBabel10262423223D

 34 36  0  0  1  0  0  0  0  0999 V2000
  185.1370  178.1160  138.7720 C   0  0  0  0  0  0  0  0  0  0  0  0
  187.6150  178.0490  139.0220 C   0  0  1  0  0  3  0  0  0  0  0  0
  186.2430  178.4740  139.4330 C   0  0  0  0  0  3  0  0  0  0  0  0
  187.3090  178.2690  136.5690 C   0  0  0  0  0  3  0  0  0  0  0  0
  185.9470  176.7510  135.3620 F   0  0  0  0  0  0  0  0  0  0  0  0
  187.9660  178.6010  137.6800 C   0  0  0  0  0  3  0  0  0  0  0  0
  184.3150  176.3410  137.4480 O   0  0  0  0  0  0  0  0  0  0  0  0
  185.1990  177.2300  137.5780 C   0  0  0  0  0  0  0  0  0  0  0  0
  186.1810  177.3820  136.5350 N   0  0  0  0  0  0  0  0  0  0  0  0
  182.1700  178.6370  141.0960 C   0  0  0  0  0  3  0  0  0  0  0  0
  184.1880  177.4390  141.4180 F   0  0  0  0  0  0  0  0  0  0  0  0
  181.3140  179.3990  140.2950 C   0  0  0  0  0  0  0  0  0  0  0  0
  181.7130  179.7240  138.9910 C   0  0  0  0  0  3  0  0  0  0  0  0
  183.4110  178.2100  140.6160 C   0  0  0  0  0  0  0  0  0  0  0  0
  182.9500  179.3000  138.5030 C   0  0  0  0  0  3  0  0  0  0  0  0
  183.8200  178.5470  139.3090 C   0  0  0  0  0  0  0  0  0  0  0  0
  180.0830  179.8030  140.8340 O   0  0  0  0  0  0  0  0  0  0  0  0
  180.1010  180.9000  142.8850 O   0  0  0  0  0  0  0  0  0  0  0  0
  179.0170  178.7930  142.8440 C   0  0  0  0  0  1  0  0  0  0  0  0
  179.7660  179.9010  142.1960 C   0  0  0  0  0  0  0  0  0  0  0  0
  188.5860  178.4180  140.0040 O   0  0  0  0  0  0  0  0  0  0  0  0
  190.1940  176.0680  142.3970 C   0  0  0  0  0  2  0  0  0  0  0  0
  187.9750  177.8130  142.3230 C   0  0  0  0  0  3  0  0  0  0  0  0
  189.7090  176.7220  143.6990 C   0  0  2  0  0  3  0  0  0  0  0  0
  188.3360  177.3260  143.5140 C   0  0  0  0  0  0  0  0  0  0  0  0
  188.8710  177.6850  141.1630 C   0  0  0  0  0  0  0  0  0  0  0  0
  189.9200  176.9150  141.2330 N   0  0  0  0  0  0  0  0  0  0  0  0
  191.3210  177.7850  145.3270 C   0  0  0  0  0  3  0  0  0  0  0  0
  190.6750  177.7720  144.1550 C   0  0  0  0  0  3  0  0  0  0  0  0
  192.0660  175.6790  146.5590 C   0  0  0  0  0  1  0  0  0  0  0  0
  189.9880  176.8840  147.2020 C   0  0  0  0  0  1  0  0  0  0  0  0
  191.1800  176.8180  146.3800 N   0  0  0  0  0  0  0  0  0  0  0  0
  187.4040  177.4680  144.6390 C   0  0  0  0  0  3  0  0  0  0  0  0
  186.1430  177.8460  144.4740 C   0  0  0  0  0  2  0  0  0  0  0  0
  1 16  1  0  0  0  0
  1  3  2  0  0  0  0
  2  3  1  0  0  0  0
  2 21  1  1  0  0  0
  4  6  2  0  0  0  0
  5  9  1  0  0  0  0
  6  2  1  0  0  0  0
  7  8  2  0  0  0  0
  8  1  1  0  0  0  0
  9  4  1  0  0  0  0
  9  8  1  0  0  0  0
 12 17  1  0  0  0  0
 12 10  2  0  0  0  0
 13 12  1  0  0  0  0
 14 10  1  0  0  0  0
 14 11  1  0  0  0  0
 15 13  2  0  0  0  0
 15 16  1  0  0  0  0
 16 14  2  0  0  0  0
 17 20  1  0  0  0  0
 20 19  1  0  0  0  0
 20 18  2  0  0  0  0
 21 26  1  0  0  0  0
 22 24  1  0  0  0  0
 23 25  2  0  0  0  0
 24 29  1  6  0  0  0
 25 24  1  0  0  0  0
 25 33  1  0  0  0  0
 26 27  2  0  0  0  0
 26 23  1  0  0  0  0
 27 22  1  0  0  0  0
 28 32  1  0  0  0  0
 29 28  2  0  0  0  0
 32 30  1  0  0  0  0
 32 31  1  0  0  0  0
 34 33  2  0  0  0  0
M  END
>  <MODEL>
4

>  <REMARK>
 VINA RESULT:      -8.7      2.739      6.112
  Name = 
  8 active torsions:
  status: ('A' for Active; 'I' for Inactive)
    1  A    between atoms: C_1  and  C_34
    2  A    between atoms: C_7  and  N_21
    3  A    between atoms: C_8  and  O_18
    4  A    between atoms: C_14  and  C_16
    5  A    between atoms: O_18  and  C_30
    6  A    between atoms: O_23  and  C_24
    7  A    between atoms: O_23  and  C_25
    8  A    between atoms: C_26  and  C_28
                            x       y       z     vdW  Elec       q    Type
                         _______ _______ _______ _____ _____    ______ ____

>  <TORSDO>
F 8

$$$$
=
 OpenBabel10262423223D

 34 36  0  0  1  0  0  0  0  0999 V2000
  189.9620  176.7400  137.4760 C   0  0  0  0  0  0  0  0  0  0  0  0
  188.5580  178.1880  138.9390 C   0  0  1  0  0  3  0  0  0  0  0  0
  189.6720  177.2260  138.6880 C   0  0  0  0  0  3  0  0  0  0  0  0
  186.8970  177.1820  137.3950 C   0  0  0  0  0  3  0  0  0  0  0  0
  187.1560  177.3370  135.0440 F   0  0  0  0  0  0  0  0  0  0  0  0
  187.2370  177.5700  138.6230 C   0  0  0  0  0  3  0  0  0  0  0  0
  189.8320  177.3580  135.2010 O   0  0  0  0  0  0  0  0  0  0  0  0
  189.1970  177.1560  136.2700 C   0  0  0  0  0  0  0  0  0  0  0  0
  187.7610  177.2770  136.2510 N   0  0  0  0  0  0  0  0  0  0  0  0
  192.0980  173.6410  136.9140 C   0  0  0  0  0  3  0  0  0  0  0  0
  189.7440  173.9090  136.9290 F   0  0  0  0  0  0  0  0  0  0  0  0
  193.3880  174.1570  137.0660 C   0  0  0  0  0  0  0  0  0  0  0  0
  193.5470  175.5170  137.3670 C   0  0  0  0  0  3  0  0  0  0  0  0
  190.9760  174.4640  137.0460 C   0  0  0  0  0  0  0  0  0  0  0  0
  192.4320  176.3460  137.5030 C   0  0  0  0  0  3  0  0  0  0  0  0
  191.1330  175.8360  137.3370 C   0  0  0  0  0  0  0  0  0  0  0  0
  194.4760  173.2820  136.9150 O   0  0  0  0  0  0  0  0  0  0  0  0
  195.1430  172.7200  139.0710 O   0  0  0  0  0  0  0  0  0  0  0  0
  196.8830  173.0230  137.4920 C   0  0  0  0  0  1  0  0  0  0  0  0
  195.4490  172.9960  137.8820 C   0  0  0  0  0  0  0  0  0  0  0  0
  188.5920  178.6810  140.2800 O   0  0  0  0  0  0  0  0  0  0  0  0
  190.0130  176.2330  142.6930 C   0  0  0  0  0  2  0  0  0  0  0  0
  187.7640  177.9270  142.4860 C   0  0  0  0  0  3  0  0  0  0  0  0
  189.3790  176.7980  143.9720 C   0  0  2  0  0  3  0  0  0  0  0  0
  188.0140  177.3800  143.6790 C   0  0  0  0  0  0  0  0  0  0  0  0
  188.7780  177.8880  141.4200 C   0  0  0  0  0  0  0  0  0  0  0  0
  189.8360  177.1390  141.5570 N   0  0  0  0  0  0  0  0  0  0  0  0
  190.7200  177.8390  145.8420 C   0  0  0  0  0  3  0  0  0  0  0  0
  190.2610  177.8410  144.5840 C   0  0  0  0  0  3  0  0  0  0  0  0
  189.1500  176.7750  147.5480 C   0  0  0  0  0  1  0  0  0  0  0  0
  191.5070  176.0180  147.3130 C   0  0  0  0  0  1  0  0  0  0  0  0
  190.4220  176.8590  146.8470 N   0  0  0  0  0  0  0  0  0  0  0  0
  186.9690  177.4350  144.7060 C   0  0  0  0  0  3  0  0  0  0  0  0
  185.8780  178.1800  144.5720 C   0  0  0  0  0  2  0  0  0  0  0  0
  1  3  2  0  0  0  0
  2 21  1  1  0  0  0
  3  2  1  0  0  0  0
  4  6  2  0  0  0  0
  5  9  1  0  0  0  0
  6  2  1  0  0  0  0
  7  8  2  0  0  0  0
  8  1  1  0  0  0  0
  9  8  1  0  0  0  0
  9  4  1  0  0  0  0
 10 14  2  0  0  0  0
 10 12  1  0  0  0  0
 11 14  1  0  0  0  0
 12 13  2  0  0  0  0
 13 15  1  0  0  0  0
 14 16  1  0  0  0  0
 16  1  1  0  0  0  0
 16 15  2  0  0  0  0
 17 12  1  0  0  0  0
 17 20  1  0  0  0  0
 19 20  1  0  0  0  0
 20 18  2  0  0  0  0
 21 26  1  0  0  0  0
 22 24  1  0  0  0  0
 23 25  2  0  0  0  0
 24 29  1  6  0  0  0
 25 24  1  0  0  0  0
 25 33  1  0  0  0  0
 26 27  2  0  0  0  0
 26 23  1  0  0  0  0
 27 22  1  0  0  0  0
 28 32  1  0  0  0  0
 29 28  2  0  0  0  0
 32 31  1  0  0  0  0
 32 30  1  0  0  0  0
 34 33  2  0  0  0  0
M  END
>  <MODEL>
5

>  <REMARK>
 VINA RESULT:      -8.4      3.057      5.052
  Name = 
  8 active torsions:
  status: ('A' for Active; 'I' for Inactive)
    1  A    between atoms: C_1  and  C_34
    2  A    between atoms: C_7  and  N_21
    3  A    between atoms: C_8  and  O_18
    4  A    between atoms: C_14  and  C_16
    5  A    between atoms: O_18  and  C_30
    6  A    between atoms: O_23  and  C_24
    7  A    between atoms: O_23  and  C_25
    8  A    between atoms: C_26  and  C_28
                            x       y       z     vdW  Elec       q    Type
                         _______ _______ _______ _____ _____    ______ ____

>  <TORSDO>
F 8

$$$$
=
 OpenBabel10262423223D

 34 36  0  0  1  0  0  0  0  0999 V2000
  189.6810  177.5420  140.7600 C   0  0  0  0  0  0  0  0  0  0  0  0
  188.9920  178.2030  138.4590 C   0  0  1  0  0  3  0  0  0  0  0  0
  188.7520  178.0130  139.9200 C   0  0  0  0  0  3  0  0  0  0  0  0
  190.3270  176.1480  138.0700 C   0  0  0  0  0  3  0  0  0  0  0  0
  192.5360  175.9440  138.9050 F   0  0  0  0  0  0  0  0  0  0  0  0
  189.2630  176.8990  137.7860 C   0  0  0  0  0  3  0  0  0  0  0  0
  192.0270  177.5040  141.0240 O   0  0  0  0  0  0  0  0  0  0  0  0
  191.0500  177.2000  140.2890 C   0  0  0  0  0  0  0  0  0  0  0  0
  191.3060  176.4820  139.0670 N   0  0  0  0  0  0  0  0  0  0  0  0
  189.5870  178.2240  144.5020 C   0  0  0  0  0  3  0  0  0  0  0  0
  190.8410  179.2570  142.7780 F   0  0  0  0  0  0  0  0  0  0  0  0
  188.6790  177.2570  144.9420 C   0  0  0  0  0  0  0  0  0  0  0  0
  188.1150  176.3780  144.0080 C   0  0  0  0  0  3  0  0  0  0  0  0
  189.9250  178.3280  143.1500 C   0  0  0  0  0  0  0  0  0  0  0  0
  188.4480  176.4730  142.6560 C   0  0  0  0  0  3  0  0  0  0  0  0
  189.3490  177.4530  142.2050 C   0  0  0  0  0  0  0  0  0  0  0  0
  188.3750  177.2050  146.3110 O   0  0  0  0  0  0  0  0  0  0  0  0
  190.3110  176.5340  147.4100 O   0  0  0  0  0  0  0  0  0  0  0  0
  189.0550  178.2400  148.4710 C   0  0  0  0  0  1  0  0  0  0  0  0
  189.2930  177.2720  147.3680 C   0  0  0  0  0  0  0  0  0  0  0  0
  187.9000  178.8880  137.8400 O   0  0  0  0  0  0  0  0  0  0  0  0
  185.4190  177.1470  135.6840 C   0  0  0  0  0  2  0  0  0  0  0  0
  185.5500  178.2530  138.2790 C   0  0  0  0  0  3  0  0  0  0  0  0
  184.5450  176.5540  136.7980 C   0  0  2  0  0  3  0  0  0  0  0  0
  184.4980  177.4810  137.9920 C   0  0  0  0  0  0  0  0  0  0  0  0
  186.7230  178.2750  137.3910 C   0  0  0  0  0  0  0  0  0  0  0  0
  186.6600  177.7140  136.2170 N   0  0  0  0  0  0  0  0  0  0  0  0
  184.3710  174.0600  137.1620 C   0  0  0  0  0  3  0  0  0  0  0  0
  185.0570  175.2090  137.2120 C   0  0  0  0  0  3  0  0  0  0  0  0
  181.8580  174.1570  137.5940 C   0  0  0  0  0  1  0  0  0  0  0  0
  182.7670  173.3080  135.4400 C   0  0  0  0  0  1  0  0  0  0  0  0
  183.0080  173.9090  136.7380 N   0  0  0  0  0  0  0  0  0  0  0  0
  183.3480  177.4990  138.9020 C   0  0  0  0  0  3  0  0  0  0  0  0
  183.4300  177.9630  140.1430 C   0  0  0  0  0  2  0  0  0  0  0  0
  1 16  1  0  0  0  0
  2 21  1  6  0  0  0
  2  3  1  0  0  0  0
  3  1  2  0  0  0  0
  4  9  1  0  0  0  0
  5  9  1  0  0  0  0
  6  4  2  0  0  0  0
  6  2  1  0  0  0  0
  8  1  1  0  0  0  0
  8  7  2  0  0  0  0
  9  8  1  0  0  0  0
 10 12  1  0  0  0  0
 11 14  1  0  0  0  0
 12 17  1  0  0  0  0
 13 12  2  0  0  0  0
 14 10  2  0  0  0  0
 15 13  1  0  0  0  0
 16 15  2  0  0  0  0
 16 14  1  0  0  0  0
 17 20  1  0  0  0  0
 20 18  2  0  0  0  0
 20 19  1  0  0  0  0
 22 27  1  0  0  0  0
 22 24  1  0  0  0  0
 24 29  1  1  0  0  0
 24 25  1  0  0  0  0
 25 23  2  0  0  0  0
 25 33  1  0  0  0  0
 26 21  1  0  0  0  0
 26 23  1  0  0  0  0
 27 26  2  0  0  0  0
 28 29  2  0  0  0  0
 31 32  1  0  0  0  0
 32 28  1  0  0  0  0
 32 30  1  0  0  0  0
 33 34  2  0  0  0  0
M  END
>  <MODEL>
6

>  <REMARK>
 VINA RESULT:      -8.2      3.446      8.493
  Name = 
  8 active torsions:
  status: ('A' for Active; 'I' for Inactive)
    1  A    between atoms: C_1  and  C_34
    2  A    between atoms: C_7  and  N_21
    3  A    between atoms: C_8  and  O_18
    4  A    between atoms: C_14  and  C_16
    5  A    between atoms: O_18  and  C_30
    6  A    between atoms: O_23  and  C_24
    7  A    between atoms: O_23  and  C_25
    8  A    between atoms: C_26  and  C_28
                            x       y       z     vdW  Elec       q    Type
                         _______ _______ _______ _____ _____    ______ ____

>  <TORSDO>
F 8

$$$$
=
 OpenBabel10262423223D

 34 36  0  0  1  0  0  0  0  0999 V2000
  189.4200  177.6650  141.1380 C   0  0  0  0  0  0  0  0  0  0  0  0
  188.2510  178.2490  139.0160 C   0  0  1  0  0  3  0  0  0  0  0  0
  188.3450  178.1460  140.5030 C   0  0  0  0  0  3  0  0  0  0  0  0
  189.3640  176.1020  138.4640 C   0  0  0  0  0  3  0  0  0  0  0  0
  191.6940  175.8100  138.7860 F   0  0  0  0  0  0  0  0  0  0  0  0
  188.3000  176.8990  138.3830 C   0  0  0  0  0  3  0  0  0  0  0  0
  191.7590  177.5020  140.8640 O   0  0  0  0  0  0  0  0  0  0  0  0
  190.6270  177.2190  140.3910 C   0  0  0  0  0  0  0  0  0  0  0  0
  190.5610  176.4270  139.1890 N   0  0  0  0  0  0  0  0  0  0  0  0
  188.7100  176.7530  144.7630 C   0  0  0  0  0  3  0  0  0  0  0  0
  187.8880  175.8160  142.7480 F   0  0  0  0  0  0  0  0  0  0  0  0
  189.4770  177.7000  145.4470 C   0  0  0  0  0  0  0  0  0  0  0  0
  190.2100  178.6420  144.7120 C   0  0  0  0  0  3  0  0  0  0  0  0
  188.6780  176.7300  143.3660 C   0  0  0  0  0  0  0  0  0  0  0  0
  190.1830  178.6270  143.3170 C   0  0  0  0  0  3  0  0  0  0  0  0
  189.4260  177.6680  142.6230 C   0  0  0  0  0  0  0  0  0  0  0  0
  189.4740  177.6700  146.8510 O   0  0  0  0  0  0  0  0  0  0  0  0
  188.5810  178.2470  148.9200 O   0  0  0  0  0  0  0  0  0  0  0  0
  187.0660  178.2520  147.0980 C   0  0  0  0  0  1  0  0  0  0  0  0
  188.4170  178.0600  147.6860 C   0  0  0  0  0  0  0  0  0  0  0  0
  187.0780  178.9650  138.6210 O   0  0  0  0  0  0  0  0  0  0  0  0
  183.5110  179.4890  139.5370 C   0  0  0  0  0  2  0  0  0  0  0  0
  185.8980  178.6160  140.7670 C   0  0  0  0  0  3  0  0  0  0  0  0
  183.4350  178.4800  140.6910 C   0  0  2  0  0  3  0  0  0  0  0  0
  184.7550  178.4090  141.4260 C   0  0  0  0  0  0  0  0  0  0  0  0
  185.8800  179.0030  139.3470 C   0  0  0  0  0  0  0  0  0  0  0  0
  184.7590  179.3530  138.7830 N   0  0  0  0  0  0  0  0  0  0  0  0
  181.8150  176.7180  139.8870 C   0  0  0  0  0  3  0  0  0  0  0  0
  183.0560  177.1240  140.1840 C   0  0  0  0  0  3  0  0  0  0  0  0
  180.0770  178.3610  138.9990 C   0  0  0  0  0  1  0  0  0  0  0  0
  180.0040  177.5460  141.3480 C   0  0  0  0  0  1  0  0  0  0  0  0
  180.6150  177.4930  140.0340 N   0  0  0  0  0  0  0  0  0  0  0  0
  184.8220  178.0340  142.8430 C   0  0  0  0  0  3  0  0  0  0  0  0
  185.5750  178.6910  143.7170 C   0  0  0  0  0  2  0  0  0  0  0  0
  1 16  1  0  0  0  0
  2 21  1  1  0  0  0
  2  3  1  0  0  0  0
  3  1  2  0  0  0  0
  4  9  1  0  0  0  0
  5  9  1  0  0  0  0
  6  4  2  0  0  0  0
  6  2  1  0  0  0  0
  8  7  2  0  0  0  0
  8  1  1  0  0  0  0
  9  8  1  0  0  0  0
 10 12  1  0  0  0  0
 11 14  1  0  0  0  0
 12 17  1  0  0  0  0
 13 12  2  0  0  0  0
 14 10  2  0  0  0  0
 15 13  1  0  0  0  0
 16 15  2  0  0  0  0
 16 14  1  0  0  0  0
 17 20  1  0  0  0  0
 19 20  1  0  0  0  0
 20 18  2  0  0  0  0
 21 26  1  0  0  0  0
 22 24  1  0  0  0  0
 23 25  2  0  0  0  0
 24 29  1  6  0  0  0
 24 25  1  0  0  0  0
 25 33  1  0  0  0  0
 26 23  1  0  0  0  0
 27 26  2  0  0  0  0
 27 22  1  0  0  0  0
 28 32  1  0  0  0  0
 28 29  2  0  0  0  0
 30 32  1  0  0  0  0
 32 31  1  0  0  0  0
 33 34  2  0  0  0  0
M  END
>  <MODEL>
7

>  <REMARK>
 VINA RESULT:      -8.1      2.772      7.789
  Name = 
  8 active torsions:
  status: ('A' for Active; 'I' for Inactive)
    1  A    between atoms: C_1  and  C_34
    2  A    between atoms: C_7  and  N_21
    3  A    between atoms: C_8  and  O_18
    4  A    between atoms: C_14  and  C_16
    5  A    between atoms: O_18  and  C_30
    6  A    between atoms: O_23  and  C_24
    7  A    between atoms: O_23  and  C_25
    8  A    between atoms: C_26  and  C_28
                            x       y       z     vdW  Elec       q    Type
                         _______ _______ _______ _____ _____    ______ ____

>  <TORSDO>
F 8

$$$$
=
 OpenBabel10262423223D

 34 36  0  0  1  0  0  0  0  0999 V2000
  187.5360  176.0850  137.1530 C   0  0  0  0  0  0  0  0  0  0  0  0
  188.6540  177.6160  138.7690 C   0  0  1  0  0  3  0  0  0  0  0  0
  187.5050  176.7920  138.2890 C   0  0  0  0  0  3  0  0  0  0  0  0
  189.3570  178.5210  136.5690 C   0  0  0  0  0  3  0  0  0  0  0  0
  190.3950  177.1370  134.9490 F   0  0  0  0  0  0  0  0  0  0  0  0
  188.9480  178.7290  137.8190 C   0  0  0  0  0  3  0  0  0  0  0  0
  189.0760  174.9520  135.7680 O   0  0  0  0  0  0  0  0  0  0  0  0
  188.7490  176.0500  136.2940 C   0  0  0  0  0  0  0  0  0  0  0  0
  189.5280  177.2210  135.9830 N   0  0  0  0  0  0  0  0  0  0  0  0
  184.2610  174.9070  135.6150 C   0  0  0  0  0  3  0  0  0  0  0  0
  185.4110  176.9680  135.4020 F   0  0  0  0  0  0  0  0  0  0  0  0
  184.1360  173.6280  136.1630 C   0  0  0  0  0  0  0  0  0  0  0  0
  185.1220  173.1660  137.0460 C   0  0  0  0  0  3  0  0  0  0  0  0
  185.3550  175.7180  135.9280 C   0  0  0  0  0  0  0  0  0  0  0  0
  186.2180  173.9690  137.3650 C   0  0  0  0  0  3  0  0  0  0  0  0
  186.3550  175.2510  136.8060 C   0  0  0  0  0  0  0  0  0  0  0  0
  183.0180  172.8580  135.8060 O   0  0  0  0  0  0  0  0  0  0  0  0
  181.8570  171.6860  137.4460 O   0  0  0  0  0  0  0  0  0  0  0  0
  183.0320  170.3690  135.8650 C   0  0  0  0  0  1  0  0  0  0  0  0
  182.5950  171.6740  136.4260 C   0  0  0  0  0  0  0  0  0  0  0  0
  188.4180  178.1110  140.0900 O   0  0  0  0  0  0  0  0  0  0  0  0
  190.1970  175.9530  142.5410 C   0  0  0  0  0  2  0  0  0  0  0  0
  187.8750  177.5570  142.4390 C   0  0  0  0  0  3  0  0  0  0  0  0
  189.6910  176.6250  143.8260 C   0  0  2  0  0  3  0  0  0  0  0  0
  188.2810  177.1380  143.6400 C   0  0  0  0  0  0  0  0  0  0  0  0
  188.7630  177.4400  141.2700 C   0  0  0  0  0  0  0  0  0  0  0  0
  189.8570  176.7380  141.3520 N   0  0  0  0  0  0  0  0  0  0  0  0
  191.2550  177.8430  145.3900 C   0  0  0  0  0  3  0  0  0  0  0  0
  190.5970  177.7470  144.2290 C   0  0  0  0  0  3  0  0  0  0  0  0
  192.0970  175.7870  146.6450 C   0  0  0  0  0  1  0  0  0  0  0  0
  190.0430  176.9890  147.3650 C   0  0  0  0  0  1  0  0  0  0  0  0
  191.1880  176.9100  146.4790 N   0  0  0  0  0  0  0  0  0  0  0  0
  187.3570  177.2650  144.7740 C   0  0  0  0  0  3  0  0  0  0  0  0
  186.1690  177.8450  144.6600 C   0  0  0  0  0  2  0  0  0  0  0  0
  1  3  2  0  0  0  0
  2 21  1  1  0  0  0
  3  2  1  0  0  0  0
  4  6  2  0  0  0  0
  5  9  1  0  0  0  0
  6  2  1  0  0  0  0
  7  8  2  0  0  0  0
  8  1  1  0  0  0  0
  9  8  1  0  0  0  0
  9  4  1  0  0  0  0
 10 14  2  0  0  0  0
 10 12  1  0  0  0  0
 11 14  1  0  0  0  0
 12 13  2  0  0  0  0
 13 15  1  0  0  0  0
 14 16  1  0  0  0  0
 16  1  1  0  0  0  0
 16 15  2  0  0  0  0
 17 12  1  0  0  0  0
 17 20  1  0  0  0  0
 19 20  1  0  0  0  0
 20 18  2  0  0  0  0
 21 26  1  0  0  0  0
 22 24  1  0  0  0  0
 23 25  2  0  0  0  0
 24 29  1  6  0  0  0
 25 24  1  0  0  0  0
 25 33  1  0  0  0  0
 26 27  2  0  0  0  0
 26 23  1  0  0  0  0
 27 22  1  0  0  0  0
 28 32  1  0  0  0  0
 29 28  2  0  0  0  0
 32 30  1  0  0  0  0
 32 31  1  0  0  0  0
 34 33  2  0  0  0  0
M  END
>  <MODEL>
8

>  <REMARK>
 VINA RESULT:      -8.1      4.256      6.022
  Name = 
  8 active torsions:
  status: ('A' for Active; 'I' for Inactive)
    1  A    between atoms: C_1  and  C_34
    2  A    between atoms: C_7  and  N_21
    3  A    between atoms: C_8  and  O_18
    4  A    between atoms: C_14  and  C_16
    5  A    between atoms: O_18  and  C_30
    6  A    between atoms: O_23  and  C_24
    7  A    between atoms: O_23  and  C_25
    8  A    between atoms: C_26  and  C_28
                            x       y       z     vdW  Elec       q    Type
                         _______ _______ _______ _____ _____    ______ ____

>  <TORSDO>
F 8

$$$$
=
 OpenBabel10262423223D

 34 36  0  0  1  0  0  0  0  0999 V2000
  189.8130  177.6120  141.0410 C   0  0  0  0  0  0  0  0  0  0  0  0
  188.6240  178.2080  138.9350 C   0  0  1  0  0  3  0  0  0  0  0  0
  188.7260  178.0820  140.4190 C   0  0  0  0  0  3  0  0  0  0  0  0
  189.7780  176.0940  138.3410 C   0  0  0  0  0  3  0  0  0  0  0  0
  192.1140  175.8440  138.6490 F   0  0  0  0  0  0  0  0  0  0  0  0
  188.6970  176.8700  138.2780 C   0  0  0  0  0  3  0  0  0  0  0  0
  192.1540  177.5000  140.7560 O   0  0  0  0  0  0  0  0  0  0  0  0
  191.0250  177.2030  140.2820 C   0  0  0  0  0  0  0  0  0  0  0  0
  190.9700  176.4300  139.0670 N   0  0  0  0  0  0  0  0  0  0  0  0
  189.2450  176.5510  144.6510 C   0  0  0  0  0  3  0  0  0  0  0  0
  188.5440  175.5500  142.6210 F   0  0  0  0  0  0  0  0  0  0  0  0
  189.8830  177.5780  145.3510 C   0  0  0  0  0  0  0  0  0  0  0  0
  190.4840  178.6210  144.6310 C   0  0  0  0  0  3  0  0  0  0  0  0
  189.2100  176.5480  143.2540 C   0  0  0  0  0  0  0  0  0  0  0  0
  190.4530  178.6270  143.2360 C   0  0  0  0  0  3  0  0  0  0  0  0
  189.8250  177.5890  142.5270 C   0  0  0  0  0  0  0  0  0  0  0  0
  189.8910  177.5240  146.7530 O   0  0  0  0  0  0  0  0  0  0  0  0
  189.0540  178.2670  148.7920 O   0  0  0  0  0  0  0  0  0  0  0  0
  187.4520  177.8950  147.0860 C   0  0  0  0  0  1  0  0  0  0  0  0
  188.8450  177.9100  147.6030 C   0  0  0  0  0  0  0  0  0  0  0  0
  187.4350  178.9070  138.5560 O   0  0  0  0  0  0  0  0  0  0  0  0
  184.3530  178.6330  140.6210 C   0  0  0  0  0  2  0  0  0  0  0  0
  185.3090  177.7170  138.1270 C   0  0  0  0  0  3  0  0  0  0  0  0
  183.3550  178.3730  139.4830 C   0  0  2  0  0  3  0  0  0  0  0  0
  184.0040  177.5760  138.3750 C   0  0  0  0  0  0  0  0  0  0  0  0
  186.1420  178.5770  138.9830 C   0  0  0  0  0  0  0  0  0  0  0  0
  185.6650  179.0340  140.1060 N   0  0  0  0  0  0  0  0  0  0  0  0
  181.5900  180.1470  139.1460 C   0  0  0  0  0  3  0  0  0  0  0  0
  182.8210  179.6630  138.9430 C   0  0  0  0  0  3  0  0  0  0  0  0
  180.3800  179.6160  141.3290 C   0  0  0  0  0  1  0  0  0  0  0  0
  179.7040  178.5520  139.1850 C   0  0  0  0  0  1  0  0  0  0  0  0
  180.5420  179.5050  139.8880 N   0  0  0  0  0  0  0  0  0  0  0  0
  183.2170  176.6990  137.5000 C   0  0  0  0  0  3  0  0  0  0  0  0
  183.5320  175.4260  137.3000 C   0  0  0  0  0  2  0  0  0  0  0  0
  1 16  1  0  0  0  0
  2 21  1  1  0  0  0
  2  3  1  0  0  0  0
  3  1  2  0  0  0  0
  4  9  1  0  0  0  0
  5  9  1  0  0  0  0
  6  4  2  0  0  0  0
  6  2  1  0  0  0  0
  8  7  2  0  0  0  0
  8  1  1  0  0  0  0
  9  8  1  0  0  0  0
 10 12  1  0  0  0  0
 11 14  1  0  0  0  0
 12 17  1  0  0  0  0
 13 12  2  0  0  0  0
 14 10  2  0  0  0  0
 15 13  1  0  0  0  0
 16 15  2  0  0  0  0
 16 14  1  0  0  0  0
 17 20  1  0  0  0  0
 19 20  1  0  0  0  0
 20 18  2  0  0  0  0
 21 26  1  0  0  0  0
 23 25  2  0  0  0  0
 23 26  1  0  0  0  0
 24 29  1  6  0  0  0
 24 22  1  0  0  0  0
 25 24  1  0  0  0  0
 26 27  2  0  0  0  0
 27 22  1  0  0  0  0
 28 32  1  0  0  0  0
 29 28  2  0  0  0  0
 31 32  1  0  0  0  0
 32 30  1  0  0  0  0
 33 25  1  0  0  0  0
 34 33  2  0  0  0  0
M  END
>  <MODEL>
9

>  <REMARK>
 VINA RESULT:      -8.1      2.949      8.481
  Name = 
  8 active torsions:
  status: ('A' for Active; 'I' for Inactive)
    1  A    between atoms: C_1  and  C_34
    2  A    between atoms: C_7  and  N_21
    3  A    between atoms: C_8  and  O_18
    4  A    between atoms: C_14  and  C_16
    5  A    between atoms: O_18  and  C_30
    6  A    between atoms: O_23  and  C_24
    7  A    between atoms: O_23  and  C_25
    8  A    between atoms: C_26  and  C_28
                            x       y       z     vdW  Elec       q    Type
                         _______ _______ _______ _____ _____    ______ ____

>  <TORSDO>
F 8

$$$$
