=
 OpenBabel10262419303D

 31 35  0  0  1  0  0  0  0  0999 V2000
  190.9740  176.7890  140.0050 C   0  0  1  0  0  3  0  0  0  0  0  0
  189.4280  177.3220  143.9840 C   0  0  1  0  0  3  0  0  0  0  0  0
  185.4740  179.1700  141.0320 O   0  0  0  0  0  0  0  0  0  0  0  0
  184.9440  178.6050  142.0280 C   0  0  0  0  0  0  0  0  0  0  0  0
  190.0660  177.1750  142.6030 C   0  0  2  0  0  3  0  0  0  0  0  0
  191.3410  176.6490  138.5430 C   0  0  0  0  0  1  0  0  0  0  0  0
  187.1240  177.4680  142.7340 C   0  0  0  0  0  0  0  0  0  0  0  0
  192.1860  177.8720  140.8470 S   0  0  0  0  0  0  0  0  0  0  0  0
  187.8050  177.9850  141.7520 N   0  0  0  0  0  0  0  0  0  0  0  0
  187.8800  176.3810  143.9450 S   0  0  0  0  0  0  0  0  0  0  0  0
  185.7290  177.7610  142.8820 N   0  0  0  0  0  2  0  0  0  0  0  0
  191.5120  177.6830  142.5530 C   0  0  0  0  0  2  0  0  0  0  0  0
  189.2500  177.8890  141.5180 C   0  0  2  0  0  3  0  0  0  0  0  0
  189.5460  177.3280  140.1280 C   0  0  0  0  0  2  0  0  0  0  0  0
  180.7640  179.1850  142.8050 C   0  0  0  0  0  0  0  0  0  0  0  0
  182.5860  178.8000  141.2650 C   0  0  0  0  0  3  0  0  0  0  0  0
  183.8790  179.0260  144.6990 F   0  0  0  0  0  0  0  0  0  0  0  0
  179.4410  179.3670  143.0380 F   0  0  0  0  0  0  0  0  0  0  0  0
  181.2230  178.9870  141.5030 C   0  0  0  0  0  3  0  0  0  0  0  0
  183.0340  179.0090  143.6380 C   0  0  0  0  0  0  0  0  0  0  0  0
  183.5080  178.8080  142.3240 C   0  0  0  0  0  0  0  0  0  0  0  0
  181.6670  179.1960  143.8700 C   0  0  0  0  0  3  0  0  0  0  0  0
  190.3060  176.8140  145.1000 C   0  0  0  0  0  0  0  0  0  0  0  0
  192.2100  175.4890  145.8290 C   0  0  0  0  0  3  0  0  0  0  0  0
  191.3720  175.9470  144.8110 C   0  0  0  0  0  3  0  0  0  0  0  0
  191.9960  175.8980  147.1450 C   0  0  0  0  0  3  0  0  0  0  0  0
  190.9370  176.7580  147.4460 C   0  0  0  0  0  3  0  0  0  0  0  0
  190.0720  177.2090  146.4370 C   0  0  0  0  0  0  0  0  0  0  0  0
  188.7660  178.2590  148.2920 C   0  0  0  0  0  2  0  0  0  0  0  0
  187.8190  177.4350  147.4540 C   0  0  0  0  0  2  0  0  0  0  0  0
  188.9690  178.1740  146.7860 C   0  0  0  0  0  3  0  0  0  0  0  0
  1  6  1  6  0  0  0
  1 14  1  0  0  0  0
  1  8  1  0  0  0  0
  2 23  1  1  0  0  0
  3  4  2  0  0  0  0
  4 21  1  0  0  0  0
  4 11  1  0  0  0  0
  5 12  1  1  0  0  0
  5  2  1  0  0  0  0
  7 11  1  0  0  0  0
  7 10  1  0  0  0  0
  8 12  1  0  0  0  0
  9  7  2  0  0  0  0
 10  2  1  0  0  0  0
 13 14  1  6  0  0  0
 13  9  1  0  0  0  0
 13  5  1  0  0  0  0
 15 18  1  0  0  0  0
 15 22  1  0  0  0  0
 16 19  1  0  0  0  0
 16 21  2  0  0  0  0
 19 15  2  0  0  0  0
 20 22  2  0  0  0  0
 20 17  1  0  0  0  0
 21 20  1  0  0  0  0
 23 28  1  0  0  0  0
 24 26  2  0  0  0  0
 25 23  2  0  0  0  0
 25 24  1  0  0  0  0
 26 27  1  0  0  0  0
 28 31  1  0  0  0  0
 28 27  2  0  0  0  0
 30 29  1  0  0  0  0
 31 30  1  0  0  0  0
 31 29  1  0  0  0  0
M  END
>  <MODEL>
1

>  <REMARK>
 VINA RESULT:      -9.9      0.000      0.000
  Name = 
  3 active torsions:
  status: ('A' for Active; 'I' for Inactive)
    1  A    between atoms: C_4  and  C_5
    2  A    between atoms: C_9  and  C_22
    3  A    between atoms: C_30  and  C_31
                            x       y       z     vdW  Elec       q    Type
                         _______ _______ _______ _____ _____    ______ ____

>  <TORSDO>
F 3

$$$$
=
 OpenBabel10262419303D

 31 35  0  0  1  0  0  0  0  0999 V2000
  192.5450  176.3780  136.9940 C   0  0  1  0  0  3  0  0  0  0  0  0
  188.3610  176.6050  137.9690 C   0  0  1  0  0  3  0  0  0  0  0  0
  190.5470  176.0040  142.7250 O   0  0  0  0  0  0  0  0  0  0  0  0
  189.5540  176.7650  142.8810 C   0  0  0  0  0  0  0  0  0  0  0  0
  189.8220  176.4560  137.5490 C   0  0  2  0  0  3  0  0  0  0  0  0
  194.0490  176.3090  136.8420 C   0  0  0  0  0  1  0  0  0  0  0  0
  189.2690  177.1570  140.3690 C   0  0  0  0  0  0  0  0  0  0  0  0
  191.7640  175.0050  136.0700 S   0  0  0  0  0  0  0  0  0  0  0  0
  190.2740  176.3910  140.0550 N   0  0  0  0  0  0  0  0  0  0  0  0
  188.2900  177.9990  139.1230 S   0  0  0  0  0  0  0  0  0  0  0  0
  188.9050  177.3490  141.7420 N   0  0  0  0  0  2  0  0  0  0  0  0
  190.0120  175.4990  136.3660 C   0  0  0  0  0  2  0  0  0  0  0  0
  190.7070  175.9930  138.7120 C   0  0  2  0  0  3  0  0  0  0  0  0
  192.1760  176.3470  138.4800 C   0  0  0  0  0  2  0  0  0  0  0  0
  188.0110  177.6280  146.7920 C   0  0  0  0  0  0  0  0  0  0  0  0
  187.6680  177.2260  144.4330 C   0  0  0  0  0  3  0  0  0  0  0  0
  191.2530  177.0390  145.2230 F   0  0  0  0  0  0  0  0  0  0  0  0
  187.5120  177.9020  148.0210 F   0  0  0  0  0  0  0  0  0  0  0  0
  187.1510  177.5070  145.7000 C   0  0  0  0  0  3  0  0  0  0  0  0
  189.9110  177.1870  145.3510 C   0  0  0  0  0  0  0  0  0  0  0  0
  189.0490  177.0630  144.2400 C   0  0  0  0  0  0  0  0  0  0  0  0
  189.3880  177.4700  146.6170 C   0  0  0  0  0  3  0  0  0  0  0  0
  187.4310  176.8550  136.8080 C   0  0  0  0  0  0  0  0  0  0  0  0
  186.7220  178.2690  134.9610 C   0  0  0  0  0  3  0  0  0  0  0  0
  187.5570  178.0340  136.0540 C   0  0  0  0  0  3  0  0  0  0  0  0
  185.7570  177.3270  134.6050 C   0  0  0  0  0  3  0  0  0  0  0  0
  185.6200  176.1530  135.3480 C   0  0  0  0  0  3  0  0  0  0  0  0
  186.4360  175.9120  136.4650 C   0  0  0  0  0  0  0  0  0  0  0  0
  186.9310  173.4610  136.4510 C   0  0  0  0  0  2  0  0  0  0  0  0
  185.4330  173.6420  136.4260 C   0  0  0  0  0  2  0  0  0  0  0  0
  186.2960  174.6140  137.2160 C   0  0  0  0  0  3  0  0  0  0  0  0
  1  6  1  1  0  0  0
  1 14  1  0  0  0  0
  2 23  1  6  0  0  0
  2 10  1  0  0  0  0
  3  4  2  0  0  0  0
  4 21  1  0  0  0  0
  5 12  1  6  0  0  0
  5  2  1  0  0  0  0
  5 13  1  0  0  0  0
  7 11  1  0  0  0  0
  8 12  1  0  0  0  0
  8  1  1  0  0  0  0
  9  7  2  0  0  0  0
 10  7  1  0  0  0  0
 11  4  1  0  0  0  0
 13 14  1  6  0  0  0
 13  9  1  0  0  0  0
 15 18  1  0  0  0  0
 16 19  1  0  0  0  0
 17 20  1  0  0  0  0
 19 15  2  0  0  0  0
 20 22  2  0  0  0  0
 21 16  2  0  0  0  0
 21 20  1  0  0  0  0
 22 15  1  0  0  0  0
 24 25  1  0  0  0  0
 25 23  2  0  0  0  0
 26 24  2  0  0  0  0
 26 27  1  0  0  0  0
 27 28  2  0  0  0  0
 28 23  1  0  0  0  0
 28 31  1  0  0  0  0
 29 31  1  0  0  0  0
 30 29  1  0  0  0  0
 30 31  1  0  0  0  0
M  END
>  <MODEL>
2

>  <REMARK>
 VINA RESULT:      -9.8      4.074      8.076
  Name = 
  3 active torsions:
  status: ('A' for Active; 'I' for Inactive)
    1  A    between atoms: C_4  and  C_5
    2  A    between atoms: C_9  and  C_22
    3  A    between atoms: C_30  and  C_31
                            x       y       z     vdW  Elec       q    Type
                         _______ _______ _______ _____ _____    ______ ____

>  <TORSDO>
F 3

$$$$
=
 OpenBabel10262419303D

 31 35  0  0  1  0  0  0  0  0999 V2000
  191.3310  176.1950  146.9960 C   0  0  1  0  0  3  0  0  0  0  0  0
  188.2050  177.7430  144.4790 C   0  0  1  0  0  3  0  0  0  0  0  0
  192.1490  177.1180  141.0410 O   0  0  0  0  0  0  0  0  0  0  0  0
  191.0860  176.8510  140.4190 C   0  0  0  0  0  0  0  0  0  0  0  0
  189.2930  177.2680  145.4400 C   0  0  2  0  0  3  0  0  0  0  0  0
  192.5290  175.6180  147.7180 C   0  0  0  0  0  1  0  0  0  0  0  0
  189.6830  176.7400  142.5550 C   0  0  0  0  0  0  0  0  0  0  0  0
  190.8860  177.8130  147.7270 S   0  0  0  0  0  0  0  0  0  0  0  0
  190.6950  177.0140  143.3280 N   0  0  0  0  0  0  0  0  0  0  0  0
  188.0360  176.4610  143.2090 S   0  0  0  0  0  0  0  0  0  0  0  0
  189.8580  176.6580  141.1350 N   0  0  0  0  0  2  0  0  0  0  0  0
  189.3680  178.1070  146.7220 C   0  0  0  0  0  2  0  0  0  0  0  0
  190.6750  177.2500  144.7750 C   0  0  2  0  0  3  0  0  0  0  0  0
  191.6370  176.3110  145.5000 C   0  0  0  0  0  2  0  0  0  0  0  0
  191.1810  176.4680  136.1450 C   0  0  0  0  0  0  0  0  0  0  0  0
  192.1440  176.0410  138.3200 C   0  0  0  0  0  3  0  0  0  0  0  0
  189.0420  177.9790  138.6860 F   0  0  0  0  0  0  0  0  0  0  0  0
  191.2230  176.3410  134.7970 F   0  0  0  0  0  0  0  0  0  0  0  0
  192.1880  175.9080  136.9310 C   0  0  0  0  0  3  0  0  0  0  0  0
  190.0800  177.2980  138.1400 C   0  0  0  0  0  0  0  0  0  0  0  0
  191.0950  176.7350  138.9430 C   0  0  0  0  0  0  0  0  0  0  0  0
  190.1300  177.1620  136.7480 C   0  0  0  0  0  3  0  0  0  0  0  0
  186.8750  177.9720  145.1520 C   0  0  0  0  0  0  0  0  0  0  0  0
  185.5870  178.2880  147.1910 C   0  0  0  0  0  3  0  0  0  0  0  0
  186.8060  178.0500  146.5530 C   0  0  0  0  0  3  0  0  0  0  0  0
  184.4270  178.4580  146.4360 C   0  0  0  0  0  3  0  0  0  0  0  0
  184.4820  178.3810  145.0430 C   0  0  0  0  0  3  0  0  0  0  0  0
  185.6950  178.1190  144.3870 C   0  0  0  0  0  0  0  0  0  0  0  0
  185.3500  179.4410  142.2940 C   0  0  0  0  0  2  0  0  0  0  0  0
  184.3360  178.3240  142.3210 C   0  0  0  0  0  2  0  0  0  0  0  0
  185.7300  178.0900  142.8820 C   0  0  0  0  0  3  0  0  0  0  0  0
  1  6  1  1  0  0  0
  1  8  1  0  0  0  0
  2 23  1  1  0  0  0
  2  5  1  0  0  0  0
  4  3  2  0  0  0  0
  4 11  1  0  0  0  0
  5 12  1  1  0  0  0
  7 10  1  0  0  0  0
  7  9  2  0  0  0  0
  9 13  1  0  0  0  0
 10  2  1  0  0  0  0
 11  7  1  0  0  0  0
 12  8  1  0  0  0  0
 13  5  1  0  0  0  0
 13 14  1  1  0  0  0
 14  1  1  0  0  0  0
 15 22  2  0  0  0  0
 15 19  1  0  0  0  0
 16 21  1  0  0  0  0
 18 15  1  0  0  0  0
 19 16  2  0  0  0  0
 20 17  1  0  0  0  0
 20 21  2  0  0  0  0
 21  4  1  0  0  0  0
 22 20  1  0  0  0  0
 23 25  1  0  0  0  0
 25 24  2  0  0  0  0
 26 24  1  0  0  0  0
 27 26  2  0  0  0  0
 28 27  1  0  0  0  0
 28 23  2  0  0  0  0
 29 30  1  0  0  0  0
 29 31  1  0  0  0  0
 30 31  1  0  0  0  0
 31 28  1  0  0  0  0
M  END
>  <MODEL>
3

>  <REMARK>
 VINA RESULT:      -9.3      3.489      7.463
  Name = 
  3 active torsions:
  status: ('A' for Active; 'I' for Inactive)
    1  A    between atoms: C_4  and  C_5
    2  A    between atoms: C_9  and  C_22
    3  A    between atoms: C_30  and  C_31
                            x       y       z     vdW  Elec       q    Type
                         _______ _______ _______ _____ _____    ______ ____

>  <TORSDO>
F 3

$$$$
=
 OpenBabel10262419303D

 31 35  0  0  1  0  0  0  0  0999 V2000
  188.0420  178.5480  137.0530 C   0  0  1  0  0  3  0  0  0  0  0  0
  184.6960  178.2480  139.7400 C   0  0  1  0  0  3  0  0  0  0  0  0
  188.7160  176.8940  142.8660 O   0  0  0  0  0  0  0  0  0  0  0  0
  187.9000  177.5300  143.5870 C   0  0  0  0  0  0  0  0  0  0  0  0
  185.8290  178.3010  138.7170 C   0  0  2  0  0  3  0  0  0  0  0  0
  189.3310  178.6280  136.2640 C   0  0  0  0  0  1  0  0  0  0  0  0
  186.5620  178.3860  141.5820 C   0  0  0  0  0  0  0  0  0  0  0  0
  186.9180  177.3260  136.2820 S   0  0  0  0  0  0  0  0  0  0  0  0
  187.3200  177.7780  140.7150 N   0  0  0  0  0  0  0  0  0  0  0  0
  185.1530  179.3780  141.0810 S   0  0  0  0  0  0  0  0  0  0  0  0
  186.8310  178.2740  142.9850 N   0  0  0  0  0  2  0  0  0  0  0  0
  185.4740  177.6140  137.3930 C   0  0  0  0  0  2  0  0  0  0  0  0
  187.1240  177.6880  139.2650 C   0  0  2  0  0  3  0  0  0  0  0  0
  188.3520  178.1950  138.5110 C   0  0  0  0  0  2  0  0  0  0  0  0
  188.2180  177.5060  147.8670 C   0  0  0  0  0  0  0  0  0  0  0  0
  186.9380  177.8830  145.8520 C   0  0  0  0  0  3  0  0  0  0  0  0
  190.3320  176.7700  144.9850 F   0  0  0  0  0  0  0  0  0  0  0  0
  188.3060  177.5030  149.2190 F   0  0  0  0  0  0  0  0  0  0  0  0
  187.0260  177.8790  147.2450 C   0  0  0  0  0  3  0  0  0  0  0  0
  189.2390  177.1360  145.6980 C   0  0  0  0  0  0  0  0  0  0  0  0
  188.0370  177.5130  145.0610 C   0  0  0  0  0  0  0  0  0  0  0  0
  189.3220  177.1360  147.0950 C   0  0  0  0  0  3  0  0  0  0  0  0
  183.3600  178.6490  139.1680 C   0  0  0  0  0  0  0  0  0  0  0  0
  181.9320  180.3500  138.1760 C   0  0  0  0  0  3  0  0  0  0  0  0
  183.1540  179.9690  138.7330 C   0  0  0  0  0  3  0  0  0  0  0  0
  180.9050  179.4150  138.0430 C   0  0  0  0  0  3  0  0  0  0  0  0
  181.0960  178.1020  138.4750 C   0  0  0  0  0  3  0  0  0  0  0  0
  182.3110  177.7080  139.0580 C   0  0  0  0  0  0  0  0  0  0  0  0
  182.7190  175.3750  138.2580 C   0  0  0  0  0  2  0  0  0  0  0  0
  181.3670  175.4170  138.9280 C   0  0  0  0  0  2  0  0  0  0  0  0
  182.5030  176.2720  139.4680 C   0  0  0  0  0  3  0  0  0  0  0  0
  1  6  1  6  0  0  0
  1 14  1  0  0  0  0
  2 23  1  6  0  0  0
  2 10  1  0  0  0  0
  3  4  2  0  0  0  0
  4 21  1  0  0  0  0
  5 12  1  6  0  0  0
  5 13  1  0  0  0  0
  5  2  1  0  0  0  0
  7 11  1  0  0  0  0
  8  1  1  0  0  0  0
  8 12  1  0  0  0  0
  9  7  2  0  0  0  0
 10  7  1  0  0  0  0
 11  4  1  0  0  0  0
 13 14  1  6  0  0  0
 13  9  1  0  0  0  0
 15 18  1  0  0  0  0
 16 19  2  0  0  0  0
 17 20  1  0  0  0  0
 19 15  1  0  0  0  0
 20 22  1  0  0  0  0
 21 20  2  0  0  0  0
 21 16  1  0  0  0  0
 22 15  2  0  0  0  0
 24 25  1  0  0  0  0
 25 23  2  0  0  0  0
 26 24  2  0  0  0  0
 26 27  1  0  0  0  0
 27 28  2  0  0  0  0
 28 23  1  0  0  0  0
 28 31  1  0  0  0  0
 29 30  1  0  0  0  0
 29 31  1  0  0  0  0
 30 31  1  0  0  0  0
M  END
>  <MODEL>
4

>  <REMARK>
 VINA RESULT:      -8.6      3.752      8.184
  Name = 
  3 active torsions:
  status: ('A' for Active; 'I' for Inactive)
    1  A    between atoms: C_4  and  C_5
    2  A    between atoms: C_9  and  C_22
    3  A    between atoms: C_30  and  C_31
                            x       y       z     vdW  Elec       q    Type
                         _______ _______ _______ _____ _____    ______ ____

>  <TORSDO>
F 3

$$$$
=
 OpenBabel10262419303D

 31 35  0  0  1  0  0  0  0  0999 V2000
  187.8260  178.5190  136.9120 C   0  0  1  0  0  3  0  0  0  0  0  0
  184.5580  178.2050  139.6920 C   0  0  1  0  0  3  0  0  0  0  0  0
  188.6880  177.0170  142.7410 O   0  0  0  0  0  0  0  0  0  0  0  0
  187.8760  177.6500  143.4690 C   0  0  0  0  0  0  0  0  0  0  0  0
  185.6630  178.2600  138.6390 C   0  0  2  0  0  3  0  0  0  0  0  0
  189.0910  178.6110  136.0880 C   0  0  0  0  0  1  0  0  0  0  0  0
  186.4660  178.4280  141.4810 C   0  0  0  0  0  0  0  0  0  0  0  0
  186.7110  177.2540  136.1990 S   0  0  0  0  0  0  0  0  0  0  0  0
  187.2170  177.8180  140.6090 N   0  0  0  0  0  0  0  0  0  0  0  0
  185.0220  179.3750  140.9950 S   0  0  0  0  0  0  0  0  0  0  0  0
  186.7740  178.3550  142.8790 N   0  0  0  0  0  2  0  0  0  0  0  0
  185.2900  177.5340  137.3410 C   0  0  0  0  0  2  0  0  0  0  0  0
  186.9850  177.6900  139.1660 C   0  0  2  0  0  3  0  0  0  0  0  0
  188.1810  178.2080  138.3690 C   0  0  0  0  0  2  0  0  0  0  0  0
  188.4660  177.7000  147.7200 C   0  0  0  0  0  0  0  0  0  0  0  0
  189.3380  177.5010  145.4740 C   0  0  0  0  0  3  0  0  0  0  0  0
  185.7010  178.0260  145.3610 F   0  0  0  0  0  0  0  0  0  0  0  0
  188.6650  177.7140  149.0600 F   0  0  0  0  0  0  0  0  0  0  0  0
  189.5450  177.5160  146.8550 C   0  0  0  0  0  3  0  0  0  0  0  0
  186.9660  177.8570  145.8220 C   0  0  0  0  0  0  0  0  0  0  0  0
  188.0510  177.6700  144.9390 C   0  0  0  0  0  0  0  0  0  0  0  0
  187.1800  177.8700  147.2040 C   0  0  0  0  0  3  0  0  0  0  0  0
  183.1980  178.5610  139.1470 C   0  0  0  0  0  0  0  0  0  0  0  0
  181.6960  180.2130  138.1830 C   0  0  0  0  0  3  0  0  0  0  0  0
  182.9400  179.8730  138.7150 C   0  0  0  0  0  3  0  0  0  0  0  0
  180.6980  179.2450  138.0710 C   0  0  0  0  0  3  0  0  0  0  0  0
  180.9400  177.9390  138.5000 C   0  0  0  0  0  3  0  0  0  0  0  0
  182.1790  177.5860  139.0580 C   0  0  0  0  0  0  0  0  0  0  0  0
  182.6740  175.2720  138.2540 C   0  0  0  0  0  2  0  0  0  0  0  0
  181.3220  175.2610  138.9250 C   0  0  0  0  0  2  0  0  0  0  0  0
  182.4250  176.1570  139.4660 C   0  0  0  0  0  3  0  0  0  0  0  0
  1  6  1  6  0  0  0
  1 14  1  0  0  0  0
  2 23  1  6  0  0  0
  2 10  1  0  0  0  0
  3  4  2  0  0  0  0
  4 21  1  0  0  0  0
  5 12  1  6  0  0  0
  5 13  1  0  0  0  0
  5  2  1  0  0  0  0
  7 11  1  0  0  0  0
  8  1  1  0  0  0  0
  8 12  1  0  0  0  0
  9  7  2  0  0  0  0
 10  7  1  0  0  0  0
 11  4  1  0  0  0  0
 13 14  1  6  0  0  0
 13  9  1  0  0  0  0
 15 18  1  0  0  0  0
 16 19  1  0  0  0  0
 17 20  1  0  0  0  0
 19 15  2  0  0  0  0
 20 22  2  0  0  0  0
 21 16  2  0  0  0  0
 21 20  1  0  0  0  0
 22 15  1  0  0  0  0
 24 25  1  0  0  0  0
 25 23  2  0  0  0  0
 26 24  2  0  0  0  0
 26 27  1  0  0  0  0
 27 28  2  0  0  0  0
 28 23  1  0  0  0  0
 28 31  1  0  0  0  0
 29 30  1  0  0  0  0
 29 31  1  0  0  0  0
 30 31  1  0  0  0  0
M  END
>  <MODEL>
5

>  <REMARK>
 VINA RESULT:      -8.4      3.361      8.183
  Name = 
  3 active torsions:
  status: ('A' for Active; 'I' for Inactive)
    1  A    between atoms: C_4  and  C_5
    2  A    between atoms: C_9  and  C_22
    3  A    between atoms: C_30  and  C_31
                            x       y       z     vdW  Elec       q    Type
                         _______ _______ _______ _____ _____    ______ ____

>  <TORSDO>
F 3

$$$$
=
 OpenBabel10262419303D

 31 35  0  0  1  0  0  0  0  0999 V2000
  180.8010  179.4560  136.1850 C   0  0  1  0  0  3  0  0  0  0  0  0
  182.1260  175.7970  138.0180 C   0  0  1  0  0  3  0  0  0  0  0  0
  184.7120  179.4160  140.8410 O   0  0  0  0  0  0  0  0  0  0  0  0
  184.4170  178.4840  141.6380 C   0  0  0  0  0  0  0  0  0  0  0  0
  181.6740  177.0530  137.2750 C   0  0  2  0  0  3  0  0  0  0  0  0
  180.4230  180.8340  135.6870 C   0  0  0  0  0  1  0  0  0  0  0  0
  182.7890  177.3910  139.9950 C   0  0  0  0  0  0  0  0  0  0  0  0
  181.5770  178.4980  134.8330 S   0  0  0  0  0  0  0  0  0  0  0  0
  182.9980  178.2840  139.0700 N   0  0  0  0  0  0  0  0  0  0  0  0
  181.6570  176.0200  139.7530 S   0  0  0  0  0  0  0  0  0  0  0  0
  183.4730  177.4750  141.2510 N   0  0  0  0  0  2  0  0  0  0  0  0
  181.7500  176.9080  135.7500 C   0  0  0  0  0  2  0  0  0  0  0  0
  182.4800  178.2870  137.6990 C   0  0  2  0  0  3  0  0  0  0  0  0
  181.7270  179.5830  137.3980 C   0  0  0  0  0  2  0  0  0  0  0  0
  186.2940  178.2730  145.4910 C   0  0  0  0  0  0  0  0  0  0  0  0
  186.3140  177.8470  143.1130 C   0  0  0  0  0  3  0  0  0  0  0  0
  183.1680  179.4970  144.0600 F   0  0  0  0  0  0  0  0  0  0  0  0
  186.8970  178.2000  146.7030 F   0  0  0  0  0  0  0  0  0  0  0  0
  186.9370  177.7720  144.3600 C   0  0  0  0  0  3  0  0  0  0  0  0
  184.3980  178.9290  144.1290 C   0  0  0  0  0  0  0  0  0  0  0  0
  185.0410  178.4240  142.9790 C   0  0  0  0  0  0  0  0  0  0  0  0
  185.0270  178.8490  145.3760 C   0  0  0  0  0  3  0  0  0  0  0  0
  181.5030  174.5330  137.4800 C   0  0  0  0  0  0  0  0  0  0  0  0
  179.5130  173.2660  136.8900 C   0  0  0  0  0  3  0  0  0  0  0  0
  180.1050  174.4180  137.4100 C   0  0  0  0  0  3  0  0  0  0  0  0
  180.3110  172.2190  136.4290 C   0  0  0  0  0  3  0  0  0  0  0  0
  181.7020  172.3200  136.4970 C   0  0  0  0  0  3  0  0  0  0  0  0
  182.3130  173.4620  137.0380 C   0  0  0  0  0  0  0  0  0  0  0  0
  184.3600  173.8970  135.6710 C   0  0  0  0  0  2  0  0  0  0  0  0
  184.4190  172.4750  136.1730 C   0  0  0  0  0  2  0  0  0  0  0  0
  183.8160  173.5600  137.0520 C   0  0  0  0  0  3  0  0  0  0  0  0
  1  6  1  6  0  0  0
  1 14  1  0  0  0  0
  2 23  1  6  0  0  0
  2 10  1  0  0  0  0
  3  4  2  0  0  0  0
  4 21  1  0  0  0  0
  5 12  1  6  0  0  0
  5 13  1  0  0  0  0
  5  2  1  0  0  0  0
  7 11  1  0  0  0  0
  8 12  1  0  0  0  0
  8  1  1  0  0  0  0
  9  7  2  0  0  0  0
 10  7  1  0  0  0  0
 11  4  1  0  0  0  0
 13 14  1  1  0  0  0
 13  9  1  0  0  0  0
 15 18  1  0  0  0  0
 16 19  1  0  0  0  0
 17 20  1  0  0  0  0
 19 15  2  0  0  0  0
 20 22  2  0  0  0  0
 21 16  2  0  0  0  0
 21 20  1  0  0  0  0
 22 15  1  0  0  0  0
 24 25  2  0  0  0  0
 25 23  1  0  0  0  0
 26 27  2  0  0  0  0
 26 24  1  0  0  0  0
 27 28  1  0  0  0  0
 28 31  1  0  0  0  0
 28 23  2  0  0  0  0
 29 30  1  0  0  0  0
 29 31  1  0  0  0  0
 30 31  1  0  0  0  0
M  END
>  <MODEL>
6

>  <REMARK>
 VINA RESULT:      -8.2      5.413      9.712
  Name = 
  3 active torsions:
  status: ('A' for Active; 'I' for Inactive)
    1  A    between atoms: C_4  and  C_5
    2  A    between atoms: C_9  and  C_22
    3  A    between atoms: C_30  and  C_31
                            x       y       z     vdW  Elec       q    Type
                         _______ _______ _______ _____ _____    ______ ____

>  <TORSDO>
F 3

$$$$
=
 OpenBabel10262419303D

 31 35  0  0  1  0  0  0  0  0999 V2000
  180.4410  181.0310  137.8480 C   0  0  1  0  0  3  0  0  0  0  0  0
  181.9520  177.0220  138.2390 C   0  0  1  0  0  3  0  0  0  0  0  0
  185.3570  179.7530  141.1910 O   0  0  0  0  0  0  0  0  0  0  0  0
  185.2100  178.6350  141.7550 C   0  0  0  0  0  0  0  0  0  0  0  0
  181.4090  178.4300  137.9980 C   0  0  2  0  0  3  0  0  0  0  0  0
  180.0370  182.4900  137.8480 C   0  0  0  0  0  1  0  0  0  0  0  0
  183.1690  178.0190  140.3410 C   0  0  0  0  0  0  0  0  0  0  0  0
  180.8080  180.4900  136.1380 S   0  0  0  0  0  0  0  0  0  0  0  0
  183.2000  179.1340  139.6680 N   0  0  0  0  0  0  0  0  0  0  0  0
  181.9330  176.7560  140.0310 S   0  0  0  0  0  0  0  0  0  0  0  0
  184.1420  177.7610  141.3610 N   0  0  0  0  0  2  0  0  0  0  0  0
  181.1030  178.7100  136.5220 C   0  0  0  0  0  2  0  0  0  0  0  0
  182.3650  179.5090  138.5220 C   0  0  2  0  0  3  0  0  0  0  0  0
  181.6400  180.8290  138.7780 C   0  0  0  0  0  2  0  0  0  0  0  0
  187.8350  177.4270  144.9280 C   0  0  0  0  0  0  0  0  0  0  0  0
  185.6840  178.2160  144.1590 C   0  0  0  0  0  3  0  0  0  0  0  0
  187.9520  177.7880  141.2990 F   0  0  0  0  0  0  0  0  0  0  0  0
  188.6550  177.0480  145.9390 F   0  0  0  0  0  0  0  0  0  0  0  0
  186.5270  177.8250  145.2020 C   0  0  0  0  0  3  0  0  0  0  0  0
  187.4620  177.8100  142.5630 C   0  0  0  0  0  0  0  0  0  0  0  0
  186.1360  178.2140  142.8310 C   0  0  0  0  0  0  0  0  0  0  0  0
  188.3010  177.4200  143.6120 C   0  0  0  0  0  3  0  0  0  0  0  0
  181.1430  175.9490  137.5560 C   0  0  0  0  0  0  0  0  0  0  0  0
  179.0070  174.8420  137.2020 C   0  0  0  0  0  3  0  0  0  0  0  0
  179.7750  175.8130  137.8460 C   0  0  0  0  0  3  0  0  0  0  0  0
  179.5940  174.0010  136.2570 C   0  0  0  0  0  3  0  0  0  0  0  0
  180.9540  174.1240  135.9630 C   0  0  0  0  0  3  0  0  0  0  0  0
  181.7460  175.0800  136.6180 C   0  0  0  0  0  0  0  0  0  0  0  0
  183.3570  175.9390  134.9110 C   0  0  0  0  0  2  0  0  0  0  0  0
  183.4870  174.4370  134.9700 C   0  0  0  0  0  2  0  0  0  0  0  0
  183.1980  175.2190  136.2420 C   0  0  0  0  0  3  0  0  0  0  0  0
  1  6  1  6  0  0  0
  1 14  1  0  0  0  0
  2 23  1  6  0  0  0
  2 10  1  0  0  0  0
  3  4  2  0  0  0  0
  4 21  1  0  0  0  0
  5 12  1  6  0  0  0
  5  2  1  0  0  0  0
  5 13  1  0  0  0  0
  7 11  1  0  0  0  0
  8 12  1  0  0  0  0
  8  1  1  0  0  0  0
  9  7  2  0  0  0  0
 10  7  1  0  0  0  0
 11  4  1  0  0  0  0
 13 14  1  1  0  0  0
 13  9  1  0  0  0  0
 15 19  1  0  0  0  0
 15 18  1  0  0  0  0
 16 19  2  0  0  0  0
 17 20  1  0  0  0  0
 20 21  2  0  0  0  0
 20 22  1  0  0  0  0
 21 16  1  0  0  0  0
 22 15  2  0  0  0  0
 23 25  1  0  0  0  0
 24 25  2  0  0  0  0
 26 24  1  0  0  0  0
 27 26  2  0  0  0  0
 27 28  1  0  0  0  0
 28 23  2  0  0  0  0
 29 30  1  0  0  0  0
 29 31  1  0  0  0  0
 30 31  1  0  0  0  0
 31 28  1  0  0  0  0
M  END
>  <MODEL>
7

>  <REMARK>
 VINA RESULT:      -8.0      5.001     10.097
  Name = 
  3 active torsions:
  status: ('A' for Active; 'I' for Inactive)
    1  A    between atoms: C_4  and  C_5
    2  A    between atoms: C_9  and  C_22
    3  A    between atoms: C_30  and  C_31
                            x       y       z     vdW  Elec       q    Type
                         _______ _______ _______ _____ _____    ______ ____

>  <TORSDO>
F 3

$$$$
=
 OpenBabel10262419303D

 31 35  0  0  1  0  0  0  0  0999 V2000
  190.4490  176.6910  140.4000 C   0  0  1  0  0  3  0  0  0  0  0  0
  187.8630  178.0480  143.5580 C   0  0  1  0  0  3  0  0  0  0  0  0
  185.2180  179.5760  139.2640 O   0  0  0  0  0  0  0  0  0  0  0  0
  184.3530  179.2410  140.1180 C   0  0  0  0  0  0  0  0  0  0  0  0
  188.8600  177.6080  142.4870 C   0  0  2  0  0  3  0  0  0  0  0  0
  191.2150  176.2600  139.1670 C   0  0  0  0  0  1  0  0  0  0  0  0
  186.0710  178.1120  141.6400 C   0  0  0  0  0  0  0  0  0  0  0  0
  191.4750  177.8280  141.4020 S   0  0  0  0  0  0  0  0  0  0  0  0
  187.0700  178.3940  140.8540 N   0  0  0  0  0  0  0  0  0  0  0  0
  186.2960  177.2200  143.1810 S   0  0  0  0  0  0  0  0  0  0  0  0
  184.7410  178.5190  141.2950 N   0  0  0  0  0  2  0  0  0  0  0  0
  190.3050  178.0010  142.8170 C   0  0  0  0  0  2  0  0  0  0  0  0
  188.4960  178.1620  141.1050 C   0  0  2  0  0  3  0  0  0  0  0  0
  189.1250  177.3360  139.9830 C   0  0  0  0  0  2  0  0  0  0  0  0
  180.2460  180.2950  139.4550 C   0  0  0  0  0  0  0  0  0  0  0  0
  182.5820  180.4430  138.8540 C   0  0  0  0  0  3  0  0  0  0  0  0
  182.1820  178.2590  141.7830 F   0  0  0  0  0  0  0  0  0  0  0  0
  178.9520  180.6360  139.2360 F   0  0  0  0  0  0  0  0  0  0  0  0
  181.2500  180.7950  138.6260 C   0  0  0  0  0  3  0  0  0  0  0  0
  181.9060  179.0880  140.7460 C   0  0  0  0  0  0  0  0  0  0  0  0
  182.9280  179.5890  139.9120 C   0  0  0  0  0  0  0  0  0  0  0  0
  180.5730  179.4440  140.5130 C   0  0  0  0  0  3  0  0  0  0  0  0
  188.3000  177.6980  144.9580 C   0  0  0  0  0  0  0  0  0  0  0  0
  190.0750  177.0970  146.5080 C   0  0  0  0  0  3  0  0  0  0  0  0
  189.6480  177.3960  145.2140 C   0  0  0  0  0  3  0  0  0  0  0  0
  189.1610  177.1020  147.5620 C   0  0  0  0  0  3  0  0  0  0  0  0
  187.8180  177.3980  147.3200 C   0  0  0  0  0  3  0  0  0  0  0  0
  187.3690  177.6790  146.0210 C   0  0  0  0  0  0  0  0  0  0  0  0
  185.6540  179.4900  146.1790 C   0  0  0  0  0  2  0  0  0  0  0  0
  185.2620  178.3840  147.1270 C   0  0  0  0  0  2  0  0  0  0  0  0
  185.9230  178.0410  145.8010 C   0  0  0  0  0  3  0  0  0  0  0  0
  1  6  1  6  0  0  0
  1  8  1  0  0  0  0
  2 23  1  1  0  0  0
  3  4  2  0  0  0  0
  4 11  1  0  0  0  0
  5 12  1  1  0  0  0
  5  2  1  0  0  0  0
  7 10  1  0  0  0  0
  8 12  1  0  0  0  0
  9 13  1  0  0  0  0
  9  7  2  0  0  0  0
 10  2  1  0  0  0  0
 11  7  1  0  0  0  0
 13 14  1  6  0  0  0
 13  5  1  0  0  0  0
 14  1  1  0  0  0  0
 15 22  1  0  0  0  0
 16 21  2  0  0  0  0
 18 15  1  0  0  0  0
 19 16  1  0  0  0  0
 19 15  2  0  0  0  0
 20 17  1  0  0  0  0
 21  4  1  0  0  0  0
 21 20  1  0  0  0  0
 22 20  2  0  0  0  0
 23 25  2  0  0  0  0
 23 28  1  0  0  0  0
 24 26  2  0  0  0  0
 25 24  1  0  0  0  0
 27 26  1  0  0  0  0
 28 27  2  0  0  0  0
 29 30  1  0  0  0  0
 31 28  1  0  0  0  0
 31 29  1  0  0  0  0
 31 30  1  0  0  0  0
M  END
>  <MODEL>
8

>  <REMARK>
 VINA RESULT:      -8.0      1.932      2.526
  Name = 
  3 active torsions:
  status: ('A' for Active; 'I' for Inactive)
    1  A    between atoms: C_4  and  C_5
    2  A    between atoms: C_9  and  C_22
    3  A    between atoms: C_30  and  C_31
                            x       y       z     vdW  Elec       q    Type
                         _______ _______ _______ _____ _____    ______ ____

>  <TORSDO>
F 3

$$$$
=
 OpenBabel10262419303D

 31 35  0  0  1  0  0  0  0  0999 V2000
  183.2910  179.7910  139.4700 C   0  0  1  0  0  3  0  0  0  0  0  0
  186.1850  178.0730  142.1490 C   0  0  1  0  0  3  0  0  0  0  0  0
  188.2550  176.9240  137.4420 O   0  0  0  0  0  0  0  0  0  0  0  0
  189.2250  177.1550  138.2130 C   0  0  0  0  0  0  0  0  0  0  0  0
  185.0840  178.6380  141.2540 C   0  0  2  0  0  3  0  0  0  0  0  0
  182.3990  180.3570  138.3860 C   0  0  0  0  0  1  0  0  0  0  0  0
  187.7360  178.1620  140.0320 C   0  0  0  0  0  0  0  0  0  0  0  0
  182.3540  178.5810  140.4740 S   0  0  0  0  0  0  0  0  0  0  0  0
  186.6420  177.9800  139.3490 N   0  0  0  0  0  0  0  0  0  0  0  0
  187.7230  178.9010  141.6670 S   0  0  0  0  0  0  0  0  0  0  0  0
  189.0030  177.7640  139.4920 N   0  0  0  0  0  2  0  0  0  0  0  0
  183.6750  178.2440  141.7150 C   0  0  0  0  0  2  0  0  0  0  0  0
  185.2640  178.2160  139.7900 C   0  0  2  0  0  3  0  0  0  0  0  0
  184.5350  179.1620  138.8370 C   0  0  0  0  0  2  0  0  0  0  0  0
  193.1930  176.1110  136.9530 C   0  0  0  0  0  0  0  0  0  0  0  0
  190.8430  176.4130  136.4770 C   0  0  0  0  0  3  0  0  0  0  0  0
  191.5150  177.2030  140.0030 F   0  0  0  0  0  0  0  0  0  0  0  0
  194.4410  175.7790  136.5430 F   0  0  0  0  0  0  0  0  0  0  0  0
  192.1280  176.0710  136.0520 C   0  0  0  0  0  3  0  0  0  0  0  0
  191.6870  176.8370  138.7090 C   0  0  0  0  0  0  0  0  0  0  0  0
  190.6040  176.7990  137.8050 C   0  0  0  0  0  0  0  0  0  0  0  0
  192.9720  176.4930  138.2780 C   0  0  0  0  0  3  0  0  0  0  0  0
  185.9270  178.2910  143.6180 C   0  0  0  0  0  0  0  0  0  0  0  0
  184.4870  179.1290  145.3900 C   0  0  0  0  0  3  0  0  0  0  0  0
  184.7540  178.9430  144.0330 C   0  0  0  0  0  3  0  0  0  0  0  0
  185.3850  178.6600  146.3480 C   0  0  0  0  0  3  0  0  0  0  0  0
  186.5570  178.0130  145.9490 C   0  0  0  0  0  3  0  0  0  0  0  0
  186.8510  177.8380  144.5880 C   0  0  0  0  0  0  0  0  0  0  0  0
  188.9880  176.8230  145.3960 C   0  0  0  0  0  2  0  0  0  0  0  0
  189.3260  177.9510  144.4530 C   0  0  0  0  0  2  0  0  0  0  0  0
  188.0990  177.0930  144.1910 C   0  0  0  0  0  3  0  0  0  0  0  0
  1  6  1  6  0  0  0
  1  8  1  0  0  0  0
  2 23  1  1  0  0  0
  3  4  2  0  0  0  0
  4 11  1  0  0  0  0
  5 12  1  1  0  0  0
  5  2  1  0  0  0  0
  7 10  1  0  0  0  0
  8 12  1  0  0  0  0
  9 13  1  0  0  0  0
  9  7  2  0  0  0  0
 10  2  1  0  0  0  0
 11  7  1  0  0  0  0
 13 14  1  6  0  0  0
 13  5  1  0  0  0  0
 14  1  1  0  0  0  0
 15 22  1  0  0  0  0
 16 21  2  0  0  0  0
 18 15  1  0  0  0  0
 19 16  1  0  0  0  0
 19 15  2  0  0  0  0
 20 17  1  0  0  0  0
 21  4  1  0  0  0  0
 21 20  1  0  0  0  0
 22 20  2  0  0  0  0
 23 25  2  0  0  0  0
 23 28  1  0  0  0  0
 24 26  2  0  0  0  0
 25 24  1  0  0  0  0
 27 26  1  0  0  0  0
 28 27  2  0  0  0  0
 30 29  1  0  0  0  0
 31 30  1  0  0  0  0
 31 28  1  0  0  0  0
 31 29  1  0  0  0  0
M  END
>  <MODEL>
9

>  <REMARK>
 VINA RESULT:      -7.9      3.877      7.941
  Name = 
  3 active torsions:
  status: ('A' for Active; 'I' for Inactive)
    1  A    between atoms: C_4  and  C_5
    2  A    between atoms: C_9  and  C_22
    3  A    between atoms: C_30  and  C_31
                            x       y       z     vdW  Elec       q    Type
                         _______ _______ _______ _____ _____    ______ ____

>  <TORSDO>
F 3

$$$$
