=
 OpenBabel10262421413D

 32 36  0  0  0  0  0  0  0  0999 V2000
  189.0750  177.2940  146.6230 C   0  0  0  0  0  0  0  0  0  0  0  0
  185.5200  178.3430  143.2250 C   0  0  0  0  0  0  0  0  0  0  0  0
  183.0520  178.6980  143.2370 C   0  0  0  0  0  0  0  0  0  0  0  0
  181.8830  178.9760  142.5130 C   0  0  0  0  0  0  0  0  0  0  0  0
  186.6970  177.8680  145.2470 C   0  0  0  0  0  0  0  0  0  0  0  0
  187.9190  177.9730  143.1710 C   0  0  0  0  0  3  0  0  0  0  0  0
  179.5800  179.5290  141.0570 C   0  0  0  0  0  3  0  0  0  0  0  0
  189.0970  177.4910  145.2330 C   0  0  0  0  0  3  0  0  0  0  0  0
  186.7260  178.2630  142.4860 C   0  0  0  0  0  0  0  0  0  0  0  0
  186.7260  178.4640  141.0900 C   0  0  0  0  0  0  0  0  0  0  0  0
  184.3150  178.8250  141.1570 C   0  0  0  0  0  0  0  0  0  0  0  0
  179.5180  179.3360  142.4020 N   0  0  0  0  0  0  0  0  0  0  0  0
  187.8600  177.3870  147.3150 C   0  0  0  0  0  3  0  0  0  0  0  0
  187.9130  177.7760  144.5470 C   0  0  0  0  0  0  0  0  0  0  0  0
  180.6310  179.0640  143.1350 C   0  0  0  0  0  3  0  0  0  0  0  0
  186.6740  177.6730  146.6300 C   0  0  0  0  0  3  0  0  0  0  0  0
  185.5140  178.7710  140.4260 C   0  0  0  0  0  0  0  0  0  0  0  0
  183.1580  179.0950  140.4930 N   0  0  0  0  0  2  0  0  0  0  0  0
  185.5510  178.1440  144.5750 N   0  0  0  0  0  0  0  0  0  0  0  0
  182.9740  178.5220  144.4850 O   0  0  0  0  0  0  0  0  0  0  0  0
  180.8050  179.4510  140.3920 C   0  0  0  0  0  3  0  0  0  0  0  0
  184.3000  178.6180  142.5600 C   0  0  0  0  0  0  0  0  0  0  0  0
  181.9610  179.1730  141.1240 C   0  0  0  0  0  0  0  0  0  0  0  0
  188.9380  178.1370  139.7530 N   0  0  0  0  0  0  0  0  0  0  0  0
  187.9580  178.2850  140.3480 C   0  0  0  0  0  0  0  0  0  0  0  0
  185.3480  177.9990  138.0490 C   0  0  0  0  0  1  0  0  0  0  0  0
  185.4330  179.0120  139.0430 O   0  0  0  0  0  0  0  0  0  0  0  0
  190.2390  177.0070  147.3410 O   0  0  0  0  0  0  0  0  0  0  0  0
  191.5290  177.0120  146.7430 C   0  0  0  0  0  2  0  0  0  0  0  0
  192.2510  175.7640  147.1080 C   0  0  0  0  0  0  0  0  0  0  0  0
  192.4100  174.8560  146.2530 O   0  0  0  0  0  0  0  0  0  0  0  0
  192.7870  175.6200  148.3800 O   0  0  0  0  0  1  0  0  0  0  0  0
  1 13  1  0  0  0  0
  1 28  1  0  0  0  0
  2 19  2  0  0  0  0
  3 20  2  0  0  0  0
  4 15  1  0  0  0  0
  4  3  1  0  0  0  0
  5 16  1  0  0  0  0
  6 14  1  0  0  0  0
  7 12  1  0  0  0  0
  8  1  2  0  0  0  0
  9  6  2  0  0  0  0
  9  2  1  0  0  0  0
 10  9  1  0  0  0  0
 11 22  2  0  0  0  0
 12 15  2  0  0  0  0
 14  8  1  0  0  0  0
 14  5  2  0  0  0  0
 16 13  2  0  0  0  0
 17 10  2  0  0  0  0
 17 11  1  0  0  0  0
 18 23  1  0  0  0  0
 18 11  1  0  0  0  0
 19  5  1  0  0  0  0
 21  7  2  0  0  0  0
 21 23  1  0  0  0  0
 22  2  1  0  0  0  0
 22  3  1  0  0  0  0
 23  4  2  0  0  0  0
 24 25  3  0  0  0  0
 25 10  1  0  0  0  0
 26 27  1  0  0  0  0
 27 17  1  0  0  0  0
 29 30  1  0  0  0  0
 29 28  1  0  0  0  0
 30 32  1  0  0  0  0
 31 30  2  0  0  0  0
M  END
>  <MODEL>
1

>  <REMARK>
 VINA RESULT:      -9.6      0.000      0.000
  Name = 
  5 active torsions:
  status: ('A' for Active; 'I' for Inactive)
    1  A    between atoms: C_1  and  C_10
    2  A    between atoms: C_2  and  O_24
    3  A    between atoms: C_10  and  O_24
    4  A    between atoms: C_13  and  C_15
    5  A    between atoms: O_25  and  C_26
                            x       y       z     vdW  Elec       q    Type
                         _______ _______ _______ _____ _____    ______ ____

>  <TORSDO>
F 5

$$$$
=
 OpenBabel10262421413D

 32 36  0  0  0  0  0  0  0  0999 V2000
  181.7950  179.1330  142.5340 C   0  0  0  0  0  0  0  0  0  0  0  0
  186.6280  178.0100  143.3590 C   0  0  0  0  0  0  0  0  0  0  0  0
  188.0500  177.4760  145.3350 C   0  0  0  0  0  0  0  0  0  0  0  0
  189.3190  177.1530  145.8390 C   0  0  0  0  0  0  0  0  0  0  0  0
  184.2970  178.4610  143.6150 C   0  0  0  0  0  0  0  0  0  0  0  0
  185.2780  178.5560  141.4150 C   0  0  0  0  0  3  0  0  0  0  0  0
  191.8410  176.5110  146.8160 C   0  0  0  0  0  3  0  0  0  0  0  0
  182.9150  179.0130  141.6950 C   0  0  0  0  0  3  0  0  0  0  0  0
  186.5290  178.2180  141.9600 C   0  0  0  0  0  0  0  0  0  0  0  0
  187.6660  178.0920  141.1350 C   0  0  0  0  0  0  0  0  0  0  0  0
  189.0110  177.5520  143.0960 C   0  0  0  0  0  0  0  0  0  0  0  0
  190.7820  176.6270  147.6610 N   0  0  0  0  0  0  0  0  0  0  0  0
  181.9380  178.9150  143.9110 C   0  0  0  0  0  3  0  0  0  0  0  0
  184.1610  178.6790  142.2330 C   0  0  0  0  0  0  0  0  0  0  0  0
  189.5390  176.9400  147.2070 C   0  0  0  0  0  3  0  0  0  0  0  0
  183.1830  178.5800  144.4510 C   0  0  0  0  0  3  0  0  0  0  0  0
  188.9100  177.7330  141.7070 C   0  0  0  0  0  0  0  0  0  0  0  0
  190.2230  177.2340  143.6270 N   0  0  0  0  0  2  0  0  0  0  0  0
  185.5100  178.1390  144.1320 N   0  0  0  0  0  0  0  0  0  0  0  0
  187.0790  177.5790  146.1350 O   0  0  0  0  0  0  0  0  0  0  0  0
  191.6720  176.7130  145.4450 C   0  0  0  0  0  3  0  0  0  0  0  0
  187.8770  177.6820  143.9390 C   0  0  0  0  0  0  0  0  0  0  0  0
  190.4050  177.0360  144.9550 C   0  0  0  0  0  0  0  0  0  0  0  0
  187.4610  178.6480  138.5980 N   0  0  0  0  0  0  0  0  0  0  0  0
  187.5550  178.3990  139.7240 C   0  0  0  0  0  0  0  0  0  0  0  0
  190.3160  176.4860  140.0510 C   0  0  0  0  0  1  0  0  0  0  0  0
  190.0840  177.5610  140.9520 O   0  0  0  0  0  0  0  0  0  0  0  0
  180.5350  179.4650  142.0310 O   0  0  0  0  0  0  0  0  0  0  0  0
  179.4060  178.6110  142.1660 C   0  0  0  0  0  2  0  0  0  0  0  0
  179.5290  177.4700  141.2210 C   0  0  0  0  0  0  0  0  0  0  0  0
  179.2670  176.3020  141.6070 O   0  0  0  0  0  1  0  0  0  0  0  0
  179.8920  177.6990  139.9010 O   0  0  0  0  0  0  0  0  0  0  0  0
  1 13  1  0  0  0  0
  2 22  1  0  0  0  0
  2 19  2  0  0  0  0
  3  4  1  0  0  0  0
  3 20  2  0  0  0  0
  4 15  1  0  0  0  0
  5 19  1  0  0  0  0
  5 16  1  0  0  0  0
  6  9  2  0  0  0  0
  6 14  1  0  0  0  0
  7 12  1  0  0  0  0
  8 14  1  0  0  0  0
  8  1  2  0  0  0  0
  9  2  1  0  0  0  0
 10 17  2  0  0  0  0
 10  9  1  0  0  0  0
 11 18  1  0  0  0  0
 11 22  2  0  0  0  0
 13 16  2  0  0  0  0
 14  5  2  0  0  0  0
 15 12  2  0  0  0  0
 17 11  1  0  0  0  0
 18 23  1  0  0  0  0
 21  7  2  0  0  0  0
 22  3  1  0  0  0  0
 23 21  1  0  0  0  0
 23  4  2  0  0  0  0
 24 25  3  0  0  0  0
 25 10  1  0  0  0  0
 26 27  1  0  0  0  0
 27 17  1  0  0  0  0
 28 29  1  0  0  0  0
 28  1  1  0  0  0  0
 30 31  1  0  0  0  0
 30 29  1  0  0  0  0
 32 30  2  0  0  0  0
M  END
>  <MODEL>
2

>  <REMARK>
 VINA RESULT:      -9.5      2.686      8.241
  Name = 
  5 active torsions:
  status: ('A' for Active; 'I' for Inactive)
    1  A    between atoms: C_1  and  C_10
    2  A    between atoms: C_2  and  O_24
    3  A    between atoms: C_10  and  O_24
    4  A    between atoms: C_13  and  C_15
    5  A    between atoms: O_25  and  C_26
                            x       y       z     vdW  Elec       q    Type
                         _______ _______ _______ _____ _____    ______ ____

>  <TORSDO>
F 5

$$$$
=
 OpenBabel10262421413D

 32 36  0  0  0  0  0  0  0  0999 V2000
  181.6220  179.0640  142.3280 C   0  0  0  0  0  0  0  0  0  0  0  0
  186.4650  178.0620  143.2440 C   0  0  0  0  0  0  0  0  0  0  0  0
  187.8670  177.5870  145.2500 C   0  0  0  0  0  0  0  0  0  0  0  0
  189.1340  177.3000  145.7790 C   0  0  0  0  0  0  0  0  0  0  0  0
  184.1210  178.4630  143.4580 C   0  0  0  0  0  0  0  0  0  0  0  0
  185.1350  178.5520  141.2720 C   0  0  0  0  0  3  0  0  0  0  0  0
  191.6540  176.7290  146.8040 C   0  0  0  0  0  3  0  0  0  0  0  0
  182.7580  178.9580  141.5090 C   0  0  0  0  0  3  0  0  0  0  0  0
  186.3840  178.2490  141.8420 C   0  0  0  0  0  0  0  0  0  0  0  0
  187.5370  178.1390  141.0370 C   0  0  0  0  0  0  0  0  0  0  0  0
  188.8620  177.6560  143.0260 C   0  0  0  0  0  0  0  0  0  0  0  0
  190.5790  176.8320  147.6300 N   0  0  0  0  0  0  0  0  0  0  0  0
  181.7470  178.8670  143.7090 C   0  0  0  0  0  3  0  0  0  0  0  0
  184.0020  178.6600  142.0700 C   0  0  0  0  0  0  0  0  0  0  0  0
  189.3360  177.1110  147.1530 C   0  0  0  0  0  3  0  0  0  0  0  0
  182.9910  178.5680  144.2740 C   0  0  0  0  0  3  0  0  0  0  0  0
  188.7790  177.8160  141.6340 C   0  0  0  0  0  0  0  0  0  0  0  0
  190.0720  177.3730  143.5810 N   0  0  0  0  0  2  0  0  0  0  0  0
  185.3320  178.1760  143.9980 N   0  0  0  0  0  0  0  0  0  0  0  0
  186.8800  177.6780  146.0330 O   0  0  0  0  0  0  0  0  0  0  0  0
  191.5020  176.9090  145.4280 C   0  0  0  0  0  3  0  0  0  0  0  0
  187.7120  177.7710  143.8490 C   0  0  0  0  0  0  0  0  0  0  0  0
  190.2370  177.1960  144.9140 C   0  0  0  0  0  0  0  0  0  0  0  0
  187.3720  178.6480  138.4870 N   0  0  0  0  0  0  0  0  0  0  0  0
  187.4420  178.4240  139.6200 C   0  0  0  0  0  0  0  0  0  0  0  0
  190.3290  176.4880  140.1810 C   0  0  0  0  0  1  0  0  0  0  0  0
  189.9690  177.6610  140.8990 O   0  0  0  0  0  0  0  0  0  0  0  0
  180.3630  179.3600  141.8000 O   0  0  0  0  0  0  0  0  0  0  0  0
  180.1440  179.5710  140.4110 C   0  0  0  0  0  2  0  0  0  0  0  0
  179.9540  181.0230  140.1520 C   0  0  0  0  0  0  0  0  0  0  0  0
  179.1120  181.6760  140.8190 O   0  0  0  0  0  1  0  0  0  0  0  0
  180.7360  181.6650  139.2020 O   0  0  0  0  0  0  0  0  0  0  0  0
  1 13  1  0  0  0  0
  2 22  1  0  0  0  0
  2 19  2  0  0  0  0
  3  4  1  0  0  0  0
  3 20  2  0  0  0  0
  4 15  1  0  0  0  0
  5 19  1  0  0  0  0
  5 16  1  0  0  0  0
  6  9  2  0  0  0  0
  6 14  1  0  0  0  0
  7 12  1  0  0  0  0
  8 14  1  0  0  0  0
  8  1  2  0  0  0  0
  9  2  1  0  0  0  0
 10 17  2  0  0  0  0
 10  9  1  0  0  0  0
 11 18  1  0  0  0  0
 11 22  2  0  0  0  0
 13 16  2  0  0  0  0
 14  5  2  0  0  0  0
 15 12  2  0  0  0  0
 17 11  1  0  0  0  0
 18 23  1  0  0  0  0
 21  7  2  0  0  0  0
 22  3  1  0  0  0  0
 23 21  1  0  0  0  0
 23  4  2  0  0  0  0
 24 25  3  0  0  0  0
 25 10  1  0  0  0  0
 26 27  1  0  0  0  0
 27 17  1  0  0  0  0
 28  1  1  0  0  0  0
 29 28  1  0  0  0  0
 30 29  1  0  0  0  0
 30 31  1  0  0  0  0
 32 30  2  0  0  0  0
M  END
>  <MODEL>
3

>  <REMARK>
 VINA RESULT:      -9.4      2.649      8.420
  Name = 
  5 active torsions:
  status: ('A' for Active; 'I' for Inactive)
    1  A    between atoms: C_1  and  C_10
    2  A    between atoms: C_2  and  O_24
    3  A    between atoms: C_10  and  O_24
    4  A    between atoms: C_13  and  C_15
    5  A    between atoms: O_25  and  C_26
                            x       y       z     vdW  Elec       q    Type
                         _______ _______ _______ _____ _____    ______ ____

>  <TORSDO>
F 5

$$$$
=
 OpenBabel10262421413D

 32 36  0  0  0  0  0  0  0  0999 V2000
  192.7300  176.8420  139.6590 C   0  0  0  0  0  0  0  0  0  0  0  0
  188.9560  177.5490  142.9070 C   0  0  0  0  0  0  0  0  0  0  0  0
  186.5550  178.2070  142.7770 C   0  0  0  0  0  0  0  0  0  0  0  0
  185.3520  178.4720  143.4490 C   0  0  0  0  0  0  0  0  0  0  0  0
  190.2830  177.3660  140.9310 C   0  0  0  0  0  0  0  0  0  0  0  0
  191.2990  176.9340  143.0740 C   0  0  0  0  0  3  0  0  0  0  0  0
  182.9800  178.9900  144.8020 C   0  0  0  0  0  3  0  0  0  0  0  0
  192.6300  176.7550  141.0570 C   0  0  0  0  0  3  0  0  0  0  0  0
  190.0710  177.1950  143.7070 C   0  0  0  0  0  0  0  0  0  0  0  0
  189.9500  177.1140  145.1090 C   0  0  0  0  0  0  0  0  0  0  0  0
  187.6000  177.7390  144.9280 C   0  0  0  0  0  0  0  0  0  0  0  0
  183.0390  179.0930  143.4480 N   0  0  0  0  0  0  0  0  0  0  0  0
  191.6000  177.1910  138.9080 C   0  0  0  0  0  3  0  0  0  0  0  0
  191.4130  177.0160  141.6910 C   0  0  0  0  0  0  0  0  0  0  0  0
  184.1880  178.8450  142.7630 C   0  0  0  0  0  3  0  0  0  0  0  0
  190.3800  177.4520  139.5400 C   0  0  0  0  0  3  0  0  0  0  0  0
  188.6980  177.3650  145.7200 C   0  0  0  0  0  0  0  0  0  0  0  0
  186.4130  178.0020  145.5400 N   0  0  0  0  0  2  0  0  0  0  0  0
  189.1030  177.6190  141.5520 N   0  0  0  0  0  0  0  0  0  0  0  0
  186.5900  178.3070  141.5190 O   0  0  0  0  0  0  0  0  0  0  0  0
  184.1130  178.6210  145.5290 C   0  0  0  0  0  3  0  0  0  0  0  0
  187.7090  177.8320  143.5170 C   0  0  0  0  0  0  0  0  0  0  0  0
  185.3040  178.3620  144.8490 C   0  0  0  0  0  0  0  0  0  0  0  0
  192.0700  176.6170  146.5400 N   0  0  0  0  0  0  0  0  0  0  0  0
  191.1280  176.8400  145.9080 C   0  0  0  0  0  0  0  0  0  0  0  0
  188.8960  178.2590  148.0520 C   0  0  0  0  0  1  0  0  0  0  0  0
  188.4870  177.2770  147.1080 O   0  0  0  0  0  0  0  0  0  0  0  0
  193.9310  176.5880  138.9930 O   0  0  0  0  0  0  0  0  0  0  0  0
  194.2060  175.3480  138.3540 C   0  0  0  0  0  2  0  0  0  0  0  0
  195.2630  174.6230  139.1070 C   0  0  0  0  0  0  0  0  0  0  0  0
  196.0680  175.2610  139.8330 O   0  0  0  0  0  1  0  0  0  0  0  0
  195.3350  173.2390  139.0420 O   0  0  0  0  0  0  0  0  0  0  0  0
  1  8  1  0  0  0  0
  2 22  1  0  0  0  0
  2  9  1  0  0  0  0
  3  4  1  0  0  0  0
  3 22  1  0  0  0  0
  4 23  1  0  0  0  0
  5 19  1  0  0  0  0
  5 14  1  0  0  0  0
  6  9  2  0  0  0  0
  7 21  1  0  0  0  0
  8 14  2  0  0  0  0
  9 10  1  0  0  0  0
 10 17  2  0  0  0  0
 10 25  1  0  0  0  0
 11 18  1  0  0  0  0
 11 17  1  0  0  0  0
 12  7  2  0  0  0  0
 13 16  1  0  0  0  0
 13  1  2  0  0  0  0
 14  6  1  0  0  0  0
 15 12  1  0  0  0  0
 15  4  2  0  0  0  0
 16  5  2  0  0  0  0
 17 27  1  0  0  0  0
 19  2  2  0  0  0  0
 20  3  2  0  0  0  0
 22 11  2  0  0  0  0
 23 21  2  0  0  0  0
 23 18  1  0  0  0  0
 25 24  3  0  0  0  0
 27 26  1  0  0  0  0
 28  1  1  0  0  0  0
 29 28  1  0  0  0  0
 29 30  1  0  0  0  0
 30 31  1  0  0  0  0
 32 30  2  0  0  0  0
M  END
>  <MODEL>
4

>  <REMARK>
 VINA RESULT:      -9.1      3.938      6.489
  Name = 
  5 active torsions:
  status: ('A' for Active; 'I' for Inactive)
    1  A    between atoms: C_1  and  C_10
    2  A    between atoms: C_2  and  O_24
    3  A    between atoms: C_10  and  O_24
    4  A    between atoms: C_13  and  C_15
    5  A    between atoms: O_25  and  C_26
                            x       y       z     vdW  Elec       q    Type
                         _______ _______ _______ _____ _____    ______ ____

>  <TORSDO>
F 5

$$$$
=
 OpenBabel10262421413D

 32 36  0  0  0  0  0  0  0  0999 V2000
  183.0650  178.7270  143.7680 C   0  0  0  0  0  0  0  0  0  0  0  0
  187.9310  177.9080  142.7950 C   0  0  0  0  0  0  0  0  0  0  0  0
  189.3360  177.5470  140.7680 C   0  0  0  0  0  0  0  0  0  0  0  0
  190.6070  177.3080  140.2250 C   0  0  0  0  0  0  0  0  0  0  0  0
  185.5790  178.2710  142.6050 C   0  0  0  0  0  0  0  0  0  0  0  0
  186.5880  178.2250  144.7940 C   0  0  0  0  0  3  0  0  0  0  0  0
  193.1350  176.8340  139.1700 C   0  0  0  0  0  3  0  0  0  0  0  0
  184.2020  178.5900  144.5800 C   0  0  0  0  0  3  0  0  0  0  0  0
  187.8450  177.9980  144.2070 C   0  0  0  0  0  0  0  0  0  0  0  0
  188.9990  177.8580  145.0050 C   0  0  0  0  0  0  0  0  0  0  0  0
  190.3350  177.5320  142.9910 C   0  0  0  0  0  0  0  0  0  0  0  0
  192.0560  176.9520  138.3520 N   0  0  0  0  0  0  0  0  0  0  0  0
  183.1970  178.6350  142.3760 C   0  0  0  0  0  3  0  0  0  0  0  0
  185.4530  178.3630  144.0020 C   0  0  0  0  0  0  0  0  0  0  0  0
  190.8100  177.1840  138.8440 C   0  0  0  0  0  3  0  0  0  0  0  0
  184.4480  178.4080  141.7950 C   0  0  0  0  0  3  0  0  0  0  0  0
  190.2560  177.6470  144.3890 C   0  0  0  0  0  0  0  0  0  0  0  0
  191.5500  177.3030  142.4220 N   0  0  0  0  0  2  0  0  0  0  0  0
  186.7960  178.0480  142.0490 N   0  0  0  0  0  0  0  0  0  0  0  0
  188.3460  177.6550  139.9920 O   0  0  0  0  0  0  0  0  0  0  0  0
  192.9840  176.9500  140.5540 C   0  0  0  0  0  3  0  0  0  0  0  0
  189.1810  177.6650  142.1760 C   0  0  0  0  0  0  0  0  0  0  0  0
  191.7140  177.1870  141.0820 C   0  0  0  0  0  0  0  0  0  0  0  0
  188.7710  177.8670  147.6010 N   0  0  0  0  0  0  0  0  0  0  0  0
  188.8690  177.8640  146.4480 C   0  0  0  0  0  0  0  0  0  0  0  0
  191.7960  176.4160  145.9330 C   0  0  0  0  0  1  0  0  0  0  0  0
  191.4570  177.5240  145.1110 O   0  0  0  0  0  0  0  0  0  0  0  0
  181.7990  178.9560  144.3120 O   0  0  0  0  0  0  0  0  0  0  0  0
  180.6920  179.3810  143.5260 C   0  0  0  0  0  2  0  0  0  0  0  0
  179.7130  178.2700  143.4020 C   0  0  0  0  0  0  0  0  0  0  0  0
  178.9310  178.2260  142.4180 O   0  0  0  0  0  0  0  0  0  0  0  0
  179.6910  177.2570  144.3510 O   0  0  0  0  0  1  0  0  0  0  0  0
  1 28  1  0  0  0  0
  1  8  1  0  0  0  0
  2  9  1  0  0  0  0
  3 22  1  0  0  0  0
  4  3  1  0  0  0  0
  4 23  1  0  0  0  0
  5 14  1  0  0  0  0
  7 21  1  0  0  0  0
  9  6  2  0  0  0  0
  9 10  1  0  0  0  0
 10 25  1  0  0  0  0
 11 17  1  0  0  0  0
 12 15  1  0  0  0  0
 12  7  2  0  0  0  0
 13  1  2  0  0  0  0
 14  8  2  0  0  0  0
 14  6  1  0  0  0  0
 15  4  2  0  0  0  0
 16 13  1  0  0  0  0
 16  5  2  0  0  0  0
 17 10  2  0  0  0  0
 17 27  1  0  0  0  0
 18 11  1  0  0  0  0
 19  5  1  0  0  0  0
 19  2  2  0  0  0  0
 20  3  2  0  0  0  0
 21 23  2  0  0  0  0
 22  2  1  0  0  0  0
 22 11  2  0  0  0  0
 23 18  1  0  0  0  0
 25 24  3  0  0  0  0
 27 26  1  0  0  0  0
 29 28  1  0  0  0  0
 30 29  1  0  0  0  0
 30 32  1  0  0  0  0
 31 30  2  0  0  0  0
M  END
>  <MODEL>
5

>  <REMARK>
 VINA RESULT:      -9.0      2.647      8.658
  Name = 
  5 active torsions:
  status: ('A' for Active; 'I' for Inactive)
    1  A    between atoms: C_1  and  C_10
    2  A    between atoms: C_2  and  O_24
    3  A    between atoms: C_10  and  O_24
    4  A    between atoms: C_13  and  C_15
    5  A    between atoms: O_25  and  C_26
                            x       y       z     vdW  Elec       q    Type
                         _______ _______ _______ _____ _____    ______ ____

>  <TORSDO>
F 5

$$$$
=
 OpenBabel10262421413D

 32 36  0  0  0  0  0  0  0  0999 V2000
  189.1810  177.1730  146.7610 C   0  0  0  0  0  0  0  0  0  0  0  0
  186.7700  178.0850  142.4430 C   0  0  0  0  0  0  0  0  0  0  0  0
  184.4250  178.5660  141.7450 C   0  0  0  0  0  0  0  0  0  0  0  0
  183.5210  178.8350  140.7070 C   0  0  0  0  0  0  0  0  0  0  0  0
  187.3160  177.7390  144.7420 C   0  0  0  0  0  0  0  0  0  0  0  0
  189.0590  177.5890  143.0830 C   0  0  0  0  0  3  0  0  0  0  0  0
  181.7470  179.3700  138.6350 C   0  0  0  0  0  3  0  0  0  0  0  0
  189.5940  177.2400  145.4200 C   0  0  0  0  0  3  0  0  0  0  0  0
  188.1220  177.8750  142.0750 C   0  0  0  0  0  0  0  0  0  0  0  0
  188.5160  177.9460  140.7230 C   0  0  0  0  0  0  0  0  0  0  0  0
  186.2110  178.4360  140.0930 C   0  0  0  0  0  0  0  0  0  0  0  0
  181.3080  179.3040  139.9200 N   0  0  0  0  0  0  0  0  0  0  0  0
  187.8340  177.3910  147.0800 C   0  0  0  0  0  3  0  0  0  0  0  0
  188.6660  177.5210  144.4150 C   0  0  0  0  0  0  0  0  0  0  0  0
  182.1570  179.0440  140.9510 C   0  0  0  0  0  3  0  0  0  0  0  0
  186.9040  177.6740  146.0750 C   0  0  0  0  0  3  0  0  0  0  0  0
  187.5550  178.2530  139.7280 C   0  0  0  0  0  0  0  0  0  0  0  0
  185.3010  178.7020  139.1170 N   0  0  0  0  0  2  0  0  0  0  0  0
  186.4190  178.0100  143.7600 N   0  0  0  0  0  0  0  0  0  0  0  0
  183.9990  178.5100  142.9330 O   0  0  0  0  0  0  0  0  0  0  0  0
  183.0970  179.1680  138.3420 C   0  0  0  0  0  3  0  0  0  0  0  0
  185.8000  178.3600  141.4480 C   0  0  0  0  0  0  0  0  0  0  0  0
  183.9870  178.8990  139.3830 C   0  0  0  0  0  0  0  0  0  0  0  0
  190.9800  177.3860  140.0870 N   0  0  0  0  0  0  0  0  0  0  0  0
  189.8850  177.6370  140.3660 C   0  0  0  0  0  0  0  0  0  0  0  0
  188.8440  179.2580  137.8300 C   0  0  0  0  0  1  0  0  0  0  0  0
  187.8710  178.3690  138.3630 O   0  0  0  0  0  0  0  0  0  0  0  0
  190.0820  176.8940  147.7920 O   0  0  0  0  0  0  0  0  0  0  0  0
  191.4670  177.2010  147.7030 C   0  0  0  0  0  2  0  0  0  0  0  0
  192.2520  175.9400  147.6210 C   0  0  0  0  0  0  0  0  0  0  0  0
  192.8080  175.4770  148.6490 O   0  0  0  0  0  1  0  0  0  0  0  0
  192.3330  175.2520  146.4180 O   0  0  0  0  0  0  0  0  0  0  0  0
  1 13  1  0  0  0  0
  1 28  1  0  0  0  0
  2 19  1  0  0  0  0
  3 20  2  0  0  0  0
  4 15  1  0  0  0  0
  4  3  1  0  0  0  0
  5 16  1  0  0  0  0
  6 14  2  0  0  0  0
  7 12  1  0  0  0  0
  8  1  2  0  0  0  0
  9  2  1  0  0  0  0
  9  6  1  0  0  0  0
 10  9  2  0  0  0  0
 11 22  1  0  0  0  0
 12 15  2  0  0  0  0
 14  5  1  0  0  0  0
 14  8  1  0  0  0  0
 16 13  2  0  0  0  0
 17 11  2  0  0  0  0
 17 10  1  0  0  0  0
 18 23  1  0  0  0  0
 18 11  1  0  0  0  0
 19  5  2  0  0  0  0
 21  7  2  0  0  0  0
 21 23  1  0  0  0  0
 22  3  1  0  0  0  0
 22  2  2  0  0  0  0
 23  4  2  0  0  0  0
 24 25  3  0  0  0  0
 25 10  1  0  0  0  0
 26 27  1  0  0  0  0
 27 17  1  0  0  0  0
 29 28  1  0  0  0  0
 30 29  1  0  0  0  0
 30 31  1  0  0  0  0
 32 30  2  0  0  0  0
M  END
>  <MODEL>
6

>  <REMARK>
 VINA RESULT:      -8.8      1.455      2.032
  Name = 
  5 active torsions:
  status: ('A' for Active; 'I' for Inactive)
    1  A    between atoms: C_1  and  C_10
    2  A    between atoms: C_2  and  O_24
    3  A    between atoms: C_10  and  O_24
    4  A    between atoms: C_13  and  C_15
    5  A    between atoms: O_25  and  C_26
                            x       y       z     vdW  Elec       q    Type
                         _______ _______ _______ _____ _____    ______ ____

>  <TORSDO>
F 5

$$$$
=
 OpenBabel10262421413D

 32 36  0  0  0  0  0  0  0  0999 V2000
  191.5630  177.1900  139.7580 C   0  0  0  0  0  0  0  0  0  0  0  0
  187.3210  177.8770  142.3700 C   0  0  0  0  0  0  0  0  0  0  0  0
  184.9480  178.4380  141.8540 C   0  0  0  0  0  0  0  0  0  0  0  0
  183.6500  178.6830  142.3260 C   0  0  0  0  0  0  0  0  0  0  0  0
  188.9370  177.6690  140.6250 C   0  0  0  0  0  0  0  0  0  0  0  0
  189.6310  177.3590  142.9120 C   0  0  0  0  0  3  0  0  0  0  0  0
  181.0850  179.1620  143.2850 C   0  0  0  0  0  3  0  0  0  0  0  0
  191.2560  177.1530  141.1280 C   0  0  0  0  0  3  0  0  0  0  0  0
  188.3140  177.5970  143.3420 C   0  0  0  0  0  0  0  0  0  0  0  0
  187.9850  177.5640  144.7130 C   0  0  0  0  0  0  0  0  0  0  0  0
  185.6700  178.0930  144.1560 C   0  0  0  0  0  0  0  0  0  0  0  0
  181.3450  179.2150  141.9520 N   0  0  0  0  0  0  0  0  0  0  0  0
  190.5500  177.4670  138.8310 C   0  0  0  0  0  3  0  0  0  0  0  0
  189.9500  177.3920  141.5600 C   0  0  0  0  0  0  0  0  0  0  0  0
  182.5920  178.9850  141.4590 C   0  0  0  0  0  3  0  0  0  0  0  0
  189.2400  177.7050  139.2610 C   0  0  0  0  0  3  0  0  0  0  0  0
  186.6470  177.7910  145.1180 C   0  0  0  0  0  0  0  0  0  0  0  0
  184.3970  178.3340  144.5710 N   0  0  0  0  0  2  0  0  0  0  0  0
  187.6700  177.9010  141.0510 N   0  0  0  0  0  0  0  0  0  0  0  0
  185.1700  178.4920  140.6120 O   0  0  0  0  0  0  0  0  0  0  0  0
  182.1070  178.8650  144.1890 C   0  0  0  0  0  3  0  0  0  0  0  0
  185.9890  178.1360  142.7740 C   0  0  0  0  0  0  0  0  0  0  0  0
  183.3940  178.6250  143.7070 C   0  0  0  0  0  0  0  0  0  0  0  0
  189.8760  177.2150  146.4710 N   0  0  0  0  0  0  0  0  0  0  0  0
  189.0360  177.3660  145.6900 C   0  0  0  0  0  0  0  0  0  0  0  0
  186.3670  178.8220  147.3840 C   0  0  0  0  0  1  0  0  0  0  0  0
  186.2320  177.7490  146.4620 O   0  0  0  0  0  0  0  0  0  0  0  0
  192.8590  176.9570  139.2900 O   0  0  0  0  0  0  0  0  0  0  0  0
  193.1270  176.5090  137.9680 C   0  0  0  0  0  2  0  0  0  0  0  0
  193.1030  175.0230  137.9310 C   0  0  0  0  0  0  0  0  0  0  0  0
  192.0070  174.4130  137.8350 O   0  0  0  0  0  0  0  0  0  0  0  0
  194.2930  174.3090  137.9590 O   0  0  0  0  0  1  0  0  0  0  0  0
  1  8  1  0  0  0  0
  2 22  1  0  0  0  0
  2  9  1  0  0  0  0
  3  4  1  0  0  0  0
  3 22  1  0  0  0  0
  4 23  1  0  0  0  0
  5 19  1  0  0  0  0
  5 14  1  0  0  0  0
  6  9  2  0  0  0  0
  7 21  1  0  0  0  0
  8 14  2  0  0  0  0
  9 10  1  0  0  0  0
 10 17  2  0  0  0  0
 10 25  1  0  0  0  0
 11 18  1  0  0  0  0
 11 17  1  0  0  0  0
 12  7  2  0  0  0  0
 13 16  1  0  0  0  0
 13  1  2  0  0  0  0
 14  6  1  0  0  0  0
 15 12  1  0  0  0  0
 15  4  2  0  0  0  0
 16  5  2  0  0  0  0
 17 27  1  0  0  0  0
 19  2  2  0  0  0  0
 20  3  2  0  0  0  0
 22 11  2  0  0  0  0
 23 21  2  0  0  0  0
 23 18  1  0  0  0  0
 25 24  3  0  0  0  0
 27 26  1  0  0  0  0
 28  1  1  0  0  0  0
 29 28  1  0  0  0  0
 30 32  1  0  0  0  0
 30 29  1  0  0  0  0
 31 30  2  0  0  0  0
M  END
>  <MODEL>
7

>  <REMARK>
 VINA RESULT:      -8.8      3.444      5.788
  Name = 
  5 active torsions:
  status: ('A' for Active; 'I' for Inactive)
    1  A    between atoms: C_1  and  C_10
    2  A    between atoms: C_2  and  O_24
    3  A    between atoms: C_10  and  O_24
    4  A    between atoms: C_13  and  C_15
    5  A    between atoms: O_25  and  C_26
                            x       y       z     vdW  Elec       q    Type
                         _______ _______ _______ _____ _____    ______ ____

>  <TORSDO>
F 5

$$$$
=
 OpenBabel10262421413D

 32 36  0  0  0  0  0  0  0  0999 V2000
  190.9210  176.6930  146.6930 C   0  0  0  0  0  0  0  0  0  0  0  0
  188.5630  177.6680  142.3590 C   0  0  0  0  0  0  0  0  0  0  0  0
  189.1500  177.6580  139.9360 C   0  0  0  0  0  0  0  0  0  0  0  0
  188.7450  177.8690  138.6100 C   0  0  0  0  0  0  0  0  0  0  0  0
  190.1790  177.0730  144.0120 C   0  0  0  0  0  0  0  0  0  0  0  0
  187.9650  177.7190  144.7120 C   0  0  0  0  0  3  0  0  0  0  0  0
  187.9210  178.2920  135.9890 C   0  0  0  0  0  3  0  0  0  0  0  0
  189.6190  177.1130  146.3750 C   0  0  0  0  0  3  0  0  0  0  0  0
  187.5960  177.9060  143.3680 C   0  0  0  0  0  0  0  0  0  0  0  0
  186.2940  178.3280  143.0280 C   0  0  0  0  0  0  0  0  0  0  0  0
  186.9100  178.2800  140.6690 C   0  0  0  0  0  0  0  0  0  0  0  0
  189.1930  177.8930  136.2570 N   0  0  0  0  0  0  0  0  0  0  0  0
  191.8430  176.4660  145.6620 C   0  0  0  0  0  3  0  0  0  0  0  0
  189.2500  177.3030  145.0420 C   0  0  0  0  0  0  0  0  0  0  0  0
  189.6200  177.6800  137.5310 C   0  0  0  0  0  3  0  0  0  0  0  0
  191.4750  176.6540  144.3270 C   0  0  0  0  0  3  0  0  0  0  0  0
  185.9440  178.4920  141.6660 C   0  0  0  0  0  0  0  0  0  0  0  0
  186.5590  178.4710  139.3690 N   0  0  0  0  0  2  0  0  0  0  0  0
  189.8150  177.2610  142.7190 N   0  0  0  0  0  0  0  0  0  0  0  0
  190.3350  177.2870  140.1650 O   0  0  0  0  0  0  0  0  0  0  0  0
  187.0130  178.4930  137.0310 C   0  0  0  0  0  3  0  0  0  0  0  0
  188.2260  177.8630  140.9970 C   0  0  0  0  0  0  0  0  0  0  0  0
  187.4280  178.2810  138.3460 C   0  0  0  0  0  0  0  0  0  0  0  0
  184.6020  178.9040  144.9240 N   0  0  0  0  0  0  0  0  0  0  0  0
  185.3560  178.6510  144.0830 C   0  0  0  0  0  0  0  0  0  0  0  0
  183.5760  177.9920  141.0220 C   0  0  0  0  0  1  0  0  0  0  0  0
  184.6610  178.8830  141.2430 O   0  0  0  0  0  0  0  0  0  0  0  0
  191.3250  176.4940  148.0150 O   0  0  0  0  0  0  0  0  0  0  0  0
  192.6340  176.0580  148.3590 C   0  0  0  0  0  2  0  0  0  0  0  0
  193.2550  177.0350  149.2910 C   0  0  0  0  0  0  0  0  0  0  0  0
  192.6550  178.1040  149.5740 O   0  0  0  0  0  0  0  0  0  0  0  0
  194.4780  176.7490  149.8820 O   0  0  0  0  0  1  0  0  0  0  0  0
  1 28  1  0  0  0  0
  2 19  2  0  0  0  0
  2  9  1  0  0  0  0
  3 20  2  0  0  0  0
  3 22  1  0  0  0  0
  4  3  1  0  0  0  0
  5 16  2  0  0  0  0
  5 14  1  0  0  0  0
  6 14  1  0  0  0  0
  7 12  2  0  0  0  0
  7 21  1  0  0  0  0
  8  1  1  0  0  0  0
  9  6  2  0  0  0  0
 10  9  1  0  0  0  0
 10 25  1  0  0  0  0
 11 22  2  0  0  0  0
 11 17  1  0  0  0  0
 12 15  1  0  0  0  0
 13  1  2  0  0  0  0
 14  8  2  0  0  0  0
 15  4  2  0  0  0  0
 16 13  1  0  0  0  0
 17 10  2  0  0  0  0
 18 11  1  0  0  0  0
 19  5  1  0  0  0  0
 21 23  2  0  0  0  0
 22  2  1  0  0  0  0
 23  4  1  0  0  0  0
 23 18  1  0  0  0  0
 25 24  3  0  0  0  0
 26 27  1  0  0  0  0
 27 17  1  0  0  0  0
 28 29  1  0  0  0  0
 29 30  1  0  0  0  0
 30 31  2  0  0  0  0
 30 32  1  0  0  0  0
M  END
>  <MODEL>
8

>  <REMARK>
 VINA RESULT:      -8.6      2.300      5.302
  Name = 
  5 active torsions:
  status: ('A' for Active; 'I' for Inactive)
    1  A    between atoms: C_1  and  C_10
    2  A    between atoms: C_2  and  O_24
    3  A    between atoms: C_10  and  O_24
    4  A    between atoms: C_13  and  C_15
    5  A    between atoms: O_25  and  C_26
                            x       y       z     vdW  Elec       q    Type
                         _______ _______ _______ _____ _____    ______ ____

>  <TORSDO>
F 5

$$$$
=
 OpenBabel10262421413D

 32 36  0  0  0  0  0  0  0  0999 V2000
  190.1930  177.1270  145.9040 C   0  0  0  0  0  0  0  0  0  0  0  0
  189.4640  177.2840  140.9300 C   0  0  0  0  0  0  0  0  0  0  0  0
  190.7380  176.6230  138.8920 C   0  0  0  0  0  0  0  0  0  0  0  0
  190.7950  176.5510  137.4920 C   0  0  0  0  0  0  0  0  0  0  0  0
  190.3720  176.9280  143.1100 C   0  0  0  0  0  0  0  0  0  0  0  0
  188.2080  177.9680  142.8930 C   0  0  0  0  0  3  0  0  0  0  0  0
  190.8870  176.4180  134.7170 C   0  0  0  0  0  3  0  0  0  0  0  0
  189.1470  177.6010  145.0960 C   0  0  0  0  0  3  0  0  0  0  0  0
  188.3010  177.8650  141.4940 C   0  0  0  0  0  0  0  0  0  0  0  0
  187.2610  178.3360  140.6650 C   0  0  0  0  0  0  0  0  0  0  0  0
  188.5360  177.6510  138.7020 C   0  0  0  0  0  0  0  0  0  0  0  0
  191.9240  175.9560  135.4650 N   0  0  0  0  0  0  0  0  0  0  0  0
  191.3230  176.5550  145.3040 C   0  0  0  0  0  3  0  0  0  0  0  0
  189.2360  177.5030  143.7050 C   0  0  0  0  0  0  0  0  0  0  0  0
  191.9030  176.0110  136.8240 C   0  0  0  0  0  3  0  0  0  0  0  0
  191.4140  176.4550  143.9120 C   0  0  0  0  0  3  0  0  0  0  0  0
  187.3720  178.2040  139.2600 C   0  0  0  0  0  0  0  0  0  0  0  0
  188.6320  177.5600  137.3480 N   0  0  0  0  0  2  0  0  0  0  0  0
  190.4530  176.8380  141.7580 N   0  0  0  0  0  0  0  0  0  0  0  0
  191.7100  176.1880  139.5700 O   0  0  0  0  0  0  0  0  0  0  0  0
  189.7620  176.9660  135.3370 C   0  0  0  0  0  3  0  0  0  0  0  0
  189.5930  177.1800  139.5240 C   0  0  0  0  0  0  0  0  0  0  0  0
  189.7170  177.0320  136.7300 C   0  0  0  0  0  0  0  0  0  0  0  0
  185.2230  179.5460  141.7480 N   0  0  0  0  0  0  0  0  0  0  0  0
  186.1260  179.0070  141.2640 C   0  0  0  0  0  0  0  0  0  0  0  0
  185.2360  177.8460  138.0010 C   0  0  0  0  0  1  0  0  0  0  0  0
  186.3700  178.6220  138.3660 O   0  0  0  0  0  0  0  0  0  0  0  0
  190.1380  177.2080  147.2980 O   0  0  0  0  0  0  0  0  0  0  0  0
  189.4400  178.2430  147.9780 C   0  0  0  0  0  2  0  0  0  0  0  0
  188.0270  177.8340  148.1920 C   0  0  0  0  0  0  0  0  0  0  0  0
  187.7670  176.7850  148.8350 O   0  0  0  0  0  1  0  0  0  0  0  0
  186.9950  178.6320  147.7190 O   0  0  0  0  0  0  0  0  0  0  0  0
  1 28  1  0  0  0  0
  2  9  1  0  0  0  0
  2 19  1  0  0  0  0
  3 22  1  0  0  0  0
  3 20  2  0  0  0  0
  4  3  1  0  0  0  0
  5 14  1  0  0  0  0
  5 16  1  0  0  0  0
  6 14  2  0  0  0  0
  7 21  2  0  0  0  0
  7 12  1  0  0  0  0
  8  1  2  0  0  0  0
  9  6  1  0  0  0  0
 10 25  1  0  0  0  0
 10  9  2  0  0  0  0
 11 17  2  0  0  0  0
 11 22  1  0  0  0  0
 12 15  2  0  0  0  0
 13  1  1  0  0  0  0
 14  8  1  0  0  0  0
 15  4  1  0  0  0  0
 16 13  2  0  0  0  0
 17 10  1  0  0  0  0
 18 11  1  0  0  0  0
 19  5  2  0  0  0  0
 21 23  1  0  0  0  0
 22  2  2  0  0  0  0
 23 18  1  0  0  0  0
 23  4  2  0  0  0  0
 25 24  3  0  0  0  0
 26 27  1  0  0  0  0
 27 17  1  0  0  0  0
 28 29  1  0  0  0  0
 29 30  1  0  0  0  0
 30 31  1  0  0  0  0
 32 30  2  0  0  0  0
M  END
>  <MODEL>
9

>  <REMARK>
 VINA RESULT:      -8.4      3.152      6.701
  Name = 
  5 active torsions:
  status: ('A' for Active; 'I' for Inactive)
    1  A    between atoms: C_1  and  C_10
    2  A    between atoms: C_2  and  O_24
    3  A    between atoms: C_10  and  O_24
    4  A    between atoms: C_13  and  C_15
    5  A    between atoms: O_25  and  C_26
                            x       y       z     vdW  Elec       q    Type
                         _______ _______ _______ _____ _____    ______ ____

>  <TORSDO>
F 5

$$$$
