=
 OpenBabel10262421593D

 30 34  0  0  1  0  0  0  0  0999 V2000
  187.6800  178.4800  140.3480 C   0  0  1  0  0  3  0  0  0  0  0  0
  185.5810  178.0070  138.0210 C   0  0  0  0  0  2  0  0  0  0  0  0
  186.5630  178.7650  141.0380 C   0  0  2  0  0  3  0  0  0  0  0  0
  188.8030  177.6900  140.9930 C   0  0  0  0  0  2  0  0  0  0  0  0
  187.3370  177.0620  144.3820 C   0  0  0  0  0  2  0  0  0  0  0  0
  187.3760  177.7100  143.0530 C   0  0  0  0  0  0  0  0  0  0  0  0
  189.5590  176.9030  143.3030 C   0  0  0  0  0  2  0  0  0  0  0  0
  183.5410  178.5620  141.1910 O   0  0  0  0  0  0  0  0  0  0  0  0
  184.5620  177.6500  139.1120 C   0  0  2  0  0  3  0  0  0  0  0  0
  188.6490  177.6360  142.4470 N   0  0  0  0  0  0  0  0  0  0  0  0
  186.3370  178.2210  142.3900 C   0  0  0  0  0  0  0  0  0  0  0  0
  184.0950  177.5420  141.8380 O   0  0  0  0  0  0  0  0  0  0  0  0
  189.3950  177.3620  145.7460 C   0  0  0  0  0  1  0  0  0  0  0  0
  186.8580  177.5140  138.3440 O   0  0  0  0  0  0  0  0  0  0  0  0
  188.7800  176.5980  144.5920 C   0  0  1  0  0  3  0  0  0  0  0  0
  187.6000  178.6010  138.8440 C   0  0  2  0  0  3  0  0  0  0  0  0
  185.5430  179.4810  140.4130 O   0  0  0  0  0  0  0  0  0  0  0  0
  183.3570  177.2820  138.5170 O   0  0  0  0  0  1  0  0  0  0  0  0
  184.3250  178.8500  140.0480 C   0  0  2  0  0  3  0  0  0  0  0  0
  184.9260  178.0440  142.8760 C   0  0  2  0  0  3  0  0  0  0  0  0
  188.9740  178.6720  138.1780 C   0  0  2  0  0  3  0  0  0  0  0  0
  189.0370  179.7900  137.3410 O   0  0  0  0  0  1  0  0  0  0  0  0
  189.2280  177.4160  137.3580 C   0  0  0  0  0  2  0  0  0  0  0  0
  190.5460  176.7830  137.7590 C   0  0  0  0  0  3  0  0  0  0  0  0
  191.1550  176.1020  136.5510 C   0  0  0  0  0  2  0  0  0  0  0  0
  190.4430  175.2800  137.6030 C   0  0  0  0  0  2  0  0  0  0  0  0
  184.3780  179.2240  143.6320 C   0  0  0  0  0  0  0  0  0  0  0  0
  184.8790  180.3720  143.4760 O   0  0  0  0  0  0  0  0  0  0  0  0
  181.9900  178.9480  144.0710 C   0  0  0  0  0  2  0  0  0  0  0  0
  183.2350  179.0210  144.5260 C   0  0  0  0  0  3  0  0  0  0  0  0
  1  4  1  6  0  0  0
  1  3  1  0  0  0  0
  2 14  1  0  0  0  0
  2  9  1  0  0  0  0
  3 17  1  6  0  0  0
  3 11  1  0  0  0  0
  4 10  1  0  0  0  0
  5 15  1  0  0  0  0
  6  5  1  0  0  0  0
  7 15  1  0  0  0  0
  8 12  1  0  0  0  0
  9 18  1  6  0  0  0
  9 19  1  0  0  0  0
 10  6  1  0  0  0  0
 10  7  1  0  0  0  0
 11 20  1  0  0  0  0
 11  6  2  0  0  0  0
 12 20  1  0  0  0  0
 14 16  1  0  0  0  0
 15 13  1  1  0  0  0
 16 21  1  6  0  0  0
 16  1  1  0  0  0  0
 19 17  1  1  0  0  0
 19  8  1  0  0  0  0
 20 27  1  6  0  0  0
 21 22  1  6  0  0  0
 23 24  1  0  0  0  0
 23 21  1  0  0  0  0
 25 26  1  0  0  0  0
 25 24  1  0  0  0  0
 26 24  1  0  0  0  0
 27 30  1  0  0  0  0
 28 27  2  0  0  0  0
 29 30  2  0  0  0  0
M  END
>  <MODEL>
1

>  <REMARK>
 VINA RESULT:      -7.8      0.000      0.000
  Name = 
  5 active torsions:
  status: ('A' for Active; 'I' for Inactive)
    1  A    between atoms: C_2  and  C_14
    2  A    between atoms: C_2  and  C_22
    3  A    between atoms: C_7  and  C_26
    4  A    between atoms: C_7  and  C_30
    5  A    between atoms: C_14  and  C_20
                            x       y       z     vdW  Elec       q    Type
                         _______ _______ _______ _____ _____    ______ ____

>  <TORSDO>
F 5

$$$$
=
 OpenBabel10262421593D

 30 34  0  0  1  0  0  0  0  0999 V2000
  188.2150  178.5300  141.0400 C   0  0  1  0  0  3  0  0  0  0  0  0
  190.7810  176.7000  140.7010 C   0  0  0  0  0  2  0  0  0  0  0  0
  188.2430  178.4860  139.6970 C   0  0  2  0  0  3  0  0  0  0  0  0
  186.8970  178.4470  141.7860 C   0  0  0  0  0  2  0  0  0  0  0  0
  184.5110  178.0960  138.9190 C   0  0  0  0  0  2  0  0  0  0  0  0
  185.8360  178.3670  139.5160 C   0  0  0  0  0  0  0  0  0  0  0  0
  184.3870  178.6120  141.3370 C   0  0  0  0  0  2  0  0  0  0  0  0
  189.3010  177.1040  137.2140 O   0  0  0  0  0  0  0  0  0  0  0  0
  190.1780  176.2260  139.3720 C   0  0  2  0  0  3  0  0  0  0  0  0
  185.7630  178.6810  140.8910 N   0  0  0  0  0  0  0  0  0  0  0  0
  187.0190  178.2340  138.9120 C   0  0  0  0  0  0  0  0  0  0  0  0
  188.1250  176.5850  137.5510 O   0  0  0  0  0  0  0  0  0  0  0  0
  182.6690  179.5280  139.7820 C   0  0  0  0  0  1  0  0  0  0  0  0
  189.7810  176.8670  141.6770 O   0  0  0  0  0  0  0  0  0  0  0  0
  183.5450  178.3290  140.0830 C   0  0  1  0  0  3  0  0  0  0  0  0
  189.5140  178.2470  141.7560 C   0  0  2  0  0  3  0  0  0  0  0  0
  189.4710  178.5500  139.0400 O   0  0  0  0  0  0  0  0  0  0  0  0
  191.0130  175.2670  138.8020 O   0  0  0  0  0  1  0  0  0  0  0  0
  190.0160  177.4080  138.3970 C   0  0  2  0  0  3  0  0  0  0  0  0
  187.1440  177.6150  137.5490 C   0  0  2  0  0  3  0  0  0  0  0  0
  189.5070  178.7160  143.2110 C   0  0  2  0  0  3  0  0  0  0  0  0
  190.7360  179.3030  143.5260 O   0  0  0  0  0  1  0  0  0  0  0  0
  189.2590  177.5390  144.1420 C   0  0  0  0  0  2  0  0  0  0  0  0
  189.2940  177.9950  145.5890 C   0  0  0  0  0  3  0  0  0  0  0  0
  189.5810  176.8010  146.4750 C   0  0  0  0  0  2  0  0  0  0  0  0
  188.1670  177.3260  146.3470 C   0  0  0  0  0  2  0  0  0  0  0  0
  187.2500  178.6080  136.4240 C   0  0  0  0  0  0  0  0  0  0  0  0
  187.6100  179.7960  136.6510 O   0  0  0  0  0  0  0  0  0  0  0  0
  186.0920  177.1880  134.8080 C   0  0  0  0  0  2  0  0  0  0  0  0
  186.9570  178.1620  135.0580 C   0  0  0  0  0  3  0  0  0  0  0  0
  1 16  1  0  0  0  0
  1  4  1  1  0  0  0
  2 14  1  0  0  0  0
  3 11  1  1  0  0  0
  3  1  1  0  0  0  0
  5  6  1  0  0  0  0
  5 15  1  0  0  0  0
  6 10  1  0  0  0  0
  8 12  1  0  0  0  0
  9 18  1  6  0  0  0
  9  2  1  0  0  0  0
 10  7  1  0  0  0  0
 10  4  1  0  0  0  0
 11  6  2  0  0  0  0
 14 16  1  0  0  0  0
 15 13  1  6  0  0  0
 15  7  1  0  0  0  0
 16 21  1  1  0  0  0
 17  3  1  0  0  0  0
 19  8  1  6  0  0  0
 19 17  1  0  0  0  0
 19  9  1  0  0  0  0
 20 27  1  6  0  0  0
 20 12  1  0  0  0  0
 20 11  1  0  0  0  0
 21 22  1  1  0  0  0
 21 23  1  0  0  0  0
 23 24  1  0  0  0  0
 24 26  1  0  0  0  0
 24 25  1  0  0  0  0
 26 25  1  0  0  0  0
 27 28  2  0  0  0  0
 29 30  2  0  0  0  0
 30 27  1  0  0  0  0
M  END
>  <MODEL>
2

>  <REMARK>
 VINA RESULT:      -7.1      2.781      6.553
  Name = 
  5 active torsions:
  status: ('A' for Active; 'I' for Inactive)
    1  A    between atoms: C_2  and  C_14
    2  A    between atoms: C_2  and  C_22
    3  A    between atoms: C_7  and  C_26
    4  A    between atoms: C_7  and  C_30
    5  A    between atoms: C_14  and  C_20
                            x       y       z     vdW  Elec       q    Type
                         _______ _______ _______ _____ _____    ______ ____

>  <TORSDO>
F 5

$$$$
=
 OpenBabel10262421593D

 30 34  0  0  1  0  0  0  0  0999 V2000
  185.6490  178.6050  140.8800 C   0  0  1  0  0  3  0  0  0  0  0  0
  188.0280  177.7010  142.7700 C   0  0  0  0  0  2  0  0  0  0  0  0
  186.6280  178.5870  139.9600 C   0  0  2  0  0  3  0  0  0  0  0  0
  184.2620  178.0940  140.5390 C   0  0  0  0  0  2  0  0  0  0  0  0
  184.7820  177.0270  136.9860 C   0  0  0  0  0  2  0  0  0  0  0  0
  185.1800  177.7030  138.2400 C   0  0  0  0  0  0  0  0  0  0  0  0
  182.8680  177.4490  138.4980 C   0  0  0  0  0  2  0  0  0  0  0  0
  189.4150  177.6460  139.2220 O   0  0  0  0  0  0  0  0  0  0  0  0
  188.6770  177.0730  141.5290 C   0  0  2  0  0  3  0  0  0  0  0  0
  184.0840  177.9610  139.0930 N   0  0  0  0  0  0  0  0  0  0  0  0
  186.4270  177.9640  138.6380 C   0  0  0  0  0  0  0  0  0  0  0  0
  188.5130  176.7730  138.7830 O   0  0  0  0  0  0  0  0  0  0  0  0
  182.6080  177.7810  136.0420 C   0  0  0  0  0  1  0  0  0  0  0  0
  186.6320  177.5260  142.7500 O   0  0  0  0  0  0  0  0  0  0  0  0
  183.2600  176.9240  137.1080 C   0  0  1  0  0  3  0  0  0  0  0  0
  186.0750  178.7460  142.3230 C   0  0  2  0  0  3  0  0  0  0  0  0
  187.8960  179.0490  140.3080 O   0  0  0  0  0  0  0  0  0  0  0  0
  189.8620  176.4390  141.8990 O   0  0  0  0  0  1  0  0  0  0  0  0
  188.9830  178.1510  140.4720 C   0  0  2  0  0  3  0  0  0  0  0  0
  187.6200  177.4330  137.8950 C   0  0  2  0  0  3  0  0  0  0  0  0
  184.9300  179.1720  143.2430 C   0  0  2  0  0  3  0  0  0  0  0  0
  185.0990  180.5060  143.6230 O   0  0  0  0  0  1  0  0  0  0  0  0
  184.9000  178.2960  144.4860 C   0  0  0  0  0  2  0  0  0  0  0  0
  185.5070  179.0320  145.6650 C   0  0  0  0  0  3  0  0  0  0  0  0
  186.5370  178.1420  146.3260 C   0  0  0  0  0  2  0  0  0  0  0  0
  185.1630  178.2940  146.9420 C   0  0  0  0  0  2  0  0  0  0  0  0
  188.2540  178.4200  136.9530 C   0  0  0  0  0  0  0  0  0  0  0  0
  188.1230  179.6610  137.1430 O   0  0  0  0  0  0  0  0  0  0  0  0
  188.6790  176.8470  135.1330 C   0  0  0  0  0  2  0  0  0  0  0  0
  189.0480  177.9140  135.8300 C   0  0  0  0  0  3  0  0  0  0  0  0
  1  4  1  1  0  0  0
  1 16  1  0  0  0  0
  3 11  1  1  0  0  0
  3 17  1  0  0  0  0
  3  1  1  0  0  0  0
  5 15  1  0  0  0  0
  5  6  1  0  0  0  0
  6 11  2  0  0  0  0
  6 10  1  0  0  0  0
  7 10  1  0  0  0  0
  9 18  1  1  0  0  0
  9  2  1  0  0  0  0
 10  4  1  0  0  0  0
 12  8  1  0  0  0  0
 14  2  1  0  0  0  0
 15 13  1  6  0  0  0
 15  7  1  0  0  0  0
 16 14  1  0  0  0  0
 16 21  1  1  0  0  0
 17 19  1  0  0  0  0
 19  8  1  6  0  0  0
 19  9  1  0  0  0  0
 20 27  1  1  0  0  0
 20 11  1  0  0  0  0
 20 12  1  0  0  0  0
 21 22  1  1  0  0  0
 21 23  1  0  0  0  0
 23 24  1  0  0  0  0
 24 25  1  0  0  0  0
 24 26  1  0  0  0  0
 25 26  1  0  0  0  0
 27 28  2  0  0  0  0
 29 30  2  0  0  0  0
 30 27  1  0  0  0  0
M  END
>  <MODEL>
3

>  <REMARK>
 VINA RESULT:      -6.9      2.330      7.266
  Name = 
  5 active torsions:
  status: ('A' for Active; 'I' for Inactive)
    1  A    between atoms: C_2  and  C_14
    2  A    between atoms: C_2  and  C_22
    3  A    between atoms: C_7  and  C_26
    4  A    between atoms: C_7  and  C_30
    5  A    between atoms: C_14  and  C_20
                            x       y       z     vdW  Elec       q    Type
                         _______ _______ _______ _____ _____    ______ ____

>  <TORSDO>
F 5

$$$$
=
 OpenBabel10262421593D

 30 34  0  0  1  0  0  0  0  0999 V2000
  187.9110  178.1830  140.5580 C   0  0  1  0  0  3  0  0  0  0  0  0
  188.6540  176.5240  137.9610 C   0  0  0  0  0  2  0  0  0  0  0  0
  186.8500  178.5190  139.8060 C   0  0  2  0  0  3  0  0  0  0  0  0
  187.7460  177.8920  142.0380 C   0  0  0  0  0  2  0  0  0  0  0  0
  184.0490  178.3630  142.4170 C   0  0  0  0  0  2  0  0  0  0  0  0
  185.3290  178.4550  141.6830 C   0  0  0  0  0  0  0  0  0  0  0  0
  186.0210  178.1750  143.9010 C   0  0  0  0  0  2  0  0  0  0  0  0
  185.1480  177.8940  137.3760 O   0  0  0  0  0  0  0  0  0  0  0  0
  187.1490  176.4440  137.6710 C   0  0  2  0  0  3  0  0  0  0  0  0
  186.4540  178.3680  142.5330 N   0  0  0  0  0  0  0  0  0  0  0  0
  185.4810  178.4980  140.3580 C   0  0  0  0  0  0  0  0  0  0  0  0
  184.6350  177.3010  138.4490 O   0  0  0  0  0  0  0  0  0  0  0  0
  184.0360  179.4920  144.6330 C   0  0  0  0  0  1  0  0  0  0  0  0
  188.9070  176.4080  139.3410 O   0  0  0  0  0  0  0  0  0  0  0  0
  184.4870  178.2570  143.8800 C   0  0  1  0  0  3  0  0  0  0  0  0
  189.1430  177.7090  139.8220 C   0  0  2  0  0  3  0  0  0  0  0  0
  187.0310  178.7660  138.4470 O   0  0  0  0  0  0  0  0  0  0  0  0
  186.9400  175.6850  136.5210 O   0  0  0  0  0  1  0  0  0  0  0  0
  186.5600  177.8530  137.4680 C   0  0  2  0  0  3  0  0  0  0  0  0
  184.3240  178.2890  139.4230 C   0  0  2  0  0  3  0  0  0  0  0  0
  190.4040  177.7490  140.6850 C   0  0  2  0  0  3  0  0  0  0  0  0
  191.5330  177.5580  139.8830 O   0  0  0  0  0  1  0  0  0  0  0  0
  190.3510  176.6600  141.7450 C   0  0  0  0  0  2  0  0  0  0  0  0
  191.2610  177.0100  142.9070 C   0  0  0  0  0  3  0  0  0  0  0  0
  191.5600  175.7530  143.6970 C   0  0  0  0  0  2  0  0  0  0  0  0
  190.5330  176.7400  144.2080 C   0  0  0  0  0  2  0  0  0  0  0  0
  183.7210  179.5590  138.8880 C   0  0  0  0  0  0  0  0  0  0  0  0
  184.3910  180.6290  138.8750 O   0  0  0  0  0  0  0  0  0  0  0  0
  181.4490  180.4350  138.6870 C   0  0  0  0  0  2  0  0  0  0  0  0
  182.3560  179.5240  138.3560 C   0  0  0  0  0  3  0  0  0  0  0  0
  1  4  1  1  0  0  0
  2 14  1  0  0  0  0
  3 17  1  6  0  0  0
  3 11  1  0  0  0  0
  3  1  1  0  0  0  0
  4 10  1  0  0  0  0
  5 15  1  0  0  0  0
  6  5  1  0  0  0  0
  6 10  1  0  0  0  0
  8 12  1  0  0  0  0
  9 18  1  6  0  0  0
  9  2  1  0  0  0  0
 10  7  1  0  0  0  0
 11  6  2  0  0  0  0
 12 20  1  0  0  0  0
 14 16  1  0  0  0  0
 15  7  1  0  0  0  0
 15 13  1  1  0  0  0
 16  1  1  0  0  0  0
 16 21  1  1  0  0  0
 19  8  1  1  0  0  0
 19  9  1  0  0  0  0
 19 17  1  0  0  0  0
 20 27  1  6  0  0  0
 20 11  1  0  0  0  0
 21 22  1  6  0  0  0
 21 23  1  0  0  0  0
 23 24  1  0  0  0  0
 24 25  1  0  0  0  0
 24 26  1  0  0  0  0
 25 26  1  0  0  0  0
 28 27  2  0  0  0  0
 30 29  2  0  0  0  0
 30 27  1  0  0  0  0
M  END
>  <MODEL>
4

>  <REMARK>
 VINA RESULT:      -6.8      1.963      4.115
  Name = 
  5 active torsions:
  status: ('A' for Active; 'I' for Inactive)
    1  A    between atoms: C_2  and  C_14
    2  A    between atoms: C_2  and  C_22
    3  A    between atoms: C_7  and  C_26
    4  A    between atoms: C_7  and  C_30
    5  A    between atoms: C_14  and  C_20
                            x       y       z     vdW  Elec       q    Type
                         _______ _______ _______ _____ _____    ______ ____

>  <TORSDO>
F 5

$$$$
=
 OpenBabel10262421593D

 30 34  0  0  1  0  0  0  0  0999 V2000
  188.3480  177.3320  142.1500 C   0  0  1  0  0  3  0  0  0  0  0  0
  191.4780  177.7540  142.4100 C   0  0  0  0  0  2  0  0  0  0  0  0
  188.4510  177.1810  143.4810 C   0  0  2  0  0  3  0  0  0  0  0  0
  187.1820  178.0950  141.5490 C   0  0  0  0  0  2  0  0  0  0  0  0
  185.3480  179.0980  144.6580 C   0  0  0  0  0  2  0  0  0  0  0  0
  186.3750  178.3420  143.9090 C   0  0  0  0  0  0  0  0  0  0  0  0
  184.8970  179.0160  142.2250 C   0  0  0  0  0  2  0  0  0  0  0  0
  190.1310  177.6010  145.9700 O   0  0  0  0  0  0  0  0  0  0  0  0
  191.2170  178.2680  143.8320 C   0  0  2  0  0  3  0  0  0  0  0  0
  186.1070  178.2790  142.5240 N   0  0  0  0  0  0  0  0  0  0  0  0
  187.5130  177.8490  144.4040 C   0  0  0  0  0  0  0  0  0  0  0  0
  189.3080  178.6320  145.8030 O   0  0  0  0  0  0  0  0  0  0  0  0
  183.0200  178.7720  143.8450 C   0  0  0  0  0  1  0  0  0  0  0  0
  190.4710  178.1840  141.5260 O   0  0  0  0  0  0  0  0  0  0  0  0
  184.3330  179.4780  143.5770 C   0  0  1  0  0  3  0  0  0  0  0  0
  189.6000  177.0940  141.3400 C   0  0  2  0  0  3  0  0  0  0  0  0
  189.5400  176.4880  144.0040 O   0  0  0  0  0  0  0  0  0  0  0  0
  192.4220  178.6670  144.4080 O   0  0  0  0  0  1  0  0  0  0  0  0
  190.5760  177.1670  144.6980 C   0  0  2  0  0  3  0  0  0  0  0  0
  187.9670  178.1610  145.8010 C   0  0  2  0  0  3  0  0  0  0  0  0
  189.3160  176.8740  139.8540 C   0  0  2  0  0  3  0  0  0  0  0  0
  190.2300  175.9570  139.3270 O   0  0  0  0  0  1  0  0  0  0  0  0
  189.4290  178.1880  139.0960 C   0  0  0  0  0  2  0  0  0  0  0  0
  188.3900  178.2530  137.9940 C   0  0  0  0  0  3  0  0  0  0  0  0
  189.0520  177.9270  136.6710 C   0  0  0  0  0  2  0  0  0  0  0  0
  188.7530  179.3660  137.0330 C   0  0  0  0  0  2  0  0  0  0  0  0
  187.6560  177.0870  146.8090 C   0  0  0  0  0  0  0  0  0  0  0  0
  186.8730  176.1420  146.5150 O   0  0  0  0  0  0  0  0  0  0  0  0
  188.3110  178.2520  148.8540 C   0  0  0  0  0  2  0  0  0  0  0  0
  188.3000  177.1440  148.1240 C   0  0  0  0  0  3  0  0  0  0  0  0
  1  4  1  1  0  0  0
  1  3  1  0  0  0  0
  2  9  1  0  0  0  0
  3 17  1  1  0  0  0
  3 11  1  0  0  0  0
  4 10  1  0  0  0  0
  6 11  2  0  0  0  0
  6  5  1  0  0  0  0
  7 10  1  0  0  0  0
  7 15  1  0  0  0  0
  9 18  1  1  0  0  0
  9 19  1  0  0  0  0
 10  6  1  0  0  0  0
 11 20  1  0  0  0  0
 12  8  1  0  0  0  0
 14  2  1  0  0  0  0
 15 13  1  1  0  0  0
 15  5  1  0  0  0  0
 16 21  1  6  0  0  0
 16 14  1  0  0  0  0
 16  1  1  0  0  0  0
 19 17  1  6  0  0  0
 19  8  1  0  0  0  0
 20 12  1  0  0  0  0
 20 27  1  1  0  0  0
 21 22  1  6  0  0  0
 23 21  1  0  0  0  0
 24 23  1  0  0  0  0
 25 26  1  0  0  0  0
 25 24  1  0  0  0  0
 26 24  1  0  0  0  0
 27 30  1  0  0  0  0
 28 27  2  0  0  0  0
 30 29  2  0  0  0  0
M  END
>  <MODEL>
5

>  <REMARK>
 VINA RESULT:      -6.6      3.148      5.411
  Name = 
  5 active torsions:
  status: ('A' for Active; 'I' for Inactive)
    1  A    between atoms: C_2  and  C_14
    2  A    between atoms: C_2  and  C_22
    3  A    between atoms: C_7  and  C_26
    4  A    between atoms: C_7  and  C_30
    5  A    between atoms: C_14  and  C_20
                            x       y       z     vdW  Elec       q    Type
                         _______ _______ _______ _____ _____    ______ ____

>  <TORSDO>
F 5

$$$$
=
 OpenBabel10262421593D

 30 34  0  0  1  0  0  0  0  0999 V2000
  189.1540  177.1250  140.7050 C   0  0  1  0  0  3  0  0  0  0  0  0
  192.0230  177.5390  141.9870 C   0  0  0  0  0  2  0  0  0  0  0  0
  188.7980  177.0510  141.9990 C   0  0  2  0  0  3  0  0  0  0  0  0
  188.2800  177.8600  139.7070 C   0  0  0  0  0  2  0  0  0  0  0  0
  185.5320  179.0550  141.9550 C   0  0  0  0  0  2  0  0  0  0  0  0
  186.7310  178.2490  141.6380 C   0  0  0  0  0  0  0  0  0  0  0  0
  185.9260  178.8350  139.5200 C   0  0  0  0  0  2  0  0  0  0  0  0
  189.5500  177.6030  144.8840 O   0  0  0  0  0  0  0  0  0  0  0  0
  191.3110  178.1370  143.2080 C   0  0  2  0  0  3  0  0  0  0  0  0
  186.9440  178.1080  140.2490 N   0  0  0  0  0  0  0  0  0  0  0  0
  187.6220  177.7780  142.5140 C   0  0  0  0  0  0  0  0  0  0  0  0
  188.8590  178.6280  144.3950 O   0  0  0  0  0  0  0  0  0  0  0  0
  183.6060  178.6990  140.4200 C   0  0  0  0  0  1  0  0  0  0  0  0
  191.3850  177.9240  140.7930 O   0  0  0  0  0  0  0  0  0  0  0  0
  184.9510  179.3790  140.5760 C   0  0  1  0  0  3  0  0  0  0  0  0
  190.6000  176.8310  140.3810 C   0  0  2  0  0  3  0  0  0  0  0  0
  189.6290  176.3810  142.8950 O   0  0  0  0  0  0  0  0  0  0  0  0
  192.2610  178.5590  144.1360 O   0  0  0  0  0  1  0  0  0  0  0  0
  190.3860  177.0930  143.8620 C   0  0  2  0  0  3  0  0  0  0  0  0
  187.5850  178.1680  143.9640 C   0  0  2  0  0  3  0  0  0  0  0  0
  190.8280  176.5280  138.8990 C   0  0  2  0  0  3  0  0  0  0  0  0
  190.3310  175.2580  138.5940 O   0  0  0  0  0  1  0  0  0  0  0  0
  192.3130  176.5780  138.5750 C   0  0  0  0  0  2  0  0  0  0  0  0
  192.6730  175.4850  137.5860 C   0  0  0  0  0  3  0  0  0  0  0  0
  194.1230  175.0970  137.7860 C   0  0  0  0  0  2  0  0  0  0  0  0
  193.7350  176.0040  136.6380 C   0  0  0  0  0  2  0  0  0  0  0  0
  186.9250  177.1560  144.8610 C   0  0  0  0  0  0  0  0  0  0  0  0
  186.8060  175.9550  144.4930 O   0  0  0  0  0  0  0  0  0  0  0  0
  185.6290  178.6180  146.3280 C   0  0  0  0  0  2  0  0  0  0  0  0
  186.4490  177.5850  146.1790 C   0  0  0  0  0  3  0  0  0  0  0  0
  1  4  1  1  0  0  0
  1  3  1  0  0  0  0
  2  9  1  0  0  0  0
  3 11  1  1  0  0  0
  3 17  1  0  0  0  0
  4 10  1  0  0  0  0
  6  5  1  0  0  0  0
  6 11  2  0  0  0  0
  7 10  1  0  0  0  0
  7 15  1  0  0  0  0
  9 19  1  0  0  0  0
  9 18  1  1  0  0  0
 10  6  1  0  0  0  0
 11 20  1  0  0  0  0
 12  8  1  0  0  0  0
 14  2  1  0  0  0  0
 15 13  1  1  0  0  0
 15  5  1  0  0  0  0
 16 21  1  6  0  0  0
 16  1  1  0  0  0  0
 16 14  1  0  0  0  0
 19 17  1  6  0  0  0
 19  8  1  0  0  0  0
 20 12  1  0  0  0  0
 20 27  1  1  0  0  0
 21 22  1  1  0  0  0
 23 21  1  0  0  0  0
 24 25  1  0  0  0  0
 24 23  1  0  0  0  0
 26 24  1  0  0  0  0
 26 25  1  0  0  0  0
 27 30  1  0  0  0  0
 28 27  2  0  0  0  0
 30 29  2  0  0  0  0
M  END
>  <MODEL>
6

>  <REMARK>
 VINA RESULT:      -6.2      3.012      5.059
  Name = 
  5 active torsions:
  status: ('A' for Active; 'I' for Inactive)
    1  A    between atoms: C_2  and  C_14
    2  A    between atoms: C_2  and  C_22
    3  A    between atoms: C_7  and  C_26
    4  A    between atoms: C_7  and  C_30
    5  A    between atoms: C_14  and  C_20
                            x       y       z     vdW  Elec       q    Type
                         _______ _______ _______ _____ _____    ______ ____

>  <TORSDO>
F 5

$$$$
=
 OpenBabel10262421593D

 30 34  0  0  1  0  0  0  0  0999 V2000
  191.4920  176.6840  137.8270 C   0  0  1  0  0  3  0  0  0  0  0  0
  191.1050  174.7460  135.3490 C   0  0  0  0  0  2  0  0  0  0  0  0
  190.2300  177.0230  137.5140 C   0  0  2  0  0  3  0  0  0  0  0  0
  191.9150  176.5430  139.2770 C   0  0  0  0  0  2  0  0  0  0  0  0
  188.6810  177.3010  141.0080 C   0  0  0  0  0  2  0  0  0  0  0  0
  189.5710  177.2370  139.8290 C   0  0  0  0  0  0  0  0  0  0  0  0
  191.0730  177.1150  141.6200 C   0  0  0  0  0  2  0  0  0  0  0  0
  187.6910  176.2970  136.0230 O   0  0  0  0  0  0  0  0  0  0  0  0
  189.6060  174.7440  135.6770 C   0  0  2  0  0  3  0  0  0  0  0  0
  190.9360  177.1510  140.1790 N   0  0  0  0  0  0  0  0  0  0  0  0
  189.1890  177.1480  138.5530 C   0  0  0  0  0  0  0  0  0  0  0  0
  187.6270  175.8420  137.2710 O   0  0  0  0  0  0  0  0  0  0  0  0
  189.5740  178.6280  142.9140 C   0  0  0  0  0  1  0  0  0  0  0  0
  191.8780  174.7400  136.5240 O   0  0  0  0  0  0  0  0  0  0  0  0
  189.6570  177.3010  142.1870 C   0  0  1  0  0  3  0  0  0  0  0  0
  192.3200  176.0610  136.7280 C   0  0  2  0  0  3  0  0  0  0  0  0
  189.8680  177.1310  136.1730 O   0  0  0  0  0  0  0  0  0  0  0  0
  188.9400  173.8990  134.7920 O   0  0  0  0  0  1  0  0  0  0  0  0
  189.0230  176.1660  135.5630 C   0  0  2  0  0  3  0  0  0  0  0  0
  187.7520  176.9340  138.1720 C   0  0  2  0  0  3  0  0  0  0  0  0
  193.8200  176.0910  137.0220 C   0  0  2  0  0  3  0  0  0  0  0  0
  194.4760  176.8670  136.0610 O   0  0  0  0  0  1  0  0  0  0  0  0
  194.3900  174.6810  137.0030 C   0  0  0  0  0  2  0  0  0  0  0  0
  195.0110  174.3450  138.3450 C   0  0  0  0  0  3  0  0  0  0  0  0
  196.4680  173.9850  138.1380 C   0  0  0  0  0  2  0  0  0  0  0  0
  195.4400  172.8920  138.3440 C   0  0  0  0  0  2  0  0  0  0  0  0
  187.0220  178.1880  137.7750 C   0  0  0  0  0  0  0  0  0  0  0  0
  187.6480  179.1570  137.2600 O   0  0  0  0  0  0  0  0  0  0  0  0
  185.0320  178.6280  139.1220 C   0  0  0  0  0  2  0  0  0  0  0  0
  185.5710  178.2530  137.9680 C   0  0  0  0  0  3  0  0  0  0  0  0
  1  4  1  1  0  0  0
  2  9  1  0  0  0  0
  2 14  1  0  0  0  0
  3 17  1  6  0  0  0
  3  1  1  0  0  0  0
  3 11  1  0  0  0  0
  4 10  1  0  0  0  0
  5 15  1  0  0  0  0
  6 10  1  0  0  0  0
  6  5  1  0  0  0  0
  7 15  1  0  0  0  0
  8 12  1  0  0  0  0
  9 18  1  6  0  0  0
 10  7  1  0  0  0  0
 11  6  2  0  0  0  0
 12 20  1  0  0  0  0
 14 16  1  0  0  0  0
 15 13  1  6  0  0  0
 16 21  1  1  0  0  0
 16  1  1  0  0  0  0
 19  9  1  0  0  0  0
 19  8  1  1  0  0  0
 19 17  1  0  0  0  0
 20 27  1  6  0  0  0
 20 11  1  0  0  0  0
 21 22  1  6  0  0  0
 23 21  1  0  0  0  0
 23 24  1  0  0  0  0
 25 26  1  0  0  0  0
 25 24  1  0  0  0  0
 26 24  1  0  0  0  0
 27 30  1  0  0  0  0
 28 27  2  0  0  0  0
 30 29  2  0  0  0  0
M  END
>  <MODEL>
7

>  <REMARK>
 VINA RESULT:      -6.2      3.346      5.632
  Name = 
  5 active torsions:
  status: ('A' for Active; 'I' for Inactive)
    1  A    between atoms: C_2  and  C_14
    2  A    between atoms: C_2  and  C_22
    3  A    between atoms: C_7  and  C_26
    4  A    between atoms: C_7  and  C_30
    5  A    between atoms: C_14  and  C_20
                            x       y       z     vdW  Elec       q    Type
                         _______ _______ _______ _____ _____    ______ ____

>  <TORSDO>
F 5

$$$$
=
 OpenBabel10262421593D

 30 34  0  0  1  0  0  0  0  0999 V2000
  186.4980  178.4730  139.3920 C   0  0  1  0  0  3  0  0  0  0  0  0
  186.1690  176.6980  136.7870 C   0  0  0  0  0  2  0  0  0  0  0  0
  185.1640  178.5690  139.2620 C   0  0  2  0  0  3  0  0  0  0  0  0
  187.1290  178.3090  140.7610 C   0  0  0  0  0  2  0  0  0  0  0  0
  184.0680  178.2480  142.9200 C   0  0  0  0  0  2  0  0  0  0  0  0
  184.7890  178.4610  141.6470 C   0  0  0  0  0  0  0  0  0  0  0  0
  186.5100  178.5110  143.2320 C   0  0  0  0  0  2  0  0  0  0  0  0
  182.6390  177.4550  138.0040 O   0  0  0  0  0  0  0  0  0  0  0  0
  184.7560  176.3620  137.2830 C   0  0  2  0  0  3  0  0  0  0  0  0
  186.1790  178.6300  141.8270 N   0  0  0  0  0  0  0  0  0  0  0  0
  184.2660  178.3950  140.4200 C   0  0  0  0  0  0  0  0  0  0  0  0
  182.8310  176.9000  139.1970 O   0  0  0  0  0  0  0  0  0  0  0  0
  184.9320  179.5770  144.8380 C   0  0  0  0  0  1  0  0  0  0  0  0
  187.0770  176.7590  137.8600 O   0  0  0  0  0  0  0  0  0  0  0  0
  185.1740  178.3560  143.9740 C   0  0  1  0  0  3  0  0  0  0  0  0
  187.2780  178.1220  138.1470 C   0  0  2  0  0  3  0  0  0  0  0  0
  184.6130  178.7050  137.9900 O   0  0  0  0  0  0  0  0  0  0  0  0
  184.1550  175.4700  136.3970 O   0  0  0  0  0  1  0  0  0  0  0  0
  183.8980  177.6380  137.3840 C   0  0  2  0  0  3  0  0  0  0  0  0
  182.8600  177.9210  140.1860 C   0  0  2  0  0  3  0  0  0  0  0  0
  188.7690  178.4370  138.2690 C   0  0  2  0  0  3  0  0  0  0  0  0
  189.0550  179.6370  137.6100 O   0  0  0  0  0  1  0  0  0  0  0  0
  189.5960  177.3180  137.6550 C   0  0  0  0  0  2  0  0  0  0  0  0
  190.1430  176.4110  138.7410 C   0  0  0  0  0  3  0  0  0  0  0  0
  190.9310  177.2450  139.7300 C   0  0  0  0  0  2  0  0  0  0  0  0
  191.6570  176.4260  138.6840 C   0  0  0  0  0  2  0  0  0  0  0  0
  181.8550  179.0260  140.0070 C   0  0  0  0  0  0  0  0  0  0  0  0
  182.1920  180.1170  139.4680 O   0  0  0  0  0  0  0  0  0  0  0  0
  180.1640  177.8930  141.3590 C   0  0  0  0  0  2  0  0  0  0  0  0
  180.4730  178.8010  140.4420 C   0  0  0  0  0  3  0  0  0  0  0  0
  1  4  1  1  0  0  0
  2  9  1  0  0  0  0
  2 14  1  0  0  0  0
  3 17  1  6  0  0  0
  3  1  1  0  0  0  0
  3 11  1  0  0  0  0
  4 10  1  0  0  0  0
  5 15  1  0  0  0  0
  6 10  1  0  0  0  0
  6  5  1  0  0  0  0
  7 15  1  0  0  0  0
  8 12  1  0  0  0  0
  9 18  1  6  0  0  0
  9 19  1  0  0  0  0
 10  7  1  0  0  0  0
 11  6  2  0  0  0  0
 12 20  1  0  0  0  0
 14 16  1  0  0  0  0
 15 13  1  1  0  0  0
 16 21  1  1  0  0  0
 16  1  1  0  0  0  0
 19 17  1  1  0  0  0
 19  8  1  0  0  0  0
 20 27  1  6  0  0  0
 20 11  1  0  0  0  0
 21 22  1  6  0  0  0
 23 21  1  0  0  0  0
 23 24  1  0  0  0  0
 24 25  1  0  0  0  0
 26 24  1  0  0  0  0
 26 25  1  0  0  0  0
 27 30  1  0  0  0  0
 28 27  2  0  0  0  0
 30 29  2  0  0  0  0
M  END
>  <MODEL>
8

>  <REMARK>
 VINA RESULT:      -6.0      2.086      2.986
  Name = 
  5 active torsions:
  status: ('A' for Active; 'I' for Inactive)
    1  A    between atoms: C_2  and  C_14
    2  A    between atoms: C_2  and  C_22
    3  A    between atoms: C_7  and  C_26
    4  A    between atoms: C_7  and  C_30
    5  A    between atoms: C_14  and  C_20
                            x       y       z     vdW  Elec       q    Type
                         _______ _______ _______ _____ _____    ______ ____

>  <TORSDO>
F 5

$$$$
=
 OpenBabel10262421593D

 30 34  0  0  1  0  0  0  0  0999 V2000
  185.2690  178.5940  139.2070 C   0  0  1  0  0  3  0  0  0  0  0  0
  184.3940  176.8740  136.6920 C   0  0  0  0  0  2  0  0  0  0  0  0
  183.9380  178.7090  139.3500 C   0  0  2  0  0  3  0  0  0  0  0  0
  186.1590  178.3940  140.4190 C   0  0  0  0  0  2  0  0  0  0  0  0
  183.5930  178.3310  143.1480 C   0  0  0  0  0  2  0  0  0  0  0  0
  184.0470  178.5600  141.7590 C   0  0  0  0  0  0  0  0  0  0  0  0
  186.0520  178.5550  142.9660 C   0  0  0  0  0  2  0  0  0  0  0  0
  181.1940  177.6550  138.6060 O   0  0  0  0  0  0  0  0  0  0  0  0
  183.1040  176.5470  137.4560 C   0  0  2  0  0  3  0  0  0  0  0  0
  185.4480  178.7060  141.6590 N   0  0  0  0  0  0  0  0  0  0  0  0
  183.2880  178.5250  140.6620 C   0  0  0  0  0  0  0  0  0  0  0  0
  181.6110  177.0740  139.7270 O   0  0  0  0  0  0  0  0  0  0  0  0
  184.8470  179.6100  144.8750 C   0  0  0  0  0  1  0  0  0  0  0  0
  185.5000  176.9020  137.5610 O   0  0  0  0  0  0  0  0  0  0  0  0
  184.8890  178.4040  143.9590 C   0  0  1  0  0  3  0  0  0  0  0  0
  185.7770  178.2560  137.8250 C   0  0  2  0  0  3  0  0  0  0  0  0
  183.1450  178.8780  138.2160 O   0  0  0  0  0  0  0  0  0  0  0  0
  182.3220  175.6810  136.6940 O   0  0  0  0  0  1  0  0  0  0  0  0
  182.3060  177.8320  137.7490 C   0  0  2  0  0  3  0  0  0  0  0  0
  181.8560  178.0740  140.7070 C   0  0  2  0  0  3  0  0  0  0  0  0
  187.2680  178.5490  137.6500 C   0  0  2  0  0  3  0  0  0  0  0  0
  187.4470  179.5200  136.6600 O   0  0  0  0  0  1  0  0  0  0  0  0
  188.0100  177.2830  137.2520 C   0  0  0  0  0  2  0  0  0  0  0  0
  188.8770  176.7980  138.3980 C   0  0  0  0  0  3  0  0  0  0  0  0
  189.6750  177.9650  138.9420 C   0  0  0  0  0  2  0  0  0  0  0  0
  190.3350  176.9600  138.0210 C   0  0  0  0  0  2  0  0  0  0  0  0
  180.8540  179.1960  140.7520 C   0  0  0  0  0  0  0  0  0  0  0  0
  181.0030  180.2160  140.0240 O   0  0  0  0  0  0  0  0  0  0  0  0
  179.7920  178.5970  142.8690 C   0  0  0  0  0  2  0  0  0  0  0  0
  179.6890  179.0680  141.6320 C   0  0  0  0  0  3  0  0  0  0  0  0
  1  3  1  0  0  0  0
  1  4  1  1  0  0  0
  2  9  1  0  0  0  0
  2 14  1  0  0  0  0
  3 17  1  6  0  0  0
  3 11  1  0  0  0  0
  4 10  1  0  0  0  0
  5 15  1  0  0  0  0
  6  5  1  0  0  0  0
  7 15  1  0  0  0  0
  8 12  1  0  0  0  0
  9 18  1  6  0  0  0
  9 19  1  0  0  0  0
 10  6  1  0  0  0  0
 10  7  1  0  0  0  0
 11 20  1  0  0  0  0
 11  6  2  0  0  0  0
 12 20  1  0  0  0  0
 14 16  1  0  0  0  0
 15 13  1  1  0  0  0
 16 21  1  1  0  0  0
 16  1  1  0  0  0  0
 19 17  1  1  0  0  0
 19  8  1  0  0  0  0
 20 27  1  6  0  0  0
 21 22  1  6  0  0  0
 23 21  1  0  0  0  0
 23 24  1  0  0  0  0
 24 25  1  0  0  0  0
 26 24  1  0  0  0  0
 26 25  1  0  0  0  0
 27 30  1  0  0  0  0
 28 27  2  0  0  0  0
 30 29  2  0  0  0  0
M  END
>  <MODEL>
9

>  <REMARK>
 VINA RESULT:      -5.9      2.352      3.290
  Name = 
  5 active torsions:
  status: ('A' for Active; 'I' for Inactive)
    1  A    between atoms: C_2  and  C_14
    2  A    between atoms: C_2  and  C_22
    3  A    between atoms: C_7  and  C_26
    4  A    between atoms: C_7  and  C_30
    5  A    between atoms: C_14  and  C_20
                            x       y       z     vdW  Elec       q    Type
                         _______ _______ _______ _____ _____    ______ ____

>  <TORSDO>
F 5

$$$$
