=
 OpenBabel10262419123D

 34 37  0  0  1  0  0  0  0  0999 V2000
  188.3930  177.5940  140.0330 C   0  0  2  0  0  3  0  0  0  0  0  0
  189.0110  175.6610  137.5500 C   0  0  2  0  0  3  0  0  0  0  0  0
  188.7470  178.1590  136.6300 C   0  0  0  0  0  0  0  0  0  0  0  0
  189.3400  177.9870  138.8860 C   0  0  2  0  0  3  0  0  0  0  0  0
  190.6780  176.3360  135.9170 O   0  0  0  0  0  1  0  0  0  0  0  0
  188.3840  177.9620  135.4390 O   0  0  0  0  0  0  0  0  0  0  0  0
  189.1460  179.3620  138.5490 O   0  0  0  0  0  0  0  0  0  0  0  0
  189.1470  177.1730  137.6150 C   0  0  1  0  0  0  0  0  0  0  0  0
  190.3720  176.3290  137.2840 C   0  0  1  0  0  3  0  0  0  0  0  0
  188.3810  175.2710  136.3650 O   0  0  0  0  0  1  0  0  0  0  0  0
  188.7720  179.3840  137.2460 O   0  0  0  0  0  0  0  0  0  0  0  0
  184.8640  178.7490  140.4150 C   0  0  0  0  0  2  0  0  0  0  0  0
  185.4750  179.4340  141.5490 N   0  0  0  0  0  0  0  0  0  0  0  0
  187.2700  178.6270  140.2290 C   0  0  2  0  0  3  0  0  0  0  0  0
  186.8280  178.8690  141.6720 C   0  0  2  0  0  3  0  0  0  0  0  0
  185.9860  178.2650  139.5060 C   0  0  2  0  0  3  0  0  0  0  0  0
  185.9230  178.9410  138.2880 O   0  0  0  0  0  1  0  0  0  0  0  0
  186.8670  177.6690  143.7480 O   0  0  0  0  0  0  0  0  0  0  0  0
  186.8940  177.6130  142.5280 C   0  0  0  0  0  3  0  0  0  0  0  0
  184.6370  179.2400  142.7300 C   0  0  0  0  0  2  0  0  0  0  0  0
  183.2900  178.6600  142.3310 C   0  0  0  0  0  2  0  0  0  0  0  0
  182.3100  179.0470  143.2460 O   0  0  0  0  0  1  0  0  0  0  0  0
  189.1270  177.3980  141.2790 N   0  0  0  0  0  2  0  0  0  0  0  0
  190.4980  177.0620  140.9350 C   0  0  0  0  0  2  0  0  0  0  0  0
  191.4180  177.4410  142.0770 C   0  0  0  0  0  2  0  0  0  0  0  0
  190.5330  178.5180  143.2360 S   0  0  0  0  0  0  0  0  0  0  0  0
  191.6160  178.0530  144.6210 C   0  0  0  0  0  2  0  0  0  0  0  0
  192.0380  175.7610  147.3190 C   0  0  0  0  0  1  0  0  0  0  0  0
  191.1190  176.7690  145.2710 C   0  0  1  0  0  3  0  0  0  0  0  0
  191.2050  176.8960  146.7600 C   0  0  1  0  0  3  0  0  0  0  0  0
  189.6190  177.8830  148.1580 C   0  0  0  0  0  1  0  0  0  0  0  0
  189.0110  177.0030  146.1280 N   0  0  0  0  0  2  0  0  0  0  0  0
  189.7100  176.5800  144.9830 N   0  0  0  0  0  2  0  0  0  0  0  0
  189.8430  176.7800  147.2420 N   0  0  0  0  0  0  0  0  0  0  0  0
  1 23  1  1  0  0  0
  2 10  1  6  0  0  0
  2  8  1  0  0  0  0
  3 11  1  0  0  0  0
  4  1  1  1  0  0  0
  6  3  2  0  0  0  0
  7  4  1  0  0  0  0
  8  3  1  6  0  0  0
  8  4  1  0  0  0  0
  9  5  1  6  0  0  0
  9  2  1  0  0  0  0
  9  8  1  0  0  0  0
 11  7  1  0  0  0  0
 12 13  1  0  0  0  0
 13 15  1  0  0  0  0
 13 20  1  0  0  0  0
 14  1  1  1  0  0  0
 14 15  1  0  0  0  0
 15 19  1  1  0  0  0
 16 17  1  6  0  0  0
 16 14  1  0  0  0  0
 16 12  1  0  0  0  0
 19 18  2  0  0  0  0
 21 20  1  0  0  0  0
 21 22  1  0  0  0  0
 24 23  1  0  0  0  0
 24 25  1  0  0  0  0
 25 26  1  0  0  0  0
 26 27  1  0  0  0  0
 29 27  1  6  0  0  0
 29 30  1  0  0  0  0
 30 34  1  0  0  0  0
 30 28  1  1  0  0  0
 32 34  1  0  0  0  0
 33 29  1  0  0  0  0
 33 32  1  0  0  0  0
 34 31  1  0  0  0  0
M  END
>  <MODEL>
1

>  <REMARK>
 VINA RESULT:      -7.2      0.000      0.000
  Name = 
  11 active torsions:
  status: ('A' for Active; 'I' for Inactive)
    1  A    between atoms: C_3  and  C_13
    2  A    between atoms: C_3  and  S_17
    3  A    between atoms: C_4  and  C_31
    4  A    between atoms: N_5  and  C_18
    5  A    between atoms: N_5  and  C_31
    6  A    between atoms: N_8  and  C_27
    7  A    between atoms: C_12  and  C_27
    8  A    between atoms: S_17  and  C_29
    9  A    between atoms: C_18  and  C_29
   10  A    between atoms: C_21  and  C_31
   11  A    between atoms: C_26  and  C_28
                            x       y       z     vdW  Elec       q    Type
                         _______ _______ _______ _____ _____    ______ ____

>  <TORSDO>
F 11

$$$$
=
 OpenBabel10262419123D

 34 37  0  0  1  0  0  0  0  0999 V2000
  188.3450  177.6600  141.1590 C   0  0  2  0  0  3  0  0  0  0  0  0
  190.7000  178.7850  143.0210 C   0  0  2  0  0  3  0  0  0  0  0  0
  189.0160  177.3760  144.5490 C   0  0  0  0  0  0  0  0  0  0  0  0
  188.9950  176.8250  142.2760 C   0  0  2  0  0  3  0  0  0  0  0  0
  191.7630  177.2880  144.6100 O   0  0  0  0  0  1  0  0  0  0  0  0
  189.1920  177.8990  145.6820 O   0  0  0  0  0  0  0  0  0  0  0  0
  187.9940  176.0670  142.9570 O   0  0  0  0  0  0  0  0  0  0  0  0
  189.7320  177.6520  143.3190 C   0  0  1  0  0  0  0  0  0  0  0  0
  191.2300  177.3710  143.3180 C   0  0  1  0  0  3  0  0  0  0  0  0
  190.8260  179.6320  144.1260 O   0  0  0  0  0  1  0  0  0  0  0  0
  188.0380  176.4600  144.2540 O   0  0  0  0  0  0  0  0  0  0  0  0
  190.2940  176.8670  138.0750 C   0  0  0  0  0  2  0  0  0  0  0  0
  189.7090  178.1440  137.6800 N   0  0  0  0  0  0  0  0  0  0  0  0
  189.3280  177.9450  140.0100 C   0  0  2  0  0  3  0  0  0  0  0  0
  188.7080  178.4590  138.7110 C   0  0  2  0  0  3  0  0  0  0  0  0
  190.1240  176.7260  139.5820 C   0  0  2  0  0  3  0  0  0  0  0  0
  191.3760  176.7400  140.1950 O   0  0  0  0  0  1  0  0  0  0  0  0
  186.3650  178.5700  138.2100 O   0  0  0  0  0  0  0  0  0  0  0  0
  187.3350  177.8630  138.4360 C   0  0  0  0  0  3  0  0  0  0  0  0
  189.1600  178.0190  136.3310 C   0  0  0  0  0  2  0  0  0  0  0  0
  189.6000  176.7080  135.7020 C   0  0  0  0  0  2  0  0  0  0  0  0
  188.4890  175.9950  135.2510 O   0  0  0  0  0  1  0  0  0  0  0  0
  187.7980  178.9080  141.6830 N   0  0  0  0  0  2  0  0  0  0  0  0
  186.3510  178.8340  141.5770 C   0  0  0  0  0  2  0  0  0  0  0  0
  185.7430  178.7390  142.9600 C   0  0  0  0  0  2  0  0  0  0  0  0
  183.9370  178.6500  142.8240 S   0  0  0  0  0  0  0  0  0  0  0  0
  184.0050  178.3570  141.0310 C   0  0  0  0  0  2  0  0  0  0  0  0
  182.3780  180.4800  138.6740 C   0  0  0  0  0  1  0  0  0  0  0  0
  182.6800  178.7360  140.3840 C   0  0  1  0  0  3  0  0  0  0  0  0
  182.9080  179.0870  138.9460 C   0  0  1  0  0  3  0  0  0  0  0  0
  183.0300  177.5920  137.1590 C   0  0  0  0  0  1  0  0  0  0  0  0
  181.8620  177.0590  139.0610 N   0  0  0  0  0  2  0  0  0  0  0  0
  181.7920  177.5900  140.3630 N   0  0  0  0  0  2  0  0  0  0  0  0
  182.1450  178.1200  138.1820 N   0  0  0  0  0  0  0  0  0  0  0  0
  1 23  1  1  0  0  0
  2  9  1  0  0  0  0
  2  8  1  0  0  0  0
  2 10  1  1  0  0  0
  3  6  2  0  0  0  0
  4  1  1  6  0  0  0
  4  7  1  0  0  0  0
  4  8  1  0  0  0  0
  7 11  1  0  0  0  0
  8  3  1  1  0  0  0
  9  8  1  0  0  0  0
  9  5  1  1  0  0  0
 11  3  1  0  0  0  0
 12 16  1  0  0  0  0
 13 12  1  0  0  0  0
 13 15  1  0  0  0  0
 14  1  1  1  0  0  0
 15 19  1  6  0  0  0
 15 14  1  0  0  0  0
 16 14  1  0  0  0  0
 16 17  1  1  0  0  0
 18 19  2  0  0  0  0
 20 13  1  0  0  0  0
 21 20  1  0  0  0  0
 22 21  1  0  0  0  0
 24 23  1  0  0  0  0
 24 25  1  0  0  0  0
 26 25  1  0  0  0  0
 27 26  1  0  0  0  0
 29 27  1  6  0  0  0
 30 28  1  1  0  0  0
 30 29  1  0  0  0  0
 31 34  1  0  0  0  0
 32 33  1  0  0  0  0
 33 29  1  0  0  0  0
 34 30  1  0  0  0  0
 34 32  1  0  0  0  0
M  END
>  <MODEL>
2

>  <REMARK>
 VINA RESULT:      -6.9      2.888      7.860
  Name = 
  11 active torsions:
  status: ('A' for Active; 'I' for Inactive)
    1  A    between atoms: C_3  and  C_13
    2  A    between atoms: C_3  and  S_17
    3  A    between atoms: C_4  and  C_31
    4  A    between atoms: N_5  and  C_18
    5  A    between atoms: N_5  and  C_31
    6  A    between atoms: N_8  and  C_27
    7  A    between atoms: C_12  and  C_27
    8  A    between atoms: S_17  and  C_29
    9  A    between atoms: C_18  and  C_29
   10  A    between atoms: C_21  and  C_31
   11  A    between atoms: C_26  and  C_28
                            x       y       z     vdW  Elec       q    Type
                         _______ _______ _______ _____ _____    ______ ____

>  <TORSDO>
F 11

$$$$
=
 OpenBabel10262419123D

 34 37  0  0  1  0  0  0  0  0999 V2000
  190.4070  176.9390  137.8400 C   0  0  2  0  0  3  0  0  0  0  0  0
  187.7340  175.4450  136.8890 C   0  0  2  0  0  3  0  0  0  0  0  0
  187.2020  178.0550  137.1290 C   0  0  0  0  0  0  0  0  0  0  0  0
  189.4540  177.5260  136.7840 C   0  0  2  0  0  3  0  0  0  0  0  0
  186.4330  176.3980  135.0740 O   0  0  0  0  0  1  0  0  0  0  0  0
  185.9610  178.0510  137.3510 O   0  0  0  0  0  0  0  0  0  0  0  0
  189.3220  178.9350  136.9830 O   0  0  0  0  0  0  0  0  0  0  0  0
  188.0550  176.9280  136.8090 C   0  0  1  0  0  0  0  0  0  0  0  0
  187.7360  176.1650  135.5290 C   0  0  1  0  0  3  0  0  0  0  0  0
  186.4370  175.2450  137.3720 O   0  0  0  0  0  1  0  0  0  0  0  0
  188.0060  179.1640  137.2100 O   0  0  0  0  0  0  0  0  0  0  0  0
  192.9720  175.2800  135.6930 C   0  0  0  0  0  2  0  0  0  0  0  0
  193.3220  174.7070  136.9880 N   0  0  0  0  0  0  0  0  0  0  0  0
  191.2160  175.7540  137.2850 C   0  0  2  0  0  3  0  0  0  0  0  0
  192.5470  175.4680  137.9820 C   0  0  2  0  0  3  0  0  0  0  0  0
  191.5930  175.9120  135.8230 C   0  0  2  0  0  3  0  0  0  0  0  0
  190.6840  175.2190  135.0240 O   0  0  0  0  0  1  0  0  0  0  0  0
  193.5160  176.8950  139.6460 O   0  0  0  0  0  0  0  0  0  0  0  0
  193.2420  176.7300  138.4680 C   0  0  0  0  0  3  0  0  0  0  0  0
  194.7700  174.7900  137.1700 C   0  0  0  0  0  2  0  0  0  0  0  0
  195.2910  173.5250  137.8280 C   0  0  0  0  0  2  0  0  0  0  0  0
  195.4910  173.7410  139.1930 O   0  0  0  0  0  1  0  0  0  0  0  0
  189.6820  176.5420  139.0420 N   0  0  0  0  0  2  0  0  0  0  0  0
  190.0210  177.4850  140.0940 C   0  0  0  0  0  2  0  0  0  0  0  0
  189.8820  176.8160  141.4450 C   0  0  0  0  0  2  0  0  0  0  0  0
  188.6130  177.6690  142.4170 S   0  0  0  0  0  0  0  0  0  0  0  0
  189.0480  176.7640  143.9320 C   0  0  0  0  0  2  0  0  0  0  0  0
  189.2080  177.4710  147.4230 C   0  0  0  0  0  1  0  0  0  0  0  0
  189.5450  177.7300  145.0000 C   0  0  1  0  0  3  0  0  0  0  0  0
  189.9640  176.9600  146.2140 C   0  0  1  0  0  3  0  0  0  0  0  0
  192.0380  175.9490  146.5640 C   0  0  0  0  0  1  0  0  0  0  0  0
  191.8280  177.7410  145.1460 N   0  0  0  0  0  2  0  0  0  0  0  0
  190.7450  178.4030  144.5390 N   0  0  0  0  0  2  0  0  0  0  0  0
  191.3790  177.2290  146.3780 N   0  0  0  0  0  0  0  0  0  0  0  0
  1 23  1  1  0  0  0
  2 10  1  1  0  0  0
  3 11  1  0  0  0  0
  3  6  2  0  0  0  0
  4  8  1  0  0  0  0
  4  7  1  0  0  0  0
  4  1  1  1  0  0  0
  7 11  1  0  0  0  0
  8  2  1  0  0  0  0
  8  3  1  1  0  0  0
  9  5  1  1  0  0  0
  9  8  1  0  0  0  0
  9  2  1  0  0  0  0
 12 16  1  0  0  0  0
 12 13  1  0  0  0  0
 13 20  1  0  0  0  0
 13 15  1  0  0  0  0
 14  1  1  1  0  0  0
 14 15  1  0  0  0  0
 15 19  1  6  0  0  0
 16 17  1  6  0  0  0
 16 14  1  0  0  0  0
 19 18  2  0  0  0  0
 20 21  1  0  0  0  0
 21 22  1  0  0  0  0
 23 24  1  0  0  0  0
 24 25  1  0  0  0  0
 25 26  1  0  0  0  0
 26 27  1  0  0  0  0
 29 27  1  6  0  0  0
 29 30  1  0  0  0  0
 30 34  1  0  0  0  0
 30 28  1  1  0  0  0
 32 34  1  0  0  0  0
 33 29  1  0  0  0  0
 33 32  1  0  0  0  0
 34 31  1  0  0  0  0
M  END
>  <MODEL>
3

>  <REMARK>
 VINA RESULT:      -6.9      3.006      5.969
  Name = 
  11 active torsions:
  status: ('A' for Active; 'I' for Inactive)
    1  A    between atoms: C_3  and  C_13
    2  A    between atoms: C_3  and  S_17
    3  A    between atoms: C_4  and  C_31
    4  A    between atoms: N_5  and  C_18
    5  A    between atoms: N_5  and  C_31
    6  A    between atoms: N_8  and  C_27
    7  A    between atoms: C_12  and  C_27
    8  A    between atoms: S_17  and  C_29
    9  A    between atoms: C_18  and  C_29
   10  A    between atoms: C_21  and  C_31
   11  A    between atoms: C_26  and  C_28
                            x       y       z     vdW  Elec       q    Type
                         _______ _______ _______ _____ _____    ______ ____

>  <TORSDO>
F 11

$$$$
=
 OpenBabel10262419123D

 34 37  0  0  1  0  0  0  0  0999 V2000
  188.0620  177.5160  143.9480 C   0  0  2  0  0  3  0  0  0  0  0  0
  188.9880  176.4730  146.8350 C   0  0  2  0  0  3  0  0  0  0  0  0
  191.0730  177.6690  145.6610 C   0  0  0  0  0  0  0  0  0  0  0  0
  188.9720  178.3360  144.8780 C   0  0  2  0  0  3  0  0  0  0  0  0
  190.2630  177.9600  148.2720 O   0  0  0  0  0  1  0  0  0  0  0  0
  192.0500  177.1020  146.2210 O   0  0  0  0  0  0  0  0  0  0  0  0
  189.9920  178.9800  144.1110 O   0  0  0  0  0  0  0  0  0  0  0  0
  189.6630  177.5130  145.9560 C   0  0  1  0  0  0  0  0  0  0  0  0
  189.2060  177.9050  147.3560 C   0  0  1  0  0  3  0  0  0  0  0  0
  189.9300  175.5810  147.3560 O   0  0  0  0  0  1  0  0  0  0  0  0
  191.1740  178.5230  144.5920 O   0  0  0  0  0  0  0  0  0  0  0  0
  184.9580  179.2060  145.1510 C   0  0  0  0  0  2  0  0  0  0  0  0
  184.4220  178.4890  144.0000 N   0  0  0  0  0  0  0  0  0  0  0  0
  186.5850  177.5970  144.3740 C   0  0  2  0  0  3  0  0  0  0  0  0
  185.5920  177.9710  143.2730 C   0  0  2  0  0  3  0  0  0  0  0  0
  186.3290  178.6210  145.4650 C   0  0  2  0  0  3  0  0  0  0  0  0
  186.2930  177.9880  146.7060 O   0  0  0  0  0  1  0  0  0  0  0  0
  186.0610  178.7670  141.0600 O   0  0  0  0  0  0  0  0  0  0  0  0
  186.1700  178.9500  142.2630 C   0  0  0  0  0  3  0  0  0  0  0  0
  183.5880  179.4000  143.2170 C   0  0  0  0  0  2  0  0  0  0  0  0
  182.2740  178.7300  142.8550 C   0  0  0  0  0  2  0  0  0  0  0  0
  181.4060  178.7510  143.9470 O   0  0  0  0  0  1  0  0  0  0  0  0
  188.4950  176.1230  143.8800 N   0  0  0  0  0  2  0  0  0  0  0  0
  189.4050  176.0000  142.7530 C   0  0  0  0  0  2  0  0  0  0  0  0
  188.8960  176.8300  141.5930 C   0  0  0  0  0  2  0  0  0  0  0  0
  190.2520  177.1440  140.4310 S   0  0  0  0  0  0  0  0  0  0  0  0
  189.3170  178.4390  139.5630 C   0  0  0  0  0  2  0  0  0  0  0  0
  188.4440  175.9390  137.1750 C   0  0  0  0  0  1  0  0  0  0  0  0
  189.1940  178.0990  138.0840 C   0  0  1  0  0  3  0  0  0  0  0  0
  188.0080  177.2120  137.8710 C   0  0  1  0  0  3  0  0  0  0  0  0
  185.7940  177.9020  137.6070 C   0  0  0  0  0  1  0  0  0  0  0  0
  187.5330  179.2980  137.0660 N   0  0  0  0  0  2  0  0  0  0  0  0
  188.9170  179.3010  137.3210 N   0  0  0  0  0  2  0  0  0  0  0  0
  187.1140  177.9550  137.0050 N   0  0  0  0  0  0  0  0  0  0  0  0
  1 23  1  1  0  0  0
  2 10  1  1  0  0  0
  2  9  1  0  0  0  0
  3  6  2  0  0  0  0
  4  1  1  6  0  0  0
  4  8  1  0  0  0  0
  7 11  1  0  0  0  0
  7  4  1  0  0  0  0
  8  3  1  6  0  0  0
  8  2  1  0  0  0  0
  8  9  1  0  0  0  0
  9  5  1  1  0  0  0
 11  3  1  0  0  0  0
 12 16  1  0  0  0  0
 13 12  1  0  0  0  0
 14  1  1  6  0  0  0
 14 16  1  0  0  0  0
 15 19  1  6  0  0  0
 15 13  1  0  0  0  0
 15 14  1  0  0  0  0
 16 17  1  1  0  0  0
 18 19  2  0  0  0  0
 20 13  1  0  0  0  0
 21 20  1  0  0  0  0
 21 22  1  0  0  0  0
 24 23  1  0  0  0  0
 25 24  1  0  0  0  0
 26 25  1  0  0  0  0
 27 26  1  0  0  0  0
 29 27  1  1  0  0  0
 30 28  1  6  0  0  0
 30 29  1  0  0  0  0
 32 33  1  0  0  0  0
 33 29  1  0  0  0  0
 34 32  1  0  0  0  0
 34 31  1  0  0  0  0
 34 30  1  0  0  0  0
M  END
>  <MODEL>
4

>  <REMARK>
 VINA RESULT:      -6.7      2.917      7.277
  Name = 
  11 active torsions:
  status: ('A' for Active; 'I' for Inactive)
    1  A    between atoms: C_3  and  C_13
    2  A    between atoms: C_3  and  S_17
    3  A    between atoms: C_4  and  C_31
    4  A    between atoms: N_5  and  C_18
    5  A    between atoms: N_5  and  C_31
    6  A    between atoms: N_8  and  C_27
    7  A    between atoms: C_12  and  C_27
    8  A    between atoms: S_17  and  C_29
    9  A    between atoms: C_18  and  C_29
   10  A    between atoms: C_21  and  C_31
   11  A    between atoms: C_26  and  C_28
                            x       y       z     vdW  Elec       q    Type
                         _______ _______ _______ _____ _____    ______ ____

>  <TORSDO>
F 11

$$$$
=
 OpenBabel10262419123D

 34 37  0  0  1  0  0  0  0  0999 V2000
  187.4530  178.0550  139.1660 C   0  0  2  0  0  3  0  0  0  0  0  0
  189.8260  175.9500  138.6990 C   0  0  2  0  0  3  0  0  0  0  0  0
  189.5740  177.4410  136.4930 C   0  0  0  0  0  0  0  0  0  0  0  0
  188.7670  178.4240  138.4560 C   0  0  2  0  0  3  0  0  0  0  0  0
  191.9180  176.7260  137.7400 O   0  0  0  0  0  1  0  0  0  0  0  0
  190.0280  176.6720  135.6040 O   0  0  0  0  0  0  0  0  0  0  0  0
  188.4910  179.2820  137.3470 O   0  0  0  0  0  0  0  0  0  0  0  0
  189.5430  177.2280  137.9260 C   0  0  1  0  0  0  0  0  0  0  0  0
  190.8870  177.0630  138.6250 C   0  0  1  0  0  3  0  0  0  0  0  0
  190.1140  174.8970  137.8270 O   0  0  0  0  0  1  0  0  0  0  0  0
  188.9510  178.6380  136.2460 O   0  0  0  0  0  0  0  0  0  0  0  0
  184.1440  177.2850  137.6180 C   0  0  0  0  0  2  0  0  0  0  0  0
  183.8830  178.6340  138.1080 N   0  0  0  0  0  0  0  0  0  0  0  0
  186.2260  178.3210  138.2770 C   0  0  2  0  0  3  0  0  0  0  0  0
  185.0280  178.9740  138.9680 C   0  0  2  0  0  3  0  0  0  0  0  0
  185.6510  177.0630  137.6520 C   0  0  2  0  0  3  0  0  0  0  0  0
  186.1310  176.9200  136.3510 O   0  0  0  0  0  1  0  0  0  0  0  0
  184.5800  179.3210  141.2970 O   0  0  0  0  0  0  0  0  0  0  0  0
  184.8650  178.5280  140.4130 C   0  0  0  0  0  3  0  0  0  0  0  0
  182.5940  178.6480  138.7980 C   0  0  0  0  0  2  0  0  0  0  0  0
  181.7070  179.7450  138.2330 C   0  0  0  0  0  2  0  0  0  0  0  0
  182.2600  180.9970  138.5050 O   0  0  0  0  0  1  0  0  0  0  0  0
  187.3240  178.7630  140.4360 N   0  0  0  0  0  2  0  0  0  0  0  0
  188.5530  178.5580  141.1830 C   0  0  0  0  0  2  0  0  0  0  0  0
  188.4710  177.2560  141.9520 C   0  0  0  0  0  2  0  0  0  0  0  0
  187.5310  177.5130  143.4810 S   0  0  0  0  0  0  0  0  0  0  0  0
  188.8030  176.7040  144.4960 C   0  0  0  0  0  2  0  0  0  0  0  0
  189.3990  177.7130  147.8640 C   0  0  0  0  0  1  0  0  0  0  0  0
  189.4800  177.7220  145.4050 C   0  0  1  0  0  3  0  0  0  0  0  0
  189.9790  177.0370  146.6380 C   0  0  1  0  0  3  0  0  0  0  0  0
  192.0070  175.9050  146.8680 C   0  0  0  0  0  1  0  0  0  0  0  0
  191.7600  177.5710  145.3100 N   0  0  0  0  0  2  0  0  0  0  0  0
  190.6630  178.2560  144.7570 N   0  0  0  0  0  2  0  0  0  0  0  0
  191.4180  177.2110  146.6260 N   0  0  0  0  0  0  0  0  0  0  0  0
  1 23  1  1  0  0  0
  2 10  1  6  0  0  0
  4  1  1  6  0  0  0
  6  3  2  0  0  0  0
  7  4  1  0  0  0  0
  8  3  1  6  0  0  0
  8  4  1  0  0  0  0
  8  9  1  0  0  0  0
  8  2  1  0  0  0  0
  9  5  1  6  0  0  0
  9  2  1  0  0  0  0
 11  3  1  0  0  0  0
 11  7  1  0  0  0  0
 12 16  1  0  0  0  0
 12 13  1  0  0  0  0
 13 20  1  0  0  0  0
 13 15  1  0  0  0  0
 14 15  1  0  0  0  0
 14  1  1  1  0  0  0
 15 19  1  1  0  0  0
 16 17  1  6  0  0  0
 16 14  1  0  0  0  0
 19 18  2  0  0  0  0
 21 22  1  0  0  0  0
 21 20  1  0  0  0  0
 23 24  1  0  0  0  0
 24 25  1  0  0  0  0
 25 26  1  0  0  0  0
 26 27  1  0  0  0  0
 29 27  1  6  0  0  0
 29 30  1  0  0  0  0
 30 28  1  1  0  0  0
 32 34  1  0  0  0  0
 33 32  1  0  0  0  0
 33 29  1  0  0  0  0
 34 30  1  0  0  0  0
 34 31  1  0  0  0  0
M  END
>  <MODEL>
5

>  <REMARK>
 VINA RESULT:      -6.5      2.123      2.735
  Name = 
  11 active torsions:
  status: ('A' for Active; 'I' for Inactive)
    1  A    between atoms: C_3  and  C_13
    2  A    between atoms: C_3  and  S_17
    3  A    between atoms: C_4  and  C_31
    4  A    between atoms: N_5  and  C_18
    5  A    between atoms: N_5  and  C_31
    6  A    between atoms: N_8  and  C_27
    7  A    between atoms: C_12  and  C_27
    8  A    between atoms: S_17  and  C_29
    9  A    between atoms: C_18  and  C_29
   10  A    between atoms: C_21  and  C_31
   11  A    between atoms: C_26  and  C_28
                            x       y       z     vdW  Elec       q    Type
                         _______ _______ _______ _____ _____    ______ ____

>  <TORSDO>
F 11

$$$$
=
 OpenBabel10262419123D

 34 37  0  0  1  0  0  0  0  0999 V2000
  188.3030  177.6900  141.3300 C   0  0  2  0  0  3  0  0  0  0  0  0
  190.6830  178.7040  143.2240 C   0  0  2  0  0  3  0  0  0  0  0  0
  188.9240  177.3600  144.7260 C   0  0  0  0  0  0  0  0  0  0  0  0
  188.9050  176.8230  142.4490 C   0  0  2  0  0  3  0  0  0  0  0  0
  191.6640  177.1540  144.8170 O   0  0  0  0  0  1  0  0  0  0  0  0
  189.1090  177.8690  145.8640 O   0  0  0  0  0  0  0  0  0  0  0  0
  187.8650  176.1050  143.1160 O   0  0  0  0  0  0  0  0  0  0  0  0
  189.6650  177.6120  143.5060 C   0  0  1  0  0  0  0  0  0  0  0  0
  191.1490  177.2670  143.5200 C   0  0  1  0  0  3  0  0  0  0  0  0
  190.8330  179.5390  144.3360 O   0  0  0  0  0  1  0  0  0  0  0  0
  187.9110  176.4890  144.4150 O   0  0  0  0  0  0  0  0  0  0  0  0
  190.3520  176.7900  138.3420 C   0  0  0  0  0  2  0  0  0  0  0  0
  189.7510  178.0320  137.8680 N   0  0  0  0  0  0  0  0  0  0  0  0
  189.3110  177.9400  140.1950 C   0  0  2  0  0  3  0  0  0  0  0  0
  188.7150  178.3750  138.8560 C   0  0  2  0  0  3  0  0  0  0  0  0
  190.1450  176.7200  139.8490 C   0  0  2  0  0  3  0  0  0  0  0  0
  191.3780  176.7930  140.4940 O   0  0  0  0  0  1  0  0  0  0  0  0
  186.4340  178.3800  138.1170 O   0  0  0  0  0  0  0  0  0  0  0  0
  187.3640  177.7350  138.5750 C   0  0  0  0  0  3  0  0  0  0  0  0
  189.2410  177.8270  136.5140 C   0  0  0  0  0  2  0  0  0  0  0  0
  189.7040  176.4850  135.9740 C   0  0  0  0  0  2  0  0  0  0  0  0
  190.6700  176.6730  134.9840 O   0  0  0  0  0  1  0  0  0  0  0  0
  187.8030  178.9570  141.8550 N   0  0  0  0  0  2  0  0  0  0  0  0
  186.4590  179.1490  141.3380 C   0  0  0  0  0  2  0  0  0  0  0  0
  185.4480  178.6310  142.3390 C   0  0  0  0  0  2  0  0  0  0  0  0
  183.9760  178.0390  141.4620 S   0  0  0  0  0  0  0  0  0  0  0  0
  182.8570  179.0030  142.5220 C   0  0  0  0  0  2  0  0  0  0  0  0
  179.6610  178.9520  144.1010 C   0  0  0  0  0  1  0  0  0  0  0  0
  181.4720  178.3700  142.5400 C   0  0  1  0  0  3  0  0  0  0  0  0
  180.4530  179.4090  142.8930 C   0  0  1  0  0  3  0  0  0  0  0  0
  179.4390  180.9090  141.4210 C   0  0  0  0  0  1  0  0  0  0  0  0
  180.2640  178.9030  140.6720 N   0  0  0  0  0  2  0  0  0  0  0  0
  181.1150  177.9200  141.2090 N   0  0  0  0  0  2  0  0  0  0  0  0
  179.5740  179.5000  141.7440 N   0  0  0  0  0  0  0  0  0  0  0  0
  1 23  1  1  0  0  0
  2  8  1  0  0  0  0
  2  9  1  0  0  0  0
  2 10  1  1  0  0  0
  3  6  2  0  0  0  0
  4  1  1  6  0  0  0
  4  7  1  0  0  0  0
  4  8  1  0  0  0  0
  7 11  1  0  0  0  0
  8  9  1  0  0  0  0
  8  3  1  1  0  0  0
  9  5  1  1  0  0  0
 11  3  1  0  0  0  0
 12 16  1  0  0  0  0
 13 12  1  0  0  0  0
 13 15  1  0  0  0  0
 14  1  1  1  0  0  0
 15 19  1  6  0  0  0
 15 14  1  0  0  0  0
 16 14  1  0  0  0  0
 16 17  1  1  0  0  0
 18 19  2  0  0  0  0
 20 13  1  0  0  0  0
 21 20  1  0  0  0  0
 22 21  1  0  0  0  0
 24 23  1  0  0  0  0
 24 25  1  0  0  0  0
 26 25  1  0  0  0  0
 26 27  1  0  0  0  0
 29 27  1  6  0  0  0
 29 30  1  0  0  0  0
 30 28  1  1  0  0  0
 31 34  1  0  0  0  0
 32 33  1  0  0  0  0
 32 34  1  0  0  0  0
 33 29  1  0  0  0  0
 34 30  1  0  0  0  0
M  END
>  <MODEL>
6

>  <REMARK>
 VINA RESULT:      -6.2      3.012      7.983
  Name = 
  11 active torsions:
  status: ('A' for Active; 'I' for Inactive)
    1  A    between atoms: C_3  and  C_13
    2  A    between atoms: C_3  and  S_17
    3  A    between atoms: C_4  and  C_31
    4  A    between atoms: N_5  and  C_18
    5  A    between atoms: N_5  and  C_31
    6  A    between atoms: N_8  and  C_27
    7  A    between atoms: C_12  and  C_27
    8  A    between atoms: S_17  and  C_29
    9  A    between atoms: C_18  and  C_29
   10  A    between atoms: C_21  and  C_31
   11  A    between atoms: C_26  and  C_28
                            x       y       z     vdW  Elec       q    Type
                         _______ _______ _______ _____ _____    ______ ____

>  <TORSDO>
F 11

$$$$
=
 OpenBabel10262419123D

 34 37  0  0  1  0  0  0  0  0999 V2000
  187.4220  178.3750  142.2200 C   0  0  2  0  0  3  0  0  0  0  0  0
  190.4040  179.1800  143.0810 C   0  0  2  0  0  3  0  0  0  0  0  0
  189.6050  177.1390  144.6140 C   0  0  0  0  0  0  0  0  0  0  0  0
  188.5010  177.3330  142.5610 C   0  0  2  0  0  3  0  0  0  0  0  0
  192.0540  177.4260  143.3980 O   0  0  0  0  0  1  0  0  0  0  0  0
  190.3070  177.2980  145.6490 O   0  0  0  0  0  0  0  0  0  0  0  0
  187.9210  176.2650  143.3120 O   0  0  0  0  0  0  0  0  0  0  0  0
  189.6630  177.8850  143.3730 C   0  0  1  0  0  0  0  0  0  0  0  0
  190.9770  177.8340  142.6020 C   0  0  1  0  0  3  0  0  0  0  0  0
  191.0570  179.6460  144.2260 O   0  0  0  0  0  1  0  0  0  0  0  0
  188.5810  176.2330  144.4960 O   0  0  0  0  0  0  0  0  0  0  0  0
  184.1940  179.0070  143.9850 C   0  0  0  0  0  2  0  0  0  0  0  0
  183.7020  178.2880  142.8140 N   0  0  0  0  0  0  0  0  0  0  0  0
  186.0550  178.0000  142.8160 C   0  0  2  0  0  3  0  0  0  0  0  0
  184.8490  178.1910  141.8960 C   0  0  2  0  0  3  0  0  0  0  0  0
  185.7000  178.7980  144.0590 C   0  0  2  0  0  3  0  0  0  0  0  0
  186.0130  178.0590  145.1990 O   0  0  0  0  0  1  0  0  0  0  0  0
  184.5780  179.3640  139.8230 O   0  0  0  0  0  0  0  0  0  0  0  0
  184.9960  179.3880  140.9690 C   0  0  0  0  0  3  0  0  0  0  0  0
  182.5540  179.0050  142.2630 C   0  0  0  0  0  2  0  0  0  0  0  0
  181.4260  179.0540  143.2790 C   0  0  0  0  0  2  0  0  0  0  0  0
  180.4150  179.9070  142.8340 O   0  0  0  0  0  1  0  0  0  0  0  0
  187.3120  178.5670  140.7770 N   0  0  0  0  0  2  0  0  0  0  0  0
  188.3640  177.7880  140.1470 C   0  0  0  0  0  2  0  0  0  0  0  0
  189.0390  178.6160  139.0730 C   0  0  0  0  0  2  0  0  0  0  0  0
  188.4650  178.0750  137.4400 S   0  0  0  0  0  0  0  0  0  0  0  0
  189.9470  177.0580  137.1660 C   0  0  0  0  0  2  0  0  0  0  0  0
  188.5380  173.8050  136.7920 C   0  0  0  0  0  1  0  0  0  0  0  0
  189.7680  175.6840  137.7970 C   0  0  1  0  0  3  0  0  0  0  0  0
  189.8030  174.6360  136.7290 C   0  0  1  0  0  3  0  0  0  0  0  0
  191.7130  173.6550  135.8140 C   0  0  0  0  0  1  0  0  0  0  0  0
  191.7450  174.5400  137.9310 N   0  0  0  0  0  2  0  0  0  0  0  0
  190.8920  175.3860  138.6640 N   0  0  0  0  0  2  0  0  0  0  0  0
  190.9470  173.8000  137.0390 N   0  0  0  0  0  0  0  0  0  0  0  0
  1 23  1  6  0  0  0
  2  8  1  0  0  0  0
  2 10  1  1  0  0  0
  3  6  2  0  0  0  0
  4  1  1  1  0  0  0
  4  7  1  0  0  0  0
  4  8  1  0  0  0  0
  7 11  1  0  0  0  0
  8  3  1  1  0  0  0
  9  2  1  0  0  0  0
  9  8  1  0  0  0  0
  9  5  1  1  0  0  0
 11  3  1  0  0  0  0
 12 16  1  0  0  0  0
 13 12  1  0  0  0  0
 14  1  1  6  0  0  0
 14 16  1  0  0  0  0
 15 19  1  1  0  0  0
 15 13  1  0  0  0  0
 15 14  1  0  0  0  0
 16 17  1  1  0  0  0
 18 19  2  0  0  0  0
 20 13  1  0  0  0  0
 20 21  1  0  0  0  0
 22 21  1  0  0  0  0
 24 23  1  0  0  0  0
 25 24  1  0  0  0  0
 26 25  1  0  0  0  0
 27 26  1  0  0  0  0
 29 27  1  6  0  0  0
 29 33  1  0  0  0  0
 30 28  1  1  0  0  0
 30 34  1  0  0  0  0
 30 29  1  0  0  0  0
 31 34  1  0  0  0  0
 32 33  1  0  0  0  0
 34 32  1  0  0  0  0
M  END
>  <MODEL>
7

>  <REMARK>
 VINA RESULT:      -6.2      3.519      6.700
  Name = 
  11 active torsions:
  status: ('A' for Active; 'I' for Inactive)
    1  A    between atoms: C_3  and  C_13
    2  A    between atoms: C_3  and  S_17
    3  A    between atoms: C_4  and  C_31
    4  A    between atoms: N_5  and  C_18
    5  A    between atoms: N_5  and  C_31
    6  A    between atoms: N_8  and  C_27
    7  A    between atoms: C_12  and  C_27
    8  A    between atoms: S_17  and  C_29
    9  A    between atoms: C_18  and  C_29
   10  A    between atoms: C_21  and  C_31
   11  A    between atoms: C_26  and  C_28
                            x       y       z     vdW  Elec       q    Type
                         _______ _______ _______ _____ _____    ______ ____

>  <TORSDO>
F 11

$$$$
=
 OpenBabel10262419123D

 34 37  0  0  1  0  0  0  0  0999 V2000
  188.7330  178.0770  139.8270 C   0  0  2  0  0  3  0  0  0  0  0  0
  189.0210  175.8980  137.4930 C   0  0  2  0  0  3  0  0  0  0  0  0
  188.3930  178.2480  136.3800 C   0  0  0  0  0  0  0  0  0  0  0  0
  189.4130  178.3820  138.4810 C   0  0  2  0  0  3  0  0  0  0  0  0
  190.2920  176.4640  135.5020 O   0  0  0  0  0  1  0  0  0  0  0  0
  187.8280  177.8900  135.3120 O   0  0  0  0  0  0  0  0  0  0  0  0
  189.0510  179.6940  138.0440 O   0  0  0  0  0  0  0  0  0  0  0  0
  189.0470  177.4120  137.3670 C   0  0  1  0  0  0  0  0  0  0  0  0
  190.2500  176.6040  136.8950 C   0  0  1  0  0  3  0  0  0  0  0  0
  188.2110  175.3340  136.5030 O   0  0  0  0  0  1  0  0  0  0  0  0
  188.4380  179.5380  136.8450 O   0  0  0  0  0  0  0  0  0  0  0  0
  191.4130  177.2180  142.2800 C   0  0  0  0  0  2  0  0  0  0  0  0
  190.2950  176.4870  142.8650 N   0  0  0  0  0  0  0  0  0  0  0  0
  189.5850  177.1400  140.7010 C   0  0  2  0  0  3  0  0  0  0  0  0
  189.0990  176.9380  142.1360 C   0  0  2  0  0  3  0  0  0  0  0  0
  191.0210  177.6060  140.8600 C   0  0  2  0  0  3  0  0  0  0  0  0
  191.8380  176.9370  139.9510 O   0  0  0  0  0  1  0  0  0  0  0  0
  187.3140  178.1710  143.1580 O   0  0  0  0  0  0  0  0  0  0  0  0
  188.4550  178.1850  142.7230 C   0  0  0  0  0  3  0  0  0  0  0  0
  190.2530  176.7510  144.3020 C   0  0  0  0  0  2  0  0  0  0  0  0
  191.6370  177.1170  144.8110 C   0  0  0  0  0  2  0  0  0  0  0  0
  191.6760  177.0300  146.2030 O   0  0  0  0  0  1  0  0  0  0  0  0
  187.4000  177.5160  139.6300 N   0  0  0  0  0  2  0  0  0  0  0  0
  186.4420  178.6030  139.7420 C   0  0  0  0  0  2  0  0  0  0  0  0
  185.4220  178.5010  138.6280 C   0  0  0  0  0  2  0  0  0  0  0  0
  183.9060  179.3700  139.1120 S   0  0  0  0  0  0  0  0  0  0  0  0
  182.8940  177.8690  138.9430 C   0  0  0  0  0  2  0  0  0  0  0  0
  182.7250  178.6280  142.4220 C   0  0  0  0  0  1  0  0  0  0  0  0
  182.2880  177.4870  140.2870 C   0  0  1  0  0  3  0  0  0  0  0  0
  182.0210  178.7250  141.0850 C   0  0  1  0  0  3  0  0  0  0  0  0
  180.1310  180.0860  140.9380 C   0  0  0  0  0  1  0  0  0  0  0  0
  180.0340  177.8700  140.3480 N   0  0  0  0  0  2  0  0  0  0  0  0
  180.9900  176.8710  140.0880 N   0  0  0  0  0  2  0  0  0  0  0  0
  180.5870  178.7540  141.2940 N   0  0  0  0  0  0  0  0  0  0  0  0
  1 23  1  6  0  0  0
  2 10  1  6  0  0  0
  3 11  1  0  0  0  0
  4  1  1  1  0  0  0
  6  3  2  0  0  0  0
  7  4  1  0  0  0  0
  8  3  1  6  0  0  0
  8  2  1  0  0  0  0
  8  4  1  0  0  0  0
  9  5  1  6  0  0  0
  9  8  1  0  0  0  0
  9  2  1  0  0  0  0
 11  7  1  0  0  0  0
 12 13  1  0  0  0  0
 13 20  1  0  0  0  0
 14  1  1  1  0  0  0
 14 16  1  0  0  0  0
 14 15  1  0  0  0  0
 15 19  1  1  0  0  0
 15 13  1  0  0  0  0
 16 17  1  6  0  0  0
 16 12  1  0  0  0  0
 19 18  2  0  0  0  0
 20 21  1  0  0  0  0
 21 22  1  0  0  0  0
 23 24  1  0  0  0  0
 25 26  1  0  0  0  0
 25 24  1  0  0  0  0
 27 26  1  0  0  0  0
 29 27  1  6  0  0  0
 29 30  1  0  0  0  0
 30 34  1  0  0  0  0
 30 28  1  1  0  0  0
 31 34  1  0  0  0  0
 32 34  1  0  0  0  0
 33 29  1  0  0  0  0
 33 32  1  0  0  0  0
M  END
>  <MODEL>
8

>  <REMARK>
 VINA RESULT:      -6.1      2.708      6.570
  Name = 
  11 active torsions:
  status: ('A' for Active; 'I' for Inactive)
    1  A    between atoms: C_3  and  C_13
    2  A    between atoms: C_3  and  S_17
    3  A    between atoms: C_4  and  C_31
    4  A    between atoms: N_5  and  C_18
    5  A    between atoms: N_5  and  C_31
    6  A    between atoms: N_8  and  C_27
    7  A    between atoms: C_12  and  C_27
    8  A    between atoms: S_17  and  C_29
    9  A    between atoms: C_18  and  C_29
   10  A    between atoms: C_21  and  C_31
   11  A    between atoms: C_26  and  C_28
                            x       y       z     vdW  Elec       q    Type
                         _______ _______ _______ _____ _____    ______ ____

>  <TORSDO>
F 11

$$$$
=
 OpenBabel10262419123D

 34 37  0  0  1  0  0  0  0  0999 V2000
  188.0320  178.1970  142.8840 C   0  0  2  0  0  3  0  0  0  0  0  0
  189.8020  175.6180  143.5880 C   0  0  2  0  0  3  0  0  0  0  0  0
  191.4520  177.6470  143.0250 C   0  0  0  0  0  0  0  0  0  0  0  0
  189.3120  178.2720  143.7330 C   0  0  2  0  0  3  0  0  0  0  0  0
  191.6860  175.8600  145.1010 O   0  0  0  0  0  1  0  0  0  0  0  0
  192.4860  177.0420  142.6320 O   0  0  0  0  0  0  0  0  0  0  0  0
  190.0570  179.4400  143.3820 O   0  0  0  0  0  0  0  0  0  0  0  0
  190.2370  177.0740  143.5690 C   0  0  1  0  0  0  0  0  0  0  0  0
  190.3710  176.2740  144.8590 C   0  0  1  0  0  3  0  0  0  0  0  0
  190.7480  174.8110  142.9500 O   0  0  0  0  0  1  0  0  0  0  0  0
  191.2660  179.0040  142.9510 O   0  0  0  0  0  0  0  0  0  0  0  0
  185.4160  178.6690  145.5060 C   0  0  0  0  0  2  0  0  0  0  0  0
  184.5760  178.2610  144.3850 N   0  0  0  0  0  0  0  0  0  0  0  0
  186.8060  177.8050  143.7280 C   0  0  2  0  0  3  0  0  0  0  0  0
  185.4520  178.2810  143.2030 C   0  0  2  0  0  3  0  0  0  0  0  0
  186.8590  178.3360  145.1490 C   0  0  2  0  0  3  0  0  0  0  0  0
  187.3340  177.3450  146.0060 O   0  0  0  0  0  1  0  0  0  0  0  0
  185.3880  179.7530  141.3110 O   0  0  0  0  0  0  0  0  0  0  0  0
  185.5280  179.6380  142.5180 C   0  0  0  0  0  3  0  0  0  0  0  0
  183.4300  179.1650  144.2960 C   0  0  0  0  0  2  0  0  0  0  0  0
  182.3800  178.5920  143.3600 C   0  0  0  0  0  2  0  0  0  0  0  0
  181.1240  178.6280  143.9690 O   0  0  0  0  0  1  0  0  0  0  0  0
  188.1940  177.2750  141.7640 N   0  0  0  0  0  2  0  0  0  0  0  0
  188.5290  178.0630  140.5900 C   0  0  0  0  0  2  0  0  0  0  0  0
  189.6050  177.3580  139.7920 C   0  0  0  0  0  2  0  0  0  0  0  0
  189.4290  177.7740  138.0360 S   0  0  0  0  0  0  0  0  0  0  0  0
  187.8080  176.9600  137.9210 C   0  0  0  0  0  2  0  0  0  0  0  0
  185.8070  177.3790  135.0000 C   0  0  0  0  0  1  0  0  0  0  0  0
  186.8170  177.8570  137.1920 C   0  0  1  0  0  3  0  0  0  0  0  0
  185.8140  177.0120  136.4700 C   0  0  1  0  0  3  0  0  0  0  0  0
  183.8750  176.0850  137.3770 C   0  0  0  0  0  1  0  0  0  0  0  0
  184.8090  177.9760  138.2820 N   0  0  0  0  0  2  0  0  0  0  0  0
  186.0480  178.6280  138.1510 N   0  0  0  0  0  2  0  0  0  0  0  0
  184.5300  177.3400  137.0570 N   0  0  0  0  0  0  0  0  0  0  0  0
  1 23  1  6  0  0  0
  2 10  1  6  0  0  0
  2  9  1  0  0  0  0
  4  1  1  6  0  0  0
  6  3  2  0  0  0  0
  7  4  1  0  0  0  0
  8  3  1  6  0  0  0
  8  2  1  0  0  0  0
  8  4  1  0  0  0  0
  8  9  1  0  0  0  0
  9  5  1  6  0  0  0
 11  3  1  0  0  0  0
 11  7  1  0  0  0  0
 13 12  1  0  0  0  0
 14  1  1  6  0  0  0
 14 16  1  0  0  0  0
 15 19  1  1  0  0  0
 15 14  1  0  0  0  0
 15 13  1  0  0  0  0
 16 12  1  0  0  0  0
 16 17  1  1  0  0  0
 18 19  2  0  0  0  0
 20 13  1  0  0  0  0
 21 22  1  0  0  0  0
 21 20  1  0  0  0  0
 24 23  1  0  0  0  0
 25 24  1  0  0  0  0
 26 25  1  0  0  0  0
 27 26  1  0  0  0  0
 29 27  1  1  0  0  0
 29 33  1  0  0  0  0
 30 28  1  6  0  0  0
 30 34  1  0  0  0  0
 30 29  1  0  0  0  0
 33 32  1  0  0  0  0
 34 31  1  0  0  0  0
 34 32  1  0  0  0  0
M  END
>  <MODEL>
9

>  <REMARK>
 VINA RESULT:      -6.0      3.399      6.866
  Name = 
  11 active torsions:
  status: ('A' for Active; 'I' for Inactive)
    1  A    between atoms: C_3  and  C_13
    2  A    between atoms: C_3  and  S_17
    3  A    between atoms: C_4  and  C_31
    4  A    between atoms: N_5  and  C_18
    5  A    between atoms: N_5  and  C_31
    6  A    between atoms: N_8  and  C_27
    7  A    between atoms: C_12  and  C_27
    8  A    between atoms: S_17  and  C_29
    9  A    between atoms: C_18  and  C_29
   10  A    between atoms: C_21  and  C_31
   11  A    between atoms: C_26  and  C_28
                            x       y       z     vdW  Elec       q    Type
                         _______ _______ _______ _____ _____    ______ ____

>  <TORSDO>
F 11

$$$$
