=
 OpenBabel10262422403D

 43 50  0  0  1  0  0  0  0  0999 V2000
  182.0350  179.5990  138.5960 C   0  0  0  0  0  0  0  0  0  0  0  0
  183.9350  176.9390  134.8820 C   0  0  1  0  0  3  0  0  0  0  0  0
  183.7370  176.8470  137.8690 O   0  0  0  0  0  0  0  0  0  0  0  0
  183.4950  178.5210  140.3000 C   0  0  2  0  0  3  0  0  0  0  0  0
  181.4520  176.8540  135.1810 C   0  0  0  0  0  2  0  0  0  0  0  0
  185.1550  176.4060  135.6530 C   0  0  1  0  0  3  0  0  0  0  0  0
  186.1410  176.0370  134.7390 O   0  0  0  0  0  1  0  0  0  0  0  0
  185.0870  177.2990  138.0140 C   0  0  1  0  0  3  0  0  0  0  0  0
  182.7420  176.0570  135.2250 C   0  0  2  0  0  3  0  0  0  0  0  0
  185.7320  177.4270  136.6310 C   0  0  0  0  0  2  0  0  0  0  0  0
  184.8860  178.6490  140.0850 O   0  0  0  0  0  0  0  0  0  0  0  0
  185.1410  178.6820  138.6970 C   0  0  0  0  0  2  0  0  0  0  0  0
  182.8220  177.6110  137.1420 C   0  0  0  0  0  0  0  0  0  0  0  0
  182.2980  178.6180  137.7720 C   0  0  0  0  0  0  0  0  0  0  0  0
  182.7620  179.6540  139.7990 O   0  0  0  0  0  0  0  0  0  0  0  0
  182.7310  177.5150  135.6470 C   0  0  1  0  0  0  0  0  0  0  0  0
  180.4460  182.1190  136.3550 C   0  0  0  0  0  3  0  0  0  0  0  0
  179.2980  183.1870  138.2130 N   0  0  0  0  0  0  0  0  0  0  0  0
  179.9990  184.4150  136.3840 F   0  0  0  0  0  0  0  0  0  0  0  0
  180.3620  181.2460  139.2850 C   0  0  0  0  0  3  0  0  0  0  0  0
  180.8030  180.9400  136.8550 C   0  0  0  0  0  3  0  0  0  0  0  0
  181.0470  180.6550  138.2860 C   0  0  0  0  0  0  0  0  0  0  0  0
  180.3250  183.3460  137.1940 C   0  0  2  0  0  3  0  0  0  0  0  0
  179.3330  182.2980  139.1570 C   0  0  0  0  0  3  0  0  0  0  0  0
  183.1730  178.3240  141.7870 C   0  0  2  0  0  3  0  0  0  0  0  0
  181.8070  178.8960  142.1330 C   0  0  0  0  0  1  0  0  0  0  0  0
  184.2130  179.0360  142.6430 C   0  0  2  0  0  3  0  0  0  0  0  0
  184.8390  178.0760  143.6430 C   0  0  2  0  0  3  0  0  0  0  0  0
  183.7690  179.0480  144.0950 C   0  0  0  0  0  2  0  0  0  0  0  0
  186.2120  178.5980  144.0270 C   0  0  0  0  0  2  0  0  0  0  0  0
  187.0490  177.4980  144.4830 N   0  0  0  0  0  0  0  0  0  0  0  0
  189.3560  177.5790  145.2170 C   0  0  0  0  0  2  0  0  0  0  0  0
  187.0890  177.5560  145.9360 C   0  0  0  0  0  2  0  0  0  0  0  0
  188.4080  177.7810  144.0400 C   0  0  1  0  0  3  0  0  0  0  0  0
  188.4730  177.1350  146.3540 C   0  0  0  0  0  2  0  0  0  0  0  0
  188.7650  176.9060  142.8400 C   0  0  2  0  0  3  0  0  0  0  0  0
  189.5670  175.8210  143.2180 O   0  0  0  0  0  1  0  0  0  0  0  0
  189.3650  177.7600  141.7170 C   0  0  1  0  0  3  0  0  0  0  0  0
  188.8080  177.4320  140.3420 C   0  0  1  0  0  3  0  0  0  0  0  0
  188.3060  178.6470  141.1000 C   0  0  0  0  0  2  0  0  0  0  0  0
  189.8100  177.8750  139.2960 C   0  0  0  0  0  2  0  0  0  0  0  0
  189.2360  177.6560  137.9090 C   0  0  0  0  0  2  0  0  0  0  0  0
  189.0430  178.9960  137.2320 C   0  0  0  0  0  1  0  0  0  0  0  0
  1 15  1  0  0  0  0
  2  9  1  0  0  0  0
  2 16  1  0  0  0  0
  2  6  1  0  0  0  0
  3  8  1  0  0  0  0
  4 25  1  0  0  0  0
  5  9  1  0  0  0  0
  5 16  1  0  0  0  0
  6 10  1  0  0  0  0
  7  6  1  0  0  0  0
  8 12  1  0  0  0  0
  9 16  1  0  0  0  0
 10  8  1  0  0  0  0
 11  4  1  0  0  0  0
 12 11  1  0  0  0  0
 13 14  2  0  0  0  0
 13  3  1  0  0  0  0
 14  1  2  0  0  0  0
 15  4  1  0  0  0  0
 16 13  1  0  0  0  0
 17 21  2  0  0  0  0
 17 23  1  0  0  0  0
 18 24  2  0  0  0  0
 19 23  1  0  0  0  0
 21 22  1  0  0  0  0
 22  1  1  0  0  0  0
 22 20  2  0  0  0  0
 23 18  1  0  0  0  0
 24 20  1  0  0  0  0
 25 26  1  0  0  0  0
 25 27  1  0  0  0  0
 27 28  1  0  0  0  0
 27 29  1  0  0  0  0
 28 30  1  0  0  0  0
 28 29  1  0  0  0  0
 30 31  1  0  0  0  0
 31 33  1  0  0  0  0
 32 35  1  0  0  0  0
 33 35  1  0  0  0  0
 34 31  1  0  0  0  0
 34 32  1  0  0  0  0
 36 37  1  0  0  0  0
 36 34  1  0  0  0  0
 38 36  1  0  0  0  0
 39 40  1  0  0  0  0
 39 38  1  0  0  0  0
 40 38  1  0  0  0  0
 41 39  1  0  0  0  0
 42 41  1  0  0  0  0
 43 42  1  0  0  0  0
M  END
>  <MODEL>
1

>  <REMARK>
 VINA RESULT:      -8.3      0.000      0.000
  Name = 
  9 active torsions:
  status: ('A' for Active; 'I' for Inactive)
    1  A    between atoms: C_1  and  C_35
    2  A    between atoms: C_2  and  C_6
    3  A    between atoms: C_2  and  C_13
    4  A    between atoms: C_3  and  N_4
    5  A    between atoms: C_3  and  C_12
    6  A    between atoms: C_11  and  C_14
    7  A    between atoms: C_14  and  C_22
    8  A    between atoms: C_26  and  C_29
    9  A    between atoms: C_29  and  C_36
                            x       y       z     vdW  Elec       q    Type
                         _______ _______ _______ _____ _____    ______ ____

>  <TORSDO>
F 9

$$$$
=
 OpenBabel10262422403D

 43 50  0  0  1  0  0  0  0  0999 V2000
  188.2410  176.7570  138.2130 C   0  0  0  0  0  0  0  0  0  0  0  0
  191.5940  174.3640  135.4730 C   0  0  1  0  0  3  0  0  0  0  0  0
  191.0300  174.9690  138.3520 O   0  0  0  0  0  0  0  0  0  0  0  0
  189.7600  176.9250  140.1780 C   0  0  2  0  0  3  0  0  0  0  0  0
  189.3650  173.2610  135.7530 C   0  0  0  0  0  2  0  0  0  0  0  0
  192.8010  174.6500  136.3830 C   0  0  1  0  0  3  0  0  0  0  0  0
  193.9700  174.5370  135.6310 O   0  0  0  0  0  1  0  0  0  0  0  0
  192.0270  175.9960  138.3740 C   0  0  1  0  0  3  0  0  0  0  0  0
  190.8500  173.1650  136.0460 C   0  0  2  0  0  3  0  0  0  0  0  0
  192.7480  176.0350  137.0230 C   0  0  0  0  0  2  0  0  0  0  0  0
  190.9830  177.5990  139.9520 O   0  0  0  0  0  0  0  0  0  0  0  0
  191.3940  177.3820  138.6200 C   0  0  0  0  0  2  0  0  0  0  0  0
  189.9930  175.0280  137.4210 C   0  0  0  0  0  0  0  0  0  0  0  0
  189.0080  175.8210  137.7190 C   0  0  0  0  0  0  0  0  0  0  0  0
  188.6970  177.4390  139.3560 O   0  0  0  0  0  0  0  0  0  0  0  0
  190.1640  174.5190  136.0190 C   0  0  1  0  0  0  0  0  0  0  0  0
  184.8660  178.3400  138.2540 C   0  0  0  0  0  3  0  0  0  0  0  0
  184.2110  177.2200  136.1980 N   0  0  0  0  0  0  0  0  0  0  0  0
  182.6550  177.7000  137.8390 F   0  0  0  0  0  0  0  0  0  0  0  0
  186.5710  176.5700  136.4340 C   0  0  0  0  0  3  0  0  0  0  0  0
  186.1900  178.2190  138.2590 C   0  0  0  0  0  3  0  0  0  0  0  0
  186.9540  177.1410  137.5940 C   0  0  0  0  0  0  0  0  0  0  0  0
  183.9670  177.3280  137.6290 C   0  0  2  0  0  3  0  0  0  0  0  0
  185.3370  176.8460  135.6720 C   0  0  0  0  0  3  0  0  0  0  0  0
  189.3440  176.9970  141.6520 C   0  0  2  0  0  3  0  0  0  0  0  0
  188.1100  177.8670  141.8330 C   0  0  0  0  0  1  0  0  0  0  0  0
  190.4710  177.5990  142.4830 C   0  0  2  0  0  3  0  0  0  0  0  0
  190.2140  177.3990  143.9680 C   0  0  2  0  0  3  0  0  0  0  0  0
  189.9390  178.7430  143.3260 C   0  0  0  0  0  2  0  0  0  0  0  0
  191.5420  177.4350  144.7030 C   0  0  0  0  0  2  0  0  0  0  0  0
  191.3150  177.3420  146.1380 N   0  0  0  0  0  0  0  0  0  0  0  0
  190.0020  175.7010  147.3410 C   0  0  0  0  0  2  0  0  0  0  0  0
  192.1970  176.3050  146.6510 C   0  0  0  0  0  2  0  0  0  0  0  0
  189.9610  176.8380  146.3270 C   0  0  1  0  0  3  0  0  0  0  0  0
  191.4490  175.5980  147.7500 C   0  0  0  0  0  2  0  0  0  0  0  0
  189.0300  177.9720  146.7510 C   0  0  2  0  0  3  0  0  0  0  0  0
  189.3750  178.4710  148.0140 O   0  0  0  0  0  1  0  0  0  0  0  0
  187.5660  177.5310  146.6360 C   0  0  1  0  0  3  0  0  0  0  0  0
  186.7640  178.3450  145.6350 C   0  0  1  0  0  3  0  0  0  0  0  0
  187.2860  176.9700  145.2590 C   0  0  0  0  0  2  0  0  0  0  0  0
  185.2960  178.2410  145.9920 C   0  0  0  0  0  2  0  0  0  0  0  0
  184.4810  179.1410  145.0830 C   0  0  0  0  0  2  0  0  0  0  0  0
  184.4170  178.5270  143.7010 C   0  0  0  0  0  1  0  0  0  0  0  0
  1 15  1  0  0  0  0
  2 16  1  0  0  0  0
  2  9  1  0  0  0  0
  2  6  1  0  0  0  0
  3  8  1  0  0  0  0
  4 25  1  0  0  0  0
  5 16  1  0  0  0  0
  5  9  1  0  0  0  0
  6 10  1  0  0  0  0
  7  6  1  0  0  0  0
  8 12  1  0  0  0  0
 10  8  1  0  0  0  0
 11  4  1  0  0  0  0
 12 11  1  0  0  0  0
 13 14  2  0  0  0  0
 13  3  1  0  0  0  0
 14  1  2  0  0  0  0
 15  4  1  0  0  0  0
 16  9  1  0  0  0  0
 16 13  1  0  0  0  0
 17 21  2  0  0  0  0
 18 23  1  0  0  0  0
 20 22  2  0  0  0  0
 22  1  1  0  0  0  0
 22 21  1  0  0  0  0
 23 19  1  0  0  0  0
 23 17  1  0  0  0  0
 24 18  2  0  0  0  0
 24 20  1  0  0  0  0
 25 26  1  0  0  0  0
 25 27  1  0  0  0  0
 27 29  1  0  0  0  0
 27 28  1  0  0  0  0
 28 30  1  0  0  0  0
 29 28  1  0  0  0  0
 30 31  1  0  0  0  0
 31 34  1  0  0  0  0
 31 33  1  0  0  0  0
 32 35  1  0  0  0  0
 33 35  1  0  0  0  0
 34 36  1  0  0  0  0
 34 32  1  0  0  0  0
 36 37  1  0  0  0  0
 38 36  1  0  0  0  0
 39 41  1  0  0  0  0
 39 38  1  0  0  0  0
 40 39  1  0  0  0  0
 40 38  1  0  0  0  0
 42 41  1  0  0  0  0
 43 42  1  0  0  0  0
M  END
>  <MODEL>
2

>  <REMARK>
 VINA RESULT:      -7.8      3.637      6.743
  Name = 
  9 active torsions:
  status: ('A' for Active; 'I' for Inactive)
    1  A    between atoms: C_1  and  C_35
    2  A    between atoms: C_2  and  C_6
    3  A    between atoms: C_2  and  C_13
    4  A    between atoms: C_3  and  N_4
    5  A    between atoms: C_3  and  C_12
    6  A    between atoms: C_11  and  C_14
    7  A    between atoms: C_14  and  C_22
    8  A    between atoms: C_26  and  C_29
    9  A    between atoms: C_29  and  C_36
                            x       y       z     vdW  Elec       q    Type
                         _______ _______ _______ _____ _____    ______ ____

>  <TORSDO>
F 9

$$$$
=
 OpenBabel10262422403D

 43 50  0  0  1  0  0  0  0  0999 V2000
  188.4150  177.2730  139.0200 C   0  0  0  0  0  0  0  0  0  0  0  0
  190.3020  174.1970  135.6340 C   0  0  1  0  0  3  0  0  0  0  0  0
  190.8230  175.0650  138.4540 O   0  0  0  0  0  0  0  0  0  0  0  0
  190.5140  177.3120  140.3580 C   0  0  2  0  0  3  0  0  0  0  0  0
  188.1700  173.4940  136.7410 C   0  0  0  0  0  2  0  0  0  0  0  0
  191.7710  174.3380  136.0680 C   0  0  1  0  0  3  0  0  0  0  0  0
  192.5930  173.9890  134.9980 O   0  0  0  0  0  1  0  0  0  0  0  0
  191.8980  175.9140  138.0380 C   0  0  1  0  0  3  0  0  0  0  0  0
  189.6400  173.1750  136.5490 C   0  0  2  0  0  3  0  0  0  0  0  0
  192.1210  175.7510  136.5310 C   0  0  0  0  0  2  0  0  0  0  0  0
  191.6680  177.7610  139.6760 O   0  0  0  0  0  0  0  0  0  0  0  0
  191.5750  177.3970  138.3160 C   0  0  0  0  0  2  0  0  0  0  0  0
  189.5510  175.2350  137.9060 C   0  0  0  0  0  0  0  0  0  0  0  0
  188.8390  176.1950  138.4140 C   0  0  0  0  0  0  0  0  0  0  0  0
  189.3150  177.9410  139.8700 O   0  0  0  0  0  0  0  0  0  0  0  0
  189.1730  174.6180  136.5910 C   0  0  1  0  0  0  0  0  0  0  0  0
  185.2050  178.7630  140.1940 C   0  0  0  0  0  3  0  0  0  0  0  0
  184.1110  178.3130  138.0700 N   0  0  0  0  0  0  0  0  0  0  0  0
  182.9230  178.2720  140.0530 F   0  0  0  0  0  0  0  0  0  0  0  0
  186.4320  177.6280  137.6320 C   0  0  0  0  0  3  0  0  0  0  0  0
  186.4970  178.6490  139.9010 C   0  0  0  0  0  3  0  0  0  0  0  0
  187.0590  177.8230  138.8090 C   0  0  0  0  0  0  0  0  0  0  0  0
  184.1480  177.9840  139.4870 C   0  0  2  0  0  3  0  0  0  0  0  0
  185.0930  178.1170  137.2450 C   0  0  0  0  0  3  0  0  0  0  0  0
  190.6300  177.5420  141.8700 C   0  0  2  0  0  3  0  0  0  0  0  0
  191.8410  176.8230  142.4440 C   0  0  0  0  0  1  0  0  0  0  0  0
  189.3890  177.0100  142.5740 C   0  0  2  0  0  3  0  0  0  0  0  0
  189.6230  176.8990  144.0730 C   0  0  2  0  0  3  0  0  0  0  0  0
  189.6880  175.6610  143.2040 C   0  0  0  0  0  2  0  0  0  0  0  0
  188.2830  176.9670  144.7830 C   0  0  0  0  0  2  0  0  0  0  0  0
  188.3280  177.9780  145.8290 N   0  0  0  0  0  0  0  0  0  0  0  0
  187.5410  177.8030  148.1130 C   0  0  0  0  0  2  0  0  0  0  0  0
  189.4480  177.6530  146.6990 C   0  0  0  0  0  2  0  0  0  0  0  0
  187.1320  177.8060  146.6450 C   0  0  1  0  0  3  0  0  0  0  0  0
  189.0330  178.0140  148.1010 C   0  0  0  0  0  2  0  0  0  0  0  0
  186.1110  178.8950  146.3190 C   0  0  2  0  0  3  0  0  0  0  0  0
  185.7500  179.6160  147.4650 O   0  0  0  0  0  1  0  0  0  0  0  0
  184.9190  178.2970  145.5610 C   0  0  1  0  0  3  0  0  0  0  0  0
  184.1700  179.3120  144.7140 C   0  0  1  0  0  3  0  0  0  0  0  0
  185.1560  178.3560  144.0680 C   0  0  0  0  0  2  0  0  0  0  0  0
  182.7610  178.8060  144.4860 C   0  0  0  0  0  2  0  0  0  0  0  0
  182.3570  179.0410  143.0440 C   0  0  0  0  0  2  0  0  0  0  0  0
  180.8470  179.1000  142.9520 C   0  0  0  0  0  1  0  0  0  0  0  0
  1 15  1  0  0  0  0
  2  6  1  0  0  0  0
  2  9  1  0  0  0  0
  2 16  1  0  0  0  0
  4 25  1  0  0  0  0
  6 10  1  0  0  0  0
  7  6  1  0  0  0  0
  8 12  1  0  0  0  0
  8  3  1  0  0  0  0
  9 16  1  0  0  0  0
  9  5  1  0  0  0  0
 10  8  1  0  0  0  0
 11  4  1  0  0  0  0
 12 11  1  0  0  0  0
 13 14  2  0  0  0  0
 13  3  1  0  0  0  0
 14  1  2  0  0  0  0
 15  4  1  0  0  0  0
 16  5  1  0  0  0  0
 16 13  1  0  0  0  0
 18 23  1  0  0  0  0
 20 22  2  0  0  0  0
 21 17  2  0  0  0  0
 22  1  1  0  0  0  0
 22 21  1  0  0  0  0
 23 19  1  0  0  0  0
 23 17  1  0  0  0  0
 24 20  1  0  0  0  0
 24 18  2  0  0  0  0
 25 26  1  0  0  0  0
 25 27  1  0  0  0  0
 27 29  1  0  0  0  0
 27 28  1  0  0  0  0
 28 30  1  0  0  0  0
 29 28  1  0  0  0  0
 30 31  1  0  0  0  0
 31 34  1  0  0  0  0
 31 33  1  0  0  0  0
 33 35  1  0  0  0  0
 34 32  1  0  0  0  0
 35 32  1  0  0  0  0
 36 34  1  0  0  0  0
 36 37  1  0  0  0  0
 38 36  1  0  0  0  0
 39 38  1  0  0  0  0
 40 39  1  0  0  0  0
 40 38  1  0  0  0  0
 41 39  1  0  0  0  0
 42 41  1  0  0  0  0
 43 42  1  0  0  0  0
M  END
>  <MODEL>
3

>  <REMARK>
 VINA RESULT:      -7.7      3.598      6.679
  Name = 
  9 active torsions:
  status: ('A' for Active; 'I' for Inactive)
    1  A    between atoms: C_1  and  C_35
    2  A    between atoms: C_2  and  C_6
    3  A    between atoms: C_2  and  C_13
    4  A    between atoms: C_3  and  N_4
    5  A    between atoms: C_3  and  C_12
    6  A    between atoms: C_11  and  C_14
    7  A    between atoms: C_14  and  C_22
    8  A    between atoms: C_26  and  C_29
    9  A    between atoms: C_29  and  C_36
                            x       y       z     vdW  Elec       q    Type
                         _______ _______ _______ _____ _____    ______ ____

>  <TORSDO>
F 9

$$$$
=
 OpenBabel10262422403D

 43 50  0  0  1  0  0  0  0  0999 V2000
  184.4020  176.2670  137.1860 C   0  0  0  0  0  0  0  0  0  0  0  0
  180.3880  178.6550  138.8200 C   0  0  1  0  0  3  0  0  0  0  0  0
  183.2040  179.2530  137.9920 O   0  0  0  0  0  0  0  0  0  0  0  0
  185.9360  178.1210  137.8240 C   0  0  2  0  0  3  0  0  0  0  0  0
  180.3510  177.8730  136.4430 C   0  0  0  0  0  2  0  0  0  0  0  0
  181.1380  179.7420  139.6080 C   0  0  1  0  0  3  0  0  0  0  0  0
  180.2870  180.2620  140.5820 O   0  0  0  0  0  1  0  0  0  0  0  0
  183.6240  179.3700  139.3560 C   0  0  1  0  0  3  0  0  0  0  0  0
  180.3460  179.0820  137.3590 C   0  0  2  0  0  3  0  0  0  0  0  0
  182.4090  179.2210  140.2770 C   0  0  0  0  0  2  0  0  0  0  0  0
  185.9310  178.4780  139.1920 O   0  0  0  0  0  0  0  0  0  0  0  0
  184.6410  178.2690  139.7230 C   0  0  0  0  0  2  0  0  0  0  0  0
  182.5920  178.0780  137.5520 C   0  0  0  0  0  0  0  0  0  0  0  0
  183.3920  177.0930  137.2740 C   0  0  0  0  0  0  0  0  0  0  0  0
  185.6570  176.7230  137.6270 O   0  0  0  0  0  0  0  0  0  0  0  0
  181.1230  177.8370  137.7440 C   0  0  1  0  0  0  0  0  0  0  0  0
  182.6070  173.0150  136.8660 C   0  0  0  0  0  3  0  0  0  0  0  0
  184.5870  171.8990  136.0040 N   0  0  0  0  0  0  0  0  0  0  0  0
  183.0420  170.7560  137.2880 F   0  0  0  0  0  0  0  0  0  0  0  0
  185.3210  174.2400  136.1700 C   0  0  0  0  0  3  0  0  0  0  0  0
  182.8940  174.3050  136.7150 C   0  0  0  0  0  3  0  0  0  0  0  0
  184.2560  174.8820  136.6890 C   0  0  0  0  0  0  0  0  0  0  0  0
  183.6520  171.9820  137.1160 C   0  0  2  0  0  3  0  0  0  0  0  0
  185.3520  172.8720  135.6140 C   0  0  0  0  0  3  0  0  0  0  0  0
  187.2710  178.4730  137.1570 C   0  0  2  0  0  3  0  0  0  0  0  0
  187.1610  178.4100  135.6410 C   0  0  0  0  0  1  0  0  0  0  0  0
  188.3470  177.4850  137.5920 C   0  0  2  0  0  3  0  0  0  0  0  0
  189.4120  178.1800  138.4270 C   0  0  2  0  0  3  0  0  0  0  0  0
  189.6790  177.8620  136.9700 C   0  0  0  0  0  2  0  0  0  0  0  0
  190.0840  177.1490  139.3160 C   0  0  0  0  0  2  0  0  0  0  0  0
  190.3100  177.7110  140.6400 N   0  0  0  0  0  0  0  0  0  0  0  0
  190.4470  176.5420  142.7570 C   0  0  0  0  0  2  0  0  0  0  0  0
  191.7080  177.4870  140.9740 C   0  0  0  0  0  2  0  0  0  0  0  0
  189.5450  176.9070  141.5830 C   0  0  1  0  0  3  0  0  0  0  0  0
  191.7660  177.2060  142.4530 C   0  0  0  0  0  2  0  0  0  0  0  0
  188.2880  177.6580  142.0190 C   0  0  2  0  0  3  0  0  0  0  0  0
  188.2840  178.9730  141.5330 O   0  0  0  0  0  1  0  0  0  0  0  0
  188.1070  177.5580  143.5380 C   0  0  1  0  0  3  0  0  0  0  0  0
  186.6700  177.7560  143.9920 C   0  0  1  0  0  3  0  0  0  0  0  0
  187.2550  176.3590  143.8940 C   0  0  0  0  0  2  0  0  0  0  0  0
  186.6770  178.2000  145.4400 C   0  0  0  0  0  2  0  0  0  0  0  0
  185.2690  178.5600  145.8740 C   0  0  0  0  0  2  0  0  0  0  0  0
  184.4710  178.9970  144.6640 C   0  0  0  0  0  1  0  0  0  0  0  0
  1 14  2  0  0  0  0
  1 15  1  0  0  0  0
  2  6  1  0  0  0  0
  3  8  1  0  0  0  0
  4 11  1  0  0  0  0
  5  9  1  0  0  0  0
  5 16  1  0  0  0  0
  6 10  1  0  0  0  0
  6  7  1  0  0  0  0
  8 12  1  0  0  0  0
  8 10  1  0  0  0  0
  9 16  1  0  0  0  0
  9  2  1  0  0  0  0
 11 12  1  0  0  0  0
 13 16  1  0  0  0  0
 13  3  1  0  0  0  0
 14 13  2  0  0  0  0
 15  4  1  0  0  0  0
 16  2  1  0  0  0  0
 17 23  1  0  0  0  0
 18 23  1  0  0  0  0
 20 22  2  0  0  0  0
 21 17  2  0  0  0  0
 22 21  1  0  0  0  0
 22  1  1  0  0  0  0
 23 19  1  0  0  0  0
 24 18  2  0  0  0  0
 24 20  1  0  0  0  0
 25 27  1  0  0  0  0
 25  4  1  0  0  0  0
 26 25  1  0  0  0  0
 27 28  1  0  0  0  0
 28 30  1  0  0  0  0
 29 27  1  0  0  0  0
 29 28  1  0  0  0  0
 30 31  1  0  0  0  0
 31 33  1  0  0  0  0
 31 34  1  0  0  0  0
 33 35  1  0  0  0  0
 34 36  1  0  0  0  0
 34 32  1  0  0  0  0
 35 32  1  0  0  0  0
 36 38  1  0  0  0  0
 37 36  1  0  0  0  0
 38 40  1  0  0  0  0
 38 39  1  0  0  0  0
 39 41  1  0  0  0  0
 40 39  1  0  0  0  0
 41 42  1  0  0  0  0
 43 42  1  0  0  0  0
M  END
>  <MODEL>
4

>  <REMARK>
 VINA RESULT:      -7.7      3.497      6.635
  Name = 
  9 active torsions:
  status: ('A' for Active; 'I' for Inactive)
    1  A    between atoms: C_1  and  C_35
    2  A    between atoms: C_2  and  C_6
    3  A    between atoms: C_2  and  C_13
    4  A    between atoms: C_3  and  N_4
    5  A    between atoms: C_3  and  C_12
    6  A    between atoms: C_11  and  C_14
    7  A    between atoms: C_14  and  C_22
    8  A    between atoms: C_26  and  C_29
    9  A    between atoms: C_29  and  C_36
                            x       y       z     vdW  Elec       q    Type
                         _______ _______ _______ _____ _____    ______ ____

>  <TORSDO>
F 9

$$$$
=
 OpenBabel10262422403D

 43 50  0  0  1  0  0  0  0  0999 V2000
  187.7700  177.6660  144.0480 C   0  0  0  0  0  0  0  0  0  0  0  0
  190.9820  176.3530  147.5750 C   0  0  1  0  0  3  0  0  0  0  0  0
  190.9960  177.3920  144.7650 O   0  0  0  0  0  0  0  0  0  0  0  0
  189.4600  177.4530  142.2330 C   0  0  2  0  0  3  0  0  0  0  0  0
  189.7970  178.5360  147.8790 C   0  0  0  0  0  2  0  0  0  0  0  0
  192.0710  175.8160  146.6300 C   0  0  1  0  0  3  0  0  0  0  0  0
  192.8790  174.9240  147.3330 O   0  0  0  0  0  1  0  0  0  0  0  0
  191.2950  176.0940  144.2420 C   0  0  1  0  0  3  0  0  0  0  0  0
  191.1390  177.8660  147.6560 C   0  0  2  0  0  3  0  0  0  0  0  0
  191.4970  175.1130  145.4020 C   0  0  0  0  0  2  0  0  0  0  0  0
  190.0550  176.1780  142.0970 O   0  0  0  0  0  0  0  0  0  0  0  0
  190.1400  175.5660  143.3650 C   0  0  0  0  0  2  0  0  0  0  0  0
  189.8650  177.5770  145.5610 C   0  0  0  0  0  0  0  0  0  0  0  0
  188.7380  177.6960  144.9260 C   0  0  0  0  0  0  0  0  0  0  0  0
  188.1060  177.3710  142.7150 O   0  0  0  0  0  0  0  0  0  0  0  0
  189.8830  177.2840  147.0330 C   0  0  1  0  0  0  0  0  0  0  0  0
  184.2170  178.4940  143.2770 C   0  0  0  0  0  3  0  0  0  0  0  0
  183.6930  178.8550  145.6240 N   0  0  0  0  0  0  0  0  0  0  0  0
  182.6220  180.0590  143.9670 F   0  0  0  0  0  0  0  0  0  0  0  0
  186.0170  178.0540  145.7110 C   0  0  0  0  0  3  0  0  0  0  0  0
  185.3620  177.8200  143.3210 C   0  0  0  0  0  3  0  0  0  0  0  0
  186.3550  177.8860  144.4170 C   0  0  0  0  0  0  0  0  0  0  0  0
  183.8270  179.4860  144.3200 C   0  0  2  0  0  3  0  0  0  0  0  0
  184.6610  178.2650  146.2560 C   0  0  0  0  0  3  0  0  0  0  0  0
  189.4830  178.2290  140.9100 C   0  0  2  0  0  3  0  0  0  0  0  0
  188.3710  179.2650  140.8610 C   0  0  0  0  0  1  0  0  0  0  0  0
  189.2860  177.2700  139.7420 C   0  0  2  0  0  3  0  0  0  0  0  0
  190.5450  177.1850  138.8940 C   0  0  2  0  0  3  0  0  0  0  0  0
  189.3750  178.0270  138.4290 C   0  0  0  0  0  2  0  0  0  0  0  0
  190.5510  175.8550  138.1620 C   0  0  0  0  0  2  0  0  0  0  0  0
  191.5720  175.8670  137.1240 N   0  0  0  0  0  0  0  0  0  0  0  0
  192.6640  173.9750  136.0780 C   0  0  0  0  0  2  0  0  0  0  0  0
  190.9120  175.5700  135.8620 C   0  0  0  0  0  2  0  0  0  0  0  0
  192.4590  174.7390  137.3810 C   0  0  1  0  0  3  0  0  0  0  0  0
  191.8720  174.7410  135.0500 C   0  0  0  0  0  2  0  0  0  0  0  0
  193.7720  175.2290  137.9900 C   0  0  2  0  0  3  0  0  0  0  0  0
  193.9620  176.5980  137.7620 O   0  0  0  0  0  1  0  0  0  0  0  0
  194.9380  174.3530  137.5150 C   0  0  1  0  0  3  0  0  0  0  0  0
  196.0470  174.2100  138.5440 C   0  0  1  0  0  3  0  0  0  0  0  0
  195.0340  173.0960  138.3510 C   0  0  0  0  0  2  0  0  0  0  0  0
  197.3290  173.8470  137.8250 C   0  0  0  0  0  2  0  0  0  0  0  0
  198.4610  174.7290  138.3170 C   0  0  0  0  0  2  0  0  0  0  0  0
  198.1220  175.2520  139.6970 C   0  0  0  0  0  1  0  0  0  0  0  0
  1 22  1  0  0  0  0
  1 14  2  0  0  0  0
  2  9  1  0  0  0  0
  3 13  1  0  0  0  0
  4 15  1  0  0  0  0
  6  7  1  0  0  0  0
  6  2  1  0  0  0  0
  8  3  1  0  0  0  0
  8 10  1  0  0  0  0
  9  5  1  0  0  0  0
 10  6  1  0  0  0  0
 11  4  1  0  0  0  0
 11 12  1  0  0  0  0
 12  8  1  0  0  0  0
 13 16  1  0  0  0  0
 14 13  2  0  0  0  0
 15  1  1  0  0  0  0
 16  2  1  0  0  0  0
 16  9  1  0  0  0  0
 16  5  1  0  0  0  0
 17 21  2  0  0  0  0
 17 23  1  0  0  0  0
 18 24  2  0  0  0  0
 19 23  1  0  0  0  0
 20 24  1  0  0  0  0
 21 22  1  0  0  0  0
 22 20  2  0  0  0  0
 23 18  1  0  0  0  0
 25  4  1  0  0  0  0
 26 25  1  0  0  0  0
 27 25  1  0  0  0  0
 28 27  1  0  0  0  0
 29 28  1  0  0  0  0
 29 27  1  0  0  0  0
 30 28  1  0  0  0  0
 31 34  1  0  0  0  0
 31 30  1  0  0  0  0
 32 34  1  0  0  0  0
 33 31  1  0  0  0  0
 34 36  1  0  0  0  0
 35 33  1  0  0  0  0
 35 32  1  0  0  0  0
 37 36  1  0  0  0  0
 38 36  1  0  0  0  0
 38 40  1  0  0  0  0
 38 39  1  0  0  0  0
 40 39  1  0  0  0  0
 41 42  1  0  0  0  0
 41 39  1  0  0  0  0
 42 43  1  0  0  0  0
M  END
>  <MODEL>
5

>  <REMARK>
 VINA RESULT:      -7.5      5.175      9.692
  Name = 
  9 active torsions:
  status: ('A' for Active; 'I' for Inactive)
    1  A    between atoms: C_1  and  C_35
    2  A    between atoms: C_2  and  C_6
    3  A    between atoms: C_2  and  C_13
    4  A    between atoms: C_3  and  N_4
    5  A    between atoms: C_3  and  C_12
    6  A    between atoms: C_11  and  C_14
    7  A    between atoms: C_14  and  C_22
    8  A    between atoms: C_26  and  C_29
    9  A    between atoms: C_29  and  C_36
                            x       y       z     vdW  Elec       q    Type
                         _______ _______ _______ _____ _____    ______ ____

>  <TORSDO>
F 9

$$$$
=
 OpenBabel10262422403D

 43 50  0  0  1  0  0  0  0  0999 V2000
  189.5040  176.8470  139.2770 C   0  0  0  0  0  0  0  0  0  0  0  0
  192.8680  174.3080  136.6850 C   0  0  1  0  0  3  0  0  0  0  0  0
  190.3210  175.8190  136.2320 O   0  0  0  0  0  0  0  0  0  0  0  0
  187.7740  176.6410  137.4990 C   0  0  2  0  0  3  0  0  0  0  0  0
  193.5320  176.5880  137.4750 C   0  0  0  0  0  2  0  0  0  0  0  0
  191.8950  173.7500  135.6330 C   0  0  1  0  0  3  0  0  0  0  0  0
  192.4510  172.6040  135.0670 O   0  0  0  0  0  1  0  0  0  0  0  0
  189.5710  174.6050  136.1290 C   0  0  1  0  0  3  0  0  0  0  0  0
  193.2520  175.7200  136.2630 C   0  0  2  0  0  3  0  0  0  0  0  0
  190.5240  173.4090  136.2130 C   0  0  0  0  0  2  0  0  0  0  0  0
  187.4210  175.3210  137.1370 O   0  0  0  0  0  0  0  0  0  0  0  0
  188.5470  174.4830  137.2780 C   0  0  0  0  0  2  0  0  0  0  0  0
  191.0780  176.0730  137.3770 C   0  0  0  0  0  0  0  0  0  0  0  0
  190.4200  176.5250  138.4020 C   0  0  0  0  0  0  0  0  0  0  0  0
  188.1580  176.7390  138.8830 O   0  0  0  0  0  0  0  0  0  0  0  0
  192.4630  175.5190  137.5430 C   0  0  1  0  0  0  0  0  0  0  0  0
  191.8060  177.2140  142.1870 C   0  0  0  0  0  3  0  0  0  0  0  0
  189.9670  177.7030  143.7000 N   0  0  0  0  0  0  0  0  0  0  0  0
  191.8520  176.5870  144.4400 F   0  0  0  0  0  0  0  0  0  0  0  0
  188.8450  177.5840  141.5150 C   0  0  0  0  0  3  0  0  0  0  0  0
  191.2700  177.4050  140.9850 C   0  0  0  0  0  3  0  0  0  0  0  0
  189.8340  177.2690  140.6560 C   0  0  0  0  0  0  0  0  0  0  0  0
  191.0100  176.7480  143.3580 C   0  0  2  0  0  3  0  0  0  0  0  0
  188.9920  178.0390  142.9130 C   0  0  0  0  0  3  0  0  0  0  0  0
  186.6320  177.6250  137.2170 C   0  0  2  0  0  3  0  0  0  0  0  0
  187.0300  178.6390  136.1560 C   0  0  0  0  0  1  0  0  0  0  0  0
  186.2770  178.3880  138.4880 C   0  0  2  0  0  3  0  0  0  0  0  0
  184.8460  178.0960  138.9120 C   0  0  2  0  0  3  0  0  0  0  0  0
  185.1750  179.3920  138.1990 C   0  0  0  0  0  2  0  0  0  0  0  0
  184.7190  178.3410  140.4040 C   0  0  0  0  0  2  0  0  0  0  0  0
  183.4690  177.7780  140.8930 N   0  0  0  0  0  0  0  0  0  0  0  0
  181.4000  178.9360  141.3890 C   0  0  0  0  0  2  0  0  0  0  0  0
  182.5700  177.6630  139.7550 C   0  0  0  0  0  2  0  0  0  0  0  0
  182.8660  178.7710  141.7730 C   0  0  1  0  0  3  0  0  0  0  0  0
  181.1830  177.9610  140.2600 C   0  0  0  0  0  2  0  0  0  0  0  0
  183.0500  178.3620  143.2340 C   0  0  2  0  0  3  0  0  0  0  0  0
  181.9020  178.6340  143.9900 O   0  0  0  0  0  1  0  0  0  0  0  0
  184.3300  178.9850  143.8040 C   0  0  1  0  0  3  0  0  0  0  0  0
  184.8130  178.3160  145.0800 C   0  0  1  0  0  3  0  0  0  0  0  0
  185.4720  177.9940  143.7510 C   0  0  0  0  0  2  0  0  0  0  0  0
  185.6800  179.2970  145.8420 C   0  0  0  0  0  2  0  0  0  0  0  0
  186.1160  178.6830  147.1580 C   0  0  0  0  0  2  0  0  0  0  0  0
  187.3920  177.8980  146.9430 C   0  0  0  0  0  1  0  0  0  0  0  0
  1 22  1  0  0  0  0
  2 16  1  0  0  0  0
  3 13  1  0  0  0  0
  4 15  1  0  0  0  0
  5 16  1  0  0  0  0
  6 10  1  0  0  0  0
  6  2  1  0  0  0  0
  7  6  1  0  0  0  0
  8 10  1  0  0  0  0
  8  3  1  0  0  0  0
  8 12  1  0  0  0  0
  9  2  1  0  0  0  0
  9  5  1  0  0  0  0
  9 16  1  0  0  0  0
 11 12  1  0  0  0  0
 11  4  1  0  0  0  0
 13 16  1  0  0  0  0
 13 14  2  0  0  0  0
 14  1  2  0  0  0  0
 15  1  1  0  0  0  0
 17 23  1  0  0  0  0
 20 24  1  0  0  0  0
 21 17  2  0  0  0  0
 22 21  1  0  0  0  0
 22 20  2  0  0  0  0
 23 18  1  0  0  0  0
 23 19  1  0  0  0  0
 24 18  2  0  0  0  0
 25  4  1  0  0  0  0
 25 27  1  0  0  0  0
 26 25  1  0  0  0  0
 27 28  1  0  0  0  0
 28 30  1  0  0  0  0
 29 27  1  0  0  0  0
 29 28  1  0  0  0  0
 30 31  1  0  0  0  0
 31 34  1  0  0  0  0
 32 34  1  0  0  0  0
 33 35  1  0  0  0  0
 33 31  1  0  0  0  0
 34 36  1  0  0  0  0
 35 32  1  0  0  0  0
 36 38  1  0  0  0  0
 36 37  1  0  0  0  0
 38 39  1  0  0  0  0
 39 41  1  0  0  0  0
 40 38  1  0  0  0  0
 40 39  1  0  0  0  0
 41 42  1  0  0  0  0
 43 42  1  0  0  0  0
M  END
>  <MODEL>
6

>  <REMARK>
 VINA RESULT:      -7.3      3.961      8.640
  Name = 
  9 active torsions:
  status: ('A' for Active; 'I' for Inactive)
    1  A    between atoms: C_1  and  C_35
    2  A    between atoms: C_2  and  C_6
    3  A    between atoms: C_2  and  C_13
    4  A    between atoms: C_3  and  N_4
    5  A    between atoms: C_3  and  C_12
    6  A    between atoms: C_11  and  C_14
    7  A    between atoms: C_14  and  C_22
    8  A    between atoms: C_26  and  C_29
    9  A    between atoms: C_29  and  C_36
                            x       y       z     vdW  Elec       q    Type
                         _______ _______ _______ _____ _____    ______ ____

>  <TORSDO>
F 9

$$$$
=
 OpenBabel10262422403D

 43 50  0  0  1  0  0  0  0  0999 V2000
  190.1720  176.2010  138.4260 C   0  0  0  0  0  0  0  0  0  0  0  0
  194.2320  174.2560  136.3720 C   0  0  1  0  0  3  0  0  0  0  0  0
  191.4180  174.9550  135.6170 O   0  0  0  0  0  0  0  0  0  0  0  0
  188.6690  175.2700  136.6730 C   0  0  2  0  0  3  0  0  0  0  0  0
  194.2400  176.7260  136.7780 C   0  0  0  0  0  2  0  0  0  0  0  0
  193.5030  173.3020  135.4100 C   0  0  1  0  0  3  0  0  0  0  0  0
  194.3680  172.2680  135.0590 O   0  0  0  0  0  1  0  0  0  0  0  0
  191.0110  173.5860  135.7060 C   0  0  1  0  0  3  0  0  0  0  0  0
  194.2690  175.6340  135.7250 C   0  0  2  0  0  3  0  0  0  0  0  0
  192.2300  172.7100  136.0120 C   0  0  0  0  0  2  0  0  0  0  0  0
  188.6890  173.8630  136.5330 O   0  0  0  0  0  0  0  0  0  0  0  0
  189.9810  173.3830  136.8380 C   0  0  0  0  0  2  0  0  0  0  0  0
  192.0100  175.5770  136.7170 C   0  0  0  0  0  0  0  0  0  0  0  0
  191.1940  175.9970  137.6370 C   0  0  0  0  0  0  0  0  0  0  0  0
  188.9260  175.6830  138.0280 O   0  0  0  0  0  0  0  0  0  0  0  0
  193.4760  175.4380  137.0040 C   0  0  1  0  0  0  0  0  0  0  0  0
  192.0970  177.5030  141.3410 C   0  0  0  0  0  3  0  0  0  0  0  0
  190.0720  177.8720  142.6340 N   0  0  0  0  0  0  0  0  0  0  0  0
  192.0550  177.2900  143.6700 F   0  0  0  0  0  0  0  0  0  0  0  0
  189.1910  177.1650  140.4500 C   0  0  0  0  0  3  0  0  0  0  0  0
  191.6460  177.3780  140.0970 C   0  0  0  0  0  3  0  0  0  0  0  0
  190.2940  176.9080  139.7190 C   0  0  0  0  0  0  0  0  0  0  0  0
  191.2980  177.0950  142.5320 C   0  0  2  0  0  3  0  0  0  0  0  0
  189.1270  177.8710  141.7460 C   0  0  0  0  0  3  0  0  0  0  0  0
  187.3350  175.8620  136.2050 C   0  0  2  0  0  3  0  0  0  0  0  0
  187.3970  176.2670  134.7400 C   0  0  0  0  0  1  0  0  0  0  0  0
  187.0010  177.1030  137.0230 C   0  0  2  0  0  3  0  0  0  0  0  0
  185.4980  177.3380  137.0610 C   0  0  2  0  0  3  0  0  0  0  0  0
  186.3690  178.1580  136.1320 C   0  0  0  0  0  2  0  0  0  0  0  0
  185.1610  178.1430  138.3030 C   0  0  0  0  0  2  0  0  0  0  0  0
  183.7650  177.9390  138.6600 N   0  0  0  0  0  0  0  0  0  0  0  0
  182.1380  179.5990  139.3430 C   0  0  0  0  0  2  0  0  0  0  0  0
  182.9610  178.3250  137.5100 C   0  0  0  0  0  2  0  0  0  0  0  0
  183.4440  178.9020  139.7060 C   0  0  1  0  0  3  0  0  0  0  0  0
  181.7070  178.9630  138.0460 C   0  0  0  0  0  2  0  0  0  0  0  0
  183.3820  178.2040  141.0640 C   0  0  2  0  0  3  0  0  0  0  0  0
  182.0630  177.8870  141.4160 O   0  0  0  0  0  1  0  0  0  0  0  0
  184.1250  179.0300  142.1220 C   0  0  1  0  0  3  0  0  0  0  0  0
  185.0380  178.1990  143.0080 C   0  0  1  0  0  3  0  0  0  0  0  0
  185.6150  179.0090  141.8610 C   0  0  0  0  0  2  0  0  0  0  0  0
  185.2600  178.9440  144.3070 C   0  0  0  0  0  2  0  0  0  0  0  0
  185.8530  178.0080  145.3420 C   0  0  0  0  0  2  0  0  0  0  0  0
  187.0130  177.2550  144.7270 C   0  0  0  0  0  1  0  0  0  0  0  0
  1 22  1  0  0  0  0
  2 16  1  0  0  0  0
  3  8  1  0  0  0  0
  3 13  1  0  0  0  0
  4 15  1  0  0  0  0
  5 16  1  0  0  0  0
  6 10  1  0  0  0  0
  6  2  1  0  0  0  0
  7  6  1  0  0  0  0
  8 10  1  0  0  0  0
  8 12  1  0  0  0  0
  9  2  1  0  0  0  0
  9  5  1  0  0  0  0
  9 16  1  0  0  0  0
 11  4  1  0  0  0  0
 11 12  1  0  0  0  0
 13 16  1  0  0  0  0
 13 14  2  0  0  0  0
 14  1  2  0  0  0  0
 15  1  1  0  0  0  0
 17 23  1  0  0  0  0
 20 24  1  0  0  0  0
 21 17  2  0  0  0  0
 22 21  1  0  0  0  0
 22 20  2  0  0  0  0
 23 18  1  0  0  0  0
 23 19  1  0  0  0  0
 24 18  2  0  0  0  0
 25  4  1  0  0  0  0
 25 27  1  0  0  0  0
 26 25  1  0  0  0  0
 27 28  1  0  0  0  0
 28 30  1  0  0  0  0
 29 27  1  0  0  0  0
 29 28  1  0  0  0  0
 30 31  1  0  0  0  0
 31 34  1  0  0  0  0
 32 34  1  0  0  0  0
 33 35  1  0  0  0  0
 33 31  1  0  0  0  0
 34 36  1  0  0  0  0
 35 32  1  0  0  0  0
 36 37  1  0  0  0  0
 36 38  1  0  0  0  0
 38 39  1  0  0  0  0
 39 41  1  0  0  0  0
 40 38  1  0  0  0  0
 40 39  1  0  0  0  0
 41 42  1  0  0  0  0
 43 42  1  0  0  0  0
M  END
>  <MODEL>
7

>  <REMARK>
 VINA RESULT:      -7.1      4.264      9.218
  Name = 
  9 active torsions:
  status: ('A' for Active; 'I' for Inactive)
    1  A    between atoms: C_1  and  C_35
    2  A    between atoms: C_2  and  C_6
    3  A    between atoms: C_2  and  C_13
    4  A    between atoms: C_3  and  N_4
    5  A    between atoms: C_3  and  C_12
    6  A    between atoms: C_11  and  C_14
    7  A    between atoms: C_14  and  C_22
    8  A    between atoms: C_26  and  C_29
    9  A    between atoms: C_29  and  C_36
                            x       y       z     vdW  Elec       q    Type
                         _______ _______ _______ _____ _____    ______ ____

>  <TORSDO>
F 9

$$$$
=
 OpenBabel10262422403D

 43 50  0  0  1  0  0  0  0  0999 V2000
  187.7460  177.6710  144.0880 C   0  0  0  0  0  0  0  0  0  0  0  0
  190.9580  176.3640  147.6170 C   0  0  1  0  0  3  0  0  0  0  0  0
  190.9720  177.4260  144.8150 O   0  0  0  0  0  0  0  0  0  0  0  0
  189.4460  177.4910  142.2780 C   0  0  2  0  0  3  0  0  0  0  0  0
  189.7480  178.5310  147.9340 C   0  0  0  0  0  2  0  0  0  0  0  0
  192.0560  175.8460  146.6720 C   0  0  1  0  0  3  0  0  0  0  0  0
  192.8710  174.9570  147.3710 O   0  0  0  0  0  1  0  0  0  0  0  0
  191.2870  176.1350  144.2840 C   0  0  1  0  0  3  0  0  0  0  0  0
  191.0980  177.8770  147.7110 C   0  0  2  0  0  3  0  0  0  0  0  0
  191.4950  175.1470  145.4350 C   0  0  0  0  0  2  0  0  0  0  0  0
  190.0550  176.2240  142.1330 O   0  0  0  0  0  0  0  0  0  0  0  0
  190.1410  175.6020  143.3970 C   0  0  0  0  0  2  0  0  0  0  0  0
  189.8360  177.5910  145.6090 C   0  0  0  0  0  0  0  0  0  0  0  0
  188.7100  177.7040  144.9700 C   0  0  0  0  0  0  0  0  0  0  0  0
  188.0910  177.3900  142.7530 O   0  0  0  0  0  0  0  0  0  0  0  0
  189.8510  177.2870  147.0780 C   0  0  1  0  0  0  0  0  0  0  0  0
  184.1800  178.4260  143.3020 C   0  0  0  0  0  3  0  0  0  0  0  0
  183.6490  178.8150  145.6430 N   0  0  0  0  0  0  0  0  0  0  0  0
  182.5580  179.9750  143.9660 F   0  0  0  0  0  0  0  0  0  0  0  0
  185.9860  178.0560  145.7430 C   0  0  0  0  0  3  0  0  0  0  0  0
  185.3370  177.7720  143.3570 C   0  0  0  0  0  3  0  0  0  0  0  0
  186.3270  177.8730  144.4520 C   0  0  0  0  0  0  0  0  0  0  0  0
  183.7730  179.4280  144.3290 C   0  0  2  0  0  3  0  0  0  0  0  0
  184.6260  178.2520  146.2850 C   0  0  0  0  0  3  0  0  0  0  0  0
  189.4660  178.2780  140.9610 C   0  0  2  0  0  3  0  0  0  0  0  0
  188.4210  179.3830  140.9660 C   0  0  0  0  0  1  0  0  0  0  0  0
  189.1620  177.3460  139.7940 C   0  0  2  0  0  3  0  0  0  0  0  0
  190.3840  177.1770  138.9050 C   0  0  2  0  0  3  0  0  0  0  0  0
  189.2640  178.1060  138.4840 C   0  0  0  0  0  2  0  0  0  0  0  0
  190.2700  175.8570  138.1650 C   0  0  0  0  0  2  0  0  0  0  0  0
  191.5970  175.3010  137.9390 N   0  0  0  0  0  0  0  0  0  0  0  0
  192.9520  175.4340  135.9360 C   0  0  0  0  0  2  0  0  0  0  0  0
  192.5530  176.3890  138.0780 C   0  0  0  0  0  2  0  0  0  0  0  0
  191.6600  174.8970  136.5400 C   0  0  1  0  0  3  0  0  0  0  0  0
  193.6450  176.1440  137.0700 C   0  0  0  0  0  2  0  0  0  0  0  0
  191.5430  173.3780  136.4250 C   0  0  2  0  0  3  0  0  0  0  0  0
  192.7840  172.7890  136.1460 O   0  0  0  0  0  1  0  0  0  0  0  0
  190.4390  173.0030  135.4280 C   0  0  1  0  0  3  0  0  0  0  0  0
  189.0540  172.9460  136.0500 C   0  0  1  0  0  3  0  0  0  0  0  0
  189.4790  174.1560  135.2400 C   0  0  0  0  0  2  0  0  0  0  0  0
  188.1770  172.0560  135.1960 C   0  0  0  0  0  2  0  0  0  0  0  0
  186.8290  171.8680  135.8650 C   0  0  0  0  0  2  0  0  0  0  0  0
  186.8100  172.6300  137.1730 C   0  0  0  0  0  1  0  0  0  0  0  0
  1 22  1  0  0  0  0
  1 14  2  0  0  0  0
  2  9  1  0  0  0  0
  3 13  1  0  0  0  0
  4 15  1  0  0  0  0
  6  7  1  0  0  0  0
  6  2  1  0  0  0  0
  8  3  1  0  0  0  0
  8 10  1  0  0  0  0
  9  5  1  0  0  0  0
 10  6  1  0  0  0  0
 11  4  1  0  0  0  0
 11 12  1  0  0  0  0
 12  8  1  0  0  0  0
 13 16  1  0  0  0  0
 14 13  2  0  0  0  0
 15  1  1  0  0  0  0
 16  2  1  0  0  0  0
 16  9  1  0  0  0  0
 16  5  1  0  0  0  0
 17 21  2  0  0  0  0
 17 23  1  0  0  0  0
 18 24  2  0  0  0  0
 19 23  1  0  0  0  0
 20 24  1  0  0  0  0
 21 22  1  0  0  0  0
 22 20  2  0  0  0  0
 23 18  1  0  0  0  0
 25 26  1  0  0  0  0
 25  4  1  0  0  0  0
 27 25  1  0  0  0  0
 28 27  1  0  0  0  0
 29 28  1  0  0  0  0
 29 27  1  0  0  0  0
 30 28  1  0  0  0  0
 31 33  1  0  0  0  0
 31 30  1  0  0  0  0
 32 34  1  0  0  0  0
 32 35  1  0  0  0  0
 34 31  1  0  0  0  0
 35 33  1  0  0  0  0
 36 34  1  0  0  0  0
 37 36  1  0  0  0  0
 38 39  1  0  0  0  0
 38 36  1  0  0  0  0
 40 38  1  0  0  0  0
 40 39  1  0  0  0  0
 41 42  1  0  0  0  0
 41 39  1  0  0  0  0
 42 43  1  0  0  0  0
M  END
>  <MODEL>
8

>  <REMARK>
 VINA RESULT:      -7.0      4.972      9.428
  Name = 
  9 active torsions:
  status: ('A' for Active; 'I' for Inactive)
    1  A    between atoms: C_1  and  C_35
    2  A    between atoms: C_2  and  C_6
    3  A    between atoms: C_2  and  C_13
    4  A    between atoms: C_3  and  N_4
    5  A    between atoms: C_3  and  C_12
    6  A    between atoms: C_11  and  C_14
    7  A    between atoms: C_14  and  C_22
    8  A    between atoms: C_26  and  C_29
    9  A    between atoms: C_29  and  C_36
                            x       y       z     vdW  Elec       q    Type
                         _______ _______ _______ _____ _____    ______ ____

>  <TORSDO>
F 9

$$$$
=
 OpenBabel10262422403D

 43 50  0  0  1  0  0  0  0  0999 V2000
  183.0510  176.1790  137.9470 C   0  0  0  0  0  0  0  0  0  0  0  0
  187.2740  176.1090  135.3680 C   0  0  1  0  0  3  0  0  0  0  0  0
  186.2960  176.8470  138.1020 O   0  0  0  0  0  0  0  0  0  0  0  0
  183.9360  177.7960  139.6190 C   0  0  2  0  0  3  0  0  0  0  0  0
  186.3930  173.9040  136.1590 C   0  0  0  0  0  2  0  0  0  0  0  0
  187.9070  177.3420  136.0340 C   0  0  1  0  0  3  0  0  0  0  0  0
  188.8740  177.8700  135.1790 O   0  0  0  0  0  1  0  0  0  0  0  0
  186.3160  178.2410  137.7780 C   0  0  1  0  0  3  0  0  0  0  0  0
  187.5230  174.9090  136.2730 C   0  0  2  0  0  3  0  0  0  0  0  0
  186.8860  178.4270  136.3680 C   0  0  0  0  0  2  0  0  0  0  0  0
  184.3760  179.0360  139.1010 O   0  0  0  0  0  0  0  0  0  0  0  0
  184.8940  178.8400  137.8030 C   0  0  0  0  0  2  0  0  0  0  0  0
  185.5510  175.9630  137.3200 C   0  0  0  0  0  0  0  0  0  0  0  0
  184.2770  175.9230  137.5670 C   0  0  0  0  0  0  0  0  0  0  0  0
  182.8550  177.2390  138.8500 O   0  0  0  0  0  0  0  0  0  0  0  0
  186.0990  175.3840  136.0480 C   0  0  1  0  0  0  0  0  0  0  0  0
  180.0110  174.0580  138.3480 C   0  0  0  0  0  3  0  0  0  0  0  0
  179.9710  173.5020  135.9820 N   0  0  0  0  0  0  0  0  0  0  0  0
  179.2340  171.9930  137.5700 F   0  0  0  0  0  0  0  0  0  0  0  0
  181.8070  175.1320  136.1180 C   0  0  0  0  0  3  0  0  0  0  0  0
  180.8100  175.1190  138.3980 C   0  0  0  0  0  3  0  0  0  0  0  0
  181.8860  175.4290  137.4300 C   0  0  0  0  0  0  0  0  0  0  0  0
  180.1650  172.9820  137.3270 C   0  0  2  0  0  3  0  0  0  0  0  0
  180.7160  174.4120  135.4320 C   0  0  0  0  0  3  0  0  0  0  0  0
  183.5060  177.9220  141.0860 C   0  0  2  0  0  3  0  0  0  0  0  0
  182.1670  178.6320  141.2060 C   0  0  0  0  0  1  0  0  0  0  0  0
  184.5380  178.7280  141.8640 C   0  0  2  0  0  3  0  0  0  0  0  0
  185.0950  177.9180  143.0250 C   0  0  2  0  0  3  0  0  0  0  0  0
  184.0430  178.9790  143.2770 C   0  0  0  0  0  2  0  0  0  0  0  0
  186.4700  178.4540  143.3790 C   0  0  0  0  0  2  0  0  0  0  0  0
  187.2790  177.3920  143.9600 N   0  0  0  0  0  0  0  0  0  0  0  0
  189.5500  177.5280  144.7930 C   0  0  0  0  0  2  0  0  0  0  0  0
  187.2510  177.5640  145.4050 C   0  0  0  0  0  2  0  0  0  0  0  0
  188.6590  177.6380  143.5610 C   0  0  1  0  0  3  0  0  0  0  0  0
  188.6120  177.1760  145.9200 C   0  0  0  0  0  2  0  0  0  0  0  0
  189.0670  176.6690  142.4520 C   0  0  2  0  0  3  0  0  0  0  0  0
  189.8560  175.6240  142.9500 O   0  0  0  0  0  1  0  0  0  0  0  0
  189.7120  177.4330  141.2880 C   0  0  1  0  0  3  0  0  0  0  0  0
  189.1690  177.0330  139.9270 C   0  0  1  0  0  3  0  0  0  0  0  0
  188.6900  178.3080  140.5970 C   0  0  0  0  0  2  0  0  0  0  0  0
  190.2010  177.3800  138.8740 C   0  0  0  0  0  2  0  0  0  0  0  0
  190.8690  176.1140  138.3720 C   0  0  0  0  0  2  0  0  0  0  0  0
  191.4410  176.3650  136.9930 C   0  0  0  0  0  1  0  0  0  0  0  0
  1 15  1  0  0  0  0
  2  6  1  0  0  0  0
  2 16  1  0  0  0  0
  2  9  1  0  0  0  0
  4 25  1  0  0  0  0
  5  9  1  0  0  0  0
  6 10  1  0  0  0  0
  7  6  1  0  0  0  0
  8 12  1  0  0  0  0
  8  3  1  0  0  0  0
 10  8  1  0  0  0  0
 11  4  1  0  0  0  0
 12 11  1  0  0  0  0
 13 14  2  0  0  0  0
 13  3  1  0  0  0  0
 14  1  2  0  0  0  0
 15  4  1  0  0  0  0
 16  5  1  0  0  0  0
 16  9  1  0  0  0  0
 16 13  1  0  0  0  0
 17 21  2  0  0  0  0
 18 23  1  0  0  0  0
 20 22  2  0  0  0  0
 22  1  1  0  0  0  0
 22 21  1  0  0  0  0
 23 19  1  0  0  0  0
 23 17  1  0  0  0  0
 24 18  2  0  0  0  0
 24 20  1  0  0  0  0
 25 26  1  0  0  0  0
 25 27  1  0  0  0  0
 27 28  1  0  0  0  0
 27 29  1  0  0  0  0
 28 29  1  0  0  0  0
 28 30  1  0  0  0  0
 30 31  1  0  0  0  0
 31 33  1  0  0  0  0
 32 35  1  0  0  0  0
 33 35  1  0  0  0  0
 34 31  1  0  0  0  0
 34 32  1  0  0  0  0
 36 37  1  0  0  0  0
 36 34  1  0  0  0  0
 38 36  1  0  0  0  0
 39 40  1  0  0  0  0
 39 38  1  0  0  0  0
 40 38  1  0  0  0  0
 41 39  1  0  0  0  0
 42 41  1  0  0  0  0
 43 42  1  0  0  0  0
M  END
>  <MODEL>
9

>  <REMARK>
 VINA RESULT:      -7.0      3.360      4.351
  Name = 
  9 active torsions:
  status: ('A' for Active; 'I' for Inactive)
    1  A    between atoms: C_1  and  C_35
    2  A    between atoms: C_2  and  C_6
    3  A    between atoms: C_2  and  C_13
    4  A    between atoms: C_3  and  N_4
    5  A    between atoms: C_3  and  C_12
    6  A    between atoms: C_11  and  C_14
    7  A    between atoms: C_14  and  C_22
    8  A    between atoms: C_26  and  C_29
    9  A    between atoms: C_29  and  C_36
                            x       y       z     vdW  Elec       q    Type
                         _______ _______ _______ _____ _____    ______ ____

>  <TORSDO>
F 9

$$$$
