=
 OpenBabel10262421393D

 32 37  0  0  1  0  0  0  0  0999 V2000
  184.2460  178.6600  142.6220 C   0  0  0  0  0  0  0  0  0  0  0  0
  180.2760  178.3190  140.0920 C   0  0  1  0  0  3  0  0  0  0  0  0
  182.8720  178.0110  137.4270 C   0  0  0  0  0  2  0  0  0  0  0  0
  180.2730  180.8510  139.6070 C   0  0  1  0  0  3  0  0  0  0  0  0
  180.5110  181.6990  138.3890 C   0  0  0  0  0  0  0  0  0  0  0  0
  181.5300  178.6210  142.0070 C   0  0  0  0  0  0  0  0  0  0  0  0
  181.8990  176.6370  139.4970 O   0  0  0  0  0  1  0  0  0  0  0  0
  181.0000  183.2570  136.1120 C   0  0  0  0  0  3  0  0  0  0  0  0
  183.8230  178.3120  141.3290 C   0  0  0  0  0  3  0  0  0  0  0  0
  181.7420  179.0050  137.2660 C   0  0  2  0  0  3  0  0  0  0  0  0
  181.7800  178.0110  139.7450 C   0  0  1  0  0  0  0  0  0  0  0  0
  182.4440  178.8660  138.6230 C   0  0  1  0  0  3  0  0  0  0  0  0
  179.2600  179.1360  137.8790 C   0  0  2  0  0  3  0  0  0  0  0  0
  181.7820  183.4270  137.2560 C   0  0  0  0  0  3  0  0  0  0  0  0
  183.2840  178.9990  143.6050 C   0  0  0  0  0  3  0  0  0  0  0  0
  182.4540  178.3240  141.0400 C   0  0  0  0  0  0  0  0  0  0  0  0
  181.5320  182.6580  138.3980 C   0  0  0  0  0  3  0  0  0  0  0  0
  181.9130  178.9800  143.2960 C   0  0  0  0  0  3  0  0  0  0  0  0
  180.3770  178.3140  137.1950 C   0  0  1  0  0  3  0  0  0  0  0  0
  178.9310  180.3440  137.1140 N   0  0  0  0  0  2  0  0  0  0  0  0
  180.2020  178.5510  141.5330 N   0  0  0  0  0  2  0  0  0  0  0  0
  179.5520  181.5720  140.5590 O   0  0  0  0  0  1  0  0  0  0  0  0
  179.9880  182.2930  136.0980 C   0  0  0  0  0  3  0  0  0  0  0  0
  179.5880  179.4830  139.3490 C   0  0  1  0  0  3  0  0  0  0  0  0
  179.7680  181.4920  137.2190 C   0  0  0  0  0  0  0  0  0  0  0  0
  180.7400  178.6860  134.8330 O   0  0  0  0  0  1  0  0  0  0  0  0
  180.0200  177.9260  135.7550 C   0  0  0  0  0  2  0  0  0  0  0  0
  186.1630  177.8810  143.8430 C   0  0  0  0  0  3  0  0  0  0  0  0
  185.6490  178.6340  142.9240 N   0  0  0  0  0  0  0  0  0  0  0  0
  187.6150  177.8700  144.0680 C   0  0  0  0  0  0  0  0  0  0  0  0
  188.0630  177.9030  145.2440 O   0  0  0  0  0  0  0  0  0  0  0  0
  188.5200  177.8090  142.9690 N   0  0  0  0  0  1  0  0  0  0  0  0
  1 29  1  0  0  0  0
  1 15  1  0  0  0  0
  2 21  1  1  0  0  0
  4 22  1  1  0  0  0
  5 17  1  0  0  0  0
  5  4  1  0  0  0  0
  6 18  1  0  0  0  0
  8 14  1  0  0  0  0
  9  1  2  0  0  0  0
 10  3  1  6  0  0  0
 10 12  1  0  0  0  0
 11  7  1  6  0  0  0
 11  2  1  0  0  0  0
 11 16  1  0  0  0  0
 12  3  1  6  0  0  0
 12 11  1  0  0  0  0
 13 20  1  6  0  0  0
 13 24  1  0  0  0  0
 14 17  2  0  0  0  0
 16  9  1  0  0  0  0
 16  6  2  0  0  0  0
 18 15  2  0  0  0  0
 19 27  1  6  0  0  0
 19 10  1  0  0  0  0
 19 13  1  0  0  0  0
 20 25  1  0  0  0  0
 21  6  1  0  0  0  0
 23  8  2  0  0  0  0
 23 25  1  0  0  0  0
 24  4  1  0  0  0  0
 24  2  1  0  0  0  0
 25  5  2  0  0  0  0
 26 27  1  0  0  0  0
 28 30  1  0  0  0  0
 29 28  2  0  0  0  0
 30 31  2  0  0  0  0
 32 30  1  0  0  0  0
M  END
>  <MODEL>
1

>  <REMARK>
 VINA RESULT:      -6.5      0.000      0.000
  Name = 
  3 active torsions:
  status: ('A' for Active; 'I' for Inactive)
    1  A    between atoms: C_1  and  C_10
    2  A    between atoms: C_2  and  N_24
    3  A    between atoms: C_25  and  C_26
                            x       y       z     vdW  Elec       q    Type
                         _______ _______ _______ _____ _____    ______ ____

>  <TORSDO>
F 3

$$$$
=
 OpenBabel10262421393D

 32 37  0  0  1  0  0  0  0  0999 V2000
  184.3310  178.3010  142.0630 C   0  0  0  0  0  0  0  0  0  0  0  0
  182.1340  177.9020  137.9030 C   0  0  1  0  0  3  0  0  0  0  0  0
  180.4190  175.2520  139.8970 C   0  0  0  0  0  2  0  0  0  0  0  0
  183.7700  176.0670  137.1260 C   0  0  1  0  0  3  0  0  0  0  0  0
  183.6670  174.5880  136.8790 C   0  0  0  0  0  0  0  0  0  0  0  0
  183.6860  178.7470  139.3900 C   0  0  0  0  0  0  0  0  0  0  0  0
  180.5980  177.9110  139.7630 O   0  0  0  0  0  1  0  0  0  0  0  0
  183.4560  171.8250  136.4650 C   0  0  0  0  0  3  0  0  0  0  0  0
  183.2070  177.6770  141.4970 C   0  0  0  0  0  3  0  0  0  0  0  0
  180.9860  174.9190  138.5330 C   0  0  2  0  0  3  0  0  0  0  0  0
  181.8010  177.3350  139.3330 C   0  0  1  0  0  0  0  0  0  0  0  0
  181.7990  175.7850  139.5050 C   0  0  1  0  0  3  0  0  0  0  0  0
  181.2720  176.1050  136.2820 C   0  0  2  0  0  3  0  0  0  0  0  0
  184.3780  172.3240  137.3860 C   0  0  0  0  0  3  0  0  0  0  0  0
  185.1360  179.1480  141.2640 C   0  0  0  0  0  3  0  0  0  0  0  0
  182.9200  177.8990  140.1450 C   0  0  0  0  0  0  0  0  0  0  0  0
  184.4920  173.7050  137.5860 C   0  0  0  0  0  3  0  0  0  0  0  0
  184.8130  179.3740  139.9150 C   0  0  0  0  0  3  0  0  0  0  0  0
  180.2980  175.7120  137.4180 C   0  0  1  0  0  3  0  0  0  0  0  0
  181.6870  174.9390  135.4950 N   0  0  0  0  0  2  0  0  0  0  0  0
  183.2220  178.8650  138.0620 N   0  0  0  0  0  2  0  0  0  0  0  0
  184.8690  176.5910  136.4460 O   0  0  0  0  0  1  0  0  0  0  0  0
  182.6240  172.7040  135.7660 C   0  0  0  0  0  3  0  0  0  0  0  0
  182.5000  176.8930  136.7950 C   0  0  1  0  0  3  0  0  0  0  0  0
  182.7030  174.0770  135.9980 C   0  0  0  0  0  0  0  0  0  0  0  0
  179.1260  173.6120  137.1600 O   0  0  0  0  0  1  0  0  0  0  0  0
  179.0560  174.9810  136.8950 C   0  0  0  0  0  2  0  0  0  0  0  0
  185.0580  179.0160  144.2380 C   0  0  0  0  0  3  0  0  0  0  0  0
  184.6170  178.0860  143.4520 N   0  0  0  0  0  0  0  0  0  0  0  0
  185.2880  178.7370  145.6620 C   0  0  0  0  0  0  0  0  0  0  0  0
  184.3300  178.8160  146.4750 O   0  0  0  0  0  0  0  0  0  0  0  0
  186.5830  178.3660  146.1290 N   0  0  0  0  0  1  0  0  0  0  0  0
  1 29  1  0  0  0  0
  2 21  1  1  0  0  0
  2 11  1  0  0  0  0
  4 22  1  6  0  0  0
  5  4  1  0  0  0  0
  5 17  1  0  0  0  0
  6 18  2  0  0  0  0
  6 16  1  0  0  0  0
  8 14  1  0  0  0  0
  9  1  1  0  0  0  0
 10 12  1  0  0  0  0
 10  3  1  1  0  0  0
 11 12  1  0  0  0  0
 11  7  1  1  0  0  0
 11 16  1  0  0  0  0
 12  3  1  1  0  0  0
 13 20  1  1  0  0  0
 13 24  1  0  0  0  0
 13 19  1  0  0  0  0
 14 17  2  0  0  0  0
 15  1  2  0  0  0  0
 16  9  2  0  0  0  0
 18 15  1  0  0  0  0
 19 27  1  6  0  0  0
 19 10  1  0  0  0  0
 20 25  1  0  0  0  0
 21  6  1  0  0  0  0
 23 25  1  0  0  0  0
 23  8  2  0  0  0  0
 24  4  1  0  0  0  0
 24  2  1  0  0  0  0
 25  5  2  0  0  0  0
 27 26  1  0  0  0  0
 28 30  1  0  0  0  0
 29 28  2  0  0  0  0
 30 32  1  0  0  0  0
 30 31  2  0  0  0  0
M  END
>  <MODEL>
2

>  <REMARK>
 VINA RESULT:      -6.4      3.381      5.569
  Name = 
  3 active torsions:
  status: ('A' for Active; 'I' for Inactive)
    1  A    between atoms: C_1  and  C_10
    2  A    between atoms: C_2  and  N_24
    3  A    between atoms: C_25  and  C_26
                            x       y       z     vdW  Elec       q    Type
                         _______ _______ _______ _____ _____    ______ ____

>  <TORSDO>
F 3

$$$$
=
 OpenBabel10262421393D

 32 37  0  0  1  0  0  0  0  0999 V2000
  186.4610  178.2710  142.0600 C   0  0  0  0  0  0  0  0  0  0  0  0
  186.1950  178.3060  137.3470 C   0  0  1  0  0  3  0  0  0  0  0  0
  182.6280  177.7160  138.2790 C   0  0  0  0  0  2  0  0  0  0  0  0
  186.4480  175.7430  137.2340 C   0  0  1  0  0  3  0  0  0  0  0  0
  185.5360  174.6000  136.8860 C   0  0  0  0  0  0  0  0  0  0  0  0
  187.2600  178.3870  139.3940 C   0  0  0  0  0  0  0  0  0  0  0  0
  184.4730  179.6420  138.3800 O   0  0  0  0  0  1  0  0  0  0  0  0
  183.8020  172.4870  136.2710 C   0  0  0  0  0  3  0  0  0  0  0  0
  185.4980  178.3200  141.0390 C   0  0  0  0  0  3  0  0  0  0  0  0
  183.3010  176.8130  137.2670 C   0  0  2  0  0  3  0  0  0  0  0  0
  185.0940  178.3890  138.4680 C   0  0  1  0  0  0  0  0  0  0  0  0
  184.0560  177.2270  138.5370 C   0  0  1  0  0  3  0  0  0  0  0  0
  185.0550  177.0510  135.4170 C   0  0  2  0  0  3  0  0  0  0  0  0
  184.4200  172.5420  137.5210 C   0  0  0  0  0  3  0  0  0  0  0  0
  187.8370  178.2720  141.7240 C   0  0  0  0  0  3  0  0  0  0  0  0
  185.9270  178.3520  139.7070 C   0  0  0  0  0  0  0  0  0  0  0  0
  185.2940  173.5900  137.8260 C   0  0  0  0  0  3  0  0  0  0  0  0
  188.2420  178.3300  140.3800 C   0  0  0  0  0  3  0  0  0  0  0  0
  183.7280  177.5780  136.0110 C   0  0  1  0  0  3  0  0  0  0  0  0
  184.8910  175.7230  134.8160 N   0  0  0  0  0  2  0  0  0  0  0  0
  187.4930  178.4490  138.0030 N   0  0  0  0  0  2  0  0  0  0  0  0
  187.7800  175.3470  137.1130 O   0  0  0  0  0  1  0  0  0  0  0  0
  184.0330  173.4990  135.3350 C   0  0  0  0  0  3  0  0  0  0  0  0
  186.2120  177.0560  136.4430 C   0  0  1  0  0  3  0  0  0  0  0  0
  184.8680  174.5700  135.6540 C   0  0  0  0  0  0  0  0  0  0  0  0
  181.6930  176.5810  135.1670 O   0  0  0  0  0  1  0  0  0  0  0  0
  182.6000  177.6230  134.9720 C   0  0  0  0  0  2  0  0  0  0  0  0
  185.1570  179.0880  143.9050 C   0  0  0  0  0  3  0  0  0  0  0  0
  186.0230  178.2530  143.4260 N   0  0  0  0  0  0  0  0  0  0  0  0
  184.7190  178.9830  145.3040 C   0  0  0  0  0  0  0  0  0  0  0  0
  183.4960  179.0800  145.5820 O   0  0  0  0  0  0  0  0  0  0  0  0
  185.6660  178.7590  146.3460 N   0  0  0  0  0  1  0  0  0  0  0  0
  1 29  1  0  0  0  0
  2 21  1  1  0  0  0
  2 11  1  0  0  0  0
  4 22  1  6  0  0  0
  5  4  1  0  0  0  0
  5 17  1  0  0  0  0
  6 16  2  0  0  0  0
  6 18  1  0  0  0  0
  8 14  1  0  0  0  0
  9  1  2  0  0  0  0
 10  3  1  1  0  0  0
 10 12  1  0  0  0  0
 11  7  1  6  0  0  0
 11 12  1  0  0  0  0
 11 16  1  0  0  0  0
 12  3  1  1  0  0  0
 13 20  1  1  0  0  0
 13 19  1  0  0  0  0
 13 24  1  0  0  0  0
 14 17  2  0  0  0  0
 15  1  1  0  0  0  0
 16  9  1  0  0  0  0
 18 15  2  0  0  0  0
 19 27  1  6  0  0  0
 19 10  1  0  0  0  0
 20 25  1  0  0  0  0
 21  6  1  0  0  0  0
 23 25  1  0  0  0  0
 23  8  2  0  0  0  0
 24  4  1  0  0  0  0
 24  2  1  0  0  0  0
 25  5  2  0  0  0  0
 27 26  1  0  0  0  0
 28 30  1  0  0  0  0
 29 28  2  0  0  0  0
 30 31  2  0  0  0  0
 30 32  1  0  0  0  0
M  END
>  <MODEL>
3

>  <REMARK>
 VINA RESULT:      -6.3      3.881      6.415
  Name = 
  3 active torsions:
  status: ('A' for Active; 'I' for Inactive)
    1  A    between atoms: C_1  and  C_10
    2  A    between atoms: C_2  and  N_24
    3  A    between atoms: C_25  and  C_26
                            x       y       z     vdW  Elec       q    Type
                         _______ _______ _______ _____ _____    ______ ____

>  <TORSDO>
F 3

$$$$
=
 OpenBabel10262421393D

 32 37  0  0  1  0  0  0  0  0999 V2000
  189.0610  177.7720  140.4310 C   0  0  0  0  0  0  0  0  0  0  0  0
  187.0270  177.6580  136.1730 C   0  0  1  0  0  3  0  0  0  0  0  0
  184.0400  177.7650  138.4100 C   0  0  0  0  0  2  0  0  0  0  0  0
  186.8240  175.0890  136.2510 C   0  0  1  0  0  3  0  0  0  0  0  0
  185.6850  174.1180  136.3880 C   0  0  0  0  0  0  0  0  0  0  0  0
  188.7910  177.6290  137.6630 C   0  0  0  0  0  0  0  0  0  0  0  0
  186.0550  179.3270  137.6180 O   0  0  0  0  0  1  0  0  0  0  0  0
  183.5480  172.3310  136.6850 C   0  0  0  0  0  3  0  0  0  0  0  0
  187.8010  177.9530  139.8380 C   0  0  0  0  0  3  0  0  0  0  0  0
  184.1310  176.7140  137.3250 C   0  0  2  0  0  3  0  0  0  0  0  0
  186.4630  177.9860  137.6060 C   0  0  1  0  0  0  0  0  0  0  0  0
  185.3660  177.0360  138.1760 C   0  0  1  0  0  3  0  0  0  0  0  0
  185.0610  176.5520  134.9450 C   0  0  2  0  0  3  0  0  0  0  0  0
  184.5960  172.3250  137.6060 C   0  0  0  0  0  3  0  0  0  0  0  0
  190.1880  177.5090  139.6150 C   0  0  0  0  0  3  0  0  0  0  0  0
  187.6890  177.8510  138.4460 C   0  0  0  0  0  0  0  0  0  0  0  0
  185.6700  173.2090  137.4530 C   0  0  0  0  0  3  0  0  0  0  0  0
  190.0530  177.4370  138.2180 C   0  0  0  0  0  3  0  0  0  0  0  0
  184.1570  177.3360  135.9260 C   0  0  1  0  0  3  0  0  0  0  0  0
  184.4790  175.2520  134.5940 N   0  0  0  0  0  2  0  0  0  0  0  0
  188.4830  177.5900  136.2860 N   0  0  0  0  0  2  0  0  0  0  0  0
  187.9320  174.4530  135.6910 O   0  0  0  0  0  1  0  0  0  0  0  0
  183.5560  173.2450  135.6270 C   0  0  0  0  0  3  0  0  0  0  0  0
  186.5070  176.3900  135.4660 C   0  0  1  0  0  3  0  0  0  0  0  0
  184.6020  174.1590  135.4990 C   0  0  0  0  0  0  0  0  0  0  0  0
  181.8240  176.7030  136.0150 O   0  0  0  0  0  1  0  0  0  0  0  0
  182.7400  177.5410  135.3770 C   0  0  0  0  0  2  0  0  0  0  0  0
  188.4260  177.2450  142.6880 C   0  0  0  0  0  3  0  0  0  0  0  0
  189.1800  177.8910  141.8570 N   0  0  0  0  0  0  0  0  0  0  0  0
  188.6320  177.3800  144.1360 C   0  0  0  0  0  0  0  0  0  0  0  0
  189.7660  177.1450  144.6280 O   0  0  0  0  0  0  0  0  0  0  0  0
  187.5630  177.7870  144.9870 N   0  0  0  0  0  1  0  0  0  0  0  0
  1 29  1  0  0  0  0
  2 21  1  1  0  0  0
  2 11  1  0  0  0  0
  4 22  1  6  0  0  0
  4  5  1  0  0  0  0
  5 17  1  0  0  0  0
  6 18  2  0  0  0  0
  6 16  1  0  0  0  0
  8 14  1  0  0  0  0
  9  1  1  0  0  0  0
 10 12  1  0  0  0  0
 10  3  1  1  0  0  0
 11  7  1  1  0  0  0
 11 12  1  0  0  0  0
 11 16  1  0  0  0  0
 12  3  1  1  0  0  0
 13 20  1  1  0  0  0
 13 24  1  0  0  0  0
 13 19  1  0  0  0  0
 15  1  2  0  0  0  0
 16  9  2  0  0  0  0
 17 14  2  0  0  0  0
 18 15  1  0  0  0  0
 19 27  1  6  0  0  0
 19 10  1  0  0  0  0
 20 25  1  0  0  0  0
 21  6  1  0  0  0  0
 23  8  2  0  0  0  0
 24  2  1  0  0  0  0
 24  4  1  0  0  0  0
 25 23  1  0  0  0  0
 25  5  2  0  0  0  0
 27 26  1  0  0  0  0
 28 30  1  0  0  0  0
 29 28  2  0  0  0  0
 30 31  2  0  0  0  0
 30 32  1  0  0  0  0
M  END
>  <MODEL>
4

>  <REMARK>
 VINA RESULT:      -6.0      4.527      7.201
  Name = 
  3 active torsions:
  status: ('A' for Active; 'I' for Inactive)
    1  A    between atoms: C_1  and  C_10
    2  A    between atoms: C_2  and  N_24
    3  A    between atoms: C_25  and  C_26
                            x       y       z     vdW  Elec       q    Type
                         _______ _______ _______ _____ _____    ______ ____

>  <TORSDO>
F 3

$$$$
=
 OpenBabel10262421393D

 32 37  0  0  1  0  0  0  0  0999 V2000
  185.3470  178.2080  142.6060 C   0  0  0  0  0  0  0  0  0  0  0  0
  183.2570  178.5380  138.3860 C   0  0  1  0  0  3  0  0  0  0  0  0
  180.9300  176.2340  140.1780 C   0  0  0  0  0  2  0  0  0  0  0  0
  184.4700  176.4300  137.5320 C   0  0  1  0  0  3  0  0  0  0  0  0
  184.0500  175.0270  137.1930 C   0  0  0  0  0  0  0  0  0  0  0  0
  184.9070  178.9320  139.9530 C   0  0  0  0  0  0  0  0  0  0  0  0
  181.7000  178.7890  140.2110 O   0  0  0  0  0  1  0  0  0  0  0  0
  183.2450  172.4080  136.6080 C   0  0  0  0  0  3  0  0  0  0  0  0
  184.1320  177.8840  141.9800 C   0  0  0  0  0  3  0  0  0  0  0  0
  181.4550  175.8580  138.8090 C   0  0  2  0  0  3  0  0  0  0  0  0
  182.7590  177.9830  139.7720 C   0  0  1  0  0  0  0  0  0  0  0  0
  182.4070  176.4650  139.8480 C   0  0  1  0  0  3  0  0  0  0  0  0
  182.0720  177.0720  136.6410 C   0  0  2  0  0  3  0  0  0  0  0  0
  184.2240  172.6380  137.5760 C   0  0  0  0  0  3  0  0  0  0  0  0
  186.3460  178.8970  141.8770 C   0  0  0  0  0  3  0  0  0  0  0  0
  183.9470  178.2370  140.6390 C   0  0  0  0  0  0  0  0  0  0  0  0
  184.6340  173.9440  137.8620 C   0  0  0  0  0  3  0  0  0  0  0  0
  186.1260  179.2630  140.5380 C   0  0  0  0  0  3  0  0  0  0  0  0
  180.9980  176.8440  137.7300 C   0  0  1  0  0  3  0  0  0  0  0  0
  182.2440  175.8870  135.7930 N   0  0  0  0  0  2  0  0  0  0  0  0
  184.5260  179.2240  138.6250 N   0  0  0  0  0  2  0  0  0  0  0  0
  185.6800  176.7310  136.9080 O   0  0  0  0  0  1  0  0  0  0  0  0
  182.6530  173.4880  135.9460 C   0  0  0  0  0  3  0  0  0  0  0  0
  183.4270  177.5360  137.2250 C   0  0  1  0  0  3  0  0  0  0  0  0
  183.0270  174.7930  136.2630 C   0  0  0  0  0  0  0  0  0  0  0  0
  179.3960  175.0780  137.3260 O   0  0  0  0  0  1  0  0  0  0  0  0
  179.6430  176.4390  137.1380 C   0  0  0  0  0  2  0  0  0  0  0  0
  186.0140  178.6760  144.8660 C   0  0  0  0  0  3  0  0  0  0  0  0
  185.5320  177.8590  143.9850 N   0  0  0  0  0  0  0  0  0  0  0  0
  186.1350  178.2670  146.2720 C   0  0  0  0  0  0  0  0  0  0  0  0
  186.7260  177.1940  146.5600 O   0  0  0  0  0  0  0  0  0  0  0  0
  185.6010  179.0810  147.3130 N   0  0  0  0  0  1  0  0  0  0  0  0
  1 29  1  0  0  0  0
  2 21  1  1  0  0  0
  2 11  1  0  0  0  0
  4 22  1  6  0  0  0
  5  4  1  0  0  0  0
  5 17  1  0  0  0  0
  6 18  2  0  0  0  0
  6 16  1  0  0  0  0
  8 14  1  0  0  0  0
  9  1  1  0  0  0  0
 10 12  1  0  0  0  0
 10  3  1  1  0  0  0
 11 12  1  0  0  0  0
 11  7  1  1  0  0  0
 11 16  1  0  0  0  0
 12  3  1  1  0  0  0
 13 20  1  1  0  0  0
 13 24  1  0  0  0  0
 13 19  1  0  0  0  0
 14 17  2  0  0  0  0
 15  1  2  0  0  0  0
 16  9  2  0  0  0  0
 18 15  1  0  0  0  0
 19 27  1  6  0  0  0
 19 10  1  0  0  0  0
 20 25  1  0  0  0  0
 21  6  1  0  0  0  0
 23 25  1  0  0  0  0
 23  8  2  0  0  0  0
 24  4  1  0  0  0  0
 24  2  1  0  0  0  0
 25  5  2  0  0  0  0
 27 26  1  0  0  0  0
 28 30  1  0  0  0  0
 29 28  2  0  0  0  0
 30 31  2  0  0  0  0
 30 32  1  0  0  0  0
M  END
>  <MODEL>
5

>  <REMARK>
 VINA RESULT:      -5.9      3.281      5.378
  Name = 
  3 active torsions:
  status: ('A' for Active; 'I' for Inactive)
    1  A    between atoms: C_1  and  C_10
    2  A    between atoms: C_2  and  N_24
    3  A    between atoms: C_25  and  C_26
                            x       y       z     vdW  Elec       q    Type
                         _______ _______ _______ _____ _____    ______ ____

>  <TORSDO>
F 3

$$$$
=
 OpenBabel10262421393D

 32 37  0  0  1  0  0  0  0  0999 V2000
  182.5370  175.8600  138.0740 C   0  0  0  0  0  0  0  0  0  0  0  0
  186.1820  176.3480  135.1150 C   0  0  1  0  0  3  0  0  0  0  0  0
  187.1460  173.2510  136.9620 C   0  0  0  0  0  2  0  0  0  0  0  0
  187.5380  177.6570  136.8740 C   0  0  1  0  0  3  0  0  0  0  0  0
  188.7570  177.3690  137.7050 C   0  0  0  0  0  0  0  0  0  0  0  0
  184.1870  176.9470  136.1110 C   0  0  0  0  0  0  0  0  0  0  0  0
  185.3420  174.0880  135.1830 O   0  0  0  0  0  1  0  0  0  0  0  0
  191.0070  176.7890  139.2700 C   0  0  0  0  0  3  0  0  0  0  0  0
  183.6480  175.1370  137.6100 C   0  0  0  0  0  3  0  0  0  0  0  0
  188.1370  174.3880  136.8300 C   0  0  2  0  0  3  0  0  0  0  0  0
  185.7080  175.1510  136.0200 C   0  0  1  0  0  0  0  0  0  0  0  0
  186.6700  174.6920  137.1580 C   0  0  1  0  0  3  0  0  0  0  0  0
  188.7420  176.1510  135.0750 C   0  0  2  0  0  3  0  0  0  0  0  0
  189.7980  177.1230  139.8820 C   0  0  0  0  0  3  0  0  0  0  0  0
  182.2670  177.1450  137.5440 C   0  0  0  0  0  3  0  0  0  0  0  0
  184.4750  175.7180  136.6420 C   0  0  0  0  0  0  0  0  0  0  0  0
  188.6760  177.4240  139.1020 C   0  0  0  0  0  3  0  0  0  0  0  0
  183.0990  177.6950  136.5540 C   0  0  0  0  0  3  0  0  0  0  0  0
  188.5170  174.6500  135.3690 C   0  0  1  0  0  3  0  0  0  0  0  0
  189.9670  176.6500  135.7100 N   0  0  0  0  0  2  0  0  0  0  0  0
  185.1160  177.3490  135.1280 N   0  0  0  0  0  2  0  0  0  0  0  0
  187.3350  179.0340  136.7820 O   0  0  0  0  0  1  0  0  0  0  0  0
  191.0870  176.7230  137.8750 C   0  0  0  0  0  3  0  0  0  0  0  0
  187.5250  177.0250  135.4570 C   0  0  1  0  0  3  0  0  0  0  0  0
  189.9580  176.9760  137.0970 C   0  0  0  0  0  0  0  0  0  0  0  0
  190.4670  173.3840  136.0350 O   0  0  0  0  0  1  0  0  0  0  0  0
  189.7060  173.7840  134.9350 C   0  0  0  0  0  2  0  0  0  0  0  0
  180.4850  175.6860  139.3120 C   0  0  0  0  0  3  0  0  0  0  0  0
  181.6800  175.2600  139.0570 N   0  0  0  0  0  0  0  0  0  0  0  0
  179.6450  174.9960  140.3000 C   0  0  0  0  0  0  0  0  0  0  0  0
  179.4220  173.7640  140.1760 O   0  0  0  0  0  0  0  0  0  0  0  0
  179.0920  175.7060  141.4050 N   0  0  0  0  0  1  0  0  0  0  0  0
  1 29  1  0  0  0  0
  2 21  1  1  0  0  0
  2 24  1  0  0  0  0
  2 11  1  0  0  0  0
  4 22  1  6  0  0  0
  4  5  1  0  0  0  0
  5 17  1  0  0  0  0
  6 18  2  0  0  0  0
  6 16  1  0  0  0  0
  8 14  1  0  0  0  0
  9  1  1  0  0  0  0
 10  3  1  6  0  0  0
 10 12  1  0  0  0  0
 11  7  1  6  0  0  0
 11 16  1  0  0  0  0
 11 12  1  0  0  0  0
 12  3  1  6  0  0  0
 13 19  1  0  0  0  0
 13 24  1  0  0  0  0
 13 20  1  1  0  0  0
 15  1  2  0  0  0  0
 16  9  2  0  0  0  0
 17 14  2  0  0  0  0
 18 15  1  0  0  0  0
 19 27  1  1  0  0  0
 19 10  1  0  0  0  0
 20 25  1  0  0  0  0
 21  6  1  0  0  0  0
 23  8  2  0  0  0  0
 24  4  1  0  0  0  0
 25  5  2  0  0  0  0
 25 23  1  0  0  0  0
 27 26  1  0  0  0  0
 28 30  1  0  0  0  0
 29 28  2  0  0  0  0
 30 32  1  0  0  0  0
 31 30  2  0  0  0  0
M  END
>  <MODEL>
6

>  <REMARK>
 VINA RESULT:      -5.7      5.455      8.792
  Name = 
  3 active torsions:
  status: ('A' for Active; 'I' for Inactive)
    1  A    between atoms: C_1  and  C_10
    2  A    between atoms: C_2  and  N_24
    3  A    between atoms: C_25  and  C_26
                            x       y       z     vdW  Elec       q    Type
                         _______ _______ _______ _____ _____    ______ ____

>  <TORSDO>
F 3

$$$$
=
 OpenBabel10262421393D

 32 37  0  0  1  0  0  0  0  0999 V2000
  185.3550  178.9230  142.4120 C   0  0  0  0  0  0  0  0  0  0  0  0
  183.9870  178.9310  137.8940 C   0  0  1  0  0  3  0  0  0  0  0  0
  180.8150  179.8740  139.6230 C   0  0  0  0  0  2  0  0  0  0  0  0
  183.1850  176.4860  138.0490 C   0  0  1  0  0  3  0  0  0  0  0  0
  181.8460  175.8050  138.0450 C   0  0  0  0  0  0  0  0  0  0  0  0
  185.4620  178.6280  139.6450 C   0  0  0  0  0  0  0  0  0  0  0  0
  183.2290  180.8820  139.0940 O   0  0  0  0  0  1  0  0  0  0  0  0
  179.3320  174.5670  138.0760 C   0  0  0  0  0  3  0  0  0  0  0  0
  184.2700  179.3320  141.6190 C   0  0  0  0  0  3  0  0  0  0  0  0
  180.8160  178.7470  138.6120 C   0  0  2  0  0  3  0  0  0  0  0  0
  183.3140  179.4870  139.2040 C   0  0  1  0  0  0  0  0  0  0  0  0
  181.9550  178.8520  139.6330 C   0  0  1  0  0  3  0  0  0  0  0  0
  182.0170  178.1970  136.4190 C   0  0  2  0  0  3  0  0  0  0  0  0
  180.2060  174.4000  139.1520 C   0  0  0  0  0  3  0  0  0  0  0  0
  186.4960  178.3530  141.7970 C   0  0  0  0  0  3  0  0  0  0  0  0
  184.3400  179.1490  140.2330 C   0  0  0  0  0  0  0  0  0  0  0  0
  181.4660  175.0090  139.1330 C   0  0  0  0  0  3  0  0  0  0  0  0
  186.5520  178.2030  140.4010 C   0  0  0  0  0  3  0  0  0  0  0  0
  181.1870  179.2360  137.2090 C   0  0  1  0  0  3  0  0  0  0  0  0
  181.2080  177.0350  136.0360 N   0  0  0  0  0  2  0  0  0  0  0  0
  185.3560  178.5510  138.2390 N   0  0  0  0  0  2  0  0  0  0  0  0
  184.1850  175.5780  137.7000 O   0  0  0  0  0  1  0  0  0  0  0  0
  179.7050  175.3700  136.9950 C   0  0  0  0  0  3  0  0  0  0  0  0
  183.2960  177.7580  137.1690 C   0  0  1  0  0  3  0  0  0  0  0  0
  180.9410  176.0160  136.9950 C   0  0  0  0  0  0  0  0  0  0  0  0
  180.0010  181.0820  136.1910 O   0  0  0  0  0  1  0  0  0  0  0  0
  179.9510  179.7080  136.4340 C   0  0  0  0  0  2  0  0  0  0  0  0
  185.6820  178.2390  144.6920 C   0  0  0  0  0  3  0  0  0  0  0  0
  185.2900  179.1230  143.8320 N   0  0  0  0  0  0  0  0  0  0  0  0
  185.6290  178.5280  146.1320 C   0  0  0  0  0  0  0  0  0  0  0  0
  184.5770  179.0020  146.6330 O   0  0  0  0  0  0  0  0  0  0  0  0
  186.7530  178.2620  146.9670 N   0  0  0  0  0  1  0  0  0  0  0  0
  1 29  1  0  0  0  0
  2 21  1  1  0  0  0
  2 11  1  0  0  0  0
  4 22  1  6  0  0  0
  5  4  1  0  0  0  0
  5 17  1  0  0  0  0
  6 16  2  0  0  0  0
  6 18  1  0  0  0  0
  8 14  1  0  0  0  0
  9  1  2  0  0  0  0
 10  3  1  1  0  0  0
 10 12  1  0  0  0  0
 11  7  1  6  0  0  0
 11 12  1  0  0  0  0
 11 16  1  0  0  0  0
 12  3  1  1  0  0  0
 13 20  1  1  0  0  0
 13 24  1  0  0  0  0
 13 19  1  0  0  0  0
 15  1  1  0  0  0  0
 16  9  1  0  0  0  0
 17 14  2  0  0  0  0
 18 15  2  0  0  0  0
 19 27  1  6  0  0  0
 19 10  1  0  0  0  0
 20 25  1  0  0  0  0
 21  6  1  0  0  0  0
 23 25  1  0  0  0  0
 23  8  2  0  0  0  0
 24  2  1  0  0  0  0
 24  4  1  0  0  0  0
 25  5  2  0  0  0  0
 26 27  1  0  0  0  0
 28 30  1  0  0  0  0
 29 28  2  0  0  0  0
 30 31  2  0  0  0  0
 30 32  1  0  0  0  0
M  END
>  <MODEL>
7

>  <REMARK>
 VINA RESULT:      -5.4      2.594      4.744
  Name = 
  3 active torsions:
  status: ('A' for Active; 'I' for Inactive)
    1  A    between atoms: C_1  and  C_10
    2  A    between atoms: C_2  and  N_24
    3  A    between atoms: C_25  and  C_26
                            x       y       z     vdW  Elec       q    Type
                         _______ _______ _______ _____ _____    ______ ____

>  <TORSDO>
F 3

$$$$
=
 OpenBabel10262421393D

 32 37  0  0  1  0  0  0  0  0999 V2000
  183.8870  175.2030  135.9020 C   0  0  0  0  0  0  0  0  0  0  0  0
  188.3810  176.3760  135.0590 C   0  0  1  0  0  3  0  0  0  0  0  0
  188.8000  173.2430  137.0450 C   0  0  0  0  0  2  0  0  0  0  0  0
  188.5500  177.6530  137.2930 C   0  0  1  0  0  3  0  0  0  0  0  0
  189.2640  177.4240  138.5950 C   0  0  0  0  0  0  0  0  0  0  0  0
  186.0890  176.6510  135.0010 C   0  0  0  0  0  0  0  0  0  0  0  0
  187.9410  174.0400  134.6470 O   0  0  0  0  0  1  0  0  0  0  0  0
  190.5750  176.9510  141.0260 C   0  0  0  0  0  3  0  0  0  0  0  0
  185.1760  174.6570  136.0030 C   0  0  0  0  0  3  0  0  0  0  0  0
  189.5620  174.4900  137.4380 C   0  0  2  0  0  3  0  0  0  0  0  0
  187.7150  175.0520  135.5900 C   0  0  1  0  0  0  0  0  0  0  0  0
  188.0860  174.5960  137.0350 C   0  0  1  0  0  3  0  0  0  0  0  0
  190.6590  176.4700  136.2420 C   0  0  2  0  0  3  0  0  0  0  0  0
  189.1860  177.0880  140.9970 C   0  0  0  0  0  3  0  0  0  0  0  0
  183.7160  176.4950  135.3480 C   0  0  0  0  0  3  0  0  0  0  0  0
  186.2680  175.4160  135.5660 C   0  0  0  0  0  0  0  0  0  0  0  0
  188.5310  177.3350  139.7850 C   0  0  0  0  0  3  0  0  0  0  0  0
  184.8260  177.2270  134.8930 C   0  0  0  0  0  3  0  0  0  0  0  0
  190.5400  174.9320  136.3450 C   0  0  1  0  0  3  0  0  0  0  0  0
  191.3570  177.0390  137.3990 N   0  0  0  0  0  2  0  0  0  0  0  0
  187.3020  177.2460  134.5940 N   0  0  0  0  0  2  0  0  0  0  0  0
  188.2180  179.0010  137.1590 O   0  0  0  0  0  1  0  0  0  0  0  0
  191.3070  177.0290  139.8380 C   0  0  0  0  0  3  0  0  0  0  0  0
  189.2940  177.1620  136.0230 C   0  0  1  0  0  3  0  0  0  0  0  0
  190.6520  177.2280  138.6230 C   0  0  0  0  0  0  0  0  0  0  0  0
  192.4070  173.8310  135.2720 O   0  0  0  0  0  1  0  0  0  0  0  0
  191.9040  174.2490  136.5050 C   0  0  0  0  0  2  0  0  0  0  0  0
  182.5790  173.1900  135.9820 C   0  0  0  0  0  3  0  0  0  0  0  0
  182.7660  174.4200  136.3370 N   0  0  0  0  0  0  0  0  0  0  0  0
  181.4320  172.4320  136.5010 C   0  0  0  0  0  0  0  0  0  0  0  0
  181.1570  171.3060  136.0130 O   0  0  0  0  0  0  0  0  0  0  0  0
  180.6370  172.9560  137.5630 N   0  0  0  0  0  1  0  0  0  0  0  0
  1  9  1  0  0  0  0
  1 29  1  0  0  0  0
  2 21  1  1  0  0  0
  2 11  1  0  0  0  0
  2 24  1  0  0  0  0
  4 22  1  6  0  0  0
  4  5  1  0  0  0  0
  5 25  2  0  0  0  0
  5 17  1  0  0  0  0
  6 16  1  0  0  0  0
 10  3  1  6  0  0  0
 11  7  1  6  0  0  0
 11 12  1  0  0  0  0
 12  3  1  6  0  0  0
 12 10  1  0  0  0  0
 13 19  1  0  0  0  0
 13 20  1  1  0  0  0
 14  8  1  0  0  0  0
 15  1  2  0  0  0  0
 16 11  1  0  0  0  0
 16  9  2  0  0  0  0
 17 14  2  0  0  0  0
 18  6  2  0  0  0  0
 18 15  1  0  0  0  0
 19 27  1  1  0  0  0
 19 10  1  0  0  0  0
 20 25  1  0  0  0  0
 21  6  1  0  0  0  0
 23  8  2  0  0  0  0
 24 13  1  0  0  0  0
 24  4  1  0  0  0  0
 25 23  1  0  0  0  0
 26 27  1  0  0  0  0
 28 29  2  0  0  0  0
 28 30  1  0  0  0  0
 30 32  1  0  0  0  0
 31 30  2  0  0  0  0
M  END
>  <MODEL>
8

>  <REMARK>
 VINA RESULT:      -5.0      6.451     10.083
  Name = 
  3 active torsions:
  status: ('A' for Active; 'I' for Inactive)
    1  A    between atoms: C_1  and  C_10
    2  A    between atoms: C_2  and  N_24
    3  A    between atoms: C_25  and  C_26
                            x       y       z     vdW  Elec       q    Type
                         _______ _______ _______ _____ _____    ______ ____

>  <TORSDO>
F 3

$$$$
=
 OpenBabel10262421393D

 32 37  0  0  1  0  0  0  0  0999 V2000
  184.8810  175.7680  136.9910 C   0  0  0  0  0  0  0  0  0  0  0  0
  189.0260  177.9860  137.4170 C   0  0  1  0  0  3  0  0  0  0  0  0
  190.0830  174.4110  137.6180 C   0  0  0  0  0  2  0  0  0  0  0  0
  188.8740  177.9440  139.9910 C   0  0  1  0  0  3  0  0  0  0  0  0
  189.5980  177.2120  141.0850 C   0  0  0  0  0  0  0  0  0  0  0  0
  186.7310  177.8380  137.2140 C   0  0  0  0  0  0  0  0  0  0  0  0
  189.1130  176.1570  135.8480 O   0  0  0  0  0  1  0  0  0  0  0  0
  190.9380  175.8030  143.1030 C   0  0  0  0  0  3  0  0  0  0  0  0
  186.2570  175.4870  136.9690 C   0  0  0  0  0  3  0  0  0  0  0  0
  190.5480  175.3940  138.6720 C   0  0  2  0  0  3  0  0  0  0  0  0
  188.6560  176.4830  137.1310 C   0  0  1  0  0  0  0  0  0  0  0  0
  189.0910  175.4260  138.1920 C   0  0  1  0  0  3  0  0  0  0  0  0
  191.2080  177.8660  138.7670 C   0  0  2  0  0  3  0  0  0  0  0  0
  189.5530  175.6860  142.9710 C   0  0  0  0  0  3  0  0  0  0  0  0
  184.4430  177.1060  137.1360 C   0  0  0  0  0  3  0  0  0  0  0  0
  187.1650  176.5430  137.1080 C   0  0  0  0  0  0  0  0  0  0  0  0
  188.8810  176.3970  141.9700 C   0  0  0  0  0  3  0  0  0  0  0  0
  185.3750  178.1530  137.2490 C   0  0  0  0  0  3  0  0  0  0  0  0
  191.4250  176.4990  138.0760 C   0  0  1  0  0  3  0  0  0  0  0  0
  191.7460  177.8750  140.1320 N   0  0  0  0  0  2  0  0  0  0  0  0
  187.7920  178.7630  137.3130 N   0  0  0  0  0  2  0  0  0  0  0  0
  188.2590  179.0870  140.5030 O   0  0  0  0  0  1  0  0  0  0  0  0
  191.6560  176.6080  142.2140 C   0  0  0  0  0  3  0  0  0  0  0  0
  189.7290  178.3150  138.7500 C   0  0  1  0  0  3  0  0  0  0  0  0
  190.9950  177.2810  141.1870 C   0  0  0  0  0  0  0  0  0  0  0  0
  193.6680  177.0050  137.3250 O   0  0  0  0  0  1  0  0  0  0  0  0
  192.9020  176.0880  138.0460 C   0  0  0  0  0  2  0  0  0  0  0  0
  184.2950  173.5050  136.4350 C   0  0  0  0  0  3  0  0  0  0  0  0
  183.9500  174.6870  136.8340 N   0  0  0  0  0  0  0  0  0  0  0  0
  183.2960  172.4320  136.3390 C   0  0  0  0  0  0  0  0  0  0  0  0
  183.3170  171.4860  137.1690 O   0  0  0  0  0  0  0  0  0  0  0  0
  182.2960  172.4600  135.3240 N   0  0  0  0  0  1  0  0  0  0  0  0
  1 15  1  0  0  0  0
  2 21  1  1  0  0  0
  2 24  1  0  0  0  0
  4 22  1  1  0  0  0
  4  5  1  0  0  0  0
  5 25  2  0  0  0  0
  5 17  1  0  0  0  0
  6 18  1  0  0  0  0
  6 21  1  0  0  0  0
  9  1  2  0  0  0  0
  9 16  1  0  0  0  0
 10  3  1  6  0  0  0
 11  7  1  6  0  0  0
 11  2  1  0  0  0  0
 11 12  1  0  0  0  0
 12  3  1  6  0  0  0
 12 10  1  0  0  0  0
 13 20  1  1  0  0  0
 14  8  1  0  0  0  0
 15 18  2  0  0  0  0
 16 11  1  0  0  0  0
 16  6  2  0  0  0  0
 17 14  2  0  0  0  0
 19 27  1  1  0  0  0
 19 10  1  0  0  0  0
 19 13  1  0  0  0  0
 20 25  1  0  0  0  0
 23  8  2  0  0  0  0
 24 13  1  0  0  0  0
 24  4  1  0  0  0  0
 25 23  1  0  0  0  0
 26 27  1  0  0  0  0
 28 29  2  0  0  0  0
 29  1  1  0  0  0  0
 30 28  1  0  0  0  0
 30 31  2  0  0  0  0
 32 30  1  0  0  0  0
M  END
>  <MODEL>
9

>  <REMARK>
 VINA RESULT:      -5.0      5.720     10.093
  Name = 
  3 active torsions:
  status: ('A' for Active; 'I' for Inactive)
    1  A    between atoms: C_1  and  C_10
    2  A    between atoms: C_2  and  N_24
    3  A    between atoms: C_25  and  C_26
                            x       y       z     vdW  Elec       q    Type
                         _______ _______ _______ _____ _____    ______ ____

>  <TORSDO>
F 3

$$$$
