=
 OpenBabel10262420103D

 27 31  0  0  1  0  0  0  0  0999 V2000
  191.0880  177.8460  140.3020 C   0  0  0  0  0  2  0  0  0  0  0  0
  188.9090  177.6450  139.0740 C   0  0  0  0  0  0  0  0  0  0  0  0
  188.5190  177.8420  141.6150 C   0  0  0  0  0  2  0  0  0  0  0  0
  184.5560  178.9080  138.4560 S   0  0  0  0  0  0  0  0  0  0  0  0
  183.3840  177.9030  140.7190 C   0  0  0  0  0  1  0  0  0  0  0  0
  188.4050  177.7680  137.7660 C   0  0  0  0  0  3  0  0  0  0  0  0
  185.7040  178.6420  140.8730 N   0  0  0  0  0  0  0  0  0  0  0  0
  189.5280  176.8730  145.5110 O   0  0  0  0  0  0  0  0  0  0  0  0
  185.9320  178.8700  142.2930 C   0  0  0  0  0  1  0  0  0  0  0  0
  189.9300  176.9350  144.3210 C   0  0  0  0  0  0  0  0  0  0  0  0
  186.7130  178.3240  139.9120 C   0  0  0  0  0  0  0  0  0  0  0  0
  190.2860  177.2330  139.2460 N   0  0  0  0  0  0  0  0  0  0  0  0
  184.4020  178.9410  140.2850 C   0  0  1  0  0  3  0  0  0  0  0  0
  186.2600  178.4160  138.6140 C   0  0  0  0  0  0  0  0  0  0  0  0
  190.9330  177.0710  141.6070 C   0  0  1  0  0  3  0  0  0  0  0  0
  188.0470  177.9230  140.1830 C   0  0  0  0  0  0  0  0  0  0  0  0
  189.2730  176.0910  143.2690 C   0  0  0  0  0  2  0  0  0  0  0  0
  187.0860  178.1480  137.5320 C   0  0  0  0  0  3  0  0  0  0  0  0
  191.0660  177.8020  143.9810 C   0  0  0  0  0  3  0  0  0  0  0  0
  191.5180  177.8850  142.7290 C   0  0  0  0  0  3  0  0  0  0  0  0
  189.4640  176.6730  141.8650 C   0  0  1  0  0  3  0  0  0  0  0  0
  192.0370  174.1260  136.9200 C   0  0  0  0  0  3  0  0  0  0  0  0
  190.8750  176.1860  138.4420 C   0  0  0  0  0  0  0  0  0  0  0  0
  190.0760  175.1830  137.8670 C   0  0  0  0  0  3  0  0  0  0  0  0
  190.6520  174.1610  137.1090 C   0  0  0  0  0  3  0  0  0  0  0  0
  192.8430  175.1120  137.4920 C   0  0  0  0  0  3  0  0  0  0  0  0
  192.2660  176.1340  138.2520 C   0  0  0  0  0  3  0  0  0  0  0  0
  2 12  1  0  0  0  0
  2 16  1  0  0  0  0
  4 14  1  0  0  0  0
  4 13  1  0  0  0  0
  6  2  2  0  0  0  0
  7  9  1  0  0  0  0
 10  8  2  0  0  0  0
 11 16  2  0  0  0  0
 11  7  1  0  0  0  0
 12  1  1  0  0  0  0
 13  5  1  6  0  0  0
 13  7  1  0  0  0  0
 14 11  1  0  0  0  0
 15  1  1  6  0  0  0
 15 21  1  0  0  0  0
 15 20  1  0  0  0  0
 16  3  1  0  0  0  0
 17 10  1  0  0  0  0
 18  6  1  0  0  0  0
 18 14  2  0  0  0  0
 19 10  1  0  0  0  0
 20 19  2  0  0  0  0
 21  3  1  1  0  0  0
 21 17  1  0  0  0  0
 22 25  2  0  0  0  0
 22 26  1  0  0  0  0
 23 12  1  0  0  0  0
 24 23  2  0  0  0  0
 25 24  1  0  0  0  0
 26 27  2  0  0  0  0
 27 23  1  0  0  0  0
M  END
>  <MODEL>
1

>  <REMARK>
 VINA RESULT:      -7.6      0.000      0.000
  Name = 
  1 active torsions:
  status: ('A' for Active; 'I' for Inactive)
    1  A    between atoms: C_9  and  N_15
                            x       y       z     vdW  Elec       q    Type
                         _______ _______ _______ _____ _____    ______ ____

>  <TORSDO>
F 1

$$$$
=
 OpenBabel10262420103D

 27 31  0  0  1  0  0  0  0  0999 V2000
  184.0670  179.3850  141.6630 C   0  0  0  0  0  2  0  0  0  0  0  0
  186.2720  178.5840  140.7760 C   0  0  0  0  0  0  0  0  0  0  0  0
  184.3480  177.9210  139.1940 C   0  0  0  0  0  2  0  0  0  0  0  0
  189.1650  177.9390  137.2910 S   0  0  0  0  0  0  0  0  0  0  0  0
  187.8750  175.9720  135.8860 C   0  0  0  0  0  1  0  0  0  0  0  0
  187.6480  178.8130  140.9690 C   0  0  0  0  0  3  0  0  0  0  0  0
  186.5050  177.5780  137.1100 N   0  0  0  0  0  0  0  0  0  0  0  0
  180.5080  176.5070  138.5710 O   0  0  0  0  0  0  0  0  0  0  0  0
  185.1920  177.5030  136.4870 C   0  0  0  0  0  1  0  0  0  0  0  0
  181.2930  177.0470  139.3920 C   0  0  0  0  0  0  0  0  0  0  0  0
  186.7650  177.9950  138.4530 C   0  0  0  0  0  0  0  0  0  0  0  0
  185.3770  178.7840  141.8960 N   0  0  0  0  0  0  0  0  0  0  0  0
  187.7090  177.4230  136.2990 C   0  0  1  0  0  3  0  0  0  0  0  0
  188.1030  178.2160  138.6930 C   0  0  0  0  0  0  0  0  0  0  0  0
  183.0380  178.3100  141.3280 C   0  0  1  0  0  3  0  0  0  0  0  0
  185.8090  178.1590  139.4890 C   0  0  0  0  0  0  0  0  0  0  0  0
  182.5180  176.3080  139.8430 C   0  0  0  0  0  2  0  0  0  0  0  0
  188.5640  178.6280  139.9360 C   0  0  0  0  0  3  0  0  0  0  0  0
  180.9810  178.3770  139.9310 C   0  0  0  0  0  3  0  0  0  0  0  0
  181.7920  178.9730  140.8060 C   0  0  0  0  0  3  0  0  0  0  0  0
  183.6070  177.2600  140.3500 C   0  0  1  0  0  3  0  0  0  0  0  0
  186.4190  177.5310  145.8290 C   0  0  0  0  0  3  0  0  0  0  0  0
  185.7180  178.3480  143.2310 C   0  0  0  0  0  0  0  0  0  0  0  0
  184.9800  178.7870  144.3430 C   0  0  0  0  0  3  0  0  0  0  0  0
  185.3260  178.3800  145.6340 C   0  0  0  0  0  3  0  0  0  0  0  0
  187.1670  177.0940  144.7340 C   0  0  0  0  0  3  0  0  0  0  0  0
  186.8200  177.5020  143.4420 C   0  0  0  0  0  3  0  0  0  0  0  0
  1 12  1  0  0  0  0
  2  6  1  0  0  0  0
  2 12  1  0  0  0  0
  3 16  1  0  0  0  0
  4 14  1  0  0  0  0
  7 11  1  0  0  0  0
  8 10  2  0  0  0  0
  9  7  1  0  0  0  0
 10 17  1  0  0  0  0
 10 19  1  0  0  0  0
 11 14  2  0  0  0  0
 11 16  1  0  0  0  0
 12 23  1  0  0  0  0
 13  5  1  1  0  0  0
 13  7  1  0  0  0  0
 13  4  1  0  0  0  0
 14 18  1  0  0  0  0
 15 20  1  6  0  0  0
 15  1  1  0  0  0  0
 16  2  2  0  0  0  0
 17 21  1  0  0  0  0
 18  6  2  0  0  0  0
 19 20  2  0  0  0  0
 21  3  1  6  0  0  0
 21 15  1  0  0  0  0
 23 27  2  0  0  0  0
 23 24  1  0  0  0  0
 24 25  2  0  0  0  0
 25 22  1  0  0  0  0
 26 22  2  0  0  0  0
 27 26  1  0  0  0  0
M  END
>  <MODEL>
2

>  <REMARK>
 VINA RESULT:      -7.0      3.679      7.284
  Name = 
  1 active torsions:
  status: ('A' for Active; 'I' for Inactive)
    1  A    between atoms: C_9  and  N_15
                            x       y       z     vdW  Elec       q    Type
                         _______ _______ _______ _____ _____    ______ ____

>  <TORSDO>
F 1

$$$$
=
 OpenBabel10262420103D

 27 31  0  0  1  0  0  0  0  0999 V2000
  188.6220  178.4440  139.1170 C   0  0  0  0  0  2  0  0  0  0  0  0
  190.7950  177.1890  139.0930 C   0  0  0  0  0  0  0  0  0  0  0  0
  189.3680  176.6000  137.0290 C   0  0  0  0  0  2  0  0  0  0  0  0
  194.4440  175.5910  136.8450 S   0  0  0  0  0  0  0  0  0  0  0  0
  193.2990  173.6570  135.2780 C   0  0  0  0  0  1  0  0  0  0  0  0
  192.0590  177.2300  139.7110 C   0  0  0  0  0  3  0  0  0  0  0  0
  191.9560  175.6200  135.8230 N   0  0  0  0  0  0  0  0  0  0  0  0
  185.7140  175.7160  135.2960 O   0  0  0  0  0  0  0  0  0  0  0  0
  190.9130  175.6550  134.8080 C   0  0  0  0  0  1  0  0  0  0  0  0
  186.2940  176.2450  136.2780 C   0  0  0  0  0  0  0  0  0  0  0  0
  191.8610  176.1890  137.1310 C   0  0  0  0  0  0  0  0  0  0  0  0
  189.6530  177.6900  139.8280 N   0  0  0  0  0  0  0  0  0  0  0  0
  193.2980  175.1610  135.4770 C   0  0  1  0  0  3  0  0  0  0  0  0
  193.0740  176.2350  137.7810 C   0  0  0  0  0  0  0  0  0  0  0  0
  187.5610  177.5010  138.5600 C   0  0  1  0  0  3  0  0  0  0  0  0
  190.6820  176.6520  137.7700 C   0  0  0  0  0  0  0  0  0  0  0  0
  187.1500  175.4040  137.1770 C   0  0  0  0  0  2  0  0  0  0  0  0
  193.1960  176.7530  139.0640 C   0  0  0  0  0  3  0  0  0  0  0  0
  186.0950  177.6740  136.5570 C   0  0  0  0  0  3  0  0  0  0  0  0
  186.6930  178.2620  137.5940 C   0  0  0  0  0  3  0  0  0  0  0  0
  188.1900  176.2420  137.9270 C   0  0  1  0  0  3  0  0  0  0  0  0
  189.0680  176.8510  143.9600 C   0  0  0  0  0  3  0  0  0  0  0  0
  189.4690  177.4130  141.2340 C   0  0  0  0  0  0  0  0  0  0  0  0
  190.1800  176.3780  141.8640 C   0  0  0  0  0  3  0  0  0  0  0  0
  189.9840  176.1000  143.2180 C   0  0  0  0  0  3  0  0  0  0  0  0
  188.3490  177.8780  143.3460 C   0  0  0  0  0  3  0  0  0  0  0  0
  188.5450  178.1550  141.9900 C   0  0  0  0  0  3  0  0  0  0  0  0
  1 12  1  0  0  0  0
  2  6  1  0  0  0  0
  2 12  1  0  0  0  0
  3 16  1  0  0  0  0
  4 14  1  0  0  0  0
  7 11  1  0  0  0  0
  8 10  2  0  0  0  0
  9  7  1  0  0  0  0
 10 19  1  0  0  0  0
 10 17  1  0  0  0  0
 11 16  1  0  0  0  0
 11 14  2  0  0  0  0
 12 23  1  0  0  0  0
 13  5  1  1  0  0  0
 13  7  1  0  0  0  0
 13  4  1  0  0  0  0
 14 18  1  0  0  0  0
 15 20  1  6  0  0  0
 15  1  1  0  0  0  0
 16  2  2  0  0  0  0
 17 21  1  0  0  0  0
 18  6  2  0  0  0  0
 19 20  2  0  0  0  0
 21  3  1  6  0  0  0
 21 15  1  0  0  0  0
 23 24  2  0  0  0  0
 23 27  1  0  0  0  0
 24 25  1  0  0  0  0
 25 22  2  0  0  0  0
 26 22  1  0  0  0  0
 27 26  2  0  0  0  0
M  END
>  <MODEL>
3

>  <REMARK>
 VINA RESULT:      -6.8      3.495      7.142
  Name = 
  1 active torsions:
  status: ('A' for Active; 'I' for Inactive)
    1  A    between atoms: C_9  and  N_15
                            x       y       z     vdW  Elec       q    Type
                         _______ _______ _______ _____ _____    ______ ____

>  <TORSDO>
F 1

$$$$
=
 OpenBabel10262420103D

 27 31  0  0  1  0  0  0  0  0999 V2000
  189.3420  178.4290  140.2500 C   0  0  0  0  0  2  0  0  0  0  0  0
  186.9620  178.4290  141.0430 C   0  0  0  0  0  0  0  0  0  0  0  0
  188.5640  177.7340  142.9390 C   0  0  0  0  0  2  0  0  0  0  0  0
  183.8290  179.3830  144.2370 S   0  0  0  0  0  0  0  0  0  0  0  0
  184.4880  177.5730  146.1860 C   0  0  0  0  0  1  0  0  0  0  0  0
  185.7050  178.9270  140.6510 C   0  0  0  0  0  3  0  0  0  0  0  0
  186.2900  178.4470  144.7910 N   0  0  0  0  0  0  0  0  0  0  0  0
  191.8660  175.6340  144.2900 O   0  0  0  0  0  0  0  0  0  0  0  0
  187.5050  178.2140  145.5580 C   0  0  0  0  0  1  0  0  0  0  0  0
  191.2910  176.1270  143.2860 C   0  0  0  0  0  0  0  0  0  0  0  0
  186.2160  178.5690  143.3690 C   0  0  0  0  0  0  0  0  0  0  0  0
  187.9330  178.1230  140.0140 N   0  0  0  0  0  0  0  0  0  0  0  0
  185.0480  178.7930  145.4770 C   0  0  1  0  0  3  0  0  0  0  0  0
  184.9960  179.0400  142.9370 C   0  0  0  0  0  0  0  0  0  0  0  0
  190.0360  177.2540  140.9320 C   0  0  1  0  0  3  0  0  0  0  0  0
  187.2320  178.2360  142.4360 C   0  0  0  0  0  0  0  0  0  0  0  0
  189.9400  175.6180  142.8790 C   0  0  0  0  0  2  0  0  0  0  0  0
  184.7220  179.2300  141.5900 C   0  0  0  0  0  3  0  0  0  0  0  0
  191.9660  177.1670  142.4990 C   0  0  0  0  0  3  0  0  0  0  0  0
  191.3840  177.7050  141.4270 C   0  0  0  0  0  3  0  0  0  0  0  0
  189.1640  176.6480  142.0530 C   0  0  1  0  0  3  0  0  0  0  0  0
  186.8460  176.2270  136.3600 C   0  0  0  0  0  3  0  0  0  0  0  0
  187.5580  177.4660  138.7830 C   0  0  0  0  0  0  0  0  0  0  0  0
  188.3320  176.4170  138.2610 C   0  0  0  0  0  3  0  0  0  0  0  0
  187.9780  175.7990  137.0590 C   0  0  0  0  0  3  0  0  0  0  0  0
  186.0710  177.2750  136.8630 C   0  0  0  0  0  3  0  0  0  0  0  0
  186.4270  177.8930  138.0650 C   0  0  0  0  0  3  0  0  0  0  0  0
  2 16  1  0  0  0  0
  4 13  1  0  0  0  0
  6  2  2  0  0  0  0
  6 18  1  0  0  0  0
  7 13  1  0  0  0  0
  7  9  1  0  0  0  0
 10  8  2  0  0  0  0
 11  7  1  0  0  0  0
 12  1  1  0  0  0  0
 12  2  1  0  0  0  0
 13  5  1  6  0  0  0
 14 11  1  0  0  0  0
 14  4  1  0  0  0  0
 15  1  1  1  0  0  0
 15 20  1  0  0  0  0
 15 21  1  0  0  0  0
 16  3  1  0  0  0  0
 16 11  2  0  0  0  0
 17 10  1  0  0  0  0
 18 14  2  0  0  0  0
 19 10  1  0  0  0  0
 20 19  2  0  0  0  0
 21 17  1  1  0  0  0
 21  3  1  0  0  0  0
 22 26  2  0  0  0  0
 22 25  1  0  0  0  0
 23 12  1  0  0  0  0
 24 23  1  0  0  0  0
 25 24  2  0  0  0  0
 26 27  1  0  0  0  0
 27 23  2  0  0  0  0
M  END
>  <MODEL>
4

>  <REMARK>
 VINA RESULT:      -6.6      2.436      3.791
  Name = 
  1 active torsions:
  status: ('A' for Active; 'I' for Inactive)
    1  A    between atoms: C_9  and  N_15
                            x       y       z     vdW  Elec       q    Type
                         _______ _______ _______ _____ _____    ______ ____

>  <TORSDO>
F 1

$$$$
=
 OpenBabel10262420103D

 27 31  0  0  1  0  0  0  0  0999 V2000
  181.7170  176.9540  140.1350 C   0  0  0  0  0  2  0  0  0  0  0  0
  181.1260  179.3760  139.8510 C   0  0  0  0  0  0  0  0  0  0  0  0
  181.8960  178.3490  137.6160 C   0  0  0  0  0  2  0  0  0  0  0  0
  179.1550  182.7390  137.4570 S   0  0  0  0  0  0  0  0  0  0  0  0
  180.8050  182.8770  135.2750 C   0  0  0  0  0  1  0  0  0  0  0  0
  180.4310  180.3930  140.5320 C   0  0  0  0  0  3  0  0  0  0  0  0
  180.5030  180.7000  136.3350 N   0  0  0  0  0  0  0  0  0  0  0  0
  184.4500  175.9160  135.4480 O   0  0  0  0  0  0  0  0  0  0  0  0
  180.8860  179.7310  135.3190 C   0  0  0  0  0  1  0  0  0  0  0  0
  183.9770  176.1700  136.5860 C   0  0  0  0  0  0  0  0  0  0  0  0
  180.5460  180.4830  137.7480 C   0  0  0  0  0  0  0  0  0  0  0  0
  181.7510  178.3280  140.6300 N   0  0  0  0  0  0  0  0  0  0  0  0
  179.8260  181.9350  135.9500 C   0  0  1  0  0  3  0  0  0  0  0  0
  179.8910  181.4640  138.4580 C   0  0  0  0  0  0  0  0  0  0  0  0
  182.9160  176.6830  139.2310 C   0  0  1  0  0  3  0  0  0  0  0  0
  181.1960  179.4160  138.4210 C   0  0  0  0  0  0  0  0  0  0  0  0
  184.2420  177.5030  137.2190 C   0  0  0  0  0  2  0  0  0  0  0  0
  179.8170  181.4360  139.8440 C   0  0  0  0  0  3  0  0  0  0  0  0
  183.2050  175.1430  137.2990 C   0  0  0  0  0  3  0  0  0  0  0  0
  182.6960  175.3820  138.5080 C   0  0  0  0  0  3  0  0  0  0  0  0
  183.1840  177.8590  138.2690 C   0  0  1  0  0  3  0  0  0  0  0  0
  183.8440  179.1130  144.2530 C   0  0  0  0  0  3  0  0  0  0  0  0
  182.4640  178.6110  141.8550 C   0  0  0  0  0  0  0  0  0  0  0  0
  183.8650  178.7170  141.8660 C   0  0  0  0  0  3  0  0  0  0  0  0
  184.5510  178.9690  143.0560 C   0  0  0  0  0  3  0  0  0  0  0  0
  182.4520  179.0030  144.2590 C   0  0  0  0  0  3  0  0  0  0  0  0
  181.7660  178.7500  143.0670 C   0  0  0  0  0  3  0  0  0  0  0  0
  1 12  1  0  0  0  0
  2  6  1  0  0  0  0
  2 12  1  0  0  0  0
  3 21  1  0  0  0  0
  3 16  1  0  0  0  0
  4 14  1  0  0  0  0
  7 11  1  0  0  0  0
  8 10  2  0  0  0  0
  9  7  1  0  0  0  0
 10 17  1  0  0  0  0
 10 19  1  0  0  0  0
 11 16  1  0  0  0  0
 11 14  2  0  0  0  0
 12 23  1  0  0  0  0
 13  5  1  1  0  0  0
 13  7  1  0  0  0  0
 13  4  1  0  0  0  0
 14 18  1  0  0  0  0
 15 20  1  6  0  0  0
 15  1  1  0  0  0  0
 16  2  2  0  0  0  0
 18  6  2  0  0  0  0
 19 20  2  0  0  0  0
 21 17  1  6  0  0  0
 21 15  1  0  0  0  0
 22 26  1  0  0  0  0
 23 24  2  0  0  0  0
 23 27  1  0  0  0  0
 24 25  1  0  0  0  0
 25 22  2  0  0  0  0
 27 26  2  0  0  0  0
M  END
>  <MODEL>
5

>  <REMARK>
 VINA RESULT:      -6.5      6.157      9.026
  Name = 
  1 active torsions:
  status: ('A' for Active; 'I' for Inactive)
    1  A    between atoms: C_9  and  N_15
                            x       y       z     vdW  Elec       q    Type
                         _______ _______ _______ _____ _____    ______ ____

>  <TORSDO>
F 1

$$$$
=
 OpenBabel10262420103D

 27 31  0  0  1  0  0  0  0  0999 V2000
  187.0210  178.5320  136.9270 C   0  0  0  0  0  2  0  0  0  0  0  0
  186.9870  178.1380  139.4040 C   0  0  0  0  0  0  0  0  0  0  0  0
  189.1230  177.1590  138.3460 C   0  0  0  0  0  2  0  0  0  0  0  0
  189.1200  178.0360  143.4500 S   0  0  0  0  0  0  0  0  0  0  0  0
  190.7820  175.8830  143.1210 C   0  0  0  0  0  1  0  0  0  0  0  0
  186.3160  178.6030  140.5500 C   0  0  0  0  0  3  0  0  0  0  0  0
  190.2440  177.2150  141.1480 N   0  0  0  0  0  0  0  0  0  0  0  0
  191.0300  175.0960  135.3040 O   0  0  0  0  0  0  0  0  0  0  0  0
  191.3000  176.9140  140.1930 C   0  0  0  0  0  1  0  0  0  0  0  0
  190.0110  175.7590  135.6270 C   0  0  0  0  0  0  0  0  0  0  0  0
  188.9270  177.6610  140.8160 C   0  0  0  0  0  0  0  0  0  0  0  0
  186.2880  178.1690  138.1370 N   0  0  0  0  0  0  0  0  0  0  0  0
  190.5450  177.2790  142.5750 C   0  0  1  0  0  3  0  0  0  0  0  0
  188.2260  178.1120  141.9120 C   0  0  0  0  0  0  0  0  0  0  0  0
  187.6470  177.2950  136.2900 C   0  0  1  0  0  3  0  0  0  0  0  0
  188.3260  177.6470  139.5310 C   0  0  0  0  0  0  0  0  0  0  0  0
  189.0980  175.2450  136.7000 C   0  0  0  0  0  2  0  0  0  0  0  0
  186.9270  178.5890  141.8020 C   0  0  0  0  0  3  0  0  0  0  0  0
  189.7040  177.0100  134.9200 C   0  0  0  0  0  3  0  0  0  0  0  0
  188.6290  177.7330  135.2370 C   0  0  0  0  0  3  0  0  0  0  0  0
  188.2840  176.3690  137.3480 C   0  0  1  0  0  3  0  0  0  0  0  0
  182.1900  177.0800  137.7600 C   0  0  0  0  0  3  0  0  0  0  0  0
  184.8980  177.7900  138.0230 C   0  0  0  0  0  0  0  0  0  0  0  0
  184.5340  176.5070  137.5840 C   0  0  0  0  0  3  0  0  0  0  0  0
  183.1890  176.1520  137.4550 C   0  0  0  0  0  3  0  0  0  0  0  0
  182.5360  178.3630  138.1900 C   0  0  0  0  0  3  0  0  0  0  0  0
  183.8830  178.7170  138.3180 C   0  0  0  0  0  3  0  0  0  0  0  0
  1 12  1  0  0  0  0
  2 16  2  0  0  0  0
  2  6  1  0  0  0  0
  3 16  1  0  0  0  0
  6 18  2  0  0  0  0
  7 13  1  0  0  0  0
  8 10  2  0  0  0  0
  9  7  1  0  0  0  0
 10 17  1  0  0  0  0
 11  7  1  0  0  0  0
 11 14  2  0  0  0  0
 12  2  1  0  0  0  0
 13  5  1  1  0  0  0
 13  4  1  0  0  0  0
 14  4  1  0  0  0  0
 15 20  1  6  0  0  0
 15  1  1  0  0  0  0
 15 21  1  0  0  0  0
 16 11  1  0  0  0  0
 18 14  1  0  0  0  0
 19 20  2  0  0  0  0
 19 10  1  0  0  0  0
 21 17  1  6  0  0  0
 21  3  1  0  0  0  0
 22 26  1  0  0  0  0
 23 12  1  0  0  0  0
 23 27  1  0  0  0  0
 24 23  2  0  0  0  0
 25 24  1  0  0  0  0
 25 22  2  0  0  0  0
 26 27  2  0  0  0  0
M  END
>  <MODEL>
6

>  <REMARK>
 VINA RESULT:      -6.5      3.060      6.677
  Name = 
  1 active torsions:
  status: ('A' for Active; 'I' for Inactive)
    1  A    between atoms: C_9  and  N_15
                            x       y       z     vdW  Elec       q    Type
                         _______ _______ _______ _____ _____    ______ ____

>  <TORSDO>
F 1

$$$$
=
 OpenBabel10262420103D

 27 31  0  0  1  0  0  0  0  0999 V2000
  189.2630  177.2520  136.2110 C   0  0  0  0  0  2  0  0  0  0  0  0
  188.6470  177.3590  138.6410 C   0  0  0  0  0  0  0  0  0  0  0  0
  191.0650  176.5170  138.3400 C   0  0  0  0  0  2  0  0  0  0  0  0
  189.6990  178.3850  142.9730 S   0  0  0  0  0  0  0  0  0  0  0  0
  191.5910  176.4820  143.5270 C   0  0  0  0  0  1  0  0  0  0  0  0
  187.6690  177.9380  139.4700 C   0  0  0  0  0  3  0  0  0  0  0  0
  191.4370  177.2980  141.2320 N   0  0  0  0  0  0  0  0  0  0  0  0
  193.8630  174.1980  136.3570 O   0  0  0  0  0  0  0  0  0  0  0  0
  192.7240  176.9740  140.6320 C   0  0  0  0  0  1  0  0  0  0  0  0
  192.7360  174.7520  136.2830 C   0  0  0  0  0  0  0  0  0  0  0  0
  190.2090  177.4680  140.5210 C   0  0  0  0  0  0  0  0  0  0  0  0
  188.2890  177.0320  137.2770 N   0  0  0  0  0  0  0  0  0  0  0  0
  191.3640  177.6900  142.6360 C   0  0  1  0  0  3  0  0  0  0  0  0
  189.2150  178.0180  141.2990 C   0  0  0  0  0  0  0  0  0  0  0  0
  190.1450  176.0200  136.0320 C   0  0  1  0  0  3  0  0  0  0  0  0
  189.9530  177.1080  139.1720 C   0  0  0  0  0  0  0  0  0  0  0  0
  191.6380  174.3320  137.2140 C   0  0  0  0  0  2  0  0  0  0  0  0
  187.9450  178.2650  140.7960 C   0  0  0  0  0  3  0  0  0  0  0  0
  192.4970  175.7770  135.2580 C   0  0  0  0  0  3  0  0  0  0  0  0
  191.3120  176.3800  135.1520 C   0  0  0  0  0  3  0  0  0  0  0  0
  190.5830  175.4280  137.3880 C   0  0  1  0  0  3  0  0  0  0  0  0
  184.5480  175.2750  136.2520 C   0  0  0  0  0  3  0  0  0  0  0  0
  187.0150  176.4350  136.9460 C   0  0  0  0  0  0  0  0  0  0  0  0
  186.7850  175.0650  137.1520 C   0  0  0  0  0  3  0  0  0  0  0  0
  185.5590  174.4880  136.8110 C   0  0  0  0  0  3  0  0  0  0  0  0
  184.7650  176.6370  136.0340 C   0  0  0  0  0  3  0  0  0  0  0  0
  185.9930  177.2130  136.3750 C   0  0  0  0  0  3  0  0  0  0  0  0
  1 12  1  0  0  0  0
  2 16  2  0  0  0  0
  2  6  1  0  0  0  0
  3 16  1  0  0  0  0
  6 18  2  0  0  0  0
  7 13  1  0  0  0  0
  9  7  1  0  0  0  0
 10  8  2  0  0  0  0
 10 17  1  0  0  0  0
 11  7  1  0  0  0  0
 11 14  2  0  0  0  0
 12  2  1  0  0  0  0
 13  4  1  0  0  0  0
 13  5  1  1  0  0  0
 14  4  1  0  0  0  0
 15 20  1  6  0  0  0
 15  1  1  0  0  0  0
 15 21  1  0  0  0  0
 16 11  1  0  0  0  0
 18 14  1  0  0  0  0
 19 10  1  0  0  0  0
 20 19  2  0  0  0  0
 21 17  1  6  0  0  0
 21  3  1  0  0  0  0
 22 25  1  0  0  0  0
 23 24  1  0  0  0  0
 23 12  1  0  0  0  0
 25 24  2  0  0  0  0
 26 22  2  0  0  0  0
 26 27  1  0  0  0  0
 27 23  2  0  0  0  0
M  END
>  <MODEL>
7

>  <REMARK>
 VINA RESULT:      -6.5      3.123      6.149
  Name = 
  1 active torsions:
  status: ('A' for Active; 'I' for Inactive)
    1  A    between atoms: C_9  and  N_15
                            x       y       z     vdW  Elec       q    Type
                         _______ _______ _______ _____ _____    ______ ____

>  <TORSDO>
F 1

$$$$
=
 OpenBabel10262420103D

 27 31  0  0  1  0  0  0  0  0999 V2000
  188.5400  178.9120  141.1590 C   0  0  0  0  0  2  0  0  0  0  0  0
  186.1190  178.6280  140.5680 C   0  0  0  0  0  0  0  0  0  0  0  0
  186.4870  178.3430  143.1030 C   0  0  0  0  0  2  0  0  0  0  0  0
  181.6920  179.3780  141.4420 S   0  0  0  0  0  0  0  0  0  0  0  0
  181.3300  177.8590  143.6940 C   0  0  0  0  0  1  0  0  0  0  0  0
  185.2410  178.8990  139.5020 C   0  0  0  0  0  3  0  0  0  0  0  0
  183.5240  178.8680  143.3450 N   0  0  0  0  0  0  0  0  0  0  0  0
  188.6830  176.8800  146.2930 O   0  0  0  0  0  0  0  0  0  0  0  0
  184.1440  178.8840  144.6620 C   0  0  0  0  0  1  0  0  0  0  0  0
  188.7070  177.1940  145.0750 C   0  0  0  0  0  0  0  0  0  0  0  0
  184.2240  178.8550  142.0980 C   0  0  0  0  0  0  0  0  0  0  0  0
  187.5130  178.3820  140.2660 N   0  0  0  0  0  0  0  0  0  0  0  0
  182.0870  179.0830  143.2110 C   0  0  1  0  0  3  0  0  0  0  0  0
  183.4000  179.1010  141.0220 C   0  0  0  0  0  0  0  0  0  0  0  0
  188.8440  177.9160  142.2740 C   0  0  1  0  0  3  0  0  0  0  0  0
  185.6060  178.5980  141.9040 C   0  0  0  0  0  0  0  0  0  0  0  0
  187.8370  176.4570  144.1000 C   0  0  0  0  0  2  0  0  0  0  0  0
  183.8850  179.1320  139.7220 C   0  0  0  0  0  3  0  0  0  0  0  0
  189.6170  178.2510  144.6150 C   0  0  0  0  0  3  0  0  0  0  0  0
  189.6680  178.6030  143.3290 C   0  0  0  0  0  3  0  0  0  0  0  0
  187.5550  177.2860  142.8440 C   0  0  1  0  0  3  0  0  0  0  0  0
  188.7140  176.0420  136.9180 C   0  0  0  0  0  3  0  0  0  0  0  0
  187.9190  177.5740  139.1390 C   0  0  0  0  0  0  0  0  0  0  0  0
  189.1890  176.9760  139.0990 C   0  0  0  0  0  3  0  0  0  0  0  0
  189.5840  176.2130  137.9980 C   0  0  0  0  0  3  0  0  0  0  0  0
  187.4510  176.6370  136.9400 C   0  0  0  0  0  3  0  0  0  0  0  0
  187.0570  177.4010  138.0420 C   0  0  0  0  0  3  0  0  0  0  0  0
  2 16  1  0  0  0  0
  4 13  1  0  0  0  0
  6 18  1  0  0  0  0
  6  2  2  0  0  0  0
  7  9  1  0  0  0  0
 10  8  2  0  0  0  0
 11  7  1  0  0  0  0
 12  2  1  0  0  0  0
 12  1  1  0  0  0  0
 13  7  1  0  0  0  0
 13  5  1  6  0  0  0
 14  4  1  0  0  0  0
 14 11  1  0  0  0  0
 15  1  1  6  0  0  0
 15 21  1  0  0  0  0
 15 20  1  0  0  0  0
 16 11  2  0  0  0  0
 16  3  1  0  0  0  0
 17 10  1  0  0  0  0
 18 14  2  0  0  0  0
 19 10  1  0  0  0  0
 20 19  2  0  0  0  0
 21  3  1  1  0  0  0
 21 17  1  0  0  0  0
 22 26  2  0  0  0  0
 22 25  1  0  0  0  0
 23 12  1  0  0  0  0
 24 23  1  0  0  0  0
 25 24  2  0  0  0  0
 26 27  1  0  0  0  0
 27 23  2  0  0  0  0
M  END
>  <MODEL>
8

>  <REMARK>
 VINA RESULT:      -6.5      2.003      3.262
  Name = 
  1 active torsions:
  status: ('A' for Active; 'I' for Inactive)
    1  A    between atoms: C_9  and  N_15
                            x       y       z     vdW  Elec       q    Type
                         _______ _______ _______ _____ _____    ______ ____

>  <TORSDO>
F 1

$$$$
=
 OpenBabel10262420103D

 27 31  0  0  1  0  0  0  0  0999 V2000
  183.8370  179.6550  139.6820 C   0  0  0  0  0  2  0  0  0  0  0  0
  186.0710  178.6200  140.1590 C   0  0  0  0  0  0  0  0  0  0  0  0
  185.0880  177.7120  137.9560 C   0  0  0  0  0  2  0  0  0  0  0  0
  190.1790  177.1870  138.7450 S   0  0  0  0  0  0  0  0  0  0  0  0
  189.4900  175.0180  137.2190 C   0  0  0  0  0  1  0  0  0  0  0  0
  187.1970  178.8380  140.9750 C   0  0  0  0  0  3  0  0  0  0  0  0
  187.9190  176.8830  137.3180 N   0  0  0  0  0  0  0  0  0  0  0  0
  181.8840  176.3270  135.7300 O   0  0  0  0  0  0  0  0  0  0  0  0
  187.0750  176.7250  136.1420 C   0  0  0  0  0  1  0  0  0  0  0  0
  182.2360  176.9960  136.7360 C   0  0  0  0  0  0  0  0  0  0  0  0
  187.5470  177.5550  138.5230 C   0  0  0  0  0  0  0  0  0  0  0  0
  184.7800  179.0720  140.6320 N   0  0  0  0  0  0  0  0  0  0  0  0
  189.3340  176.5270  137.2550 C   0  0  1  0  0  3  0  0  0  0  0  0
  188.6170  177.7770  139.3620 C   0  0  0  0  0  0  0  0  0  0  0  0
  182.9700  178.5680  139.0540 C   0  0  1  0  0  3  0  0  0  0  0  0
  186.2390  177.9570  138.9000 C   0  0  0  0  0  0  0  0  0  0  0  0
  182.9810  176.3250  137.8510 C   0  0  0  0  0  2  0  0  0  0  0  0
  188.4660  178.4170  140.5840 C   0  0  0  0  0  3  0  0  0  0  0  0
  181.8760  178.4180  136.8250 C   0  0  0  0  0  3  0  0  0  0  0  0
  182.2310  179.1520  137.8800 C   0  0  0  0  0  3  0  0  0  0  0  0
  183.8010  177.3240  138.6740 C   0  0  1  0  0  3  0  0  0  0  0  0
  183.5900  178.6290  144.6960 C   0  0  0  0  0  3  0  0  0  0  0  0
  184.3710  178.9050  142.0080 C   0  0  0  0  0  0  0  0  0  0  0  0
  183.0130  178.9260  142.3640 C   0  0  0  0  0  3  0  0  0  0  0  0
  182.6240  178.7850  143.6990 C   0  0  0  0  0  3  0  0  0  0  0  0
  184.9450  178.6140  144.3570 C   0  0  0  0  0  3  0  0  0  0  0  0
  185.3330  178.7550  143.0220 C   0  0  0  0  0  3  0  0  0  0  0  0
  1 12  1  0  0  0  0
  2 12  1  0  0  0  0
  2  6  1  0  0  0  0
  3 21  1  0  0  0  0
  3 16  1  0  0  0  0
  4 14  1  0  0  0  0
  7 11  1  0  0  0  0
  8 10  2  0  0  0  0
  9  7  1  0  0  0  0
 10 19  1  0  0  0  0
 10 17  1  0  0  0  0
 11 16  1  0  0  0  0
 11 14  2  0  0  0  0
 12 23  1  0  0  0  0
 13  5  1  1  0  0  0
 13  7  1  0  0  0  0
 13  4  1  0  0  0  0
 14 18  1  0  0  0  0
 15 20  1  6  0  0  0
 15  1  1  0  0  0  0
 16  2  2  0  0  0  0
 18  6  2  0  0  0  0
 19 20  2  0  0  0  0
 21 17  1  6  0  0  0
 21 15  1  0  0  0  0
 23 24  2  0  0  0  0
 23 27  1  0  0  0  0
 24 25  1  0  0  0  0
 25 22  2  0  0  0  0
 26 22  1  0  0  0  0
 27 26  2  0  0  0  0
M  END
>  <MODEL>
9

>  <REMARK>
 VINA RESULT:      -6.4      3.508      7.916
  Name = 
  1 active torsions:
  status: ('A' for Active; 'I' for Inactive)
    1  A    between atoms: C_9  and  N_15
                            x       y       z     vdW  Elec       q    Type
                         _______ _______ _______ _____ _____    ______ ____

>  <TORSDO>
F 1

$$$$
