=
 OpenBabel10262420063D

 27 31  0  0  1  0  0  0  0  0999 V2000
  187.4030  178.4520  142.0500 N   0  0  0  0  0  2  0  0  0  0  0  0
  187.8400  177.5490  144.2500 C   0  0  0  0  0  0  0  0  0  0  0  0
  189.3710  176.2990  142.7960 O   0  0  0  0  0  0  0  0  0  0  0  0
  190.5570  177.1280  147.4320 C   0  0  0  0  0  3  0  0  0  0  0  0
  192.6380  176.2760  148.3030 O   0  0  0  0  0  1  0  0  0  0  0  0
  187.5680  178.1150  145.5070 C   0  0  0  0  0  3  0  0  0  0  0  0
  191.1480  175.9970  144.9390 C   0  0  0  0  0  3  0  0  0  0  0  0
  190.4210  177.1720  139.3780 C   0  0  0  0  0  0  0  0  0  0  0  0
  192.0420  175.8550  146.0030 C   0  0  0  0  0  3  0  0  0  0  0  0
  191.3630  176.7330  138.4590 O   0  0  0  0  0  1  0  0  0  0  0  0
  189.9480  176.7030  145.1100 C   0  0  0  0  0  0  0  0  0  0  0  0
  186.8570  177.6400  143.1210 C   0  0  1  0  0  3  0  0  0  0  0  0
  191.7470  176.4190  147.2480 C   0  0  0  0  0  0  0  0  0  0  0  0
  189.6560  177.2720  146.3730 C   0  0  0  0  0  0  0  0  0  0  0  0
  188.4940  178.0390  141.2240 C   0  0  0  0  0  0  0  0  0  0  0  0
  189.0480  176.8620  144.0400 C   0  0  0  0  0  0  0  0  0  0  0  0
  190.2940  176.5290  140.6090 C   0  0  0  0  0  3  0  0  0  0  0  0
  188.4720  177.9800  146.5600 C   0  0  0  0  0  3  0  0  0  0  0  0
  189.6070  178.2630  139.0760 C   0  0  0  0  0  3  0  0  0  0  0  0
  188.6470  178.6880  139.9930 C   0  0  0  0  0  3  0  0  0  0  0  0
  189.3560  176.9600  141.5560 C   0  0  0  0  0  0  0  0  0  0  0  0
  182.9060  178.9640  144.1980 C   0  0  0  0  0  3  0  0  0  0  0  0
  185.4880  178.1180  143.5120 C   0  0  0  0  0  0  0  0  0  0  0  0
  184.5160  178.2890  142.5190 C   0  0  0  0  0  3  0  0  0  0  0  0
  183.2280  178.7130  142.8610 C   0  0  0  0  0  3  0  0  0  0  0  0
  183.8710  178.7890  145.1940 C   0  0  0  0  0  3  0  0  0  0  0  0
  185.1590  178.3660  144.8540 C   0  0  0  0  0  3  0  0  0  0  0  0
  1 12  1  0  0  0  0
  2  6  1  0  0  0  0
  3 16  1  0  0  0  0
  6 18  2  0  0  0  0
  7 11  2  0  0  0  0
  7  9  1  0  0  0  0
  8 17  1  0  0  0  0
  9 13  2  0  0  0  0
 10  8  1  0  0  0  0
 11 14  1  0  0  0  0
 12 23  1  1  0  0  0
 12  2  1  0  0  0  0
 13  4  1  0  0  0  0
 13  5  1  0  0  0  0
 14 18  1  0  0  0  0
 14  4  2  0  0  0  0
 15 21  1  0  0  0  0
 15  1  1  0  0  0  0
 16  2  2  0  0  0  0
 16 11  1  0  0  0  0
 17 21  2  0  0  0  0
 19  8  2  0  0  0  0
 19 20  1  0  0  0  0
 20 15  2  0  0  0  0
 21  3  1  0  0  0  0
 22 26  1  0  0  0  0
 23 27  1  0  0  0  0
 24 25  1  0  0  0  0
 24 23  2  0  0  0  0
 25 22  2  0  0  0  0
 27 26  2  0  0  0  0
M  END
>  <MODEL>
1

>  <REMARK>
 VINA RESULT:     -11.8      0.000      0.000
  Name = 
  1 active torsions:
  status: ('A' for Active; 'I' for Inactive)
    1  A    between atoms: C_9  and  C_15
                            x       y       z     vdW  Elec       q    Type
                         _______ _______ _______ _____ _____    ______ ____

>  <TORSDO>
F 1

$$$$
=
 OpenBabel10262420063D

 27 31  0  0  1  0  0  0  0  0999 V2000
  186.2060  178.6290  141.6170 N   0  0  0  0  0  2  0  0  0  0  0  0
  185.9290  178.1840  143.9770 C   0  0  0  0  0  0  0  0  0  0  0  0
  187.9100  176.8710  143.3690 O   0  0  0  0  0  0  0  0  0  0  0  0
  187.4530  178.6350  147.8710 C   0  0  0  0  0  3  0  0  0  0  0  0
  189.1640  178.1850  149.5100 O   0  0  0  0  0  1  0  0  0  0  0  0
  185.2300  178.9300  144.9410 C   0  0  0  0  0  3  0  0  0  0  0  0
  188.8870  177.1510  145.9790 C   0  0  0  0  0  3  0  0  0  0  0  0
  189.9940  177.2330  140.3560 C   0  0  0  0  0  0  0  0  0  0  0  0
  189.3840  177.2990  147.2760 C   0  0  0  0  0  3  0  0  0  0  0  0
  191.2060  176.7430  139.8920 O   0  0  0  0  0  1  0  0  0  0  0  0
  187.6680  177.7400  145.6140 C   0  0  0  0  0  0  0  0  0  0  0  0
  185.3730  177.9640  142.6020 C   0  0  1  0  0  3  0  0  0  0  0  0
  188.6670  178.0400  148.2210 C   0  0  0  0  0  0  0  0  0  0  0  0
  186.9490  178.4890  146.5750 C   0  0  0  0  0  0  0  0  0  0  0  0
  187.5260  178.1980  141.2810 C   0  0  0  0  0  0  0  0  0  0  0  0
  187.1680  177.6070  144.3060 C   0  0  0  0  0  0  0  0  0  0  0  0
  189.4950  176.8090  141.5880 C   0  0  0  0  0  3  0  0  0  0  0  0
  185.7390  179.0850  146.2300 C   0  0  0  0  0  3  0  0  0  0  0  0
  189.2770  178.1570  139.5970 C   0  0  0  0  0  3  0  0  0  0  0  0
  188.0490  178.6300  140.0570 C   0  0  0  0  0  3  0  0  0  0  0  0
  188.2780  177.2950  142.0810 C   0  0  0  0  0  0  0  0  0  0  0  0
  181.2340  179.0200  142.0770 C   0  0  0  0  0  3  0  0  0  0  0  0
  183.9310  178.3520  142.4340 C   0  0  0  0  0  0  0  0  0  0  0  0
  183.3620  178.3210  141.1550 C   0  0  0  0  0  3  0  0  0  0  0  0
  182.0160  178.6560  140.9770 C   0  0  0  0  0  3  0  0  0  0  0  0
  181.7960  179.0470  143.3560 C   0  0  0  0  0  3  0  0  0  0  0  0
  183.1410  178.7120  143.5370 C   0  0  0  0  0  3  0  0  0  0  0  0
  1 12  1  0  0  0  0
  2 16  2  0  0  0  0
  2  6  1  0  0  0  0
  3 16  1  0  0  0  0
  4 13  1  0  0  0  0
  6 18  2  0  0  0  0
  7  9  1  0  0  0  0
  8 17  1  0  0  0  0
  9 13  2  0  0  0  0
 10  8  1  0  0  0  0
 11  7  2  0  0  0  0
 11 14  1  0  0  0  0
 12 23  1  1  0  0  0
 12  2  1  0  0  0  0
 13  5  1  0  0  0  0
 14  4  2  0  0  0  0
 15  1  1  0  0  0  0
 15 21  1  0  0  0  0
 16 11  1  0  0  0  0
 17 21  2  0  0  0  0
 18 14  1  0  0  0  0
 19 20  1  0  0  0  0
 19  8  2  0  0  0  0
 20 15  2  0  0  0  0
 21  3  1  0  0  0  0
 22 26  1  0  0  0  0
 23 27  1  0  0  0  0
 24 23  2  0  0  0  0
 25 24  1  0  0  0  0
 25 22  2  0  0  0  0
 26 27  2  0  0  0  0
M  END
>  <MODEL>
2

>  <REMARK>
 VINA RESULT:     -10.9      1.580      2.338
  Name = 
  1 active torsions:
  status: ('A' for Active; 'I' for Inactive)
    1  A    between atoms: C_9  and  C_15
                            x       y       z     vdW  Elec       q    Type
                         _______ _______ _______ _____ _____    ______ ____

>  <TORSDO>
F 1

$$$$
=
 OpenBabel10262420063D

 27 31  0  0  1  0  0  0  0  0999 V2000
  189.9820  176.6910  142.5820 N   0  0  0  0  0  2  0  0  0  0  0  0
  188.1360  177.7190  143.7560 C   0  0  0  0  0  0  0  0  0  0  0  0
  188.1120  178.8190  141.5620 O   0  0  0  0  0  0  0  0  0  0  0  0
  183.9740  178.2530  144.0410 C   0  0  0  0  0  3  0  0  0  0  0  0
  181.9070  179.0870  143.1200 O   0  0  0  0  0  1  0  0  0  0  0  0
  187.4250  177.2470  144.8720 C   0  0  0  0  0  3  0  0  0  0  0  0
  185.3470  179.1980  141.7910 C   0  0  0  0  0  3  0  0  0  0  0  0
  189.7720  177.6900  138.4770 C   0  0  0  0  0  0  0  0  0  0  0  0
  183.9650  179.3780  141.8960 C   0  0  0  0  0  3  0  0  0  0  0  0
  189.7680  178.0360  137.1340 O   0  0  0  0  0  1  0  0  0  0  0  0
  186.0570  178.5470  142.8090 C   0  0  0  0  0  0  0  0  0  0  0  0
  189.6260  177.5900  143.6640 C   0  0  1  0  0  3  0  0  0  0  0  0
  183.2800  178.9060  143.0200 C   0  0  0  0  0  0  0  0  0  0  0  0
  185.3560  178.0710  143.9440 C   0  0  0  0  0  0  0  0  0  0  0  0
  189.8060  177.0120  141.2000 C   0  0  0  0  0  0  0  0  0  0  0  0
  187.4460  178.3500  142.7050 C   0  0  0  0  0  0  0  0  0  0  0  0
  189.0040  178.4160  139.3880 C   0  0  0  0  0  3  0  0  0  0  0  0
  186.0450  177.4180  144.9630 C   0  0  0  0  0  3  0  0  0  0  0  0
  190.5370  176.6110  138.9180 C   0  0  0  0  0  3  0  0  0  0  0  0
  190.5560  176.2800  140.2720 C   0  0  0  0  0  3  0  0  0  0  0  0
  188.9860  178.0800  140.7470 C   0  0  0  0  0  0  0  0  0  0  0  0
  191.5100  176.4160  147.3520 C   0  0  0  0  0  3  0  0  0  0  0  0
  190.3060  177.1850  144.9420 C   0  0  0  0  0  0  0  0  0  0  0  0
  189.7600  177.5960  146.1640 C   0  0  0  0  0  3  0  0  0  0  0  0
  190.3610  177.2140  147.3660 C   0  0  0  0  0  3  0  0  0  0  0  0
  192.0560  175.9990  146.1350 C   0  0  0  0  0  3  0  0  0  0  0  0
  191.4550  176.3800  144.9320 C   0  0  0  0  0  3  0  0  0  0  0  0
  1 12  1  0  0  0  0
  2  6  1  0  0  0  0
  3 16  1  0  0  0  0
  6 18  2  0  0  0  0
  7  9  2  0  0  0  0
  7 11  1  0  0  0  0
  8 19  2  0  0  0  0
  8 17  1  0  0  0  0
  9 13  1  0  0  0  0
 10  8  1  0  0  0  0
 11 14  2  0  0  0  0
 12  2  1  0  0  0  0
 12 23  1  1  0  0  0
 13  5  1  0  0  0  0
 13  4  2  0  0  0  0
 14  4  1  0  0  0  0
 14 18  1  0  0  0  0
 15  1  1  0  0  0  0
 16 11  1  0  0  0  0
 16  2  2  0  0  0  0
 17 21  2  0  0  0  0
 19 20  1  0  0  0  0
 20 15  2  0  0  0  0
 21 15  1  0  0  0  0
 21  3  1  0  0  0  0
 22 25  1  0  0  0  0
 23 24  1  0  0  0  0
 24 25  2  0  0  0  0
 26 22  2  0  0  0  0
 27 23  2  0  0  0  0
 27 26  1  0  0  0  0
M  END
>  <MODEL>
3

>  <REMARK>
 VINA RESULT:     -10.5      2.048      5.856
  Name = 
  1 active torsions:
  status: ('A' for Active; 'I' for Inactive)
    1  A    between atoms: C_9  and  C_15
                            x       y       z     vdW  Elec       q    Type
                         _______ _______ _______ _____ _____    ______ ____

>  <TORSDO>
F 1

$$$$
=
 OpenBabel10262420063D

 27 31  0  0  1  0  0  0  0  0999 V2000
  189.8410  176.7730  142.4190 N   0  0  0  0  0  2  0  0  0  0  0  0
  187.9200  177.8090  143.4590 C   0  0  0  0  0  0  0  0  0  0  0  0
  187.9830  178.8200  141.2250 O   0  0  0  0  0  0  0  0  0  0  0  0
  183.7390  178.2670  143.5210 C   0  0  0  0  0  3  0  0  0  0  0  0
  181.7050  179.0210  142.4680 O   0  0  0  0  0  1  0  0  0  0  0  0
  187.1640  177.3660  144.5580 C   0  0  0  0  0  3  0  0  0  0  0  0
  185.2040  179.1510  141.3040 C   0  0  0  0  0  3  0  0  0  0  0  0
  189.8150  177.6060  138.2720 C   0  0  0  0  0  0  0  0  0  0  0  0
  183.8150  179.3060  141.3340 C   0  0  0  0  0  3  0  0  0  0  0  0
  189.8700  177.8990  136.9170 O   0  0  0  0  0  1  0  0  0  0  0  0
  185.8750  178.5550  142.3810 C   0  0  0  0  0  0  0  0  0  0  0  0
  189.4150  177.7070  143.4450 C   0  0  1  0  0  3  0  0  0  0  0  0
  183.0840  178.8650  142.4420 C   0  0  0  0  0  0  0  0  0  0  0  0
  185.1280  178.1100  143.4980 C   0  0  0  0  0  0  0  0  0  0  0  0
  189.7270  177.0360  141.0180 C   0  0  0  0  0  0  0  0  0  0  0  0
  187.2710  178.3830  142.3520 C   0  0  0  0  0  0  0  0  0  0  0  0
  188.9890  178.3510  139.1140 C   0  0  0  0  0  3  0  0  0  0  0  0
  185.7780  177.5120  144.5750 C   0  0  0  0  0  3  0  0  0  0  0  0
  190.5770  176.5610  138.7920 C   0  0  0  0  0  3  0  0  0  0  0  0
  190.5350  176.2840  140.1580 C   0  0  0  0  0  3  0  0  0  0  0  0
  188.9100  178.0680  140.4840 C   0  0  0  0  0  0  0  0  0  0  0  0
  191.2620  176.7480  147.2130 C   0  0  0  0  0  3  0  0  0  0  0  0
  190.0380  177.3660  144.7700 C   0  0  0  0  0  0  0  0  0  0  0  0
  191.2270  176.6270  144.7950 C   0  0  0  0  0  3  0  0  0  0  0  0
  191.8360  176.3170  146.0140 C   0  0  0  0  0  3  0  0  0  0  0  0
  190.0780  177.4920  147.1940 C   0  0  0  0  0  3  0  0  0  0  0  0
  189.4670  177.8020  145.9760 C   0  0  0  0  0  3  0  0  0  0  0  0
  1 12  1  0  0  0  0
  2  6  1  0  0  0  0
  3 16  1  0  0  0  0
  6 18  2  0  0  0  0
  7  9  2  0  0  0  0
  7 11  1  0  0  0  0
  8 19  2  0  0  0  0
  8 17  1  0  0  0  0
  9 13  1  0  0  0  0
 10  8  1  0  0  0  0
 11 14  2  0  0  0  0
 12  2  1  0  0  0  0
 12 23  1  1  0  0  0
 13  5  1  0  0  0  0
 13  4  2  0  0  0  0
 14  4  1  0  0  0  0
 14 18  1  0  0  0  0
 15  1  1  0  0  0  0
 16 11  1  0  0  0  0
 16  2  2  0  0  0  0
 17 21  2  0  0  0  0
 19 20  1  0  0  0  0
 20 15  2  0  0  0  0
 21 15  1  0  0  0  0
 21  3  1  0  0  0  0
 23 24  2  0  0  0  0
 23 27  1  0  0  0  0
 24 25  1  0  0  0  0
 25 22  2  0  0  0  0
 26 22  1  0  0  0  0
 27 26  2  0  0  0  0
M  END
>  <MODEL>
4

>  <REMARK>
 VINA RESULT:     -10.4      2.137      5.903
  Name = 
  1 active torsions:
  status: ('A' for Active; 'I' for Inactive)
    1  A    between atoms: C_9  and  C_15
                            x       y       z     vdW  Elec       q    Type
                         _______ _______ _______ _____ _____    ______ ____

>  <TORSDO>
F 1

$$$$
=
 OpenBabel10262420063D

 27 31  0  0  1  0  0  0  0  0999 V2000
  189.8650  176.8330  141.2480 N   0  0  0  0  0  2  0  0  0  0  0  0
  188.0290  177.8360  142.4600 C   0  0  0  0  0  0  0  0  0  0  0  0
  187.8960  178.8770  140.2430 O   0  0  0  0  0  0  0  0  0  0  0  0
  183.8650  178.2530  142.8780 C   0  0  0  0  0  3  0  0  0  0  0  0
  181.7430  179.0010  142.0110 O   0  0  0  0  0  1  0  0  0  0  0  0
  187.3720  177.3710  143.6120 C   0  0  0  0  0  3  0  0  0  0  0  0
  185.1300  179.1810  140.5590 C   0  0  0  0  0  3  0  0  0  0  0  0
  189.4830  177.7200  137.1300 C   0  0  0  0  0  0  0  0  0  0  0  0
  183.7480  179.3220  140.7080 C   0  0  0  0  0  3  0  0  0  0  0  0
  189.4220  178.0310  135.7790 O   0  0  0  0  0  1  0  0  0  0  0  0
  185.8950  178.5770  141.5680 C   0  0  0  0  0  0  0  0  0  0  0  0
  189.5190  177.7480  142.3190 C   0  0  1  0  0  3  0  0  0  0  0  0
  183.1170  178.8590  141.8670 C   0  0  0  0  0  0  0  0  0  0  0  0
  185.2480  178.1100  142.7370 C   0  0  0  0  0  0  0  0  0  0  0  0
  189.6310  177.1130  139.8660 C   0  0  0  0  0  0  0  0  0  0  0  0
  187.2840  178.4180  141.4190 C   0  0  0  0  0  0  0  0  0  0  0  0
  188.7250  178.4460  138.0490 C   0  0  0  0  0  3  0  0  0  0  0  0
  185.9910  177.5030  143.7470 C   0  0  0  0  0  3  0  0  0  0  0  0
  190.2950  176.6760  137.5700 C   0  0  0  0  0  3  0  0  0  0  0  0
  190.3700  176.3800  138.9300 C   0  0  0  0  0  3  0  0  0  0  0  0
  188.7640  178.1440  139.4160 C   0  0  0  0  0  0  0  0  0  0  0  0
  191.6780  176.7210  145.8980 C   0  0  0  0  0  3  0  0  0  0  0  0
  190.2540  177.3970  143.5820 C   0  0  0  0  0  0  0  0  0  0  0  0
  190.9890  176.2060  143.6340 C   0  0  0  0  0  3  0  0  0  0  0  0
  191.6980  175.8680  144.7900 C   0  0  0  0  0  3  0  0  0  0  0  0
  190.9500  177.9130  145.8490 C   0  0  0  0  0  3  0  0  0  0  0  0
  190.2400  178.2530  144.6940 C   0  0  0  0  0  3  0  0  0  0  0  0
  1 12  1  0  0  0  0
  2  6  1  0  0  0  0
  3 16  1  0  0  0  0
  6 18  2  0  0  0  0
  7  9  2  0  0  0  0
  7 11  1  0  0  0  0
  8 19  2  0  0  0  0
  8 17  1  0  0  0  0
  9 13  1  0  0  0  0
 10  8  1  0  0  0  0
 11 14  2  0  0  0  0
 12  2  1  0  0  0  0
 12 23  1  1  0  0  0
 13  5  1  0  0  0  0
 13  4  2  0  0  0  0
 14  4  1  0  0  0  0
 14 18  1  0  0  0  0
 15  1  1  0  0  0  0
 16 11  1  0  0  0  0
 16  2  2  0  0  0  0
 17 21  2  0  0  0  0
 19 20  1  0  0  0  0
 20 15  2  0  0  0  0
 21 15  1  0  0  0  0
 21  3  1  0  0  0  0
 23 24  2  0  0  0  0
 23 27  1  0  0  0  0
 24 25  1  0  0  0  0
 25 22  2  0  0  0  0
 26 22  1  0  0  0  0
 27 26  2  0  0  0  0
M  END
>  <MODEL>
5

>  <REMARK>
 VINA RESULT:     -10.3      2.559      6.151
  Name = 
  1 active torsions:
  status: ('A' for Active; 'I' for Inactive)
    1  A    between atoms: C_9  and  C_15
                            x       y       z     vdW  Elec       q    Type
                         _______ _______ _______ _____ _____    ______ ____

>  <TORSDO>
F 1

$$$$
=
 OpenBabel10262420063D

 27 31  0  0  1  0  0  0  0  0999 V2000
  188.2460  177.1880  143.0580 N   0  0  0  0  0  2  0  0  0  0  0  0
  186.1250  178.3480  143.0520 C   0  0  0  0  0  0  0  0  0  0  0  0
  187.1600  179.0220  140.9320 O   0  0  0  0  0  0  0  0  0  0  0  0
  182.3240  178.7750  141.3040 C   0  0  0  0  0  3  0  0  0  0  0  0
  180.9490  179.3490  139.4080 O   0  0  0  0  0  1  0  0  0  0  0  0
  184.9610  178.0640  143.7850 C   0  0  0  0  0  3  0  0  0  0  0  0
  184.6170  179.3370  139.8000 C   0  0  0  0  0  3  0  0  0  0  0  0
  189.9790  177.4040  139.2050 C   0  0  0  0  0  0  0  0  0  0  0  0
  183.3510  179.4830  139.2290 C   0  0  0  0  0  3  0  0  0  0  0  0
  190.6050  177.4960  137.9710 O   0  0  0  0  0  1  0  0  0  0  0  0
  184.7510  178.9110  141.1290 C   0  0  0  0  0  0  0  0  0  0  0  0
  187.4850  178.2580  143.6760 C   0  0  1  0  0  3  0  0  0  0  0  0
  182.2060  179.2030  139.9800 C   0  0  0  0  0  0  0  0  0  0  0  0
  183.5870  178.6280  141.8830 C   0  0  0  0  0  0  0  0  0  0  0  0
  188.7350  177.2420  141.7160 C   0  0  0  0  0  0  0  0  0  0  0  0
  186.0230  178.7480  141.7080 C   0  0  0  0  0  0  0  0  0  0  0  0
  188.9210  178.2570  139.5170 C   0  0  0  0  0  3  0  0  0  0  0  0
  183.7010  178.1990  143.2030 C   0  0  0  0  0  3  0  0  0  0  0  0
  190.4020  176.4530  140.1330 C   0  0  0  0  0  3  0  0  0  0  0  0
  189.7850  176.3790  141.3820 C   0  0  0  0  0  3  0  0  0  0  0  0
  188.2680  178.1780  140.7540 C   0  0  0  0  0  0  0  0  0  0  0  0
  187.5550  177.8830  147.9630 C   0  0  0  0  0  3  0  0  0  0  0  0
  187.4860  178.1210  145.1720 C   0  0  0  0  0  0  0  0  0  0  0  0
  188.5750  177.5020  145.7990 C   0  0  0  0  0  3  0  0  0  0  0  0
  188.6080  177.3820  147.1910 C   0  0  0  0  0  3  0  0  0  0  0  0
  186.4700  178.5070  147.3420 C   0  0  0  0  0  3  0  0  0  0  0  0
  186.4340  178.6280  145.9510 C   0  0  0  0  0  3  0  0  0  0  0  0
  1 12  1  0  0  0  0
  2 12  1  0  0  0  0
  2  6  1  0  0  0  0
  3 16  1  0  0  0  0
  4 14  1  0  0  0  0
  5 13  1  0  0  0  0
  7 11  1  0  0  0  0
  8 17  2  0  0  0  0
  8 19  1  0  0  0  0
  9  7  2  0  0  0  0
  9 13  1  0  0  0  0
 10  8  1  0  0  0  0
 11 16  1  0  0  0  0
 11 14  2  0  0  0  0
 12 23  1  1  0  0  0
 13  4  2  0  0  0  0
 14 18  1  0  0  0  0
 15  1  1  0  0  0  0
 16  2  2  0  0  0  0
 17 21  1  0  0  0  0
 18  6  2  0  0  0  0
 19 20  2  0  0  0  0
 20 15  1  0  0  0  0
 21  3  1  0  0  0  0
 21 15  2  0  0  0  0
 23 24  2  0  0  0  0
 23 27  1  0  0  0  0
 24 25  1  0  0  0  0
 25 22  2  0  0  0  0
 26 22  1  0  0  0  0
 27 26  2  0  0  0  0
M  END
>  <MODEL>
6

>  <REMARK>
 VINA RESULT:     -10.0      2.541      6.249
  Name = 
  1 active torsions:
  status: ('A' for Active; 'I' for Inactive)
    1  A    between atoms: C_9  and  C_15
                            x       y       z     vdW  Elec       q    Type
                         _______ _______ _______ _____ _____    ______ ____

>  <TORSDO>
F 1

$$$$
=
 OpenBabel10262420063D

 27 31  0  0  1  0  0  0  0  0999 V2000
  189.8680  178.1570  141.5060 N   0  0  0  0  0  2  0  0  0  0  0  0
  187.4570  177.9790  141.4640 C   0  0  0  0  0  0  0  0  0  0  0  0
  188.0720  177.0080  143.6320 O   0  0  0  0  0  0  0  0  0  0  0  0
  183.7830  179.2210  143.0910 C   0  0  0  0  0  3  0  0  0  0  0  0
  182.2520  179.3300  144.9510 O   0  0  0  0  0  1  0  0  0  0  0  0
  186.5310  178.6950  140.6860 C   0  0  0  0  0  3  0  0  0  0  0  0
  185.6040  177.8100  144.6830 C   0  0  0  0  0  3  0  0  0  0  0  0
  191.2700  177.3710  145.4180 C   0  0  0  0  0  0  0  0  0  0  0  0
  184.3780  178.2200  145.2140 C   0  0  0  0  0  3  0  0  0  0  0  0
  191.7740  177.0700  146.6750 O   0  0  0  0  0  1  0  0  0  0  0  0
  185.9310  178.0990  143.3510 C   0  0  0  0  0  0  0  0  0  0  0  0
  188.7460  177.4780  140.8850 C   0  0  1  0  0  3  0  0  0  0  0  0
  183.4690  178.9240  144.4190 C   0  0  0  0  0  0  0  0  0  0  0  0
  185.0060  178.8130  142.5520 C   0  0  0  0  0  0  0  0  0  0  0  0
  190.2600  177.9500  142.8640 C   0  0  0  0  0  0  0  0  0  0  0  0
  187.1680  177.7020  142.8120 C   0  0  0  0  0  0  0  0  0  0  0  0
  189.9600  177.0220  145.0890 C   0  0  0  0  0  3  0  0  0  0  0  0
  185.3160  179.1120  141.2280 C   0  0  0  0  0  3  0  0  0  0  0  0
  192.0690  178.0310  144.4850 C   0  0  0  0  0  3  0  0  0  0  0  0
  191.5660  178.3120  143.2150 C   0  0  0  0  0  3  0  0  0  0  0  0
  189.4270  177.3240  143.8290 C   0  0  0  0  0  0  0  0  0  0  0  0
  189.0620  177.7340  136.6000 C   0  0  0  0  0  3  0  0  0  0  0  0
  188.8360  177.5530  139.3870 C   0  0  0  0  0  0  0  0  0  0  0  0
  189.1010  178.7870  138.7810 C   0  0  0  0  0  3  0  0  0  0  0  0
  189.2120  178.8770  137.3900 C   0  0  0  0  0  3  0  0  0  0  0  0
  188.8030  176.4980  137.2000 C   0  0  0  0  0  3  0  0  0  0  0  0
  188.6920  176.4060  138.5900 C   0  0  0  0  0  3  0  0  0  0  0  0
  1 15  1  0  0  0  0
  2 16  1  0  0  0  0
  3 21  1  0  0  0  0
  4 13  2  0  0  0  0
  6 18  1  0  0  0  0
  6  2  2  0  0  0  0
  7  9  2  0  0  0  0
  8 10  1  0  0  0  0
 11  7  1  0  0  0  0
 12 23  1  6  0  0  0
 12  2  1  0  0  0  0
 12  1  1  0  0  0  0
 13  5  1  0  0  0  0
 13  9  1  0  0  0  0
 14  4  1  0  0  0  0
 14 11  1  0  0  0  0
 15 20  2  0  0  0  0
 15 21  1  0  0  0  0
 16 11  2  0  0  0  0
 16  3  1  0  0  0  0
 17  8  1  0  0  0  0
 18 14  2  0  0  0  0
 19  8  2  0  0  0  0
 20 19  1  0  0  0  0
 21 17  2  0  0  0  0
 22 26  2  0  0  0  0
 22 25  1  0  0  0  0
 24 23  1  0  0  0  0
 25 24  2  0  0  0  0
 26 27  1  0  0  0  0
 27 23  2  0  0  0  0
M  END
>  <MODEL>
7

>  <REMARK>
 VINA RESULT:      -9.8      2.222      6.389
  Name = 
  1 active torsions:
  status: ('A' for Active; 'I' for Inactive)
    1  A    between atoms: C_9  and  C_15
                            x       y       z     vdW  Elec       q    Type
                         _______ _______ _______ _____ _____    ______ ____

>  <TORSDO>
F 1

$$$$
=
 OpenBabel10262420063D

 27 31  0  0  1  0  0  0  0  0999 V2000
  184.6550  178.0200  140.9470 N   0  0  0  0  0  2  0  0  0  0  0  0
  186.5080  178.2310  142.4860 C   0  0  0  0  0  0  0  0  0  0  0  0
  184.6530  179.3270  143.6600 O   0  0  0  0  0  0  0  0  0  0  0  0
  188.1800  177.1490  146.1900 C   0  0  0  0  0  3  0  0  0  0  0  0
  188.1140  177.1800  148.6010 O   0  0  0  0  0  1  0  0  0  0  0  0
  187.6950  177.4830  142.5480 C   0  0  0  0  0  3  0  0  0  0  0  0
  185.8040  178.6290  146.1160 C   0  0  0  0  0  3  0  0  0  0  0  0
  181.0570  179.0280  142.9290 C   0  0  0  0  0  0  0  0  0  0  0  0
  186.3690  178.2720  147.3420 C   0  0  0  0  0  3  0  0  0  0  0  0
  179.8620  179.4000  143.5280 O   0  0  0  0  0  1  0  0  0  0  0  0
  186.4210  178.2530  144.9140 C   0  0  0  0  0  0  0  0  0  0  0  0
  185.9290  178.6760  141.1770 C   0  0  1  0  0  3  0  0  0  0  0  0
  187.5560  177.5330  147.3800 C   0  0  0  0  0  0  0  0  0  0  0  0
  187.6210  177.5040  144.9590 C   0  0  0  0  0  0  0  0  0  0  0  0
  183.4750  178.3050  141.7010 C   0  0  0  0  0  0  0  0  0  0  0  0
  185.8510  178.5970  143.6740 C   0  0  0  0  0  0  0  0  0  0  0  0
  182.2720  179.3750  143.5200 C   0  0  0  0  0  3  0  0  0  0  0  0
  188.2450  177.1180  143.7760 C   0  0  0  0  0  3  0  0  0  0  0  0
  181.0460  178.2990  141.7410 C   0  0  0  0  0  3  0  0  0  0  0  0
  182.2490  177.9470  141.1310 C   0  0  0  0  0  3  0  0  0  0  0  0
  183.4910  179.0040  142.9380 C   0  0  0  0  0  0  0  0  0  0  0  0
  188.4940  178.2290  137.7490 C   0  0  0  0  0  3  0  0  0  0  0  0
  186.8400  178.5060  139.9930 C   0  0  0  0  0  0  0  0  0  0  0  0
  186.2810  178.2530  138.7340 C   0  0  0  0  0  3  0  0  0  0  0  0
  187.1070  178.1130  137.6150 C   0  0  0  0  0  3  0  0  0  0  0  0
  189.0560  178.4870  139.0020 C   0  0  0  0  0  3  0  0  0  0  0  0
  188.2320  178.6280  140.1230 C   0  0  0  0  0  3  0  0  0  0  0  0
  1 12  1  0  0  0  0
  1 15  1  0  0  0  0
  2  6  2  0  0  0  0
  2 16  1  0  0  0  0
  3 16  1  0  0  0  0
  4 13  2  0  0  0  0
  6 18  1  0  0  0  0
  7  9  2  0  0  0  0
  8 17  1  0  0  0  0
  8 10  1  0  0  0  0
  9 13  1  0  0  0  0
 11 14  1  0  0  0  0
 11  7  1  0  0  0  0
 12 23  1  6  0  0  0
 12  2  1  0  0  0  0
 13  5  1  0  0  0  0
 14  4  1  0  0  0  0
 15 21  1  0  0  0  0
 16 11  2  0  0  0  0
 18 14  2  0  0  0  0
 19  8  2  0  0  0  0
 20 15  2  0  0  0  0
 20 19  1  0  0  0  0
 21 17  2  0  0  0  0
 21  3  1  0  0  0  0
 22 26  1  0  0  0  0
 23 27  1  0  0  0  0
 24 23  2  0  0  0  0
 25 22  2  0  0  0  0
 25 24  1  0  0  0  0
 26 27  2  0  0  0  0
M  END
>  <MODEL>
8

>  <REMARK>
 VINA RESULT:      -9.7      2.909      6.124
  Name = 
  1 active torsions:
  status: ('A' for Active; 'I' for Inactive)
    1  A    between atoms: C_9  and  C_15
                            x       y       z     vdW  Elec       q    Type
                         _______ _______ _______ _____ _____    ______ ____

>  <TORSDO>
F 1

$$$$
=
 OpenBabel10262420063D

 27 31  0  0  1  0  0  0  0  0999 V2000
  189.0010  177.9950  146.7770 N   0  0  0  0  0  2  0  0  0  0  0  0
  190.1560  177.1240  144.8400 C   0  0  0  0  0  0  0  0  0  0  0  0
  187.7850  176.9200  144.2410 O   0  0  0  0  0  0  0  0  0  0  0  0
  191.1150  177.6040  140.7730 C   0  0  0  0  0  3  0  0  0  0  0  0
  190.4300  177.7080  138.4630 O   0  0  0  0  0  1  0  0  0  0  0  0
  191.4850  177.3340  144.4350 C   0  0  0  0  0  3  0  0  0  0  0  0
  188.4510  177.2020  141.5360 C   0  0  0  0  0  3  0  0  0  0  0  0
  184.9250  178.6070  145.8300 C   0  0  0  0  0  0  0  0  0  0  0  0
  188.7790  177.3560  140.1860 C   0  0  0  0  0  3  0  0  0  0  0  0
  183.5720  178.7740  145.5740 O   0  0  0  0  0  1  0  0  0  0  0  0
  189.4510  177.2460  142.5180 C   0  0  0  0  0  0  0  0  0  0  0  0
  189.8030  176.8930  146.2780 C   0  0  1  0  0  3  0  0  0  0  0  0
  190.1090  177.5560  139.8060 C   0  0  0  0  0  0  0  0  0  0  0  0
  190.7960  177.4490  142.1250 C   0  0  0  0  0  0  0  0  0  0  0  0
  187.6560  178.2420  146.3630 C   0  0  0  0  0  0  0  0  0  0  0  0
  189.1280  177.1060  143.8800 C   0  0  0  0  0  0  0  0  0  0  0  0
  185.7060  177.8270  144.9760 C   0  0  0  0  0  3  0  0  0  0  0  0
  191.8020  177.4990  143.0870 C   0  0  0  0  0  3  0  0  0  0  0  0
  185.5090  179.2260  146.9340 C   0  0  0  0  0  3  0  0  0  0  0  0
  186.8650  179.0380  147.1990 C   0  0  0  0  0  3  0  0  0  0  0  0
  187.0750  177.6510  145.2090 C   0  0  0  0  0  0  0  0  0  0  0  0
  193.1180  176.1570  148.9220 C   0  0  0  0  0  3  0  0  0  0  0  0
  190.9740  176.6300  147.1820 C   0  0  0  0  0  0  0  0  0  0  0  0
  191.2510  177.5300  148.2180 C   0  0  0  0  0  3  0  0  0  0  0  0
  192.3220  177.2960  149.0850 C   0  0  0  0  0  3  0  0  0  0  0  0
  192.8420  175.2520  147.8940 C   0  0  0  0  0  3  0  0  0  0  0  0
  191.7720  175.4850  147.0260 C   0  0  0  0  0  3  0  0  0  0  0  0
  2 12  1  0  0  0  0
  3 21  1  0  0  0  0
  4 14  1  0  0  0  0
  5 13  1  0  0  0  0
  6  2  1  0  0  0  0
  7 11  1  0  0  0  0
  8 19  1  0  0  0  0
  9  7  2  0  0  0  0
 10  8  1  0  0  0  0
 11 16  1  0  0  0  0
 12  1  1  0  0  0  0
 12 23  1  1  0  0  0
 13  9  1  0  0  0  0
 13  4  2  0  0  0  0
 14 11  2  0  0  0  0
 14 18  1  0  0  0  0
 15  1  1  0  0  0  0
 15 20  1  0  0  0  0
 16  3  1  0  0  0  0
 16  2  2  0  0  0  0
 17 21  1  0  0  0  0
 17  8  2  0  0  0  0
 18  6  2  0  0  0  0
 19 20  2  0  0  0  0
 21 15  2  0  0  0  0
 22 25  1  0  0  0  0
 23 24  1  0  0  0  0
 24 25  2  0  0  0  0
 26 22  2  0  0  0  0
 27 23  2  0  0  0  0
 27 26  1  0  0  0  0
M  END
>  <MODEL>
9

>  <REMARK>
 VINA RESULT:      -9.5      2.141      7.067
  Name = 
  1 active torsions:
  status: ('A' for Active; 'I' for Inactive)
    1  A    between atoms: C_9  and  C_15
                            x       y       z     vdW  Elec       q    Type
                         _______ _______ _______ _____ _____    ______ ____

>  <TORSDO>
F 1

$$$$
