=
 OpenBabel10262423333D

 34 38  0  0  1  0  0  0  0  0999 V2000
  190.0310  176.2930  144.0400 C   0  0  1  0  0  3  0  0  0  0  0  0
  187.1530  178.1650  145.8460 C   0  0  0  0  0  2  0  0  0  0  0  0
  184.9340  179.1760  143.4160 C   0  0  0  0  0  0  0  0  0  0  0  0
  189.3690  177.5450  146.5040 O   0  0  0  0  0  0  0  0  0  0  0  0
  190.9860  177.3520  142.0220 N   0  0  0  0  0  0  0  0  0  0  0  0
  190.4900  176.0960  142.5890 C   0  0  0  0  0  2  0  0  0  0  0  0
  191.8160  178.1250  144.1960 C   0  0  2  0  0  3  0  0  0  0  0  0
  190.9640  179.2340  144.2280 O   0  0  0  0  0  1  0  0  0  0  0  0
  184.0470  179.8350  144.4190 C   0  0  0  0  0  1  0  0  0  0  0  0
  192.1750  177.7950  142.7500 C   0  0  0  0  0  2  0  0  0  0  0  0
  190.7080  177.2300  146.2570 C   0  0  0  0  0  0  0  0  0  0  0  0
  191.1710  176.9010  144.8730 C   0  0  1  0  0  3  0  0  0  0  0  0
  191.5470  177.3090  147.1920 O   0  0  0  0  0  0  0  0  0  0  0  0
  185.8710  177.6760  145.1920 C   0  0  0  0  0  2  0  0  0  0  0  0
  184.8930  179.5740  142.2220 O   0  0  0  0  0  0  0  0  0  0  0  0
  185.8190  178.1090  143.7960 N   0  0  0  0  0  0  0  0  0  0  0  0
  186.6780  177.5070  142.7680 C   0  0  0  0  0  2  0  0  0  0  0  0
  188.3000  177.1860  145.6260 C   0  0  2  0  0  3  0  0  0  0  0  0
  187.6430  176.4610  143.3170 C   0  0  0  0  0  2  0  0  0  0  0  0
  188.7410  177.1210  144.1500 C   0  0  2  0  0  3  0  0  0  0  0  0
  191.3000  177.2370  140.5860 C   0  0  0  0  0  2  0  0  0  0  0  0
  187.8610  178.4290  139.2630 C   0  0  0  0  0  2  0  0  0  0  0  0
  189.9480  176.5080  138.5190 C   0  0  0  0  0  2  0  0  0  0  0  0
  186.5030  176.0740  135.5220 N   0  0  0  0  0  0  0  0  0  0  0  0
  185.8430  176.9160  136.4790 C   0  0  0  0  0  0  0  0  0  0  0  0
  186.5990  177.9740  137.2120 C   0  0  0  0  0  2  0  0  0  0  0  0
  185.7470  175.1080  134.7430 C   0  0  0  0  0  1  0  0  0  0  0  0
  187.5860  177.3650  138.1990 C   0  0  1  0  0  3  0  0  0  0  0  0
  184.6150  176.7680  136.7170 O   0  0  0  0  0  0  0  0  0  0  0  0
  188.7000  175.7750  136.5400 C   0  0  0  0  0  2  0  0  0  0  0  0
  188.9000  176.9470  137.4970 C   0  0  2  0  0  3  0  0  0  0  0  0
  187.9360  176.1790  135.2890 C   0  0  0  0  0  2  0  0  0  0  0  0
  190.1750  177.5770  139.5850 C   0  0  1  0  0  3  0  0  0  0  0  0
  188.8720  177.9360  140.2860 C   0  0  0  0  0  2  0  0  0  0  0  0
  1  6  1  6  0  0  0
  1 20  1  0  0  0  0
  1 12  1  0  0  0  0
  3 16  1  0  0  0  0
  3  9  1  0  0  0  0
  5  6  1  0  0  0  0
  5 10  1  0  0  0  0
  7  8  1  6  0  0  0
  7 12  1  0  0  0  0
 10  7  1  0  0  0  0
 11  4  1  0  0  0  0
 11 13  2  0  0  0  0
 12 11  1  1  0  0  0
 14  2  1  0  0  0  0
 15  3  2  0  0  0  0
 16 14  1  0  0  0  0
 17 19  1  0  0  0  0
 17 16  1  0  0  0  0
 18  2  1  6  0  0  0
 18  4  1  0  0  0  0
 20 19  1  6  0  0  0
 20 18  1  0  0  0  0
 21  5  1  0  0  0  0
 22 34  1  0  0  0  0
 23 33  1  0  0  0  0
 24 25  1  0  0  0  0
 25 29  2  0  0  0  0
 25 26  1  0  0  0  0
 27 24  1  0  0  0  0
 28 26  1  6  0  0  0
 28 22  1  0  0  0  0
 31 30  1  6  0  0  0
 31 28  1  0  0  0  0
 31 23  1  0  0  0  0
 32 24  1  0  0  0  0
 32 30  1  0  0  0  0
 33 34  1  0  0  0  0
 33 21  1  1  0  0  0
M  END
>  <MODEL>
1

>  <REMARK>
 VINA RESULT:     -10.1      0.000      0.000
  Name = 
  2 active torsions:
  status: ('A' for Active; 'I' for Inactive)
    1  A    between atoms: N_8  and  C_18
    2  A    between atoms: C_18  and  C_30
                            x       y       z     vdW  Elec       q    Type
                         _______ _______ _______ _____ _____    ______ ____

>  <TORSDO>
F 2

$$$$
=
 OpenBabel10262423333D

 34 38  0  0  1  0  0  0  0  0999 V2000
  190.2180  176.3420  144.2530 C   0  0  1  0  0  3  0  0  0  0  0  0
  187.2910  177.8860  146.2740 C   0  0  0  0  0  2  0  0  0  0  0  0
  184.9220  178.9010  143.9920 C   0  0  0  0  0  0  0  0  0  0  0  0
  189.5660  177.3780  146.8170 O   0  0  0  0  0  0  0  0  0  0  0  0
  191.0270  177.5970  142.2830 N   0  0  0  0  0  0  0  0  0  0  0  0
  190.6360  176.2740  142.7780 C   0  0  0  0  0  2  0  0  0  0  0  0
  191.8820  178.2780  144.4780 C   0  0  2  0  0  3  0  0  0  0  0  0
  190.9600  179.3210  144.6130 O   0  0  0  0  0  1  0  0  0  0  0  0
  184.0300  179.4300  145.0660 C   0  0  0  0  0  1  0  0  0  0  0  0
  192.2100  178.0710  143.0020 C   0  0  0  0  0  2  0  0  0  0  0  0
  190.9120  177.1730  146.5070 C   0  0  0  0  0  0  0  0  0  0  0  0
  191.3450  176.9710  145.0890 C   0  0  1  0  0  3  0  0  0  0  0  0
  191.7780  177.2480  147.4180 O   0  0  0  0  0  0  0  0  0  0  0  0
  186.0200  177.3550  145.6290 C   0  0  0  0  0  2  0  0  0  0  0  0
  184.8110  179.3740  142.8300 O   0  0  0  0  0  0  0  0  0  0  0  0
  185.8900  177.8750  144.2690 N   0  0  0  0  0  0  0  0  0  0  0  0
  186.7480  177.4030  143.1750 C   0  0  0  0  0  2  0  0  0  0  0  0
  188.4920  177.0060  145.9510 C   0  0  2  0  0  3  0  0  0  0  0  0
  187.8000  176.3930  143.6200 C   0  0  0  0  0  2  0  0  0  0  0  0
  188.8820  177.0690  144.4600 C   0  0  2  0  0  3  0  0  0  0  0  0
  191.2960  177.5990  140.8340 C   0  0  0  0  0  2  0  0  0  0  0  0
  189.9750  175.3530  137.9680 C   0  0  0  0  0  2  0  0  0  0  0  0
  189.0980  177.6990  139.4940 C   0  0  0  0  0  2  0  0  0  0  0  0
  185.9220  176.8280  136.3010 N   0  0  0  0  0  0  0  0  0  0  0  0
  186.9440  175.9380  135.8290 C   0  0  0  0  0  0  0  0  0  0  0  0
  187.8310  175.2180  136.7900 C   0  0  0  0  0  2  0  0  0  0  0  0
  185.0000  177.4550  135.3700 C   0  0  0  0  0  1  0  0  0  0  0  0
  188.7800  176.1800  137.4920 C   0  0  1  0  0  3  0  0  0  0  0  0
  187.1080  175.7560  134.5940 O   0  0  0  0  0  0  0  0  0  0  0  0
  186.9920  177.8410  138.2470 C   0  0  0  0  0  2  0  0  0  0  0  0
  188.0910  176.8780  138.6890 C   0  0  2  0  0  3  0  0  0  0  0  0
  185.7670  177.1100  137.7210 C   0  0  0  0  0  2  0  0  0  0  0  0
  190.2940  176.8540  139.9260 C   0  0  1  0  0  3  0  0  0  0  0  0
  190.9750  176.2160  138.7230 C   0  0  0  0  0  2  0  0  0  0  0  0
  1  6  1  6  0  0  0
  1 20  1  0  0  0  0
  1 12  1  0  0  0  0
  3 16  1  0  0  0  0
  3  9  1  0  0  0  0
  5  6  1  0  0  0  0
  5 10  1  0  0  0  0
  7  8  1  6  0  0  0
  7 12  1  0  0  0  0
 10  7  1  0  0  0  0
 11  4  1  0  0  0  0
 11 13  2  0  0  0  0
 12 11  1  1  0  0  0
 14  2  1  0  0  0  0
 15  3  2  0  0  0  0
 16 14  1  0  0  0  0
 17 19  1  0  0  0  0
 17 16  1  0  0  0  0
 18  2  1  6  0  0  0
 18  4  1  0  0  0  0
 20 19  1  6  0  0  0
 20 18  1  0  0  0  0
 21  5  1  0  0  0  0
 22 34  1  0  0  0  0
 23 33  1  0  0  0  0
 24 32  1  0  0  0  0
 25 24  1  0  0  0  0
 25 26  1  0  0  0  0
 27 24  1  0  0  0  0
 28 26  1  1  0  0  0
 28 22  1  0  0  0  0
 28 31  1  0  0  0  0
 29 25  2  0  0  0  0
 31 30  1  6  0  0  0
 31 23  1  0  0  0  0
 32 30  1  0  0  0  0
 33 21  1  6  0  0  0
 34 33  1  0  0  0  0
M  END
>  <MODEL>
2

>  <REMARK>
 VINA RESULT:      -9.6      0.969      1.645
  Name = 
  2 active torsions:
  status: ('A' for Active; 'I' for Inactive)
    1  A    between atoms: N_8  and  C_18
    2  A    between atoms: C_18  and  C_30
                            x       y       z     vdW  Elec       q    Type
                         _______ _______ _______ _____ _____    ______ ____

>  <TORSDO>
F 2

$$$$
=
 OpenBabel10262423333D

 34 38  0  0  1  0  0  0  0  0999 V2000
  189.5570  177.1430  136.5740 C   0  0  1  0  0  3  0  0  0  0  0  0
  188.2200  173.6730  135.4750 C   0  0  0  0  0  2  0  0  0  0  0  0
  185.1120  173.2950  136.9050 C   0  0  0  0  0  0  0  0  0  0  0  0
  190.3990  174.6620  135.4770 O   0  0  0  0  0  0  0  0  0  0  0  0
  189.3440  177.7390  138.9640 N   0  0  0  0  0  0  0  0  0  0  0  0
  189.1530  178.2180  137.5930 C   0  0  0  0  0  2  0  0  0  0  0  0
  191.2570  176.3470  138.3180 C   0  0  2  0  0  3  0  0  0  0  0  0
  190.6260  175.1530  138.6840 O   0  0  0  0  0  1  0  0  0  0  0  0
  184.9440  171.9320  136.3210 C   0  0  0  0  0  1  0  0  0  0  0  0
  190.7640  177.4820  139.2100 C   0  0  0  0  0  2  0  0  0  0  0  0
  191.3740  175.5450  135.9470 C   0  0  0  0  0  0  0  0  0  0  0  0
  191.0010  176.6870  136.8380 C   0  0  1  0  0  3  0  0  0  0  0  0
  192.5870  175.3260  135.6900 O   0  0  0  0  0  0  0  0  0  0  0  0
  186.7590  173.8900  135.1140 C   0  0  0  0  0  2  0  0  0  0  0  0
  184.4620  173.5900  137.9440 O   0  0  0  0  0  0  0  0  0  0  0  0
  185.9940  174.2580  136.3050 N   0  0  0  0  0  0  0  0  0  0  0  0
  186.1280  175.5780  136.9320 C   0  0  0  0  0  2  0  0  0  0  0  0
  189.0060  174.9770  135.4300 C   0  0  2  0  0  3  0  0  0  0  0  0
  187.1700  176.4680  136.2620 C   0  0  0  0  0  2  0  0  0  0  0  0
  188.5820  175.9570  136.5420 C   0  0  2  0  0  3  0  0  0  0  0  0
  188.8320  178.6870  139.9690 C   0  0  0  0  0  2  0  0  0  0  0  0
  186.3340  177.8230  142.8000 C   0  0  0  0  0  2  0  0  0  0  0  0
  189.2090  178.3120  142.4890 C   0  0  0  0  0  2  0  0  0  0  0  0
  188.3660  177.6600  146.9510 N   0  0  0  0  0  0  0  0  0  0  0  0
  187.0090  177.7680  146.4950 C   0  0  0  0  0  0  0  0  0  0  0  0
  186.6090  177.2280  145.1610 C   0  0  0  0  0  2  0  0  0  0  0  0
  188.7340  178.1010  148.2860 C   0  0  0  0  0  1  0  0  0  0  0  0
  187.2150  178.0470  144.0300 C   0  0  1  0  0  3  0  0  0  0  0  0
  186.1380  178.3240  147.2140 O   0  0  0  0  0  0  0  0  0  0  0  0
  189.6220  177.9680  144.8810 C   0  0  0  0  0  2  0  0  0  0  0  0
  188.6730  177.6160  143.7400 C   0  0  2  0  0  3  0  0  0  0  0  0
  189.4020  177.0890  146.1030 C   0  0  0  0  0  2  0  0  0  0  0  0
  188.2910  178.0970  141.2890 C   0  0  1  0  0  3  0  0  0  0  0  0
  186.8750  178.5710  141.5910 C   0  0  0  0  0  2  0  0  0  0  0  0
  1 12  1  0  0  0  0
  1  6  1  1  0  0  0
  3 15  2  0  0  0  0
  4 11  1  0  0  0  0
  5 10  1  0  0  0  0
  5 21  1  0  0  0  0
  6  5  1  0  0  0  0
  7  8  1  1  0  0  0
  7 10  1  0  0  0  0
  9  3  1  0  0  0  0
 12 11  1  6  0  0  0
 12  7  1  0  0  0  0
 13 11  2  0  0  0  0
 14  2  1  0  0  0  0
 14 16  1  0  0  0  0
 16  3  1  0  0  0  0
 16 17  1  0  0  0  0
 18  2  1  1  0  0  0
 18  4  1  0  0  0  0
 18 20  1  0  0  0  0
 19 17  1  0  0  0  0
 20 19  1  6  0  0  0
 20  1  1  0  0  0  0
 24 27  1  0  0  0  0
 25 24  1  0  0  0  0
 25 29  2  0  0  0  0
 26 25  1  0  0  0  0
 28 22  1  6  0  0  0
 28 26  1  0  0  0  0
 30 32  1  0  0  0  0
 31 23  1  6  0  0  0
 31 28  1  0  0  0  0
 31 30  1  0  0  0  0
 32 24  1  0  0  0  0
 33 21  1  6  0  0  0
 33 34  1  0  0  0  0
 33 23  1  0  0  0  0
 34 22  1  0  0  0  0
M  END
>  <MODEL>
3

>  <REMARK>
 VINA RESULT:      -9.4      2.881      8.437
  Name = 
  2 active torsions:
  status: ('A' for Active; 'I' for Inactive)
    1  A    between atoms: N_8  and  C_18
    2  A    between atoms: C_18  and  C_30
                            x       y       z     vdW  Elec       q    Type
                         _______ _______ _______ _____ _____    ______ ____

>  <TORSDO>
F 2

$$$$
=
 OpenBabel10262423333D

 34 38  0  0  1  0  0  0  0  0999 V2000
  189.0010  177.7700  137.0310 C   0  0  1  0  0  3  0  0  0  0  0  0
  185.7120  176.1170  135.8130 C   0  0  0  0  0  2  0  0  0  0  0  0
  183.3530  176.6510  138.2620 C   0  0  0  0  0  0  0  0  0  0  0  0
  188.0000  175.8920  135.1490 O   0  0  0  0  0  0  0  0  0  0  0  0
  189.6940  177.3420  139.3650 N   0  0  0  0  0  0  0  0  0  0  0  0
  189.5220  178.3760  138.3410 C   0  0  0  0  0  2  0  0  0  0  0  0
  190.2620  175.6400  137.6930 C   0  0  2  0  0  3  0  0  0  0  0  0
  189.1560  174.8400  138.0010 O   0  0  0  0  0  1  0  0  0  0  0  0
  182.3100  175.9010  137.5030 C   0  0  0  0  0  1  0  0  0  0  0  0
  190.7190  176.3860  138.9420 C   0  0  0  0  0  2  0  0  0  0  0  0
  189.3790  175.9420  135.3680 C   0  0  0  0  0  0  0  0  0  0  0  0
  189.9350  176.6400  136.5690 C   0  0  1  0  0  3  0  0  0  0  0  0
  190.1540  175.3210  134.5940 O   0  0  0  0  0  0  0  0  0  0  0  0
  184.6070  177.1080  136.1410 C   0  0  0  0  0  2  0  0  0  0  0  0
  183.2350  176.7490  139.5130 O   0  0  0  0  0  0  0  0  0  0  0  0
  184.4730  177.2520  137.5900 N   0  0  0  0  0  0  0  0  0  0  0  0
  185.4740  177.9670  138.3920 C   0  0  0  0  0  2  0  0  0  0  0  0
  187.0730  176.7980  135.7500 C   0  0  2  0  0  3  0  0  0  0  0  0
  186.6630  178.4660  137.5770 C   0  0  0  0  0  2  0  0  0  0  0  0
  187.5430  177.3000  137.1300 C   0  0  2  0  0  3  0  0  0  0  0  0
  190.0530  177.9030  140.6790 C   0  0  0  0  0  2  0  0  0  0  0  0
  186.9090  177.6430  142.9260 C   0  0  0  0  0  2  0  0  0  0  0  0
  189.8240  177.7400  143.2390 C   0  0  0  0  0  2  0  0  0  0  0  0
  187.9600  177.6480  147.4290 N   0  0  0  0  0  0  0  0  0  0  0  0
  186.7620  177.8750  146.6720 C   0  0  0  0  0  0  0  0  0  0  0  0
  186.5840  177.2580  145.3240 C   0  0  0  0  0  2  0  0  0  0  0  0
  188.0920  178.1720  148.7780 C   0  0  0  0  0  1  0  0  0  0  0  0
  187.5290  177.8790  144.3040 C   0  0  1  0  0  3  0  0  0  0  0  0
  185.8450  178.6040  147.1350 O   0  0  0  0  0  0  0  0  0  0  0  0
  189.6610  177.5890  145.6810 C   0  0  0  0  0  2  0  0  0  0  0  0
  188.9380  177.2440  144.3820 C   0  0  2  0  0  3  0  0  0  0  0  0
  189.0620  176.8710  146.8800 C   0  0  0  0  0  2  0  0  0  0  0  0
  189.1630  177.5200  141.8810 C   0  0  1  0  0  3  0  0  0  0  0  0
  187.7980  178.1930  141.8210 C   0  0  0  0  0  2  0  0  0  0  0  0
  1 20  1  0  0  0  0
  1  6  1  1  0  0  0
  2 14  1  0  0  0  0
  3 15  2  0  0  0  0
  4 11  1  0  0  0  0
  4 18  1  0  0  0  0
  5 21  1  0  0  0  0
  6  5  1  0  0  0  0
  7  8  1  1  0  0  0
  7 10  1  0  0  0  0
  9  3  1  0  0  0  0
 10  5  1  0  0  0  0
 12 11  1  6  0  0  0
 12  1  1  0  0  0  0
 12  7  1  0  0  0  0
 13 11  2  0  0  0  0
 14 16  1  0  0  0  0
 16  3  1  0  0  0  0
 16 17  1  0  0  0  0
 18  2  1  1  0  0  0
 18 20  1  0  0  0  0
 19 17  1  0  0  0  0
 20 19  1  6  0  0  0
 24 27  1  0  0  0  0
 25 29  2  0  0  0  0
 25 24  1  0  0  0  0
 26 25  1  0  0  0  0
 28 22  1  6  0  0  0
 28 31  1  0  0  0  0
 28 26  1  0  0  0  0
 30 32  1  0  0  0  0
 31 23  1  6  0  0  0
 31 30  1  0  0  0  0
 32 24  1  0  0  0  0
 33 21  1  6  0  0  0
 33 23  1  0  0  0  0
 34 33  1  0  0  0  0
 34 22  1  0  0  0  0
M  END
>  <MODEL>
4

>  <REMARK>
 VINA RESULT:      -9.4      2.506      8.171
  Name = 
  2 active torsions:
  status: ('A' for Active; 'I' for Inactive)
    1  A    between atoms: N_8  and  C_18
    2  A    between atoms: C_18  and  C_30
                            x       y       z     vdW  Elec       q    Type
                         _______ _______ _______ _____ _____    ______ ____

>  <TORSDO>
F 2

$$$$
=
 OpenBabel10262423333D

 34 38  0  0  1  0  0  0  0  0999 V2000
  183.8080  179.1860  139.6920 C   0  0  1  0  0  3  0  0  0  0  0  0
  183.7000  178.3650  143.4810 C   0  0  0  0  0  2  0  0  0  0  0  0
  186.8690  177.3690  144.3830 C   0  0  0  0  0  0  0  0  0  0  0  0
  182.0030  178.6280  141.8130 O   0  0  0  0  0  0  0  0  0  0  0  0
  184.9370  177.5620  138.2080 N   0  0  0  0  0  0  0  0  0  0  0  0
  184.8010  178.9830  138.5390 C   0  0  0  0  0  2  0  0  0  0  0  0
  182.6110  177.0920  138.8270 C   0  0  2  0  0  3  0  0  0  0  0  0
  182.9680  176.2160  139.8580 O   0  0  0  0  0  1  0  0  0  0  0  0
  186.4540  177.1280  145.7960 C   0  0  0  0  0  1  0  0  0  0  0  0
  183.6600  177.0380  137.7210 C   0  0  0  0  0  2  0  0  0  0  0  0
  181.5180  178.5990  140.5030 C   0  0  0  0  0  0  0  0  0  0  0  0
  182.4600  178.5350  139.3430 C   0  0  1  0  0  3  0  0  0  0  0  0
  180.2770  178.5380  140.3020 O   0  0  0  0  0  0  0  0  0  0  0  0
  184.9660  178.9680  144.0690 C   0  0  0  0  0  2  0  0  0  0  0  0
  187.8740  176.7540  143.9360 O   0  0  0  0  0  0  0  0  0  0  0  0
  186.1440  178.2810  143.5410 N   0  0  0  0  0  0  0  0  0  0  0  0
  186.5920  178.4690  142.1550 C   0  0  0  0  0  2  0  0  0  0  0  0
  183.3360  179.0170  142.1520 C   0  0  2  0  0  3  0  0  0  0  0  0
  185.6800  179.3780  141.3380 C   0  0  0  0  0  2  0  0  0  0  0  0
  184.3510  178.6870  141.0390 C   0  0  2  0  0  3  0  0  0  0  0  0
  185.9880  177.3150  137.2050 C   0  0  0  0  0  2  0  0  0  0  0  0
  189.5160  177.7410  138.7450 C   0  0  0  0  0  2  0  0  0  0  0  0
  188.1670  176.0000  136.8090 C   0  0  0  0  0  2  0  0  0  0  0  0
  192.5910  174.7980  136.9400 N   0  0  0  0  0  0  0  0  0  0  0  0
  192.6820  176.0130  137.6970 C   0  0  0  0  0  0  0  0  0  0  0  0
  191.5770  176.4230  138.6150 C   0  0  0  0  0  2  0  0  0  0  0  0
  193.7060  174.3530  136.1200 C   0  0  0  0  0  1  0  0  0  0  0  0
  190.3320  176.8220  137.8350 C   0  0  1  0  0  3  0  0  0  0  0  0
  193.6960  176.7530  137.5940 O   0  0  0  0  0  0  0  0  0  0  0  0
  190.2140  174.7180  136.3930 C   0  0  0  0  0  2  0  0  0  0  0  0
  189.5000  175.5830  137.4280 C   0  0  2  0  0  3  0  0  0  0  0  0
  191.3960  173.9680  136.9880 C   0  0  0  0  0  2  0  0  0  0  0  0
  187.3920  176.9410  137.7270 C   0  0  1  0  0  3  0  0  0  0  0  0
  188.2200  178.1710  138.0750 C   0  0  0  0  0  2  0  0  0  0  0  0
  1  6  1  6  0  0  0
  1 20  1  0  0  0  0
  2 14  1  0  0  0  0
  3  9  1  0  0  0  0
  4 18  1  0  0  0  0
  5  6  1  0  0  0  0
  7 12  1  0  0  0  0
  7  8  1  1  0  0  0
 10  5  1  0  0  0  0
 10  7  1  0  0  0  0
 11  4  1  0  0  0  0
 12  1  1  0  0  0  0
 12 11  1  1  0  0  0
 13 11  2  0  0  0  0
 15  3  2  0  0  0  0
 16 14  1  0  0  0  0
 16  3  1  0  0  0  0
 17 16  1  0  0  0  0
 18  2  1  1  0  0  0
 19 17  1  0  0  0  0
 20 19  1  1  0  0  0
 20 18  1  0  0  0  0
 21  5  1  0  0  0  0
 23 31  1  0  0  0  0
 23 33  1  0  0  0  0
 24 32  1  0  0  0  0
 24 25  1  0  0  0  0
 25 26  1  0  0  0  0
 27 24  1  0  0  0  0
 28 26  1  1  0  0  0
 28 22  1  0  0  0  0
 29 25  2  0  0  0  0
 30 32  1  0  0  0  0
 31 30  1  6  0  0  0
 31 28  1  0  0  0  0
 33 21  1  6  0  0  0
 33 34  1  0  0  0  0
 34 22  1  0  0  0  0
M  END
>  <MODEL>
5

>  <REMARK>
 VINA RESULT:      -8.3      3.097      6.603
  Name = 
  2 active torsions:
  status: ('A' for Active; 'I' for Inactive)
    1  A    between atoms: N_8  and  C_18
    2  A    between atoms: C_18  and  C_30
                            x       y       z     vdW  Elec       q    Type
                         _______ _______ _______ _____ _____    ______ ____

>  <TORSDO>
F 2

$$$$
=
 OpenBabel10262423333D

 34 38  0  0  1  0  0  0  0  0999 V2000
  181.1210  177.7500  139.5730 C   0  0  1  0  0  3  0  0  0  0  0  0
  183.4550  178.0510  136.4910 C   0  0  0  0  0  2  0  0  0  0  0  0
  186.6830  178.1520  137.6820 C   0  0  0  0  0  0  0  0  0  0  0  0
  181.1120  178.4190  136.8120 O   0  0  0  0  0  0  0  0  0  0  0  0
  181.5620  179.2530  141.4860 N   0  0  0  0  0  0  0  0  0  0  0  0
  181.2700  177.8710  141.0960 C   0  0  0  0  0  2  0  0  0  0  0  0
  180.2580  180.1620  139.6190 C   0  0  2  0  0  3  0  0  0  0  0  0
  181.3650  180.7830  139.0300 O   0  0  0  0  0  1  0  0  0  0  0  0
  187.2480  178.2890  136.3070 C   0  0  0  0  0  1  0  0  0  0  0  0
  180.4380  180.1200  141.1340 C   0  0  0  0  0  2  0  0  0  0  0  0
  179.9860  178.7370  137.5760 C   0  0  0  0  0  0  0  0  0  0  0  0
  180.0550  178.7380  139.0710 C   0  0  1  0  0  3  0  0  0  0  0  0
  178.9310  179.1120  137.0020 O   0  0  0  0  0  0  0  0  0  0  0  0
  184.6090  177.0970  136.7530 C   0  0  0  0  0  2  0  0  0  0  0  0
  187.3610  178.5710  138.6570 O   0  0  0  0  0  0  0  0  0  0  0  0
  185.3930  177.5560  137.8990 N   0  0  0  0  0  0  0  0  0  0  0  0
  184.8830  177.4600  139.2720 C   0  0  0  0  0  2  0  0  0  0  0  0
  182.2300  177.6890  137.3220 C   0  0  2  0  0  3  0  0  0  0  0  0
  183.4650  176.9070  139.3590 C   0  0  0  0  0  2  0  0  0  0  0  0
  182.4530  177.9220  138.8290 C   0  0  2  0  0  3  0  0  0  0  0  0
  181.8550  179.3830  142.9240 C   0  0  0  0  0  2  0  0  0  0  0  0
  184.4950  178.0900  145.4460 C   0  0  0  0  0  2  0  0  0  0  0  0
  184.3560  178.8460  142.6160 C   0  0  0  0  0  2  0  0  0  0  0  0
  188.7120  177.7790  143.5760 N   0  0  0  0  0  0  0  0  0  0  0  0
  188.2030  177.8040  144.9170 C   0  0  0  0  0  0  0  0  0  0  0  0
  186.8160  177.3380  145.2140 C   0  0  0  0  0  2  0  0  0  0  0  0
  190.0920  178.1440  143.3020 C   0  0  0  0  0  1  0  0  0  0  0  0
  185.7780  178.2920  144.6380 C   0  0  1  0  0  3  0  0  0  0  0  0
  188.9200  178.2260  145.8620 O   0  0  0  0  0  0  0  0  0  0  0  0
  186.7320  178.3530  142.2700 C   0  0  0  0  0  2  0  0  0  0  0  0
  185.5240  178.0110  143.1380 C   0  0  2  0  0  3  0  0  0  0  0  0
  187.8730  177.3660  142.4590 C   0  0  0  0  0  2  0  0  0  0  0  0
  183.1010  178.6470  143.4630 C   0  0  1  0  0  3  0  0  0  0  0  0
  183.3710  178.9730  144.9260 C   0  0  0  0  0  2  0  0  0  0  0  0
  1  6  1  1  0  0  0
  2 14  1  0  0  0  0
  3 16  1  0  0  0  0
  3 15  2  0  0  0  0
  4 18  1  0  0  0  0
  4 11  1  0  0  0  0
  5 21  1  0  0  0  0
  6  5  1  0  0  0  0
  7  8  1  6  0  0  0
  7 10  1  0  0  0  0
  9  3  1  0  0  0  0
 10  5  1  0  0  0  0
 12 11  1  6  0  0  0
 12  1  1  0  0  0  0
 12  7  1  0  0  0  0
 13 11  2  0  0  0  0
 14 16  1  0  0  0  0
 16 17  1  0  0  0  0
 17 19  1  0  0  0  0
 18  2  1  6  0  0  0
 18 20  1  0  0  0  0
 20 19  1  1  0  0  0
 20  1  1  0  0  0  0
 23 31  1  0  0  0  0
 23 33  1  0  0  0  0
 24 25  1  0  0  0  0
 25 26  1  0  0  0  0
 25 29  2  0  0  0  0
 27 24  1  0  0  0  0
 28 26  1  1  0  0  0
 28 22  1  0  0  0  0
 30 32  1  0  0  0  0
 31 30  1  6  0  0  0
 31 28  1  0  0  0  0
 32 24  1  0  0  0  0
 33 21  1  6  0  0  0
 33 34  1  0  0  0  0
 34 22  1  0  0  0  0
M  END
>  <MODEL>
6

>  <REMARK>
 VINA RESULT:      -8.2      3.508      9.376
  Name = 
  2 active torsions:
  status: ('A' for Active; 'I' for Inactive)
    1  A    between atoms: N_8  and  C_18
    2  A    between atoms: C_18  and  C_30
                            x       y       z     vdW  Elec       q    Type
                         _______ _______ _______ _____ _____    ______ ____

>  <TORSDO>
F 2

$$$$
=
 OpenBabel10262423333D

 34 38  0  0  1  0  0  0  0  0999 V2000
  184.6980  177.1450  136.4870 C   0  0  1  0  0  3  0  0  0  0  0  0
  182.5540  177.1170  139.7180 C   0  0  0  0  0  2  0  0  0  0  0  0
  184.4370  178.6050  142.1850 C   0  0  0  0  0  0  0  0  0  0  0  0
  182.4160  175.9180  137.6510 O   0  0  0  0  0  0  0  0  0  0  0  0
  187.0560  176.4300  136.6800 N   0  0  0  0  0  0  0  0  0  0  0  0
  186.1580  177.4460  136.1250 C   0  0  0  0  0  2  0  0  0  0  0  0
  185.3620  174.6710  136.4630 C   0  0  2  0  0  3  0  0  0  0  0  0
  185.3020  174.4340  137.8410 O   0  0  0  0  0  1  0  0  0  0  0  0
  183.3690  178.3980  143.2070 C   0  0  0  0  0  1  0  0  0  0  0  0
  186.7660  175.1270  136.0810 C   0  0  0  0  0  2  0  0  0  0  0  0
  182.9520  175.3560  136.4900 C   0  0  0  0  0  0  0  0  0  0  0  0
  184.3270  175.7250  136.0300 C   0  0  1  0  0  3  0  0  0  0  0  0
  182.3080  174.4660  135.8760 O   0  0  0  0  0  0  0  0  0  0  0  0
  182.7390  178.4890  140.3470 C   0  0  0  0  0  2  0  0  0  0  0  0
  185.6290  178.7310  142.5760 O   0  0  0  0  0  0  0  0  0  0  0  0
  184.1240  178.6610  140.7830 N   0  0  0  0  0  0  0  0  0  0  0  0
  185.2180  178.8550  139.8240 C   0  0  0  0  0  2  0  0  0  0  0  0
  182.8940  177.1330  138.2330 C   0  0  2  0  0  3  0  0  0  0  0  0
  184.7700  178.7910  138.3680 C   0  0  0  0  0  2  0  0  0  0  0  0
  184.3970  177.3620  137.9770 C   0  0  2  0  0  3  0  0  0  0  0  0
  188.4770  176.7620  136.4770 C   0  0  0  0  0  2  0  0  0  0  0  0
  191.3900  176.7440  139.0310 C   0  0  0  0  0  2  0  0  0  0  0  0
  188.4900  177.1850  139.0180 C   0  0  0  0  0  2  0  0  0  0  0  0
  189.9360  177.4510  143.3630 N   0  0  0  0  0  0  0  0  0  0  0  0
  191.1380  176.9340  142.7740 C   0  0  0  0  0  0  0  0  0  0  0  0
  191.5520  177.3480  141.4000 C   0  0  0  0  0  2  0  0  0  0  0  0
  189.5840  177.1200  144.7340 C   0  0  0  0  0  1  0  0  0  0  0  0
  190.6100  176.7820  140.3460 C   0  0  1  0  0  3  0  0  0  0  0  0
  191.8580  176.1190  143.4080 O   0  0  0  0  0  0  0  0  0  0  0  0
  188.4470  177.5930  141.4350 C   0  0  0  0  0  2  0  0  0  0  0  0
  189.3400  177.6540  140.1990 C   0  0  2  0  0  3  0  0  0  0  0  0
  189.0510  178.3350  142.6170 C   0  0  0  0  0  2  0  0  0  0  0  0
  189.3050  177.1270  137.7290 C   0  0  1  0  0  3  0  0  0  0  0  0
  190.5240  176.2280  137.8920 C   0  0  0  0  0  2  0  0  0  0  0  0
  1  6  1  1  0  0  0
  1 20  1  0  0  0  0
  2 14  1  0  0  0  0
  3 15  2  0  0  0  0
  3  9  1  0  0  0  0
  4 18  1  0  0  0  0
  6  5  1  0  0  0  0
  7  8  1  1  0  0  0
 10  7  1  0  0  0  0
 10  5  1  0  0  0  0
 11  4  1  0  0  0  0
 12  7  1  0  0  0  0
 12  1  1  0  0  0  0
 12 11  1  1  0  0  0
 13 11  2  0  0  0  0
 14 16  1  0  0  0  0
 16  3  1  0  0  0  0
 17 16  1  0  0  0  0
 18  2  1  1  0  0  0
 19 17  1  0  0  0  0
 20 18  1  0  0  0  0
 20 19  1  6  0  0  0
 21  5  1  0  0  0  0
 24 27  1  0  0  0  0
 25 24  1  0  0  0  0
 25 29  2  0  0  0  0
 26 25  1  0  0  0  0
 28 22  1  6  0  0  0
 28 26  1  0  0  0  0
 30 32  1  0  0  0  0
 31 23  1  6  0  0  0
 31 28  1  0  0  0  0
 31 30  1  0  0  0  0
 32 24  1  0  0  0  0
 33 21  1  6  0  0  0
 33 34  1  0  0  0  0
 33 23  1  0  0  0  0
 34 22  1  0  0  0  0
M  END
>  <MODEL>
7

>  <REMARK>
 VINA RESULT:      -8.1      2.190      7.659
  Name = 
  2 active torsions:
  status: ('A' for Active; 'I' for Inactive)
    1  A    between atoms: N_8  and  C_18
    2  A    between atoms: C_18  and  C_30
                            x       y       z     vdW  Elec       q    Type
                         _______ _______ _______ _____ _____    ______ ____

>  <TORSDO>
F 2

$$$$
=
 OpenBabel10262423333D

 34 38  0  0  1  0  0  0  0  0999 V2000
  189.0590  178.5290  141.9890 C   0  0  1  0  0  3  0  0  0  0  0  0
  190.9540  176.3990  139.3590 C   0  0  0  0  0  2  0  0  0  0  0  0
  188.6410  175.4220  137.0040 C   0  0  0  0  0  0  0  0  0  0  0  0
  191.4790  177.0950  141.5880 O   0  0  0  0  0  0  0  0  0  0  0  0
  186.9080  177.6480  142.8310 N   0  0  0  0  0  0  0  0  0  0  0  0
  187.5930  178.8380  142.3210 C   0  0  0  0  0  2  0  0  0  0  0  0
  188.9580  176.7890  143.8680 C   0  0  2  0  0  3  0  0  0  0  0  0
  188.9830  175.6360  143.0760 O   0  0  0  0  0  1  0  0  0  0  0  0
  189.6630  174.6560  136.2330 C   0  0  0  0  0  1  0  0  0  0  0  0
  187.5140  177.2250  144.0940 C   0  0  0  0  0  2  0  0  0  0  0  0
  191.1520  177.4960  142.8860 C   0  0  0  0  0  0  0  0  0  0  0  0
  189.7610  177.9320  143.2200 C   0  0  1  0  0  3  0  0  0  0  0  0
  192.0130  177.4040  143.8000 O   0  0  0  0  0  0  0  0  0  0  0  0
  190.4330  176.8580  138.0060 C   0  0  0  0  0  2  0  0  0  0  0  0
  187.4300  175.0970  136.8880 O   0  0  0  0  0  0  0  0  0  0  0  0
  189.0200  176.5090  137.8650 N   0  0  0  0  0  0  0  0  0  0  0  0
  187.9720  177.2180  138.6080 C   0  0  0  0  0  2  0  0  0  0  0  0
  190.7110  177.4490  140.4360 C   0  0  2  0  0  3  0  0  0  0  0  0
  188.5120  178.2780  139.5620 C   0  0  0  0  0  2  0  0  0  0  0  0
  189.2130  177.6290  140.7540 C   0  0  2  0  0  3  0  0  0  0  0  0
  185.4640  177.8670  143.0230 C   0  0  0  0  0  2  0  0  0  0  0  0
  184.4960  178.9640  139.4370 C   0  0  0  0  0  2  0  0  0  0  0  0
  183.1980  178.6000  142.0420 C   0  0  0  0  0  2  0  0  0  0  0  0
  180.0640  180.2470  139.1260 N   0  0  0  0  0  0  0  0  0  0  0  0
  181.2300  180.4380  138.3100 C   0  0  0  0  0  0  0  0  0  0  0  0
  182.3560  179.4580  138.3500 C   0  0  0  0  0  2  0  0  0  0  0  0
  178.9310  181.1500  139.0160 C   0  0  0  0  0  1  0  0  0  0  0  0
  183.0910  179.5170  139.6830 C   0  0  1  0  0  3  0  0  0  0  0  0
  181.3190  181.4390  137.5510 O   0  0  0  0  0  0  0  0  0  0  0  0
  181.0190  179.2940  141.1590 C   0  0  0  0  0  2  0  0  0  0  0  0
  182.3620  178.6860  140.7660 C   0  0  2  0  0  3  0  0  0  0  0  0
  179.9750  179.1380  140.0640 C   0  0  0  0  0  2  0  0  0  0  0  0
  184.6040  178.0770  141.7580 C   0  0  1  0  0  3  0  0  0  0  0  0
  185.3100  178.9400  140.7220 C   0  0  0  0  0  2  0  0  0  0  0  0
  1  6  1  1  0  0  0
  1 12  1  0  0  0  0
  3 16  1  0  0  0  0
  4 11  1  0  0  0  0
  5 21  1  0  0  0  0
  5 10  1  0  0  0  0
  6  5  1  0  0  0  0
  7  8  1  6  0  0  0
  7 10  1  0  0  0  0
  9  3  1  0  0  0  0
 11 13  2  0  0  0  0
 12 11  1  6  0  0  0
 12  7  1  0  0  0  0
 14  2  1  0  0  0  0
 15  3  2  0  0  0  0
 16 14  1  0  0  0  0
 16 17  1  0  0  0  0
 17 19  1  0  0  0  0
 18  2  1  6  0  0  0
 18 20  1  0  0  0  0
 18  4  1  0  0  0  0
 20 19  1  6  0  0  0
 20  1  1  0  0  0  0
 22 28  1  0  0  0  0
 22 34  1  0  0  0  0
 24 32  1  0  0  0  0
 25 26  1  0  0  0  0
 25 24  1  0  0  0  0
 27 24  1  0  0  0  0
 28 26  1  6  0  0  0
 28 31  1  0  0  0  0
 29 25  2  0  0  0  0
 31 30  1  1  0  0  0
 31 23  1  0  0  0  0
 32 30  1  0  0  0  0
 33 23  1  0  0  0  0
 33 21  1  1  0  0  0
 34 33  1  0  0  0  0
M  END
>  <MODEL>
8

>  <REMARK>
 VINA RESULT:      -8.0      3.424      6.339
  Name = 
  2 active torsions:
  status: ('A' for Active; 'I' for Inactive)
    1  A    between atoms: N_8  and  C_18
    2  A    between atoms: C_18  and  C_30
                            x       y       z     vdW  Elec       q    Type
                         _______ _______ _______ _____ _____    ______ ____

>  <TORSDO>
F 2

$$$$
=
 OpenBabel10262423333D

 34 38  0  0  1  0  0  0  0  0999 V2000
  188.9500  178.5100  142.1300 C   0  0  1  0  0  3  0  0  0  0  0  0
  189.7720  176.6110  138.8510 C   0  0  0  0  0  2  0  0  0  0  0  0
  186.8190  176.2880  137.1110 C   0  0  0  0  0  0  0  0  0  0  0  0
  190.9410  176.8850  140.9210 O   0  0  0  0  0  0  0  0  0  0  0  0
  186.9720  177.7660  143.4120 N   0  0  0  0  0  0  0  0  0  0  0  0
  187.6800  178.9330  142.8810 C   0  0  0  0  0  2  0  0  0  0  0  0
  189.0600  176.5230  143.7450 C   0  0  2  0  0  3  0  0  0  0  0  0
  188.7070  175.5130  142.8430 O   0  0  0  0  0  1  0  0  0  0  0  0
  187.4840  175.5380  136.0060 C   0  0  0  0  0  1  0  0  0  0  0  0
  187.8030  177.0840  144.4040 C   0  0  0  0  0  2  0  0  0  0  0  0
  191.0170  177.1140  142.2970 C   0  0  0  0  0  0  0  0  0  0  0  0
  189.8390  177.6520  143.0450 C   0  0  1  0  0  3  0  0  0  0  0  0
  192.0560  176.7820  142.9260 O   0  0  0  0  0  0  0  0  0  0  0  0
  189.0040  177.3320  137.7540 C   0  0  0  0  0  2  0  0  0  0  0  0
  185.5820  176.1270  137.2890 O   0  0  0  0  0  0  0  0  0  0  0  0
  187.5650  177.1760  137.9600 N   0  0  0  0  0  0  0  0  0  0  0  0
  186.8580  177.8780  139.0390 C   0  0  0  0  0  2  0  0  0  0  0  0
  189.9720  177.5020  140.0710 C   0  0  2  0  0  3  0  0  0  0  0  0
  187.7770  178.7060  139.9310 C   0  0  0  0  0  2  0  0  0  0  0  0
  188.6480  177.8020  140.8020 C   0  0  2  0  0  3  0  0  0  0  0  0
  185.6740  178.1190  144.0130 C   0  0  0  0  0  2  0  0  0  0  0  0
  182.2080  179.3780  142.8280 C   0  0  0  0  0  2  0  0  0  0  0  0
  184.4820  177.8780  141.7420 C   0  0  0  0  0  2  0  0  0  0  0  0
  181.2240  178.0240  138.5170 N   0  0  0  0  0  0  0  0  0  0  0  0
  180.4530  178.5300  139.6170 C   0  0  0  0  0  0  0  0  0  0  0  0
  181.0830  179.4030  140.6510 C   0  0  0  0  0  2  0  0  0  0  0  0
  180.5890  177.2520  137.4630 C   0  0  0  0  0  1  0  0  0  0  0  0
  182.0720  178.6220  141.5050 C   0  0  1  0  0  3  0  0  0  0  0  0
  179.2330  178.2380  139.7260 O   0  0  0  0  0  0  0  0  0  0  0  0
  183.3910  177.6170  139.5620 C   0  0  0  0  0  2  0  0  0  0  0  0
  183.4470  178.5000  140.8060 C   0  0  2  0  0  3  0  0  0  0  0  0
  182.6520  178.2870  138.4150 C   0  0  0  0  0  2  0  0  0  0  0  0
  184.5700  178.6350  143.0650 C   0  0  1  0  0  3  0  0  0  0  0  0
  183.2110  178.7000  143.7490 C   0  0  0  0  0  2  0  0  0  0  0  0
  1  6  1  1  0  0  0
  1 12  1  0  0  0  0
  3 15  2  0  0  0  0
  3 16  1  0  0  0  0
  4 11  1  0  0  0  0
  5 21  1  0  0  0  0
  5 10  1  0  0  0  0
  6  5  1  0  0  0  0
  7  8  1  6  0  0  0
  7 10  1  0  0  0  0
  9  3  1  0  0  0  0
 11 13  2  0  0  0  0
 12 11  1  6  0  0  0
 12  7  1  0  0  0  0
 14 16  1  0  0  0  0
 14  2  1  0  0  0  0
 16 17  1  0  0  0  0
 17 19  1  0  0  0  0
 18  2  1  6  0  0  0
 18 20  1  0  0  0  0
 18  4  1  0  0  0  0
 20 19  1  6  0  0  0
 20  1  1  0  0  0  0
 22 34  1  0  0  0  0
 23 33  1  0  0  0  0
 24 25  1  0  0  0  0
 25 29  2  0  0  0  0
 25 26  1  0  0  0  0
 27 24  1  0  0  0  0
 28 26  1  6  0  0  0
 28 22  1  0  0  0  0
 31 30  1  6  0  0  0
 31 28  1  0  0  0  0
 31 23  1  0  0  0  0
 32 24  1  0  0  0  0
 32 30  1  0  0  0  0
 33 34  1  0  0  0  0
 33 21  1  1  0  0  0
M  END
>  <MODEL>
9

>  <REMARK>
 VINA RESULT:      -7.8      3.013      5.926
  Name = 
  2 active torsions:
  status: ('A' for Active; 'I' for Inactive)
    1  A    between atoms: N_8  and  C_18
    2  A    between atoms: C_18  and  C_30
                            x       y       z     vdW  Elec       q    Type
                         _______ _______ _______ _____ _____    ______ ____

>  <TORSDO>
F 2

$$$$
