=
 OpenBabel10262421023D

 32 35  0  0  1  0  0  0  0  0999 V2000
  189.2440  175.8680  136.6810 C   0  0  1  0  0  3  0  0  0  0  0  0
  189.4700  176.3770  139.1720 C   0  0  2  0  0  3  0  0  0  0  0  0
  189.6910  176.9840  135.7300 C   0  0  0  0  0  2  0  0  0  0  0  0
  188.5390  176.3950  137.9480 C   0  0  1  0  0  3  0  0  0  0  0  0
  188.7360  176.9010  140.4170 C   0  0  1  0  0  3  0  0  0  0  0  0
  191.6100  177.2810  140.1510 C   0  0  0  0  0  0  0  0  0  0  0  0
  191.0920  177.2450  141.4020 C   0  0  0  0  0  0  0  0  0  0  0  0
  187.8670  177.7490  137.7950 C   0  0  0  0  0  0  0  0  0  0  0  0
  189.6580  176.8300  141.6430 C   0  0  0  0  0  2  0  0  0  0  0  0
  187.2060  178.3400  138.9990 C   0  0  0  0  0  2  0  0  0  0  0  0
  187.9040  178.4510  136.6560 C   0  0  0  0  0  3  0  0  0  0  0  0
  190.7320  177.2090  138.9370 C   0  0  0  0  0  2  0  0  0  0  0  0
  188.1640  178.3200  140.1950 C   0  0  1  0  0  3  0  0  0  0  0  0
  188.5230  177.9070  135.4020 C   0  0  0  0  0  2  0  0  0  0  0  0
  193.3760  177.3820  139.8260 S   0  0  0  0  0  1  0  0  0  0  0  0
  187.4500  178.8530  141.4360 C   0  0  0  0  0  2  0  0  0  0  0  0
  186.2080  179.3970  141.1050 O   0  0  0  0  0  1  0  0  0  0  0  0
  188.9090  174.1760  135.0590 O   0  0  0  0  0  0  0  0  0  0  0  0
  188.4310  174.8160  135.9850 C   0  0  0  0  0  0  0  0  0  0  0  0
  184.2620  174.2640  137.4270 S   0  0  0  0  0  0  0  0  0  0  0  0
  185.5070  172.9550  137.7580 C   0  0  0  0  0  2  0  0  0  0  0  0
  184.5860  174.3880  135.6310 C   0  0  1  0  0  3  0  0  0  0  0  0
  187.0250  174.5540  136.4380 C   0  0  1  0  0  3  0  0  0  0  0  0
  186.0190  174.8440  135.3170 C   0  0  0  0  0  2  0  0  0  0  0  0
  186.8630  173.1620  137.0720 C   0  0  2  0  0  3  0  0  0  0  0  0
  187.1310  172.0220  136.0980 C   0  0  0  0  0  1  0  0  0  0  0  0
  184.2380  173.0840  134.9170 C   0  0  0  0  0  2  0  0  0  0  0  0
  182.9230  171.4210  136.0070 F   0  0  0  0  0  0  0  0  0  0  0  0
  182.8460  172.6070  135.3000 C   0  0  0  0  0  2  0  0  0  0  0  0
  191.8460  177.4980  142.5600 O   0  0  0  0  0  0  0  0  0  0  0  0
  191.2950  177.8050  143.8360 C   0  0  0  0  0  2  0  0  0  0  0  0
  191.1340  179.3060  143.9900 C   0  0  0  0  0  1  0  0  0  0  0  0
  1 19  1  6  0  0  0
  1  4  1  0  0  0  0
  2 12  1  6  0  0  0
  2  5  1  0  0  0  0
  3  1  1  0  0  0  0
  4  8  1  6  0  0  0
  4  2  1  0  0  0  0
  5  9  1  1  0  0  0
  6  7  2  0  0  0  0
  7  9  1  0  0  0  0
  7 30  1  0  0  0  0
  8 10  1  0  0  0  0
 10 13  1  0  0  0  0
 11  8  2  0  0  0  0
 12  6  1  0  0  0  0
 13  5  1  0  0  0  0
 13 16  1  1  0  0  0
 14  3  1  0  0  0  0
 14 11  1  0  0  0  0
 15  6  1  0  0  0  0
 17 16  1  0  0  0  0
 18 19  2  0  0  0  0
 20 21  1  0  0  0  0
 22 27  1  6  0  0  0
 22 20  1  0  0  0  0
 23 19  1  6  0  0  0
 23 25  1  0  0  0  0
 24 22  1  0  0  0  0
 24 23  1  0  0  0  0
 25 26  1  6  0  0  0
 25 21  1  0  0  0  0
 27 29  1  0  0  0  0
 29 28  1  0  0  0  0
 30 31  1  0  0  0  0
 31 32  1  0  0  0  0
M  END
>  <MODEL>
1

>  <REMARK>
 VINA RESULT:      -5.4      0.000      0.000
  Name = 
  7 active torsions:
  status: ('A' for Active; 'I' for Inactive)
    1  A    between atoms: C_1  and  C_27
    2  A    between atoms: C_7  and  C_15
    3  A    between atoms: C_7  and  C_26
    4  A    between atoms: C_9  and  O_11
    5  A    between atoms: O_11  and  C_12
    6  A    between atoms: C_13  and  C_29
    7  A    between atoms: C_16  and  C_27
                            x       y       z     vdW  Elec       q    Type
                         _______ _______ _______ _____ _____    ______ ____

>  <TORSDO>
F 7

$$$$
=
 OpenBabel10262421023D

 32 35  0  0  1  0  0  0  0  0999 V2000
  188.2050  177.1160  138.0630 C   0  0  1  0  0  3  0  0  0  0  0  0
  187.1060  174.8570  137.6120 C   0  0  2  0  0  3  0  0  0  0  0  0
  187.7560  178.2680  137.1580 C   0  0  0  0  0  2  0  0  0  0  0  0
  188.3120  175.7670  137.3240 C   0  0  1  0  0  3  0  0  0  0  0  0
  187.2470  173.5200  136.8670 C   0  0  1  0  0  3  0  0  0  0  0  0
  184.6050  174.6180  137.4070 C   0  0  0  0  0  0  0  0  0  0  0  0
  184.7120  173.2750  137.2610 C   0  0  0  0  0  0  0  0  0  0  0  0
  188.5700  175.8700  135.8310 C   0  0  0  0  0  0  0  0  0  0  0  0
  186.0640  172.6000  137.2030 C   0  0  0  0  0  2  0  0  0  0  0  0
  188.6370  174.5990  135.0440 C   0  0  0  0  0  2  0  0  0  0  0  0
  188.6710  177.0430  135.1920 C   0  0  0  0  0  3  0  0  0  0  0  0
  185.7860  175.5230  137.2200 C   0  0  0  0  0  2  0  0  0  0  0  0
  187.4150  173.7240  135.3440 C   0  0  1  0  0  3  0  0  0  0  0  0
  188.6430  178.3530  135.9210 C   0  0  0  0  0  2  0  0  0  0  0  0
  183.0680  175.4320  137.8670 S   0  0  0  0  0  1  0  0  0  0  0  0
  187.5370  172.3970  134.5960 C   0  0  0  0  0  2  0  0  0  0  0  0
  188.7080  171.7260  134.9510 O   0  0  0  0  0  1  0  0  0  0  0  0
  190.3560  178.0790  138.2870 O   0  0  0  0  0  0  0  0  0  0  0  0
  189.4600  177.4410  138.8200 C   0  0  0  0  0  0  0  0  0  0  0  0
  189.9470  175.8420  142.9390 S   0  0  0  0  0  0  0  0  0  0  0  0
  188.4220  176.7700  142.5110 C   0  0  0  0  0  2  0  0  0  0  0  0
  191.1190  177.1000  142.3160 C   0  0  1  0  0  3  0  0  0  0  0  0
  189.6030  176.9760  140.2380 C   0  0  1  0  0  3  0  0  0  0  0  0
  190.9810  177.3430  140.8050 C   0  0  0  0  0  2  0  0  0  0  0  0
  188.4280  177.4250  141.1240 C   0  0  2  0  0  3  0  0  0  0  0  0
  188.3240  178.9380  141.2640 C   0  0  0  0  0  1  0  0  0  0  0  0
  191.0060  178.4000  143.1110 C   0  0  0  0  0  2  0  0  0  0  0  0
  189.8990  178.4300  145.2210 F   0  0  0  0  0  0  0  0  0  0  0  0
  191.1010  178.1350  144.6050 C   0  0  0  0  0  2  0  0  0  0  0  0
  183.6070  172.4080  137.2380 O   0  0  0  0  0  0  0  0  0  0  0  0
  183.5700  171.1590  136.5560 C   0  0  0  0  0  2  0  0  0  0  0  0
  182.1870  170.9170  135.9810 C   0  0  0  0  0  1  0  0  0  0  0  0
  1 19  1  6  0  0  0
  2 12  1  6  0  0  0
  3  1  1  0  0  0  0
  4  8  1  6  0  0  0
  4  2  1  0  0  0  0
  4  1  1  0  0  0  0
  5  9  1  6  0  0  0
  5  2  1  0  0  0  0
  6 15  1  0  0  0  0
  7  6  2  0  0  0  0
  9  7  1  0  0  0  0
 10 13  1  0  0  0  0
 10  8  1  0  0  0  0
 11  8  2  0  0  0  0
 11 14  1  0  0  0  0
 12  6  1  0  0  0  0
 13 16  1  6  0  0  0
 13  5  1  0  0  0  0
 14  3  1  0  0  0  0
 16 17  1  0  0  0  0
 18 19  2  0  0  0  0
 21 20  1  0  0  0  0
 22 20  1  0  0  0  0
 22 27  1  1  0  0  0
 23 19  1  6  0  0  0
 23 24  1  0  0  0  0
 23 25  1  0  0  0  0
 24 22  1  0  0  0  0
 25 26  1  1  0  0  0
 25 21  1  0  0  0  0
 27 29  1  0  0  0  0
 29 28  1  0  0  0  0
 30  7  1  0  0  0  0
 31 30  1  0  0  0  0
 32 31  1  0  0  0  0
M  END
>  <MODEL>
2

>  <REMARK>
 VINA RESULT:      -5.1      3.106      8.131
  Name = 
  7 active torsions:
  status: ('A' for Active; 'I' for Inactive)
    1  A    between atoms: C_1  and  C_27
    2  A    between atoms: C_7  and  C_15
    3  A    between atoms: C_7  and  C_26
    4  A    between atoms: C_9  and  O_11
    5  A    between atoms: O_11  and  C_12
    6  A    between atoms: C_13  and  C_29
    7  A    between atoms: C_16  and  C_27
                            x       y       z     vdW  Elec       q    Type
                         _______ _______ _______ _____ _____    ______ ____

>  <TORSDO>
F 7

$$$$
=
 OpenBabel10262421023D

 32 35  0  0  1  0  0  0  0  0999 V2000
  184.0660  176.4010  136.2300 C   0  0  1  0  0  3  0  0  0  0  0  0
  183.1030  178.4330  137.4390 C   0  0  2  0  0  3  0  0  0  0  0  0
  183.0670  175.2890  135.8950 C   0  0  0  0  0  2  0  0  0  0  0  0
  183.7990  177.0700  137.5930 C   0  0  1  0  0  3  0  0  0  0  0  0
  182.8570  179.0740  138.8140 C   0  0  1  0  0  3  0  0  0  0  0  0
  181.0350  179.6120  136.6080 C   0  0  0  0  0  0  0  0  0  0  0  0
  181.1340  180.5440  137.5860 C   0  0  0  0  0  0  0  0  0  0  0  0
  183.0730  176.2010  138.6050 C   0  0  0  0  0  0  0  0  0  0  0  0
  182.2100  180.4560  138.6450 C   0  0  0  0  0  2  0  0  0  0  0  0
  182.7390  176.8030  139.9330 C   0  0  0  0  0  2  0  0  0  0  0  0
  182.6670  174.9540  138.3300 C   0  0  0  0  0  3  0  0  0  0  0  0
  181.7750  178.3090  136.6890 C   0  0  0  0  0  2  0  0  0  0  0  0
  182.0350  178.1520  139.7420 C   0  0  1  0  0  3  0  0  0  0  0  0
  182.9920  174.2770  137.0320 C   0  0  0  0  0  2  0  0  0  0  0  0
  180.0520  179.8540  135.1210 S   0  0  0  0  0  1  0  0  0  0  0  0
  181.7720  178.7920  141.1040 C   0  0  0  0  0  2  0  0  0  0  0  0
  182.9010  178.7160  141.9200 O   0  0  0  0  0  1  0  0  0  0  0  0
  185.7750  175.0010  135.3780 O   0  0  0  0  0  0  0  0  0  0  0  0
  185.4910  175.9470  136.0990 C   0  0  0  0  0  0  0  0  0  0  0  0
  188.5370  178.0590  138.5530 S   0  0  0  0  0  0  0  0  0  0  0  0
  187.9880  178.8040  136.9670 C   0  0  0  0  0  2  0  0  0  0  0  0
  188.9190  176.4070  137.8670 C   0  0  1  0  0  3  0  0  0  0  0  0
  186.5640  176.6680  136.8590 C   0  0  1  0  0  3  0  0  0  0  0  0
  187.6830  175.7070  137.2830 C   0  0  0  0  0  2  0  0  0  0  0  0
  187.0690  177.9180  136.1170 C   0  0  2  0  0  3  0  0  0  0  0  0
  187.7410  177.5990  134.7880 C   0  0  0  0  0  1  0  0  0  0  0  0
  190.0590  176.4810  136.8530 C   0  0  0  0  0  2  0  0  0  0  0  0
  191.3380  175.7950  138.7440 F   0  0  0  0  0  0  0  0  0  0  0  0
  191.4090  176.4930  137.5520 C   0  0  0  0  0  2  0  0  0  0  0  0
  180.3210  181.6880  137.6500 O   0  0  0  0  0  0  0  0  0  0  0  0
  180.8000  183.0270  137.6070 C   0  0  0  0  0  2  0  0  0  0  0  0
  180.7880  183.5430  136.1800 C   0  0  0  0  0  1  0  0  0  0  0  0
  1 19  1  1  0  0  0
  1  4  1  0  0  0  0
  2 12  1  1  0  0  0
  2  4  1  0  0  0  0
  2  5  1  0  0  0  0
  3  1  1  0  0  0  0
  3 14  1  0  0  0  0
  4  8  1  1  0  0  0
  5  9  1  6  0  0  0
  5 13  1  0  0  0  0
  6 12  1  0  0  0  0
  6  7  2  0  0  0  0
  7 30  1  0  0  0  0
  7  9  1  0  0  0  0
  8 10  1  0  0  0  0
 11  8  2  0  0  0  0
 13 10  1  0  0  0  0
 13 16  1  1  0  0  0
 14 11  1  0  0  0  0
 15  6  1  0  0  0  0
 16 17  1  0  0  0  0
 18 19  2  0  0  0  0
 21 20  1  0  0  0  0
 22 27  1  6  0  0  0
 22 20  1  0  0  0  0
 23 19  1  6  0  0  0
 23 24  1  0  0  0  0
 24 22  1  0  0  0  0
 25 26  1  6  0  0  0
 25 23  1  0  0  0  0
 25 21  1  0  0  0  0
 27 29  1  0  0  0  0
 29 28  1  0  0  0  0
 31 30  1  0  0  0  0
 32 31  1  0  0  0  0
M  END
>  <MODEL>
3

>  <REMARK>
 VINA RESULT:      -5.1      4.734      7.907
  Name = 
  7 active torsions:
  status: ('A' for Active; 'I' for Inactive)
    1  A    between atoms: C_1  and  C_27
    2  A    between atoms: C_7  and  C_15
    3  A    between atoms: C_7  and  C_26
    4  A    between atoms: C_9  and  O_11
    5  A    between atoms: O_11  and  C_12
    6  A    between atoms: C_13  and  C_29
    7  A    between atoms: C_16  and  C_27
                            x       y       z     vdW  Elec       q    Type
                         _______ _______ _______ _____ _____    ______ ____

>  <TORSDO>
F 7

$$$$
=
 OpenBabel10262421023D

 32 35  0  0  1  0  0  0  0  0999 V2000
  182.1470  176.6940  138.2780 C   0  0  1  0  0  3  0  0  0  0  0  0
  181.9210  177.7390  140.5960 C   0  0  2  0  0  3  0  0  0  0  0  0
  182.7990  177.5780  137.2090 C   0  0  0  0  0  2  0  0  0  0  0  0
  181.2360  177.4790  139.2440 C   0  0  1  0  0  3  0  0  0  0  0  0
  180.9860  178.5160  141.5360 C   0  0  1  0  0  3  0  0  0  0  0  0
  183.8700  178.8550  141.7410 C   0  0  0  0  0  0  0  0  0  0  0  0
  183.1270  179.0890  142.8500 C   0  0  0  0  0  0  0  0  0  0  0  0
  180.6480  178.7600  138.6780 C   0  0  0  0  0  0  0  0  0  0  0  0
  181.6600  178.7240  142.9000 C   0  0  0  0  0  2  0  0  0  0  0  0
  179.7940  179.5950  139.5770 C   0  0  0  0  0  2  0  0  0  0  0  0
  180.9190  179.1960  137.4400 C   0  0  0  0  0  3  0  0  0  0  0  0
  183.2310  178.5110  140.4290 C   0  0  0  0  0  2  0  0  0  0  0  0
  180.5110  179.8460  140.9080 C   0  0  1  0  0  3  0  0  0  0  0  0
  181.7430  178.3960  136.4750 C   0  0  0  0  0  2  0  0  0  0  0  0
  185.6680  178.8990  141.7410 S   0  0  0  0  0  1  0  0  0  0  0  0
  179.5960  180.6310  141.8460 C   0  0  0  0  0  2  0  0  0  0  0  0
  179.1590  181.8140  141.2460 O   0  0  0  0  0  1  0  0  0  0  0  0
  180.2320  175.5240  137.5230 O   0  0  0  0  0  0  0  0  0  0  0  0
  181.4440  175.5070  137.6860 C   0  0  0  0  0  0  0  0  0  0  0  0
  183.9050  171.9260  136.7510 S   0  0  0  0  0  0  0  0  0  0  0  0
  183.9450  173.3640  135.6110 C   0  0  0  0  0  2  0  0  0  0  0  0
  182.0830  171.7770  136.8100 C   0  0  1  0  0  3  0  0  0  0  0  0
  182.2440  174.3010  137.2940 C   0  0  1  0  0  3  0  0  0  0  0  0
  181.4060  173.0200  137.4060 C   0  0  0  0  0  2  0  0  0  0  0  0
  182.9340  174.4730  135.9300 C   0  0  2  0  0  3  0  0  0  0  0  0
  181.9530  174.6290  134.7750 C   0  0  0  0  0  1  0  0  0  0  0  0
  181.5130  171.4260  135.4370 C   0  0  0  0  0  2  0  0  0  0  0  0
  179.5150  170.2190  135.9190 F   0  0  0  0  0  0  0  0  0  0  0  0
  179.9930  171.4330  135.4600 C   0  0  0  0  0  2  0  0  0  0  0  0
  183.6600  179.5970  144.0460 O   0  0  0  0  0  0  0  0  0  0  0  0
  183.7670  178.8660  145.2620 C   0  0  0  0  0  2  0  0  0  0  0  0
  185.2220  178.7360  145.6690 C   0  0  0  0  0  1  0  0  0  0  0  0
  1 19  1  6  0  0  0
  1  4  1  0  0  0  0
  2 12  1  6  0  0  0
  2  5  1  0  0  0  0
  3  1  1  0  0  0  0
  4  8  1  6  0  0  0
  4  2  1  0  0  0  0
  5  9  1  1  0  0  0
  6  7  2  0  0  0  0
  7  9  1  0  0  0  0
  7 30  1  0  0  0  0
  8 10  1  0  0  0  0
 10 13  1  0  0  0  0
 11  8  2  0  0  0  0
 12  6  1  0  0  0  0
 13  5  1  0  0  0  0
 13 16  1  1  0  0  0
 14  3  1  0  0  0  0
 14 11  1  0  0  0  0
 15  6  1  0  0  0  0
 17 16  1  0  0  0  0
 18 19  2  0  0  0  0
 20 22  1  0  0  0  0
 21 25  1  0  0  0  0
 21 20  1  0  0  0  0
 22 27  1  6  0  0  0
 22 24  1  0  0  0  0
 23 24  1  0  0  0  0
 23 19  1  6  0  0  0
 25 26  1  6  0  0  0
 25 23  1  0  0  0  0
 27 29  1  0  0  0  0
 29 28  1  0  0  0  0
 30 31  1  0  0  0  0
 31 32  1  0  0  0  0
M  END
>  <MODEL>
4

>  <REMARK>
 VINA RESULT:      -5.0      5.467      6.795
  Name = 
  7 active torsions:
  status: ('A' for Active; 'I' for Inactive)
    1  A    between atoms: C_1  and  C_27
    2  A    between atoms: C_7  and  C_15
    3  A    between atoms: C_7  and  C_26
    4  A    between atoms: C_9  and  O_11
    5  A    between atoms: O_11  and  C_12
    6  A    between atoms: C_13  and  C_29
    7  A    between atoms: C_16  and  C_27
                            x       y       z     vdW  Elec       q    Type
                         _______ _______ _______ _____ _____    ______ ____

>  <TORSDO>
F 7

$$$$
=
 OpenBabel10262421023D

 32 35  0  0  1  0  0  0  0  0999 V2000
  190.1200  176.8130  139.3460 C   0  0  1  0  0  3  0  0  0  0  0  0
  189.1020  176.9520  141.6820 C   0  0  2  0  0  3  0  0  0  0  0  0
  190.5660  178.1450  138.7330 C   0  0  0  0  0  2  0  0  0  0  0  0
  188.8220  176.9270  140.1700 C   0  0  1  0  0  3  0  0  0  0  0  0
  187.7890  177.0600  142.4740 C   0  0  1  0  0  3  0  0  0  0  0  0
  190.2380  178.2080  143.5500 C   0  0  0  0  0  0  0  0  0  0  0  0
  189.2760  177.8370  144.4290 C   0  0  0  0  0  0  0  0  0  0  0  0
  187.9020  178.0670  139.7690 C   0  0  0  0  0  0  0  0  0  0  0  0
  188.0760  177.0320  143.9820 C   0  0  0  0  0  2  0  0  0  0  0  0
  186.6470  178.2640  140.5590 C   0  0  0  0  0  2  0  0  0  0  0  0
  188.2030  178.9300  138.7900 C   0  0  0  0  0  3  0  0  0  0  0  0
  190.0260  178.1090  142.0690 C   0  0  0  0  0  2  0  0  0  0  0  0
  186.9640  178.2990  142.0580 C   0  0  1  0  0  3  0  0  0  0  0  0
  189.4280  178.7750  137.9390 C   0  0  0  0  0  2  0  0  0  0  0  0
  191.8520  178.8130  144.0640 S   0  0  0  0  0  1  0  0  0  0  0  0
  185.6660  178.4210  142.8550 C   0  0  0  0  0  2  0  0  0  0  0  0
  184.6270  178.8910  142.0520 O   0  0  0  0  0  1  0  0  0  0  0  0
  188.9590  175.2450  138.0050 O   0  0  0  0  0  0  0  0  0  0  0  0
  190.0410  175.7130  138.3270 C   0  0  0  0  0  0  0  0  0  0  0  0
  193.8650  174.1240  136.7110 S   0  0  0  0  0  0  0  0  0  0  0  0
  193.2730  175.7710  136.1580 C   0  0  0  0  0  2  0  0  0  0  0  0
  192.3040  173.2340  136.3700 C   0  0  1  0  0  3  0  0  0  0  0  0
  191.3050  175.1960  137.7060 C   0  0  1  0  0  3  0  0  0  0  0  0
  191.1300  173.7530  137.2150 C   0  0  0  0  0  2  0  0  0  0  0  0
  191.8670  176.1500  136.6390 C   0  0  2  0  0  3  0  0  0  0  0  0
  190.9410  176.3280  135.4430 C   0  0  0  0  0  1  0  0  0  0  0  0
  191.9760  173.2460  134.8790 C   0  0  0  0  0  2  0  0  0  0  0  0
  190.5320  171.3500  134.8220 F   0  0  0  0  0  0  0  0  0  0  0  0
  190.5720  172.7190  134.6260 C   0  0  0  0  0  2  0  0  0  0  0  0
  189.3510  178.0850  145.8100 O   0  0  0  0  0  0  0  0  0  0  0  0
  189.0560  177.1310  146.8240 C   0  0  0  0  0  2  0  0  0  0  0  0
  188.6580  177.8360  148.1070 C   0  0  0  0  0  1  0  0  0  0  0  0
  1 19  1  6  0  0  0
  1  4  1  0  0  0  0
  2 12  1  6  0  0  0
  2  5  1  0  0  0  0
  3  1  1  0  0  0  0
  4  8  1  6  0  0  0
  4  2  1  0  0  0  0
  5  9  1  1  0  0  0
  6 15  1  0  0  0  0
  6  7  2  0  0  0  0
  7 30  1  0  0  0  0
  8 10  1  0  0  0  0
  9  7  1  0  0  0  0
 10 13  1  0  0  0  0
 11  8  2  0  0  0  0
 12  6  1  0  0  0  0
 13  5  1  0  0  0  0
 13 16  1  1  0  0  0
 14  3  1  0  0  0  0
 14 11  1  0  0  0  0
 17 16  1  0  0  0  0
 18 19  2  0  0  0  0
 21 25  1  0  0  0  0
 21 20  1  0  0  0  0
 22 27  1  6  0  0  0
 22 20  1  0  0  0  0
 22 24  1  0  0  0  0
 23 19  1  6  0  0  0
 24 23  1  0  0  0  0
 25 26  1  6  0  0  0
 25 23  1  0  0  0  0
 29 28  1  0  0  0  0
 29 27  1  0  0  0  0
 30 31  1  0  0  0  0
 31 32  1  0  0  0  0
M  END
>  <MODEL>
5

>  <REMARK>
 VINA RESULT:      -4.9      3.906      4.802
  Name = 
  7 active torsions:
  status: ('A' for Active; 'I' for Inactive)
    1  A    between atoms: C_1  and  C_27
    2  A    between atoms: C_7  and  C_15
    3  A    between atoms: C_7  and  C_26
    4  A    between atoms: C_9  and  O_11
    5  A    between atoms: O_11  and  C_12
    6  A    between atoms: C_13  and  C_29
    7  A    between atoms: C_16  and  C_27
                            x       y       z     vdW  Elec       q    Type
                         _______ _______ _______ _____ _____    ______ ____

>  <TORSDO>
F 7

$$$$
=
 OpenBabel10262421023D

 32 35  0  0  1  0  0  0  0  0999 V2000
  188.5700  177.6280  138.2650 C   0  0  1  0  0  3  0  0  0  0  0  0
  186.3470  176.4290  137.8950 C   0  0  2  0  0  3  0  0  0  0  0  0
  188.7700  178.9210  137.4680 C   0  0  0  0  0  2  0  0  0  0  0  0
  187.8230  176.5350  137.4740 C   0  0  1  0  0  3  0  0  0  0  0  0
  185.6340  175.3290  137.0930 C   0  0  1  0  0  3  0  0  0  0  0  0
  184.1450  177.6500  138.0260 C   0  0  0  0  0  0  0  0  0  0  0  0
  183.4580  176.5010  137.8220 C   0  0  0  0  0  0  0  0  0  0  0  0
  187.9510  176.6310  135.9640 C   0  0  0  0  0  0  0  0  0  0  0  0
  184.1760  175.1960  137.5570 C   0  0  0  0  0  2  0  0  0  0  0  0
  187.2120  175.6310  135.1340 C   0  0  0  0  0  2  0  0  0  0  0  0
  188.6390  177.6070  135.3570 C   0  0  0  0  0  3  0  0  0  0  0  0
  185.6070  177.7550  137.7090 C   0  0  0  0  0  2  0  0  0  0  0  0
  185.7440  175.5610  135.5690 C   0  0  1  0  0  3  0  0  0  0  0  0
  189.4280  178.6250  136.1260 C   0  0  0  0  0  2  0  0  0  0  0  0
  183.3930  179.1300  138.7190 S   0  0  0  0  0  1  0  0  0  0  0  0
  185.0210  174.4800  134.7680 C   0  0  0  0  0  2  0  0  0  0  0  0
  185.7170  173.2710  134.8150 O   0  0  0  0  0  1  0  0  0  0  0  0
  190.8460  176.9850  138.1530 O   0  0  0  0  0  0  0  0  0  0  0  0
  189.8520  177.1150  138.8540 C   0  0  0  0  0  0  0  0  0  0  0  0
  190.0680  175.8520  143.1100 S   0  0  0  0  0  0  0  0  0  0  0  0
  188.5840  176.7530  142.5160 C   0  0  0  0  0  2  0  0  0  0  0  0
  191.2910  177.0460  142.4620 C   0  0  1  0  0  3  0  0  0  0  0  0
  189.9030  176.7650  140.3110 C   0  0  1  0  0  3  0  0  0  0  0  0
  191.2480  177.1670  140.9300 C   0  0  0  0  0  2  0  0  0  0  0  0
  188.6820  177.2930  141.0840 C   0  0  2  0  0  3  0  0  0  0  0  0
  188.5890  178.8140  141.0960 C   0  0  0  0  0  1  0  0  0  0  0  0
  191.1470  178.4070  143.1400 C   0  0  0  0  0  2  0  0  0  0  0  0
  190.1170  178.3640  145.2900 F   0  0  0  0  0  0  0  0  0  0  0  0
  191.3380  178.2880  144.6440 C   0  0  0  0  0  2  0  0  0  0  0  0
  182.0600  176.4060  137.9210 O   0  0  0  0  0  0  0  0  0  0  0  0
  181.3530  175.2510  138.3590 C   0  0  0  0  0  2  0  0  0  0  0  0
  180.5980  175.5520  139.6400 C   0  0  0  0  0  1  0  0  0  0  0  0
  1 19  1  6  0  0  0
  2 12  1  6  0  0  0
  3  1  1  0  0  0  0
  4  8  1  6  0  0  0
  4  2  1  0  0  0  0
  4  1  1  0  0  0  0
  5  9  1  1  0  0  0
  5  2  1  0  0  0  0
  6 15  1  0  0  0  0
  7 30  1  0  0  0  0
  7  6  2  0  0  0  0
  9  7  1  0  0  0  0
 10 13  1  0  0  0  0
 10  8  1  0  0  0  0
 11  8  2  0  0  0  0
 11 14  1  0  0  0  0
 12  6  1  0  0  0  0
 13 16  1  6  0  0  0
 13  5  1  0  0  0  0
 14  3  1  0  0  0  0
 16 17  1  0  0  0  0
 18 19  2  0  0  0  0
 21 20  1  0  0  0  0
 22 20  1  0  0  0  0
 22 27  1  1  0  0  0
 23 19  1  6  0  0  0
 23 24  1  0  0  0  0
 23 25  1  0  0  0  0
 24 22  1  0  0  0  0
 25 26  1  1  0  0  0
 25 21  1  0  0  0  0
 27 29  1  0  0  0  0
 29 28  1  0  0  0  0
 30 31  1  0  0  0  0
 31 32  1  0  0  0  0
M  END
>  <MODEL>
6

>  <REMARK>
 VINA RESULT:      -4.8      3.593      7.802
  Name = 
  7 active torsions:
  status: ('A' for Active; 'I' for Inactive)
    1  A    between atoms: C_1  and  C_27
    2  A    between atoms: C_7  and  C_15
    3  A    between atoms: C_7  and  C_26
    4  A    between atoms: C_9  and  O_11
    5  A    between atoms: O_11  and  C_12
    6  A    between atoms: C_13  and  C_29
    7  A    between atoms: C_16  and  C_27
                            x       y       z     vdW  Elec       q    Type
                         _______ _______ _______ _____ _____    ______ ____

>  <TORSDO>
F 7

$$$$
=
 OpenBabel10262421023D

 32 35  0  0  1  0  0  0  0  0999 V2000
  183.2740  178.3280  137.8750 C   0  0  1  0  0  3  0  0  0  0  0  0
  181.8240  180.4090  138.1660 C   0  0  2  0  0  3  0  0  0  0  0  0
  182.5420  177.0660  137.4080 C   0  0  0  0  0  2  0  0  0  0  0  0
  182.4470  179.1840  138.8560 C   0  0  1  0  0  3  0  0  0  0  0  0
  181.0130  181.2420  139.1710 C   0  0  1  0  0  3  0  0  0  0  0  0
  180.2340  181.1770  136.3660 C   0  0  0  0  0  0  0  0  0  0  0  0
  179.8880  182.2680  137.0920 C   0  0  0  0  0  0  0  0  0  0  0  0
  181.4040  178.4210  139.6540 C   0  0  0  0  0  0  0  0  0  0  0  0
  180.4390  182.4890  138.4830 C   0  0  0  0  0  2  0  0  0  0  0  0
  180.5330  179.1980  140.5900 C   0  0  0  0  0  2  0  0  0  0  0  0
  181.1940  177.1070  139.5020 C   0  0  0  0  0  3  0  0  0  0  0  0
  180.9240  180.0040  136.9960 C   0  0  0  0  0  2  0  0  0  0  0  0
  179.9180  180.4020  139.8670 C   0  0  1  0  0  3  0  0  0  0  0  0
  182.0470  176.2610  138.6040 C   0  0  0  0  0  2  0  0  0  0  0  0
  179.9370  181.0450  134.5970 S   0  0  0  0  0  1  0  0  0  0  0  0
  179.0970  181.2300  140.8530 C   0  0  0  0  0  2  0  0  0  0  0  0
  179.6160  181.1300  142.1450 O   0  0  0  0  0  1  0  0  0  0  0  0
  184.8290  177.9350  139.6160 O   0  0  0  0  0  0  0  0  0  0  0  0
  184.6430  178.0290  138.4110 C   0  0  0  0  0  0  0  0  0  0  0  0
  187.9990  177.7140  135.5120 S   0  0  0  0  0  0  0  0  0  0  0  0
  186.6540  176.4650  135.4670 C   0  0  0  0  0  2  0  0  0  0  0  0
  188.3380  177.5660  137.3030 C   0  0  1  0  0  3  0  0  0  0  0  0
  185.7830  177.8430  137.4540 C   0  0  1  0  0  3  0  0  0  0  0  0
  187.1340  177.9650  138.1700 C   0  0  0  0  0  2  0  0  0  0  0  0
  185.6400  176.5620  136.6140 C   0  0  2  0  0  3  0  0  0  0  0  0
  185.6770  175.2880  137.4480 C   0  0  0  0  0  1  0  0  0  0  0  0
  188.8510  176.1710  137.6540 C   0  0  0  0  0  2  0  0  0  0  0  0
  190.6970  177.5110  138.3420 F   0  0  0  0  0  0  0  0  0  0  0  0
  190.1410  176.2500  138.4540 C   0  0  0  0  0  2  0  0  0  0  0  0
  179.0780  183.3030  136.5960 O   0  0  0  0  0  0  0  0  0  0  0  0
  179.4920  184.6550  136.4410 C   0  0  0  0  0  2  0  0  0  0  0  0
  180.7310  184.7270  135.5680 C   0  0  0  0  0  1  0  0  0  0  0  0
  1 19  1  1  0  0  0
  1  4  1  0  0  0  0
  2 12  1  6  0  0  0
  2  4  1  0  0  0  0
  2  5  1  0  0  0  0
  3  1  1  0  0  0  0
  3 14  1  0  0  0  0
  4  8  1  6  0  0  0
  5  9  1  6  0  0  0
  5 13  1  0  0  0  0
  6 12  1  0  0  0  0
  6  7  2  0  0  0  0
  7  9  1  0  0  0  0
  8 10  1  0  0  0  0
 11  8  2  0  0  0  0
 13 10  1  0  0  0  0
 13 16  1  1  0  0  0
 14 11  1  0  0  0  0
 15  6  1  0  0  0  0
 16 17  1  0  0  0  0
 19 18  2  0  0  0  0
 20 22  1  0  0  0  0
 21 20  1  0  0  0  0
 21 25  1  0  0  0  0
 22 27  1  6  0  0  0
 22 24  1  0  0  0  0
 23 24  1  0  0  0  0
 23 19  1  1  0  0  0
 25 26  1  1  0  0  0
 25 23  1  0  0  0  0
 27 29  1  0  0  0  0
 28 29  1  0  0  0  0
 30  7  1  0  0  0  0
 31 30  1  0  0  0  0
 32 31  1  0  0  0  0
M  END
>  <MODEL>
7

>  <REMARK>
 VINA RESULT:      -4.8      6.170      9.013
  Name = 
  7 active torsions:
  status: ('A' for Active; 'I' for Inactive)
    1  A    between atoms: C_1  and  C_27
    2  A    between atoms: C_7  and  C_15
    3  A    between atoms: C_7  and  C_26
    4  A    between atoms: C_9  and  O_11
    5  A    between atoms: O_11  and  C_12
    6  A    between atoms: C_13  and  C_29
    7  A    between atoms: C_16  and  C_27
                            x       y       z     vdW  Elec       q    Type
                         _______ _______ _______ _____ _____    ______ ____

>  <TORSDO>
F 7

$$$$
=
 OpenBabel10262421023D

 32 35  0  0  1  0  0  0  0  0999 V2000
  184.4540  175.3020  136.7140 C   0  0  1  0  0  3  0  0  0  0  0  0
  186.9240  175.5060  137.3250 C   0  0  2  0  0  3  0  0  0  0  0  0
  184.1460  175.1730  135.2180 C   0  0  0  0  0  2  0  0  0  0  0  0
  185.6210  176.2630  137.0150 C   0  0  1  0  0  3  0  0  0  0  0  0
  188.0640  176.4920  137.6250 C   0  0  1  0  0  3  0  0  0  0  0  0
  188.6500  173.9100  136.4150 C   0  0  0  0  0  0  0  0  0  0  0  0
  189.6290  174.5030  137.1400 C   0  0  0  0  0  0  0  0  0  0  0  0
  185.8550  177.3400  135.9680 C   0  0  0  0  0  0  0  0  0  0  0  0
  189.3460  175.7250  137.9850 C   0  0  0  0  0  2  0  0  0  0  0  0
  187.0020  178.2770  136.1740 C   0  0  0  0  0  2  0  0  0  0  0  0
  185.1220  177.4350  134.8520 C   0  0  0  0  0  3  0  0  0  0  0  0
  187.3350  174.5880  136.1720 C   0  0  0  0  0  2  0  0  0  0  0  0
  188.2850  177.4900  136.4670 C   0  0  1  0  0  3  0  0  0  0  0  0
  183.9400  176.5480  134.5950 C   0  0  0  0  0  2  0  0  0  0  0  0
  188.8150  172.2620  135.7130 S   0  0  0  0  0  1  0  0  0  0  0  0
  189.4290  178.4610  136.7520 C   0  0  0  0  0  2  0  0  0  0  0  0
  189.0460  179.4290  137.6810 O   0  0  0  0  0  1  0  0  0  0  0  0
  182.2590  174.8940  137.5040 O   0  0  0  0  0  0  0  0  0  0  0  0
  183.2330  175.6340  137.5220 C   0  0  0  0  0  0  0  0  0  0  0  0
  183.4120  179.3890  139.8940 S   0  0  0  0  0  0  0  0  0  0  0  0
  183.0020  177.8120  140.7400 C   0  0  0  0  0  2  0  0  0  0  0  0
  182.1700  179.2220  138.5630 C   0  0  1  0  0  3  0  0  0  0  0  0
  183.2210  176.8810  138.3550 C   0  0  1  0  0  3  0  0  0  0  0  0
  182.4150  177.9940  137.6720 C   0  0  0  0  0  2  0  0  0  0  0  0
  182.7970  176.6100  139.8080 C   0  0  2  0  0  3  0  0  0  0  0  0
  181.3680  176.0960  139.9330 C   0  0  0  0  0  1  0  0  0  0  0  0
  180.7510  179.2370  139.1280 C   0  0  0  0  0  2  0  0  0  0  0  0
  180.9890  181.5920  138.8520 F   0  0  0  0  0  0  0  0  0  0  0  0
  180.3770  180.6230  139.6280 C   0  0  0  0  0  2  0  0  0  0  0  0
  190.9360  173.9980  137.2370 O   0  0  0  0  0  0  0  0  0  0  0  0
  192.0890  174.7780  137.5320 C   0  0  0  0  0  2  0  0  0  0  0  0
  192.5820  175.4800  136.2810 C   0  0  0  0  0  1  0  0  0  0  0  0
  1  4  1  0  0  0  0
  1 19  1  1  0  0  0
  2 12  1  6  0  0  0
  2  5  1  0  0  0  0
  3  1  1  0  0  0  0
  4  8  1  6  0  0  0
  4  2  1  0  0  0  0
  5  9  1  6  0  0  0
  6  7  2  0  0  0  0
  7 30  1  0  0  0  0
  7  9  1  0  0  0  0
  8 10  1  0  0  0  0
 10 13  1  0  0  0  0
 11  8  2  0  0  0  0
 12  6  1  0  0  0  0
 13 16  1  1  0  0  0
 13  5  1  0  0  0  0
 14 11  1  0  0  0  0
 14  3  1  0  0  0  0
 15  6  1  0  0  0  0
 16 17  1  0  0  0  0
 18 19  2  0  0  0  0
 20 21  1  0  0  0  0
 22 27  1  1  0  0  0
 22 20  1  0  0  0  0
 23 19  1  6  0  0  0
 23 25  1  0  0  0  0
 24 23  1  0  0  0  0
 24 22  1  0  0  0  0
 25 26  1  6  0  0  0
 25 21  1  0  0  0  0
 27 29  1  0  0  0  0
 28 29  1  0  0  0  0
 30 31  1  0  0  0  0
 32 31  1  0  0  0  0
M  END
>  <MODEL>
8

>  <REMARK>
 VINA RESULT:      -4.6      4.162      5.985
  Name = 
  7 active torsions:
  status: ('A' for Active; 'I' for Inactive)
    1  A    between atoms: C_1  and  C_27
    2  A    between atoms: C_7  and  C_15
    3  A    between atoms: C_7  and  C_26
    4  A    between atoms: C_9  and  O_11
    5  A    between atoms: O_11  and  C_12
    6  A    between atoms: C_13  and  C_29
    7  A    between atoms: C_16  and  C_27
                            x       y       z     vdW  Elec       q    Type
                         _______ _______ _______ _____ _____    ______ ____

>  <TORSDO>
F 7

$$$$
=
 OpenBabel10262421023D

 32 35  0  0  1  0  0  0  0  0999 V2000
  184.4550  177.0010  136.8810 C   0  0  1  0  0  3  0  0  0  0  0  0
  182.8910  177.5200  138.8310 C   0  0  2  0  0  3  0  0  0  0  0  0
  183.8520  177.1630  135.4820 C   0  0  0  0  0  2  0  0  0  0  0  0
  183.4600  176.4270  137.9100 C   0  0  1  0  0  3  0  0  0  0  0  0
  181.9090  176.9150  139.8470 C   0  0  1  0  0  3  0  0  0  0  0  0
  181.5450  179.6500  138.9180 C   0  0  0  0  0  0  0  0  0  0  0  0
  181.0520  179.3270  140.1380 C   0  0  0  0  0  0  0  0  0  0  0  0
  182.3460  175.5760  137.3240 C   0  0  0  0  0  0  0  0  0  0  0  0
  181.3880  178.0060  140.7930 C   0  0  0  0  0  2  0  0  0  0  0  0
  181.3190  175.0280  138.2620 C   0  0  0  0  0  2  0  0  0  0  0  0
  182.2170  175.3600  136.0090 C   0  0  0  0  0  3  0  0  0  0  0  0
  182.1870  178.6210  138.0360 C   0  0  0  0  0  2  0  0  0  0  0  0
  180.7630  176.1440  139.1530 C   0  0  1  0  0  3  0  0  0  0  0  0
  183.2260  175.8540  135.0150 C   0  0  0  0  0  2  0  0  0  0  0  0
  181.5110  181.3240  138.2610 S   0  0  0  0  0  1  0  0  0  0  0  0
  179.7740  175.5560  140.1580 C   0  0  0  0  0  2  0  0  0  0  0  0
  179.8960  174.1680  140.2280 O   0  0  0  0  0  1  0  0  0  0  0  0
  185.7760  175.0850  136.4430 O   0  0  0  0  0  0  0  0  0  0  0  0
  185.7450  176.2340  136.8620 C   0  0  0  0  0  0  0  0  0  0  0  0
  189.3760  178.1520  138.5640 S   0  0  0  0  0  0  0  0  0  0  0  0
  188.4820  178.9820  137.1930 C   0  0  0  0  0  2  0  0  0  0  0  0
  189.5170  176.5240  137.7450 C   0  0  1  0  0  3  0  0  0  0  0  0
  186.9980  176.8910  137.3600 C   0  0  1  0  0  3  0  0  0  0  0  0
  188.1500  175.8830  137.4590 C   0  0  0  0  0  2  0  0  0  0  0  0
  187.3500  178.1590  136.5640 C   0  0  2  0  0  3  0  0  0  0  0  0
  187.6620  177.8830  135.0990 C   0  0  0  0  0  1  0  0  0  0  0  0
  190.3750  176.6130  136.4840 C   0  0  0  0  0  2  0  0  0  0  0  0
  191.7800  175.2960  137.8880 F   0  0  0  0  0  0  0  0  0  0  0  0
  191.5780  175.6890  136.5780 C   0  0  0  0  0  2  0  0  0  0  0  0
  180.2780  180.2030  140.9170 O   0  0  0  0  0  0  0  0  0  0  0  0
  179.1950  179.8060  141.7510 C   0  0  0  0  0  2  0  0  0  0  0  0
  179.5210  180.0910  143.2050 C   0  0  0  0  0  1  0  0  0  0  0  0
  1 19  1  6  0  0  0
  1  4  1  0  0  0  0
  2 12  1  6  0  0  0
  2  5  1  0  0  0  0
  3  1  1  0  0  0  0
  4  8  1  6  0  0  0
  4  2  1  0  0  0  0
  5  9  1  6  0  0  0
  6  7  2  0  0  0  0
  7  9  1  0  0  0  0
  7 30  1  0  0  0  0
  8 10  1  0  0  0  0
 10 13  1  0  0  0  0
 11  8  2  0  0  0  0
 12  6  1  0  0  0  0
 13  5  1  0  0  0  0
 13 16  1  1  0  0  0
 14  3  1  0  0  0  0
 14 11  1  0  0  0  0
 15  6  1  0  0  0  0
 16 17  1  0  0  0  0
 18 19  2  0  0  0  0
 21 20  1  0  0  0  0
 22 27  1  6  0  0  0
 22 20  1  0  0  0  0
 23 19  1  6  0  0  0
 23 24  1  0  0  0  0
 24 22  1  0  0  0  0
 25 26  1  6  0  0  0
 25 21  1  0  0  0  0
 25 23  1  0  0  0  0
 27 29  1  0  0  0  0
 29 28  1  0  0  0  0
 30 31  1  0  0  0  0
 31 32  1  0  0  0  0
M  END
>  <MODEL>
9

>  <REMARK>
 VINA RESULT:      -4.6      4.895      7.798
  Name = 
  7 active torsions:
  status: ('A' for Active; 'I' for Inactive)
    1  A    between atoms: C_1  and  C_27
    2  A    between atoms: C_7  and  C_15
    3  A    between atoms: C_7  and  C_26
    4  A    between atoms: C_9  and  O_11
    5  A    between atoms: O_11  and  C_12
    6  A    between atoms: C_13  and  C_29
    7  A    between atoms: C_16  and  C_27
                            x       y       z     vdW  Elec       q    Type
                         _______ _______ _______ _____ _____    ______ ____

>  <TORSDO>
F 7

$$$$
