=
 OpenBabel10262420143D

 27 31  0  0  1  0  0  0  0  0999 V2000
  185.7410  178.3320  144.9540 N   0  0  0  0  0  2  0  0  0  0  0  0
  187.7170  177.9150  143.5450 C   0  0  0  0  0  0  0  0  0  0  0  0
  185.8010  178.0130  141.9380 N   0  0  0  0  0  2  0  0  0  0  0  0
  189.2700  178.2300  139.2250 N   0  0  0  0  0  0  0  0  0  0  0  0
  188.0460  178.4260  137.1860 C   0  0  0  0  0  3  0  0  0  0  0  0
  189.0930  177.8900  143.3630 C   0  0  0  0  0  3  0  0  0  0  0  0
  186.8530  178.3910  137.9080 C   0  0  0  0  0  3  0  0  0  0  0  0
  186.8860  178.2740  139.2980 C   0  0  0  0  0  3  0  0  0  0  0  0
  182.5790  178.9290  143.0360 C   0  0  0  0  0  0  0  0  0  0  0  0
  188.1210  178.1920  139.9590 C   0  0  0  0  0  0  0  0  0  0  0  0
  186.9610  177.5520  144.7800 C   0  0  1  0  0  3  0  0  0  0  0  0
  189.2580  178.3440  137.8710 C   0  0  0  0  0  3  0  0  0  0  0  0
  188.1980  178.0730  141.3910 N   0  0  0  0  0  0  0  0  0  0  0  0
  184.8040  178.5580  144.0820 C   0  0  0  0  0  0  0  0  0  0  0  0
  187.1890  178.0020  142.2840 C   0  0  0  0  0  0  0  0  0  0  0  0
  183.5140  178.4430  142.1280 C   0  0  0  0  0  3  0  0  0  0  0  0
  189.3490  178.0110  142.0430 N   0  0  0  0  0  0  0  0  0  0  0  0
  183.2920  179.1300  144.5410 S   0  0  0  0  0  0  0  0  0  0  0  0
  184.7770  178.2530  142.7060 C   0  0  0  0  0  0  0  0  0  0  0  0
  189.3240  177.7770  148.3650 C   0  0  0  0  0  3  0  0  0  0  0  0
  187.7990  177.6310  146.0210 C   0  0  0  0  0  0  0  0  0  0  0  0
  187.2690  178.2320  147.1680 C   0  0  0  0  0  3  0  0  0  0  0  0
  188.0300  178.3060  148.3380 C   0  0  0  0  0  3  0  0  0  0  0  0
  189.8570  177.1740  147.2240 C   0  0  0  0  0  3  0  0  0  0  0  0
  189.0970  177.0990  146.0530 C   0  0  0  0  0  3  0  0  0  0  0  0
  180.1800  178.6870  143.5300 C   0  0  0  0  0  1  0  0  0  0  0  0
  181.2450  179.2240  142.7590 O   0  0  0  0  0  0  0  0  0  0  0  0
  2 11  1  0  0  0  0
  3 15  1  0  0  0  0
  3 19  1  0  0  0  0
  4 10  1  0  0  0  0
  5 12  1  0  0  0  0
  5  7  2  0  0  0  0
  6  2  1  0  0  0  0
  7  8  1  0  0  0  0
  8 10  2  0  0  0  0
  9 18  1  0  0  0  0
 10 13  1  0  0  0  0
 11  1  1  0  0  0  0
 11 21  1  1  0  0  0
 12  4  2  0  0  0  0
 13 17  1  0  0  0  0
 13 15  1  0  0  0  0
 14 18  1  0  0  0  0
 14  1  1  0  0  0  0
 15  2  2  0  0  0  0
 16 19  1  0  0  0  0
 16  9  2  0  0  0  0
 17  6  2  0  0  0  0
 19 14  2  0  0  0  0
 21 25  2  0  0  0  0
 21 22  1  0  0  0  0
 22 23  2  0  0  0  0
 23 20  1  0  0  0  0
 24 20  2  0  0  0  0
 25 24  1  0  0  0  0
 27  9  1  0  0  0  0
 27 26  1  0  0  0  0
M  END
>  <MODEL>
1

>  <REMARK>
 VINA RESULT:     -10.0      0.000      0.000
  Name = 
  2 active torsions:
  status: ('A' for Active; 'I' for Inactive)
    1  A    between atoms: C_9  and  C_15
    2  A    between atoms: C_13  and  O_22
                            x       y       z     vdW  Elec       q    Type
                         _______ _______ _______ _____ _____    ______ ____

>  <TORSDO>
F 2

$$$$
=
 OpenBabel10262420143D

 27 31  0  0  1  0  0  0  0  0999 V2000
  189.8540  177.2050  142.9130 N   0  0  0  0  0  2  0  0  0  0  0  0
  187.8890  177.7250  144.3030 C   0  0  0  0  0  0  0  0  0  0  0  0
  187.1970  178.3280  141.9740 N   0  0  0  0  0  2  0  0  0  0  0  0
  183.3420  178.4020  144.1130 N   0  0  0  0  0  0  0  0  0  0  0  0
  181.9670  178.9390  142.2370 C   0  0  0  0  0  3  0  0  0  0  0  0
  187.1820  177.6150  145.4930 C   0  0  0  0  0  3  0  0  0  0  0  0
  183.0970  178.9330  141.4180 C   0  0  0  0  0  3  0  0  0  0  0  0
  184.3500  178.6590  141.9660 C   0  0  0  0  0  3  0  0  0  0  0  0
  189.2810  177.5840  139.2310 C   0  0  0  0  0  0  0  0  0  0  0  0
  184.4640  178.3910  143.3390 C   0  0  0  0  0  0  0  0  0  0  0  0
  189.3690  177.8330  144.1370 C   0  0  1  0  0  3  0  0  0  0  0  0
  182.1130  178.6670  143.5980 C   0  0  0  0  0  3  0  0  0  0  0  0
  185.7390  178.1010  143.9420 N   0  0  0  0  0  0  0  0  0  0  0  0
  189.4030  177.3540  141.7030 C   0  0  0  0  0  0  0  0  0  0  0  0
  186.9540  178.0590  143.3590 C   0  0  0  0  0  0  0  0  0  0  0  0
  188.1940  178.1710  139.8690 C   0  0  0  0  0  3  0  0  0  0  0  0
  185.8750  177.8280  145.2310 N   0  0  0  0  0  0  0  0  0  0  0  0
  190.3020  176.8850  140.3630 S   0  0  0  0  0  0  0  0  0  0  0  0
  188.2450  178.0260  141.2620 C   0  0  0  0  0  0  0  0  0  0  0  0
  191.5860  176.3200  147.4960 C   0  0  0  0  0  3  0  0  0  0  0  0
  190.1280  177.3050  145.3180 C   0  0  0  0  0  0  0  0  0  0  0  0
  191.2470  176.4930  145.1040 C   0  0  0  0  0  3  0  0  0  0  0  0
  191.9750  176.0000  146.1910 C   0  0  0  0  0  3  0  0  0  0  0  0
  190.4710  177.1320  147.7140 C   0  0  0  0  0  3  0  0  0  0  0  0
  189.7430  177.6260  146.6280 C   0  0  0  0  0  3  0  0  0  0  0  0
  189.1690  178.6510  137.0160 C   0  0  0  0  0  1  0  0  0  0  0  0
  189.5070  177.5570  137.8550 O   0  0  0  0  0  0  0  0  0  0  0  0
  1 11  1  0  0  0  0
  2  6  1  0  0  0  0
  3 15  1  0  0  0  0
  5 12  2  0  0  0  0
  7  8  2  0  0  0  0
  7  5  1  0  0  0  0
  8 10  1  0  0  0  0
  9 16  2  0  0  0  0
  9 18  1  0  0  0  0
 10 13  1  0  0  0  0
 10  4  2  0  0  0  0
 11  2  1  0  0  0  0
 11 21  1  1  0  0  0
 12  4  1  0  0  0  0
 13 17  1  0  0  0  0
 14  1  1  0  0  0  0
 15 13  1  0  0  0  0
 15  2  2  0  0  0  0
 16 19  1  0  0  0  0
 17  6  2  0  0  0  0
 18 14  1  0  0  0  0
 19 14  2  0  0  0  0
 19  3  1  0  0  0  0
 20 24  1  0  0  0  0
 21 25  1  0  0  0  0
 22 21  2  0  0  0  0
 22 23  1  0  0  0  0
 23 20  2  0  0  0  0
 25 24  2  0  0  0  0
 26 27  1  0  0  0  0
 27  9  1  0  0  0  0
M  END
>  <MODEL>
2

>  <REMARK>
 VINA RESULT:      -9.9      2.837      5.550
  Name = 
  2 active torsions:
  status: ('A' for Active; 'I' for Inactive)
    1  A    between atoms: C_9  and  C_15
    2  A    between atoms: C_13  and  O_22
                            x       y       z     vdW  Elec       q    Type
                         _______ _______ _______ _____ _____    ______ ____

>  <TORSDO>
F 2

$$$$
=
 OpenBabel10262420143D

 27 31  0  0  1  0  0  0  0  0999 V2000
  186.5580  178.1380  140.7380 N   0  0  0  0  0  2  0  0  0  0  0  0
  188.8840  177.6780  141.4010 C   0  0  0  0  0  0  0  0  0  0  0  0
  187.6900  178.1370  143.5520 N   0  0  0  0  0  2  0  0  0  0  0  0
  191.4960  176.4290  144.9770 N   0  0  0  0  0  0  0  0  0  0  0  0
  191.0060  176.5070  147.3120 C   0  0  0  0  0  3  0  0  0  0  0  0
  190.1510  177.1850  141.1190 C   0  0  0  0  0  3  0  0  0  0  0  0
  189.7490  177.0390  147.0210 C   0  0  0  0  0  3  0  0  0  0  0  0
  189.3790  177.2610  145.6950 C   0  0  0  0  0  3  0  0  0  0  0  0
  184.1910  178.5580  143.6100 C   0  0  0  0  0  0  0  0  0  0  0  0
  190.2760  176.9480  144.6620 C   0  0  0  0  0  0  0  0  0  0  0  0
  187.9680  178.4010  140.4720 C   0  0  1  0  0  3  0  0  0  0  0  0
  191.8760  176.2050  146.2630 C   0  0  0  0  0  3  0  0  0  0  0  0
  189.9300  177.1610  143.2810 N   0  0  0  0  0  0  0  0  0  0  0  0
  185.9350  178.1900  141.8780 C   0  0  0  0  0  0  0  0  0  0  0  0
  188.7940  177.6750  142.7680 C   0  0  0  0  0  0  0  0  0  0  0  0
  185.4760  178.5870  144.1410 C   0  0  0  0  0  3  0  0  0  0  0  0
  190.7490  176.8600  142.2840 N   0  0  0  0  0  0  0  0  0  0  0  0
  184.2580  178.2500  141.9630 S   0  0  0  0  0  0  0  0  0  0  0  0
  186.4630  178.3570  143.1730 C   0  0  0  0  0  0  0  0  0  0  0  0
  188.8020  177.6180  136.3270 C   0  0  0  0  0  3  0  0  0  0  0  0
  188.2730  178.1360  139.0270 C   0  0  0  0  0  0  0  0  0  0  0  0
  187.7910  176.9670  138.4290 C   0  0  0  0  0  3  0  0  0  0  0  0
  188.0560  176.7070  137.0820 C   0  0  0  0  0  3  0  0  0  0  0  0
  189.2830  178.7880  136.9190 C   0  0  0  0  0  3  0  0  0  0  0  0
  189.0180  179.0490  138.2660 C   0  0  0  0  0  3  0  0  0  0  0  0
  181.7600  178.9430  143.6700 C   0  0  0  0  0  1  0  0  0  0  0  0
  183.0060  178.7450  144.3220 O   0  0  0  0  0  0  0  0  0  0  0  0
  1 14  1  0  0  0  0
  2 15  2  0  0  0  0
  4 12  1  0  0  0  0
  6  2  1  0  0  0  0
  6 17  2  0  0  0  0
  7  5  1  0  0  0  0
  8  7  2  0  0  0  0
  9 16  2  0  0  0  0
  9 27  1  0  0  0  0
 10  4  2  0  0  0  0
 10  8  1  0  0  0  0
 11 21  1  6  0  0  0
 11  1  1  0  0  0  0
 11  2  1  0  0  0  0
 12  5  2  0  0  0  0
 13 10  1  0  0  0  0
 14 18  1  0  0  0  0
 14 19  2  0  0  0  0
 15 13  1  0  0  0  0
 15  3  1  0  0  0  0
 17 13  1  0  0  0  0
 18  9  1  0  0  0  0
 19  3  1  0  0  0  0
 19 16  1  0  0  0  0
 20 24  2  0  0  0  0
 20 23  1  0  0  0  0
 22 21  1  0  0  0  0
 23 22  2  0  0  0  0
 24 25  1  0  0  0  0
 25 21  2  0  0  0  0
 26 27  1  0  0  0  0
M  END
>  <MODEL>
3

>  <REMARK>
 VINA RESULT:      -9.5      1.727      6.359
  Name = 
  2 active torsions:
  status: ('A' for Active; 'I' for Inactive)
    1  A    between atoms: C_9  and  C_15
    2  A    between atoms: C_13  and  O_22
                            x       y       z     vdW  Elec       q    Type
                         _______ _______ _______ _____ _____    ______ ____

>  <TORSDO>
F 2

$$$$
=
 OpenBabel10262420143D

 27 31  0  0  1  0  0  0  0  0999 V2000
  188.8960  177.5740  143.1200 N   0  0  0  0  0  2  0  0  0  0  0  0
  186.5450  178.1400  143.5840 C   0  0  0  0  0  0  0  0  0  0  0  0
  186.8190  178.5310  141.1270 N   0  0  0  0  0  2  0  0  0  0  0  0
  182.4350  178.6520  141.5790 N   0  0  0  0  0  0  0  0  0  0  0  0
  181.9040  178.9910  139.2770 C   0  0  0  0  0  3  0  0  0  0  0  0
  185.4290  178.1040  144.4090 C   0  0  0  0  0  3  0  0  0  0  0  0
  183.2640  178.9560  138.9670 C   0  0  0  0  0  3  0  0  0  0  0  0
  184.2030  178.7680  139.9810 C   0  0  0  0  0  3  0  0  0  0  0  0
  189.8090  177.6370  139.4880 C   0  0  0  0  0  0  0  0  0  0  0  0
  183.7710  178.6150  141.3070 C   0  0  0  0  0  0  0  0  0  0  0  0
  187.9710  178.2820  143.9990 C   0  0  1  0  0  3  0  0  0  0  0  0
  181.5050  178.8350  140.6050 C   0  0  0  0  0  3  0  0  0  0  0  0
  184.7080  178.4160  142.3820 N   0  0  0  0  0  0  0  0  0  0  0  0
  188.9540  177.6110  141.8220 C   0  0  0  0  0  0  0  0  0  0  0  0
  186.0540  178.3660  142.3250 C   0  0  0  0  0  0  0  0  0  0  0  0
  188.5600  178.2380  139.5980 C   0  0  0  0  0  3  0  0  0  0  0  0
  184.3280  178.2520  143.6410 N   0  0  0  0  0  0  0  0  0  0  0  0
  190.3050  177.0650  140.9840 S   0  0  0  0  0  0  0  0  0  0  0  0
  188.0610  178.2070  140.9080 C   0  0  0  0  0  0  0  0  0  0  0  0
  188.6970  177.1190  148.0740 C   0  0  0  0  0  3  0  0  0  0  0  0
  188.2080  177.8760  145.4230 C   0  0  0  0  0  0  0  0  0  0  0  0
  189.3480  177.1300  145.7410 C   0  0  0  0  0  3  0  0  0  0  0  0
  189.5920  176.7510  147.0650 C   0  0  0  0  0  3  0  0  0  0  0  0
  187.5590  177.8670  147.7610 C   0  0  0  0  0  3  0  0  0  0  0  0
  187.3150  178.2470  146.4390 C   0  0  0  0  0  3  0  0  0  0  0  0
  191.3110  176.3390  138.0330 C   0  0  0  0  0  1  0  0  0  0  0  0
  190.5540  177.5060  138.3160 O   0  0  0  0  0  0  0  0  0  0  0  0
  1 11  1  0  0  0  0
  2 11  1  0  0  0  0
  2  6  1  0  0  0  0
  3 15  1  0  0  0  0
  5 12  1  0  0  0  0
  7  5  2  0  0  0  0
  7  8  1  0  0  0  0
  8 10  2  0  0  0  0
  9 16  2  0  0  0  0
  9 18  1  0  0  0  0
 10  4  1  0  0  0  0
 10 13  1  0  0  0  0
 11 21  1  1  0  0  0
 12  4  2  0  0  0  0
 13 17  1  0  0  0  0
 14  1  1  0  0  0  0
 15 13  1  0  0  0  0
 15  2  2  0  0  0  0
 16 19  1  0  0  0  0
 17  6  2  0  0  0  0
 18 14  1  0  0  0  0
 19  3  1  0  0  0  0
 19 14  2  0  0  0  0
 21 22  2  0  0  0  0
 21 25  1  0  0  0  0
 22 23  1  0  0  0  0
 23 20  2  0  0  0  0
 24 20  1  0  0  0  0
 25 24  2  0  0  0  0
 26 27  1  0  0  0  0
 27  9  1  0  0  0  0
M  END
>  <MODEL>
4

>  <REMARK>
 VINA RESULT:      -9.2      3.057      5.373
  Name = 
  2 active torsions:
  status: ('A' for Active; 'I' for Inactive)
    1  A    between atoms: C_9  and  C_15
    2  A    between atoms: C_13  and  O_22
                            x       y       z     vdW  Elec       q    Type
                         _______ _______ _______ _____ _____    ______ ____

>  <TORSDO>
F 2

$$$$
=
 OpenBabel10262420143D

 27 31  0  0  1  0  0  0  0  0999 V2000
  186.3030  178.5200  140.2530 N   0  0  0  0  0  2  0  0  0  0  0  0
  185.3830  178.4290  142.5350 C   0  0  0  0  0  0  0  0  0  0  0  0
  187.7280  177.5850  142.7630 N   0  0  0  0  0  2  0  0  0  0  0  0
  186.5940  178.2530  146.9700 N   0  0  0  0  0  0  0  0  0  0  0  0
  188.6770  177.6160  147.9480 C   0  0  0  0  0  3  0  0  0  0  0  0
  184.4200  178.7850  143.4700 C   0  0  0  0  0  3  0  0  0  0  0  0
  189.1920  177.3770  146.6740 C   0  0  0  0  0  3  0  0  0  0  0  0
  188.3900  177.5820  145.5510 C   0  0  0  0  0  3  0  0  0  0  0  0
  189.9490  177.6910  140.0280 C   0  0  0  0  0  0  0  0  0  0  0  0
  187.0690  178.0270  145.7130 C   0  0  0  0  0  0  0  0  0  0  0  0
  185.1720  178.1310  141.0880 C   0  0  1  0  0  3  0  0  0  0  0  0
  187.3590  178.0590  148.0770 C   0  0  0  0  0  3  0  0  0  0  0  0
  186.2110  178.2520  144.5790 N   0  0  0  0  0  0  0  0  0  0  0  0
  187.5620  178.2530  140.4360 C   0  0  0  0  0  0  0  0  0  0  0  0
  186.4830  178.0730  143.2700 C   0  0  0  0  0  0  0  0  0  0  0  0
  189.5330  177.3280  141.3040 C   0  0  0  0  0  3  0  0  0  0  0  0
  184.9660  178.6870  144.7000 N   0  0  0  0  0  0  0  0  0  0  0  0
  188.6870  178.4230  139.1990 S   0  0  0  0  0  0  0  0  0  0  0  0
  188.1940  177.6620  141.5490 C   0  0  0  0  0  0  0  0  0  0  0  0
  181.5680  179.8520  139.4940 C   0  0  0  0  0  3  0  0  0  0  0  0
  183.9080  178.7300  140.5470 C   0  0  0  0  0  0  0  0  0  0  0  0
  183.9780  179.6130  139.4640 C   0  0  0  0  0  3  0  0  0  0  0  0
  182.8100  180.1740  138.9380 C   0  0  0  0  0  3  0  0  0  0  0  0
  181.4930  178.9700  140.5740 C   0  0  0  0  0  3  0  0  0  0  0  0
  182.6600  178.4070  141.1000 C   0  0  0  0  0  3  0  0  0  0  0  0
  192.3870  177.5030  140.3090 C   0  0  0  0  0  1  0  0  0  0  0  0
  191.2230  177.4980  139.4950 O   0  0  0  0  0  0  0  0  0  0  0  0
  1 14  1  0  0  0  0
  1 11  1  0  0  0  0
  2 15  2  0  0  0  0
  2  6  1  0  0  0  0
  3 15  1  0  0  0  0
  4 12  1  0  0  0  0
  5 12  2  0  0  0  0
  6 17  2  0  0  0  0
  7  5  1  0  0  0  0
  8 10  1  0  0  0  0
  8  7  2  0  0  0  0
  9 16  2  0  0  0  0
 10  4  2  0  0  0  0
 11 21  1  6  0  0  0
 11  2  1  0  0  0  0
 13 17  1  0  0  0  0
 13 10  1  0  0  0  0
 14 19  2  0  0  0  0
 15 13  1  0  0  0  0
 16 19  1  0  0  0  0
 18  9  1  0  0  0  0
 18 14  1  0  0  0  0
 19  3  1  0  0  0  0
 20 24  1  0  0  0  0
 21 25  1  0  0  0  0
 22 21  2  0  0  0  0
 23 22  1  0  0  0  0
 23 20  2  0  0  0  0
 24 25  2  0  0  0  0
 27  9  1  0  0  0  0
 27 26  1  0  0  0  0
M  END
>  <MODEL>
5

>  <REMARK>
 VINA RESULT:      -9.2      3.130      7.704
  Name = 
  2 active torsions:
  status: ('A' for Active; 'I' for Inactive)
    1  A    between atoms: C_9  and  C_15
    2  A    between atoms: C_13  and  O_22
                            x       y       z     vdW  Elec       q    Type
                         _______ _______ _______ _____ _____    ______ ____

>  <TORSDO>
F 2

$$$$
=
 OpenBabel10262420143D

 27 31  0  0  1  0  0  0  0  0999 V2000
  190.1280  177.5690  141.3810 N   0  0  0  0  0  2  0  0  0  0  0  0
  187.7130  177.9340  141.0710 C   0  0  0  0  0  0  0  0  0  0  0  0
  187.9810  177.5120  143.5230 N   0  0  0  0  0  2  0  0  0  0  0  0
  183.8600  179.0630  143.3170 N   0  0  0  0  0  0  0  0  0  0  0  0
  183.3940  178.9930  145.6580 C   0  0  0  0  0  3  0  0  0  0  0  0
  186.6420  178.3790  140.3080 C   0  0  0  0  0  3  0  0  0  0  0  0
  184.6830  178.5120  145.8910 C   0  0  0  0  0  3  0  0  0  0  0  0
  185.5530  178.3110  144.8190 C   0  0  0  0  0  3  0  0  0  0  0  0
  191.1880  177.2270  144.9570 C   0  0  0  0  0  0  0  0  0  0  0  0
  185.1240  178.5930  143.5140 C   0  0  0  0  0  0  0  0  0  0  0  0
  188.9480  177.2520  140.5850 C   0  0  1  0  0  3  0  0  0  0  0  0
  182.9970  179.2660  144.3480 C   0  0  0  0  0  3  0  0  0  0  0  0
  185.9930  178.4010  142.3820 N   0  0  0  0  0  0  0  0  0  0  0  0
  190.2540  177.5360  142.6750 C   0  0  0  0  0  0  0  0  0  0  0  0
  187.2580  177.9350  142.3630 C   0  0  0  0  0  0  0  0  0  0  0  0
  189.8000  177.1460  144.9410 C   0  0  0  0  0  3  0  0  0  0  0  0
  185.6210  178.6750  141.1400 N   0  0  0  0  0  0  0  0  0  0  0  0
  191.7630  177.5410  143.4130 S   0  0  0  0  0  0  0  0  0  0  0  0
  189.2650  177.3420  143.6600 C   0  0  0  0  0  0  0  0  0  0  0  0
  189.7360  177.9510  136.4160 C   0  0  0  0  0  3  0  0  0  0  0  0
  189.2260  177.5110  139.1340 C   0  0  0  0  0  0  0  0  0  0  0  0
  189.7430  176.4810  138.3410 C   0  0  0  0  0  3  0  0  0  0  0  0
  189.9990  176.7010  136.9840 C   0  0  0  0  0  3  0  0  0  0  0  0
  189.2170  178.9820  137.2030 C   0  0  0  0  0  3  0  0  0  0  0  0
  188.9600  178.7640  138.5600 C   0  0  0  0  0  3  0  0  0  0  0  0
  191.8180  176.0320  147.0140 C   0  0  0  0  0  1  0  0  0  0  0  0
  192.0040  177.0840  146.0800 O   0  0  0  0  0  0  0  0  0  0  0  0
  1 14  1  0  0  0  0
  2 15  2  0  0  0  0
  3 19  1  0  0  0  0
  4 10  2  0  0  0  0
  4 12  1  0  0  0  0
  5  7  1  0  0  0  0
  6  2  1  0  0  0  0
  6 17  2  0  0  0  0
  8  7  2  0  0  0  0
  9 27  1  0  0  0  0
 10  8  1  0  0  0  0
 11 21  1  6  0  0  0
 11  2  1  0  0  0  0
 11  1  1  0  0  0  0
 12  5  2  0  0  0  0
 13 10  1  0  0  0  0
 14 18  1  0  0  0  0
 14 19  2  0  0  0  0
 15 13  1  0  0  0  0
 15  3  1  0  0  0  0
 16  9  2  0  0  0  0
 17 13  1  0  0  0  0
 18  9  1  0  0  0  0
 19 16  1  0  0  0  0
 20 23  2  0  0  0  0
 20 24  1  0  0  0  0
 22 21  2  0  0  0  0
 23 22  1  0  0  0  0
 24 25  2  0  0  0  0
 25 21  1  0  0  0  0
 27 26  1  0  0  0  0
M  END
>  <MODEL>
6

>  <REMARK>
 VINA RESULT:      -9.1      3.357      7.634
  Name = 
  2 active torsions:
  status: ('A' for Active; 'I' for Inactive)
    1  A    between atoms: C_9  and  C_15
    2  A    between atoms: C_13  and  O_22
                            x       y       z     vdW  Elec       q    Type
                         _______ _______ _______ _____ _____    ______ ____

>  <TORSDO>
F 2

$$$$
=
 OpenBabel10262420143D

 27 31  0  0  1  0  0  0  0  0999 V2000
  188.5440  177.5940  139.5840 N   0  0  0  0  0  2  0  0  0  0  0  0
  189.8220  177.1330  141.6390 C   0  0  0  0  0  0  0  0  0  0  0  0
  187.7650  178.3240  142.4240 N   0  0  0  0  0  2  0  0  0  0  0  0
  189.4080  176.7630  146.2060 N   0  0  0  0  0  0  0  0  0  0  0  0
  187.6850  177.5800  147.6420 C   0  0  0  0  0  3  0  0  0  0  0  0
  190.8310  176.4600  142.3130 C   0  0  0  0  0  3  0  0  0  0  0  0
  187.0290  178.1180  146.5350 C   0  0  0  0  0  3  0  0  0  0  0  0
  187.5790  177.9700  145.2620 C   0  0  0  0  0  3  0  0  0  0  0  0
  185.1550  179.0750  140.1770 C   0  0  0  0  0  0  0  0  0  0  0  0
  188.7910  177.2790  145.1050 C   0  0  0  0  0  0  0  0  0  0  0  0
  189.8510  177.6310  140.2320 C   0  0  1  0  0  3  0  0  0  0  0  0
  188.8880  176.8970  147.4550 C   0  0  0  0  0  3  0  0  0  0  0  0
  189.3900  177.1020  143.8080 N   0  0  0  0  0  0  0  0  0  0  0  0
  187.4120  178.0420  140.0400 C   0  0  0  0  0  0  0  0  0  0  0  0
  188.9510  177.5460  142.6120 C   0  0  0  0  0  0  0  0  0  0  0  0
  185.8380  179.1380  141.3870 C   0  0  0  0  0  3  0  0  0  0  0  0
  190.5230  176.4420  143.6280 N   0  0  0  0  0  0  0  0  0  0  0  0
  186.0900  178.2850  139.0310 S   0  0  0  0  0  0  0  0  0  0  0  0
  187.1030  178.5370  141.3230 C   0  0  0  0  0  0  0  0  0  0  0  0
  192.7150  175.5850  137.7620 C   0  0  0  0  0  3  0  0  0  0  0  0
  190.8620  176.9200  139.3820 C   0  0  0  0  0  0  0  0  0  0  0  0
  190.4350  175.9130  138.5080 C   0  0  0  0  0  3  0  0  0  0  0  0
  191.3600  175.2460  137.7000 C   0  0  0  0  0  3  0  0  0  0  0  0
  193.1460  176.5910  138.6310 C   0  0  0  0  0  3  0  0  0  0  0  0
  192.2210  177.2590  139.4390 C   0  0  0  0  0  3  0  0  0  0  0  0
  183.1140  179.1690  138.8060 C   0  0  0  0  0  1  0  0  0  0  0  0
  183.8770  179.5770  139.9310 O   0  0  0  0  0  0  0  0  0  0  0  0
  1 14  1  0  0  0  0
  1 11  1  0  0  0  0
  2  6  1  0  0  0  0
  2 15  2  0  0  0  0
  3 15  1  0  0  0  0
  4 12  1  0  0  0  0
  6 17  2  0  0  0  0
  7  5  1  0  0  0  0
  8  7  2  0  0  0  0
  9 16  2  0  0  0  0
 10  8  1  0  0  0  0
 10  4  2  0  0  0  0
 11 21  1  6  0  0  0
 11  2  1  0  0  0  0
 12  5  2  0  0  0  0
 13 10  1  0  0  0  0
 14 19  2  0  0  0  0
 15 13  1  0  0  0  0
 17 13  1  0  0  0  0
 18 14  1  0  0  0  0
 18  9  1  0  0  0  0
 19 16  1  0  0  0  0
 19  3  1  0  0  0  0
 20 24  1  0  0  0  0
 21 25  1  0  0  0  0
 22 21  2  0  0  0  0
 23 20  2  0  0  0  0
 23 22  1  0  0  0  0
 24 25  2  0  0  0  0
 26 27  1  0  0  0  0
 27  9  1  0  0  0  0
M  END
>  <MODEL>
7

>  <REMARK>
 VINA RESULT:      -9.0      2.745      6.609
  Name = 
  2 active torsions:
  status: ('A' for Active; 'I' for Inactive)
    1  A    between atoms: C_9  and  C_15
    2  A    between atoms: C_13  and  O_22
                            x       y       z     vdW  Elec       q    Type
                         _______ _______ _______ _____ _____    ______ ____

>  <TORSDO>
F 2

$$$$
=
 OpenBabel10262420143D

 27 31  0  0  1  0  0  0  0  0999 V2000
  189.8770  177.3870  141.0630 N   0  0  0  0  0  2  0  0  0  0  0  0
  187.9390  177.8790  142.5010 C   0  0  0  0  0  0  0  0  0  0  0  0
  187.2070  178.5410  140.2010 N   0  0  0  0  0  2  0  0  0  0  0  0
  183.3920  178.5750  142.4100 N   0  0  0  0  0  0  0  0  0  0  0  0
  181.9850  179.1620  140.5730 C   0  0  0  0  0  3  0  0  0  0  0  0
  187.2530  177.7420  143.7000 C   0  0  0  0  0  3  0  0  0  0  0  0
  183.1000  179.1730  139.7340 C   0  0  0  0  0  3  0  0  0  0  0  0
  184.3620  178.8810  140.2520 C   0  0  0  0  0  3  0  0  0  0  0  0
  189.2380  177.8570  137.4030 C   0  0  0  0  0  0  0  0  0  0  0  0
  184.5000  178.5790  141.6160 C   0  0  0  0  0  0  0  0  0  0  0  0
  189.4150  177.9850  142.3110 C   0  0  1  0  0  3  0  0  0  0  0  0
  182.1540  178.8570  141.9240 C   0  0  0  0  0  3  0  0  0  0  0  0
  185.7840  178.2700  142.1880 N   0  0  0  0  0  0  0  0  0  0  0  0
  189.4040  177.5670  139.8660 C   0  0  0  0  0  0  0  0  0  0  0  0
  186.9880  178.2380  141.5820 C   0  0  0  0  0  0  0  0  0  0  0  0
  188.1650  178.4330  138.0740 C   0  0  0  0  0  3  0  0  0  0  0  0
  185.9420  177.9660  143.4670 N   0  0  0  0  0  0  0  0  0  0  0  0
  190.2770  177.1280  138.4990 S   0  0  0  0  0  0  0  0  0  0  0  0
  188.2410  178.2530  139.4630 C   0  0  0  0  0  0  0  0  0  0  0  0
  191.6800  176.3650  145.5870 C   0  0  0  0  0  3  0  0  0  0  0  0
  190.1950  177.4270  143.4640 C   0  0  0  0  0  0  0  0  0  0  0  0
  190.9390  176.2560  143.2840 C   0  0  0  0  0  3  0  0  0  0  0  0
  191.6800  175.7250  144.3440 C   0  0  0  0  0  3  0  0  0  0  0  0
  190.9400  177.5360  145.7710 C   0  0  0  0  0  3  0  0  0  0  0  0
  190.1990  178.0680  144.7120 C   0  0  0  0  0  3  0  0  0  0  0  0
  189.6740  176.6690  135.2920 C   0  0  0  0  0  1  0  0  0  0  0  0
  189.4390  177.8630  136.0220 O   0  0  0  0  0  0  0  0  0  0  0  0
  1 11  1  0  0  0  0
  2  6  1  0  0  0  0
  3 15  1  0  0  0  0
  5 12  2  0  0  0  0
  7  8  2  0  0  0  0
  7  5  1  0  0  0  0
  8 10  1  0  0  0  0
  9 16  2  0  0  0  0
  9 18  1  0  0  0  0
 10 13  1  0  0  0  0
 10  4  2  0  0  0  0
 11  2  1  0  0  0  0
 11 21  1  1  0  0  0
 12  4  1  0  0  0  0
 13 17  1  0  0  0  0
 14  1  1  0  0  0  0
 15 13  1  0  0  0  0
 15  2  2  0  0  0  0
 16 19  1  0  0  0  0
 17  6  2  0  0  0  0
 18 14  1  0  0  0  0
 19 14  2  0  0  0  0
 19  3  1  0  0  0  0
 20 24  1  0  0  0  0
 21 25  1  0  0  0  0
 22 21  2  0  0  0  0
 22 23  1  0  0  0  0
 23 20  2  0  0  0  0
 25 24  2  0  0  0  0
 26 27  1  0  0  0  0
 27  9  1  0  0  0  0
M  END
>  <MODEL>
8

>  <REMARK>
 VINA RESULT:      -8.9      3.279      5.854
  Name = 
  2 active torsions:
  status: ('A' for Active; 'I' for Inactive)
    1  A    between atoms: C_9  and  C_15
    2  A    between atoms: C_13  and  O_22
                            x       y       z     vdW  Elec       q    Type
                         _______ _______ _______ _____ _____    ______ ____

>  <TORSDO>
F 2

$$$$
=
 OpenBabel10262420143D

 27 31  0  0  1  0  0  0  0  0999 V2000
  187.4600  177.8550  145.0560 N   0  0  0  0  0  2  0  0  0  0  0  0
  187.5150  178.1140  142.6080 C   0  0  0  0  0  0  0  0  0  0  0  0
  189.9130  177.8410  143.2710 N   0  0  0  0  0  2  0  0  0  0  0  0
  190.1190  177.3260  138.8970 N   0  0  0  0  0  0  0  0  0  0  0  0
  192.4640  176.9080  138.7530 C   0  0  0  0  0  3  0  0  0  0  0  0
  186.8780  178.1190  141.3740 C   0  0  0  0  0  3  0  0  0  0  0  0
  192.5610  177.0230  140.1400 C   0  0  0  0  0  3  0  0  0  0  0  0
  191.4200  177.2910  140.8960 C   0  0  0  0  0  3  0  0  0  0  0  0
  190.7790  177.0510  146.5950 C   0  0  0  0  0  0  0  0  0  0  0  0
  190.1820  177.4450  140.2540 C   0  0  0  0  0  0  0  0  0  0  0  0
  186.9730  178.6100  143.9070 C   0  0  1  0  0  3  0  0  0  0  0  0
  191.2190  177.0650  138.1430 C   0  0  0  0  0  3  0  0  0  0  0  0
  188.9810  177.7200  140.9980 N   0  0  0  0  0  0  0  0  0  0  0  0
  188.6870  177.5350  145.3420 C   0  0  0  0  0  0  0  0  0  0  0  0
  188.8370  177.8890  142.3280 C   0  0  0  0  0  0  0  0  0  0  0  0
  191.0280  177.4350  145.2820 C   0  0  0  0  0  3  0  0  0  0  0  0
  187.7960  177.8540  140.4210 N   0  0  0  0  0  0  0  0  0  0  0  0
  189.1270  177.0170  146.8790 S   0  0  0  0  0  0  0  0  0  0  0  0
  189.8510  177.6870  144.5630 C   0  0  0  0  0  0  0  0  0  0  0  0
  182.6790  178.8030  144.0150 C   0  0  0  0  0  3  0  0  0  0  0  0
  185.4750  178.6680  143.9310 C   0  0  0  0  0  0  0  0  0  0  0  0
  184.8160  178.8220  145.1550 C   0  0  0  0  0  3  0  0  0  0  0  0
  183.4200  178.8880  145.1980 C   0  0  0  0  0  3  0  0  0  0  0  0
  183.3330  178.6510  142.7900 C   0  0  0  0  0  3  0  0  0  0  0  0
  184.7290  178.5860  142.7460 C   0  0  0  0  0  3  0  0  0  0  0  0
  192.5280  175.5490  147.4560 C   0  0  0  0  0  1  0  0  0  0  0  0
  191.7420  176.7280  147.5510 O   0  0  0  0  0  0  0  0  0  0  0  0
  1 14  1  0  0  0  0
  2 11  1  0  0  0  0
  3 19  1  0  0  0  0
  4 10  1  0  0  0  0
  5  7  2  0  0  0  0
  6  2  1  0  0  0  0
  7  8  1  0  0  0  0
  9 18  1  0  0  0  0
  9 27  1  0  0  0  0
 10  8  2  0  0  0  0
 10 13  1  0  0  0  0
 11 21  1  6  0  0  0
 11  1  1  0  0  0  0
 12  5  1  0  0  0  0
 12  4  2  0  0  0  0
 13 15  1  0  0  0  0
 14 18  1  0  0  0  0
 15  2  2  0  0  0  0
 15  3  1  0  0  0  0
 16  9  2  0  0  0  0
 17 13  1  0  0  0  0
 17  6  2  0  0  0  0
 19 16  1  0  0  0  0
 19 14  2  0  0  0  0
 20 23  1  0  0  0  0
 21 22  1  0  0  0  0
 22 23  2  0  0  0  0
 24 20  2  0  0  0  0
 25 24  1  0  0  0  0
 25 21  2  0  0  0  0
 26 27  1  0  0  0  0
M  END
>  <MODEL>
9

>  <REMARK>
 VINA RESULT:      -8.8      3.185      5.821
  Name = 
  2 active torsions:
  status: ('A' for Active; 'I' for Inactive)
    1  A    between atoms: C_9  and  C_15
    2  A    between atoms: C_13  and  O_22
                            x       y       z     vdW  Elec       q    Type
                         _______ _______ _______ _____ _____    ______ ____

>  <TORSDO>
F 2

$$$$
