=
 OpenBabel10262420053D

 27 31  0  0  0  0  0  0  0  0999 V2000
  188.9000  176.7060  142.6290 O   0  0  0  0  0  0  0  0  0  0  0  0
  187.1740  177.7790  143.9620 C   0  0  0  0  0  0  0  0  0  0  0  0
  186.6120  178.2260  141.6000 C   0  0  0  0  0  3  0  0  0  0  0  0
  183.1540  178.7740  144.8640 C   0  0  0  0  0  3  0  0  0  0  0  0
  180.9380  179.2890  144.1580 F   0  0  0  0  0  0  0  0  0  0  0  0
  186.6970  177.9240  145.2810 C   0  0  0  0  0  3  0  0  0  0  0  0
  183.9390  178.5920  142.1930 C   0  0  0  0  0  3  0  0  0  0  0  0
  189.1100  178.5470  138.9080 C   0  0  0  0  0  0  0  0  0  0  0  0
  182.6140  178.8990  142.5130 C   0  0  0  0  0  3  0  0  0  0  0  0
  189.1660  179.1050  137.7820 O   0  0  0  0  0  0  0  0  0  0  0  0
  184.9000  178.3630  143.2030 C   0  0  0  0  0  0  0  0  0  0  0  0
  188.4340  177.2740  143.8170 C   0  0  0  0  0  0  0  0  0  0  0  0
  182.2220  178.9890  143.8480 C   0  0  0  0  0  0  0  0  0  0  0  0
  184.4790  178.4630  144.5490 C   0  0  0  0  0  0  0  0  0  0  0  0
  188.9520  177.3460  141.4020 C   0  0  0  0  0  0  0  0  0  0  0  0
  186.2610  178.0710  142.8910 C   0  0  0  0  0  0  0  0  0  0  0  0
  187.9970  178.6790  139.6770 N   0  0  0  0  0  2  0  0  0  0  0  0
  185.3860  178.2670  145.5750 C   0  0  0  0  0  3  0  0  0  0  0  0
  190.1840  177.7860  139.3640 C   0  0  0  0  0  3  0  0  0  0  0  0
  190.0950  177.1790  140.6160 C   0  0  0  0  0  3  0  0  0  0  0  0
  187.8940  178.1090  140.9100 C   0  0  0  0  0  0  0  0  0  0  0  0
  191.1140  176.8090  147.1430 C   0  0  0  0  0  3  0  0  0  0  0  0
  189.3800  177.1520  144.9600 C   0  0  0  0  0  0  0  0  0  0  0  0
  190.7540  176.9430  144.7530 C   0  0  0  0  0  3  0  0  0  0  0  0
  191.6170  176.7790  145.8390 C   0  0  0  0  0  3  0  0  0  0  0  0
  189.7460  176.9950  147.3580 C   0  0  0  0  0  3  0  0  0  0  0  0
  188.8830  177.1600  146.2710 C   0  0  0  0  0  3  0  0  0  0  0  0
  1 12  1  0  0  0  0
  2  6  1  0  0  0  0
  3 16  2  0  0  0  0
  6 18  2  0  0  0  0
  7  9  2  0  0  0  0
  7 11  1  0  0  0  0
  8 19  1  0  0  0  0
  8 17  1  0  0  0  0
  9 13  1  0  0  0  0
 10  8  2  0  0  0  0
 11 14  2  0  0  0  0
 12  2  2  0  0  0  0
 12 23  1  0  0  0  0
 13  5  1  0  0  0  0
 13  4  2  0  0  0  0
 14  4  1  0  0  0  0
 14 18  1  0  0  0  0
 15  1  1  0  0  0  0
 16 11  1  0  0  0  0
 16  2  1  0  0  0  0
 17 21  1  0  0  0  0
 19 20  2  0  0  0  0
 20 15  1  0  0  0  0
 21 15  2  0  0  0  0
 21  3  1  0  0  0  0
 22 26  1  0  0  0  0
 23 27  1  0  0  0  0
 24 23  2  0  0  0  0
 24 25  1  0  0  0  0
 25 22  2  0  0  0  0
 27 26  2  0  0  0  0
M  END
>  <MODEL>
1

>  <REMARK>
 VINA RESULT:     -12.6      0.000      0.000
  Name = 
  1 active torsions:
  status: ('A' for Active; 'I' for Inactive)
    1  A    between atoms: C_9  and  C_15
                            x       y       z     vdW  Elec       q    Type
                         _______ _______ _______ _____ _____    ______ ____

>  <TORSDO>
F 1

$$$$
=
 OpenBabel10262420053D

 27 31  0  0  0  0  0  0  0  0999 V2000
  187.1860  178.8010  141.6180 O   0  0  0  0  0  0  0  0  0  0  0  0
  187.5110  177.7900  143.8050 C   0  0  0  0  0  0  0  0  0  0  0  0
  189.5210  177.2480  142.4780 C   0  0  0  0  0  3  0  0  0  0  0  0
  189.8090  176.8480  147.2390 C   0  0  0  0  0  3  0  0  0  0  0  0
  191.8980  176.3130  148.2530 F   0  0  0  0  0  0  0  0  0  0  0  0
  186.9570  177.7020  145.0980 C   0  0  0  0  0  3  0  0  0  0  0  0
  191.0620  176.9160  144.7470 C   0  0  0  0  0  3  0  0  0  0  0  0
  189.5210  176.8060  138.8180 C   0  0  0  0  0  0  0  0  0  0  0  0
  191.8040  176.6270  145.8940 C   0  0  0  0  0  3  0  0  0  0  0  0
  190.2340  176.2020  137.9750 O   0  0  0  0  0  0  0  0  0  0  0  0
  189.6760  177.1830  144.8220 C   0  0  0  0  0  0  0  0  0  0  0  0
  186.7020  178.2850  142.8230 C   0  0  0  0  0  0  0  0  0  0  0  0
  191.1780  176.5940  147.1400 C   0  0  0  0  0  0  0  0  0  0  0  0
  189.0630  177.1420  146.0950 C   0  0  0  0  0  0  0  0  0  0  0  0
  187.9680  178.1110  140.7080 C   0  0  0  0  0  0  0  0  0  0  0  0
  188.9010  177.4580  143.6550 C   0  0  0  0  0  0  0  0  0  0  0  0
  189.8080  176.7100  140.1430 N   0  0  0  0  0  2  0  0  0  0  0  0
  187.7060  177.3760  146.2190 C   0  0  0  0  0  3  0  0  0  0  0  0
  188.4450  177.5810  138.3930 C   0  0  0  0  0  3  0  0  0  0  0  0
  187.6720  178.2400  139.3480 C   0  0  0  0  0  3  0  0  0  0  0  0
  189.0570  177.3310  141.0960 C   0  0  0  0  0  0  0  0  0  0  0  0
  182.4830  178.8890  143.3650 C   0  0  0  0  0  3  0  0  0  0  0  0
  185.2340  178.4500  143.0080 C   0  0  0  0  0  0  0  0  0  0  0  0
  184.3350  178.2350  141.9500 C   0  0  0  0  0  3  0  0  0  0  0  0
  182.9650  178.4470  142.1300 C   0  0  0  0  0  3  0  0  0  0  0  0
  183.3720  179.1270  144.4160 C   0  0  0  0  0  3  0  0  0  0  0  0
  184.7420  178.9140  144.2360 C   0  0  0  0  0  3  0  0  0  0  0  0
  1 12  1  0  0  0  0
  2  6  1  0  0  0  0
  3 16  2  0  0  0  0
  6 18  2  0  0  0  0
  7 11  2  0  0  0  0
  7  9  1  0  0  0  0
  8 17  1  0  0  0  0
  9 13  2  0  0  0  0
 10  8  2  0  0  0  0
 11 14  1  0  0  0  0
 12 23  1  0  0  0  0
 12  2  2  0  0  0  0
 13  4  1  0  0  0  0
 13  5  1  0  0  0  0
 14 18  1  0  0  0  0
 14  4  2  0  0  0  0
 15 21  2  0  0  0  0
 15  1  1  0  0  0  0
 16  2  1  0  0  0  0
 16 11  1  0  0  0  0
 17 21  1  0  0  0  0
 19  8  1  0  0  0  0
 19 20  2  0  0  0  0
 20 15  1  0  0  0  0
 21  3  1  0  0  0  0
 22 26  1  0  0  0  0
 23 27  1  0  0  0  0
 24 25  1  0  0  0  0
 24 23  2  0  0  0  0
 25 22  2  0  0  0  0
 27 26  2  0  0  0  0
M  END
>  <MODEL>
2

>  <REMARK>
 VINA RESULT:     -12.3      2.606      5.839
  Name = 
  1 active torsions:
  status: ('A' for Active; 'I' for Inactive)
    1  A    between atoms: C_9  and  C_15
                            x       y       z     vdW  Elec       q    Type
                         _______ _______ _______ _____ _____    ______ ____

>  <TORSDO>
F 1

$$$$
=
 OpenBabel10262420053D

 27 31  0  0  0  0  0  0  0  0999 V2000
  187.0970  178.9880  140.5870 O   0  0  0  0  0  0  0  0  0  0  0  0
  186.3540  178.2860  142.7930 C   0  0  0  0  0  0  0  0  0  0  0  0
  188.7220  177.6110  142.6050 C   0  0  0  0  0  3  0  0  0  0  0  0
  186.8070  177.8590  146.9850 C   0  0  0  0  0  3  0  0  0  0  0  0
  188.1860  177.5070  148.8960 F   0  0  0  0  0  0  0  0  0  0  0  0
  185.2720  178.3600  143.6930 C   0  0  0  0  0  3  0  0  0  0  0  0
  189.0530  177.6170  145.3480 C   0  0  0  0  0  3  0  0  0  0  0  0
  190.3590  176.6830  139.4350 C   0  0  0  0  0  0  0  0  0  0  0  0
  189.1830  177.5000  146.7330 C   0  0  0  0  0  3  0  0  0  0  0  0
  191.3490  175.9850  139.0930 O   0  0  0  0  0  0  0  0  0  0  0  0
  187.7970  177.8640  144.7500 C   0  0  0  0  0  0  0  0  0  0  0  0
  186.0990  178.6280  141.4960 C   0  0  0  0  0  0  0  0  0  0  0  0
  188.0600  177.6220  147.5520 C   0  0  0  0  0  0  0  0  0  0  0  0
  186.6730  177.9810  145.6000 C   0  0  0  0  0  0  0  0  0  0  0  0
  188.1760  178.1970  140.2280 C   0  0  0  0  0  0  0  0  0  0  0  0
  187.6460  177.9640  143.3340 C   0  0  0  0  0  0  0  0  0  0  0  0
  190.0100  176.7710  140.7460 N   0  0  0  0  0  2  0  0  0  0  0  0
  185.4180  178.2030  145.0620 C   0  0  0  0  0  3  0  0  0  0  0  0
  189.6250  177.3720  138.4720 C   0  0  0  0  0  3  0  0  0  0  0  0
  188.5330  178.1370  138.8790 C   0  0  0  0  0  3  0  0  0  0  0  0
  188.9370  177.4990  141.1650 C   0  0  0  0  0  0  0  0  0  0  0  0
  182.1320  179.0030  139.8890 C   0  0  0  0  0  3  0  0  0  0  0  0
  184.7150  178.7870  140.9710 C   0  0  0  0  0  0  0  0  0  0  0  0
  183.6060  178.2810  141.6680 C   0  0  0  0  0  3  0  0  0  0  0  0
  182.3200  178.3940  141.1330 C   0  0  0  0  0  3  0  0  0  0  0  0
  183.2310  179.4910  139.1780 C   0  0  0  0  0  3  0  0  0  0  0  0
  184.5180  179.3780  139.7140 C   0  0  0  0  0  3  0  0  0  0  0  0
  1 12  1  0  0  0  0
  2 16  1  0  0  0  0
  2  6  1  0  0  0  0
  3 16  2  0  0  0  0
  4 13  1  0  0  0  0
  6 18  2  0  0  0  0
  7  9  1  0  0  0  0
  8 17  1  0  0  0  0
  9 13  2  0  0  0  0
 10  8  2  0  0  0  0
 11  7  2  0  0  0  0
 11 14  1  0  0  0  0
 12  2  2  0  0  0  0
 13  5  1  0  0  0  0
 14  4  2  0  0  0  0
 15  1  1  0  0  0  0
 15 21  2  0  0  0  0
 16 11  1  0  0  0  0
 17 21  1  0  0  0  0
 18 14  1  0  0  0  0
 19 20  2  0  0  0  0
 19  8  1  0  0  0  0
 20 15  1  0  0  0  0
 21  3  1  0  0  0  0
 22 25  1  0  0  0  0
 23 12  1  0  0  0  0
 23 24  1  0  0  0  0
 25 24  2  0  0  0  0
 26 27  1  0  0  0  0
 26 22  2  0  0  0  0
 27 23  2  0  0  0  0
M  END
>  <MODEL>
3

>  <REMARK>
 VINA RESULT:     -11.5      2.429      5.713
  Name = 
  1 active torsions:
  status: ('A' for Active; 'I' for Inactive)
    1  A    between atoms: C_9  and  C_15
                            x       y       z     vdW  Elec       q    Type
                         _______ _______ _______ _____ _____    ______ ____

>  <TORSDO>
F 1

$$$$
=
 OpenBabel10262420053D

 27 31  0  0  0  0  0  0  0  0999 V2000
  189.8050  178.4830  142.9140 O   0  0  0  0  0  0  0  0  0  0  0  0
  187.4690  178.1030  142.3560 C   0  0  0  0  0  0  0  0  0  0  0  0
  187.6370  177.9320  144.8130 C   0  0  0  0  0  3  0  0  0  0  0  0
  183.3030  178.6510  142.9120 C   0  0  0  0  0  3  0  0  0  0  0  0
  181.4320  179.0030  144.3440 F   0  0  0  0  0  0  0  0  0  0  0  0
  186.5490  178.1240  141.2880 C   0  0  0  0  0  3  0  0  0  0  0  0
  184.9710  178.5710  145.1470 C   0  0  0  0  0  3  0  0  0  0  0  0
  190.6380  176.7520  146.6000 C   0  0  0  0  0  0  0  0  0  0  0  0
  183.5970  178.7700  145.3070 C   0  0  0  0  0  3  0  0  0  0  0  0
  190.8840  176.2300  147.7180 O   0  0  0  0  0  0  0  0  0  0  0  0
  185.5420  178.4130  143.8650 C   0  0  0  0  0  0  0  0  0  0  0  0
  188.7940  178.1090  142.0250 C   0  0  0  0  0  0  0  0  0  0  0  0
  182.7650  178.8110  144.1890 C   0  0  0  0  0  0  0  0  0  0  0  0
  184.6770  178.4550  142.7470 C   0  0  0  0  0  0  0  0  0  0  0  0
  190.0530  177.8880  144.1390 C   0  0  0  0  0  0  0  0  0  0  0  0
  186.9400  178.1860  143.6890 C   0  0  0  0  0  0  0  0  0  0  0  0
  189.3550  177.0290  146.2460 N   0  0  0  0  0  2  0  0  0  0  0  0
  185.1840  178.2860  141.4710 C   0  0  0  0  0  3  0  0  0  0  0  0
  191.6810  177.0540  145.7270 C   0  0  0  0  0  3  0  0  0  0  0  0
  191.3800  177.6320  144.4950 C   0  0  0  0  0  3  0  0  0  0  0  0
  189.0360  177.5770  145.0410 C   0  0  0  0  0  0  0  0  0  0  0  0
  190.1000  177.2660  138.0190 C   0  0  0  0  0  3  0  0  0  0  0  0
  189.2700  177.8550  140.6370 C   0  0  0  0  0  0  0  0  0  0  0  0
  188.8180  178.6280  139.5550 C   0  0  0  0  0  3  0  0  0  0  0  0
  189.2360  178.3390  138.2540 C   0  0  0  0  0  3  0  0  0  0  0  0
  190.5390  176.4780  139.0860 C   0  0  0  0  0  3  0  0  0  0  0  0
  190.1210  176.7680  140.3890 C   0  0  0  0  0  3  0  0  0  0  0  0
  1 15  1  0  0  0  0
  2 16  1  0  0  0  0
  3 21  1  0  0  0  0
  4 13  1  0  0  0  0
  6 18  2  0  0  0  0
  6  2  1  0  0  0  0
  7  9  1  0  0  0  0
  8 10  2  0  0  0  0
 11  7  2  0  0  0  0
 12  2  2  0  0  0  0
 12  1  1  0  0  0  0
 13  5  1  0  0  0  0
 13  9  2  0  0  0  0
 14  4  2  0  0  0  0
 14 11  1  0  0  0  0
 15 20  1  0  0  0  0
 15 21  2  0  0  0  0
 16 11  1  0  0  0  0
 16  3  2  0  0  0  0
 17  8  1  0  0  0  0
 18 14  1  0  0  0  0
 19  8  1  0  0  0  0
 20 19  2  0  0  0  0
 21 17  1  0  0  0  0
 22 25  2  0  0  0  0
 22 26  1  0  0  0  0
 23 12  1  0  0  0  0
 24 23  2  0  0  0  0
 25 24  1  0  0  0  0
 26 27  2  0  0  0  0
 27 23  1  0  0  0  0
M  END
>  <MODEL>
4

>  <REMARK>
 VINA RESULT:     -11.3      1.932      5.101
  Name = 
  1 active torsions:
  status: ('A' for Active; 'I' for Inactive)
    1  A    between atoms: C_9  and  C_15
                            x       y       z     vdW  Elec       q    Type
                         _______ _______ _______ _____ _____    ______ ____

>  <TORSDO>
F 1

$$$$
=
 OpenBabel10262420053D

 27 31  0  0  0  0  0  0  0  0999 V2000
  187.3660  176.8440  144.5690 O   0  0  0  0  0  0  0  0  0  0  0  0
  187.6670  177.7570  142.3360 C   0  0  0  0  0  0  0  0  0  0  0  0
  189.9030  177.0540  143.1110 C   0  0  0  0  0  3  0  0  0  0  0  0
  189.2710  177.7250  138.4130 C   0  0  0  0  0  3  0  0  0  0  0  0
  191.0380  177.2100  136.9010 F   0  0  0  0  0  0  0  0  0  0  0  0
  186.9650  178.2480  141.2170 C   0  0  0  0  0  3  0  0  0  0  0  0
  190.8290  176.7740  140.5230 C   0  0  0  0  0  3  0  0  0  0  0  0
  190.9630  177.0640  146.6420 C   0  0  0  0  0  0  0  0  0  0  0  0
  191.3310  176.7530  139.2200 C   0  0  0  0  0  3  0  0  0  0  0  0
  192.0550  177.1280  147.2630 O   0  0  0  0  0  0  0  0  0  0  0  0
  189.5340  177.2650  140.8000 C   0  0  0  0  0  0  0  0  0  0  0  0
  186.9660  177.6530  143.5040 C   0  0  0  0  0  0  0  0  0  0  0  0
  190.5510  177.2280  138.1650 C   0  0  0  0  0  0  0  0  0  0  0  0
  188.7630  177.7430  139.7150 C   0  0  0  0  0  0  0  0  0  0  0  0
  188.5760  176.9390  145.2360 C   0  0  0  0  0  0  0  0  0  0  0  0
  189.0170  177.3120  142.1300 C   0  0  0  0  0  0  0  0  0  0  0  0
  190.9480  177.1310  145.2840 N   0  0  0  0  0  2  0  0  0  0  0  0
  187.4960  178.2530  139.9360 C   0  0  0  0  0  3  0  0  0  0  0  0
  189.7690  176.9130  147.3430 C   0  0  0  0  0  3  0  0  0  0  0  0
  188.5740  176.8440  146.6300 C   0  0  0  0  0  3  0  0  0  0  0  0
  189.7910  177.0830  144.5670 C   0  0  0  0  0  0  0  0  0  0  0  0
  183.0580  179.3590  144.0350 C   0  0  0  0  0  3  0  0  0  0  0  0
  185.6300  178.2850  143.6900 C   0  0  0  0  0  0  0  0  0  0  0  0
  185.2480  178.8370  144.9240 C   0  0  0  0  0  3  0  0  0  0  0  0
  183.9710  179.3780  145.0930 C   0  0  0  0  0  3  0  0  0  0  0  0
  183.4220  178.7930  142.8110 C   0  0  0  0  0  3  0  0  0  0  0  0
  184.7000  178.2530  142.6410 C   0  0  0  0  0  3  0  0  0  0  0  0
  1 15  1  0  0  0  0
  2 12  2  0  0  0  0
  3 21  1  0  0  0  0
  4 14  1  0  0  0  0
  5 13  1  0  0  0  0
  6  2  1  0  0  0  0
  7 11  1  0  0  0  0
  8 10  2  0  0  0  0
  8 19  1  0  0  0  0
  9  7  2  0  0  0  0
 11 16  1  0  0  0  0
 12 23  1  0  0  0  0
 12  1  1  0  0  0  0
 13  4  2  0  0  0  0
 13  9  1  0  0  0  0
 14 18  1  0  0  0  0
 14 11  2  0  0  0  0
 15 20  1  0  0  0  0
 16  2  1  0  0  0  0
 16  3  2  0  0  0  0
 17  8  1  0  0  0  0
 18  6  2  0  0  0  0
 20 19  2  0  0  0  0
 21 15  2  0  0  0  0
 21 17  1  0  0  0  0
 22 25  1  0  0  0  0
 23 24  1  0  0  0  0
 24 25  2  0  0  0  0
 26 22  2  0  0  0  0
 27 26  1  0  0  0  0
 27 23  2  0  0  0  0
M  END
>  <MODEL>
5

>  <REMARK>
 VINA RESULT:     -10.8      3.231      6.904
  Name = 
  1 active torsions:
  status: ('A' for Active; 'I' for Inactive)
    1  A    between atoms: C_9  and  C_15
                            x       y       z     vdW  Elec       q    Type
                         _______ _______ _______ _____ _____    ______ ____

>  <TORSDO>
F 1

$$$$
=
 OpenBabel10262420053D

 27 31  0  0  0  0  0  0  0  0999 V2000
  187.0720  177.1630  142.0520 O   0  0  0  0  0  0  0  0  0  0  0  0
  189.2560  177.3290  143.1070 C   0  0  0  0  0  0  0  0  0  0  0  0
  187.5880  177.6470  144.8990 C   0  0  0  0  0  3  0  0  0  0  0  0
  192.0540  176.4910  146.1780 C   0  0  0  0  0  3  0  0  0  0  0  0
  192.5530  176.0740  148.4700 F   0  0  0  0  0  0  0  0  0  0  0  0
  190.6370  177.1780  142.8660 C   0  0  0  0  0  3  0  0  0  0  0  0
  189.3660  176.8230  146.8470 C   0  0  0  0  0  3  0  0  0  0  0  0
  184.2630  179.1530  144.3820 C   0  0  0  0  0  0  0  0  0  0  0  0
  190.3010  176.5260  147.8410 C   0  0  0  0  0  3  0  0  0  0  0  0
  183.4160  179.7520  145.0940 O   0  0  0  0  0  0  0  0  0  0  0  0
  189.7530  176.9540  145.4940 C   0  0  0  0  0  0  0  0  0  0  0  0
  188.4460  177.4080  142.0100 C   0  0  0  0  0  0  0  0  0  0  0  0
  191.6450  176.3600  147.5060 C   0  0  0  0  0  0  0  0  0  0  0  0
  191.1210  176.7840  145.1790 C   0  0  0  0  0  0  0  0  0  0  0  0
  186.1620  177.8410  142.8450 C   0  0  0  0  0  0  0  0  0  0  0  0
  188.8110  177.2790  144.4720 C   0  0  0  0  0  0  0  0  0  0  0  0
  185.4470  178.7580  144.9220 N   0  0  0  0  0  2  0  0  0  0  0  0
  191.5540  176.9220  143.8730 C   0  0  0  0  0  3  0  0  0  0  0  0
  183.9850  178.8850  143.0440 C   0  0  0  0  0  3  0  0  0  0  0  0
  184.9410  178.2180  142.2790 C   0  0  0  0  0  3  0  0  0  0  0  0
  186.4030  178.1210  144.1900 C   0  0  0  0  0  0  0  0  0  0  0  0
  189.9410  177.9150  138.0130 C   0  0  0  0  0  3  0  0  0  0  0  0
  188.9820  177.6220  140.6370 C   0  0  0  0  0  0  0  0  0  0  0  0
  188.4570  178.6140  139.7930 C   0  0  0  0  0  3  0  0  0  0  0  0
  188.9390  178.7650  138.4900 C   0  0  0  0  0  3  0  0  0  0  0  0
  190.4540  176.9110  138.8380 C   0  0  0  0  0  3  0  0  0  0  0  0
  189.9730  176.7610  140.1420 C   0  0  0  0  0  3  0  0  0  0  0  0
  1 15  1  0  0  0  0
  2 16  1  0  0  0  0
  4 13  1  0  0  0  0
  6  2  1  0  0  0  0
  6 18  2  0  0  0  0
  7  9  1  0  0  0  0
  8 17  1  0  0  0  0
  8 10  2  0  0  0  0
 11  7  2  0  0  0  0
 12  1  1  0  0  0  0
 12  2  2  0  0  0  0
 13  9  2  0  0  0  0
 13  5  1  0  0  0  0
 14 11  1  0  0  0  0
 14  4  2  0  0  0  0
 15 21  2  0  0  0  0
 16  3  2  0  0  0  0
 16 11  1  0  0  0  0
 18 14  1  0  0  0  0
 19  8  1  0  0  0  0
 20 15  1  0  0  0  0
 20 19  2  0  0  0  0
 21  3  1  0  0  0  0
 21 17  1  0  0  0  0
 22 25  2  0  0  0  0
 22 26  1  0  0  0  0
 23 12  1  0  0  0  0
 24 23  2  0  0  0  0
 25 24  1  0  0  0  0
 26 27  2  0  0  0  0
 27 23  1  0  0  0  0
M  END
>  <MODEL>
6

>  <REMARK>
 VINA RESULT:     -10.4      3.146      6.885
  Name = 
  1 active torsions:
  status: ('A' for Active; 'I' for Inactive)
    1  A    between atoms: C_9  and  C_15
                            x       y       z     vdW  Elec       q    Type
                         _______ _______ _______ _____ _____    ______ ____

>  <TORSDO>
F 1

$$$$
=
 OpenBabel10262420053D

 27 31  0  0  0  0  0  0  0  0999 V2000
  187.7770  178.6410  144.8480 O   0  0  0  0  0  0  0  0  0  0  0  0
  188.8940  177.5090  143.0100 C   0  0  0  0  0  0  0  0  0  0  0  0
  186.6970  178.2370  142.1500 C   0  0  0  0  0  3  0  0  0  0  0  0
  190.0900  177.1250  138.9620 C   0  0  0  0  0  3  0  0  0  0  0  0
  189.6770  177.4540  136.6390 F   0  0  0  0  0  0  0  0  0  0  0  0
  190.1180  176.9260  142.6240 C   0  0  0  0  0  3  0  0  0  0  0  0
  187.6010  178.2450  139.5400 C   0  0  0  0  0  3  0  0  0  0  0  0
  183.6680  178.5510  144.2280 C   0  0  0  0  0  0  0  0  0  0  0  0
  188.0230  178.1280  138.2140 C   0  0  0  0  0  3  0  0  0  0  0  0
  182.4250  178.5250  144.0330 O   0  0  0  0  0  0  0  0  0  0  0  0
  188.4170  177.8100  140.6080 C   0  0  0  0  0  0  0  0  0  0  0  0
  188.7180  177.7400  144.3440 C   0  0  0  0  0  0  0  0  0  0  0  0
  189.2680  177.5690  137.9250 C   0  0  0  0  0  0  0  0  0  0  0  0
  189.6740  177.2440  140.2910 C   0  0  0  0  0  0  0  0  0  0  0  0
  186.4130  178.5870  144.6180 C   0  0  0  0  0  0  0  0  0  0  0  0
  187.9890  177.9040  141.9660 C   0  0  0  0  0  0  0  0  0  0  0  0
  184.5230  178.3510  143.1900 N   0  0  0  0  0  2  0  0  0  0  0  0
  190.5020  176.7850  141.2990 C   0  0  0  0  0  3  0  0  0  0  0  0
  184.1690  178.7930  145.5050 C   0  0  0  0  0  3  0  0  0  0  0  0
  185.5500  178.8170  145.6920 C   0  0  0  0  0  3  0  0  0  0  0  0
  185.8760  178.3530  143.3520 C   0  0  0  0  0  0  0  0  0  0  0  0
  191.3770  176.1680  147.3310 C   0  0  0  0  0  3  0  0  0  0  0  0
  189.6160  177.1580  145.3790 C   0  0  0  0  0  0  0  0  0  0  0  0
  189.1800  176.9670  146.7010 C   0  0  0  0  0  3  0  0  0  0  0  0
  190.0550  176.4680  147.6700 C   0  0  0  0  0  3  0  0  0  0  0  0
  191.8250  176.3740  146.0240 C   0  0  0  0  0  3  0  0  0  0  0  0
  190.9500  176.8730  145.0540 C   0  0  0  0  0  3  0  0  0  0  0  0
  2 12  2  0  0  0  0
  3 21  1  0  0  0  0
  4 14  1  0  0  0  0
  5 13  1  0  0  0  0
  6  2  1  0  0  0  0
  7 11  1  0  0  0  0
  8 19  1  0  0  0  0
  9  7  2  0  0  0  0
 10  8  2  0  0  0  0
 11 16  1  0  0  0  0
 12  1  1  0  0  0  0
 12 23  1  0  0  0  0
 13  9  1  0  0  0  0
 13  4  2  0  0  0  0
 14 11  2  0  0  0  0
 14 18  1  0  0  0  0
 15  1  1  0  0  0  0
 15 20  1  0  0  0  0
 16  3  2  0  0  0  0
 16  2  1  0  0  0  0
 17 21  1  0  0  0  0
 17  8  1  0  0  0  0
 18  6  2  0  0  0  0
 19 20  2  0  0  0  0
 21 15  2  0  0  0  0
 22 25  1  0  0  0  0
 23 24  1  0  0  0  0
 24 25  2  0  0  0  0
 26 22  2  0  0  0  0
 27 23  2  0  0  0  0
 27 26  1  0  0  0  0
M  END
>  <MODEL>
7

>  <REMARK>
 VINA RESULT:     -10.4      3.022      5.688
  Name = 
  1 active torsions:
  status: ('A' for Active; 'I' for Inactive)
    1  A    between atoms: C_9  and  C_15
                            x       y       z     vdW  Elec       q    Type
                         _______ _______ _______ _____ _____    ______ ____

>  <TORSDO>
F 1

$$$$
=
 OpenBabel10262420053D

 27 31  0  0  0  0  0  0  0  0999 V2000
  189.1530  178.5190  143.1340 O   0  0  0  0  0  0  0  0  0  0  0  0
  186.8980  178.1900  142.2880 C   0  0  0  0  0  0  0  0  0  0  0  0
  186.7480  178.0530  144.7490 C   0  0  0  0  0  3  0  0  0  0  0  0
  182.7110  178.8510  142.3030 C   0  0  0  0  0  3  0  0  0  0  0  0
  180.6840  179.2730  143.4800 F   0  0  0  0  0  0  0  0  0  0  0  0
  186.1210  178.2170  141.1120 C   0  0  0  0  0  3  0  0  0  0  0  0
  184.0790  178.7640  144.7330 C   0  0  0  0  0  3  0  0  0  0  0  0
  189.4650  176.8250  146.9170 C   0  0  0  0  0  0  0  0  0  0  0  0
  182.7020  179.0010  144.7140 C   0  0  0  0  0  3  0  0  0  0  0  0
  189.5520  176.3160  148.0650 O   0  0  0  0  0  0  0  0  0  0  0  0
  184.8030  178.5720  143.5360 C   0  0  0  0  0  0  0  0  0  0  0  0
  188.2530  178.1570  142.1290 C   0  0  0  0  0  0  0  0  0  0  0  0
  182.0190  179.0450  143.4990 C   0  0  0  0  0  0  0  0  0  0  0  0
  184.0890  178.6180  142.3160 C   0  0  0  0  0  0  0  0  0  0  0  0
  189.2270  177.9370  144.3880 C   0  0  0  0  0  0  0  0  0  0  0  0
  186.2060  178.3070  143.5420 C   0  0  0  0  0  0  0  0  0  0  0  0
  188.2450  177.1290  146.4000 N   0  0  0  0  0  2  0  0  0  0  0  0
  184.7490  178.4160  141.1180 C   0  0  0  0  0  3  0  0  0  0  0  0
  190.6170  177.0880  146.1810 C   0  0  0  0  0  3  0  0  0  0  0  0
  190.4910  177.6540  144.9130 C   0  0  0  0  0  3  0  0  0  0  0  0
  188.0960  177.6670  145.1570 C   0  0  0  0  0  0  0  0  0  0  0  0
  190.1610  177.4390  138.3460 C   0  0  0  0  0  3  0  0  0  0  0  0
  188.8950  177.8680  140.8160 C   0  0  0  0  0  0  0  0  0  0  0  0
  189.9130  176.9090  140.6950 C   0  0  0  0  0  3  0  0  0  0  0  0
  190.5390  176.6910  139.4640 C   0  0  0  0  0  3  0  0  0  0  0  0
  189.1640  178.4100  138.4610 C   0  0  0  0  0  3  0  0  0  0  0  0
  188.5380  178.6280  139.6920 C   0  0  0  0  0  3  0  0  0  0  0  0
  1 15  1  0  0  0  0
  2 16  1  0  0  0  0
  3 21  1  0  0  0  0
  4 14  2  0  0  0  0
  4 13  1  0  0  0  0
  5 13  1  0  0  0  0
  6 18  2  0  0  0  0
  6  2  1  0  0  0  0
  8 10  2  0  0  0  0
  9  7  1  0  0  0  0
 11 16  1  0  0  0  0
 11  7  2  0  0  0  0
 12  2  2  0  0  0  0
 12  1  1  0  0  0  0
 13  9  2  0  0  0  0
 14 11  1  0  0  0  0
 15 20  1  0  0  0  0
 15 21  2  0  0  0  0
 16  3  2  0  0  0  0
 17  8  1  0  0  0  0
 18 14  1  0  0  0  0
 19  8  1  0  0  0  0
 20 19  2  0  0  0  0
 21 17  1  0  0  0  0
 22 26  2  0  0  0  0
 22 25  1  0  0  0  0
 23 12  1  0  0  0  0
 24 23  1  0  0  0  0
 25 24  2  0  0  0  0
 26 27  1  0  0  0  0
 27 23  2  0  0  0  0
M  END
>  <MODEL>
8

>  <REMARK>
 VINA RESULT:     -10.3      1.901      5.047
  Name = 
  1 active torsions:
  status: ('A' for Active; 'I' for Inactive)
    1  A    between atoms: C_9  and  C_15
                            x       y       z     vdW  Elec       q    Type
                         _______ _______ _______ _____ _____    ______ ____

>  <TORSDO>
F 1

$$$$
=
 OpenBabel10262420053D

 27 31  0  0  0  0  0  0  0  0999 V2000
  185.9950  179.1180  144.5130 O   0  0  0  0  0  0  0  0  0  0  0  0
  187.7940  177.9070  143.4140 C   0  0  0  0  0  0  0  0  0  0  0  0
  186.0980  178.3640  141.6790 C   0  0  0  0  0  3  0  0  0  0  0  0
  190.5200  177.2300  140.2400 C   0  0  0  0  0  3  0  0  0  0  0  0
  191.0570  177.2940  137.9200 F   0  0  0  0  0  0  0  0  0  0  0  0
  189.0910  177.3930  143.6140 C   0  0  0  0  0  3  0  0  0  0  0  0
  187.9680  178.1910  139.6530 C   0  0  0  0  0  3  0  0  0  0  0  0
  182.4820  178.6280  142.3460 C   0  0  0  0  0  0  0  0  0  0  0  0
  188.8890  177.9800  138.6240 C   0  0  0  0  0  3  0  0  0  0  0  0
  181.4220  178.4810  141.6830 O   0  0  0  0  0  0  0  0  0  0  0  0
  188.3050  177.9320  141.0000 C   0  0  0  0  0  0  0  0  0  0  0  0
  187.0910  178.2530  144.5330 C   0  0  0  0  0  0  0  0  0  0  0  0
  190.1650  177.5000  138.9180 C   0  0  0  0  0  0  0  0  0  0  0  0
  189.6040  177.4430  141.2740 C   0  0  0  0  0  0  0  0  0  0  0  0
  184.8390  178.9280  143.7740 C   0  0  0  0  0  0  0  0  0  0  0  0
  187.3670  178.1220  142.0590 C   0  0  0  0  0  0  0  0  0  0  0  0
  183.6870  178.3990  141.7600 N   0  0  0  0  0  2  0  0  0  0  0  0
  189.9770  177.1550  142.5740 C   0  0  0  0  0  3  0  0  0  0  0  0
  182.4220  179.0350  143.6760 C   0  0  0  0  0  3  0  0  0  0  0  0
  183.6110  179.1910  144.3870 C   0  0  0  0  0  3  0  0  0  0  0  0
  184.8610  178.5290  142.4380 C   0  0  0  0  0  0  0  0  0  0  0  0
  188.4330  177.1710  148.4680 C   0  0  0  0  0  3  0  0  0  0  0  0
  187.5220  177.8510  145.9000 C   0  0  0  0  0  0  0  0  0  0  0  0
  186.8060  178.2530  147.0400 C   0  0  0  0  0  3  0  0  0  0  0  0
  187.2560  177.9090  148.3180 C   0  0  0  0  0  3  0  0  0  0  0  0
  189.1630  176.7840  147.3420 C   0  0  0  0  0  3  0  0  0  0  0  0
  188.7130  177.1280  146.0640 C   0  0  0  0  0  3  0  0  0  0  0  0
  1 12  1  0  0  0  0
  2  6  1  0  0  0  0
  2 12  2  0  0  0  0
  3 16  2  0  0  0  0
  3 21  1  0  0  0  0
  4 14  1  0  0  0  0
  5 13  1  0  0  0  0
  7 11  1  0  0  0  0
  8 19  1  0  0  0  0
  9 13  1  0  0  0  0
  9  7  2  0  0  0  0
 10  8  2  0  0  0  0
 11 14  2  0  0  0  0
 11 16  1  0  0  0  0
 12 23  1  0  0  0  0
 13  4  2  0  0  0  0
 14 18  1  0  0  0  0
 15 20  1  0  0  0  0
 15  1  1  0  0  0  0
 16  2  1  0  0  0  0
 17  8  1  0  0  0  0
 17 21  1  0  0  0  0
 18  6  2  0  0  0  0
 19 20  2  0  0  0  0
 21 15  2  0  0  0  0
 23 27  2  0  0  0  0
 23 24  1  0  0  0  0
 24 25  2  0  0  0  0
 25 22  1  0  0  0  0
 26 22  2  0  0  0  0
 27 26  1  0  0  0  0
M  END
>  <MODEL>
9

>  <REMARK>
 VINA RESULT:     -10.2      3.178      5.790
  Name = 
  1 active torsions:
  status: ('A' for Active; 'I' for Inactive)
    1  A    between atoms: C_9  and  C_15
                            x       y       z     vdW  Elec       q    Type
                         _______ _______ _______ _____ _____    ______ ____

>  <TORSDO>
F 1

$$$$
