=
 OpenBabel10262421373D

 32 37  0  0  1  0  0  0  0  0999 V2000
  187.6110  178.2900  136.9480 C   0  0  1  0  0  3  0  0  0  0  0  0
  187.8990  177.9810  142.1040 C   0  0  0  0  0  0  0  0  0  0  0  0
  183.3960  179.0440  143.6280 C   0  0  0  0  0  3  0  0  0  0  0  0
  183.7890  178.8300  144.9500 C   0  0  0  0  0  3  0  0  0  0  0  0
  189.6370  177.3360  143.7830 C   0  0  0  0  0  0  0  0  0  0  0  0
  189.9410  177.1290  145.1310 C   0  0  0  0  0  0  0  0  0  0  0  0
  188.4810  178.4300  139.7470 C   0  0  2  0  0  3  0  0  0  0  0  0
  186.1610  178.5170  140.4590 N   0  0  0  0  0  2  0  0  0  0  0  0
  189.4580  177.0470  147.4930 C   0  0  1  0  0  3  0  0  0  0  0  0
  186.6630  178.7460  138.0640 C   0  0  0  0  0  2  0  0  0  0  0  0
  184.3170  178.8810  142.5920 C   0  0  0  0  0  3  0  0  0  0  0  0
  186.5620  178.3360  141.8260 C   0  0  0  0  0  0  0  0  0  0  0  0
  185.6400  178.5040  142.8660 C   0  0  0  0  0  0  0  0  0  0  0  0
  187.3610  177.8950  144.4900 C   0  0  0  0  0  0  0  0  0  0  0  0
  191.2150  176.5190  147.3690 S   0  0  0  0  0  0  0  0  0  0  0  0
  189.0780  178.5350  137.3310 C   0  0  0  0  0  2  0  0  0  0  0  0
  187.0410  178.0820  139.3840 C   0  0  1  0  0  3  0  0  0  0  0  0
  191.2070  176.7200  145.6120 N   0  0  0  0  0  2  0  0  0  0  0  0
  189.4250  177.8990  138.6780 C   0  0  0  0  0  2  0  0  0  0  0  0
  185.1020  178.4510  145.2370 C   0  0  0  0  0  3  0  0  0  0  0  0
  186.0400  178.2840  144.2030 C   0  0  0  0  0  0  0  0  0  0  0  0
  187.7310  177.6760  145.7850 N   0  0  0  0  0  0  0  0  0  0  0  0
  188.7950  177.8850  141.0270 O   0  0  0  0  0  0  0  0  0  0  0  0
  190.9280  177.0710  142.6080 Cl  0  0  0  0  0  0  0  0  0  0  0  0
  189.3750  178.3170  148.3170 C   0  0  0  0  0  1  0  0  0  0  0  0
  188.3120  177.7330  143.4370 C   0  0  0  0  0  0  0  0  0  0  0  0
  188.9940  177.3070  146.1040 C   0  0  0  0  0  0  0  0  0  0  0  0
  187.4050  176.9370  136.6620 O   0  0  0  0  0  0  0  0  0  0  0  0
  186.1950  176.8970  135.9650 C   0  0  0  0  0  2  0  0  0  0  0  0
  185.4160  175.7040  136.3870 C   0  0  0  0  0  0  0  0  0  0  0  0
  184.1670  175.4580  135.8330 O   0  0  0  0  0  0  0  0  0  0  0  0
  185.9050  174.8940  137.2180 O   0  0  0  0  0  1  0  0  0  0  0  0
  1 28  1  1  0  0  0
  1 16  1  0  0  0  0
  1 10  1  0  0  0  0
  2 26  1  0  0  0  0
  3  4  1  0  0  0  0
  4 20  2  0  0  0  0
  5  6  1  0  0  0  0
  6 18  1  0  0  0  0
  6 27  2  0  0  0  0
  7 19  1  6  0  0  0
  7 23  1  0  0  0  0
  8 12  1  0  0  0  0
  9 25  1  1  0  0  0
 11 13  1  0  0  0  0
 11  3  2  0  0  0  0
 12  2  2  0  0  0  0
 12 13  1  0  0  0  0
 13 21  2  0  0  0  0
 14 22  2  0  0  0  0
 15  9  1  0  0  0  0
 16 19  1  0  0  0  0
 17 10  1  6  0  0  0
 17  7  1  0  0  0  0
 17  8  1  0  0  0  0
 18 15  1  0  0  0  0
 21 14  1  0  0  0  0
 21 20  1  0  0  0  0
 22 27  1  0  0  0  0
 23  2  1  0  0  0  0
 24  5  1  0  0  0  0
 26  5  2  0  0  0  0
 26 14  1  0  0  0  0
 27  9  1  0  0  0  0
 29 30  1  0  0  0  0
 29 28  1  0  0  0  0
 30 32  1  0  0  0  0
 31 30  2  0  0  0  0
M  END
>  <MODEL>
1

>  <REMARK>
 VINA RESULT:     -10.2      0.000      0.000
  Name = 
  3 active torsions:
  status: ('A' for Active; 'I' for Inactive)
    1  A    between atoms: C_1  and  C_10
    2  A    between atoms: C_2  and  O_24
    3  A    between atoms: C_10  and  O_24
                            x       y       z     vdW  Elec       q    Type
                         _______ _______ _______ _____ _____    ______ ____

>  <TORSDO>
F 3

$$$$
=
 OpenBabel10262421373D

 32 37  0  0  1  0  0  0  0  0999 V2000
  187.6290  178.3240  136.9440 C   0  0  1  0  0  3  0  0  0  0  0  0
  187.9000  177.9820  142.0990 C   0  0  0  0  0  0  0  0  0  0  0  0
  183.3870  179.0180  143.6140 C   0  0  0  0  0  3  0  0  0  0  0  0
  183.7760  178.7970  144.9360 C   0  0  0  0  0  3  0  0  0  0  0  0
  189.6340  177.3320  143.7790 C   0  0  0  0  0  0  0  0  0  0  0  0
  189.9340  177.1180  145.1270 C   0  0  0  0  0  0  0  0  0  0  0  0
  188.4880  178.4480  139.7470 C   0  0  2  0  0  3  0  0  0  0  0  0
  186.1650  178.5220  140.4510 N   0  0  0  0  0  2  0  0  0  0  0  0
  189.4430  177.0180  147.4870 C   0  0  1  0  0  3  0  0  0  0  0  0
  186.6750  178.7690  138.0600 C   0  0  0  0  0  2  0  0  0  0  0  0
  184.3130  178.8650  142.5790 C   0  0  0  0  0  3  0  0  0  0  0  0
  186.5620  178.3340  141.8180 C   0  0  0  0  0  0  0  0  0  0  0  0
  185.6360  178.4910  142.8560 C   0  0  0  0  0  0  0  0  0  0  0  0
  187.3530  177.8790  144.4820 C   0  0  0  0  0  0  0  0  0  0  0  0
  191.2030  176.4980  147.3660 S   0  0  0  0  0  0  0  0  0  0  0  0
  189.0930  178.5720  137.3340 C   0  0  0  0  0  2  0  0  0  0  0  0
  187.0510  178.0980  139.3760 C   0  0  1  0  0  3  0  0  0  0  0  0
  191.2000  176.7110  145.6100 N   0  0  0  0  0  2  0  0  0  0  0  0
  189.4380  177.9280  138.6780 C   0  0  0  0  0  2  0  0  0  0  0  0
  185.0900  178.4220  145.2250 C   0  0  0  0  0  3  0  0  0  0  0  0
  186.0320  178.2640  144.1930 C   0  0  0  0  0  0  0  0  0  0  0  0
  187.7200  177.6530  145.7770 N   0  0  0  0  0  0  0  0  0  0  0  0
  188.7990  177.8970  141.0240 O   0  0  0  0  0  0  0  0  0  0  0  0
  190.9300  177.0800  142.6080 Cl  0  0  0  0  0  0  0  0  0  0  0  0
  189.3530  178.2830  148.3190 C   0  0  0  0  0  1  0  0  0  0  0  0
  188.3090  177.7270  143.4310 C   0  0  0  0  0  0  0  0  0  0  0  0
  188.9830  177.2870  146.0980 C   0  0  0  0  0  0  0  0  0  0  0  0
  187.4290  176.9720  136.6480 O   0  0  0  0  0  0  0  0  0  0  0  0
  188.0690  176.7740  135.4220 C   0  0  0  0  0  2  0  0  0  0  0  0
  188.7450  175.4500  135.4210 C   0  0  0  0  0  0  0  0  0  0  0  0
  190.0400  175.3320  135.9070 O   0  0  0  0  0  1  0  0  0  0  0  0
  188.1300  174.4300  135.0160 O   0  0  0  0  0  0  0  0  0  0  0  0
  1 28  1  1  0  0  0
  1 16  1  0  0  0  0
  1 10  1  0  0  0  0
  2 26  1  0  0  0  0
  3  4  1  0  0  0  0
  4 20  2  0  0  0  0
  5  6  1  0  0  0  0
  6 18  1  0  0  0  0
  6 27  2  0  0  0  0
  7 19  1  6  0  0  0
  7 23  1  0  0  0  0
  8 12  1  0  0  0  0
  9 25  1  1  0  0  0
 11 13  1  0  0  0  0
 11  3  2  0  0  0  0
 12  2  2  0  0  0  0
 12 13  1  0  0  0  0
 13 21  2  0  0  0  0
 14 22  2  0  0  0  0
 15  9  1  0  0  0  0
 16 19  1  0  0  0  0
 17 10  1  6  0  0  0
 17  7  1  0  0  0  0
 17  8  1  0  0  0  0
 18 15  1  0  0  0  0
 21 14  1  0  0  0  0
 21 20  1  0  0  0  0
 22 27  1  0  0  0  0
 23  2  1  0  0  0  0
 24  5  1  0  0  0  0
 26  5  2  0  0  0  0
 26 14  1  0  0  0  0
 27  9  1  0  0  0  0
 29 28  1  0  0  0  0
 30 29  1  0  0  0  0
 30 31  1  0  0  0  0
 32 30  2  0  0  0  0
M  END
>  <MODEL>
2

>  <REMARK>
 VINA RESULT:     -10.2      1.023      1.374
  Name = 
  3 active torsions:
  status: ('A' for Active; 'I' for Inactive)
    1  A    between atoms: C_1  and  C_10
    2  A    between atoms: C_2  and  O_24
    3  A    between atoms: C_10  and  O_24
                            x       y       z     vdW  Elec       q    Type
                         _______ _______ _______ _____ _____    ______ ____

>  <TORSDO>
F 3

$$$$
=
 OpenBabel10262421373D

 32 37  0  0  1  0  0  0  0  0999 V2000
  181.1030  179.1310  139.4570 C   0  0  1  0  0  3  0  0  0  0  0  0
  185.6420  178.4860  141.8530 C   0  0  0  0  0  0  0  0  0  0  0  0
  184.5190  178.5250  146.5930 C   0  0  0  0  0  3  0  0  0  0  0  0
  185.8560  178.2900  146.9150 C   0  0  0  0  0  3  0  0  0  0  0  0
  188.0090  178.0650  141.1610 C   0  0  0  0  0  0  0  0  0  0  0  0
  189.3210  177.8190  141.5720 C   0  0  0  0  0  0  0  0  0  0  0  0
  183.9310  179.2210  140.2310 C   0  0  2  0  0  3  0  0  0  0  0  0
  183.3090  178.7960  142.5400 N   0  0  0  0  0  2  0  0  0  0  0  0
  191.0740  177.4600  143.1900 C   0  0  1  0  0  3  0  0  0  0  0  0
  181.5320  179.3050  140.9190 C   0  0  0  0  0  2  0  0  0  0  0  0
  184.1320  178.6260  145.2550 C   0  0  0  0  0  3  0  0  0  0  0  0
  184.6880  178.5920  142.8860 C   0  0  0  0  0  0  0  0  0  0  0  0
  185.0770  178.4950  144.2270 C   0  0  0  0  0  0  0  0  0  0  0  0
  187.3870  178.1120  143.5280 C   0  0  0  0  0  0  0  0  0  0  0  0
  191.9160  177.2990  141.5640 S   0  0  0  0  0  0  0  0  0  0  0  0
  182.1920  179.6290  138.4950 C   0  0  0  0  0  2  0  0  0  0  0  0
  182.8770  178.6280  141.1590 C   0  0  1  0  0  3  0  0  0  0  0  0
  190.4130  177.6300  140.6920 N   0  0  0  0  0  2  0  0  0  0  0  0
  183.5430  178.9700  138.7820 C   0  0  0  0  0  2  0  0  0  0  0  0
  186.8070  178.1550  145.9010 C   0  0  0  0  0  3  0  0  0  0  0  0
  186.4310  178.2550  144.5510 C   0  0  0  0  0  0  0  0  0  0  0  0
  188.6890  177.8700  143.8540 N   0  0  0  0  0  0  0  0  0  0  0  0
  185.2040  178.6510  140.5290 O   0  0  0  0  0  0  0  0  0  0  0  0
  187.7030  178.1510  139.4240 Cl  0  0  0  0  0  0  0  0  0  0  0  0
  191.6810  178.6220  143.9530 C   0  0  0  0  0  1  0  0  0  0  0  0
  187.0010  178.2210  142.1570 C   0  0  0  0  0  0  0  0  0  0  0  0
  189.6400  177.7320  142.9010 C   0  0  0  0  0  0  0  0  0  0  0  0
  180.8030  177.7900  139.1960 O   0  0  0  0  0  0  0  0  0  0  0  0
  179.4630  177.6440  139.5610 C   0  0  0  0  0  2  0  0  0  0  0  0
  179.3180  176.4790  140.4720 C   0  0  0  0  0  0  0  0  0  0  0  0
  179.2410  175.1950  139.9500 O   0  0  0  0  0  0  0  0  0  0  0  0
  179.3050  176.6530  141.7190 O   0  0  0  0  0  1  0  0  0  0  0  0
  1 28  1  6  0  0  0
  1 10  1  0  0  0  0
  2 26  2  0  0  0  0
  2 12  1  0  0  0  0
  3  4  1  0  0  0  0
  5  6  2  0  0  0  0
  5 26  1  0  0  0  0
  6 27  1  0  0  0  0
  7 19  1  6  0  0  0
  7 23  1  0  0  0  0
  7 17  1  0  0  0  0
  8 12  1  0  0  0  0
  9 25  1  6  0  0  0
 11  3  2  0  0  0  0
 12 13  2  0  0  0  0
 13 21  1  0  0  0  0
 13 11  1  0  0  0  0
 14 22  1  0  0  0  0
 14 21  2  0  0  0  0
 15  9  1  0  0  0  0
 16 19  1  0  0  0  0
 16  1  1  0  0  0  0
 17 10  1  1  0  0  0
 17  8  1  0  0  0  0
 18 15  1  0  0  0  0
 18  6  1  0  0  0  0
 20  4  2  0  0  0  0
 21 20  1  0  0  0  0
 23  2  1  0  0  0  0
 24  5  1  0  0  0  0
 26 14  1  0  0  0  0
 27  9  1  0  0  0  0
 27 22  2  0  0  0  0
 28 29  1  0  0  0  0
 29 30  1  0  0  0  0
 30 32  1  0  0  0  0
 31 30  2  0  0  0  0
M  END
>  <MODEL>
3

>  <REMARK>
 VINA RESULT:      -9.4      3.532      4.757
  Name = 
  3 active torsions:
  status: ('A' for Active; 'I' for Inactive)
    1  A    between atoms: C_1  and  C_10
    2  A    between atoms: C_2  and  O_24
    3  A    between atoms: C_10  and  O_24
                            x       y       z     vdW  Elec       q    Type
                         _______ _______ _______ _____ _____    ______ ____

>  <TORSDO>
F 3

$$$$
=
 OpenBabel10262421373D

 32 37  0  0  1  0  0  0  0  0999 V2000
  182.6030  179.2950  138.8600 C   0  0  1  0  0  3  0  0  0  0  0  0
  186.2820  178.3130  142.3620 C   0  0  0  0  0  0  0  0  0  0  0  0
  190.3180  177.6490  139.7160 C   0  0  0  0  0  3  0  0  0  0  0  0
  191.0600  177.4750  140.8850 C   0  0  0  0  0  3  0  0  0  0  0  0
  186.4340  178.2530  144.8580 C   0  0  0  0  0  0  0  0  0  0  0  0
  187.2530  178.0800  145.9760 C   0  0  0  0  0  0  0  0  0  0  0  0
  184.1050  178.3540  141.1990 C   0  0  2  0  0  3  0  0  0  0  0  0
  186.1640  178.4700  139.9180 N   0  0  0  0  0  2  0  0  0  0  0  0
  189.3410  177.6710  147.1130 C   0  0  1  0  0  3  0  0  0  0  0  0
  184.0280  178.7420  138.7330 C   0  0  0  0  0  2  0  0  0  0  0  0
  188.9470  177.9060  139.7920 C   0  0  0  0  0  3  0  0  0  0  0  0
  186.9320  178.2530  141.1120 C   0  0  0  0  0  0  0  0  0  0  0  0
  188.3060  177.9910  141.0360 C   0  0  0  0  0  0  0  0  0  0  0  0
  188.4250  177.9110  143.4750 C   0  0  0  0  0  0  0  0  0  0  0  0
  188.1260  177.9260  148.4700 S   0  0  0  0  0  0  0  0  0  0  0  0
  181.8990  178.7350  140.1050 C   0  0  0  0  0  2  0  0  0  0  0  0
  184.8130  179.0030  140.0150 C   0  0  1  0  0  3  0  0  0  0  0  0
  186.8050  178.1550  147.3160 N   0  0  0  0  0  2  0  0  0  0  0  0
  182.7230  178.9670  141.3730 C   0  0  0  0  0  2  0  0  0  0  0  0
  190.4340  177.5600  142.1300 C   0  0  0  0  0  3  0  0  0  0  0  0
  189.0550  177.8180  142.2210 C   0  0  0  0  0  0  0  0  0  0  0  0
  189.1620  177.7520  144.6120 N   0  0  0  0  0  0  0  0  0  0  0  0
  184.8930  178.5190  142.3750 O   0  0  0  0  0  0  0  0  0  0  0  0
  184.7230  178.5810  145.1470 Cl  0  0  0  0  0  0  0  0  0  0  0  0
  189.9140  176.2710  147.2130 C   0  0  0  0  0  1  0  0  0  0  0  0
  187.0220  178.1660  143.5620 C   0  0  0  0  0  0  0  0  0  0  0  0
  188.5920  177.8280  145.8380 C   0  0  0  0  0  0  0  0  0  0  0  0
  182.6280  180.6930  138.9070 O   0  0  0  0  0  0  0  0  0  0  0  0
  181.2890  181.0790  138.8100 C   0  0  0  0  0  2  0  0  0  0  0  0
  181.0880  181.8730  137.5700 C   0  0  0  0  0  0  0  0  0  0  0  0
  181.2540  183.2520  137.5930 O   0  0  0  0  0  1  0  0  0  0  0  0
  180.8050  181.2920  136.4900 O   0  0  0  0  0  0  0  0  0  0  0  0
  1 28  1  1  0  0  0
  1 16  1  0  0  0  0
  2 23  1  0  0  0  0
  2 26  1  0  0  0  0
  3 11  2  0  0  0  0
  3  4  1  0  0  0  0
  4 20  2  0  0  0  0
  5 24  1  0  0  0  0
  5  6  1  0  0  0  0
  6 18  1  0  0  0  0
  7 19  1  1  0  0  0
  7 23  1  0  0  0  0
  8 17  1  0  0  0  0
  8 12  1  0  0  0  0
  9 25  1  1  0  0  0
  9 15  1  0  0  0  0
 10  1  1  0  0  0  0
 11 13  1  0  0  0  0
 12  2  2  0  0  0  0
 13 12  1  0  0  0  0
 13 21  2  0  0  0  0
 14 26  1  0  0  0  0
 14 22  2  0  0  0  0
 16 19  1  0  0  0  0
 17 10  1  6  0  0  0
 17  7  1  0  0  0  0
 18 15  1  0  0  0  0
 20 21  1  0  0  0  0
 21 14  1  0  0  0  0
 22 27  1  0  0  0  0
 26  5  2  0  0  0  0
 27  6  2  0  0  0  0
 27  9  1  0  0  0  0
 29 28  1  0  0  0  0
 30 31  1  0  0  0  0
 30 29  1  0  0  0  0
 32 30  2  0  0  0  0
M  END
>  <MODEL>
4

>  <REMARK>
 VINA RESULT:      -9.1      3.461      5.114
  Name = 
  3 active torsions:
  status: ('A' for Active; 'I' for Inactive)
    1  A    between atoms: C_1  and  C_10
    2  A    between atoms: C_2  and  O_24
    3  A    between atoms: C_10  and  O_24
                            x       y       z     vdW  Elec       q    Type
                         _______ _______ _______ _____ _____    ______ ____

>  <TORSDO>
F 3

$$$$
=
 OpenBabel10262421373D

 32 37  0  0  1  0  0  0  0  0999 V2000
  194.0660  175.5940  136.5850 C   0  0  1  0  0  3  0  0  0  0  0  0
  189.9410  177.2150  139.2530 C   0  0  0  0  0  0  0  0  0  0  0  0
  191.5570  177.6460  143.8280 C   0  0  0  0  0  3  0  0  0  0  0  0
  190.3070  178.1160  144.2300 C   0  0  0  0  0  3  0  0  0  0  0  0
  187.5900  177.8830  138.7200 C   0  0  0  0  0  0  0  0  0  0  0  0
  186.3750  178.3730  139.2050 C   0  0  0  0  0  0  0  0  0  0  0  0
  191.3520  176.0250  137.6130 C   0  0  2  0  0  3  0  0  0  0  0  0
  192.2730  176.6590  139.7690 N   0  0  0  0  0  2  0  0  0  0  0  0
  184.8720  179.1980  140.9010 C   0  0  1  0  0  3  0  0  0  0  0  0
  193.7790  175.6820  138.0900 C   0  0  0  0  0  2  0  0  0  0  0  0
  191.7800  177.3110  142.4910 C   0  0  0  0  0  3  0  0  0  0  0  0
  190.9790  177.1080  140.2020 C   0  0  0  0  0  0  0  0  0  0  0  0
  190.7540  177.4400  141.5430 C   0  0  0  0  0  0  0  0  0  0  0  0
  188.4540  178.0620  141.0030 C   0  0  0  0  0  0  0  0  0  0  0  0
  183.8870  179.2630  139.3500 S   0  0  0  0  0  0  0  0  0  0  0  0
  192.8220  175.1370  135.8090 C   0  0  0  0  0  2  0  0  0  0  0  0
  192.5700  176.5760  138.3460 C   0  0  1  0  0  3  0  0  0  0  0  0
  185.2290  178.6010  138.4070 N   0  0  0  0  0  2  0  0  0  0  0  0
  191.6100  176.0200  136.1130 C   0  0  0  0  0  2  0  0  0  0  0  0
  189.2770  178.2530  143.2960 C   0  0  0  0  0  3  0  0  0  0  0  0
  189.4870  177.9190  141.9470 C   0  0  0  0  0  0  0  0  0  0  0  0
  187.2390  178.5350  141.4040 N   0  0  0  0  0  0  0  0  0  0  0  0
  190.2060  176.8110  137.9350 O   0  0  0  0  0  0  0  0  0  0  0  0
  187.6910  177.5220  136.9940 Cl  0  0  0  0  0  0  0  0  0  0  0  0
  184.2020  178.2510  141.8780 C   0  0  0  0  0  1  0  0  0  0  0  0
  188.6710  177.7150  139.6340 C   0  0  0  0  0  0  0  0  0  0  0  0
  186.2170  178.6820  140.5290 C   0  0  0  0  0  0  0  0  0  0  0  0
  194.5110  176.8290  136.1040 O   0  0  0  0  0  0  0  0  0  0  0  0
  195.2270  176.5250  134.9440 C   0  0  0  0  0  2  0  0  0  0  0  0
  196.4910  175.8320  135.3050 C   0  0  0  0  0  0  0  0  0  0  0  0
  196.7940  174.6010  134.7380 O   0  0  0  0  0  0  0  0  0  0  0  0
  197.3060  176.3780  136.0930 O   0  0  0  0  0  1  0  0  0  0  0  0
  1 28  1  6  0  0  0
  1 10  1  0  0  0  0
  2 26  2  0  0  0  0
  2 12  1  0  0  0  0
  3  4  1  0  0  0  0
  5  6  2  0  0  0  0
  5 26  1  0  0  0  0
  6 27  1  0  0  0  0
  7 19  1  6  0  0  0
  7 23  1  0  0  0  0
  7 17  1  0  0  0  0
  8 12  1  0  0  0  0
  9 25  1  1  0  0  0
 11  3  2  0  0  0  0
 12 13  2  0  0  0  0
 13 21  1  0  0  0  0
 13 11  1  0  0  0  0
 14 22  1  0  0  0  0
 14 21  2  0  0  0  0
 15  9  1  0  0  0  0
 16 19  1  0  0  0  0
 16  1  1  0  0  0  0
 17 10  1  1  0  0  0
 17  8  1  0  0  0  0
 18  6  1  0  0  0  0
 18 15  1  0  0  0  0
 20  4  2  0  0  0  0
 21 20  1  0  0  0  0
 23  2  1  0  0  0  0
 24  5  1  0  0  0  0
 26 14  1  0  0  0  0
 27  9  1  0  0  0  0
 27 22  2  0  0  0  0
 29 30  1  0  0  0  0
 29 28  1  0  0  0  0
 30 32  1  0  0  0  0
 31 30  2  0  0  0  0
M  END
>  <MODEL>
5

>  <REMARK>
 VINA RESULT:      -8.5      4.789      7.179
  Name = 
  3 active torsions:
  status: ('A' for Active; 'I' for Inactive)
    1  A    between atoms: C_1  and  C_10
    2  A    between atoms: C_2  and  O_24
    3  A    between atoms: C_10  and  O_24
                            x       y       z     vdW  Elec       q    Type
                         _______ _______ _______ _____ _____    ______ ____

>  <TORSDO>
F 3

$$$$
=
 OpenBabel10262421373D

 32 37  0  0  1  0  0  0  0  0999 V2000
  191.3200  176.2750  147.6270 C   0  0  1  0  0  3  0  0  0  0  0  0
  188.7290  177.4240  143.2990 C   0  0  0  0  0  0  0  0  0  0  0  0
  184.2930  178.7030  144.8530 C   0  0  0  0  0  3  0  0  0  0  0  0
  183.9090  178.9800  143.5410 C   0  0  0  0  0  3  0  0  0  0  0  0
  189.2610  177.5780  140.8600 C   0  0  0  0  0  0  0  0  0  0  0  0
  188.7980  177.8910  139.5790 C   0  0  0  0  0  0  0  0  0  0  0  0
  190.2620  176.3230  144.8910 C   0  0  2  0  0  3  0  0  0  0  0  0
  188.2280  177.3740  145.6990 N   0  0  0  0  0  2  0  0  0  0  0  0
  187.1630  178.6280  137.9660 C   0  0  1  0  0  3  0  0  0  0  0  0
  189.8280  176.4930  147.3440 C   0  0  0  0  0  2  0  0  0  0  0  0
  185.5880  178.2530  145.1210 C   0  0  0  0  0  3  0  0  0  0  0  0
  187.8090  177.6280  144.3490 C   0  0  0  0  0  0  0  0  0  0  0  0
  186.5100  178.0740  144.0790 C   0  0  0  0  0  0  0  0  0  0  0  0
  187.0440  178.1920  141.6980 C   0  0  0  0  0  0  0  0  0  0  0  0
  188.6780  178.3200  136.9700 S   0  0  0  0  0  0  0  0  0  0  0  0
  191.9960  175.5070  146.4820 C   0  0  0  0  0  2  0  0  0  0  0  0
  189.6400  177.1740  145.9920 C   0  0  1  0  0  3  0  0  0  0  0  0
  189.5790  177.8060  138.4030 N   0  0  0  0  0  2  0  0  0  0  0  0
  191.7580  176.1810  145.1300 C   0  0  0  0  0  2  0  0  0  0  0  0
  184.8190  178.8100  142.4950 C   0  0  0  0  0  3  0  0  0  0  0  0
  186.1250  178.3570  142.7500 C   0  0  0  0  0  0  0  0  0  0  0  0
  186.6630  178.4780  140.4200 N   0  0  0  0  0  0  0  0  0  0  0  0
  189.9990  176.9180  143.6210 O   0  0  0  0  0  0  0  0  0  0  0  0
  190.9340  177.0330  141.0080 Cl  0  0  0  0  0  0  0  0  0  0  0  0
  186.0590  177.7010  137.4950 C   0  0  0  0  0  1  0  0  0  0  0  0
  188.3690  177.7250  141.9620 C   0  0  0  0  0  0  0  0  0  0  0  0
  187.5150  178.3270  139.3800 C   0  0  0  0  0  0  0  0  0  0  0  0
  191.9580  177.5030  147.8290 O   0  0  0  0  0  0  0  0  0  0  0  0
  192.0510  177.6350  149.2160 C   0  0  0  0  0  2  0  0  0  0  0  0
  193.2380  176.8890  149.7100 C   0  0  0  0  0  0  0  0  0  0  0  0
  193.1830  175.5070  149.8440 O   0  0  0  0  0  0  0  0  0  0  0  0
  194.3060  177.5030  149.9680 O   0  0  0  0  0  1  0  0  0  0  0  0
  1 28  1  6  0  0  0
  2 23  1  0  0  0  0
  2 12  1  0  0  0  0
  3 11  2  0  0  0  0
  4  3  1  0  0  0  0
  5 24  1  0  0  0  0
  5 26  1  0  0  0  0
  6  5  2  0  0  0  0
  7 19  1  1  0  0  0
  7 17  1  0  0  0  0
  8 17  1  0  0  0  0
  9 25  1  6  0  0  0
  9 27  1  0  0  0  0
 10  1  1  0  0  0  0
 12  8  1  0  0  0  0
 13 12  2  0  0  0  0
 13 11  1  0  0  0  0
 14 26  1  0  0  0  0
 14 21  2  0  0  0  0
 15  9  1  0  0  0  0
 15 18  1  0  0  0  0
 16  1  1  0  0  0  0
 17 10  1  1  0  0  0
 18  6  1  0  0  0  0
 19 16  1  0  0  0  0
 20 21  1  0  0  0  0
 20  4  2  0  0  0  0
 21 13  1  0  0  0  0
 22 14  1  0  0  0  0
 23  7  1  0  0  0  0
 26  2  2  0  0  0  0
 27  6  1  0  0  0  0
 27 22  2  0  0  0  0
 28 29  1  0  0  0  0
 29 30  1  0  0  0  0
 30 31  2  0  0  0  0
 30 32  1  0  0  0  0
M  END
>  <MODEL>
6

>  <REMARK>
 VINA RESULT:      -8.2      3.833      8.283
  Name = 
  3 active torsions:
  status: ('A' for Active; 'I' for Inactive)
    1  A    between atoms: C_1  and  C_10
    2  A    between atoms: C_2  and  O_24
    3  A    between atoms: C_10  and  O_24
                            x       y       z     vdW  Elec       q    Type
                         _______ _______ _______ _____ _____    ______ ____

>  <TORSDO>
F 3

$$$$
=
 OpenBabel10262421373D

 32 37  0  0  1  0  0  0  0  0999 V2000
  191.8120  176.7570  137.7510 C   0  0  1  0  0  3  0  0  0  0  0  0
  188.9210  177.6110  141.9560 C   0  0  0  0  0  0  0  0  0  0  0  0
  184.5740  178.9140  140.1850 C   0  0  0  0  0  3  0  0  0  0  0  0
  184.0690  179.0060  141.4830 C   0  0  0  0  0  3  0  0  0  0  0  0
  189.2160  177.3850  144.4290 C   0  0  0  0  0  0  0  0  0  0  0  0
  188.6260  177.4890  145.6910 C   0  0  0  0  0  0  0  0  0  0  0  0
  190.8460  177.5320  140.4110 C   0  0  2  0  0  3  0  0  0  0  0  0
  188.5930  177.7380  139.5290 N   0  0  0  0  0  2  0  0  0  0  0  0
  186.8220  177.9280  147.2310 C   0  0  1  0  0  3  0  0  0  0  0  0
  190.4500  177.4360  137.9470 C   0  0  0  0  0  2  0  0  0  0  0  0
  185.9030  178.5380  139.9790 C   0  0  0  0  0  3  0  0  0  0  0  0
  188.0720  177.8730  140.8600 C   0  0  0  0  0  0  0  0  0  0  0  0
  186.7410  178.2540  141.0680 C   0  0  0  0  0  0  0  0  0  0  0  0
  187.0590  178.0510  143.4810 C   0  0  0  0  0  0  0  0  0  0  0  0
  188.2230  177.4150  148.3060 S   0  0  0  0  0  0  0  0  0  0  0  0
  192.7760  177.1060  138.8940 C   0  0  0  0  0  2  0  0  0  0  0  0
  189.8790  177.0890  139.3180 C   0  0  1  0  0  3  0  0  0  0  0  0
  189.2920  177.2190  146.9100 N   0  0  0  0  0  2  0  0  0  0  0  0
  192.1670  176.7920  140.2630 C   0  0  0  0  0  2  0  0  0  0  0  0
  184.8920  178.7230  142.5750 C   0  0  0  0  0  3  0  0  0  0  0  0
  186.2320  178.3440  142.3830 C   0  0  0  0  0  0  0  0  0  0  0  0
  186.5520  178.1320  144.7460 N   0  0  0  0  0  0  0  0  0  0  0  0
  190.2630  177.2920  141.6900 O   0  0  0  0  0  0  0  0  0  0  0  0
  190.9080  176.8860  144.3610 Cl  0  0  0  0  0  0  0  0  0  0  0  0
  186.4210  179.3490  147.5790 C   0  0  0  0  0  1  0  0  0  0  0  0
  188.4220  177.6730  143.2800 C   0  0  0  0  0  0  0  0  0  0  0  0
  187.3170  177.8650  145.8300 C   0  0  0  0  0  0  0  0  0  0  0  0
  191.6530  175.3710  137.6570 O   0  0  0  0  0  0  0  0  0  0  0  0
  191.1390  175.1540  136.3770 C   0  0  0  0  0  2  0  0  0  0  0  0
  190.0440  174.1510  136.4420 C   0  0  0  0  0  0  0  0  0  0  0  0
  189.8530  173.4060  137.5990 O   0  0  0  0  0  1  0  0  0  0  0  0
  189.2650  174.0050  135.4650 O   0  0  0  0  0  0  0  0  0  0  0  0
  1 28  1  1  0  0  0
  1 10  1  0  0  0  0
  1 16  1  0  0  0  0
  2 26  1  0  0  0  0
  3  4  1  0  0  0  0
  4 20  2  0  0  0  0
  5  6  1  0  0  0  0
  6 27  2  0  0  0  0
  6 18  1  0  0  0  0
  7 19  1  1  0  0  0
  7 23  1  0  0  0  0
  8 12  1  0  0  0  0
  9 25  1  1  0  0  0
  9 15  1  0  0  0  0
 11  3  2  0  0  0  0
 11 13  1  0  0  0  0
 12 13  1  0  0  0  0
 12  2  2  0  0  0  0
 13 21  2  0  0  0  0
 14 22  2  0  0  0  0
 16 19  1  0  0  0  0
 17 10  1  6  0  0  0
 17  8  1  0  0  0  0
 17  7  1  0  0  0  0
 18 15  1  0  0  0  0
 21 20  1  0  0  0  0
 21 14  1  0  0  0  0
 22 27  1  0  0  0  0
 23  2  1  0  0  0  0
 24  5  1  0  0  0  0
 26 14  1  0  0  0  0
 26  5  2  0  0  0  0
 27  9  1  0  0  0  0
 29 30  1  0  0  0  0
 29 28  1  0  0  0  0
 30 31  1  0  0  0  0
 32 30  2  0  0  0  0
M  END
>  <MODEL>
7

>  <REMARK>
 VINA RESULT:      -8.1      2.434      3.172
  Name = 
  3 active torsions:
  status: ('A' for Active; 'I' for Inactive)
    1  A    between atoms: C_1  and  C_10
    2  A    between atoms: C_2  and  O_24
    3  A    between atoms: C_10  and  O_24
                            x       y       z     vdW  Elec       q    Type
                         _______ _______ _______ _____ _____    ______ ____

>  <TORSDO>
F 3

$$$$
=
 OpenBabel10262421373D

 32 37  0  0  1  0  0  0  0  0999 V2000
  191.4930  177.2860  144.9370 C   0  0  1  0  0  3  0  0  0  0  0  0
  187.4910  178.1430  141.7730 C   0  0  0  0  0  0  0  0  0  0  0  0
  189.4310  177.9890  137.3080 C   0  0  0  0  0  3  0  0  0  0  0  0
  188.1680  178.1860  136.7480 C   0  0  0  0  0  3  0  0  0  0  0  0
  185.0210  178.4470  142.0230 C   0  0  0  0  0  0  0  0  0  0  0  0
  183.7940  178.6280  141.3800 C   0  0  0  0  0  0  0  0  0  0  0  0
  189.0120  178.2650  143.7140 C   0  0  2  0  0  3  0  0  0  0  0  0
  189.8970  177.7440  141.5130 N   0  0  0  0  0  2  0  0  0  0  0  0
  182.3440  178.8780  139.4680 C   0  0  1  0  0  3  0  0  0  0  0  0
  191.4120  177.6300  143.4440 C   0  0  0  0  0  2  0  0  0  0  0  0
  189.5770  177.9230  138.6940 C   0  0  0  0  0  3  0  0  0  0  0  0
  188.6080  177.9850  140.9260 C   0  0  0  0  0  0  0  0  0  0  0  0
  188.4620  178.0550  139.5360 C   0  0  0  0  0  0  0  0  0  0  0  0
  186.0550  178.3770  139.8050 C   0  0  0  0  0  0  0  0  0  0  0  0
  181.2070  178.9290  140.9110 S   0  0  0  0  0  0  0  0  0  0  0  0
  190.4420  178.0620  145.7440 C   0  0  0  0  0  2  0  0  0  0  0  0
  189.9960  177.4070  142.9260 C   0  0  1  0  0  3  0  0  0  0  0  0
  182.5520  178.7550  142.0460 N   0  0  0  0  0  2  0  0  0  0  0  0
  189.0340  177.8600  145.1810 C   0  0  0  0  0  2  0  0  0  0  0  0
  187.0490  178.3170  137.5740 C   0  0  0  0  0  3  0  0  0  0  0  0
  187.1820  178.2530  138.9720 C   0  0  0  0  0  0  0  0  0  0  0  0
  184.8230  178.5570  139.2470 N   0  0  0  0  0  0  0  0  0  0  0  0
  187.7060  178.1230  143.1610 O   0  0  0  0  0  0  0  0  0  0  0  0
  185.0110  178.3780  143.7870 Cl  0  0  0  0  0  0  0  0  0  0  0  0
  182.2610  180.1940  138.7190 C   0  0  0  0  0  1  0  0  0  0  0  0
  186.1960  178.3170  141.2250 C   0  0  0  0  0  0  0  0  0  0  0  0
  183.7150  178.6870  140.0140 C   0  0  0  0  0  0  0  0  0  0  0  0
  191.3290  175.9100  145.1260 O   0  0  0  0  0  0  0  0  0  0  0  0
  192.4280  175.5190  145.8930 C   0  0  0  0  0  2  0  0  0  0  0  0
  192.0810  175.5970  147.3370 C   0  0  0  0  0  0  0  0  0  0  0  0
  193.0350  176.0070  148.2590 O   0  0  0  0  0  1  0  0  0  0  0  0
  190.9120  175.3300  147.7180 O   0  0  0  0  0  0  0  0  0  0  0  0
  1 28  1  6  0  0  0
  1 16  1  0  0  0  0
  2 23  1  0  0  0  0
  3 11  1  0  0  0  0
  4  3  2  0  0  0  0
  4 20  1  0  0  0  0
  5 24  1  0  0  0  0
  6  5  1  0  0  0  0
  6 18  1  0  0  0  0
  7 19  1  1  0  0  0
  8 17  1  0  0  0  0
  9 25  1  1  0  0  0
  9 27  1  0  0  0  0
  9 15  1  0  0  0  0
 10  1  1  0  0  0  0
 11 13  2  0  0  0  0
 12  8  1  0  0  0  0
 12  2  2  0  0  0  0
 13 12  1  0  0  0  0
 14 26  1  0  0  0  0
 15 18  1  0  0  0  0
 17 10  1  1  0  0  0
 17  7  1  0  0  0  0
 19 16  1  0  0  0  0
 20 21  2  0  0  0  0
 21 13  1  0  0  0  0
 21 14  1  0  0  0  0
 22 14  2  0  0  0  0
 22 27  1  0  0  0  0
 23  7  1  0  0  0  0
 26  2  1  0  0  0  0
 26  5  2  0  0  0  0
 27  6  2  0  0  0  0
 28 29  1  0  0  0  0
 29 30  1  0  0  0  0
 30 32  2  0  0  0  0
 30 31  1  0  0  0  0
M  END
>  <MODEL>
8

>  <REMARK>
 VINA RESULT:      -7.9      3.859      8.228
  Name = 
  3 active torsions:
  status: ('A' for Active; 'I' for Inactive)
    1  A    between atoms: C_1  and  C_10
    2  A    between atoms: C_2  and  O_24
    3  A    between atoms: C_10  and  O_24
                            x       y       z     vdW  Elec       q    Type
                         _______ _______ _______ _____ _____    ______ ____

>  <TORSDO>
F 3

$$$$
=
 OpenBabel10262421373D

 32 37  0  0  1  0  0  0  0  0999 V2000
  181.5470  179.1140  140.8250 C   0  0  1  0  0  3  0  0  0  0  0  0
  186.6100  178.0970  141.1320 C   0  0  0  0  0  0  0  0  0  0  0  0
  187.4830  177.7560  145.9120 C   0  0  0  0  0  3  0  0  0  0  0  0
  188.8180  177.4460  145.6510 C   0  0  0  0  0  3  0  0  0  0  0  0
  188.4670  177.6540  139.5160 C   0  0  0  0  0  0  0  0  0  0  0  0
  189.8140  177.3250  139.3440 C   0  0  0  0  0  0  0  0  0  0  0  0
  184.4480  179.0340  140.3940 C   0  0  2  0  0  3  0  0  0  0  0  0
  184.7740  178.4290  142.7230 N   0  0  0  0  0  2  0  0  0  0  0  0
  192.0390  176.7620  140.0880 C   0  0  1  0  0  3  0  0  0  0  0  0
  182.5370  179.1420  141.9970 C   0  0  0  0  0  2  0  0  0  0  0  0
  186.6010  177.9890  144.8560 C   0  0  0  0  0  3  0  0  0  0  0  0
  186.1580  178.1460  142.4680 C   0  0  0  0  0  0  0  0  0  0  0  0
  187.0440  177.9160  143.5270 C   0  0  0  0  0  0  0  0  0  0  0  0
  188.8490  177.5130  141.9300 C   0  0  0  0  0  0  0  0  0  0  0  0
  192.1460  176.7150  138.2520 S   0  0  0  0  0  0  0  0  0  0  0  0
  182.1920  179.6550  139.5410 C   0  0  0  0  0  2  0  0  0  0  0  0
  183.8150  178.3990  141.6270 C   0  0  1  0  0  3  0  0  0  0  0  0
  190.4470  177.1760  138.0880 N   0  0  0  0  0  2  0  0  0  0  0  0
  183.4960  178.9260  139.2120 C   0  0  0  0  0  2  0  0  0  0  0  0
  189.2720  177.3670  144.3320 C   0  0  0  0  0  3  0  0  0  0  0  0
  188.3950  177.6000  143.2590 C   0  0  0  0  0  0  0  0  0  0  0  0
  190.1530  177.1970  141.6850 N   0  0  0  0  0  0  0  0  0  0  0  0
  185.6910  178.3940  140.1130 O   0  0  0  0  0  0  0  0  0  0  0  0
  187.4990  177.9040  138.0610 Cl  0  0  0  0  0  0  0  0  0  0  0  0
  192.9780  177.8300  140.6150 C   0  0  0  0  0  1  0  0  0  0  0  0
  187.9550  177.7570  140.8430 C   0  0  0  0  0  0  0  0  0  0  0  0
  190.6310  177.1100  140.4210 C   0  0  0  0  0  0  0  0  0  0  0  0
  181.0770  177.8130  140.6200 O   0  0  0  0  0  0  0  0  0  0  0  0
  179.9240  177.9660  139.8460 C   0  0  0  0  0  2  0  0  0  0  0  0
  179.7460  176.7730  138.9770 C   0  0  0  0  0  0  0  0  0  0  0  0
  179.5710  176.9320  137.6090 O   0  0  0  0  0  0  0  0  0  0  0  0
  179.7940  175.6180  139.4750 O   0  0  0  0  0  1  0  0  0  0  0  0
  1 28  1  6  0  0  0
  1 10  1  0  0  0  0
  2 12  1  0  0  0  0
  4  3  1  0  0  0  0
  5 26  1  0  0  0  0
  6  5  2  0  0  0  0
  6 27  1  0  0  0  0
  7 19  1  6  0  0  0
  7 17  1  0  0  0  0
  9 27  1  0  0  0  0
  9 25  1  6  0  0  0
 11  3  2  0  0  0  0
 12  8  1  0  0  0  0
 12 13  2  0  0  0  0
 13 11  1  0  0  0  0
 14 21  2  0  0  0  0
 15  9  1  0  0  0  0
 16  1  1  0  0  0  0
 17 10  1  1  0  0  0
 17  8  1  0  0  0  0
 18 15  1  0  0  0  0
 18  6  1  0  0  0  0
 19 16  1  0  0  0  0
 20  4  2  0  0  0  0
 21 13  1  0  0  0  0
 21 20  1  0  0  0  0
 22 14  1  0  0  0  0
 23  7  1  0  0  0  0
 23  2  1  0  0  0  0
 24  5  1  0  0  0  0
 26  2  2  0  0  0  0
 26 14  1  0  0  0  0
 27 22  2  0  0  0  0
 29 28  1  0  0  0  0
 30 32  1  0  0  0  0
 30 29  1  0  0  0  0
 31 30  2  0  0  0  0
M  END
>  <MODEL>
9

>  <REMARK>
 VINA RESULT:      -7.5      3.658      5.526
  Name = 
  3 active torsions:
  status: ('A' for Active; 'I' for Inactive)
    1  A    between atoms: C_1  and  C_10
    2  A    between atoms: C_2  and  O_24
    3  A    between atoms: C_10  and  O_24
                            x       y       z     vdW  Elec       q    Type
                         _______ _______ _______ _____ _____    ______ ____

>  <TORSDO>
F 3

$$$$
