=
 OpenBabel10262423343D

 34 37  0  0  1  0  0  0  0  0999 V2000
  183.1570  178.3990  139.5370 C   0  0  1  0  0  0  0  0  0  0  0  0
  182.1290  175.3560  137.9600 C   0  0  0  0  0  2  0  0  0  0  0  0
  181.1570  177.5790  138.4490 C   0  0  1  0  0  3  0  0  0  0  0  0
  184.1970  179.5210  139.4600 C   0  0  0  0  0  1  0  0  0  0  0  0
  181.7620  178.8330  139.0670 C   0  0  2  0  0  3  0  0  0  0  0  0
  182.7850  174.7180  136.7390 C   0  0  0  0  0  2  0  0  0  0  0  0
  184.2900  175.0230  136.6120 C   0  0  1  0  0  3  0  0  0  0  0  0
  184.6530  176.5040  136.4480 C   0  0  0  0  0  2  0  0  0  0  0  0
  182.2850  176.8110  137.8960 N   0  0  1  0  0  0  0  0  0  0  0  0
  184.7090  177.3060  137.7580 C   0  0  0  0  0  2  0  0  0  0  0  0
  183.4740  177.1590  138.6680 C   0  0  1  0  0  3  0  0  0  0  0  0
  185.3120  174.1610  137.3780 C   0  0  0  0  0  3  0  0  0  0  0  0
  184.7980  172.7460  137.5760 C   0  0  0  0  0  2  0  0  0  0  0  0
  185.8870  173.0160  136.5600 C   0  0  0  0  0  2  0  0  0  0  0  0
  181.0320  179.7330  136.7740 C   0  0  0  0  0  1  0  0  0  0  0  0
  181.7140  180.0380  138.1020 C   0  0  0  0  0  3  0  0  0  0  0  0
  181.0350  181.2220  138.7620 C   0  0  0  0  0  1  0  0  0  0  0  0
  180.3690  176.8650  139.4770 C   0  0  0  0  0  0  0  0  0  0  0  0
  179.7230  176.2900  140.3190 C   0  0  0  0  0  3  0  0  0  0  0  0
  183.0140  178.0060  141.0130 C   0  0  0  0  0  2  0  0  0  0  0  0
  183.9180  178.7420  141.8910 N   0  0  0  0  0  0  0  0  0  0  0  0
  184.8150  177.7380  142.4450 C   0  0  0  0  0  2  0  0  0  0  0  0
  189.0170  177.7760  142.7680 C   0  0  2  0  0  3  0  0  0  0  0  0
  188.2430  177.9120  144.0110 N   0  0  0  0  0  2  0  0  0  0  0  0
  186.8700  177.4430  143.8080 C   0  0  0  0  0  2  0  0  0  0  0  0
  186.9700  178.5760  141.5790 C   0  0  0  0  0  3  0  0  0  0  0  0
  186.1450  178.3660  142.8240 C   0  0  1  0  0  3  0  0  0  0  0  0
  188.2820  178.3120  141.5570 C   0  0  0  0  0  3  0  0  0  0  0  0
  189.5520  176.3540  142.5710 C   0  0  0  0  0  2  0  0  0  0  0  0
  191.6960  177.2830  142.6560 C   0  0  0  0  0  1  0  0  0  0  0  0
  190.8780  176.1920  143.1510 N   0  0  0  0  0  2  0  0  0  0  0  0
  183.1240  179.2620  142.9980 C   0  0  0  0  0  2  0  0  0  0  0  0
  180.9550  178.6030  144.0210 C   0  0  0  0  0  1  0  0  0  0  0  0
  181.6450  179.0160  142.7390 C   0  0  0  0  0  2  0  0  0  0  0  0
  1  4  1  6  0  0  0
  1 20  1  0  0  0  0
  3  5  1  0  0  0  0
  3 18  1  1  0  0  0
  5 16  1  6  0  0  0
  5  1  1  0  0  0  0
  6  2  1  0  0  0  0
  7  6  1  0  0  0  0
  7 12  1  1  0  0  0
  8  7  1  0  0  0  0
  8 10  1  0  0  0  0
  9  2  1  1  0  0  0
  9  3  1  0  0  0  0
  9 11  1  0  0  0  0
 11 10  1  6  0  0  0
 11  1  1  0  0  0  0
 12 13  1  0  0  0  0
 14 12  1  0  0  0  0
 14 13  1  0  0  0  0
 15 16  1  0  0  0  0
 16 17  1  0  0  0  0
 18 19  3  0  0  0  0
 20 21  1  0  0  0  0
 21 22  1  0  0  0  0
 21 32  1  0  0  0  0
 23 29  1  6  0  0  0
 23 24  1  0  0  0  0
 25 24  1  0  0  0  0
 26 27  1  0  0  0  0
 27 22  1  6  0  0  0
 27 25  1  0  0  0  0
 28 26  2  0  0  0  0
 28 23  1  0  0  0  0
 29 31  1  0  0  0  0
 30 31  1  0  0  0  0
 34 32  1  0  0  0  0
 34 33  1  0  0  0  0
M  END
>  <MODEL>
1

>  <REMARK>
 VINA RESULT:      -5.6      0.000      0.000
  Name = 
  11 active torsions:
  status: ('A' for Active; 'I' for Inactive)
    1  A    between atoms: C_1  and  C_8
    2  A    between atoms: C_3  and  C_25
    3  A    between atoms: C_5  and  C_19
    4  A    between atoms: C_6  and  N_18
    5  A    between atoms: C_6  and  C_28
    6  A    between atoms: C_7  and  C_11
    7  A    between atoms: C_8  and  N_18
    8  A    between atoms: C_11  and  N_21
    9  A    between atoms: C_12  and  C_20
   10  A    between atoms: N_18  and  C_30
   11  A    between atoms: C_30  and  C_31
                            x       y       z     vdW  Elec       q    Type
                         _______ _______ _______ _____ _____    ______ ____

>  <TORSDO>
F 11

$$$$
=
 OpenBabel10262423343D

 34 37  0  0  1  0  0  0  0  0999 V2000
  183.4950  178.2990  139.5690 C   0  0  1  0  0  0  0  0  0  0  0  0
  182.0350  175.2950  138.2830 C   0  0  0  0  0  2  0  0  0  0  0  0
  181.2920  177.5830  138.8650 C   0  0  1  0  0  3  0  0  0  0  0  0
  184.5670  179.3530  139.2810 C   0  0  0  0  0  1  0  0  0  0  0  0
  182.0670  178.8090  139.3320 C   0  0  2  0  0  3  0  0  0  0  0  0
  182.4320  174.5940  136.9880 C   0  0  0  0  0  2  0  0  0  0  0  0
  183.9080  174.8030  136.5950 C   0  0  1  0  0  3  0  0  0  0  0  0
  184.3210  176.2550  136.3260 C   0  0  0  0  0  2  0  0  0  0  0  0
  182.2620  176.7360  138.1500 N   0  0  1  0  0  0  0  0  0  0  0  0
  184.6490  177.0780  137.5830 C   0  0  0  0  0  2  0  0  0  0  0  0
  183.5840  177.0250  138.6960 C   0  0  1  0  0  3  0  0  0  0  0  0
  184.9960  173.8950  137.2000 C   0  0  0  0  0  3  0  0  0  0  0  0
  184.4820  172.4800  137.3970 C   0  0  0  0  0  2  0  0  0  0  0  0
  185.4500  172.7790  136.2720 C   0  0  0  0  0  2  0  0  0  0  0  0
  181.2790  179.6200  137.0250 C   0  0  0  0  0  1  0  0  0  0  0  0
  181.9210  179.9950  138.3540 C   0  0  0  0  0  3  0  0  0  0  0  0
  181.1360  181.1230  138.9960 C   0  0  0  0  0  1  0  0  0  0  0  0
  180.6550  176.9390  140.0340 C   0  0  0  0  0  0  0  0  0  0  0  0
  180.1260  176.4110  140.9830 C   0  0  0  0  0  3  0  0  0  0  0  0
  183.5870  177.9440  141.0580 C   0  0  0  0  0  2  0  0  0  0  0  0
  183.4930  179.1110  141.9310 N   0  0  0  0  0  0  0  0  0  0  0  0
  184.8450  179.3280  142.4250 C   0  0  0  0  0  2  0  0  0  0  0  0
  187.6280  177.1470  144.7190 C   0  0  2  0  0  3  0  0  0  0  0  0
  187.4280  176.7290  143.3250 N   0  0  0  0  0  2  0  0  0  0  0  0
  186.8050  177.8090  142.5540 C   0  0  0  0  0  2  0  0  0  0  0  0
  185.3760  178.2190  144.5660 C   0  0  0  0  0  3  0  0  0  0  0  0
  185.3850  178.0610  143.0670 C   0  0  1  0  0  3  0  0  0  0  0  0
  186.3990  177.7960  145.3200 C   0  0  0  0  0  3  0  0  0  0  0  0
  188.9000  177.9830  144.8980 C   0  0  0  0  0  2  0  0  0  0  0  0
  189.8260  177.1210  146.8650 C   0  0  0  0  0  1  0  0  0  0  0  0
  189.9980  177.1850  145.4260 N   0  0  0  0  0  2  0  0  0  0  0  0
  182.6750  178.7340  143.0770 C   0  0  0  0  0  2  0  0  0  0  0  0
  180.3320  178.6300  143.9050 C   0  0  0  0  0  1  0  0  0  0  0  0
  181.2710  179.2980  142.9240 C   0  0  0  0  0  2  0  0  0  0  0  0
  1  4  1  6  0  0  0
  1 20  1  0  0  0  0
  3  5  1  0  0  0  0
  3 18  1  1  0  0  0
  5 16  1  6  0  0  0
  5  1  1  0  0  0  0
  6  2  1  0  0  0  0
  7  6  1  0  0  0  0
  7 12  1  1  0  0  0
  8  7  1  0  0  0  0
  8 10  1  0  0  0  0
  9  2  1  1  0  0  0
  9 11  1  0  0  0  0
  9  3  1  0  0  0  0
 11 10  1  6  0  0  0
 11  1  1  0  0  0  0
 12 13  1  0  0  0  0
 14 12  1  0  0  0  0
 14 13  1  0  0  0  0
 15 16  1  0  0  0  0
 16 17  1  0  0  0  0
 18 19  3  0  0  0  0
 20 21  1  0  0  0  0
 21 22  1  0  0  0  0
 21 32  1  0  0  0  0
 23 29  1  6  0  0  0
 23 28  1  0  0  0  0
 24 23  1  0  0  0  0
 25 27  1  0  0  0  0
 25 24  1  0  0  0  0
 26 28  2  0  0  0  0
 27 22  1  6  0  0  0
 27 26  1  0  0  0  0
 29 31  1  0  0  0  0
 31 30  1  0  0  0  0
 34 32  1  0  0  0  0
 34 33  1  0  0  0  0
M  END
>  <MODEL>
2

>  <REMARK>
 VINA RESULT:      -5.6      1.205      1.584
  Name = 
  11 active torsions:
  status: ('A' for Active; 'I' for Inactive)
    1  A    between atoms: C_1  and  C_8
    2  A    between atoms: C_3  and  C_25
    3  A    between atoms: C_5  and  C_19
    4  A    between atoms: C_6  and  N_18
    5  A    between atoms: C_6  and  C_28
    6  A    between atoms: C_7  and  C_11
    7  A    between atoms: C_8  and  N_18
    8  A    between atoms: C_11  and  N_21
    9  A    between atoms: C_12  and  C_20
   10  A    between atoms: N_18  and  C_30
   11  A    between atoms: C_30  and  C_31
                            x       y       z     vdW  Elec       q    Type
                         _______ _______ _______ _____ _____    ______ ____

>  <TORSDO>
F 11

$$$$
=
 OpenBabel10262423343D

 34 37  0  0  1  0  0  0  0  0999 V2000
  182.5270  178.3560  138.6100 C   0  0  1  0  0  0  0  0  0  0  0  0
  180.0930  180.3310  140.3370 C   0  0  0  0  0  2  0  0  0  0  0  0
  180.7540  179.8850  137.9940 C   0  0  1  0  0  3  0  0  0  0  0  0
  183.0010  176.9150  138.4010 C   0  0  0  0  0  1  0  0  0  0  0  0
  181.7790  178.9280  137.3980 C   0  0  2  0  0  3  0  0  0  0  0  0
  179.0060  179.7970  141.2650 C   0  0  0  0  0  2  0  0  0  0  0  0
  179.3910  178.4890  141.9840 C   0  0  1  0  0  3  0  0  0  0  0  0
  179.6660  177.2890  141.0700 C   0  0  0  0  0  2  0  0  0  0  0  0
  180.3980  179.3310  139.3120 N   0  0  1  0  0  0  0  0  0  0  0  0
  181.0790  177.2470  140.4660 C   0  0  0  0  0  2  0  0  0  0  0  0
  181.5370  178.5510  139.7840 C   0  0  1  0  0  3  0  0  0  0  0  0
  180.2120  178.5460  143.2870 C   0  0  0  0  0  3  0  0  0  0  0  0
  179.3910  179.1200  144.4280 C   0  0  0  0  0  2  0  0  0  0  0  0
  179.6850  177.6360  144.3850 C   0  0  0  0  0  2  0  0  0  0  0  0
  179.6310  178.0940  136.2630 C   0  0  0  0  0  1  0  0  0  0  0  0
  181.1290  177.8970  136.4500 C   0  0  0  0  0  3  0  0  0  0  0  0
  181.8160  177.9090  135.0980 C   0  0  0  0  0  1  0  0  0  0  0  0
  181.3280  181.2470  138.0330 C   0  0  0  0  0  0  0  0  0  0  0  0
  181.8010  182.3570  138.0730 C   0  0  0  0  0  3  0  0  0  0  0  0
  183.7740  179.2270  138.8010 C   0  0  0  0  0  2  0  0  0  0  0  0
  184.8940  178.5010  139.3930 N   0  0  0  0  0  0  0  0  0  0  0  0
  185.1820  179.1930  140.6410 C   0  0  0  0  0  2  0  0  0  0  0  0
  184.9920  178.2980  144.7550 C   0  0  2  0  0  3  0  0  0  0  0  0
  185.9880  177.5740  143.9520 N   0  0  0  0  0  2  0  0  0  0  0  0
  186.2400  178.2840  142.6950 C   0  0  0  0  0  2  0  0  0  0  0  0
  183.7760  178.7050  142.6110 C   0  0  0  0  0  3  0  0  0  0  0  0
  184.9820  178.2600  141.8230 C   0  0  1  0  0  3  0  0  0  0  0  0
  183.7800  178.7160  143.9500 C   0  0  0  0  0  3  0  0  0  0  0  0
  185.6150  179.4490  145.5520 C   0  0  0  0  0  2  0  0  0  0  0  0
  186.6570  178.3170  147.3130 C   0  0  0  0  0  1  0  0  0  0  0  0
  185.5560  179.2050  146.9860 N   0  0  0  0  0  2  0  0  0  0  0  0
  186.0470  178.6920  138.5230 C   0  0  0  0  0  2  0  0  0  0  0  0
  188.4840  178.2700  138.2620 C   0  0  0  0  0  1  0  0  0  0  0  0
  187.2540  177.9580  139.0870 C   0  0  0  0  0  2  0  0  0  0  0  0
  1  4  1  6  0  0  0
  1 20  1  0  0  0  0
  1 11  1  0  0  0  0
  2  6  1  0  0  0  0
  3 18  1  1  0  0  0
  3  9  1  0  0  0  0
  5 16  1  1  0  0  0
  5  3  1  0  0  0  0
  5  1  1  0  0  0  0
  6  7  1  0  0  0  0
  7 12  1  6  0  0  0
  8  7  1  0  0  0  0
  9 11  1  0  0  0  0
  9  2  1  1  0  0  0
 10  8  1  0  0  0  0
 11 10  1  6  0  0  0
 12 14  1  0  0  0  0
 12 13  1  0  0  0  0
 14 13  1  0  0  0  0
 15 16  1  0  0  0  0
 17 16  1  0  0  0  0
 18 19  3  0  0  0  0
 20 21  1  0  0  0  0
 21 22  1  0  0  0  0
 23 29  1  6  0  0  0
 24 23  1  0  0  0  0
 25 24  1  0  0  0  0
 26 28  2  0  0  0  0
 27 22  1  6  0  0  0
 27 26  1  0  0  0  0
 27 25  1  0  0  0  0
 28 23  1  0  0  0  0
 29 31  1  0  0  0  0
 31 30  1  0  0  0  0
 32 34  1  0  0  0  0
 32 21  1  0  0  0  0
 33 34  1  0  0  0  0
M  END
>  <MODEL>
3

>  <REMARK>
 VINA RESULT:      -5.5      2.580      5.625
  Name = 
  11 active torsions:
  status: ('A' for Active; 'I' for Inactive)
    1  A    between atoms: C_1  and  C_8
    2  A    between atoms: C_3  and  C_25
    3  A    between atoms: C_5  and  C_19
    4  A    between atoms: C_6  and  N_18
    5  A    between atoms: C_6  and  C_28
    6  A    between atoms: C_7  and  C_11
    7  A    between atoms: C_8  and  N_18
    8  A    between atoms: C_11  and  N_21
    9  A    between atoms: C_12  and  C_20
   10  A    between atoms: N_18  and  C_30
   11  A    between atoms: C_30  and  C_31
                            x       y       z     vdW  Elec       q    Type
                         _______ _______ _______ _____ _____    ______ ____

>  <TORSDO>
F 11

$$$$
=
 OpenBabel10262423343D

 34 37  0  0  1  0  0  0  0  0999 V2000
  182.2170  178.4150  138.1770 C   0  0  1  0  0  0  0  0  0  0  0  0
  179.9210  180.1730  136.0680 C   0  0  0  0  0  2  0  0  0  0  0  0
  180.0010  178.0200  137.2860 C   0  0  1  0  0  3  0  0  0  0  0  0
  182.9830  178.5210  139.4980 C   0  0  0  0  0  1  0  0  0  0  0  0
  181.0380  177.4350  138.2370 C   0  0  2  0  0  3  0  0  0  0  0  0
  179.3180  181.5450  136.3530 C   0  0  0  0  0  2  0  0  0  0  0  0
  180.2220  182.4550  137.2070 C   0  0  1  0  0  3  0  0  0  0  0  0
  180.5450  181.9350  138.6130 C   0  0  0  0  0  2  0  0  0  0  0  0
  180.1850  179.4810  137.3310 N   0  0  1  0  0  0  0  0  0  0  0  0
  181.6920  180.9140  138.6780 C   0  0  0  0  0  2  0  0  0  0  0  0
  181.5770  179.7380  137.6890 C   0  0  1  0  0  3  0  0  0  0  0  0
  181.3260  183.2900  136.5290 C   0  0  0  0  0  3  0  0  0  0  0  0
  180.8000  183.9900  135.2880 C   0  0  0  0  0  2  0  0  0  0  0  0
  181.0630  184.7870  136.5470 C   0  0  0  0  0  2  0  0  0  0  0  0
  179.0460  177.7120  139.8350 C   0  0  0  0  0  1  0  0  0  0  0  0
  180.4510  177.1600  139.6390 C   0  0  0  0  0  3  0  0  0  0  0  0
  180.4600  175.6740  139.9390 C   0  0  0  0  0  1  0  0  0  0  0  0
  180.1760  177.4170  135.9470 C   0  0  0  0  0  0  0  0  0  0  0  0
  180.3190  176.9160  134.8580 C   0  0  0  0  0  3  0  0  0  0  0  0
  183.1870  177.8630  137.1260 C   0  0  0  0  0  2  0  0  0  0  0  0
  184.3120  177.1380  137.7100 N   0  0  0  0  0  0  0  0  0  0  0  0
  185.4350  177.3950  136.8210 C   0  0  0  0  0  2  0  0  0  0  0  0
  189.1540  178.5600  138.4270 C   0  0  2  0  0  3  0  0  0  0  0  0
  187.9790  178.6600  139.3050 N   0  0  0  0  0  2  0  0  0  0  0  0
  186.8880  177.8290  138.7880 C   0  0  0  0  0  2  0  0  0  0  0  0
  187.5480  178.6350  136.5140 C   0  0  0  0  0  3  0  0  0  0  0  0
  186.3940  178.3910  137.4520 C   0  0  1  0  0  3  0  0  0  0  0  0
  188.8070  178.7190  136.9610 C   0  0  0  0  0  3  0  0  0  0  0  0
  189.9920  177.3110  138.7180 C   0  0  0  0  0  2  0  0  0  0  0  0
  191.8840  176.4710  137.6300 C   0  0  0  0  0  1  0  0  0  0  0  0
  190.4550  176.6760  137.4920 N   0  0  0  0  0  2  0  0  0  0  0  0
  184.0100  175.7150  137.6160 C   0  0  0  0  0  2  0  0  0  0  0  0
  182.4910  174.2410  136.3110 C   0  0  0  0  0  1  0  0  0  0  0  0
  183.4780  175.3850  136.2300 C   0  0  0  0  0  2  0  0  0  0  0  0
  1  5  1  0  0  0  0
  1  4  1  1  0  0  0
  2  6  1  0  0  0  0
  3 18  1  6  0  0  0
  3  9  1  0  0  0  0
  3  5  1  0  0  0  0
  5 16  1  1  0  0  0
  6  7  1  0  0  0  0
  7 12  1  6  0  0  0
  7  8  1  0  0  0  0
  8 10  1  0  0  0  0
  9  2  1  6  0  0  0
  9 11  1  0  0  0  0
 11  1  1  0  0  0  0
 11 10  1  1  0  0  0
 12 14  1  0  0  0  0
 13 12  1  0  0  0  0
 13 14  1  0  0  0  0
 16 15  1  0  0  0  0
 16 17  1  0  0  0  0
 19 18  3  0  0  0  0
 20 21  1  0  0  0  0
 20  1  1  0  0  0  0
 22 21  1  0  0  0  0
 23 29  1  6  0  0  0
 23 24  1  0  0  0  0
 25 24  1  0  0  0  0
 26 28  2  0  0  0  0
 26 27  1  0  0  0  0
 27 22  1  6  0  0  0
 27 25  1  0  0  0  0
 28 23  1  0  0  0  0
 31 30  1  0  0  0  0
 31 29  1  0  0  0  0
 32 21  1  0  0  0  0
 34 33  1  0  0  0  0
 34 32  1  0  0  0  0
M  END
>  <MODEL>
4

>  <REMARK>
 VINA RESULT:      -4.8      2.940      6.073
  Name = 
  11 active torsions:
  status: ('A' for Active; 'I' for Inactive)
    1  A    between atoms: C_1  and  C_8
    2  A    between atoms: C_3  and  C_25
    3  A    between atoms: C_5  and  C_19
    4  A    between atoms: C_6  and  N_18
    5  A    between atoms: C_6  and  C_28
    6  A    between atoms: C_7  and  C_11
    7  A    between atoms: C_8  and  N_18
    8  A    between atoms: C_11  and  N_21
    9  A    between atoms: C_12  and  C_20
   10  A    between atoms: N_18  and  C_30
   11  A    between atoms: C_30  and  C_31
                            x       y       z     vdW  Elec       q    Type
                         _______ _______ _______ _____ _____    ______ ____

>  <TORSDO>
F 11

$$$$
=
 OpenBabel10262423343D

 34 37  0  0  1  0  0  0  0  0999 V2000
  188.9360  177.1640  137.7290 C   0  0  1  0  0  0  0  0  0  0  0  0
  189.9010  173.8980  136.6300 C   0  0  0  0  0  2  0  0  0  0  0  0
  188.0820  175.5140  136.1780 C   0  0  1  0  0  3  0  0  0  0  0  0
  189.4150  178.6170  137.7990 C   0  0  0  0  0  1  0  0  0  0  0  0
  187.8480  176.9360  136.6710 C   0  0  2  0  0  3  0  0  0  0  0  0
  191.2140  173.5410  135.9390 C   0  0  0  0  0  2  0  0  0  0  0  0
  192.3920  174.4530  136.3340 C   0  0  1  0  0  3  0  0  0  0  0  0
  192.2260  175.9370  135.9830 C   0  0  0  0  0  2  0  0  0  0  0  0
  189.5310  175.2750  136.2960 N   0  0  1  0  0  0  0  0  0  0  0  0
  191.3960  176.7510  136.9890 C   0  0  0  0  0  2  0  0  0  0  0  0
  190.0330  176.1360  137.3620 C   0  0  1  0  0  3  0  0  0  0  0  0
  193.1990  174.1500  137.6110 C   0  0  0  0  0  3  0  0  0  0  0  0
  194.0640  172.9150  137.4340 C   0  0  0  0  0  2  0  0  0  0  0  0
  194.7030  174.2870  137.4340 C   0  0  0  0  0  2  0  0  0  0  0  0
  189.0160  177.8940  134.5940 C   0  0  0  0  0  1  0  0  0  0  0  0
  187.8020  177.9540  135.5110 C   0  0  0  0  0  3  0  0  0  0  0  0
  186.5380  177.7730  134.6930 C   0  0  0  0  0  1  0  0  0  0  0  0
  187.2380  174.5840  136.9590 C   0  0  0  0  0  0  0  0  0  0  0  0
  186.5470  173.8200  137.5890 C   0  0  0  0  0  3  0  0  0  0  0  0
  188.3040  176.8220  139.0830 C   0  0  0  0  0  2  0  0  0  0  0  0
  188.5890  177.8150  140.1150 N   0  0  0  0  0  0  0  0  0  0  0  0
  189.3740  177.1100  141.1170 C   0  0  0  0  0  2  0  0  0  0  0  0
  190.3090  177.7000  145.1850 C   0  0  2  0  0  3  0  0  0  0  0  0
  188.9860  177.1400  144.8700 N   0  0  0  0  0  2  0  0  0  0  0  0
  188.9780  176.5880  143.5130 C   0  0  0  0  0  2  0  0  0  0  0  0
  190.3230  178.5900  142.8500 C   0  0  0  0  0  3  0  0  0  0  0  0
  189.1490  177.7160  142.4910 C   0  0  1  0  0  3  0  0  0  0  0  0
  190.8480  178.5860  144.0820 C   0  0  0  0  0  3  0  0  0  0  0  0
  191.3020  176.6240  145.6360 C   0  0  0  0  0  2  0  0  0  0  0  0
  192.4310  175.6100  147.4160 C   0  0  0  0  0  1  0  0  0  0  0  0
  191.6740  176.7880  147.0350 N   0  0  0  0  0  2  0  0  0  0  0  0
  187.3220  178.1730  140.7390 C   0  0  0  0  0  2  0  0  0  0  0  0
  184.9910  178.9330  140.3190 C   0  0  0  0  0  1  0  0  0  0  0  0
  186.3260  178.6210  139.6790 C   0  0  0  0  0  2  0  0  0  0  0  0
  1  4  1  6  0  0  0
  1 20  1  0  0  0  0
  3  9  1  0  0  0  0
  3  5  1  0  0  0  0
  3 18  1  1  0  0  0
  5 16  1  6  0  0  0
  5  1  1  0  0  0  0
  6  7  1  0  0  0  0
  6  2  1  0  0  0  0
  7 12  1  1  0  0  0
  8  7  1  0  0  0  0
  8 10  1  0  0  0  0
  9  2  1  1  0  0  0
  9 11  1  0  0  0  0
 11 10  1  6  0  0  0
 11  1  1  0  0  0  0
 13 14  1  0  0  0  0
 13 12  1  0  0  0  0
 14 12  1  0  0  0  0
 15 16  1  0  0  0  0
 17 16  1  0  0  0  0
 18 19  3  0  0  0  0
 20 21  1  0  0  0  0
 21 32  1  0  0  0  0
 21 22  1  0  0  0  0
 23 29  1  6  0  0  0
 24 23  1  0  0  0  0
 25 24  1  0  0  0  0
 26 28  2  0  0  0  0
 27 22  1  6  0  0  0
 27 26  1  0  0  0  0
 27 25  1  0  0  0  0
 28 23  1  0  0  0  0
 29 31  1  0  0  0  0
 31 30  1  0  0  0  0
 34 33  1  0  0  0  0
 34 32  1  0  0  0  0
M  END
>  <MODEL>
5

>  <REMARK>
 VINA RESULT:      -4.6      4.152      6.373
  Name = 
  11 active torsions:
  status: ('A' for Active; 'I' for Inactive)
    1  A    between atoms: C_1  and  C_8
    2  A    between atoms: C_3  and  C_25
    3  A    between atoms: C_5  and  C_19
    4  A    between atoms: C_6  and  N_18
    5  A    between atoms: C_6  and  C_28
    6  A    between atoms: C_7  and  C_11
    7  A    between atoms: C_8  and  N_18
    8  A    between atoms: C_11  and  N_21
    9  A    between atoms: C_12  and  C_20
   10  A    between atoms: N_18  and  C_30
   11  A    between atoms: C_30  and  C_31
                            x       y       z     vdW  Elec       q    Type
                         _______ _______ _______ _____ _____    ______ ____

>  <TORSDO>
F 11

$$$$
=
 OpenBabel10262423343D

 34 37  0  0  1  0  0  0  0  0999 V2000
  183.7840  178.5870  139.1850 C   0  0  1  0  0  0  0  0  0  0  0  0
  184.7240  175.5040  137.6290 C   0  0  0  0  0  2  0  0  0  0  0  0
  182.6860  176.8900  137.8520 C   0  0  1  0  0  3  0  0  0  0  0  0
  184.0970  180.0850  139.2080 C   0  0  0  0  0  1  0  0  0  0  0  0
  182.4570  178.2550  138.4890 C   0  0  2  0  0  3  0  0  0  0  0  0
  185.7950  175.3370  136.5550 C   0  0  0  0  0  2  0  0  0  0  0  0
  186.9280  176.3780  136.6400 C   0  0  1  0  0  3  0  0  0  0  0  0
  186.4990  177.8390  136.4570 C   0  0  0  0  0  2  0  0  0  0  0  0
  184.1190  176.8330  137.5150 N   0  0  1  0  0  0  0  0  0  0  0  0
  185.9310  178.5100  137.7180 C   0  0  0  0  0  2  0  0  0  0  0  0
  184.8240  177.7170  138.4380 C   0  0  1  0  0  3  0  0  0  0  0  0
  188.1150  176.1400  137.5940 C   0  0  0  0  0  3  0  0  0  0  0  0
  189.1150  175.1690  136.9940 C   0  0  0  0  0  2  0  0  0  0  0  0
  189.4450  176.6450  137.0580 C   0  0  0  0  0  2  0  0  0  0  0  0
  181.6010  178.7010  136.1080 C   0  0  0  0  0  1  0  0  0  0  0  0
  181.9470  179.2950  137.4670 C   0  0  0  0  0  3  0  0  0  0  0  0
  180.7460  180.0390  138.0170 C   0  0  0  0  0  1  0  0  0  0  0  0
  182.2290  175.8380  138.7850 C   0  0  0  0  0  0  0  0  0  0  0  0
  181.8640  174.9810  139.5530 C   0  0  0  0  0  3  0  0  0  0  0  0
  183.6370  178.1260  140.6400 C   0  0  0  0  0  2  0  0  0  0  0  0
  183.4230  179.2300  141.5710 N   0  0  0  0  0  0  0  0  0  0  0  0
  184.7350  179.5120  142.1360 C   0  0  0  0  0  2  0  0  0  0  0  0
  187.7820  177.3110  144.0410 C   0  0  2  0  0  3  0  0  0  0  0  0
  187.5650  177.0630  142.6080 N   0  0  0  0  0  2  0  0  0  0  0  0
  186.8220  178.1740  142.0070 C   0  0  0  0  0  2  0  0  0  0  0  0
  185.4420  178.1850  144.0940 C   0  0  0  0  0  3  0  0  0  0  0  0
  185.4060  178.2270  142.5870 C   0  0  1  0  0  3  0  0  0  0  0  0
  186.5260  177.7600  144.7560 C   0  0  0  0  0  3  0  0  0  0  0  0
  188.9840  178.2270  144.2960 C   0  0  0  0  0  2  0  0  0  0  0  0
  191.3070  178.4920  144.3230 C   0  0  0  0  0  1  0  0  0  0  0  0
  190.2450  177.5420  144.0480 N   0  0  0  0  0  2  0  0  0  0  0  0
  182.5890  178.7300  142.6570 C   0  0  0  0  0  2  0  0  0  0  0  0
  180.2500  178.4100  143.4400 C   0  0  0  0  0  1  0  0  0  0  0  0
  181.1200  178.8280  142.2740 C   0  0  0  0  0  2  0  0  0  0  0  0
  1  4  1  6  0  0  0
  1 20  1  0  0  0  0
  3  5  1  0  0  0  0
  3 18  1  1  0  0  0
  5 16  1  6  0  0  0
  5  1  1  0  0  0  0
  6  7  1  0  0  0  0
  6  2  1  0  0  0  0
  7 12  1  1  0  0  0
  8  7  1  0  0  0  0
  8 10  1  0  0  0  0
  9  2  1  1  0  0  0
  9  3  1  0  0  0  0
  9 11  1  0  0  0  0
 11 10  1  6  0  0  0
 11  1  1  0  0  0  0
 13 14  1  0  0  0  0
 13 12  1  0  0  0  0
 14 12  1  0  0  0  0
 15 16  1  0  0  0  0
 16 17  1  0  0  0  0
 18 19  3  0  0  0  0
 20 21  1  0  0  0  0
 21 22  1  0  0  0  0
 21 32  1  0  0  0  0
 23 29  1  6  0  0  0
 23 28  1  0  0  0  0
 24 23  1  0  0  0  0
 25 27  1  0  0  0  0
 25 24  1  0  0  0  0
 26 28  2  0  0  0  0
 27 22  1  1  0  0  0
 27 26  1  0  0  0  0
 31 29  1  0  0  0  0
 31 30  1  0  0  0  0
 34 32  1  0  0  0  0
 34 33  1  0  0  0  0
M  END
>  <MODEL>
6

>  <REMARK>
 VINA RESULT:      -4.1      1.776      2.287
  Name = 
  11 active torsions:
  status: ('A' for Active; 'I' for Inactive)
    1  A    between atoms: C_1  and  C_8
    2  A    between atoms: C_3  and  C_25
    3  A    between atoms: C_5  and  C_19
    4  A    between atoms: C_6  and  N_18
    5  A    between atoms: C_6  and  C_28
    6  A    between atoms: C_7  and  C_11
    7  A    between atoms: C_8  and  N_18
    8  A    between atoms: C_11  and  N_21
    9  A    between atoms: C_12  and  C_20
   10  A    between atoms: N_18  and  C_30
   11  A    between atoms: C_30  and  C_31
                            x       y       z     vdW  Elec       q    Type
                         _______ _______ _______ _____ _____    ______ ____

>  <TORSDO>
F 11

$$$$
=
 OpenBabel10262423343D

 34 37  0  0  1  0  0  0  0  0999 V2000
  182.7920  178.9540  138.6670 C   0  0  1  0  0  0  0  0  0  0  0  0
  179.4770  179.8810  137.6860 C   0  0  0  0  0  2  0  0  0  0  0  0
  180.5440  178.5030  139.4430 C   0  0  1  0  0  3  0  0  0  0  0  0
  184.1320  179.5310  139.1280 C   0  0  0  0  0  1  0  0  0  0  0  0
  182.0080  178.2680  139.7940 C   0  0  2  0  0  3  0  0  0  0  0  0
  178.9310  181.3050  137.6240 C   0  0  0  0  0  2  0  0  0  0  0  0
  180.0040  182.3700  137.3260 C   0  0  1  0  0  3  0  0  0  0  0  0
  181.1240  182.4900  138.3670 C   0  0  0  0  0  2  0  0  0  0  0  0
  180.4960  179.7930  138.7340 N   0  0  1  0  0  0  0  0  0  0  0  0
  182.2560  181.4600  138.2210 C   0  0  0  0  0  2  0  0  0  0  0  0
  181.7960  179.9940  138.1000 C   0  0  1  0  0  3  0  0  0  0  0  0
  180.4070  182.6620  135.8680 C   0  0  0  0  0  3  0  0  0  0  0  0
  179.1860  182.7710  134.9720 C   0  0  0  0  0  2  0  0  0  0  0  0
  179.9470  184.0200  135.3630 C   0  0  0  0  0  2  0  0  0  0  0  0
  181.1550  178.6700  142.1830 C   0  0  0  0  0  1  0  0  0  0  0  0
  182.3420  178.7240  141.2310 C   0  0  0  0  0  3  0  0  0  0  0  0
  183.4860  177.9060  141.7970 C   0  0  0  0  0  1  0  0  0  0  0  0
  180.0410  177.3520  138.6630 C   0  0  0  0  0  0  0  0  0  0  0  0
  179.6240  176.4180  138.0210 C   0  0  0  0  0  3  0  0  0  0  0  0
  183.0920  177.8690  137.6250 C   0  0  0  0  0  2  0  0  0  0  0  0
  184.1560  176.9580  138.0390 N   0  0  0  0  0  0  0  0  0  0  0  0
  185.1680  177.0550  136.9970 C   0  0  0  0  0  2  0  0  0  0  0  0
  189.3780  177.0080  136.7970 C   0  0  2  0  0  3  0  0  0  0  0  0
  188.7230  175.8940  137.4970 N   0  0  0  0  0  2  0  0  0  0  0  0
  187.3130  175.8080  137.1080 C   0  0  0  0  0  2  0  0  0  0  0  0
  187.2850  178.3070  137.2150 C   0  0  0  0  0  3  0  0  0  0  0  0
  186.5600  177.0450  137.6060 C   0  0  1  0  0  3  0  0  0  0  0  0
  188.5730  178.2900  136.8510 C   0  0  0  0  0  3  0  0  0  0  0  0
  189.8120  176.6270  135.3780 C   0  0  0  0  0  2  0  0  0  0  0  0
  191.8670  175.9700  136.2820 C   0  0  0  0  0  1  0  0  0  0  0  0
  190.8020  175.5580  135.3870 N   0  0  0  0  0  2  0  0  0  0  0  0
  183.6170  175.6050  137.9860 C   0  0  0  0  0  2  0  0  0  0  0  0
  182.1720  174.0550  136.6850 C   0  0  0  0  0  1  0  0  0  0  0  0
  182.9050  175.3780  136.6610 C   0  0  0  0  0  2  0  0  0  0  0  0
  1  4  1  1  0  0  0
  1  5  1  0  0  0  0
  3 18  1  6  0  0  0
  3  5  1  0  0  0  0
  5 16  1  1  0  0  0
  6  2  1  0  0  0  0
  7 12  1  6  0  0  0
  7  6  1  0  0  0  0
  7  8  1  0  0  0  0
  9  2  1  6  0  0  0
  9  3  1  0  0  0  0
 10  8  1  0  0  0  0
 11 10  1  1  0  0  0
 11  1  1  0  0  0  0
 11  9  1  0  0  0  0
 13 14  1  0  0  0  0
 13 12  1  0  0  0  0
 14 12  1  0  0  0  0
 16 17  1  0  0  0  0
 16 15  1  0  0  0  0
 19 18  3  0  0  0  0
 20 21  1  0  0  0  0
 20  1  1  0  0  0  0
 22 21  1  0  0  0  0
 23 29  1  6  0  0  0
 23 28  1  0  0  0  0
 23 24  1  0  0  0  0
 25 24  1  0  0  0  0
 25 27  1  0  0  0  0
 26 27  1  0  0  0  0
 27 22  1  6  0  0  0
 28 26  2  0  0  0  0
 29 31  1  0  0  0  0
 31 30  1  0  0  0  0
 32 21  1  0  0  0  0
 34 33  1  0  0  0  0
 34 32  1  0  0  0  0
M  END
>  <MODEL>
7

>  <REMARK>
 VINA RESULT:      -3.9      3.083      6.222
  Name = 
  11 active torsions:
  status: ('A' for Active; 'I' for Inactive)
    1  A    between atoms: C_1  and  C_8
    2  A    between atoms: C_3  and  C_25
    3  A    between atoms: C_5  and  C_19
    4  A    between atoms: C_6  and  N_18
    5  A    between atoms: C_6  and  C_28
    6  A    between atoms: C_7  and  C_11
    7  A    between atoms: C_8  and  N_18
    8  A    between atoms: C_11  and  N_21
    9  A    between atoms: C_12  and  C_20
   10  A    between atoms: N_18  and  C_30
   11  A    between atoms: C_30  and  C_31
                            x       y       z     vdW  Elec       q    Type
                         _______ _______ _______ _____ _____    ______ ____

>  <TORSDO>
F 11

$$$$
=
 OpenBabel10262423343D

 34 37  0  0  1  0  0  0  0  0999 V2000
  187.8930  176.2280  137.5960 C   0  0  1  0  0  0  0  0  0  0  0  0
  190.5580  176.5240  139.9670 C   0  0  0  0  0  2  0  0  0  0  0  0
  190.2580  176.7390  137.5200 C   0  0  1  0  0  3  0  0  0  0  0  0
  186.5240  176.8020  137.2240 C   0  0  0  0  0  1  0  0  0  0  0  0
  189.0130  176.6670  136.6440 C   0  0  2  0  0  3  0  0  0  0  0  0
  190.6100  177.5090  141.1310 C   0  0  0  0  0  2  0  0  0  0  0  0
  189.2240  177.8960  141.6810 C   0  0  1  0  0  3  0  0  0  0  0  0
  188.2930  178.6040  140.6890 C   0  0  0  0  0  2  0  0  0  0  0  0
  189.7880  177.1070  138.8660 N   0  0  1  0  0  0  0  0  0  0  0  0
  187.5350  177.6700  139.7320 C   0  0  0  0  0  2  0  0  0  0  0  0
  188.4120  176.6380  138.9960 C   0  0  1  0  0  3  0  0  0  0  0  0
  188.5350  176.9920  142.7220 C   0  0  0  0  0  3  0  0  0  0  0  0
  189.4610  176.6910  143.8870 C   0  0  0  0  0  2  0  0  0  0  0  0
  188.3150  177.6630  144.0690 C   0  0  0  0  0  2  0  0  0  0  0  0
  189.0560  179.2350  136.6830 C   0  0  0  0  0  1  0  0  0  0  0  0
  188.7720  177.9800  135.8680 C   0  0  0  0  0  3  0  0  0  0  0  0
  189.5920  178.0050  134.5940 C   0  0  0  0  0  1  0  0  0  0  0  0
  190.9760  175.4480  137.4490 C   0  0  0  0  0  0  0  0  0  0  0  0
  191.5700  174.3980  137.3970 C   0  0  0  0  0  3  0  0  0  0  0  0
  187.7980  174.7010  137.4800 C   0  0  0  0  0  2  0  0  0  0  0  0
  186.8300  174.2630  136.4790 N   0  0  0  0  0  0  0  0  0  0  0  0
  186.0440  173.2280  137.1340 C   0  0  0  0  0  2  0  0  0  0  0  0
  181.9080  173.4000  136.3440 C   0  0  2  0  0  3  0  0  0  0  0  0
  182.5050  172.0690  136.5280 N   0  0  0  0  0  2  0  0  0  0  0  0
  183.7940  172.1820  137.2170 C   0  0  0  0  0  2  0  0  0  0  0  0
  184.2120  174.1960  135.7930 C   0  0  0  0  0  3  0  0  0  0  0  0
  184.8000  172.9130  136.3230 C   0  0  1  0  0  3  0  0  0  0  0  0
  182.8900  174.4140  135.7980 C   0  0  0  0  0  3  0  0  0  0  0  0
  181.1740  173.8850  137.5990 C   0  0  0  0  0  2  0  0  0  0  0  0
  180.9250  175.5780  139.1920 C   0  0  0  0  0  1  0  0  0  0  0  0
  181.4340  175.2930  137.8640 N   0  0  0  0  0  2  0  0  0  0  0  0
  187.5740  173.6190  135.4040 C   0  0  0  0  0  2  0  0  0  0  0  0
  189.7070  172.4240  134.9420 C   0  0  0  0  0  1  0  0  0  0  0  0
  188.6490  172.7120  135.9860 C   0  0  0  0  0  2  0  0  0  0  0  0
  1  4  1  6  0  0  0
  1 11  1  0  0  0  0
  2  6  1  0  0  0  0
  3 18  1  1  0  0  0
  3  9  1  0  0  0  0
  5 16  1  1  0  0  0
  5  3  1  0  0  0  0
  5  1  1  0  0  0  0
  6  7  1  0  0  0  0
  7 12  1  6  0  0  0
  8  7  1  0  0  0  0
  9 11  1  0  0  0  0
  9  2  1  1  0  0  0
 10  8  1  0  0  0  0
 11 10  1  6  0  0  0
 12 13  1  0  0  0  0
 12 14  1  0  0  0  0
 13 14  1  0  0  0  0
 16 15  1  0  0  0  0
 17 16  1  0  0  0  0
 19 18  3  0  0  0  0
 20  1  1  0  0  0  0
 21 22  1  0  0  0  0
 21 20  1  0  0  0  0
 23 24  1  0  0  0  0
 23 29  1  1  0  0  0
 24 25  1  0  0  0  0
 26 28  2  0  0  0  0
 26 27  1  0  0  0  0
 27 22  1  1  0  0  0
 27 25  1  0  0  0  0
 28 23  1  0  0  0  0
 29 31  1  0  0  0  0
 31 30  1  0  0  0  0
 32 34  1  0  0  0  0
 32 21  1  0  0  0  0
 33 34  1  0  0  0  0
M  END
>  <MODEL>
8

>  <REMARK>
 VINA RESULT:      -3.9      3.313      8.951
  Name = 
  11 active torsions:
  status: ('A' for Active; 'I' for Inactive)
    1  A    between atoms: C_1  and  C_8
    2  A    between atoms: C_3  and  C_25
    3  A    between atoms: C_5  and  C_19
    4  A    between atoms: C_6  and  N_18
    5  A    between atoms: C_6  and  C_28
    6  A    between atoms: C_7  and  C_11
    7  A    between atoms: C_8  and  N_18
    8  A    between atoms: C_11  and  N_21
    9  A    between atoms: C_12  and  C_20
   10  A    between atoms: N_18  and  C_30
   11  A    between atoms: C_30  and  C_31
                            x       y       z     vdW  Elec       q    Type
                         _______ _______ _______ _____ _____    ______ ____

>  <TORSDO>
F 11

$$$$
=
 OpenBabel10262423343D

 34 37  0  0  1  0  0  0  0  0999 V2000
  189.7890  175.6530  137.5500 C   0  0  1  0  0  0  0  0  0  0  0  0
  186.5500  175.8420  136.0390 C   0  0  0  0  0  2  0  0  0  0  0  0
  188.8050  176.7830  135.6480 C   0  0  1  0  0  3  0  0  0  0  0  0
  190.9030  174.6730  137.9240 C   0  0  0  0  0  1  0  0  0  0  0  0
  190.1380  176.5350  136.3440 C   0  0  2  0  0  3  0  0  0  0  0  0
  185.7640  174.6670  135.4650 C   0  0  0  0  0  2  0  0  0  0  0  0
  186.0690  173.3210  136.1500 C   0  0  1  0  0  3  0  0  0  0  0  0
  187.5200  172.8350  136.0380 C   0  0  0  0  0  2  0  0  0  0  0  0
  187.9850  175.5860  135.9010 N   0  0  1  0  0  0  0  0  0  0  0  0
  188.4890  173.4540  137.0580 C   0  0  0  0  0  2  0  0  0  0  0  0
  188.4480  174.9920  137.1510 C   0  0  1  0  0  3  0  0  0  0  0  0
  185.3300  172.9380  137.4460 C   0  0  0  0  0  3  0  0  0  0  0  0
  183.9820  173.6320  137.5350 C   0  0  0  0  0  2  0  0  0  0  0  0
  184.0480  172.1540  137.2140 C   0  0  0  0  0  2  0  0  0  0  0  0
  192.6180  176.0020  135.9380 C   0  0  0  0  0  1  0  0  0  0  0  0
  191.2030  175.9750  135.3760 C   0  0  0  0  0  3  0  0  0  0  0  0
  190.8500  174.5610  134.9560 C   0  0  0  0  0  1  0  0  0  0  0  0
  188.2230  178.0460  136.1510 C   0  0  0  0  0  0  0  0  0  0  0  0
  187.7560  179.0780  136.5680 C   0  0  0  0  0  3  0  0  0  0  0  0
  189.5930  176.6020  138.7390 C   0  0  0  0  0  2  0  0  0  0  0  0
  190.5540  176.3770  139.8150 N   0  0  0  0  0  0  0  0  0  0  0  0
  189.7770  176.4550  141.0430 C   0  0  0  0  0  2  0  0  0  0  0  0
  190.6240  177.5500  145.0240 C   0  0  2  0  0  3  0  0  0  0  0  0
  190.2530  178.6250  144.0930 N   0  0  0  0  0  2  0  0  0  0  0  0
  189.5730  178.0690  142.9200 C   0  0  0  0  0  2  0  0  0  0  0  0
  191.2570  176.2200  143.0050 C   0  0  0  0  0  3  0  0  0  0  0  0
  190.5490  177.2080  142.1130 C   0  0  1  0  0  3  0  0  0  0  0  0
  191.2950  176.3810  144.3340 C   0  0  0  0  0  3  0  0  0  0  0  0
  189.4550  177.1320  145.9230 C   0  0  0  0  0  2  0  0  0  0  0  0
  188.8960  177.9500  148.0410 C   0  0  0  0  0  1  0  0  0  0  0  0
  189.8380  177.1080  147.3280 N   0  0  0  0  0  2  0  0  0  0  0  0
  191.4750  177.5070  139.8200 C   0  0  0  0  0  2  0  0  0  0  0  0
  193.9280  177.4060  140.2190 C   0  0  0  0  0  1  0  0  0  0  0  0
  192.8180  177.0870  139.2410 C   0  0  0  0  0  2  0  0  0  0  0  0
  1  4  1  1  0  0  0
  1 20  1  0  0  0  0
  3  9  1  0  0  0  0
  3 18  1  1  0  0  0
  3  5  1  0  0  0  0
  5 16  1  6  0  0  0
  5  1  1  0  0  0  0
  6  2  1  0  0  0  0
  6  7  1  0  0  0  0
  7 12  1  1  0  0  0
  8  7  1  0  0  0  0
  8 10  1  0  0  0  0
  9  2  1  1  0  0  0
  9 11  1  0  0  0  0
 11 10  1  6  0  0  0
 11  1  1  0  0  0  0
 12 13  1  0  0  0  0
 14 12  1  0  0  0  0
 14 13  1  0  0  0  0
 16 15  1  0  0  0  0
 17 16  1  0  0  0  0
 18 19  3  0  0  0  0
 20 21  1  0  0  0  0
 21 32  1  0  0  0  0
 21 22  1  0  0  0  0
 23 29  1  6  0  0  0
 24 23  1  0  0  0  0
 25 24  1  0  0  0  0
 26 28  2  0  0  0  0
 27 22  1  6  0  0  0
 27 25  1  0  0  0  0
 27 26  1  0  0  0  0
 28 23  1  0  0  0  0
 29 31  1  0  0  0  0
 31 30  1  0  0  0  0
 34 32  1  0  0  0  0
 34 33  1  0  0  0  0
M  END
>  <MODEL>
9

>  <REMARK>
 VINA RESULT:      -3.8      4.589      7.115
  Name = 
  11 active torsions:
  status: ('A' for Active; 'I' for Inactive)
    1  A    between atoms: C_1  and  C_8
    2  A    between atoms: C_3  and  C_25
    3  A    between atoms: C_5  and  C_19
    4  A    between atoms: C_6  and  N_18
    5  A    between atoms: C_6  and  C_28
    6  A    between atoms: C_7  and  C_11
    7  A    between atoms: C_8  and  N_18
    8  A    between atoms: C_11  and  N_21
    9  A    between atoms: C_12  and  C_20
   10  A    between atoms: N_18  and  C_30
   11  A    between atoms: C_30  and  C_31
                            x       y       z     vdW  Elec       q    Type
                         _______ _______ _______ _____ _____    ______ ____

>  <TORSDO>
F 11

$$$$
