=
 OpenBabel10252414543D

 34 38  0  0  1  0  0  0  0  0999 V2000
  183.6340  178.6980  139.4280 C   0  0  0  0  0  0  0  0  0  0  0  0
  185.4510  178.7540  141.0980 C   0  0  0  0  0  0  0  0  0  0  0  0
  185.9350  178.2260  138.7440 C   0  0  0  0  0  0  0  0  0  0  0  0
  188.1790  178.9070  136.8440 C   0  0  0  0  0  2  0  0  0  0  0  0
  181.9160  178.5840  137.7720 F   0  0  0  0  0  0  0  0  0  0  0  0
  184.5740  179.0410  142.1370 O   0  0  0  0  0  1  0  0  0  0  0  0
  187.7260  178.3860  140.3960 C   0  0  0  0  0  3  0  0  0  0  0  0
  184.9980  178.5680  139.7700 C   0  0  0  0  0  0  0  0  0  0  0  0
  188.3430  178.1230  138.0560 N   0  0  0  0  0  0  0  0  0  0  0  0
  182.7700  179.0340  140.2830 O   0  0  0  0  0  0  0  0  0  0  0  0
  185.4630  177.9100  137.4820 N   0  0  0  0  0  0  0  0  0  0  0  0
  183.2220  178.4590  138.1210 C   0  0  0  0  0  0  0  0  0  0  0  0
  186.8040  178.6440  141.3970 C   0  0  0  0  0  3  0  0  0  0  0  0
  187.3380  178.1650  135.8180 C   0  0  0  0  0  2  0  0  0  0  0  0
  186.2570  177.2650  136.4260 C   0  0  1  0  0  3  0  0  0  0  0  0
  187.3240  178.1980  139.0690 C   0  0  0  0  0  0  0  0  0  0  0  0
  184.1450  178.0390  137.1760 C   0  0  0  0  0  3  0  0  0  0  0  0
  186.2470  173.6160  137.5730 C   0  0  0  0  0  0  0  0  0  0  0  0
  187.5500  173.2260  137.2570 C   0  0  0  0  0  3  0  0  0  0  0  0
  186.7100  175.8600  136.7590 C   0  0  0  0  0  0  0  0  0  0  0  0
  188.4310  174.1440  136.6790 C   0  0  0  0  0  3  0  0  0  0  0  0
  185.8260  174.9220  137.3180 C   0  0  0  0  0  3  0  0  0  0  0  0
  188.0100  175.4510  136.4240 C   0  0  0  0  0  3  0  0  0  0  0  0
  185.3870  172.7230  138.1220 F   0  0  0  0  0  0  0  0  0  0  0  0
  189.6800  177.6350  138.3700 C   0  0  0  0  0  2  0  0  0  0  0  0
  189.6120  176.6420  139.5160 C   0  0  0  0  0  2  0  0  0  0  0  0
  190.8400  176.7650  140.4010 C   0  0  0  0  0  2  0  0  0  0  0  0
  190.4630  175.1870  142.7050 O   0  0  0  0  0  1  0  0  0  0  0  0
  190.4760  177.3340  141.6940 N   0  0  0  0  0  0  0  0  0  0  0  0
  189.7100  176.3450  142.4710 C   0  0  2  0  0  3  0  0  0  0  0  0
  189.9830  178.2210  144.1740 C   0  0  0  0  0  2  0  0  0  0  0  0
  191.4710  178.1000  143.8540 C   0  0  0  0  0  2  0  0  0  0  0  0
  191.7170  177.6930  142.3910 C   0  0  0  0  0  2  0  0  0  0  0  0
  189.2420  176.9330  143.8080 C   0  0  0  0  0  2  0  0  0  0  0  0
  1  8  1  0  0  0  0
  1 10  2  0  0  0  0
  2 13  1  0  0  0  0
  2  6  1  0  0  0  0
  3 16  2  0  0  0  0
  3  8  1  0  0  0  0
  4  9  1  0  0  0  0
  5 12  1  0  0  0  0
  7 13  2  0  0  0  0
  8  2  2  0  0  0  0
  9 25  1  0  0  0  0
  9 16  1  0  0  0  0
 11  3  1  0  0  0  0
 12  1  1  0  0  0  0
 14 15  1  0  0  0  0
 14  4  1  0  0  0  0
 15 20  1  1  0  0  0
 15 11  1  0  0  0  0
 16  7  1  0  0  0  0
 17 11  1  0  0  0  0
 17 12  2  0  0  0  0
 18 24  1  0  0  0  0
 19 18  2  0  0  0  0
 20 22  2  0  0  0  0
 21 19  1  0  0  0  0
 22 18  1  0  0  0  0
 23 21  2  0  0  0  0
 23 20  1  0  0  0  0
 25 26  1  0  0  0  0
 26 27  1  0  0  0  0
 27 29  1  0  0  0  0
 29 33  1  0  0  0  0
 29 30  1  0  0  0  0
 30 28  1  1  0  0  0
 30 34  1  0  0  0  0
 32 31  1  0  0  0  0
 33 32  1  0  0  0  0
 34 31  1  0  0  0  0
M  END
>  <MODEL>
1

>  <REMARK>
 VINA RESULT:      -7.3      0.000      0.000
  Name = 
  5 active torsions:
  status: ('A' for Active; 'I' for Inactive)
    1  A    between atoms: C_3  and  N_13
    2  A    between atoms: C_3  and  C_17
    3  A    between atoms: C_12  and  C_28
    4  A    between atoms: C_17  and  C_29
    5  A    between atoms: N_18  and  C_29
                            x       y       z     vdW  Elec       q    Type
                         _______ _______ _______ _____ _____    ______ ____

>  <TORSDO>
F 5

$$$$
=
 OpenBabel10252414543D

 34 38  0  0  1  0  0  0  0  0999 V2000
  192.0290  174.5100  136.4590 C   0  0  0  0  0  0  0  0  0  0  0  0
  189.9110  173.2460  136.3570 C   0  0  0  0  0  0  0  0  0  0  0  0
  189.9200  175.6160  137.0160 C   0  0  0  0  0  0  0  0  0  0  0  0
  188.0990  177.9640  136.4840 C   0  0  0  0  0  2  0  0  0  0  0  0
  194.0470  175.7760  136.6210 F   0  0  0  0  0  0  0  0  0  0  0  0
  190.5560  172.0690  135.9960 O   0  0  0  0  0  1  0  0  0  0  0  0
  187.8290  174.3710  136.8100 C   0  0  0  0  0  3  0  0  0  0  0  0
  190.6250  174.4430  136.6010 C   0  0  0  0  0  0  0  0  0  0  0  0
  187.7020  176.7690  137.2080 N   0  0  0  0  0  0  0  0  0  0  0  0
  192.6970  173.5180  136.0600 O   0  0  0  0  0  0  0  0  0  0  0  0
  190.6400  176.7380  137.3870 N   0  0  0  0  0  0  0  0  0  0  0  0
  192.7000  175.6920  136.7560 C   0  0  0  0  0  0  0  0  0  0  0  0
  188.5270  173.2200  136.4800 C   0  0  0  0  0  3  0  0  0  0  0  0
  189.1380  178.7570  137.2600 C   0  0  0  0  0  2  0  0  0  0  0  0
  190.0830  177.8950  138.1030 C   0  0  1  0  0  3  0  0  0  0  0  0
  188.4930  175.5770  137.0580 C   0  0  0  0  0  0  0  0  0  0  0  0
  191.9920  176.7780  137.2450 C   0  0  0  0  0  3  0  0  0  0  0  0
  189.8160  176.4220  141.6240 C   0  0  0  0  0  0  0  0  0  0  0  0
  188.7110  177.1130  142.1250 C   0  0  0  0  0  3  0  0  0  0  0  0
  189.5880  177.5830  139.4980 C   0  0  0  0  0  0  0  0  0  0  0  0
  188.0510  178.0490  141.3240 C   0  0  0  0  0  3  0  0  0  0  0  0
  190.2580  176.6620  140.3210 C   0  0  0  0  0  3  0  0  0  0  0  0
  188.4930  178.2880  140.0210 C   0  0  0  0  0  3  0  0  0  0  0  0
  190.4650  175.5240  142.4040 F   0  0  0  0  0  0  0  0  0  0  0  0
  186.3340  176.7040  137.7080 C   0  0  0  0  0  2  0  0  0  0  0  0
  185.5710  177.9470  137.2910 C   0  0  0  0  0  2  0  0  0  0  0  0
  184.1240  177.8610  137.7470 C   0  0  0  0  0  2  0  0  0  0  0  0
  184.2290  180.2900  139.1710 O   0  0  0  0  0  1  0  0  0  0  0  0
  184.0480  177.9240  139.2020 N   0  0  0  0  0  0  0  0  0  0  0  0
  184.7790  179.1080  139.6840 C   0  0  2  0  0  3  0  0  0  0  0  0
  183.7460  178.2380  141.8460 C   0  0  0  0  0  2  0  0  0  0  0  0
  182.4310  178.2940  141.0700 C   0  0  0  0  0  2  0  0  0  0  0  0
  182.6300  178.0020  139.5730 C   0  0  0  0  0  2  0  0  0  0  0  0
  184.7870  179.1670  141.2170 C   0  0  0  0  0  2  0  0  0  0  0  0
  1  8  1  0  0  0  0
  1 12  1  0  0  0  0
  2 13  2  0  0  0  0
  2  8  1  0  0  0  0
  3 16  1  0  0  0  0
  3 11  1  0  0  0  0
  4  9  1  0  0  0  0
  4 14  1  0  0  0  0
  5 12  1  0  0  0  0
  6  2  1  0  0  0  0
  7 16  2  0  0  0  0
  8  3  2  0  0  0  0
  9 25  1  0  0  0  0
 10  1  2  0  0  0  0
 11 15  1  0  0  0  0
 12 17  2  0  0  0  0
 13  7  1  0  0  0  0
 14 15  1  0  0  0  0
 15 20  1  1  0  0  0
 16  9  1  0  0  0  0
 17 11  1  0  0  0  0
 18 19  1  0  0  0  0
 18 24  1  0  0  0  0
 20 23  2  0  0  0  0
 20 22  1  0  0  0  0
 21 19  2  0  0  0  0
 22 18  2  0  0  0  0
 23 21  1  0  0  0  0
 26 25  1  0  0  0  0
 26 27  1  0  0  0  0
 27 29  1  0  0  0  0
 29 33  1  0  0  0  0
 29 30  1  0  0  0  0
 30 28  1  6  0  0  0
 30 34  1  0  0  0  0
 32 31  1  0  0  0  0
 33 32  1  0  0  0  0
 34 31  1  0  0  0  0
M  END
>  <MODEL>
2

>  <REMARK>
 VINA RESULT:      -7.3      3.153      7.160
  Name = 
  5 active torsions:
  status: ('A' for Active; 'I' for Inactive)
    1  A    between atoms: C_3  and  N_13
    2  A    between atoms: C_3  and  C_17
    3  A    between atoms: C_12  and  C_28
    4  A    between atoms: C_17  and  C_29
    5  A    between atoms: N_18  and  C_29
                            x       y       z     vdW  Elec       q    Type
                         _______ _______ _______ _____ _____    ______ ____

>  <TORSDO>
F 5

$$$$
=
 OpenBabel10252414543D

 34 38  0  0  1  0  0  0  0  0999 V2000
  181.8730  178.5180  137.4370 C   0  0  0  0  0  0  0  0  0  0  0  0
  183.1530  178.8440  139.5230 C   0  0  0  0  0  0  0  0  0  0  0  0
  184.2340  177.8870  137.5310 C   0  0  0  0  0  0  0  0  0  0  0  0
  186.9600  178.1680  136.2670 C   0  0  0  0  0  2  0  0  0  0  0  0
  180.6800  178.1350  135.4040 F   0  0  0  0  0  0  0  0  0  0  0  0
  182.0430  179.3330  140.2030 O   0  0  0  0  0  1  0  0  0  0  0  0
  185.5010  178.3120  139.5750 C   0  0  0  0  0  3  0  0  0  0  0  0
  183.0750  178.4270  138.1730 C   0  0  0  0  0  0  0  0  0  0  0  0
  186.7260  177.6150  137.5900 N   0  0  0  0  0  0  0  0  0  0  0  0
  180.8310  179.0200  137.9400 O   0  0  0  0  0  0  0  0  0  0  0  0
  184.1120  177.3530  136.2600 N   0  0  0  0  0  0  0  0  0  0  0  0
  181.8250  178.0520  136.1270 C   0  0  0  0  0  0  0  0  0  0  0  0
  184.3570  178.7660  140.2110 C   0  0  0  0  0  3  0  0  0  0  0  0
  186.3890  177.2660  135.1850 C   0  0  0  0  0  2  0  0  0  0  0  0
  185.1220  176.5120  135.6010 C   0  0  1  0  0  3  0  0  0  0  0  0
  185.4730  177.8920  138.2410 C   0  0  0  0  0  0  0  0  0  0  0  0
  182.9430  177.4490  135.5720 C   0  0  0  0  0  3  0  0  0  0  0  0
  186.8380  173.3490  136.8990 C   0  0  0  0  0  0  0  0  0  0  0  0
  185.8170  172.7760  137.6590 C   0  0  0  0  0  3  0  0  0  0  0  0
  185.3650  175.1840  136.2840 C   0  0  0  0  0  0  0  0  0  0  0  0
  184.5740  173.4100  137.7480 C   0  0  0  0  0  3  0  0  0  0  0  0
  186.6170  174.5500  136.2220 C   0  0  0  0  0  3  0  0  0  0  0  0
  184.3520  174.6120  137.0710 C   0  0  0  0  0  3  0  0  0  0  0  0
  188.0480  172.7430  136.8230 F   0  0  0  0  0  0  0  0  0  0  0  0
  187.8850  177.1680  138.3520 C   0  0  0  0  0  2  0  0  0  0  0  0
  188.7600  178.3560  138.7080 C   0  0  0  0  0  2  0  0  0  0  0  0
  189.8360  177.9460  139.6990 C   0  0  0  0  0  2  0  0  0  0  0  0
  191.2010  177.6400  142.1440 O   0  0  0  0  0  1  0  0  0  0  0  0
  189.2350  177.3000  140.8590 N   0  0  0  0  0  0  0  0  0  0  0  0
  190.2900  176.6820  141.6820 C   0  0  2  0  0  3  0  0  0  0  0  0
  188.2310  176.3030  143.1350 C   0  0  0  0  0  2  0  0  0  0  0  0
  188.0260  177.8080  142.9850 C   0  0  0  0  0  2  0  0  0  0  0  0
  188.5170  178.3260  141.6220 C   0  0  0  0  0  2  0  0  0  0  0  0
  189.6910  175.9250  142.8730 C   0  0  0  0  0  2  0  0  0  0  0  0
  1 10  2  0  0  0  0
  1  8  1  0  0  0  0
  2  6  1  0  0  0  0
  2 13  1  0  0  0  0
  3  8  1  0  0  0  0
  3 16  2  0  0  0  0
  4  9  1  0  0  0  0
  5 12  1  0  0  0  0
  7 13  2  0  0  0  0
  8  2  2  0  0  0  0
  9 16  1  0  0  0  0
  9 25  1  0  0  0  0
 11  3  1  0  0  0  0
 12  1  1  0  0  0  0
 14 15  1  0  0  0  0
 14  4  1  0  0  0  0
 15 11  1  0  0  0  0
 15 20  1  1  0  0  0
 16  7  1  0  0  0  0
 17 12  2  0  0  0  0
 17 11  1  0  0  0  0
 18 19  1  0  0  0  0
 19 21  2  0  0  0  0
 20 23  2  0  0  0  0
 22 20  1  0  0  0  0
 22 18  2  0  0  0  0
 23 21  1  0  0  0  0
 24 18  1  0  0  0  0
 25 26  1  0  0  0  0
 26 27  1  0  0  0  0
 27 29  1  0  0  0  0
 29 33  1  0  0  0  0
 29 30  1  0  0  0  0
 30 28  1  1  0  0  0
 30 34  1  0  0  0  0
 32 31  1  0  0  0  0
 33 32  1  0  0  0  0
 34 31  1  0  0  0  0
M  END
>  <MODEL>
3

>  <REMARK>
 VINA RESULT:      -7.2      1.634      2.408
  Name = 
  5 active torsions:
  status: ('A' for Active; 'I' for Inactive)
    1  A    between atoms: C_3  and  N_13
    2  A    between atoms: C_3  and  C_17
    3  A    between atoms: C_12  and  C_28
    4  A    between atoms: C_17  and  C_29
    5  A    between atoms: N_18  and  C_29
                            x       y       z     vdW  Elec       q    Type
                         _______ _______ _______ _____ _____    ______ ____

>  <TORSDO>
F 5

$$$$
=
 OpenBabel10252414543D

 34 38  0  0  1  0  0  0  0  0999 V2000
  182.6830  178.7570  143.8760 C   0  0  0  0  0  0  0  0  0  0  0  0
  184.9880  178.4940  143.0310 C   0  0  0  0  0  0  0  0  0  0  0  0
  183.1300  178.9190  141.4760 C   0  0  0  0  0  0  0  0  0  0  0  0
  182.8090  180.5660  138.9680 C   0  0  0  0  0  2  0  0  0  0  0  0
  180.4250  178.9770  144.6230 F   0  0  0  0  0  0  0  0  0  0  0  0
  185.4950  178.2550  144.3040 O   0  0  0  0  0  1  0  0  0  0  0  0
  185.4320  178.7530  140.6780 C   0  0  0  0  0  3  0  0  0  0  0  0
  183.6090  178.7250  142.8100 C   0  0  0  0  0  0  0  0  0  0  0  0
  183.7150  179.4370  139.0940 N   0  0  0  0  0  0  0  0  0  0  0  0
  183.0550  178.6300  145.0740 O   0  0  0  0  0  0  0  0  0  0  0  0
  181.7650  179.0030  141.2580 N   0  0  0  0  0  0  0  0  0  0  0  0
  181.3290  178.9390  143.6120 C   0  0  0  0  0  0  0  0  0  0  0  0
  185.8780  178.4930  141.9640 C   0  0  0  0  0  3  0  0  0  0  0  0
  181.3580  180.1170  139.0350 C   0  0  0  0  0  2  0  0  0  0  0  0
  181.1180  178.9060  139.9410 C   0  0  1  0  0  3  0  0  0  0  0  0
  184.0790  178.9900  140.4120 C   0  0  0  0  0  0  0  0  0  0  0  0
  180.8920  179.0290  142.2990 C   0  0  0  0  0  3  0  0  0  0  0  0
  181.1900  176.1540  137.2850 C   0  0  0  0  0  0  0  0  0  0  0  0
  181.7070  175.0820  138.0160 C   0  0  0  0  0  3  0  0  0  0  0  0
  181.2820  177.5610  139.2660 C   0  0  0  0  0  0  0  0  0  0  0  0
  182.0270  175.2480  139.3660 C   0  0  0  0  0  3  0  0  0  0  0  0
  180.9870  177.3890  137.9040 C   0  0  0  0  0  3  0  0  0  0  0  0
  181.8230  176.4840  139.9860 C   0  0  0  0  0  3  0  0  0  0  0  0
  180.8920  175.9980  135.9720 F   0  0  0  0  0  0  0  0  0  0  0  0
  184.5190  179.0810  137.9320 C   0  0  0  0  0  2  0  0  0  0  0  0
  184.5410  177.5730  137.7610 C   0  0  0  0  0  2  0  0  0  0  0  0
  185.8000  177.1390  137.0290 C   0  0  0  0  0  2  0  0  0  0  0  0
  188.2830  175.8080  137.0530 O   0  0  0  0  0  1  0  0  0  0  0  0
  186.9810  177.6890  137.6840 N   0  0  0  0  0  0  0  0  0  0  0  0
  187.8540  176.5910  138.1330 C   0  0  2  0  0  3  0  0  0  0  0  0
  189.2850  178.6280  138.6790 C   0  0  0  0  0  2  0  0  0  0  0  0
  189.0540  179.0020  137.2160 C   0  0  0  0  0  2  0  0  0  0  0  0
  187.6760  178.5410  136.7120 C   0  0  0  0  0  2  0  0  0  0  0  0
  189.0710  177.1280  138.8960 C   0  0  0  0  0  2  0  0  0  0  0  0
  1 10  2  0  0  0  0
  2  6  1  0  0  0  0
  3  8  2  0  0  0  0
  4 14  1  0  0  0  0
  4  9  1  0  0  0  0
  7 13  1  0  0  0  0
  8  2  1  0  0  0  0
  8  1  1  0  0  0  0
  9 16  1  0  0  0  0
 11  3  1  0  0  0  0
 11 17  1  0  0  0  0
 12  1  1  0  0  0  0
 12  5  1  0  0  0  0
 13  2  2  0  0  0  0
 14 15  1  0  0  0  0
 15 20  1  6  0  0  0
 15 11  1  0  0  0  0
 16  7  2  0  0  0  0
 16  3  1  0  0  0  0
 17 12  2  0  0  0  0
 18 22  2  0  0  0  0
 18 19  1  0  0  0  0
 19 21  2  0  0  0  0
 20 23  2  0  0  0  0
 21 23  1  0  0  0  0
 22 20  1  0  0  0  0
 24 18  1  0  0  0  0
 25  9  1  0  0  0  0
 26 25  1  0  0  0  0
 27 29  1  0  0  0  0
 27 26  1  0  0  0  0
 29 30  1  0  0  0  0
 30 28  1  6  0  0  0
 30 34  1  0  0  0  0
 31 34  1  0  0  0  0
 32 31  1  0  0  0  0
 33 32  1  0  0  0  0
 33 29  1  0  0  0  0
M  END
>  <MODEL>
4

>  <REMARK>
 VINA RESULT:      -7.2      3.076      5.469
  Name = 
  5 active torsions:
  status: ('A' for Active; 'I' for Inactive)
    1  A    between atoms: C_3  and  N_13
    2  A    between atoms: C_3  and  C_17
    3  A    between atoms: C_12  and  C_28
    4  A    between atoms: C_17  and  C_29
    5  A    between atoms: N_18  and  C_29
                            x       y       z     vdW  Elec       q    Type
                         _______ _______ _______ _____ _____    ______ ____

>  <TORSDO>
F 5

$$$$
=
 OpenBabel10252414543D

 34 38  0  0  1  0  0  0  0  0999 V2000
  190.9700  174.4660  136.4040 C   0  0  0  0  0  0  0  0  0  0  0  0
  188.7000  173.4980  136.4920 C   0  0  0  0  0  0  0  0  0  0  0  0
  189.0960  175.8190  137.2050 C   0  0  0  0  0  0  0  0  0  0  0  0
  187.5660  178.4050  136.9240 C   0  0  0  0  0  2  0  0  0  0  0  0
  193.1470  175.4470  136.3860 F   0  0  0  0  0  0  0  0  0  0  0  0
  189.1410  172.2600  136.0380 O   0  0  0  0  0  1  0  0  0  0  0  0
  186.8460  174.8690  137.1880 C   0  0  0  0  0  3  0  0  0  0  0  0
  189.5910  174.5790  136.6900 C   0  0  0  0  0  0  0  0  0  0  0  0
  187.0850  177.2460  137.6560 N   0  0  0  0  0  0  0  0  0  0  0  0
  191.4540  173.4100  135.9130 O   0  0  0  0  0  0  0  0  0  0  0  0
  189.9950  176.8210  137.5270 N   0  0  0  0  0  0  0  0  0  0  0  0
  191.8200  175.5360  136.6580 C   0  0  0  0  0  0  0  0  0  0  0  0
  187.3450  173.6490  136.7590 C   0  0  0  0  0  3  0  0  0  0  0  0
  188.7750  179.0230  137.6060 C   0  0  0  0  0  2  0  0  0  0  0  0
  189.6740  178.0120  138.3250 C   0  0  1  0  0  3  0  0  0  0  0  0
  187.6890  175.9660  137.3950 C   0  0  0  0  0  0  0  0  0  0  0  0
  191.3180  176.6880  137.2450 C   0  0  0  0  0  3  0  0  0  0  0  0
  189.5710  176.4610  141.8200 C   0  0  0  0  0  0  0  0  0  0  0  0
  188.6180  177.2650  142.4480 C   0  0  0  0  0  3  0  0  0  0  0  0
  189.2840  177.7150  139.7560 C   0  0  0  0  0  0  0  0  0  0  0  0
  188.0060  178.3030  141.7400 C   0  0  0  0  0  3  0  0  0  0  0  0
  189.9100  176.6900  140.4850 C   0  0  0  0  0  3  0  0  0  0  0  0
  188.3440  178.5320  140.4040 C   0  0  0  0  0  3  0  0  0  0  0  0
  190.1750  175.4620  142.5090 F   0  0  0  0  0  0  0  0  0  0  0  0
  185.7780  177.3420  138.2940 C   0  0  0  0  0  2  0  0  0  0  0  0
  185.5030  178.7800  138.6960 C   0  0  0  0  0  2  0  0  0  0  0  0
  184.0080  179.0500  138.7170 C   0  0  0  0  0  2  0  0  0  0  0  0
  182.6430  176.9270  139.9700 O   0  0  0  0  0  1  0  0  0  0  0  0
  183.5270  179.1260  140.0920 N   0  0  0  0  0  0  0  0  0  0  0  0
  182.3410  178.2670  140.2490 C   0  0  2  0  0  3  0  0  0  0  0  0
  182.7350  179.0260  142.6490 C   0  0  0  0  0  2  0  0  0  0  0  0
  184.1530  178.5050  142.4290 C   0  0  0  0  0  2  0  0  0  0  0  0
  184.6130  178.6780  140.9710 C   0  0  0  0  0  2  0  0  0  0  0  0
  181.7600  178.3790  141.6630 C   0  0  0  0  0  2  0  0  0  0  0  0
  1 12  1  0  0  0  0
  1  8  1  0  0  0  0
  2  8  2  0  0  0  0
  2 13  1  0  0  0  0
  3 16  2  0  0  0  0
  3 11  1  0  0  0  0
  4 14  1  0  0  0  0
  4  9  1  0  0  0  0
  5 12  1  0  0  0  0
  6  2  1  0  0  0  0
  7 16  1  0  0  0  0
  8  3  1  0  0  0  0
  9 25  1  0  0  0  0
 10  1  2  0  0  0  0
 11 15  1  0  0  0  0
 12 17  2  0  0  0  0
 13  7  2  0  0  0  0
 14 15  1  0  0  0  0
 15 20  1  1  0  0  0
 16  9  1  0  0  0  0
 17 11  1  0  0  0  0
 18 19  1  0  0  0  0
 18 24  1  0  0  0  0
 20 23  2  0  0  0  0
 20 22  1  0  0  0  0
 21 19  2  0  0  0  0
 22 18  2  0  0  0  0
 23 21  1  0  0  0  0
 25 26  1  0  0  0  0
 26 27  1  0  0  0  0
 27 29  1  0  0  0  0
 29 30  1  0  0  0  0
 29 33  1  0  0  0  0
 30 28  1  1  0  0  0
 30 34  1  0  0  0  0
 32 31  1  0  0  0  0
 33 32  1  0  0  0  0
 34 31  1  0  0  0  0
M  END
>  <MODEL>
5

>  <REMARK>
 VINA RESULT:      -7.1      3.046      6.844
  Name = 
  5 active torsions:
  status: ('A' for Active; 'I' for Inactive)
    1  A    between atoms: C_3  and  N_13
    2  A    between atoms: C_3  and  C_17
    3  A    between atoms: C_12  and  C_28
    4  A    between atoms: C_17  and  C_29
    5  A    between atoms: N_18  and  C_29
                            x       y       z     vdW  Elec       q    Type
                         _______ _______ _______ _____ _____    ______ ____

>  <TORSDO>
F 5

$$$$
=
 OpenBabel10252414543D

 34 38  0  0  1  0  0  0  0  0999 V2000
  186.3150  178.6260  139.9110 C   0  0  0  0  0  0  0  0  0  0  0  0
  188.2980  177.8170  141.1390 C   0  0  0  0  0  0  0  0  0  0  0  0
  188.1060  177.4700  138.7110 C   0  0  0  0  0  0  0  0  0  0  0  0
  190.0490  177.5630  136.4040 C   0  0  0  0  0  2  0  0  0  0  0  0
  184.4030  179.3430  138.6710 F   0  0  0  0  0  0  0  0  0  0  0  0
  187.7990  178.2550  142.3610 O   0  0  0  0  0  1  0  0  0  0  0  0
  190.1000  176.7690  139.9330 C   0  0  0  0  0  3  0  0  0  0  0  0
  187.5700  177.9800  139.9360 C   0  0  0  0  0  0  0  0  0  0  0  0
  190.1310  176.6180  137.5040 N   0  0  0  0  0  0  0  0  0  0  0  0
  185.8120  179.1280  140.9530 O   0  0  0  0  0  0  0  0  0  0  0  0
  187.3260  177.5090  137.5680 N   0  0  0  0  0  0  0  0  0  0  0  0
  185.6090  178.7220  138.7160 C   0  0  0  0  0  0  0  0  0  0  0  0
  189.5430  177.2000  141.1260 C   0  0  0  0  0  3  0  0  0  0  0  0
  188.8190  177.3060  135.5490 C   0  0  0  0  0  2  0  0  0  0  0  0
  187.6130  176.7720  136.3290 C   0  0  1  0  0  3  0  0  0  0  0  0
  189.4200  176.9120  138.7190 C   0  0  0  0  0  0  0  0  0  0  0  0
  186.1180  178.1330  137.5690 C   0  0  0  0  0  3  0  0  0  0  0  0
  186.4920  173.2460  137.3030 C   0  0  0  0  0  0  0  0  0  0  0  0
  187.4350  172.4650  136.6330 C   0  0  0  0  0  3  0  0  0  0  0  0
  187.5650  175.2670  136.4760 C   0  0  0  0  0  0  0  0  0  0  0  0
  188.4350  173.0780  135.8720 C   0  0  0  0  0  3  0  0  0  0  0  0
  186.5500  174.6390  137.2190 C   0  0  0  0  0  3  0  0  0  0  0  0
  188.4930  174.4710  135.7870 C   0  0  0  0  0  3  0  0  0  0  0  0
  185.5150  172.6540  138.0310 F   0  0  0  0  0  0  0  0  0  0  0  0
  191.2240  175.6540  137.4880 C   0  0  0  0  0  2  0  0  0  0  0  0
  192.5540  176.3780  137.5880 C   0  0  0  0  0  2  0  0  0  0  0  0
  193.5250  175.8520  136.5440 C   0  0  0  0  0  2  0  0  0  0  0  0
  194.0910  173.1620  137.1600 O   0  0  0  0  0  1  0  0  0  0  0  0
  194.7710  175.4360  137.1770 N   0  0  0  0  0  0  0  0  0  0  0  0
  194.5390  174.2150  137.9690 C   0  0  2  0  0  3  0  0  0  0  0  0
  197.0660  174.4740  138.1720 C   0  0  0  0  0  2  0  0  0  0  0  0
  197.0380  174.5300  136.6460 C   0  0  0  0  0  2  0  0  0  0  0  0
  195.7520  175.1860  136.1150 C   0  0  0  0  0  2  0  0  0  0  0  0
  195.8090  173.7870  138.7130 C   0  0  0  0  0  2  0  0  0  0  0  0
  1  8  1  0  0  0  0
  1 10  2  0  0  0  0
  2  6  1  0  0  0  0
  3 16  2  0  0  0  0
  3  8  1  0  0  0  0
  4  9  1  0  0  0  0
  5 12  1  0  0  0  0
  7 13  2  0  0  0  0
  8  2  2  0  0  0  0
  9 16  1  0  0  0  0
 11 17  1  0  0  0  0
 11  3  1  0  0  0  0
 12  1  1  0  0  0  0
 13  2  1  0  0  0  0
 14 15  1  0  0  0  0
 14  4  1  0  0  0  0
 15 20  1  1  0  0  0
 15 11  1  0  0  0  0
 16  7  1  0  0  0  0
 17 12  2  0  0  0  0
 18 24  1  0  0  0  0
 19 18  2  0  0  0  0
 20 22  2  0  0  0  0
 21 19  1  0  0  0  0
 22 18  1  0  0  0  0
 23 21  2  0  0  0  0
 23 20  1  0  0  0  0
 25  9  1  0  0  0  0
 25 26  1  0  0  0  0
 27 29  1  0  0  0  0
 27 26  1  0  0  0  0
 29 30  1  0  0  0  0
 30 28  1  6  0  0  0
 30 34  1  0  0  0  0
 31 34  1  0  0  0  0
 32 31  1  0  0  0  0
 33 32  1  0  0  0  0
 33 29  1  0  0  0  0
M  END
>  <MODEL>
6

>  <REMARK>
 VINA RESULT:      -7.0      3.412      4.325
  Name = 
  5 active torsions:
  status: ('A' for Active; 'I' for Inactive)
    1  A    between atoms: C_3  and  N_13
    2  A    between atoms: C_3  and  C_17
    3  A    between atoms: C_12  and  C_28
    4  A    between atoms: C_17  and  C_29
    5  A    between atoms: N_18  and  C_29
                            x       y       z     vdW  Elec       q    Type
                         _______ _______ _______ _____ _____    ______ ____

>  <TORSDO>
F 5

$$$$
=
 OpenBabel10252414543D

 34 38  0  0  1  0  0  0  0  0999 V2000
  190.7390  174.1480  136.4710 C   0  0  0  0  0  0  0  0  0  0  0  0
  188.3790  173.4350  136.6040 C   0  0  0  0  0  0  0  0  0  0  0  0
  189.0230  175.7360  137.1920 C   0  0  0  0  0  0  0  0  0  0  0  0
  187.7790  178.4520  136.7660 C   0  0  0  0  0  2  0  0  0  0  0  0
  193.0090  174.8880  136.4080 F   0  0  0  0  0  0  0  0  0  0  0  0
  188.6840  172.1350  136.2180 O   0  0  0  0  0  1  0  0  0  0  0  0
  186.6850  175.0330  137.2180 C   0  0  0  0  0  3  0  0  0  0  0  0
  189.3810  174.4240  136.7460 C   0  0  0  0  0  0  0  0  0  0  0  0
  187.1780  177.3930  137.5580 N   0  0  0  0  0  0  0  0  0  0  0  0
  191.1070  173.0220  136.0400 O   0  0  0  0  0  0  0  0  0  0  0  0
  190.0260  176.6510  137.4620 N   0  0  0  0  0  0  0  0  0  0  0  0
  191.7010  175.1340  136.6710 C   0  0  0  0  0  0  0  0  0  0  0  0
  187.0490  173.7460  136.8580 C   0  0  0  0  0  3  0  0  0  0  0  0
  189.0480  178.9730  137.4190 C   0  0  0  0  0  2  0  0  0  0  0  0
  189.8360  177.9120  138.1940 C   0  0  1  0  0  3  0  0  0  0  0  0
  187.6400  176.0440  137.3680 C   0  0  0  0  0  0  0  0  0  0  0  0
  191.3260  176.3620  137.1930 C   0  0  0  0  0  3  0  0  0  0  0  0
  189.6440  176.6360  141.7950 C   0  0  0  0  0  0  0  0  0  0  0  0
  188.7060  177.5120  142.3460 C   0  0  0  0  0  3  0  0  0  0  0  0
  189.4190  177.7360  139.6380 C   0  0  0  0  0  0  0  0  0  0  0  0
  188.1340  178.5100  141.5520 C   0  0  0  0  0  3  0  0  0  0  0  0
  190.0060  176.7520  140.4510 C   0  0  0  0  0  3  0  0  0  0  0  0
  188.4950  178.6260  140.2070 C   0  0  0  0  0  3  0  0  0  0  0  0
  190.2100  175.6760  142.5670 F   0  0  0  0  0  0  0  0  0  0  0  0
  185.8900  177.6630  138.1850 C   0  0  0  0  0  2  0  0  0  0  0  0
  184.8280  177.8680  137.1210 C   0  0  0  0  0  2  0  0  0  0  0  0
  183.5530  177.1310  137.4930 C   0  0  0  0  0  2  0  0  0  0  0  0
  181.2970  178.8080  137.3000 O   0  0  0  0  0  1  0  0  0  0  0  0
  182.9320  177.7510  138.6580 N   0  0  0  0  0  0  0  0  0  0  0  0
  182.2950  179.0190  138.2610 C   0  0  2  0  0  3  0  0  0  0  0  0
  181.5630  178.8270  140.6940 C   0  0  0  0  0  2  0  0  0  0  0  0
  181.0600  177.4450  140.2840 C   0  0  0  0  0  2  0  0  0  0  0  0
  181.9360  176.8130  139.1880 C   0  0  0  0  0  2  0  0  0  0  0  0
  181.6960  179.7410  139.4740 C   0  0  0  0  0  2  0  0  0  0  0  0
  1 12  1  0  0  0  0
  1  8  1  0  0  0  0
  2  8  2  0  0  0  0
  2 13  1  0  0  0  0
  3 16  2  0  0  0  0
  3 11  1  0  0  0  0
  4 14  1  0  0  0  0
  4  9  1  0  0  0  0
  5 12  1  0  0  0  0
  6  2  1  0  0  0  0
  7 16  1  0  0  0  0
  8  3  1  0  0  0  0
  9 25  1  0  0  0  0
 10  1  2  0  0  0  0
 11 15  1  0  0  0  0
 12 17  2  0  0  0  0
 13  7  2  0  0  0  0
 14 15  1  0  0  0  0
 15 20  1  1  0  0  0
 16  9  1  0  0  0  0
 17 11  1  0  0  0  0
 18 19  1  0  0  0  0
 18 24  1  0  0  0  0
 20 23  2  0  0  0  0
 20 22  1  0  0  0  0
 21 19  2  0  0  0  0
 22 18  2  0  0  0  0
 23 21  1  0  0  0  0
 26 27  1  0  0  0  0
 26 25  1  0  0  0  0
 27 29  1  0  0  0  0
 29 33  1  0  0  0  0
 30 28  1  6  0  0  0
 30 29  1  0  0  0  0
 30 34  1  0  0  0  0
 32 31  1  0  0  0  0
 33 32  1  0  0  0  0
 34 31  1  0  0  0  0
M  END
>  <MODEL>
7

>  <REMARK>
 VINA RESULT:      -6.8      3.112      7.379
  Name = 
  5 active torsions:
  status: ('A' for Active; 'I' for Inactive)
    1  A    between atoms: C_3  and  N_13
    2  A    between atoms: C_3  and  C_17
    3  A    between atoms: C_12  and  C_28
    4  A    between atoms: C_17  and  C_29
    5  A    between atoms: N_18  and  C_29
                            x       y       z     vdW  Elec       q    Type
                         _______ _______ _______ _____ _____    ______ ____

>  <TORSDO>
F 5

$$$$
=
 OpenBabel10252414543D

 34 38  0  0  1  0  0  0  0  0999 V2000
  183.9970  178.7370  143.1800 C   0  0  0  0  0  0  0  0  0  0  0  0
  185.0230  178.8270  140.9360 C   0  0  0  0  0  0  0  0  0  0  0  0
  182.5860  179.0280  141.2030 C   0  0  0  0  0  0  0  0  0  0  0  0
  180.4440  180.6840  139.8700 C   0  0  0  0  0  2  0  0  0  0  0  0
  182.9390  178.6120  145.3160 F   0  0  0  0  0  0  0  0  0  0  0  0
  186.3020  178.6260  141.4420 O   0  0  0  0  0  1  0  0  0  0  0  0
  183.6350  179.2140  139.0060 C   0  0  0  0  0  3  0  0  0  0  0  0
  183.8860  178.8660  141.7770 C   0  0  0  0  0  0  0  0  0  0  0  0
  181.2540  179.6920  139.1850 N   0  0  0  0  0  0  0  0  0  0  0  0
  185.1200  178.6300  143.7430 O   0  0  0  0  0  0  0  0  0  0  0  0
  181.4730  178.9240  142.0190 N   0  0  0  0  0  0  0  0  0  0  0  0
  182.8510  178.7310  143.9680 C   0  0  0  0  0  0  0  0  0  0  0  0
  184.8830  178.9830  139.5620 C   0  0  0  0  0  3  0  0  0  0  0  0
  179.5160  180.0320  140.8820 C   0  0  0  0  0  2  0  0  0  0  0  0
  180.0910  178.7740  141.5400 C   0  0  1  0  0  3  0  0  0  0  0  0
  182.4830  179.2640  139.7990 C   0  0  0  0  0  0  0  0  0  0  0  0
  181.6040  178.7960  143.3660 C   0  0  0  0  0  3  0  0  0  0  0  0
  179.8090  175.0560  140.6820 C   0  0  0  0  0  0  0  0  0  0  0  0
  179.2260  175.1120  139.4140 C   0  0  0  0  0  3  0  0  0  0  0  0
  179.8310  177.4860  140.7890 C   0  0  0  0  0  0  0  0  0  0  0  0
  178.9310  176.3500  138.8360 C   0  0  0  0  0  3  0  0  0  0  0  0
  180.1010  176.2360  141.3700 C   0  0  0  0  0  3  0  0  0  0  0  0
  179.2230  177.5300  139.5240 C   0  0  0  0  0  3  0  0  0  0  0  0
  180.0840  173.8570  141.2490 F   0  0  0  0  0  0  0  0  0  0  0  0
  181.0150  179.4860  137.7620 C   0  0  0  0  0  2  0  0  0  0  0  0
  180.0540  180.5390  137.2420 C   0  0  0  0  0  2  0  0  0  0  0  0
  180.7470  181.4410  136.2350 C   0  0  0  0  0  2  0  0  0  0  0  0
  181.9440  183.5920  137.6050 O   0  0  0  0  0  1  0  0  0  0  0  0
  180.1620  182.7770  136.2660 N   0  0  0  0  0  0  0  0  0  0  0  0
  180.5520  183.4580  137.5130 C   0  0  2  0  0  3  0  0  0  0  0  0
  179.3260  185.3230  136.2820 C   0  0  0  0  0  2  0  0  0  0  0  0
  180.2860  185.0030  135.1390 C   0  0  0  0  0  2  0  0  0  0  0  0
  180.6590  183.5110  135.0970 C   0  0  0  0  0  2  0  0  0  0  0  0
  179.8940  184.8390  137.6190 C   0  0  0  0  0  2  0  0  0  0  0  0
  1 10  2  0  0  0  0
  1 12  1  0  0  0  0
  2  6  1  0  0  0  0
  2  8  1  0  0  0  0
  3  8  2  0  0  0  0
  3 11  1  0  0  0  0
  4 14  1  0  0  0  0
  7 13  1  0  0  0  0
  7 16  2  0  0  0  0
  8  1  1  0  0  0  0
  9 16  1  0  0  0  0
  9  4  1  0  0  0  0
 11 17  1  0  0  0  0
 12  5  1  0  0  0  0
 13  2  2  0  0  0  0
 14 15  1  0  0  0  0
 15 20  1  6  0  0  0
 15 11  1  0  0  0  0
 16  3  1  0  0  0  0
 17 12  2  0  0  0  0
 18 24  1  0  0  0  0
 18 22  1  0  0  0  0
 19 18  2  0  0  0  0
 20 22  2  0  0  0  0
 21 19  1  0  0  0  0
 21 23  2  0  0  0  0
 23 20  1  0  0  0  0
 25  9  1  0  0  0  0
 26 25  1  0  0  0  0
 27 29  1  0  0  0  0
 27 26  1  0  0  0  0
 29 30  1  0  0  0  0
 30 28  1  6  0  0  0
 30 34  1  0  0  0  0
 31 34  1  0  0  0  0
 32 31  1  0  0  0  0
 33 32  1  0  0  0  0
 33 29  1  0  0  0  0
M  END
>  <MODEL>
8

>  <REMARK>
 VINA RESULT:      -6.7      5.013      8.985
  Name = 
  5 active torsions:
  status: ('A' for Active; 'I' for Inactive)
    1  A    between atoms: C_3  and  N_13
    2  A    between atoms: C_3  and  C_17
    3  A    between atoms: C_12  and  C_28
    4  A    between atoms: C_17  and  C_29
    5  A    between atoms: N_18  and  C_29
                            x       y       z     vdW  Elec       q    Type
                         _______ _______ _______ _____ _____    ______ ____

>  <TORSDO>
F 5

$$$$
=
 OpenBabel10252414543D

 34 38  0  0  1  0  0  0  0  0999 V2000
  185.6140  178.5950  139.6840 C   0  0  0  0  0  0  0  0  0  0  0  0
  188.0670  178.3450  139.5580 C   0  0  0  0  0  0  0  0  0  0  0  0
  186.6540  177.7730  137.6280 C   0  0  0  0  0  0  0  0  0  0  0  0
  186.9210  178.1110  134.6410 C   0  0  0  0  0  2  0  0  0  0  0  0
  183.2340  178.7700  139.7550 F   0  0  0  0  0  0  0  0  0  0  0  0
  188.2410  178.7570  140.8750 O   0  0  0  0  0  1  0  0  0  0  0  0
  189.0890  177.6310  137.4970 C   0  0  0  0  0  3  0  0  0  0  0  0
  186.7840  178.2470  138.9720 C   0  0  0  0  0  0  0  0  0  0  0  0
  187.8080  177.2980  135.4540 N   0  0  0  0  0  0  0  0  0  0  0  0
  185.6720  179.0530  140.8570 O   0  0  0  0  0  0  0  0  0  0  0  0
  185.3890  177.5480  137.1130 N   0  0  0  0  0  0  0  0  0  0  0  0
  184.3680  178.4380  139.0880 C   0  0  0  0  0  0  0  0  0  0  0  0
  189.2000  178.0200  138.8220 C   0  0  0  0  0  3  0  0  0  0  0  0
  185.5200  177.5210  134.5970 C   0  0  0  0  0  2  0  0  0  0  0  0
  185.1050  176.7970  135.8820 C   0  0  1  0  0  3  0  0  0  0  0  0
  187.8410  177.5220  136.8740 C   0  0  0  0  0  0  0  0  0  0  0  0
  184.2780  177.8870  137.8190 C   0  0  0  0  0  3  0  0  0  0  0  0
  185.8220  173.2760  137.1930 C   0  0  0  0  0  0  0  0  0  0  0  0
  186.0950  172.5920  136.0060 C   0  0  0  0  0  3  0  0  0  0  0  0
  185.4900  175.3350  135.9430 C   0  0  0  0  0  0  0  0  0  0  0  0
  186.0520  173.2710  134.7860 C   0  0  0  0  0  3  0  0  0  0  0  0
  185.5120  174.6370  137.1610 C   0  0  0  0  0  3  0  0  0  0  0  0
  185.7430  174.6330  134.7530 C   0  0  0  0  0  3  0  0  0  0  0  0
  185.8500  172.6160  138.3770 F   0  0  0  0  0  0  0  0  0  0  0  0
  188.8970  176.6020  134.7790 C   0  0  0  0  0  2  0  0  0  0  0  0
  189.1080  175.2380  135.4090 C   0  0  0  0  0  2  0  0  0  0  0  0
  190.4720  174.6830  135.0340 C   0  0  0  0  0  2  0  0  0  0  0  0
  191.3550  173.7480  137.5410 O   0  0  0  0  0  1  0  0  0  0  0  0
  191.5180  175.3520  135.7990 N   0  0  0  0  0  0  0  0  0  0  0  0
  191.3060  175.1150  137.2380 C   0  0  2  0  0  3  0  0  0  0  0  0
  193.5370  176.3470  137.2530 C   0  0  0  0  0  2  0  0  0  0  0  0
  193.9720  175.2740  136.2580 C   0  0  0  0  0  2  0  0  0  0  0  0
  192.8090  174.8050  135.3680 C   0  0  0  0  0  2  0  0  0  0  0  0
  192.3420  175.8670  138.0810 C   0  0  0  0  0  2  0  0  0  0  0  0
  1 10  2  0  0  0  0
  2  6  1  0  0  0  0
  3  8  2  0  0  0  0
  4  9  1  0  0  0  0
  7 13  1  0  0  0  0
  8  2  1  0  0  0  0
  8  1  1  0  0  0  0
  9 16  1  0  0  0  0
 11  3  1  0  0  0  0
 11 17  1  0  0  0  0
 12  1  1  0  0  0  0
 12  5  1  0  0  0  0
 13  2  2  0  0  0  0
 14  4  1  0  0  0  0
 14 15  1  0  0  0  0
 15 20  1  1  0  0  0
 15 11  1  0  0  0  0
 16  7  2  0  0  0  0
 16  3  1  0  0  0  0
 17 12  2  0  0  0  0
 18 24  1  0  0  0  0
 19 18  2  0  0  0  0
 20 22  2  0  0  0  0
 21 19  1  0  0  0  0
 22 18  1  0  0  0  0
 23 21  2  0  0  0  0
 23 20  1  0  0  0  0
 25 26  1  0  0  0  0
 25  9  1  0  0  0  0
 27 26  1  0  0  0  0
 27 29  1  0  0  0  0
 29 30  1  0  0  0  0
 30 28  1  6  0  0  0
 30 34  1  0  0  0  0
 31 34  1  0  0  0  0
 32 31  1  0  0  0  0
 33 29  1  0  0  0  0
 33 32  1  0  0  0  0
M  END
>  <MODEL>
9

>  <REMARK>
 VINA RESULT:      -6.6      2.632      3.967
  Name = 
  5 active torsions:
  status: ('A' for Active; 'I' for Inactive)
    1  A    between atoms: C_3  and  N_13
    2  A    between atoms: C_3  and  C_17
    3  A    between atoms: C_12  and  C_28
    4  A    between atoms: C_17  and  C_29
    5  A    between atoms: N_18  and  C_29
                            x       y       z     vdW  Elec       q    Type
                         _______ _______ _______ _____ _____    ______ ____

>  <TORSDO>
F 5

$$$$
