=
 OpenBabel10262421303D

 32 36  0  0  1  0  0  0  0  0999 V2000
  186.5430  177.7890  143.1470 C   0  0  0  0  0  0  0  0  0  0  0  0
  190.5780  177.2040  140.4620 C   0  0  0  0  0  3  0  0  0  0  0  0
  189.7440  177.3010  139.2160 C   0  0  0  0  0  2  0  0  0  0  0  0
  184.3790  178.6570  142.1030 C   0  0  0  0  0  0  0  0  0  0  0  0
  183.5750  178.9230  140.8700 C   0  0  1  0  0  3  0  0  0  0  0  0
  190.0150  177.3230  141.6660 C   0  0  0  0  0  3  0  0  0  0  0  0
  187.9190  177.4940  143.0380 C   0  0  0  0  0  0  0  0  0  0  0  0
  187.8650  178.0920  140.6770 C   0  0  0  0  0  0  0  0  0  0  0  0
  186.4990  178.4080  140.7750 C   0  0  0  0  0  0  0  0  0  0  0  0
  188.6230  178.3260  139.3900 C   0  0  0  0  0  2  0  0  0  0  0  0
  188.5750  177.6440  141.8060 C   0  0  0  0  0  0  0  0  0  0  0  0
  185.7770  178.8370  139.5160 C   0  0  0  0  0  2  0  0  0  0  0  0
  183.8030  178.7880  143.2150 O   0  0  0  0  0  0  0  0  0  0  0  0
  184.0400  180.3590  139.0660 O   0  0  0  0  0  0  0  0  0  0  0  0
  185.8230  178.2630  142.0160 C   0  0  0  0  0  0  0  0  0  0  0  0
  184.4450  179.4590  139.7830 C   0  0  0  0  0  0  0  0  0  0  0  0
  181.6590  177.5070  140.7940 O   0  0  0  0  0  1  0  0  0  0  0  0
  183.4670  176.7630  139.5990 O   0  0  0  0  0  0  0  0  0  0  0  0
  182.8470  177.6930  140.4250 C   0  0  0  0  0  0  0  0  0  0  0  0
  188.6800  176.9880  144.2320 C   0  0  0  0  0  2  0  0  0  0  0  0
  189.3650  178.1390  144.9450 C   0  0  0  0  0  2  0  0  0  0  0  0
  190.8610  178.0520  144.7190 C   0  0  0  0  0  2  0  0  0  0  0  0
  191.4410  176.8440  145.4400 C   0  0  0  0  0  2  0  0  0  0  0  0
  190.9840  176.7870  146.8920 C   0  0  0  0  0  2  0  0  0  0  0  0
  192.7700  175.9570  148.2200 C   0  0  0  0  0  0  0  0  0  0  0  0
  193.4110  176.5250  149.1400 O   0  0  0  0  0  0  0  0  0  0  0  0
  192.7160  175.1540  146.9170 N   0  0  0  0  0  2  0  0  0  0  0  0
  191.5840  175.5860  147.6050 C   0  0  2  0  0  3  0  0  0  0  0  0
  185.8580  177.5440  144.4620 C   0  0  0  0  0  2  0  0  0  0  0  0
  185.9700  178.7710  145.3480 C   0  0  0  0  0  3  0  0  0  0  0  0
  184.8910  178.7060  146.4090 C   0  0  0  0  0  2  0  0  0  0  0  0
  186.3130  178.3320  146.7570 C   0  0  0  0  0  2  0  0  0  0  0  0
  1 29  1  0  0  0  0
  2  6  2  0  0  0  0
  3 10  1  0  0  0  0
  3  2  1  0  0  0  0
  4 13  2  0  0  0  0
  5 19  1  6  0  0  0
  5  4  1  0  0  0  0
  6 11  1  0  0  0  0
  7  1  1  0  0  0  0
  7 20  1  0  0  0  0
  8  9  2  0  0  0  0
  8 11  1  0  0  0  0
  9 15  1  0  0  0  0
 10  8  1  0  0  0  0
 11  7  2  0  0  0  0
 12 16  1  0  0  0  0
 12  9  1  0  0  0  0
 14 16  2  0  0  0  0
 15  4  1  0  0  0  0
 15  1  2  0  0  0  0
 16  5  1  0  0  0  0
 18 19  2  0  0  0  0
 19 17  1  0  0  0  0
 20 21  1  0  0  0  0
 22 21  1  0  0  0  0
 22 23  1  0  0  0  0
 23 24  1  0  0  0  0
 25 26  2  0  0  0  0
 27 28  1  0  0  0  0
 27 25  1  0  0  0  0
 28 24  1  6  0  0  0
 28 25  1  0  0  0  0
 29 30  1  0  0  0  0
 30 31  1  0  0  0  0
 30 32  1  0  0  0  0
 31 32  1  0  0  0  0
M  END
>  <MODEL>
1

>  <REMARK>
 VINA RESULT:      -8.6      0.000      0.000
  Name = 
  9 active torsions:
  status: ('A' for Active; 'I' for Inactive)
    1  A    between atoms: C_2  and  C_10
    2  A    between atoms: C_2  and  C_12
    3  A    between atoms: C_3  and  C_28
    4  A    between atoms: C_7  and  C_22
    5  A    between atoms: C_8  and  C_28
    6  A    between atoms: C_9  and  C_14
    7  A    between atoms: C_9  and  C_21
    8  A    between atoms: C_10  and  CA_24
    9  A    between atoms: C_12  and  C_21
                            x       y       z     vdW  Elec       q    Type
                         _______ _______ _______ _____ _____    ______ ____

>  <TORSDO>
F 9

$$$$
=
 OpenBabel10262421303D

 32 36  0  0  1  0  0  0  0  0999 V2000
  186.9760  178.3720  141.1830 C   0  0  0  0  0  0  0  0  0  0  0  0
  186.0840  178.4160  145.9820 C   0  0  0  0  0  3  0  0  0  0  0  0
  184.6740  178.8490  145.7000 C   0  0  0  0  0  2  0  0  0  0  0  0
  185.0670  178.4120  139.4870 C   0  0  0  0  0  0  0  0  0  0  0  0
  183.6230  178.6760  139.1970 C   0  0  1  0  0  3  0  0  0  0  0  0
  186.9350  178.1810  144.9810 C   0  0  0  0  0  3  0  0  0  0  0  0
  187.4210  178.2880  142.5200 C   0  0  0  0  0  0  0  0  0  0  0  0
  185.1100  178.2970  143.2930 C   0  0  0  0  0  0  0  0  0  0  0  0
  184.6530  178.3610  141.9660 C   0  0  0  0  0  0  0  0  0  0  0  0
  184.1360  178.1660  144.4420 C   0  0  0  0  0  2  0  0  0  0  0  0
  186.4890  178.2520  143.5690 C   0  0  0  0  0  0  0  0  0  0  0  0
  183.1610  178.4560  141.7320 C   0  0  0  0  0  2  0  0  0  0  0  0
  185.8270  178.1910  138.5080 O   0  0  0  0  0  0  0  0  0  0  0  0
  181.7090  177.6290  140.0760 O   0  0  0  0  0  0  0  0  0  0  0  0
  185.5830  178.3950  140.8930 C   0  0  0  0  0  0  0  0  0  0  0  0
  182.7660  178.1860  140.3170 C   0  0  0  0  0  0  0  0  0  0  0  0
  184.3630  180.9130  138.8400 O   0  0  0  0  0  1  0  0  0  0  0  0
  182.0920  180.6140  138.7570 O   0  0  0  0  0  0  0  0  0  0  0  0
  183.3840  180.1280  138.9260 C   0  0  0  0  0  0  0  0  0  0  0  0
  188.8920  178.2680  142.8270 C   0  0  0  0  0  2  0  0  0  0  0  0
  189.3250  176.8720  143.2340 C   0  0  0  0  0  2  0  0  0  0  0  0
  190.8080  176.7070  142.9650 C   0  0  0  0  0  2  0  0  0  0  0  0
  191.4940  176.0360  144.1470 C   0  0  0  0  0  2  0  0  0  0  0  0
  191.6370  176.9880  145.3260 C   0  0  0  0  0  2  0  0  0  0  0  0
  190.3390  176.6700  147.2890 C   0  0  0  0  0  0  0  0  0  0  0  0
  189.0900  176.6840  147.4320 O   0  0  0  0  0  0  0  0  0  0  0  0
  191.7430  177.1230  147.7000 N   0  0  0  0  0  2  0  0  0  0  0  0
  191.4920  176.2480  146.6450 C   0  0  2  0  0  3  0  0  0  0  0  0
  188.0020  178.4850  140.0900 C   0  0  0  0  0  2  0  0  0  0  0  0
  188.6720  177.1430  139.8600 C   0  0  0  0  0  3  0  0  0  0  0  0
  189.0120  177.0150  138.3890 C   0  0  0  0  0  2  0  0  0  0  0  0
  190.0910  177.3770  139.3830 C   0  0  0  0  0  2  0  0  0  0  0  0
  1  7  1  0  0  0  0
  3  2  1  0  0  0  0
  4 15  1  0  0  0  0
  5 19  1  1  0  0  0
  5  4  1  0  0  0  0
  5 16  1  0  0  0  0
  6  2  2  0  0  0  0
  7 20  1  0  0  0  0
  7 11  2  0  0  0  0
  8 11  1  0  0  0  0
  8 10  1  0  0  0  0
  9  8  2  0  0  0  0
 10  3  1  0  0  0  0
 11  6  1  0  0  0  0
 12  9  1  0  0  0  0
 13  4  2  0  0  0  0
 14 16  2  0  0  0  0
 15  1  2  0  0  0  0
 15  9  1  0  0  0  0
 16 12  1  0  0  0  0
 17 19  1  0  0  0  0
 18 19  2  0  0  0  0
 20 21  1  0  0  0  0
 22 21  1  0  0  0  0
 22 23  1  0  0  0  0
 23 24  1  0  0  0  0
 25 26  2  0  0  0  0
 25 27  1  0  0  0  0
 28 24  1  6  0  0  0
 28 25  1  0  0  0  0
 28 27  1  0  0  0  0
 29  1  1  0  0  0  0
 30 29  1  0  0  0  0
 31 32  1  0  0  0  0
 31 30  1  0  0  0  0
 32 30  1  0  0  0  0
M  END
>  <MODEL>
2

>  <REMARK>
 VINA RESULT:      -8.3      1.579      4.372
  Name = 
  9 active torsions:
  status: ('A' for Active; 'I' for Inactive)
    1  A    between atoms: C_2  and  C_10
    2  A    between atoms: C_2  and  C_12
    3  A    between atoms: C_3  and  C_28
    4  A    between atoms: C_7  and  C_22
    5  A    between atoms: C_8  and  C_28
    6  A    between atoms: C_9  and  C_14
    7  A    between atoms: C_9  and  C_21
    8  A    between atoms: C_10  and  CA_24
    9  A    between atoms: C_12  and  C_21
                            x       y       z     vdW  Elec       q    Type
                         _______ _______ _______ _____ _____    ______ ____

>  <TORSDO>
F 9

$$$$
=
 OpenBabel10262421303D

 32 36  0  0  1  0  0  0  0  0999 V2000
  188.2630  178.3480  142.2510 C   0  0  0  0  0  0  0  0  0  0  0  0
  184.4580  178.4260  145.3080 C   0  0  0  0  0  3  0  0  0  0  0  0
  185.2230  177.5490  146.2570 C   0  0  0  0  0  2  0  0  0  0  0  0
  190.5660  177.5670  143.0320 C   0  0  0  0  0  0  0  0  0  0  0  0
  191.3890  176.8380  144.0470 C   0  0  1  0  0  3  0  0  0  0  0  0
  185.0120  178.8330  144.1640 C   0  0  0  0  0  3  0  0  0  0  0  0
  186.9220  178.6790  142.5410 C   0  0  0  0  0  0  0  0  0  0  0  0
  187.2540  178.0070  144.8600 C   0  0  0  0  0  0  0  0  0  0  0  0
  188.5970  177.6910  144.5890 C   0  0  0  0  0  0  0  0  0  0  0  0
  186.7070  177.9200  146.2660 C   0  0  0  0  0  2  0  0  0  0  0  0
  186.4220  178.5070  143.8420 C   0  0  0  0  0  0  0  0  0  0  0  0
  189.4300  177.1120  145.7120 C   0  0  0  0  0  2  0  0  0  0  0  0
  191.1370  177.9340  141.9710 O   0  0  0  0  0  0  0  0  0  0  0  0
  191.6910  177.2980  146.3330 O   0  0  0  0  0  0  0  0  0  0  0  0
  189.1180  177.8630  143.2790 C   0  0  0  0  0  0  0  0  0  0  0  0
  190.8960  177.1240  145.4250 C   0  0  0  0  0  0  0  0  0  0  0  0
  190.5510  174.8700  142.9940 O   0  0  0  0  0  0  0  0  0  0  0  0
  192.3670  174.5480  144.3560 O   0  0  0  0  0  1  0  0  0  0  0  0
  191.4070  175.3680  143.7710 C   0  0  0  0  0  0  0  0  0  0  0  0
  186.0170  179.1870  141.4540 C   0  0  0  0  0  2  0  0  0  0  0  0
  184.9170  178.1800  141.1720 C   0  0  0  0  0  2  0  0  0  0  0  0
  183.6160  178.9140  140.9160 C   0  0  0  0  0  2  0  0  0  0  0  0
  182.4560  177.9320  140.8300 C   0  0  0  0  0  2  0  0  0  0  0  0
  181.1650  178.5430  141.3560 C   0  0  0  0  0  2  0  0  0  0  0  0
  180.3000  178.7180  143.5610 C   0  0  0  0  0  0  0  0  0  0  0  0
  179.6820  177.8630  144.2460 O   0  0  0  0  0  0  0  0  0  0  0  0
  180.4370  180.1270  142.9780 N   0  0  0  0  0  2  0  0  0  0  0  0
  181.3590  179.1050  142.7550 C   0  0  2  0  0  3  0  0  0  0  0  0
  188.7430  178.4730  140.8320 C   0  0  0  0  0  2  0  0  0  0  0  0
  188.4810  177.1840  140.0750 C   0  0  0  0  0  3  0  0  0  0  0  0
  188.0890  177.5250  138.6520 C   0  0  0  0  0  2  0  0  0  0  0  0
  189.4930  177.0550  138.9550 C   0  0  0  0  0  2  0  0  0  0  0  0
  1  7  2  0  0  0  0
  1 15  1  0  0  0  0
  2  3  1  0  0  0  0
  3 10  1  0  0  0  0
  4 15  1  0  0  0  0
  4  5  1  0  0  0  0
  5 19  1  6  0  0  0
  5 16  1  0  0  0  0
  6  2  2  0  0  0  0
  7 11  1  0  0  0  0
  8 10  1  0  0  0  0
  9  8  1  0  0  0  0
  9 12  1  0  0  0  0
 11  6  1  0  0  0  0
 11  8  2  0  0  0  0
 13  4  2  0  0  0  0
 15  9  2  0  0  0  0
 16 12  1  0  0  0  0
 16 14  2  0  0  0  0
 17 19  2  0  0  0  0
 19 18  1  0  0  0  0
 20  7  1  0  0  0  0
 21 20  1  0  0  0  0
 22 21  1  0  0  0  0
 23 22  1  0  0  0  0
 23 24  1  0  0  0  0
 25 26  2  0  0  0  0
 27 25  1  0  0  0  0
 28 24  1  6  0  0  0
 28 27  1  0  0  0  0
 28 25  1  0  0  0  0
 29  1  1  0  0  0  0
 30 29  1  0  0  0  0
 31 32  1  0  0  0  0
 31 30  1  0  0  0  0
 32 30  1  0  0  0  0
M  END
>  <MODEL>
3

>  <REMARK>
 VINA RESULT:      -8.1      3.593      8.451
  Name = 
  9 active torsions:
  status: ('A' for Active; 'I' for Inactive)
    1  A    between atoms: C_2  and  C_10
    2  A    between atoms: C_2  and  C_12
    3  A    between atoms: C_3  and  C_28
    4  A    between atoms: C_7  and  C_22
    5  A    between atoms: C_8  and  C_28
    6  A    between atoms: C_9  and  C_14
    7  A    between atoms: C_9  and  C_21
    8  A    between atoms: C_10  and  CA_24
    9  A    between atoms: C_12  and  C_21
                            x       y       z     vdW  Elec       q    Type
                         _______ _______ _______ _____ _____    ______ ____

>  <TORSDO>
F 9

$$$$
=
 OpenBabel10262421303D

 32 36  0  0  1  0  0  0  0  0999 V2000
  186.4990  178.5650  140.8700 C   0  0  0  0  0  0  0  0  0  0  0  0
  189.9240  177.0020  143.9770 C   0  0  0  0  0  3  0  0  0  0  0  0
  190.4980  176.1410  142.8880 C   0  0  0  0  0  2  0  0  0  0  0  0
  186.7410  178.2080  138.3520 C   0  0  0  0  0  0  0  0  0  0  0  0
  187.4090  177.4860  137.2250 C   0  0  1  0  0  3  0  0  0  0  0  0
  188.8710  177.7860  143.7390 C   0  0  0  0  0  3  0  0  0  0  0  0
  187.0360  178.4830  142.1720 C   0  0  0  0  0  0  0  0  0  0  0  0
  189.0270  177.3920  141.2870 C   0  0  0  0  0  0  0  0  0  0  0  0
  188.5130  177.4840  139.9820 C   0  0  0  0  0  0  0  0  0  0  0  0
  190.4170  176.8490  141.5340 C   0  0  0  0  0  2  0  0  0  0  0  0
  188.2960  177.8970  142.3770 C   0  0  0  0  0  0  0  0  0  0  0  0
  189.3220  176.8800  138.8550 C   0  0  0  0  0  2  0  0  0  0  0  0
  185.7540  178.9390  138.0740 O   0  0  0  0  0  0  0  0  0  0  0  0
  189.6770  177.4620  136.6030 O   0  0  0  0  0  0  0  0  0  0  0  0
  187.2410  178.0770  139.7590 C   0  0  0  0  0  0  0  0  0  0  0  0
  188.8650  177.3150  137.5010 C   0  0  0  0  0  0  0  0  0  0  0  0
  185.5180  176.0350  137.1880 O   0  0  0  0  0  1  0  0  0  0  0  0
  187.4780  175.0990  136.4560 O   0  0  0  0  0  0  0  0  0  0  0  0
  186.7490  176.1700  136.9610 C   0  0  0  0  0  0  0  0  0  0  0  0
  186.2510  178.9930  143.3480 C   0  0  0  0  0  2  0  0  0  0  0  0
  185.6650  177.8340  144.1330 C   0  0  0  0  0  2  0  0  0  0  0  0
  184.9250  178.3690  145.3420 C   0  0  0  0  0  2  0  0  0  0  0  0
  185.9070  178.8250  146.4110 C   0  0  0  0  0  2  0  0  0  0  0  0
  186.8820  177.7170  146.7850 C   0  0  0  0  0  2  0  0  0  0  0  0
  188.9960  177.2660  147.7690 C   0  0  0  0  0  0  0  0  0  0  0  0
  189.9230  176.5200  147.3630 O   0  0  0  0  0  0  0  0  0  0  0  0
  188.0400  177.7450  148.8650 N   0  0  0  0  0  2  0  0  0  0  0  0
  188.0590  178.2680  147.5730 C   0  0  2  0  0  3  0  0  0  0  0  0
  185.1170  179.1290  140.6980 C   0  0  0  0  0  2  0  0  0  0  0  0
  184.0800  178.0320  140.8560 C   0  0  0  0  0  3  0  0  0  0  0  0
  182.9120  178.5770  141.6520 C   0  0  0  0  0  2  0  0  0  0  0  0
  182.8070  178.4510  140.1500 C   0  0  0  0  0  2  0  0  0  0  0  0
  1  7  1  0  0  0  0
  3  2  1  0  0  0  0
  4 15  1  0  0  0  0
  5 19  1  1  0  0  0
  5 16  1  0  0  0  0
  5  4  1  0  0  0  0
  6  2  2  0  0  0  0
  7 11  2  0  0  0  0
  7 20  1  0  0  0  0
  8 10  1  0  0  0  0
  8 11  1  0  0  0  0
  9  8  2  0  0  0  0
 10  3  1  0  0  0  0
 11  6  1  0  0  0  0
 12  9  1  0  0  0  0
 13  4  2  0  0  0  0
 14 16  2  0  0  0  0
 15  9  1  0  0  0  0
 15  1  2  0  0  0  0
 16 12  1  0  0  0  0
 18 19  2  0  0  0  0
 19 17  1  0  0  0  0
 20 21  1  0  0  0  0
 21 22  1  0  0  0  0
 22 23  1  0  0  0  0
 23 24  1  0  0  0  0
 25 27  1  0  0  0  0
 26 25  2  0  0  0  0
 28 24  1  6  0  0  0
 28 25  1  0  0  0  0
 28 27  1  0  0  0  0
 29 30  1  0  0  0  0
 29  1  1  0  0  0  0
 30 31  1  0  0  0  0
 32 30  1  0  0  0  0
 32 31  1  0  0  0  0
M  END
>  <MODEL>
4

>  <REMARK>
 VINA RESULT:      -8.1      2.469      4.508
  Name = 
  9 active torsions:
  status: ('A' for Active; 'I' for Inactive)
    1  A    between atoms: C_2  and  C_10
    2  A    between atoms: C_2  and  C_12
    3  A    between atoms: C_3  and  C_28
    4  A    between atoms: C_7  and  C_22
    5  A    between atoms: C_8  and  C_28
    6  A    between atoms: C_9  and  C_14
    7  A    between atoms: C_9  and  C_21
    8  A    between atoms: C_10  and  CA_24
    9  A    between atoms: C_12  and  C_21
                            x       y       z     vdW  Elec       q    Type
                         _______ _______ _______ _____ _____    ______ ____

>  <TORSDO>
F 9

$$$$
=
 OpenBabel10262421303D

 32 36  0  0  1  0  0  0  0  0999 V2000
  187.9220  177.0500  144.8110 C   0  0  0  0  0  0  0  0  0  0  0  0
  190.4250  177.5060  140.6450 C   0  0  0  0  0  3  0  0  0  0  0  0
  191.6880  177.6700  141.4400 C   0  0  0  0  0  2  0  0  0  0  0  0
  189.1150  176.5840  147.0210 C   0  0  0  0  0  0  0  0  0  0  0  0
  190.3880  176.5760  147.8070 C   0  0  1  0  0  3  0  0  0  0  0  0
  189.2580  177.2970  141.2590 C   0  0  0  0  0  3  0  0  0  0  0  0
  187.9630  177.1950  143.4080 C   0  0  0  0  0  0  0  0  0  0  0  0
  190.3840  176.9200  143.4470 C   0  0  0  0  0  0  0  0  0  0  0  0
  190.3560  176.7550  144.8420 C   0  0  0  0  0  0  0  0  0  0  0  0
  191.6760  176.7680  142.6750 C   0  0  0  0  0  2  0  0  0  0  0  0
  189.1920  177.1310  142.7300 C   0  0  0  0  0  0  0  0  0  0  0  0
  191.6750  176.5800  145.5640 C   0  0  0  0  0  2  0  0  0  0  0  0
  188.0420  176.3760  147.6470 O   0  0  0  0  0  0  0  0  0  0  0  0
  192.3580  175.3430  147.4440 O   0  0  0  0  0  0  0  0  0  0  0  0
  189.1210  176.8140  145.5410 C   0  0  0  0  0  0  0  0  0  0  0  0
  191.5200  176.0880  146.9650 C   0  0  0  0  0  0  0  0  0  0  0  0
  189.7680  178.7960  148.4160 O   0  0  0  0  0  0  0  0  0  0  0  0
  191.9430  178.2330  148.8700 O   0  0  0  0  0  1  0  0  0  0  0  0
  190.6790  177.9290  148.3750 C   0  0  0  0  0  0  0  0  0  0  0  0
  186.6980  177.4480  142.6370 C   0  0  0  0  0  2  0  0  0  0  0  0
  186.6560  178.8860  142.1530 C   0  0  0  0  0  2  0  0  0  0  0  0
  185.2320  179.3990  142.2240 C   0  0  0  0  0  2  0  0  0  0  0  0
  184.2480  178.2380  142.2830 C   0  0  0  0  0  2  0  0  0  0  0  0
  182.8900  178.6260  141.7130 C   0  0  0  0  0  2  0  0  0  0  0  0
  183.2690  179.4200  139.5070 C   0  0  0  0  0  0  0  0  0  0  0  0
  184.1890  180.1570  139.0710 O   0  0  0  0  0  0  0  0  0  0  0  0
  181.7860  179.0650  139.6510 N   0  0  0  0  0  2  0  0  0  0  0  0
  182.8160  178.3240  140.2260 C   0  0  2  0  0  3  0  0  0  0  0  0
  186.6000  177.2000  145.5100 C   0  0  0  0  0  2  0  0  0  0  0  0
  186.3070  178.6660  145.7670 C   0  0  0  0  0  3  0  0  0  0  0  0
  184.8060  178.8550  145.8570 C   0  0  0  0  0  2  0  0  0  0  0  0
  185.6360  178.8050  147.1190 C   0  0  0  0  0  2  0  0  0  0  0  0
  1 29  1  0  0  0  0
  1 15  1  0  0  0  0
  2  6  2  0  0  0  0
  2  3  1  0  0  0  0
  3 10  1  0  0  0  0
  4 13  2  0  0  0  0
  4  5  1  0  0  0  0
  5 19  1  6  0  0  0
  6 11  1  0  0  0  0
  7  1  2  0  0  0  0
  8  9  1  0  0  0  0
  9 15  2  0  0  0  0
  9 12  1  0  0  0  0
 10  8  1  0  0  0  0
 11  7  1  0  0  0  0
 11  8  2  0  0  0  0
 12 16  1  0  0  0  0
 15  4  1  0  0  0  0
 16 14  2  0  0  0  0
 16  5  1  0  0  0  0
 19 17  2  0  0  0  0
 19 18  1  0  0  0  0
 20  7  1  0  0  0  0
 21 22  1  0  0  0  0
 21 20  1  0  0  0  0
 22 23  1  0  0  0  0
 24 23  1  0  0  0  0
 25 27  1  0  0  0  0
 25 28  1  0  0  0  0
 26 25  2  0  0  0  0
 27 28  1  0  0  0  0
 28 24  1  1  0  0  0
 29 30  1  0  0  0  0
 30 31  1  0  0  0  0
 30 32  1  0  0  0  0
 31 32  1  0  0  0  0
M  END
>  <MODEL>
5

>  <REMARK>
 VINA RESULT:      -8.0      2.976      7.909
  Name = 
  9 active torsions:
  status: ('A' for Active; 'I' for Inactive)
    1  A    between atoms: C_2  and  C_10
    2  A    between atoms: C_2  and  C_12
    3  A    between atoms: C_3  and  C_28
    4  A    between atoms: C_7  and  C_22
    5  A    between atoms: C_8  and  C_28
    6  A    between atoms: C_9  and  C_14
    7  A    between atoms: C_9  and  C_21
    8  A    between atoms: C_10  and  CA_24
    9  A    between atoms: C_12  and  C_21
                            x       y       z     vdW  Elec       q    Type
                         _______ _______ _______ _____ _____    ______ ____

>  <TORSDO>
F 9

$$$$
=
 OpenBabel10262421303D

 32 36  0  0  1  0  0  0  0  0999 V2000
  184.3450  178.8930  141.1910 C   0  0  0  0  0  0  0  0  0  0  0  0
  186.2050  178.6400  145.6970 C   0  0  0  0  0  3  0  0  0  0  0  0
  184.8540  178.9830  146.2570 C   0  0  0  0  0  2  0  0  0  0  0  0
  181.8210  178.8780  140.8040 C   0  0  0  0  0  0  0  0  0  0  0  0
  180.4440  179.0510  141.3620 C   0  0  1  0  0  3  0  0  0  0  0  0
  186.3820  178.5160  144.3800 C   0  0  0  0  0  3  0  0  0  0  0  0
  185.4480  178.7770  142.0640 C   0  0  0  0  0  0  0  0  0  0  0  0
  183.9300  178.5810  143.9600 C   0  0  0  0  0  0  0  0  0  0  0  0
  182.8230  178.6770  143.1000 C   0  0  0  0  0  0  0  0  0  0  0  0
  183.7420  178.3250  145.4390 C   0  0  0  0  0  2  0  0  0  0  0  0
  185.2380  178.6230  143.4440 C   0  0  0  0  0  0  0  0  0  0  0  0
  181.4410  178.6760  143.7180 C   0  0  0  0  0  2  0  0  0  0  0  0
  181.9340  178.7600  139.5550 O   0  0  0  0  0  0  0  0  0  0  0  0
  179.3520  177.8270  143.0480 O   0  0  0  0  0  0  0  0  0  0  0  0
  183.0190  178.8300  141.7020 C   0  0  0  0  0  0  0  0  0  0  0  0
  180.3500  178.4470  142.7230 C   0  0  0  0  0  0  0  0  0  0  0  0
  179.6850  181.0250  142.4610 O   0  0  0  0  0  1  0  0  0  0  0  0
  180.0850  181.2540  140.2160 O   0  0  0  0  0  0  0  0  0  0  0  0
  180.0460  180.4940  141.3800 C   0  0  0  0  0  0  0  0  0  0  0  0
  186.8500  178.8480  141.5260 C   0  0  0  0  0  2  0  0  0  0  0  0
  187.6000  177.5670  141.8410 C   0  0  0  0  0  2  0  0  0  0  0  0
  188.8860  177.5270  141.0400 C   0  0  0  0  0  2  0  0  0  0  0  0
  190.0120  176.9250  141.8680 C   0  0  0  0  0  2  0  0  0  0  0  0
  189.5280  176.5010  143.2480 C   0  0  0  0  0  2  0  0  0  0  0  0
  189.6990  177.2150  145.5070 C   0  0  0  0  0  0  0  0  0  0  0  0
  189.1400  176.7540  146.5340 O   0  0  0  0  0  0  0  0  0  0  0  0
  190.0800  178.3850  144.5950 N   0  0  0  0  0  2  0  0  0  0  0  0
  190.4280  177.0600  144.3370 C   0  0  2  0  0  3  0  0  0  0  0  0
  184.6080  179.1330  139.7310 C   0  0  0  0  0  2  0  0  0  0  0  0
  185.0770  177.8520  139.0650 C   0  0  0  0  0  3  0  0  0  0  0  0
  184.6360  177.8670  137.6160 C   0  0  0  0  0  2  0  0  0  0  0  0
  186.0670  178.1990  137.9710 C   0  0  0  0  0  2  0  0  0  0  0  0
  1 15  2  0  0  0  0
  1  7  1  0  0  0  0
  2  3  1  0  0  0  0
  4  5  1  0  0  0  0
  4 15  1  0  0  0  0
  5 19  1  1  0  0  0
  5 16  1  0  0  0  0
  6  2  2  0  0  0  0
  7 11  2  0  0  0  0
  8 10  1  0  0  0  0
  9 12  1  0  0  0  0
  9  8  2  0  0  0  0
 10  3  1  0  0  0  0
 11  8  1  0  0  0  0
 11  6  1  0  0  0  0
 13  4  2  0  0  0  0
 15  9  1  0  0  0  0
 16 14  2  0  0  0  0
 16 12  1  0  0  0  0
 18 19  2  0  0  0  0
 19 17  1  0  0  0  0
 20 21  1  0  0  0  0
 20  7  1  0  0  0  0
 22 21  1  0  0  0  0
 22 23  1  0  0  0  0
 23 24  1  0  0  0  0
 25 26  2  0  0  0  0
 27 25  1  0  0  0  0
 28 24  1  6  0  0  0
 28 27  1  0  0  0  0
 28 25  1  0  0  0  0
 29  1  1  0  0  0  0
 30 29  1  0  0  0  0
 31 32  1  0  0  0  0
 31 30  1  0  0  0  0
 32 30  1  0  0  0  0
M  END
>  <MODEL>
6

>  <REMARK>
 VINA RESULT:      -7.8      2.374      5.253
  Name = 
  9 active torsions:
  status: ('A' for Active; 'I' for Inactive)
    1  A    between atoms: C_2  and  C_10
    2  A    between atoms: C_2  and  C_12
    3  A    between atoms: C_3  and  C_28
    4  A    between atoms: C_7  and  C_22
    5  A    between atoms: C_8  and  C_28
    6  A    between atoms: C_9  and  C_14
    7  A    between atoms: C_9  and  C_21
    8  A    between atoms: C_10  and  CA_24
    9  A    between atoms: C_12  and  C_21
                            x       y       z     vdW  Elec       q    Type
                         _______ _______ _______ _____ _____    ______ ____

>  <TORSDO>
F 9

$$$$
=
 OpenBabel10262421303D

 32 36  0  0  1  0  0  0  0  0999 V2000
  189.0990  177.9180  139.9510 C   0  0  0  0  0  0  0  0  0  0  0  0
  184.3750  178.6450  140.9400 C   0  0  0  0  0  3  0  0  0  0  0  0
  184.6010  178.1250  142.3300 C   0  0  0  0  0  2  0  0  0  0  0  0
  190.7940  177.5330  141.8230 C   0  0  0  0  0  0  0  0  0  0  0  0
  191.0570  177.1760  143.2520 C   0  0  1  0  0  3  0  0  0  0  0  0
  185.3880  178.7380  140.0760 C   0  0  0  0  0  3  0  0  0  0  0  0
  187.7890  178.2380  139.5370 C   0  0  0  0  0  0  0  0  0  0  0  0
  187.0600  178.2820  141.8610 C   0  0  0  0  0  0  0  0  0  0  0  0
  188.3650  177.9820  142.2890 C   0  0  0  0  0  0  0  0  0  0  0  0
  185.9640  178.5700  142.8630 C   0  0  0  0  0  2  0  0  0  0  0  0
  186.7740  178.4180  140.4910 C   0  0  0  0  0  0  0  0  0  0  0  0
  188.6020  177.8000  143.7730 C   0  0  0  0  0  2  0  0  0  0  0  0
  191.7840  177.6120  141.0490 O   0  0  0  0  0  0  0  0  0  0  0  0
  190.3950  178.2910  145.2140 O   0  0  0  0  0  0  0  0  0  0  0  0
  189.4020  177.8010  141.3360 C   0  0  0  0  0  0  0  0  0  0  0  0
  190.0480  177.8170  144.1460 C   0  0  0  0  0  0  0  0  0  0  0  0
  190.2160  174.9770  142.8780 O   0  0  0  0  0  0  0  0  0  0  0  0
  192.0680  175.0960  144.2220 O   0  0  0  0  0  1  0  0  0  0  0  0
  191.0850  175.6920  143.4410 C   0  0  0  0  0  0  0  0  0  0  0  0
  187.4660  178.3580  138.0730 C   0  0  0  0  0  2  0  0  0  0  0  0
  186.7340  177.1190  137.5930 C   0  0  0  0  0  2  0  0  0  0  0  0
  186.9820  176.9320  136.1090 C   0  0  0  0  0  2  0  0  0  0  0  0
  186.9810  175.4530  135.7490 C   0  0  0  0  0  2  0  0  0  0  0  0
  186.8870  174.5750  136.9900 C   0  0  0  0  0  2  0  0  0  0  0  0
  184.6460  174.0010  137.5290 C   0  0  0  0  0  0  0  0  0  0  0  0
  183.6350  174.7410  137.6330 O   0  0  0  0  0  0  0  0  0  0  0  0
  185.5730  172.9100  138.0710 N   0  0  0  0  0  2  0  0  0  0  0  0
  185.7700  173.5540  136.8510 C   0  0  2  0  0  3  0  0  0  0  0  0
  190.1410  177.6590  138.8990 C   0  0  0  0  0  2  0  0  0  0  0  0
  190.1220  176.1960  138.4930 C   0  0  0  0  0  3  0  0  0  0  0  0
  190.4910  176.0930  137.0270 C   0  0  0  0  0  2  0  0  0  0  0  0
  191.5220  175.7800  138.0880 C   0  0  0  0  0  2  0  0  0  0  0  0
  1 15  1  0  0  0  0
  2  3  1  0  0  0  0
  3 10  1  0  0  0  0
  4  5  1  0  0  0  0
  5 19  1  6  0  0  0
  5 16  1  0  0  0  0
  6 11  1  0  0  0  0
  6  2  2  0  0  0  0
  7  1  2  0  0  0  0
  7 11  1  0  0  0  0
  8  9  1  0  0  0  0
  8 10  1  0  0  0  0
  9 12  1  0  0  0  0
 11  8  2  0  0  0  0
 12 16  1  0  0  0  0
 13  4  2  0  0  0  0
 15  4  1  0  0  0  0
 15  9  2  0  0  0  0
 16 14  2  0  0  0  0
 17 19  2  0  0  0  0
 19 18  1  0  0  0  0
 20  7  1  0  0  0  0
 21 20  1  0  0  0  0
 22 21  1  0  0  0  0
 23 22  1  0  0  0  0
 23 24  1  0  0  0  0
 25 26  2  0  0  0  0
 25 27  1  0  0  0  0
 28 24  1  1  0  0  0
 28 25  1  0  0  0  0
 28 27  1  0  0  0  0
 29  1  1  0  0  0  0
 30 29  1  0  0  0  0
 31 32  1  0  0  0  0
 31 30  1  0  0  0  0
 32 30  1  0  0  0  0
M  END
>  <MODEL>
7

>  <REMARK>
 VINA RESULT:      -7.8      3.883      8.422
  Name = 
  9 active torsions:
  status: ('A' for Active; 'I' for Inactive)
    1  A    between atoms: C_2  and  C_10
    2  A    between atoms: C_2  and  C_12
    3  A    between atoms: C_3  and  C_28
    4  A    between atoms: C_7  and  C_22
    5  A    between atoms: C_8  and  C_28
    6  A    between atoms: C_9  and  C_14
    7  A    between atoms: C_9  and  C_21
    8  A    between atoms: C_10  and  CA_24
    9  A    between atoms: C_12  and  C_21
                            x       y       z     vdW  Elec       q    Type
                         _______ _______ _______ _____ _____    ______ ____

>  <TORSDO>
F 9

$$$$
=
 OpenBabel10262421303D

 32 36  0  0  1  0  0  0  0  0999 V2000
  188.1830  178.4660  142.4050 C   0  0  0  0  0  0  0  0  0  0  0  0
  184.4740  178.5250  145.5780 C   0  0  0  0  0  3  0  0  0  0  0  0
  185.2480  177.6030  146.4760 C   0  0  0  0  0  2  0  0  0  0  0  0
  190.4920  177.6140  143.0910 C   0  0  0  0  0  0  0  0  0  0  0  0
  191.3290  176.8370  144.0560 C   0  0  1  0  0  3  0  0  0  0  0  0
  185.0020  178.9560  144.4300 C   0  0  0  0  0  3  0  0  0  0  0  0
  186.8590  178.8140  142.7460 C   0  0  0  0  0  0  0  0  0  0  0  0
  187.2460  178.0640  145.0310 C   0  0  0  0  0  0  0  0  0  0  0  0
  188.5730  177.7290  144.7110 C   0  0  0  0  0  0  0  0  0  0  0  0
  186.7390  177.9430  146.4510 C   0  0  0  0  0  2  0  0  0  0  0  0
  186.3940  178.6120  144.0550 C   0  0  0  0  0  0  0  0  0  0  0  0
  189.4270  177.0980  145.7880 C   0  0  0  0  0  2  0  0  0  0  0  0
  191.0380  178.0020  142.0250 O   0  0  0  0  0  0  0  0  0  0  0  0
  191.7100  177.2190  146.3460 O   0  0  0  0  0  0  0  0  0  0  0  0
  189.0580  177.9310  143.3910 C   0  0  0  0  0  0  0  0  0  0  0  0
  190.8840  177.0900  145.4580 C   0  0  0  0  0  0  0  0  0  0  0  0
  190.4820  174.9370  142.8930 O   0  0  0  0  0  0  0  0  0  0  0  0
  192.1970  174.5020  144.3500 O   0  0  0  0  0  1  0  0  0  0  0  0
  191.3070  175.3760  143.7360 C   0  0  0  0  0  0  0  0  0  0  0  0
  185.9320  179.3750  141.7030 C   0  0  0  0  0  2  0  0  0  0  0  0
  184.9230  178.3240  141.2780 C   0  0  0  0  0  2  0  0  0  0  0  0
  183.7570  178.9990  140.5840 C   0  0  0  0  0  2  0  0  0  0  0  0
  184.1280  179.3740  139.1560 C   0  0  0  0  0  2  0  0  0  0  0  0
  184.5500  178.1530  138.3500 C   0  0  0  0  0  2  0  0  0  0  0  0
  183.0950  176.2770  138.3960 C   0  0  0  0  0  0  0  0  0  0  0  0
  182.6590  175.6290  139.3820 O   0  0  0  0  0  0  0  0  0  0  0  0
  183.7630  176.3420  137.0210 N   0  0  0  0  0  2  0  0  0  0  0  0
  183.3450  177.4660  137.7290 C   0  0  2  0  0  3  0  0  0  0  0  0
  188.6220  178.6250  140.9760 C   0  0  0  0  0  2  0  0  0  0  0  0
  188.3560  177.3480  140.2000 C   0  0  0  0  0  3  0  0  0  0  0  0
  188.1350  177.7000  138.7440 C   0  0  0  0  0  2  0  0  0  0  0  0
  189.4670  177.1440  139.1910 C   0  0  0  0  0  2  0  0  0  0  0  0
  1  7  2  0  0  0  0
  1 15  1  0  0  0  0
  2  3  1  0  0  0  0
  4 15  1  0  0  0  0
  4  5  1  0  0  0  0
  5 19  1  6  0  0  0
  5 16  1  0  0  0  0
  6  2  2  0  0  0  0
  7 11  1  0  0  0  0
  8 10  1  0  0  0  0
  9  8  1  0  0  0  0
  9 12  1  0  0  0  0
 10  3  1  0  0  0  0
 11  6  1  0  0  0  0
 11  8  2  0  0  0  0
 13  4  2  0  0  0  0
 15  9  2  0  0  0  0
 16 12  1  0  0  0  0
 16 14  2  0  0  0  0
 17 19  2  0  0  0  0
 19 18  1  0  0  0  0
 20  7  1  0  0  0  0
 21 20  1  0  0  0  0
 22 21  1  0  0  0  0
 23 22  1  0  0  0  0
 24 23  1  0  0  0  0
 25 26  2  0  0  0  0
 27 28  1  0  0  0  0
 27 25  1  0  0  0  0
 28 24  1  1  0  0  0
 28 25  1  0  0  0  0
 29  1  1  0  0  0  0
 30 29  1  0  0  0  0
 31 32  1  0  0  0  0
 31 30  1  0  0  0  0
 32 30  1  0  0  0  0
M  END
>  <MODEL>
8

>  <REMARK>
 VINA RESULT:      -7.8      3.417      8.448
  Name = 
  9 active torsions:
  status: ('A' for Active; 'I' for Inactive)
    1  A    between atoms: C_2  and  C_10
    2  A    between atoms: C_2  and  C_12
    3  A    between atoms: C_3  and  C_28
    4  A    between atoms: C_7  and  C_22
    5  A    between atoms: C_8  and  C_28
    6  A    between atoms: C_9  and  C_14
    7  A    between atoms: C_9  and  C_21
    8  A    between atoms: C_10  and  CA_24
    9  A    between atoms: C_12  and  C_21
                            x       y       z     vdW  Elec       q    Type
                         _______ _______ _______ _____ _____    ______ ____

>  <TORSDO>
F 9

$$$$
=
 OpenBabel10262421303D

 32 36  0  0  1  0  0  0  0  0999 V2000
  185.3270  178.2350  142.2940 C   0  0  0  0  0  0  0  0  0  0  0  0
  189.0230  178.1830  139.1060 C   0  0  0  0  0  3  0  0  0  0  0  0
  188.0320  178.0690  137.9830 C   0  0  0  0  0  2  0  0  0  0  0  0
  182.9300  178.6690  141.5270 C   0  0  0  0  0  0  0  0  0  0  0  0
  181.9400  178.7280  140.4070 C   0  0  1  0  0  3  0  0  0  0  0  0
  188.6080  178.2740  140.3710 C   0  0  0  0  0  3  0  0  0  0  0  0
  186.7080  178.1680  142.0100 C   0  0  0  0  0  0  0  0  0  0  0  0
  186.2480  178.6160  139.6590 C   0  0  0  0  0  0  0  0  0  0  0  0
  184.8720  178.7040  139.9320 C   0  0  0  0  0  0  0  0  0  0  0  0
  186.7820  178.9010  138.2730 C   0  0  0  0  0  2  0  0  0  0  0  0
  187.1640  178.3570  140.6950 C   0  0  0  0  0  0  0  0  0  0  0  0
  183.9310  178.9360  138.7700 C   0  0  0  0  0  2  0  0  0  0  0  0
  182.4880  178.7640  142.7020 O   0  0  0  0  0  0  0  0  0  0  0  0
  181.9140  180.1180  138.5100 O   0  0  0  0  0  0  0  0  0  0  0  0
  184.3960  178.5180  141.2570 C   0  0  0  0  0  0  0  0  0  0  0  0
  182.5570  179.3400  139.1940 C   0  0  0  0  0  0  0  0  0  0  0  0
  180.1430  177.2250  139.9660 O   0  0  0  0  0  0  0  0  0  0  0  0
  182.2280  176.2740  139.9690 O   0  0  0  0  0  1  0  0  0  0  0  0
  181.3850  177.3710  140.1060 C   0  0  0  0  0  0  0  0  0  0  0  0
  187.6920  177.8640  143.1040 C   0  0  0  0  0  2  0  0  0  0  0  0
  187.9290  176.3680  143.1990 C   0  0  0  0  0  2  0  0  0  0  0  0
  189.4190  176.0940  143.2010 C   0  0  0  0  0  2  0  0  0  0  0  0
  190.1770  177.2640  143.8130 C   0  0  0  0  0  2  0  0  0  0  0  0
  191.3470  176.7890  144.6640 C   0  0  0  0  0  2  0  0  0  0  0  0
  191.5790  176.3580  146.9870 C   0  0  0  0  0  0  0  0  0  0  0  0
  192.4090  175.6270  147.5850 O   0  0  0  0  0  0  0  0  0  0  0  0
  190.1440  176.8180  146.7170 N   0  0  0  0  0  2  0  0  0  0  0  0
  191.2590  177.3500  146.0730 C   0  0  2  0  0  3  0  0  0  0  0  0
  184.8700  177.9530  143.6980 C   0  0  0  0  0  2  0  0  0  0  0  0
  185.0630  179.1800  144.5700 C   0  0  0  0  0  3  0  0  0  0  0  0
  184.2550  179.0090  145.8390 C   0  0  0  0  0  2  0  0  0  0  0  0
  185.7470  178.7670  145.8570 C   0  0  0  0  0  2  0  0  0  0  0  0
  1 29  1  0  0  0  0
  2  6  2  0  0  0  0
  3 10  1  0  0  0  0
  3  2  1  0  0  0  0
  4 13  2  0  0  0  0
  5 19  1  6  0  0  0
  5  4  1  0  0  0  0
  6 11  1  0  0  0  0
  7  1  1  0  0  0  0
  7 20  1  0  0  0  0
  8  9  2  0  0  0  0
  8 11  1  0  0  0  0
  9 15  1  0  0  0  0
 10  8  1  0  0  0  0
 11  7  2  0  0  0  0
 12 16  1  0  0  0  0
 12  9  1  0  0  0  0
 14 16  2  0  0  0  0
 15  4  1  0  0  0  0
 15  1  2  0  0  0  0
 16  5  1  0  0  0  0
 17 19  2  0  0  0  0
 18 19  1  0  0  0  0
 20 21  1  0  0  0  0
 21 22  1  0  0  0  0
 22 23  1  0  0  0  0
 23 24  1  0  0  0  0
 25 26  2  0  0  0  0
 27 25  1  0  0  0  0
 28 24  1  6  0  0  0
 28 27  1  0  0  0  0
 28 25  1  0  0  0  0
 29 30  1  0  0  0  0
 30 31  1  0  0  0  0
 30 32  1  0  0  0  0
 31 32  1  0  0  0  0
M  END
>  <MODEL>
9

>  <REMARK>
 VINA RESULT:      -7.7      1.388      1.962
  Name = 
  9 active torsions:
  status: ('A' for Active; 'I' for Inactive)
    1  A    between atoms: C_2  and  C_10
    2  A    between atoms: C_2  and  C_12
    3  A    between atoms: C_3  and  C_28
    4  A    between atoms: C_7  and  C_22
    5  A    between atoms: C_8  and  C_28
    6  A    between atoms: C_9  and  C_14
    7  A    between atoms: C_9  and  C_21
    8  A    between atoms: C_10  and  CA_24
    9  A    between atoms: C_12  and  C_21
                            x       y       z     vdW  Elec       q    Type
                         _______ _______ _______ _____ _____    ______ ____

>  <TORSDO>
F 9

$$$$
