=
 OpenBabel10262420043D

 27 31  0  0  1  0  0  0  0  0999 V2000
  187.1430  178.5510  141.7180 C   0  0  0  0  0  3  0  0  0  0  0  0
  187.4950  177.8860  144.1260 C   0  0  0  0  0  0  0  0  0  0  0  0
  189.3970  176.8420  142.7910 C   0  0  0  0  0  3  0  0  0  0  0  0
  189.9700  177.0680  147.7390 S   0  0  0  0  0  0  0  0  0  0  0  0
  192.4300  175.8010  147.2400 C   0  0  0  0  0  1  0  0  0  0  0  0
  186.9820  178.2710  145.3870 C   0  0  0  0  0  3  0  0  0  0  0  0
  190.7370  176.4350  145.4250 C   0  0  0  0  0  0  0  0  0  0  0  0
  190.2330  177.2370  139.3190 C   0  0  0  0  0  3  0  0  0  0  0  0
  191.5130  175.9400  144.3820 O   0  0  0  0  0  1  0  0  0  0  0  0
  189.3540  178.2320  138.9040 C   0  0  0  0  0  0  0  0  0  0  0  0
  189.4720  177.0390  145.2590 C   0  0  0  0  0  0  0  0  0  0  0  0
  186.6610  178.0560  142.9710 N   0  0  0  0  0  0  0  0  0  0  0  0
  191.1490  176.3780  146.7530 C   0  0  0  0  0  0  0  0  0  0  0  0
  188.9290  177.4410  146.4750 C   0  0  0  0  0  0  0  0  0  0  0  0
  188.2540  178.1870  141.0770 C   0  0  0  0  0  0  0  0  0  0  0  0
  188.7680  177.2680  144.0520 C   0  0  0  0  0  0  0  0  0  0  0  0
  190.1620  176.7530  140.6250 C   0  0  0  0  0  3  0  0  0  0  0  0
  187.6950  178.0600  146.5680 C   0  0  0  0  0  3  0  0  0  0  0  0
  189.4300  178.7240  137.6450 F   0  0  0  0  0  0  0  0  0  0  0  0
  188.3660  178.6890  139.7740 C   0  0  0  0  0  3  0  0  0  0  0  0
  189.2090  177.2380  141.5310 C   0  0  0  0  0  0  0  0  0  0  0  0
  182.4730  178.6280  143.3070 C   0  0  0  0  0  2  0  0  0  0  0  0
  185.2070  178.0090  143.1510 C   0  0  2  0  0  3  0  0  0  0  0  0
  184.4700  178.0830  141.7970 C   0  0  0  0  0  2  0  0  0  0  0  0
  183.0300  178.6280  141.8810 C   0  0  0  0  0  2  0  0  0  0  0  0
  183.4340  179.3360  144.2160 C   0  0  0  0  0  3  0  0  0  0  0  0
  184.7370  179.0500  144.1370 C   0  0  0  0  0  3  0  0  0  0  0  0
  1 12  1  0  0  0  0
  2  6  1  0  0  0  0
  3 16  1  0  0  0  0
  6 18  2  0  0  0  0
  7 13  2  0  0  0  0
  8 17  2  0  0  0  0
  9  7  1  0  0  0  0
 10  8  1  0  0  0  0
 10 20  2  0  0  0  0
 11  7  1  0  0  0  0
 11 14  2  0  0  0  0
 12 23  1  0  0  0  0
 12  2  1  0  0  0  0
 13  5  1  0  0  0  0
 13  4  1  0  0  0  0
 14 18  1  0  0  0  0
 14  4  1  0  0  0  0
 15 21  1  0  0  0  0
 15  1  2  0  0  0  0
 16  2  2  0  0  0  0
 16 11  1  0  0  0  0
 17 21  1  0  0  0  0
 19 10  1  0  0  0  0
 20 15  1  0  0  0  0
 21  3  2  0  0  0  0
 22 26  1  0  0  0  0
 23 24  1  6  0  0  0
 23 27  1  0  0  0  0
 24 25  1  0  0  0  0
 25 22  1  0  0  0  0
 27 26  2  0  0  0  0
M  END
>  <MODEL>
1

>  <REMARK>
 VINA RESULT:     -10.9      0.000      0.000
  Name = 
  1 active torsions:
  status: ('A' for Active; 'I' for Inactive)
    1  A    between atoms: C_9  and  N_15
                            x       y       z     vdW  Elec       q    Type
                         _______ _______ _______ _____ _____    ______ ____

>  <TORSDO>
F 1

$$$$
=
 OpenBabel10262420043D

 27 31  0  0  1  0  0  0  0  0999 V2000
  186.5400  178.8010  140.4360 C   0  0  0  0  0  3  0  0  0  0  0  0
  185.6030  178.7260  142.7780 C   0  0  0  0  0  0  0  0  0  0  0  0
  187.7540  177.3600  142.8040 C   0  0  0  0  0  3  0  0  0  0  0  0
  185.9120  178.7540  147.2230 S   0  0  0  0  0  0  0  0  0  0  0  0
  188.1160  177.3630  148.2760 C   0  0  0  0  0  1  0  0  0  0  0  0
  184.6060  179.4100  143.5110 C   0  0  0  0  0  3  0  0  0  0  0  0
  187.6010  177.5730  145.7750 C   0  0  0  0  0  0  0  0  0  0  0  0
  190.1950  176.8980  140.2080 C   0  0  0  0  0  3  0  0  0  0  0  0
  188.7080  176.8290  145.3780 O   0  0  0  0  0  1  0  0  0  0  0  0
  189.7640  177.7790  139.2220 C   0  0  0  0  0  0  0  0  0  0  0  0
  186.6630  178.1410  144.8860 C   0  0  0  0  0  0  0  0  0  0  0  0
  185.4560  178.6280  141.3540 N   0  0  0  0  0  0  0  0  0  0  0  0
  187.3150  177.8280  147.1130 C   0  0  0  0  0  0  0  0  0  0  0  0
  185.6640  178.8320  145.5630 C   0  0  0  0  0  0  0  0  0  0  0  0
  187.7620  178.2750  140.5200 C   0  0  0  0  0  0  0  0  0  0  0  0
  186.6610  178.0860  143.4710 C   0  0  0  0  0  0  0  0  0  0  0  0
  189.4430  176.7420  141.3720 C   0  0  0  0  0  3  0  0  0  0  0  0
  184.6310  179.4760  144.9050 C   0  0  0  0  0  3  0  0  0  0  0  0
  190.4990  177.9540  138.0980 F   0  0  0  0  0  0  0  0  0  0  0  0
  188.5500  178.4490  139.3750 C   0  0  0  0  0  3  0  0  0  0  0  0
  188.2470  177.4460  141.5670 C   0  0  0  0  0  0  0  0  0  0  0  0
  181.8520  178.4250  139.1290 C   0  0  0  0  0  2  0  0  0  0  0  0
  184.1020  178.6520  140.7930 C   0  0  2  0  0  3  0  0  0  0  0  0
  183.5250  177.2270  140.6550 C   0  0  0  0  0  2  0  0  0  0  0  0
  182.4300  177.0820  139.5800 C   0  0  0  0  0  2  0  0  0  0  0  0
  182.9730  179.3360  138.7200 C   0  0  0  0  0  3  0  0  0  0  0  0
  184.0480  179.4380  139.5060 C   0  0  0  0  0  3  0  0  0  0  0  0
  1 15  2  0  0  0  0
  1 12  1  0  0  0  0
  2 16  2  0  0  0  0
  2  6  1  0  0  0  0
  3 16  1  0  0  0  0
  6 18  2  0  0  0  0
  7 13  2  0  0  0  0
  8 17  2  0  0  0  0
  9  7  1  0  0  0  0
 10 20  2  0  0  0  0
 10  8  1  0  0  0  0
 11 14  2  0  0  0  0
 11  7  1  0  0  0  0
 12  2  1  0  0  0  0
 13  4  1  0  0  0  0
 13  5  1  0  0  0  0
 14  4  1  0  0  0  0
 15 21  1  0  0  0  0
 16 11  1  0  0  0  0
 17 21  1  0  0  0  0
 18 14  1  0  0  0  0
 19 10  1  0  0  0  0
 20 15  1  0  0  0  0
 21  3  2  0  0  0  0
 22 25  1  0  0  0  0
 23 27  1  6  0  0  0
 23 12  1  0  0  0  0
 24 23  1  0  0  0  0
 25 24  1  0  0  0  0
 26 22  1  0  0  0  0
 26 27  2  0  0  0  0
M  END
>  <MODEL>
2

>  <REMARK>
 VINA RESULT:     -10.3      2.026      2.997
  Name = 
  1 active torsions:
  status: ('A' for Active; 'I' for Inactive)
    1  A    between atoms: C_9  and  N_15
                            x       y       z     vdW  Elec       q    Type
                         _______ _______ _______ _____ _____    ______ ____

>  <TORSDO>
F 1

$$$$
=
 OpenBabel10262420043D

 27 31  0  0  1  0  0  0  0  0999 V2000
  188.9560  177.1460  142.5910 C   0  0  0  0  0  3  0  0  0  0  0  0
  186.6410  178.0770  142.9680 C   0  0  0  0  0  0  0  0  0  0  0  0
  187.2700  178.6280  140.5620 C   0  0  0  0  0  3  0  0  0  0  0  0
  182.4490  179.0030  141.7770 S   0  0  0  0  0  0  0  0  0  0  0  0
  182.1160  179.8030  139.1020 C   0  0  0  0  0  1  0  0  0  0  0  0
  185.6260  177.9510  143.9460 C   0  0  0  0  0  3  0  0  0  0  0  0
  184.3680  179.1870  140.1570 C   0  0  0  0  0  0  0  0  0  0  0  0
  190.1630  177.6360  138.6760 C   0  0  0  0  0  3  0  0  0  0  0  0
  185.0940  179.4110  138.9910 O   0  0  0  0  0  1  0  0  0  0  0  0
  190.7930  176.7370  139.5300 C   0  0  0  0  0  0  0  0  0  0  0  0
  184.9360  178.7640  141.3780 C   0  0  0  0  0  0  0  0  0  0  0  0
  188.0030  177.8770  143.3710 N   0  0  0  0  0  0  0  0  0  0  0  0
  182.9890  179.3640  140.2230 C   0  0  0  0  0  0  0  0  0  0  0  0
  183.9730  178.6200  142.3710 C   0  0  0  0  0  0  0  0  0  0  0  0
  189.1760  177.2470  141.2800 C   0  0  0  0  0  0  0  0  0  0  0  0
  186.2950  178.4800  141.6540 C   0  0  0  0  0  0  0  0  0  0  0  0
  189.0120  178.3010  139.0980 C   0  0  0  0  0  3  0  0  0  0  0  0
  184.2870  178.2130  143.6560 C   0  0  0  0  0  3  0  0  0  0  0  0
  191.8980  176.0710  139.1210 F   0  0  0  0  0  0  0  0  0  0  0  0
  190.3080  176.5590  140.8250 C   0  0  0  0  0  3  0  0  0  0  0  0
  188.4790  178.0940  140.3770 C   0  0  0  0  0  0  0  0  0  0  0  0
  189.0550  177.9890  147.4770 C   0  0  0  0  0  2  0  0  0  0  0  0
  188.3670  178.1660  144.7610 C   0  0  2  0  0  3  0  0  0  0  0  0
  189.8390  177.8030  145.0450 C   0  0  0  0  0  2  0  0  0  0  0  0
  190.1490  177.5010  146.5250 C   0  0  0  0  0  2  0  0  0  0  0  0
  187.7280  177.4530  147.0240 C   0  0  0  0  0  3  0  0  0  0  0  0
  187.4030  177.5280  145.7310 C   0  0  0  0  0  3  0  0  0  0  0  0
  1 12  1  0  0  0  0
  2 12  1  0  0  0  0
  2  6  1  0  0  0  0
  3 16  1  0  0  0  0
  4 14  1  0  0  0  0
  5 13  1  0  0  0  0
  7 13  2  0  0  0  0
  7 11  1  0  0  0  0
  8 17  2  0  0  0  0
  8 10  1  0  0  0  0
  9  7  1  0  0  0  0
 10 20  2  0  0  0  0
 11 16  1  0  0  0  0
 11 14  2  0  0  0  0
 13  4  1  0  0  0  0
 14 18  1  0  0  0  0
 15  1  2  0  0  0  0
 16  2  2  0  0  0  0
 17 21  1  0  0  0  0
 18  6  2  0  0  0  0
 19 10  1  0  0  0  0
 20 15  1  0  0  0  0
 21  3  2  0  0  0  0
 21 15  1  0  0  0  0
 23 12  1  6  0  0  0
 23 24  1  0  0  0  0
 23 27  1  0  0  0  0
 24 25  1  0  0  0  0
 25 22  1  0  0  0  0
 26 22  1  0  0  0  0
 27 26  2  0  0  0  0
M  END
>  <MODEL>
3

>  <REMARK>
 VINA RESULT:      -9.5      2.913      5.998
  Name = 
  1 active torsions:
  status: ('A' for Active; 'I' for Inactive)
    1  A    between atoms: C_9  and  N_15
                            x       y       z     vdW  Elec       q    Type
                         _______ _______ _______ _____ _____    ______ ____

>  <TORSDO>
F 1

$$$$
=
 OpenBabel10262420043D

 27 31  0  0  1  0  0  0  0  0999 V2000
  185.2550  178.0340  141.5310 C   0  0  0  0  0  3  0  0  0  0  0  0
  187.2740  177.9020  143.0400 C   0  0  0  0  0  0  0  0  0  0  0  0
  185.3640  178.8270  144.4480 C   0  0  0  0  0  3  0  0  0  0  0  0
  189.3480  177.1030  146.9010 S   0  0  0  0  0  0  0  0  0  0  0  0
  187.9300  177.8780  149.2020 C   0  0  0  0  0  1  0  0  0  0  0  0
  188.5550  177.3030  142.9970 C   0  0  0  0  0  3  0  0  0  0  0  0
  187.0700  178.1710  146.8060 C   0  0  0  0  0  0  0  0  0  0  0  0
  181.8970  179.2450  143.6000 C   0  0  0  0  0  3  0  0  0  0  0  0
  185.8680  178.7530  147.1980 O   0  0  0  0  0  1  0  0  0  0  0  0
  181.8100  178.6280  142.3570 C   0  0  0  0  0  0  0  0  0  0  0  0
  187.4390  177.9350  145.4640 C   0  0  0  0  0  0  0  0  0  0  0  0
  186.6450  178.2520  141.7990 N   0  0  0  0  0  0  0  0  0  0  0  0
  188.0330  177.7610  147.7230 C   0  0  0  0  0  0  0  0  0  0  0  0
  188.6930  177.3400  145.3730 C   0  0  0  0  0  0  0  0  0  0  0  0
  184.2250  178.3060  142.3310 C   0  0  0  0  0  0  0  0  0  0  0  0
  186.6940  178.2170  144.2930 C   0  0  0  0  0  0  0  0  0  0  0  0
  183.1350  179.3480  144.2350 C   0  0  0  0  0  3  0  0  0  0  0  0
  189.2700  177.0110  144.1580 C   0  0  0  0  0  3  0  0  0  0  0  0
  180.6100  178.5040  141.7420 F   0  0  0  0  0  0  0  0  0  0  0  0
  182.9680  178.1770  141.7250 C   0  0  0  0  0  3  0  0  0  0  0  0
  184.3030  178.8520  143.6400 C   0  0  0  0  0  0  0  0  0  0  0  0
  189.0580  178.4580  138.3180 C   0  0  0  0  0  2  0  0  0  0  0  0
  187.4990  178.5680  140.6510 C   0  0  2  0  0  3  0  0  0  0  0  0
  186.7050  178.5270  139.3290 C   0  0  0  0  0  2  0  0  0  0  0  0
  187.5610  178.2530  138.0760 C   0  0  0  0  0  2  0  0  0  0  0  0
  189.4810  177.6600  139.5170 C   0  0  0  0  0  3  0  0  0  0  0  0
  188.7360  177.7040  140.6250 C   0  0  0  0  0  3  0  0  0  0  0  0
  1 12  1  0  0  0  0
  1 15  2  0  0  0  0
  2 16  1  0  0  0  0
  4 13  1  0  0  0  0
  6  2  2  0  0  0  0
  6 18  1  0  0  0  0
  7  9  1  0  0  0  0
  7 13  2  0  0  0  0
  8 17  2  0  0  0  0
 10  8  1  0  0  0  0
 11  7  1  0  0  0  0
 12  2  1  0  0  0  0
 13  5  1  0  0  0  0
 14 11  1  0  0  0  0
 14  4  1  0  0  0  0
 15 21  1  0  0  0  0
 16  3  1  0  0  0  0
 16 11  2  0  0  0  0
 18 14  2  0  0  0  0
 19 10  1  0  0  0  0
 20 15  1  0  0  0  0
 20 10  2  0  0  0  0
 21 17  1  0  0  0  0
 21  3  2  0  0  0  0
 22 26  1  0  0  0  0
 23 24  1  6  0  0  0
 23 12  1  0  0  0  0
 25 22  1  0  0  0  0
 25 24  1  0  0  0  0
 26 27  2  0  0  0  0
 27 23  1  0  0  0  0
M  END
>  <MODEL>
4

>  <REMARK>
 VINA RESULT:      -9.4      2.686      5.418
  Name = 
  1 active torsions:
  status: ('A' for Active; 'I' for Inactive)
    1  A    between atoms: C_9  and  N_15
                            x       y       z     vdW  Elec       q    Type
                         _______ _______ _______ _____ _____    ______ ____

>  <TORSDO>
F 1

$$$$
=
 OpenBabel10262420043D

 27 31  0  0  1  0  0  0  0  0999 V2000
  189.6630  176.9080  142.6220 C   0  0  0  0  0  3  0  0  0  0  0  0
  187.4940  177.7390  143.6100 C   0  0  0  0  0  0  0  0  0  0  0  0
  187.5300  178.4950  141.1770 C   0  0  0  0  0  3  0  0  0  0  0  0
  183.1310  178.6340  143.5210 S   0  0  0  0  0  0  0  0  0  0  0  0
  182.1650  179.6310  141.0750 C   0  0  0  0  0  1  0  0  0  0  0  0
  186.7420  177.5080  144.7850 C   0  0  0  0  0  3  0  0  0  0  0  0
  184.6090  179.0000  141.5150 C   0  0  0  0  0  0  0  0  0  0  0  0
  189.9020  177.7390  138.5870 C   0  0  0  0  0  3  0  0  0  0  0  0
  185.0350  179.3360  140.2330 O   0  0  0  0  0  1  0  0  0  0  0  0
  190.7250  176.7940  139.1910 C   0  0  0  0  0  0  0  0  0  0  0  0
  185.4540  178.4990  142.5290 C   0  0  0  0  0  0  0  0  0  0  0  0
  188.9150  177.5480  143.6620 N   0  0  0  0  0  0  0  0  0  0  0  0
  183.2840  179.1320  141.9190 C   0  0  0  0  0  0  0  0  0  0  0  0
  184.7560  178.2500  143.7050 C   0  0  0  0  0  0  0  0  0  0  0  0
  189.5640  177.1180  141.3090 C   0  0  0  0  0  0  0  0  0  0  0  0
  186.8430  178.2340  142.4520 C   0  0  0  0  0  0  0  0  0  0  0  0
  188.8780  178.3350  139.3220 C   0  0  0  0  0  3  0  0  0  0  0  0
  185.3700  177.7530  144.8410 C   0  0  0  0  0  3  0  0  0  0  0  0
  191.7080  176.1940  138.4790 F   0  0  0  0  0  0  0  0  0  0  0  0
  190.5630  176.5010  140.5450 C   0  0  0  0  0  3  0  0  0  0  0  0
  188.6660  178.0130  140.6690 C   0  0  0  0  0  0  0  0  0  0  0  0
  190.8170  177.3730  147.4480 C   0  0  0  0  0  2  0  0  0  0  0  0
  189.5950  177.7370  144.9460 C   0  0  2  0  0  3  0  0  0  0  0  0
  191.0420  177.2030  144.9020 C   0  0  0  0  0  2  0  0  0  0  0  0
  191.6210  176.8090  146.2750 C   0  0  0  0  0  2  0  0  0  0  0  0
  189.3710  177.0050  147.2810 C   0  0  0  0  0  3  0  0  0  0  0  0
  188.7910  177.1690  146.0890 C   0  0  0  0  0  3  0  0  0  0  0  0
  1 12  1  0  0  0  0
  2 12  1  0  0  0  0
  2  6  1  0  0  0  0
  3 16  1  0  0  0  0
  4 14  1  0  0  0  0
  5 13  1  0  0  0  0
  6 18  2  0  0  0  0
  7 13  2  0  0  0  0
  7 11  1  0  0  0  0
  8 10  1  0  0  0  0
  8 17  2  0  0  0  0
  9  7  1  0  0  0  0
 10 20  2  0  0  0  0
 11 14  2  0  0  0  0
 13  4  1  0  0  0  0
 14 18  1  0  0  0  0
 15  1  2  0  0  0  0
 16 11  1  0  0  0  0
 16  2  2  0  0  0  0
 17 21  1  0  0  0  0
 19 10  1  0  0  0  0
 20 15  1  0  0  0  0
 21  3  2  0  0  0  0
 21 15  1  0  0  0  0
 23 12  1  6  0  0  0
 23 27  1  0  0  0  0
 24 23  1  0  0  0  0
 24 25  1  0  0  0  0
 25 22  1  0  0  0  0
 26 22  1  0  0  0  0
 27 26  2  0  0  0  0
M  END
>  <MODEL>
5

>  <REMARK>
 VINA RESULT:      -9.2      2.564      5.817
  Name = 
  1 active torsions:
  status: ('A' for Active; 'I' for Inactive)
    1  A    between atoms: C_9  and  N_15
                            x       y       z     vdW  Elec       q    Type
                         _______ _______ _______ _____ _____    ______ ____

>  <TORSDO>
F 1

$$$$
=
 OpenBabel10262420043D

 27 31  0  0  1  0  0  0  0  0999 V2000
  188.9830  178.0150  143.8880 C   0  0  0  0  0  3  0  0  0  0  0  0
  186.9470  178.1810  142.4060 C   0  0  0  0  0  0  0  0  0  0  0  0
  186.1030  177.7000  144.7610 C   0  0  0  0  0  3  0  0  0  0  0  0
  182.7610  179.3780  141.4630 S   0  0  0  0  0  0  0  0  0  0  0  0
  180.9410  179.1400  143.5930 C   0  0  0  0  0  1  0  0  0  0  0  0
  186.6610  178.6280  141.0950 C   0  0  0  0  0  3  0  0  0  0  0  0
  183.4300  178.5510  143.7460 C   0  0  0  0  0  0  0  0  0  0  0  0
  187.9330  177.5120  147.8470 C   0  0  0  0  0  3  0  0  0  0  0  0
  183.3650  178.1690  145.0820 O   0  0  0  0  0  1  0  0  0  0  0  0
  189.2080  177.9250  147.4730 C   0  0  0  0  0  0  0  0  0  0  0  0
  184.6080  178.5260  142.9680 C   0  0  0  0  0  0  0  0  0  0  0  0
  188.2690  177.7000  142.6880 N   0  0  0  0  0  0  0  0  0  0  0  0
  182.3160  179.0030  143.0440 C   0  0  0  0  0  0  0  0  0  0  0  0
  184.3760  178.9640  141.6680 C   0  0  0  0  0  0  0  0  0  0  0  0
  188.5180  177.9860  145.1370 C   0  0  0  0  0  0  0  0  0  0  0  0
  185.9090  178.1360  143.3690 C   0  0  0  0  0  0  0  0  0  0  0  0
  186.9360  177.3870  146.8810 C   0  0  0  0  0  3  0  0  0  0  0  0
  185.3790  179.0300  140.7170 C   0  0  0  0  0  3  0  0  0  0  0  0
  190.1770  178.0710  148.4070 F   0  0  0  0  0  0  0  0  0  0  0  0
  189.4970  178.1440  146.1270 C   0  0  0  0  0  3  0  0  0  0  0  0
  187.1930  177.6550  145.5300 C   0  0  0  0  0  0  0  0  0  0  0  0
  190.8190  176.6640  139.4620 C   0  0  0  0  0  2  0  0  0  0  0  0
  189.0450  177.1140  141.5910 C   0  0  2  0  0  3  0  0  0  0  0  0
  190.5170  176.8950  141.9960 C   0  0  0  0  0  2  0  0  0  0  0  0
  191.5070  176.8620  140.8150 C   0  0  0  0  0  2  0  0  0  0  0  0
  189.7330  177.6870  139.3030 C   0  0  0  0  0  3  0  0  0  0  0  0
  188.8940  177.9100  140.3180 C   0  0  0  0  0  3  0  0  0  0  0  0
  1 15  2  0  0  0  0
  2 12  1  0  0  0  0
  2 16  1  0  0  0  0
  3 21  2  0  0  0  0
  4 14  1  0  0  0  0
  4 13  1  0  0  0  0
  6  2  2  0  0  0  0
  7  9  1  0  0  0  0
 10  8  1  0  0  0  0
 10 19  1  0  0  0  0
 11 16  2  0  0  0  0
 11  7  1  0  0  0  0
 12  1  1  0  0  0  0
 13  5  1  0  0  0  0
 13  7  2  0  0  0  0
 14 11  1  0  0  0  0
 15 21  1  0  0  0  0
 15 20  1  0  0  0  0
 16  3  1  0  0  0  0
 17  8  2  0  0  0  0
 18  6  1  0  0  0  0
 18 14  2  0  0  0  0
 20 10  2  0  0  0  0
 21 17  1  0  0  0  0
 22 25  1  0  0  0  0
 23 27  1  6  0  0  0
 23 24  1  0  0  0  0
 23 12  1  0  0  0  0
 25 24  1  0  0  0  0
 26 22  1  0  0  0  0
 26 27  2  0  0  0  0
M  END
>  <MODEL>
6

>  <REMARK>
 VINA RESULT:      -9.1      3.521      7.143
  Name = 
  1 active torsions:
  status: ('A' for Active; 'I' for Inactive)
    1  A    between atoms: C_9  and  N_15
                            x       y       z     vdW  Elec       q    Type
                         _______ _______ _______ _____ _____    ______ ____

>  <TORSDO>
F 1

$$$$
=
 OpenBabel10262420043D

 27 31  0  0  1  0  0  0  0  0999 V2000
  189.8300  176.8690  141.1160 C   0  0  0  0  0  3  0  0  0  0  0  0
  187.6850  177.7780  142.0860 C   0  0  0  0  0  0  0  0  0  0  0  0
  187.7270  178.4590  139.6310 C   0  0  0  0  0  3  0  0  0  0  0  0
  183.3430  178.7690  141.9860 S   0  0  0  0  0  0  0  0  0  0  0  0
  182.3890  179.7130  139.5150 C   0  0  0  0  0  1  0  0  0  0  0  0
  186.9330  177.6000  143.2710 C   0  0  0  0  0  3  0  0  0  0  0  0
  184.8200  179.0410  139.9650 C   0  0  0  0  0  0  0  0  0  0  0  0
  190.0700  177.5700  137.0560 C   0  0  0  0  0  3  0  0  0  0  0  0
  185.2480  179.3270  138.6720 O   0  0  0  0  0  1  0  0  0  0  0  0
  190.8740  176.6260  137.6870 C   0  0  0  0  0  0  0  0  0  0  0  0
  185.6580  178.5510  140.9900 C   0  0  0  0  0  0  0  0  0  0  0  0
  189.1020  177.5560  142.1390 N   0  0  0  0  0  0  0  0  0  0  0  0
  183.5000  179.2140  140.3690 C   0  0  0  0  0  0  0  0  0  0  0  0
  184.9590  178.3540  142.1760 C   0  0  0  0  0  0  0  0  0  0  0  0
  189.7300  177.0410  139.7980 C   0  0  0  0  0  0  0  0  0  0  0  0
  187.0400  178.2520  140.9170 C   0  0  0  0  0  0  0  0  0  0  0  0
  189.0630  178.2120  137.7770 C   0  0  0  0  0  3  0  0  0  0  0  0
  185.5670  177.8780  143.3250 C   0  0  0  0  0  3  0  0  0  0  0  0
  191.8400  175.9820  136.9900 F   0  0  0  0  0  0  0  0  0  0  0  0
  190.7110  176.3780  139.0490 C   0  0  0  0  0  3  0  0  0  0  0  0
  188.8490  177.9360  139.1340 C   0  0  0  0  0  0  0  0  0  0  0  0
  191.6800  177.8930  145.4890 C   0  0  0  0  0  2  0  0  0  0  0  0
  189.7920  177.7690  143.4140 C   0  0  2  0  0  3  0  0  0  0  0  0
  190.7940  178.9390  143.3240 C   0  0  0  0  0  2  0  0  0  0  0  0
  191.9480  178.8730  144.3440 C   0  0  0  0  0  2  0  0  0  0  0  0
  191.3070  176.5550  144.9210 C   0  0  0  0  0  3  0  0  0  0  0  0
  190.4160  176.4950  143.9270 C   0  0  0  0  0  3  0  0  0  0  0  0
  1 12  1  0  0  0  0
  2 12  1  0  0  0  0
  2  6  1  0  0  0  0
  3 16  1  0  0  0  0
  4 14  1  0  0  0  0
  5 13  1  0  0  0  0
  6 18  2  0  0  0  0
  7 13  2  0  0  0  0
  7 11  1  0  0  0  0
  8 10  1  0  0  0  0
  8 17  2  0  0  0  0
  9  7  1  0  0  0  0
 10 20  2  0  0  0  0
 11 14  2  0  0  0  0
 13  4  1  0  0  0  0
 14 18  1  0  0  0  0
 15  1  2  0  0  0  0
 16 11  1  0  0  0  0
 16  2  2  0  0  0  0
 17 21  1  0  0  0  0
 19 10  1  0  0  0  0
 20 15  1  0  0  0  0
 21  3  2  0  0  0  0
 21 15  1  0  0  0  0
 23 12  1  6  0  0  0
 23 27  1  0  0  0  0
 24 23  1  0  0  0  0
 24 25  1  0  0  0  0
 25 22  1  0  0  0  0
 26 22  1  0  0  0  0
 27 26  2  0  0  0  0
M  END
>  <MODEL>
7

>  <REMARK>
 VINA RESULT:      -9.1      3.064      6.288
  Name = 
  1 active torsions:
  status: ('A' for Active; 'I' for Inactive)
    1  A    between atoms: C_9  and  N_15
                            x       y       z     vdW  Elec       q    Type
                         _______ _______ _______ _____ _____    ______ ____

>  <TORSDO>
F 1

$$$$
=
 OpenBabel10262420043D

 27 31  0  0  1  0  0  0  0  0999 V2000
  185.9570  178.0430  142.0290 C   0  0  0  0  0  3  0  0  0  0  0  0
  188.3860  177.5460  142.4980 C   0  0  0  0  0  0  0  0  0  0  0  0
  187.3480  178.2830  144.7050 C   0  0  0  0  0  3  0  0  0  0  0  0
  191.7540  175.9610  144.9470 S   0  0  0  0  0  0  0  0  0  0  0  0
  191.5090  176.3640  147.7180 C   0  0  0  0  0  1  0  0  0  0  0  0
  189.4550  176.9080  141.8280 C   0  0  0  0  0  3  0  0  0  0  0  0
  189.7810  177.1300  145.9880 C   0  0  0  0  0  0  0  0  0  0  0  0
  183.9150  179.0050  145.4840 C   0  0  0  0  0  3  0  0  0  0  0  0
  188.9250  177.6840  146.9350 O   0  0  0  0  0  1  0  0  0  0  0  0
  183.2520  178.6310  144.3200 C   0  0  0  0  0  0  0  0  0  0  0  0
  189.5360  177.1270  144.5980 C   0  0  0  0  0  0  0  0  0  0  0  0
  187.3480  178.1460  141.7100 N   0  0  0  0  0  0  0  0  0  0  0  0
  190.9810  176.5160  146.3370 C   0  0  0  0  0  0  0  0  0  0  0  0
  190.5610  176.5030  143.8960 C   0  0  0  0  0  0  0  0  0  0  0  0
  185.3860  178.2100  143.2220 C   0  0  0  0  0  0  0  0  0  0  0  0
  188.4140  177.6520  143.9110 C   0  0  0  0  0  0  0  0  0  0  0  0
  185.3070  178.9330  145.5400 C   0  0  0  0  0  3  0  0  0  0  0  0
  190.5450  176.3760  142.5170 C   0  0  0  0  0  3  0  0  0  0  0  0
  181.9000  178.6760  144.2640 F   0  0  0  0  0  0  0  0  0  0  0  0
  183.9860  178.2510  143.1970 C   0  0  0  0  0  3  0  0  0  0  0  0
  186.0590  178.5030  144.4390 C   0  0  0  0  0  0  0  0  0  0  0  0
  188.4480  178.8380  137.6730 C   0  0  0  0  0  2  0  0  0  0  0  0
  187.6860  178.6280  140.3670 C   0  0  2  0  0  3  0  0  0  0  0  0
  186.5950  178.2530  139.3430 C   0  0  0  0  0  2  0  0  0  0  0  0
  187.0890  178.1680  137.8850 C   0  0  0  0  0  2  0  0  0  0  0  0
  189.4310  178.2940  138.6690 C   0  0  0  0  0  3  0  0  0  0  0  0
  189.0660  178.1840  139.9500 C   0  0  0  0  0  3  0  0  0  0  0  0
  1 15  2  0  0  0  0
  2 16  1  0  0  0  0
  4 13  1  0  0  0  0
  6  2  2  0  0  0  0
  6 18  1  0  0  0  0
  7 13  2  0  0  0  0
  7  9  1  0  0  0  0
  8 17  2  0  0  0  0
 10  8  1  0  0  0  0
 11  7  1  0  0  0  0
 12  1  1  0  0  0  0
 12  2  1  0  0  0  0
 13  5  1  0  0  0  0
 14 11  1  0  0  0  0
 14  4  1  0  0  0  0
 15 21  1  0  0  0  0
 16 11  2  0  0  0  0
 16  3  1  0  0  0  0
 18 14  2  0  0  0  0
 19 10  1  0  0  0  0
 20 15  1  0  0  0  0
 20 10  2  0  0  0  0
 21  3  2  0  0  0  0
 21 17  1  0  0  0  0
 22 25  1  0  0  0  0
 22 26  1  0  0  0  0
 23 24  1  6  0  0  0
 23 12  1  0  0  0  0
 25 24  1  0  0  0  0
 26 27  2  0  0  0  0
 27 23  1  0  0  0  0
M  END
>  <MODEL>
8

>  <REMARK>
 VINA RESULT:      -9.0      2.460      5.101
  Name = 
  1 active torsions:
  status: ('A' for Active; 'I' for Inactive)
    1  A    between atoms: C_9  and  N_15
                            x       y       z     vdW  Elec       q    Type
                         _______ _______ _______ _____ _____    ______ ____

>  <TORSDO>
F 1

$$$$
=
 OpenBabel10262420043D

 27 31  0  0  1  0  0  0  0  0999 V2000
  189.3160  178.2640  141.3170 C   0  0  0  0  0  3  0  0  0  0  0  0
  186.8760  178.2530  140.6730 C   0  0  0  0  0  0  0  0  0  0  0  0
  186.9810  177.7280  143.1640 C   0  0  0  0  0  3  0  0  0  0  0  0
  182.5520  179.1020  141.3300 S   0  0  0  0  0  0  0  0  0  0  0  0
  181.6510  178.7390  143.9690 C   0  0  0  0  0  1  0  0  0  0  0  0
  186.1010  178.6630  139.5630 C   0  0  0  0  0  3  0  0  0  0  0  0
  184.0640  178.3530  143.2000 C   0  0  0  0  0  0  0  0  0  0  0  0
  189.8120  177.7170  145.3760 C   0  0  0  0  0  3  0  0  0  0  0  0
  184.5170  177.9790  144.4620 O   0  0  0  0  0  1  0  0  0  0  0  0
  190.8290  178.2260  144.5750 C   0  0  0  0  0  0  0  0  0  0  0  0
  184.8790  178.4140  142.0490 C   0  0  0  0  0  0  0  0  0  0  0  0
  188.2440  177.8820  140.4490 N   0  0  0  0  0  0  0  0  0  0  0  0
  182.7400  178.7070  142.9570 C   0  0  0  0  0  0  0  0  0  0  0  0
  184.1590  178.8210  140.9300 C   0  0  0  0  0  0  0  0  0  0  0  0
  189.3380  178.2100  142.6480 C   0  0  0  0  0  0  0  0  0  0  0  0
  186.2630  178.1340  141.9450 C   0  0  0  0  0  0  0  0  0  0  0  0
  188.5460  177.5030  144.8330 C   0  0  0  0  0  3  0  0  0  0  0  0
  184.7420  178.9570  139.6820 C   0  0  0  0  0  3  0  0  0  0  0  0
  192.0550  178.4580  145.0990 F   0  0  0  0  0  0  0  0  0  0  0  0
  190.5930  178.4550  143.2200 C   0  0  0  0  0  3  0  0  0  0  0  0
  188.2750  177.7770  143.4860 C   0  0  0  0  0  0  0  0  0  0  0  0
  189.8960  176.7740  136.7040 C   0  0  0  0  0  2  0  0  0  0  0  0
  188.6130  177.3490  139.1340 C   0  0  2  0  0  3  0  0  0  0  0  0
  189.8110  176.3820  139.2340 C   0  0  0  0  0  2  0  0  0  0  0  0
  190.6310  176.2430  137.9370 C   0  0  0  0  0  2  0  0  0  0  0  0
  189.4310  178.1760  136.9690 C   0  0  0  0  0  3  0  0  0  0  0  0
  188.8280  178.4540  138.1290 C   0  0  0  0  0  3  0  0  0  0  0  0
  1 15  2  0  0  0  0
  2 16  1  0  0  0  0
  3 21  2  0  0  0  0
  4 13  1  0  0  0  0
  6 18  1  0  0  0  0
  6  2  2  0  0  0  0
  7  9  1  0  0  0  0
 10 19  1  0  0  0  0
 10  8  1  0  0  0  0
 11  7  1  0  0  0  0
 12  2  1  0  0  0  0
 12  1  1  0  0  0  0
 13  7  2  0  0  0  0
 13  5  1  0  0  0  0
 14  4  1  0  0  0  0
 14 11  1  0  0  0  0
 15 20  1  0  0  0  0
 15 21  1  0  0  0  0
 16 11  2  0  0  0  0
 16  3  1  0  0  0  0
 17  8  2  0  0  0  0
 18 14  2  0  0  0  0
 20 10  2  0  0  0  0
 21 17  1  0  0  0  0
 22 26  1  0  0  0  0
 22 25  1  0  0  0  0
 23 27  1  6  0  0  0
 23 24  1  0  0  0  0
 23 12  1  0  0  0  0
 25 24  1  0  0  0  0
 26 27  2  0  0  0  0
M  END
>  <MODEL>
9

>  <REMARK>
 VINA RESULT:      -8.7      3.206      6.745
  Name = 
  1 active torsions:
  status: ('A' for Active; 'I' for Inactive)
    1  A    between atoms: C_9  and  N_15
                            x       y       z     vdW  Elec       q    Type
                         _______ _______ _______ _____ _____    ______ ____

>  <TORSDO>
F 1

$$$$
