=
 OpenBabel10262419523D

 25 29  0  0  0  0  0  0  0  0999 V2000
  186.8010  178.0700  145.4910 C   0  0  0  0  0  0  0  0  0  0  0  0
  188.1140  177.7310  145.1460 C   0  0  0  0  0  0  0  0  0  0  0  0
  187.2430  177.8640  147.8200 C   0  0  0  0  0  3  0  0  0  0  0  0
  185.7100  178.3930  144.7120 C   0  0  0  0  0  0  0  0  0  0  0  0
  183.1930  179.1010  143.8160 C   0  0  0  0  0  3  0  0  0  0  0  0
  188.5720  177.5180  147.5410 C   0  0  0  0  0  3  0  0  0  0  0  0
  184.6980  178.6300  145.6160 C   0  0  0  0  0  0  0  0  0  0  0  0
  183.4180  178.9870  145.2010 C   0  0  0  0  0  3  0  0  0  0  0  0
  190.3480  177.1050  145.8940 C   0  0  0  0  0  0  0  0  0  0  0  0
  191.3480  176.7960  146.9580 C   0  0  0  0  0  1  0  0  0  0  0  0
  188.5420  177.6680  143.8170 C   0  0  0  0  0  3  0  0  0  0  0  0
  184.2350  178.8570  142.8920 C   0  0  0  0  0  3  0  0  0  0  0  0
  186.4110  178.1250  146.7820 N   0  0  0  0  0  0  0  0  0  0  0  0
  185.1310  178.4650  146.8840 N   0  0  0  0  0  0  0  0  0  0  0  0
  190.7580  177.0460  144.5570 C   0  0  0  0  0  3  0  0  0  0  0  0
  185.5200  178.4960  143.3370 C   0  0  0  0  0  3  0  0  0  0  0  0
  189.8650  177.3250  143.5110 C   0  0  0  0  0  0  0  0  0  0  0  0
  189.0180  177.4490  146.2020 C   0  0  0  0  0  0  0  0  0  0  0  0
  192.0120  177.3030  140.3720 C   0  0  0  0  0  0  0  0  0  0  0  0
  190.2970  177.2630  142.0970 C   0  0  0  0  0  0  0  0  0  0  0  0
  191.5910  177.3650  141.7750 C   0  0  0  0  0  3  0  0  0  0  0  0
  193.2330  177.4000  140.0850 O   0  0  0  0  0  0  0  0  0  0  0  0
  189.3110  177.0920  141.0630 N   0  0  0  0  0  0  0  0  0  0  0  0
  191.0050  177.1250  139.2750 C   0  0  0  0  0  2  0  0  0  0  0  0
  189.5970  177.0260  139.7950 C   0  0  0  0  0  3  0  0  0  0  0  0
  1 13  1  0  0  0  0
  2  1  1  0  0  0  0
  2 18  1  0  0  0  0
  4  1  2  0  0  0  0
  4  7  1  0  0  0  0
  5  8  2  0  0  0  0
  6  3  2  0  0  0  0
  7 14  2  0  0  0  0
  8  7  1  0  0  0  0
  9 18  2  0  0  0  0
  9 10  1  0  0  0  0
 11  2  2  0  0  0  0
 12 16  2  0  0  0  0
 12  5  1  0  0  0  0
 13 14  1  0  0  0  0
 13  3  1  0  0  0  0
 15  9  1  0  0  0  0
 16  4  1  0  0  0  0
 17 11  1  0  0  0  0
 17 15  2  0  0  0  0
 18  6  1  0  0  0  0
 19 21  1  0  0  0  0
 20 17  1  0  0  0  0
 21 20  2  0  0  0  0
 22 19  2  0  0  0  0
 23 20  1  0  0  0  0
 24 25  1  0  0  0  0
 24 19  1  0  0  0  0
 25 23  2  0  0  0  0
M  END
>  <MODEL>
1

>  <REMARK>
 VINA RESULT:     -11.8      0.000      0.000
  Name = 
  1 active torsions:
  status: ('A' for Active; 'I' for Inactive)
    1  A    between atoms: C_6  and  C_23
                            x       y       z     vdW  Elec       q    Type
                         _______ _______ _______ _____ _____    ______ ____

>  <TORSDO>
F 1

$$$$
=
 OpenBabel10262419523D

 25 29  0  0  0  0  0  0  0  0999 V2000
  186.8150  178.0740  145.5510 C   0  0  0  0  0  0  0  0  0  0  0  0
  188.1260  177.7300  145.2070 C   0  0  0  0  0  0  0  0  0  0  0  0
  187.2530  177.8670  147.8800 C   0  0  0  0  0  3  0  0  0  0  0  0
  185.7250  178.4010  144.7710 C   0  0  0  0  0  0  0  0  0  0  0  0
  183.2120  179.1190  143.8720 C   0  0  0  0  0  3  0  0  0  0  0  0
  188.5820  177.5160  147.6020 C   0  0  0  0  0  3  0  0  0  0  0  0
  184.7140  178.6420  145.6730 C   0  0  0  0  0  0  0  0  0  0  0  0
  183.4350  179.0050  145.2570 C   0  0  0  0  0  3  0  0  0  0  0  0
  190.3580  177.0940  145.9570 C   0  0  0  0  0  0  0  0  0  0  0  0
  191.3550  176.7830  147.0220 C   0  0  0  0  0  1  0  0  0  0  0  0
  188.5550  177.6640  143.8780 C   0  0  0  0  0  3  0  0  0  0  0  0
  184.2530  178.8700  142.9490 C   0  0  0  0  0  3  0  0  0  0  0  0
  186.4240  178.1310  146.8410 N   0  0  0  0  0  0  0  0  0  0  0  0
  185.1450  178.4760  146.9420 N   0  0  0  0  0  0  0  0  0  0  0  0
  190.7680  177.0340  144.6210 C   0  0  0  0  0  3  0  0  0  0  0  0
  185.5370  178.5040  143.3960 C   0  0  0  0  0  3  0  0  0  0  0  0
  189.8770  177.3160  143.5730 C   0  0  0  0  0  0  0  0  0  0  0  0
  189.0290  177.4440  146.2640 C   0  0  0  0  0  0  0  0  0  0  0  0
  189.8590  176.9620  139.7870 C   0  0  0  0  0  0  0  0  0  0  0  0
  190.3100  177.2520  142.1600 C   0  0  0  0  0  0  0  0  0  0  0  0
  189.4240  177.0250  141.1850 C   0  0  0  0  0  3  0  0  0  0  0  0
  189.0130  176.7470  138.8810 O   0  0  0  0  0  0  0  0  0  0  0  0
  191.7000  177.4350  141.8360 N   0  0  0  0  0  0  0  0  0  0  0  0
  191.3020  177.1500  139.4230 C   0  0  0  0  0  2  0  0  0  0  0  0
  192.1730  177.3960  140.6250 C   0  0  0  0  0  3  0  0  0  0  0  0
  1 13  1  0  0  0  0
  2  1  1  0  0  0  0
  2 18  1  0  0  0  0
  4  1  2  0  0  0  0
  4  7  1  0  0  0  0
  5  8  2  0  0  0  0
  6  3  2  0  0  0  0
  7 14  2  0  0  0  0
  8  7  1  0  0  0  0
  9 18  2  0  0  0  0
  9 10  1  0  0  0  0
 11  2  2  0  0  0  0
 12 16  2  0  0  0  0
 12  5  1  0  0  0  0
 13 14  1  0  0  0  0
 13  3  1  0  0  0  0
 15  9  1  0  0  0  0
 16  4  1  0  0  0  0
 17 11  1  0  0  0  0
 17 15  2  0  0  0  0
 18  6  1  0  0  0  0
 19 21  1  0  0  0  0
 20 17  1  0  0  0  0
 21 20  2  0  0  0  0
 22 19  2  0  0  0  0
 23 20  1  0  0  0  0
 24 19  1  0  0  0  0
 24 25  1  0  0  0  0
 25 23  2  0  0  0  0
M  END
>  <MODEL>
2

>  <REMARK>
 VINA RESULT:     -11.7      1.061      1.327
  Name = 
  1 active torsions:
  status: ('A' for Active; 'I' for Inactive)
    1  A    between atoms: C_6  and  C_23
                            x       y       z     vdW  Elec       q    Type
                         _______ _______ _______ _____ _____    ______ ____

>  <TORSDO>
F 1

$$$$
=
 OpenBabel10262419523D

 25 29  0  0  0  0  0  0  0  0999 V2000
  187.8260  177.7210  145.5330 C   0  0  0  0  0  0  0  0  0  0  0  0
  186.9650  178.0620  144.4850 C   0  0  0  0  0  0  0  0  0  0  0  0
  186.1570  178.1210  147.1810 C   0  0  0  0  0  3  0  0  0  0  0  0
  189.1440  177.3130  145.5320 C   0  0  0  0  0  0  0  0  0  0  0  0
  191.6740  176.4780  146.2670 C   0  0  0  0  0  3  0  0  0  0  0  0
  185.2460  178.4740  146.1770 C   0  0  0  0  0  3  0  0  0  0  0  0
  189.4480  177.1250  146.8620 C   0  0  0  0  0  0  0  0  0  0  0  0
  190.7120  176.7060  147.2690 C   0  0  0  0  0  3  0  0  0  0  0  0
  184.7460  178.7970  143.7920 C   0  0  0  0  0  0  0  0  0  0  0  0
  183.3410  179.2110  144.0800 C   0  0  0  0  0  1  0  0  0  0  0  0
  187.3700  178.0300  143.1470 C   0  0  0  0  0  3  0  0  0  0  0  0
  191.3570  176.6730  144.9030 C   0  0  0  0  0  3  0  0  0  0  0  0
  187.4120  177.7590  146.8170 N   0  0  0  0  0  0  0  0  0  0  0  0
  188.3840  177.3990  147.6470 N   0  0  0  0  0  0  0  0  0  0  0  0
  185.1700  178.7590  142.4600 C   0  0  0  0  0  3  0  0  0  0  0  0
  190.0720  177.0980  144.5180 C   0  0  0  0  0  3  0  0  0  0  0  0
  186.4790  178.3780  142.1240 C   0  0  0  0  0  0  0  0  0  0  0  0
  185.6420  178.4480  144.8210 C   0  0  0  0  0  0  0  0  0  0  0  0
  188.6600  178.1370  139.0190 C   0  0  0  0  0  0  0  0  0  0  0  0
  186.9290  178.3390  140.7150 C   0  0  0  0  0  0  0  0  0  0  0  0
  188.2220  178.1750  140.4170 C   0  0  0  0  0  3  0  0  0  0  0  0
  189.8810  177.9820  138.7550 O   0  0  0  0  0  0  0  0  0  0  0  0
  185.9610  178.4790  139.6590 N   0  0  0  0  0  0  0  0  0  0  0  0
  187.6730  178.2800  137.8990 C   0  0  0  0  0  2  0  0  0  0  0  0
  186.2630  178.4560  138.3940 C   0  0  0  0  0  3  0  0  0  0  0  0
  1 13  1  0  0  0  0
  2 18  1  0  0  0  0
  2  1  1  0  0  0  0
  4  1  2  0  0  0  0
  4  7  1  0  0  0  0
  5  8  2  0  0  0  0
  6  3  2  0  0  0  0
  7  8  1  0  0  0  0
  7 14  2  0  0  0  0
  9 10  1  0  0  0  0
  9 18  2  0  0  0  0
 11  2  2  0  0  0  0
 12  5  1  0  0  0  0
 13  3  1  0  0  0  0
 13 14  1  0  0  0  0
 15  9  1  0  0  0  0
 16 12  2  0  0  0  0
 16  4  1  0  0  0  0
 17 15  2  0  0  0  0
 17 11  1  0  0  0  0
 18  6  1  0  0  0  0
 19 21  1  0  0  0  0
 20 17  1  0  0  0  0
 21 20  2  0  0  0  0
 22 19  2  0  0  0  0
 23 20  1  0  0  0  0
 24 25  1  0  0  0  0
 24 19  1  0  0  0  0
 25 23  2  0  0  0  0
M  END
>  <MODEL>
3

>  <REMARK>
 VINA RESULT:     -11.1      1.884      4.855
  Name = 
  1 active torsions:
  status: ('A' for Active; 'I' for Inactive)
    1  A    between atoms: C_6  and  C_23
                            x       y       z     vdW  Elec       q    Type
                         _______ _______ _______ _____ _____    ______ ____

>  <TORSDO>
F 1

$$$$
=
 OpenBabel10262419523D

 25 29  0  0  0  0  0  0  0  0999 V2000
  189.7940  177.4340  143.5100 C   0  0  0  0  0  0  0  0  0  0  0  0
  188.7210  177.6070  144.3900 C   0  0  0  0  0  0  0  0  0  0  0  0
  191.3200  176.9950  145.2820 C   0  0  0  0  0  3  0  0  0  0  0  0
  189.8640  177.5080  142.1350 C   0  0  0  0  0  0  0  0  0  0  0  0
  190.7210  177.4940  139.5070 C   0  0  0  0  0  3  0  0  0  0  0  0
  190.2870  177.1550  146.2160 C   0  0  0  0  0  3  0  0  0  0  0  0
  191.1840  177.2450  141.8410 C   0  0  0  0  0  0  0  0  0  0  0  0
  191.6510  177.2300  140.5300 C   0  0  0  0  0  3  0  0  0  0  0  0
  187.9230  177.6290  146.6940 C   0  0  0  0  0  0  0  0  0  0  0  0
  188.1290  177.4900  148.1660 C   0  0  0  0  0  1  0  0  0  0  0  0
  187.4310  177.9110  143.9420 C   0  0  0  0  0  3  0  0  0  0  0  0
  189.3670  177.7640  139.8130 C   0  0  0  0  0  3  0  0  0  0  0  0
  191.0300  177.1420  143.9660 N   0  0  0  0  0  0  0  0  0  0  0  0
  191.8960  177.0210  142.9660 N   0  0  0  0  0  0  0  0  0  0  0  0
  186.6400  177.9320  146.2270 C   0  0  0  0  0  3  0  0  0  0  0  0
  188.9200  177.7730  141.1470 C   0  0  0  0  0  3  0  0  0  0  0  0
  186.3820  178.0760  144.8540 C   0  0  0  0  0  0  0  0  0  0  0  0
  188.9790  177.4630  145.7780 C   0  0  0  0  0  0  0  0  0  0  0  0
  183.3890  178.6250  142.5730 C   0  0  0  0  0  0  0  0  0  0  0  0
  185.0250  178.3970  144.3590 C   0  0  0  0  0  0  0  0  0  0  0  0
  184.7350  178.3040  143.0570 C   0  0  0  0  0  3  0  0  0  0  0  0
  183.1320  178.5320  141.3450 O   0  0  0  0  0  0  0  0  0  0  0  0
  184.0110  178.8140  145.2920 N   0  0  0  0  0  0  0  0  0  0  0  0
  182.3140  179.0610  143.5240 C   0  0  0  0  0  2  0  0  0  0  0  0
  182.7930  179.1160  144.9490 C   0  0  0  0  0  3  0  0  0  0  0  0
  1 13  1  0  0  0  0
  1  2  1  0  0  0  0
  2 18  1  0  0  0  0
  3  6  2  0  0  0  0
  4  1  2  0  0  0  0
  5 12  1  0  0  0  0
  5  8  2  0  0  0  0
  7  4  1  0  0  0  0
  7 14  2  0  0  0  0
  8  7  1  0  0  0  0
  9 10  1  0  0  0  0
 11  2  2  0  0  0  0
 11 17  1  0  0  0  0
 12 16  2  0  0  0  0
 13  3  1  0  0  0  0
 14 13  1  0  0  0  0
 15  9  1  0  0  0  0
 16  4  1  0  0  0  0
 17 15  2  0  0  0  0
 18  6  1  0  0  0  0
 18  9  2  0  0  0  0
 19 21  1  0  0  0  0
 19 24  1  0  0  0  0
 20 17  1  0  0  0  0
 20 23  1  0  0  0  0
 21 20  2  0  0  0  0
 22 19  2  0  0  0  0
 24 25  1  0  0  0  0
 25 23  2  0  0  0  0
M  END
>  <MODEL>
4

>  <REMARK>
 VINA RESULT:     -11.0      2.399      6.300
  Name = 
  1 active torsions:
  status: ('A' for Active; 'I' for Inactive)
    1  A    between atoms: C_6  and  C_23
                            x       y       z     vdW  Elec       q    Type
                         _______ _______ _______ _____ _____    ______ ____

>  <TORSDO>
F 1

$$$$
=
 OpenBabel10262419523D

 25 29  0  0  0  0  0  0  0  0999 V2000
  186.3640  178.1950  145.1090 C   0  0  0  0  0  0  0  0  0  0  0  0
  186.0860  178.3040  143.7420 C   0  0  0  0  0  0  0  0  0  0  0  0
  184.1040  178.6280  145.7160 C   0  0  0  0  0  3  0  0  0  0  0  0
  187.5390  177.9310  145.7800 C   0  0  0  0  0  0  0  0  0  0  0  0
  189.4520  177.4690  147.7200 C   0  0  0  0  0  3  0  0  0  0  0  0
  183.7600  178.7500  144.3620 C   0  0  0  0  0  3  0  0  0  0  0  0
  187.1890  177.9500  147.1110 C   0  0  0  0  0  0  0  0  0  0  0  0
  188.1260  177.7230  148.1160 C   0  0  0  0  0  3  0  0  0  0  0  0
  184.4300  178.7060  141.9980 C   0  0  0  0  0  0  0  0  0  0  0  0
  183.0420  179.0040  141.5360 C   0  0  0  0  0  1  0  0  0  0  0  0
  187.0730  178.1420  142.7650 C   0  0  0  0  0  3  0  0  0  0  0  0
  189.8080  177.4510  146.3520 C   0  0  0  0  0  3  0  0  0  0  0  0
  185.3940  178.3560  146.0330 N   0  0  0  0  0  0  0  0  0  0  0  0
  185.8730  178.2110  147.2640 N   0  0  0  0  0  0  0  0  0  0  0  0
  185.4310  178.5400  141.0360 C   0  0  0  0  0  3  0  0  0  0  0  0
  188.8420  177.6850  145.3560 C   0  0  0  0  0  3  0  0  0  0  0  0
  186.7560  178.2590  141.4060 C   0  0  0  0  0  0  0  0  0  0  0  0
  184.7480  178.5890  143.3640 C   0  0  0  0  0  0  0  0  0  0  0  0
  190.0870  177.5110  139.7310 C   0  0  0  0  0  0  0  0  0  0  0  0
  187.8160  178.0840  140.3890 C   0  0  0  0  0  0  0  0  0  0  0  0
  189.0410  177.6820  140.7440 C   0  0  0  0  0  3  0  0  0  0  0  0
  191.2350  177.1330  140.0810 O   0  0  0  0  0  0  0  0  0  0  0  0
  187.5210  178.3500  139.0060 N   0  0  0  0  0  0  0  0  0  0  0  0
  189.8060  177.7820  138.2830 C   0  0  0  0  0  2  0  0  0  0  0  0
  188.3870  178.2240  138.0440 C   0  0  0  0  0  3  0  0  0  0  0  0
  1  4  2  0  0  0  0
  1 13  1  0  0  0  0
  2  1  1  0  0  0  0
  3 13  1  0  0  0  0
  4  7  1  0  0  0  0
  5  8  2  0  0  0  0
  6  3  2  0  0  0  0
  7 14  2  0  0  0  0
  7  8  1  0  0  0  0
  9 18  2  0  0  0  0
 10  9  1  0  0  0  0
 11  2  2  0  0  0  0
 12  5  1  0  0  0  0
 13 14  1  0  0  0  0
 15 17  2  0  0  0  0
 15  9  1  0  0  0  0
 16  4  1  0  0  0  0
 16 12  2  0  0  0  0
 17 11  1  0  0  0  0
 18  2  1  0  0  0  0
 18  6  1  0  0  0  0
 19 22  2  0  0  0  0
 19 21  1  0  0  0  0
 20 21  2  0  0  0  0
 20 17  1  0  0  0  0
 23 20  1  0  0  0  0
 24 19  1  0  0  0  0
 25 24  1  0  0  0  0
 25 23  2  0  0  0  0
M  END
>  <MODEL>
5

>  <REMARK>
 VINA RESULT:     -10.6      1.464      4.521
  Name = 
  1 active torsions:
  status: ('A' for Active; 'I' for Inactive)
    1  A    between atoms: C_6  and  C_23
                            x       y       z     vdW  Elec       q    Type
                         _______ _______ _______ _____ _____    ______ ____

>  <TORSDO>
F 1

$$$$
=
 OpenBabel10262419523D

 25 29  0  0  0  0  0  0  0  0999 V2000
  189.8470  177.3170  143.4190 C   0  0  0  0  0  0  0  0  0  0  0  0
  188.7860  177.6770  142.5810 C   0  0  0  0  0  0  0  0  0  0  0  0
  191.3830  177.1950  141.6060 C   0  0  0  0  0  3  0  0  0  0  0  0
  189.9030  177.1230  144.7830 C   0  0  0  0  0  0  0  0  0  0  0  0
  190.7300  176.5860  147.3650 C   0  0  0  0  0  3  0  0  0  0  0  0
  190.3640  177.5530  140.7140 C   0  0  0  0  0  3  0  0  0  0  0  0
  191.2140  176.7820  145.0300 C   0  0  0  0  0  0  0  0  0  0  0  0
  191.6660  176.5040  146.3170 C   0  0  0  0  0  3  0  0  0  0  0  0
  188.0150  178.1580  140.3190 C   0  0  0  0  0  0  0  0  0  0  0  0
  188.2350  178.3010  138.8490 C   0  0  0  0  0  1  0  0  0  0  0  0
  187.4980  177.9160  143.0690 C   0  0  0  0  0  3  0  0  0  0  0  0
  189.3850  176.9360  147.1070 C   0  0  0  0  0  3  0  0  0  0  0  0
  191.0820  177.0910  142.9240 N   0  0  0  0  0  0  0  0  0  0  0  0
  191.9340  176.7630  143.8880 N   0  0  0  0  0  0  0  0  0  0  0  0
  186.7330  178.3930  140.8260 C   0  0  0  0  0  3  0  0  0  0  0  0
  188.9530  177.2120  145.7960 C   0  0  0  0  0  3  0  0  0  0  0  0
  186.4620  178.2750  142.1990 C   0  0  0  0  0  0  0  0  0  0  0  0
  189.0570  177.7970  141.1930 C   0  0  0  0  0  0  0  0  0  0  0  0
  183.5710  178.9540  144.5740 C   0  0  0  0  0  0  0  0  0  0  0  0
  185.1060  178.5230  142.7370 C   0  0  0  0  0  0  0  0  0  0  0  0
  184.9160  178.7100  144.0470 C   0  0  0  0  0  3  0  0  0  0  0  0
  183.4090  179.1280  145.8100 O   0  0  0  0  0  0  0  0  0  0  0  0
  183.9840  178.5620  141.8370 N   0  0  0  0  0  0  0  0  0  0  0  0
  182.3840  179.0000  143.6580 C   0  0  0  0  0  2  0  0  0  0  0  0
  182.7580  178.7730  142.2180 C   0  0  0  0  0  3  0  0  0  0  0  0
  1  4  2  0  0  0  0
  2 11  1  0  0  0  0
  2  1  1  0  0  0  0
  3 13  1  0  0  0  0
  4  7  1  0  0  0  0
  4 16  1  0  0  0  0
  6 18  1  0  0  0  0
  6  3  2  0  0  0  0
  7  8  1  0  0  0  0
  8  5  2  0  0  0  0
  9 15  2  0  0  0  0
  9 18  1  0  0  0  0
 10  9  1  0  0  0  0
 12  5  1  0  0  0  0
 13  1  1  0  0  0  0
 13 14  1  0  0  0  0
 14  7  2  0  0  0  0
 15 17  1  0  0  0  0
 16 12  2  0  0  0  0
 17 20  1  0  0  0  0
 17 11  2  0  0  0  0
 18  2  2  0  0  0  0
 19 22  2  0  0  0  0
 20 21  2  0  0  0  0
 21 19  1  0  0  0  0
 23 25  2  0  0  0  0
 23 20  1  0  0  0  0
 24 19  1  0  0  0  0
 25 24  1  0  0  0  0
M  END
>  <MODEL>
6

>  <REMARK>
 VINA RESULT:     -10.5      3.024      6.881
  Name = 
  1 active torsions:
  status: ('A' for Active; 'I' for Inactive)
    1  A    between atoms: C_6  and  C_23
                            x       y       z     vdW  Elec       q    Type
                         _______ _______ _______ _____ _____    ______ ____

>  <TORSDO>
F 1

$$$$
=
 OpenBabel10262419523D

 25 29  0  0  0  0  0  0  0  0999 V2000
  186.6920  178.3340  140.9340 C   0  0  0  0  0  0  0  0  0  0  0  0
  186.4690  178.2730  142.3130 C   0  0  0  0  0  0  0  0  0  0  0  0
  184.4330  178.9270  140.4820 C   0  0  0  0  0  3  0  0  0  0  0  0
  187.8300  178.1170  140.1860 C   0  0  0  0  0  0  0  0  0  0  0  0
  189.6500  177.8430  138.1240 C   0  0  0  0  0  3  0  0  0  0  0  0
  184.1440  178.8830  141.8530 C   0  0  0  0  0  3  0  0  0  0  0  0
  187.4330  178.3240  138.8840 C   0  0  0  0  0  0  0  0  0  0  0  0
  188.3220  178.1940  137.8200 C   0  0  0  0  0  3  0  0  0  0  0  0
  184.8960  178.5050  144.1620 C   0  0  0  0  0  0  0  0  0  0  0  0
  183.5400  178.7910  144.7160 C   0  0  0  0  0  1  0  0  0  0  0  0
  187.4830  177.9480  143.2190 C   0  0  0  0  0  3  0  0  0  0  0  0
  190.0540  177.6310  139.4620 C   0  0  0  0  0  3  0  0  0  0  0  0
  185.6970  178.6490  140.0790 N   0  0  0  0  0  0  0  0  0  0  0  0
  186.1240  178.6500  138.8210 N   0  0  0  0  0  0  0  0  0  0  0  0
  185.9240  178.1780  145.0520 C   0  0  0  0  0  3  0  0  0  0  0  0
  189.1360  177.7680  140.5200 C   0  0  0  0  0  3  0  0  0  0  0  0
  187.2210  177.8980  144.5940 C   0  0  0  0  0  0  0  0  0  0  0  0
  185.1590  178.5550  142.7800 C   0  0  0  0  0  0  0  0  0  0  0  0
  190.6240  176.9920  146.0280 C   0  0  0  0  0  0  0  0  0  0  0  0
  188.3090  177.5510  145.5350 C   0  0  0  0  0  0  0  0  0  0  0  0
  189.5510  177.3350  145.0900 C   0  0  0  0  0  3  0  0  0  0  0  0
  191.7880  176.7920  145.5940 O   0  0  0  0  0  0  0  0  0  0  0  0
  188.0220  177.4470  146.9410 N   0  0  0  0  0  0  0  0  0  0  0  0
  190.3520  176.8770  147.4980 C   0  0  0  0  0  2  0  0  0  0  0  0
  188.9120  177.1490  147.8410 C   0  0  0  0  0  3  0  0  0  0  0  0
  1  2  1  0  0  0  0
  2 18  2  0  0  0  0
  2 11  1  0  0  0  0
  3  6  2  0  0  0  0
  4 16  1  0  0  0  0
  4  1  2  0  0  0  0
  5 12  1  0  0  0  0
  6 18  1  0  0  0  0
  7  4  1  0  0  0  0
  8  5  2  0  0  0  0
  8  7  1  0  0  0  0
  9 10  1  0  0  0  0
  9 15  2  0  0  0  0
 11 17  2  0  0  0  0
 12 16  2  0  0  0  0
 13  3  1  0  0  0  0
 13  1  1  0  0  0  0
 14  7  2  0  0  0  0
 14 13  1  0  0  0  0
 17 15  1  0  0  0  0
 17 20  1  0  0  0  0
 18  9  1  0  0  0  0
 19 24  1  0  0  0  0
 20 23  1  0  0  0  0
 21 20  2  0  0  0  0
 21 19  1  0  0  0  0
 22 19  2  0  0  0  0
 23 25  2  0  0  0  0
 24 25  1  0  0  0  0
M  END
>  <MODEL>
7

>  <REMARK>
 VINA RESULT:     -10.5      2.171      6.314
  Name = 
  1 active torsions:
  status: ('A' for Active; 'I' for Inactive)
    1  A    between atoms: C_6  and  C_23
                            x       y       z     vdW  Elec       q    Type
                         _______ _______ _______ _____ _____    ______ ____

>  <TORSDO>
F 1

$$$$
=
 OpenBabel10262419523D

 25 29  0  0  0  0  0  0  0  0999 V2000
  188.6420  177.7100  143.3950 C   0  0  0  0  0  0  0  0  0  0  0  0
  187.2800  177.9890  143.5500 C   0  0  0  0  0  0  0  0  0  0  0  0
  188.9710  177.4650  145.7390 C   0  0  0  0  0  3  0  0  0  0  0  0
  189.4310  177.6250  142.2680 C   0  0  0  0  0  0  0  0  0  0  0  0
  191.5410  177.3070  140.5120 C   0  0  0  0  0  3  0  0  0  0  0  0
  187.6140  177.7380  145.9610 C   0  0  0  0  0  3  0  0  0  0  0  0
  190.6870  177.3220  142.7460 C   0  0  0  0  0  0  0  0  0  0  0  0
  191.7730  177.1550  141.8920 C   0  0  0  0  0  3  0  0  0  0  0  0
  185.3910  178.2780  145.0640 C   0  0  0  0  0  0  0  0  0  0  0  0
  184.7810  178.3070  146.4260 C   0  0  0  0  0  1  0  0  0  0  0  0
  186.4440  178.2480  142.4590 C   0  0  0  0  0  3  0  0  0  0  0  0
  190.2520  177.6180  140.0240 C   0  0  0  0  0  3  0  0  0  0  0  0
  189.4290  177.4630  144.4640 N   0  0  0  0  0  0  0  0  0  0  0  0
  190.6820  177.2230  144.0930 N   0  0  0  0  0  0  0  0  0  0  0  0
  184.5700  178.5350  143.9610 C   0  0  0  0  0  3  0  0  0  0  0  0
  189.1700  177.7830  140.9100 C   0  0  0  0  0  3  0  0  0  0  0  0
  185.0850  178.5230  142.6540 C   0  0  0  0  0  0  0  0  0  0  0  0
  186.7580  178.0020  144.8690 C   0  0  0  0  0  0  0  0  0  0  0  0
  182.0560  178.7980  140.3720 C   0  0  0  0  0  0  0  0  0  0  0  0
  184.2180  178.7940  141.4860 C   0  0  0  0  0  0  0  0  0  0  0  0
  182.9090  178.5270  141.5320 C   0  0  0  0  0  3  0  0  0  0  0  0
  180.8250  178.5410  140.4310 O   0  0  0  0  0  0  0  0  0  0  0  0
  184.7950  179.3520  140.2910 N   0  0  0  0  0  0  0  0  0  0  0  0
  182.6310  179.3790  139.1140 C   0  0  0  0  0  2  0  0  0  0  0  0
  184.1120  179.6230  139.2180 C   0  0  0  0  0  3  0  0  0  0  0  0
  1  2  1  0  0  0  0
  1 13  1  0  0  0  0
  2 18  1  0  0  0  0
  3  6  2  0  0  0  0
  4  7  1  0  0  0  0
  4  1  2  0  0  0  0
  5  8  2  0  0  0  0
  7 14  2  0  0  0  0
  8  7  1  0  0  0  0
  9 10  1  0  0  0  0
 11 17  1  0  0  0  0
 11  2  2  0  0  0  0
 12  5  1  0  0  0  0
 12 16  2  0  0  0  0
 13  3  1  0  0  0  0
 14 13  1  0  0  0  0
 15  9  1  0  0  0  0
 16  4  1  0  0  0  0
 17 15  2  0  0  0  0
 18  9  2  0  0  0  0
 18  6  1  0  0  0  0
 19 22  2  0  0  0  0
 19 21  1  0  0  0  0
 20 21  2  0  0  0  0
 20 17  1  0  0  0  0
 23 20  1  0  0  0  0
 24 25  1  0  0  0  0
 24 19  1  0  0  0  0
 25 23  2  0  0  0  0
M  END
>  <MODEL>
8

>  <REMARK>
 VINA RESULT:     -10.3      3.256      6.452
  Name = 
  1 active torsions:
  status: ('A' for Active; 'I' for Inactive)
    1  A    between atoms: C_6  and  C_23
                            x       y       z     vdW  Elec       q    Type
                         _______ _______ _______ _____ _____    ______ ____

>  <TORSDO>
F 1

$$$$
=
 OpenBabel10262419523D

 25 29  0  0  0  0  0  0  0  0999 V2000
  187.7810  177.7500  145.0720 C   0  0  0  0  0  0  0  0  0  0  0  0
  186.6800  178.0760  144.2740 C   0  0  0  0  0  0  0  0  0  0  0  0
  186.5720  178.1230  147.0870 C   0  0  0  0  0  3  0  0  0  0  0  0
  189.0630  177.3630  144.7400 C   0  0  0  0  0  0  0  0  0  0  0  0
  191.7090  176.5690  144.8150 C   0  0  0  0  0  3  0  0  0  0  0  0
  185.4330  178.4620  146.3440 C   0  0  0  0  0  3  0  0  0  0  0  0
  189.6940  177.1800  145.9500 C   0  0  0  0  0  0  0  0  0  0  0  0
  191.0250  176.7820  146.0270 C   0  0  0  0  0  3  0  0  0  0  0  0
  184.3470  178.7760  144.1620 C   0  0  0  0  0  0  0  0  0  0  0  0
  183.0520  179.1680  144.7940 C   0  0  0  0  0  1  0  0  0  0  0  0
  186.7380  178.0510  142.8770 C   0  0  0  0  0  3  0  0  0  0  0  0
  191.0580  176.7580  143.5740 C   0  0  0  0  0  3  0  0  0  0  0  0
  187.7010  177.7820  146.4190 N   0  0  0  0  0  0  0  0  0  0  0  0
  188.8560  177.4370  146.9780 N   0  0  0  0  0  0  0  0  0  0  0  0
  184.4240  178.7440  142.7660 C   0  0  0  0  0  3  0  0  0  0  0  0
  189.7110  177.1620  143.5240 C   0  0  0  0  0  3  0  0  0  0  0  0
  185.6130  178.3840  142.1120 C   0  0  0  0  0  0  0  0  0  0  0  0
  185.4770  178.4410  144.9320 C   0  0  0  0  0  0  0  0  0  0  0  0
  184.6760  178.2660  138.4290 C   0  0  0  0  0  0  0  0  0  0  0  0
  185.6960  178.3510  140.6350 C   0  0  0  0  0  0  0  0  0  0  0  0
  184.5870  178.2990  139.8910 C   0  0  0  0  0  3  0  0  0  0  0  0
  183.6220  178.2170  137.7420 O   0  0  0  0  0  0  0  0  0  0  0  0
  186.9870  178.3750  139.9980 N   0  0  0  0  0  0  0  0  0  0  0  0
  186.0080  178.2910  137.7390 C   0  0  0  0  0  2  0  0  0  0  0  0
  187.1570  178.3500  138.7090 C   0  0  0  0  0  3  0  0  0  0  0  0
  1 13  1  0  0  0  0
  2 18  1  0  0  0  0
  2  1  1  0  0  0  0
  4  1  2  0  0  0  0
  4  7  1  0  0  0  0
  5  8  2  0  0  0  0
  6  3  2  0  0  0  0
  7  8  1  0  0  0  0
  7 14  2  0  0  0  0
  9 10  1  0  0  0  0
  9 18  2  0  0  0  0
 11  2  2  0  0  0  0
 12  5  1  0  0  0  0
 13 14  1  0  0  0  0
 13  3  1  0  0  0  0
 15  9  1  0  0  0  0
 16 12  2  0  0  0  0
 16  4  1  0  0  0  0
 17 15  2  0  0  0  0
 17 11  1  0  0  0  0
 18  6  1  0  0  0  0
 19 21  1  0  0  0  0
 20 17  1  0  0  0  0
 21 20  2  0  0  0  0
 22 19  2  0  0  0  0
 23 20  1  0  0  0  0
 24 19  1  0  0  0  0
 24 25  1  0  0  0  0
 25 23  2  0  0  0  0
M  END
>  <MODEL>
9

>  <REMARK>
 VINA RESULT:     -10.1      2.782      5.573
  Name = 
  1 active torsions:
  status: ('A' for Active; 'I' for Inactive)
    1  A    between atoms: C_6  and  C_23
                            x       y       z     vdW  Elec       q    Type
                         _______ _______ _______ _____ _____    ______ ____

>  <TORSDO>
F 1

$$$$
