=
 OpenBabel10262421273D

 32 38  0  0  1  0  0  0  0  0999 V2000
  185.7580  178.3230  146.7320 C   0  0  0  0  0  3  0  0  0  0  0  0
  185.7110  178.5370  141.6340 C   0  0  0  0  0  0  0  0  0  0  0  0
  187.3450  178.2500  139.8560 C   0  0  0  0  0  0  0  0  0  0  0  0
  188.2860  177.8370  140.8260 C   0  0  0  0  0  0  0  0  0  0  0  0
  186.3850  178.1960  144.0030 C   0  0  0  0  0  0  0  0  0  0  0  0
  184.3740  179.5990  143.4400 C   0  0  0  0  0  2  0  0  0  0  0  0
  189.0300  177.9360  138.1300 C   0  0  0  0  0  0  0  0  0  0  0  0
  184.9210  178.9350  145.7950 C   0  0  0  0  0  3  0  0  0  0  0  0
  184.4170  178.9420  142.1290 N   0  0  0  0  0  0  0  0  0  0  0  0
  183.1840  178.2720  141.6850 C   0  0  2  0  0  3  0  0  0  0  0  0
  185.0630  179.0550  139.2540 C   0  0  0  0  0  3  0  0  0  0  0  0
  189.9520  177.5280  139.0960 C   0  0  0  0  0  3  0  0  0  0  0  0
  185.2230  178.8630  144.4340 C   0  0  0  0  0  0  0  0  0  0  0  0
  189.5800  177.4780  140.4410 C   0  0  0  0  0  3  0  0  0  0  0  0
  187.2240  177.5880  144.9470 C   0  0  0  0  0  3  0  0  0  0  0  0
  186.9070  177.6460  146.3100 C   0  0  0  0  0  0  0  0  0  0  0  0
  183.1880  177.9080  140.2670 N   0  0  0  0  0  0  0  0  0  0  0  0
  183.7710  178.7430  139.2610 C   0  0  0  0  0  3  0  0  0  0  0  0
  186.7000  178.1580  142.5620 C   0  0  0  0  0  0  0  0  0  0  0  0
  187.9430  177.8050  142.1370 N   0  0  0  0  0  0  0  0  0  0  0  0
  189.4030  177.9890  136.7940 O   0  0  0  0  0  1  0  0  0  0  0  0
  186.0370  178.5900  140.2620 C   0  0  0  0  0  0  0  0  0  0  0  0
  187.7340  178.2960  138.5070 C   0  0  0  0  0  3  0  0  0  0  0  0
  181.3450  178.2930  142.8770 O   0  0  0  0  0  1  0  0  0  0  0  0
  182.0320  179.0160  142.0110 O   0  0  0  0  0  0  0  0  0  0  0  0
  182.9720  175.9330  139.0380 O   0  0  0  0  0  1  0  0  0  0  0  0
  182.2900  176.8460  139.8450 C   0  0  0  0  0  2  0  0  0  0  0  0
  187.8020  177.0090  147.3170 C   0  0  0  0  0  2  0  0  0  0  0  0
  189.9190  177.9960  146.4400 C   0  0  1  0  0  3  0  0  0  0  0  0
  188.9860  177.9130  147.6350 C   0  0  2  0  0  3  0  0  0  0  0  0
  190.2910  177.1360  147.6260 C   0  0  1  0  0  3  0  0  0  0  0  0
  190.5960  176.6560  146.2210 C   0  0  0  0  0  2  0  0  0  0  0  0
  2  9  1  0  0  0  0
  2 19  1  0  0  0  0
  3 22  1  0  0  0  0
  3  4  1  0  0  0  0
  4 20  1  0  0  0  0
  5 13  2  0  0  0  0
  5 15  1  0  0  0  0
  6 13  1  0  0  0  0
  7 23  1  0  0  0  0
  7 12  2  0  0  0  0
  8  1  2  0  0  0  0
  9  6  1  0  0  0  0
 10 25  1  6  0  0  0
 10  9  1  0  0  0  0
 11 18  2  0  0  0  0
 11 22  1  0  0  0  0
 12 14  1  0  0  0  0
 13  8  1  0  0  0  0
 14  4  2  0  0  0  0
 15 16  2  0  0  0  0
 16  1  1  0  0  0  0
 16 28  1  0  0  0  0
 17 10  1  0  0  0  0
 18 17  1  0  0  0  0
 19  5  1  0  0  0  0
 20 19  2  0  0  0  0
 21  7  1  0  0  0  0
 22  2  2  0  0  0  0
 23  3  2  0  0  0  0
 25 24  1  0  0  0  0
 26 27  1  0  0  0  0
 27 17  1  0  0  0  0
 29 32  1  6  0  0  0
 29 31  1  0  0  0  0
 29 30  1  0  0  0  0
 30 28  1  6  0  0  0
 31 32  1  6  0  0  0
 31 30  1  0  0  0  0
M  END
>  <MODEL>
1

>  <REMARK>
 VINA RESULT:      -9.5      0.000      0.000
  Name = 
  4 active torsions:
  status: ('A' for Active; 'I' for Inactive)
    1  A    between atoms: C_10  and  C_19
    2  A    between atoms: O_13  and  C_15
    3  A    between atoms: C_19  and  C_24
    4  A    between atoms: C_25  and  N_26
                            x       y       z     vdW  Elec       q    Type
                         _______ _______ _______ _____ _____    ______ ____

>  <TORSDO>
F 4

$$$$
=
 OpenBabel10262421273D

 32 38  0  0  1  0  0  0  0  0999 V2000
  184.2310  178.7770  145.8110 C   0  0  0  0  0  3  0  0  0  0  0  0
  184.8350  178.4510  140.7540 C   0  0  0  0  0  0  0  0  0  0  0  0
  186.7190  178.3870  139.2190 C   0  0  0  0  0  0  0  0  0  0  0  0
  187.5880  178.3160  140.3310 C   0  0  0  0  0  0  0  0  0  0  0  0
  185.2380  178.5270  143.2070 C   0  0  0  0  0  0  0  0  0  0  0  0
  183.0570  179.3370  142.2480 C   0  0  0  0  0  2  0  0  0  0  0  0
  188.6520  178.3160  137.7420 C   0  0  0  0  0  0  0  0  0  0  0  0
  183.4130  179.0690  144.7160 C   0  0  0  0  0  3  0  0  0  0  0  0
  183.4280  178.5800  141.0480 N   0  0  0  0  0  0  0  0  0  0  0  0
  182.4530  177.5900  140.5640 C   0  0  2  0  0  3  0  0  0  0  0  0
  184.4180  178.5510  138.2710 C   0  0  0  0  0  3  0  0  0  0  0  0
  189.5010  178.2440  138.8490 C   0  0  0  0  0  3  0  0  0  0  0  0
  183.9070  178.9330  143.4170 C   0  0  0  0  0  0  0  0  0  0  0  0
  188.9700  178.2430  140.1400 C   0  0  0  0  0  3  0  0  0  0  0  0
  186.0560  178.2400  144.3090 C   0  0  0  0  0  3  0  0  0  0  0  0
  185.5510  178.3580  145.6090 C   0  0  0  0  0  0  0  0  0  0  0  0
  182.7330  177.0940  139.2160 N   0  0  0  0  0  0  0  0  0  0  0  0
  183.2430  177.9370  138.1780 C   0  0  0  0  0  3  0  0  0  0  0  0
  185.7480  178.4200  141.8260 C   0  0  0  0  0  0  0  0  0  0  0  0
  187.0840  178.3360  141.5900 N   0  0  0  0  0  0  0  0  0  0  0  0
  189.1830  178.3200  136.4600 O   0  0  0  0  0  1  0  0  0  0  0  0
  185.3260  178.4410  139.4310 C   0  0  0  0  0  0  0  0  0  0  0  0
  187.2690  178.3880  137.9250 C   0  0  0  0  0  3  0  0  0  0  0  0
  180.4790  177.2150  141.4410 O   0  0  0  0  0  1  0  0  0  0  0  0
  181.1270  178.0620  140.6630 O   0  0  0  0  0  0  0  0  0  0  0  0
  183.1530  174.9920  138.2850 O   0  0  0  0  0  1  0  0  0  0  0  0
  182.1660  175.8080  138.8420 C   0  0  0  0  0  2  0  0  0  0  0  0
  186.4200  178.0630  146.7830 C   0  0  0  0  0  2  0  0  0  0  0  0
  188.4810  176.8900  147.5580 C   0  0  1  0  0  3  0  0  0  0  0  0
  187.6960  177.3540  146.3440 C   0  0  2  0  0  3  0  0  0  0  0  0
  188.9310  178.1150  146.7940 C   0  0  1  0  0  3  0  0  0  0  0  0
  189.0300  178.0900  148.3070 C   0  0  0  0  0  2  0  0  0  0  0  0
  2  9  1  0  0  0  0
  2 19  1  0  0  0  0
  3 22  1  0  0  0  0
  3  4  1  0  0  0  0
  4 20  1  0  0  0  0
  5 13  2  0  0  0  0
  5 15  1  0  0  0  0
  6 13  1  0  0  0  0
  7 23  1  0  0  0  0
  7 12  2  0  0  0  0
  8  1  2  0  0  0  0
  9  6  1  0  0  0  0
 10 25  1  6  0  0  0
 10  9  1  0  0  0  0
 11 22  1  0  0  0  0
 12 14  1  0  0  0  0
 13  8  1  0  0  0  0
 14  4  2  0  0  0  0
 15 16  2  0  0  0  0
 16  1  1  0  0  0  0
 16 28  1  0  0  0  0
 17 10  1  0  0  0  0
 18 11  2  0  0  0  0
 18 17  1  0  0  0  0
 19  5  1  0  0  0  0
 20 19  2  0  0  0  0
 21  7  1  0  0  0  0
 22  2  2  0  0  0  0
 23  3  2  0  0  0  0
 25 24  1  0  0  0  0
 26 27  1  0  0  0  0
 27 17  1  0  0  0  0
 29 32  1  1  0  0  0
 30 28  1  1  0  0  0
 30 31  1  0  0  0  0
 30 29  1  0  0  0  0
 31 29  1  0  0  0  0
 31 32  1  1  0  0  0
M  END
>  <MODEL>
2

>  <REMARK>
 VINA RESULT:      -9.3      1.138      1.537
  Name = 
  4 active torsions:
  status: ('A' for Active; 'I' for Inactive)
    1  A    between atoms: C_10  and  C_19
    2  A    between atoms: O_13  and  C_15
    3  A    between atoms: C_19  and  C_24
    4  A    between atoms: C_25  and  N_26
                            x       y       z     vdW  Elec       q    Type
                         _______ _______ _______ _____ _____    ______ ____

>  <TORSDO>
F 4

$$$$
=
 OpenBabel10262421273D

 32 38  0  0  1  0  0  0  0  0999 V2000
  184.1210  178.4730  145.4640 C   0  0  0  0  0  3  0  0  0  0  0  0
  188.2330  177.5770  142.5780 C   0  0  0  0  0  0  0  0  0  0  0  0
  188.7300  177.5670  140.1980 C   0  0  0  0  0  0  0  0  0  0  0  0
  187.4350  178.0740  139.9540 C   0  0  0  0  0  0  0  0  0  0  0  0
  185.9610  178.2100  143.3660 C   0  0  0  0  0  0  0  0  0  0  0  0
  187.4690  176.8140  144.8170 C   0  0  0  0  0  2  0  0  0  0  0  0
  189.1590  177.5880  137.8030 C   0  0  0  0  0  0  0  0  0  0  0  0
  185.3120  177.7700  145.6650 C   0  0  0  0  0  3  0  0  0  0  0  0
  188.5570  177.2860  143.9540 N   0  0  0  0  0  0  0  0  0  0  0  0
  189.6980  177.9320  144.6240 C   0  0  2  0  0  3  0  0  0  0  0  0
  190.4820  176.7660  141.7820 C   0  0  0  0  0  3  0  0  0  0  0  0
  187.8770  178.0910  137.5730 C   0  0  0  0  0  3  0  0  0  0  0  0
  186.2370  177.6480  144.6260 C   0  0  0  0  0  0  0  0  0  0  0  0
  187.0170  178.3340  138.6450 C   0  0  0  0  0  3  0  0  0  0  0  0
  184.7630  178.9110  143.1690 C   0  0  0  0  0  3  0  0  0  0  0  0
  183.8470  179.0480  144.2180 C   0  0  0  0  0  0  0  0  0  0  0  0
  190.8690  178.1020  143.7630 N   0  0  0  0  0  0  0  0  0  0  0  0
  191.2630  177.1200  142.7980 C   0  0  0  0  0  3  0  0  0  0  0  0
  186.9390  178.0430  142.2740 C   0  0  0  0  0  0  0  0  0  0  0  0
  186.5830  178.2930  140.9860 N   0  0  0  0  0  0  0  0  0  0  0  0
  190.0110  177.3440  136.7350 O   0  0  0  0  0  1  0  0  0  0  0  0
  189.1410  177.3290  141.5270 C   0  0  0  0  0  0  0  0  0  0  0  0
  189.5840  177.3270  139.1080 C   0  0  0  0  0  3  0  0  0  0  0  0
  189.6140  178.0430  146.8110 O   0  0  0  0  0  1  0  0  0  0  0  0
  190.0450  177.2790  145.8240 O   0  0  0  0  0  0  0  0  0  0  0  0
  191.1850  180.3560  144.2930 O   0  0  0  0  0  1  0  0  0  0  0  0
  191.8310  179.1280  144.1320 C   0  0  0  0  0  2  0  0  0  0  0  0
  182.5680  179.7830  144.0090 C   0  0  0  0  0  2  0  0  0  0  0  0
  180.3320  179.7330  142.9030 C   0  0  1  0  0  3  0  0  0  0  0  0
  181.6900  179.0610  142.9940 C   0  0  2  0  0  3  0  0  0  0  0  0
  180.4790  178.4340  143.6630 C   0  0  1  0  0  3  0  0  0  0  0  0
  179.5630  179.5190  144.1940 C   0  0  0  0  0  2  0  0  0  0  0  0
  1  8  1  0  0  0  0
  2  9  1  0  0  0  0
  3 22  1  0  0  0  0
  4  3  1  0  0  0  0
  4 20  1  0  0  0  0
  5 13  1  0  0  0  0
  7 23  1  0  0  0  0
  9 10  1  0  0  0  0
  9  6  1  0  0  0  0
 10 25  1  1  0  0  0
 11 18  2  0  0  0  0
 12  7  2  0  0  0  0
 12 14  1  0  0  0  0
 13  6  1  0  0  0  0
 13  8  2  0  0  0  0
 14  4  2  0  0  0  0
 15  5  2  0  0  0  0
 15 16  1  0  0  0  0
 16  1  2  0  0  0  0
 17 27  1  0  0  0  0
 17 10  1  0  0  0  0
 18 17  1  0  0  0  0
 19  2  1  0  0  0  0
 19  5  1  0  0  0  0
 20 19  2  0  0  0  0
 21  7  1  0  0  0  0
 22 11  1  0  0  0  0
 22  2  2  0  0  0  0
 23  3  2  0  0  0  0
 25 24  1  0  0  0  0
 27 26  1  0  0  0  0
 28 16  1  0  0  0  0
 29 30  1  0  0  0  0
 29 31  1  0  0  0  0
 29 32  1  1  0  0  0
 30 31  1  0  0  0  0
 30 28  1  1  0  0  0
 31 32  1  1  0  0  0
M  END
>  <MODEL>
3

>  <REMARK>
 VINA RESULT:      -8.9      3.252      6.217
  Name = 
  4 active torsions:
  status: ('A' for Active; 'I' for Inactive)
    1  A    between atoms: C_10  and  C_19
    2  A    between atoms: O_13  and  C_15
    3  A    between atoms: C_19  and  C_24
    4  A    between atoms: C_25  and  N_26
                            x       y       z     vdW  Elec       q    Type
                         _______ _______ _______ _____ _____    ______ ____

>  <TORSDO>
F 4

$$$$
=
 OpenBabel10262421273D

 32 38  0  0  1  0  0  0  0  0999 V2000
  184.8790  178.8540  144.5540 C   0  0  0  0  0  3  0  0  0  0  0  0
  186.7860  178.1020  139.8810 C   0  0  0  0  0  0  0  0  0  0  0  0
  188.9580  177.5300  138.9490 C   0  0  0  0  0  0  0  0  0  0  0  0
  189.4380  177.3330  140.2630 C   0  0  0  0  0  0  0  0  0  0  0  0
  186.4910  178.2320  142.3460 C   0  0  0  0  0  0  0  0  0  0  0  0
  184.9140  179.4490  140.8080 C   0  0  0  0  0  2  0  0  0  0  0  0
  191.1560  176.9420  138.0880 C   0  0  0  0  0  0  0  0  0  0  0  0
  184.4920  179.2560  143.2730 C   0  0  0  0  0  3  0  0  0  0  0  0
  185.4220  178.5590  139.7590 N   0  0  0  0  0  0  0  0  0  0  0  0
  184.4210  177.7840  139.0090 C   0  0  2  0  0  3  0  0  0  0  0  0
  187.1170  178.1450  137.3830 C   0  0  0  0  0  3  0  0  0  0  0  0
  191.6200  176.7490  139.3910 C   0  0  0  0  0  3  0  0  0  0  0  0
  185.2850  178.9360  142.1690 C   0  0  0  0  0  0  0  0  0  0  0  0
  190.7630  176.9430  140.4760 C   0  0  0  0  0  3  0  0  0  0  0  0
  186.8770  177.8360  143.6340 C   0  0  0  0  0  3  0  0  0  0  0  0
  186.0690  178.1410  144.7360 C   0  0  0  0  0  0  0  0  0  0  0  0
  184.9460  177.1590  137.7940 N   0  0  0  0  0  0  0  0  0  0  0  0
  185.9070  177.8050  136.9520 C   0  0  0  0  0  3  0  0  0  0  0  0
  187.3290  177.9320  141.1690 C   0  0  0  0  0  0  0  0  0  0  0  0
  188.6210  177.5400  141.3250 N   0  0  0  0  0  0  0  0  0  0  0  0
  192.0110  176.7520  137.0120 O   0  0  0  0  0  1  0  0  0  0  0  0
  187.6120  177.9050  138.7530 C   0  0  0  0  0  0  0  0  0  0  0  0
  189.8330  177.3310  137.8680 C   0  0  0  0  0  3  0  0  0  0  0  0
  182.2540  177.9300  139.3120 O   0  0  0  0  0  1  0  0  0  0  0  0
  183.2670  178.5440  138.7270 O   0  0  0  0  0  0  0  0  0  0  0  0
  185.0710  174.9020  137.2040 O   0  0  0  0  0  1  0  0  0  0  0  0
  184.2260  176.0120  137.2640 C   0  0  0  0  0  2  0  0  0  0  0  0
  186.4820  177.7300  146.1080 C   0  0  0  0  0  2  0  0  0  0  0  0
  188.3390  176.8170  147.5020 C   0  0  1  0  0  3  0  0  0  0  0  0
  187.9650  177.3800  146.1420 C   0  0  2  0  0  3  0  0  0  0  0  0
  188.7090  178.2400  147.1490 C   0  0  1  0  0  3  0  0  0  0  0  0
  188.2480  177.9060  148.5550 C   0  0  0  0  0  2  0  0  0  0  0  0
  1 16  1  0  0  0  0
  2 19  1  0  0  0  0
  3  4  1  0  0  0  0
  4 14  2  0  0  0  0
  4 20  1  0  0  0  0
  5 15  1  0  0  0  0
  6 13  1  0  0  0  0
  7 12  2  0  0  0  0
  8  1  2  0  0  0  0
  9  2  1  0  0  0  0
  9  6  1  0  0  0  0
 10 25  1  6  0  0  0
 10  9  1  0  0  0  0
 11 22  1  0  0  0  0
 12 14  1  0  0  0  0
 13  5  2  0  0  0  0
 13  8  1  0  0  0  0
 15 16  2  0  0  0  0
 16 28  1  0  0  0  0
 17 10  1  0  0  0  0
 18 11  2  0  0  0  0
 18 17  1  0  0  0  0
 19 20  2  0  0  0  0
 19  5  1  0  0  0  0
 21  7  1  0  0  0  0
 22  3  1  0  0  0  0
 22  2  2  0  0  0  0
 23  7  1  0  0  0  0
 23  3  2  0  0  0  0
 25 24  1  0  0  0  0
 26 27  1  0  0  0  0
 27 17  1  0  0  0  0
 29 32  1  1  0  0  0
 30 28  1  1  0  0  0
 30 31  1  0  0  0  0
 30 29  1  0  0  0  0
 31 29  1  0  0  0  0
 31 32  1  1  0  0  0
M  END
>  <MODEL>
4

>  <REMARK>
 VINA RESULT:      -8.8      1.656      2.478
  Name = 
  4 active torsions:
  status: ('A' for Active; 'I' for Inactive)
    1  A    between atoms: C_10  and  C_19
    2  A    between atoms: O_13  and  C_15
    3  A    between atoms: C_19  and  C_24
    4  A    between atoms: C_25  and  N_26
                            x       y       z     vdW  Elec       q    Type
                         _______ _______ _______ _____ _____    ______ ____

>  <TORSDO>
F 4

$$$$
=
 OpenBabel10262421273D

 32 38  0  0  1  0  0  0  0  0999 V2000
  184.6140  178.8790  145.3270 C   0  0  0  0  0  3  0  0  0  0  0  0
  182.3760  178.2570  140.7830 C   0  0  0  0  0  0  0  0  0  0  0  0
  183.1280  177.9220  138.4950 C   0  0  0  0  0  0  0  0  0  0  0  0
  184.4520  177.8090  138.9760 C   0  0  0  0  0  0  0  0  0  0  0  0
  184.0410  178.4030  142.6250 C   0  0  0  0  0  0  0  0  0  0  0  0
  181.7450  179.3960  142.9000 C   0  0  0  0  0  2  0  0  0  0  0  0
  183.9520  177.5760  136.2320 C   0  0  0  0  0  0  0  0  0  0  0  0
  183.3560  179.2060  144.8130 C   0  0  0  0  0  3  0  0  0  0  0  0
  181.3610  178.5490  141.7660 N   0  0  0  0  0  0  0  0  0  0  0  0
  180.2160  177.6470  141.9730 C   0  0  2  0  0  3  0  0  0  0  0  0
  180.6950  178.2860  138.9060 C   0  0  0  0  0  3  0  0  0  0  0  0
  185.2560  177.4650  136.7180 C   0  0  0  0  0  3  0  0  0  0  0  0
  183.0630  178.9580  143.4700 C   0  0  0  0  0  0  0  0  0  0  0  0
  185.5060  177.5800  138.0870 C   0  0  0  0  0  3  0  0  0  0  0  0
  185.3020  178.0810  143.1450 C   0  0  0  0  0  3  0  0  0  0  0  0
  185.5860  178.3130  144.4960 C   0  0  0  0  0  0  0  0  0  0  0  0
  179.6930  177.0630  140.7380 N   0  0  0  0  0  0  0  0  0  0  0  0
  179.6170  177.7980  139.5120 C   0  0  0  0  0  3  0  0  0  0  0  0
  183.7190  178.1780  141.2020 C   0  0  0  0  0  0  0  0  0  0  0  0
  184.7080  177.9410  140.3010 N   0  0  0  0  0  0  0  0  0  0  0  0
  183.7070  177.4640  134.8700 O   0  0  0  0  0  1  0  0  0  0  0  0
  182.0750  178.1330  139.4100 C   0  0  0  0  0  0  0  0  0  0  0  0
  182.8930  177.8030  137.1140 C   0  0  0  0  0  3  0  0  0  0  0  0
  179.4110  177.9770  143.9850 O   0  0  0  0  0  1  0  0  0  0  0  0
  179.1870  178.2620  142.7150 O   0  0  0  0  0  0  0  0  0  0  0  0
  179.2870  175.1480  142.0140 O   0  0  0  0  0  1  0  0  0  0  0  0
  178.9310  175.8290  140.8480 C   0  0  0  0  0  2  0  0  0  0  0  0
  186.9290  177.9810  145.0490 C   0  0  0  0  0  2  0  0  0  0  0  0
  187.5220  178.1780  147.4640 C   0  0  1  0  0  3  0  0  0  0  0  0
  186.8020  177.3380  146.4240 C   0  0  2  0  0  3  0  0  0  0  0  0
  188.1570  176.9030  146.9560 C   0  0  1  0  0  3  0  0  0  0  0  0
  189.0200  178.1200  147.2280 C   0  0  0  0  0  2  0  0  0  0  0  0
  2 19  1  0  0  0  0
  2  9  1  0  0  0  0
  3  4  1  0  0  0  0
  3 22  1  0  0  0  0
  4 20  1  0  0  0  0
  5 15  2  0  0  0  0
  5 13  1  0  0  0  0
  6 13  1  0  0  0  0
  7 12  2  0  0  0  0
  7 23  1  0  0  0  0
  8  1  1  0  0  0  0
  9 10  1  0  0  0  0
  9  6  1  0  0  0  0
 10 25  1  6  0  0  0
 11 22  1  0  0  0  0
 11 18  2  0  0  0  0
 12 14  1  0  0  0  0
 13  8  2  0  0  0  0
 14  4  2  0  0  0  0
 15 16  1  0  0  0  0
 16 28  1  0  0  0  0
 16  1  2  0  0  0  0
 17 27  1  0  0  0  0
 17 10  1  0  0  0  0
 18 17  1  0  0  0  0
 19  5  1  0  0  0  0
 20 19  2  0  0  0  0
 21  7  1  0  0  0  0
 22  2  2  0  0  0  0
 23  3  2  0  0  0  0
 25 24  1  0  0  0  0
 27 26  1  0  0  0  0
 29 32  1  6  0  0  0
 30 28  1  6  0  0  0
 30 31  1  0  0  0  0
 30 29  1  0  0  0  0
 31 32  1  6  0  0  0
 31 29  1  0  0  0  0
M  END
>  <MODEL>
5

>  <REMARK>
 VINA RESULT:      -8.1      2.536      3.640
  Name = 
  4 active torsions:
  status: ('A' for Active; 'I' for Inactive)
    1  A    between atoms: C_10  and  C_19
    2  A    between atoms: O_13  and  C_15
    3  A    between atoms: C_19  and  C_24
    4  A    between atoms: C_25  and  N_26
                            x       y       z     vdW  Elec       q    Type
                         _______ _______ _______ _____ _____    ______ ____

>  <TORSDO>
F 4

$$$$
=
 OpenBabel10262421273D

 32 38  0  0  1  0  0  0  0  0999 V2000
  184.3790  179.1410  141.8230 C   0  0  0  0  0  3  0  0  0  0  0  0
  187.9110  177.4460  138.5520 C   0  0  0  0  0  0  0  0  0  0  0  0
  190.3200  177.1190  138.5940 C   0  0  0  0  0  0  0  0  0  0  0  0
  190.3120  177.4450  139.9690 C   0  0  0  0  0  0  0  0  0  0  0  0
  186.7350  178.2530  140.5890 C   0  0  0  0  0  0  0  0  0  0  0  0
  185.7000  178.5560  138.3150 C   0  0  0  0  0  2  0  0  0  0  0  0
  192.7300  176.8060  138.7120 C   0  0  0  0  0  0  0  0  0  0  0  0
  184.4400  179.0340  140.4300 C   0  0  0  0  0  3  0  0  0  0  0  0
  186.6430  177.5250  137.8680 N   0  0  0  0  0  0  0  0  0  0  0  0
  186.0670  176.3540  137.1870 C   0  0  2  0  0  3  0  0  0  0  0  0
  189.1140  176.7970  136.4350 C   0  0  0  0  0  3  0  0  0  0  0  0
  192.7110  177.1280  140.0710 C   0  0  0  0  0  3  0  0  0  0  0  0
  185.6070  178.5800  139.8130 C   0  0  0  0  0  0  0  0  0  0  0  0
  191.5040  177.4470  140.6980 C   0  0  0  0  0  3  0  0  0  0  0  0
  186.6700  178.3670  141.9840 C   0  0  0  0  0  3  0  0  0  0  0  0
  185.4920  178.8040  142.6010 C   0  0  0  0  0  0  0  0  0  0  0  0
  187.0580  175.5230  136.5020 N   0  0  0  0  0  0  0  0  0  0  0  0
  188.1840  176.0790  135.8140 C   0  0  0  0  0  3  0  0  0  0  0  0
  187.9670  177.8040  139.9130 C   0  0  0  0  0  0  0  0  0  0  0  0
  189.1500  177.7780  140.5830 N   0  0  0  0  0  0  0  0  0  0  0  0
  193.9310  176.4920  138.0900 O   0  0  0  0  0  1  0  0  0  0  0  0
  189.1040  177.1040  137.8790 C   0  0  0  0  0  0  0  0  0  0  0  0
  191.5420  176.8010  137.9770 C   0  0  0  0  0  3  0  0  0  0  0  0
  183.9330  176.1020  136.7520 O   0  0  0  0  0  1  0  0  0  0  0  0
  185.0190  176.7130  136.3140 O   0  0  0  0  0  0  0  0  0  0  0  0
  186.1030  173.5710  137.3610 O   0  0  0  0  0  1  0  0  0  0  0  0
  186.7040  174.1380  136.2350 C   0  0  0  0  0  2  0  0  0  0  0  0
  185.4230  178.9350  144.0840 C   0  0  0  0  0  2  0  0  0  0  0  0
  185.6740  177.6420  146.2030 C   0  0  1  0  0  3  0  0  0  0  0  0
  186.1340  177.7700  144.7610 C   0  0  2  0  0  3  0  0  0  0  0  0
  187.0230  178.2520  145.8940 C   0  0  1  0  0  3  0  0  0  0  0  0
  186.1720  178.8270  147.0100 C   0  0  0  0  0  2  0  0  0  0  0  0
  1 16  1  0  0  0  0
  2 19  1  0  0  0  0
  3  4  1  0  0  0  0
  4 20  1  0  0  0  0
  4 14  2  0  0  0  0
  5 15  1  0  0  0  0
  6 13  1  0  0  0  0
  7 12  2  0  0  0  0
  8  1  2  0  0  0  0
  9  6  1  0  0  0  0
  9  2  1  0  0  0  0
 10 25  1  6  0  0  0
 10  9  1  0  0  0  0
 11 22  1  0  0  0  0
 12 14  1  0  0  0  0
 13  8  1  0  0  0  0
 13  5  2  0  0  0  0
 15 16  2  0  0  0  0
 16 28  1  0  0  0  0
 17 10  1  0  0  0  0
 18 11  2  0  0  0  0
 18 17  1  0  0  0  0
 19 20  2  0  0  0  0
 19  5  1  0  0  0  0
 21  7  1  0  0  0  0
 22  2  2  0  0  0  0
 22  3  1  0  0  0  0
 23  3  2  0  0  0  0
 23  7  1  0  0  0  0
 25 24  1  0  0  0  0
 27 17  1  0  0  0  0
 27 26  1  0  0  0  0
 29 32  1  6  0  0  0
 30 28  1  6  0  0  0
 30 31  1  0  0  0  0
 30 29  1  0  0  0  0
 31 29  1  0  0  0  0
 31 32  1  6  0  0  0
M  END
>  <MODEL>
6

>  <REMARK>
 VINA RESULT:      -8.1      2.748      4.625
  Name = 
  4 active torsions:
  status: ('A' for Active; 'I' for Inactive)
    1  A    between atoms: C_10  and  C_19
    2  A    between atoms: O_13  and  C_15
    3  A    between atoms: C_19  and  C_24
    4  A    between atoms: C_25  and  N_26
                            x       y       z     vdW  Elec       q    Type
                         _______ _______ _______ _____ _____    ______ ____

>  <TORSDO>
F 4

$$$$
=
 OpenBabel10262421273D

 32 38  0  0  1  0  0  0  0  0999 V2000
  183.8400  179.1020  141.3730 C   0  0  0  0  0  3  0  0  0  0  0  0
  188.7000  178.0110  142.4840 C   0  0  0  0  0  0  0  0  0  0  0  0
  189.9470  177.4270  144.4880 C   0  0  0  0  0  0  0  0  0  0  0  0
  188.7260  177.3570  145.1940 C   0  0  0  0  0  0  0  0  0  0  0  0
  186.2390  178.3430  142.6090 C   0  0  0  0  0  0  0  0  0  0  0  0
  187.5700  179.3750  140.7400 C   0  0  0  0  0  2  0  0  0  0  0  0
  191.1290  176.8350  146.5310 C   0  0  0  0  0  0  0  0  0  0  0  0
  185.0620  179.3810  140.7550 C   0  0  0  0  0  3  0  0  0  0  0  0
  188.6180  178.4140  141.1000 N   0  0  0  0  0  0  0  0  0  0  0  0
  189.1180  177.5480  140.0210 C   0  0  2  0  0  3  0  0  0  0  0  0
  191.2130  177.8500  142.3810 C   0  0  0  0  0  3  0  0  0  0  0  0
  189.9150  176.7670  147.2190 C   0  0  0  0  0  3  0  0  0  0  0  0
  186.2590  178.9920  141.3610 C   0  0  0  0  0  0  0  0  0  0  0  0
  188.7170  177.0270  146.5520 C   0  0  0  0  0  3  0  0  0  0  0  0
  185.0110  178.0700  143.2280 C   0  0  0  0  0  3  0  0  0  0  0  0
  183.8130  178.4440  142.6070 C   0  0  0  0  0  0  0  0  0  0  0  0
  190.3530  176.8380  140.3580 N   0  0  0  0  0  0  0  0  0  0  0  0
  191.3980  177.4380  141.1310 C   0  0  0  0  0  3  0  0  0  0  0  0
  187.5160  177.9690  143.2460 C   0  0  0  0  0  0  0  0  0  0  0  0
  187.5580  177.6300  144.5620 N   0  0  0  0  0  0  0  0  0  0  0  0
  192.3200  176.5790  147.1960 O   0  0  0  0  0  1  0  0  0  0  0  0
  189.9350  177.7430  143.1130 C   0  0  0  0  0  0  0  0  0  0  0  0
  191.1460  177.1630  145.1730 C   0  0  0  0  0  3  0  0  0  0  0  0
  188.4260  177.6800  137.9450 O   0  0  0  0  0  1  0  0  0  0  0  0
  189.2550  178.2460  138.8030 O   0  0  0  0  0  0  0  0  0  0  0  0
  191.6340  175.8920  138.6470 O   0  0  0  0  0  1  0  0  0  0  0  0
  190.6580  175.6280  139.6100 C   0  0  0  0  0  2  0  0  0  0  0  0
  182.5060  178.1640  143.2670 C   0  0  0  0  0  2  0  0  0  0  0  0
  180.4410  179.5580  143.3990 C   0  0  1  0  0  3  0  0  0  0  0  0
  181.3600  178.7800  142.4740 C   0  0  2  0  0  3  0  0  0  0  0  0
  180.0230  178.1950  142.8960 C   0  0  1  0  0  3  0  0  0  0  0  0
  179.7080  178.6030  144.3220 C   0  0  0  0  0  2  0  0  0  0  0  0
  1 16  1  0  0  0  0
  2 22  2  0  0  0  0
  2 19  1  0  0  0  0
  3 23  2  0  0  0  0
  3  4  1  0  0  0  0
  4 14  2  0  0  0  0
  5 15  1  0  0  0  0
  5 19  1  0  0  0  0
  6  9  1  0  0  0  0
  6 13  1  0  0  0  0
  7 21  1  0  0  0  0
  7 12  2  0  0  0  0
  8 13  1  0  0  0  0
  8  1  2  0  0  0  0
  9  2  1  0  0  0  0
 10 25  1  6  0  0  0
 10 17  1  0  0  0  0
 10  9  1  0  0  0  0
 11 22  1  0  0  0  0
 13  5  2  0  0  0  0
 14 12  1  0  0  0  0
 16 15  2  0  0  0  0
 16 28  1  0  0  0  0
 17 18  1  0  0  0  0
 18 11  2  0  0  0  0
 19 20  2  0  0  0  0
 20  4  1  0  0  0  0
 22  3  1  0  0  0  0
 23  7  1  0  0  0  0
 24 25  1  0  0  0  0
 26 27  1  0  0  0  0
 27 17  1  0  0  0  0
 29 32  1  1  0  0  0
 30 31  1  0  0  0  0
 30 28  1  1  0  0  0
 30 29  1  0  0  0  0
 31 29  1  0  0  0  0
 31 32  1  1  0  0  0
M  END
>  <MODEL>
7

>  <REMARK>
 VINA RESULT:      -7.8      3.015      6.987
  Name = 
  4 active torsions:
  status: ('A' for Active; 'I' for Inactive)
    1  A    between atoms: C_10  and  C_19
    2  A    between atoms: O_13  and  C_15
    3  A    between atoms: C_19  and  C_24
    4  A    between atoms: C_25  and  N_26
                            x       y       z     vdW  Elec       q    Type
                         _______ _______ _______ _____ _____    ______ ____

>  <TORSDO>
F 4

$$$$
=
 OpenBabel10262421273D

 32 38  0  0  1  0  0  0  0  0999 V2000
  191.6570  177.2500  141.1930 C   0  0  0  0  0  3  0  0  0  0  0  0
  187.7830  178.1700  144.3850 C   0  0  0  0  0  0  0  0  0  0  0  0
  185.3880  178.5280  144.1710 C   0  0  0  0  0  0  0  0  0  0  0  0
  185.4920  178.2120  142.7980 C   0  0  0  0  0  0  0  0  0  0  0  0
  189.1450  177.6630  142.3680 C   0  0  0  0  0  0  0  0  0  0  0  0
  190.2270  178.6230  144.4270 C   0  0  0  0  0  2  0  0  0  0  0  0
  182.9950  178.8660  143.8830 C   0  0  0  0  0  0  0  0  0  0  0  0
  191.5690  177.7760  142.4850 C   0  0  0  0  0  3  0  0  0  0  0  0
  189.0170  178.1880  145.1330 N   0  0  0  0  0  0  0  0  0  0  0  0
  189.2140  177.3180  146.3050 C   0  0  2  0  0  3  0  0  0  0  0  0
  186.4430  178.8550  146.4070 C   0  0  0  0  0  3  0  0  0  0  0  0
  183.1090  178.5500  142.5270 C   0  0  0  0  0  3  0  0  0  0  0  0
  190.3200  177.9710  143.0780 C   0  0  0  0  0  0  0  0  0  0  0  0
  184.3540  178.2240  141.9860 C   0  0  0  0  0  3  0  0  0  0  0  0
  189.2390  177.1390  141.0710 C   0  0  0  0  0  3  0  0  0  0  0  0
  190.4930  176.9270  140.4870 C   0  0  0  0  0  0  0  0  0  0  0  0
  188.0190  177.1710  147.1370 N   0  0  0  0  0  0  0  0  0  0  0  0
  187.1140  178.2530  147.3830 C   0  0  0  0  0  3  0  0  0  0  0  0
  187.8350  177.9050  143.0030 C   0  0  0  0  0  0  0  0  0  0  0  0
  186.6990  177.9160  142.2570 N   0  0  0  0  0  0  0  0  0  0  0  0
  181.7570  179.1930  144.4180 O   0  0  0  0  0  1  0  0  0  0  0  0
  186.5440  178.4920  144.9790 C   0  0  0  0  0  0  0  0  0  0  0  0
  184.1280  178.8550  144.7010 C   0  0  0  0  0  3  0  0  0  0  0  0
  191.1850  176.7190  147.0520 O   0  0  0  0  0  1  0  0  0  0  0  0
  190.3220  177.7180  147.0800 O   0  0  0  0  0  0  0  0  0  0  0  0
  187.5560  176.3730  149.2840 O   0  0  0  0  0  1  0  0  0  0  0  0
  187.9390  175.9990  147.9950 C   0  0  0  0  0  2  0  0  0  0  0  0
  190.5950  176.3800  139.1040 C   0  0  0  0  0  2  0  0  0  0  0  0
  188.6750  176.6700  137.5380 C   0  0  1  0  0  3  0  0  0  0  0  0
  189.9280  177.3150  138.1030 C   0  0  2  0  0  3  0  0  0  0  0  0
  189.9360  176.7210  136.7050 C   0  0  1  0  0  3  0  0  0  0  0  0
  189.0520  175.4900  136.6630 C   0  0  0  0  0  2  0  0  0  0  0  0
  1  8  1  0  0  0  0
  2 22  1  0  0  0  0
  2  9  1  0  0  0  0
  3 23  1  0  0  0  0
  3 22  2  0  0  0  0
  4  3  1  0  0  0  0
  5 19  1  0  0  0  0
  5 13  1  0  0  0  0
  6  9  1  0  0  0  0
  7 21  1  0  0  0  0
  7 23  2  0  0  0  0
  8 13  2  0  0  0  0
  9 10  1  0  0  0  0
 10 25  1  1  0  0  0
 10 17  1  0  0  0  0
 11 18  2  0  0  0  0
 12  7  1  0  0  0  0
 13  6  1  0  0  0  0
 14 12  2  0  0  0  0
 14  4  1  0  0  0  0
 15  5  2  0  0  0  0
 16 15  1  0  0  0  0
 16  1  2  0  0  0  0
 17 18  1  0  0  0  0
 17 27  1  0  0  0  0
 19  2  2  0  0  0  0
 20  4  2  0  0  0  0
 20 19  1  0  0  0  0
 22 11  1  0  0  0  0
 24 25  1  0  0  0  0
 27 26  1  0  0  0  0
 28 16  1  0  0  0  0
 29 32  1  1  0  0  0
 29 30  1  0  0  0  0
 30 28  1  1  0  0  0
 31 32  1  1  0  0  0
 31 29  1  0  0  0  0
 31 30  1  0  0  0  0
M  END
>  <MODEL>
8

>  <REMARK>
 VINA RESULT:      -7.7      3.509      7.626
  Name = 
  4 active torsions:
  status: ('A' for Active; 'I' for Inactive)
    1  A    between atoms: C_10  and  C_19
    2  A    between atoms: O_13  and  C_15
    3  A    between atoms: C_19  and  C_24
    4  A    between atoms: C_25  and  N_26
                            x       y       z     vdW  Elec       q    Type
                         _______ _______ _______ _____ _____    ______ ____

>  <TORSDO>
F 4

$$$$
=
 OpenBabel10262421273D

 32 38  0  0  1  0  0  0  0  0999 V2000
  187.9100  177.8670  142.6960 C   0  0  0  0  0  3  0  0  0  0  0  0
  189.4670  176.9410  137.9250 C   0  0  0  0  0  0  0  0  0  0  0  0
  191.5460  176.2610  136.8650 C   0  0  0  0  0  0  0  0  0  0  0  0
  192.1060  176.0710  138.1490 C   0  0  0  0  0  0  0  0  0  0  0  0
  189.3440  177.1340  140.4010 C   0  0  0  0  0  0  0  0  0  0  0  0
  187.7170  178.3830  138.9440 C   0  0  0  0  0  2  0  0  0  0  0  0
  193.6570  175.5660  135.8740 C   0  0  0  0  0  0  0  0  0  0  0  0
  187.4540  178.2570  141.4340 C   0  0  0  0  0  3  0  0  0  0  0  0
  188.1170  177.4510  137.8840 N   0  0  0  0  0  0  0  0  0  0  0  0
  187.0370  176.7020  137.2210 C   0  0  2  0  0  3  0  0  0  0  0  0
  189.6310  176.9190  135.4110 C   0  0  0  0  0  3  0  0  0  0  0  0
  194.2000  175.3800  137.1480 C   0  0  0  0  0  3  0  0  0  0  0  0
  188.1580  177.8830  140.2880 C   0  0  0  0  0  0  0  0  0  0  0  0
  193.4260  175.6310  138.2820 C   0  0  0  0  0  3  0  0  0  0  0  0
  189.8000  176.7490  141.6700 C   0  0  0  0  0  3  0  0  0  0  0  0
  189.0800  177.1090  142.8150 C   0  0  0  0  0  0  0  0  0  0  0  0
  187.4540  176.0320  135.9880 N   0  0  0  0  0  0  0  0  0  0  0  0
  188.3810  176.6200  135.0690 C   0  0  0  0  0  3  0  0  0  0  0  0
  190.0880  176.7750  139.1790 C   0  0  0  0  0  0  0  0  0  0  0  0
  191.3710  176.3330  139.2570 N   0  0  0  0  0  0  0  0  0  0  0  0
  194.4300  175.3180  134.7480 O   0  0  0  0  0  1  0  0  0  0  0  0
  190.2060  176.6870  136.7510 C   0  0  0  0  0  0  0  0  0  0  0  0
  192.3380  176.0040  135.7330 C   0  0  0  0  0  3  0  0  0  0  0  0
  184.9110  176.9620  137.6880 O   0  0  0  0  0  1  0  0  0  0  0  0
  185.8980  177.5040  136.9980 O   0  0  0  0  0  0  0  0  0  0  0  0
  186.2380  174.1410  136.6260 O   0  0  0  0  0  1  0  0  0  0  0  0
  186.6560  174.9050  135.5340 C   0  0  0  0  0  2  0  0  0  0  0  0
  189.5680  176.7090  144.1660 C   0  0  0  0  0  2  0  0  0  0  0  0
  190.2930  177.5170  146.4120 C   0  0  1  0  0  3  0  0  0  0  0  0
  189.7460  177.9310  145.0580 C   0  0  2  0  0  3  0  0  0  0  0  0
  188.8290  177.8670  146.2680 C   0  0  1  0  0  3  0  0  0  0  0  0
  189.2460  176.7230  147.1710 C   0  0  0  0  0  2  0  0  0  0  0  0
  1 16  1  0  0  0  0
  2 19  1  0  0  0  0
  3  4  1  0  0  0  0
  4 14  2  0  0  0  0
  4 20  1  0  0  0  0
  5 15  1  0  0  0  0
  6 13  1  0  0  0  0
  7 12  2  0  0  0  0
  8  1  2  0  0  0  0
  9  2  1  0  0  0  0
  9  6  1  0  0  0  0
 10 25  1  6  0  0  0
 10  9  1  0  0  0  0
 11 22  1  0  0  0  0
 12 14  1  0  0  0  0
 13  5  2  0  0  0  0
 13  8  1  0  0  0  0
 15 16  2  0  0  0  0
 16 28  1  0  0  0  0
 17 10  1  0  0  0  0
 18 11  2  0  0  0  0
 18 17  1  0  0  0  0
 19 20  2  0  0  0  0
 19  5  1  0  0  0  0
 21  7  1  0  0  0  0
 22  3  1  0  0  0  0
 22  2  2  0  0  0  0
 23  7  1  0  0  0  0
 23  3  2  0  0  0  0
 25 24  1  0  0  0  0
 27 17  1  0  0  0  0
 27 26  1  0  0  0  0
 29 32  1  6  0  0  0
 30 28  1  6  0  0  0
 30 31  1  0  0  0  0
 30 29  1  0  0  0  0
 31 29  1  0  0  0  0
 31 32  1  6  0  0  0
M  END
>  <MODEL>
9

>  <REMARK>
 VINA RESULT:      -7.7      3.245      5.156
  Name = 
  4 active torsions:
  status: ('A' for Active; 'I' for Inactive)
    1  A    between atoms: C_10  and  C_19
    2  A    between atoms: O_13  and  C_15
    3  A    between atoms: C_19  and  C_24
    4  A    between atoms: C_25  and  N_26
                            x       y       z     vdW  Elec       q    Type
                         _______ _______ _______ _____ _____    ______ ____

>  <TORSDO>
F 4

$$$$
