=
 OpenBabel10262421023D

 32 35  0  0  1  0  0  0  0  0999 V2000
  181.6740  179.3440  138.7650 O   0  0  0  0  0  0  0  0  0  0  0  0
  182.3390  178.6350  139.7830 C   0  0  1  0  0  3  0  0  0  0  0  0
  179.4140  177.7520  139.3600 O   0  0  0  0  0  0  0  0  0  0  0  0
  183.0390  174.6530  137.7920 C   0  0  0  0  0  3  0  0  0  0  0  0
  181.6680  177.3030  140.1800 C   0  0  1  0  0  3  0  0  0  0  0  0
  180.7000  175.0030  137.2850 C   0  0  0  0  0  3  0  0  0  0  0  0
  180.6200  175.9570  138.3020 C   0  0  0  0  0  0  0  0  0  0  0  0
  180.1700  177.5110  140.5240 C   0  0  1  0  0  3  0  0  0  0  0  0
  181.3810  180.5610  139.3000 N   0  0  0  0  0  0  0  0  0  0  0  0
  179.2820  176.5210  138.6910 C   0  0  0  0  0  2  0  0  0  0  0  0
  180.0950  180.4800  139.9890 C   0  0  0  0  0  2  0  0  0  0  0  0
  181.1970  181.4710  138.1830 C   0  0  0  0  0  1  0  0  0  0  0  0
  179.8380  178.5280  141.6280 C   0  0  0  0  0  2  0  0  0  0  0  0
  181.7580  176.2690  139.0750 C   0  0  0  0  0  0  0  0  0  0  0  0
  180.3150  179.9690  141.4090 C   0  0  0  0  0  2  0  0  0  0  0  0
  181.9110  174.3610  137.0210 C   0  0  0  0  0  3  0  0  0  0  0  0
  182.9590  175.5970  138.8200 C   0  0  0  0  0  3  0  0  0  0  0  0
  184.2430  180.1160  139.4720 O   0  0  0  0  0  1  0  0  0  0  0  0
  183.8720  178.8470  139.9220 C   0  0  1  0  0  0  0  0  0  0  0  0
  186.0630  178.6080  143.0730 C   0  0  0  0  0  3  0  0  0  0  0  0
  183.7480  178.5660  143.7500 C   0  0  0  0  0  3  0  0  0  0  0  0
  184.3110  178.7040  141.3790 C   0  0  0  0  0  0  0  0  0  0  0  0
  185.1050  178.5390  144.0920 C   0  0  0  0  0  0  0  0  0  0  0  0
  183.3580  178.6520  142.4130 C   0  0  0  0  0  3  0  0  0  0  0  0
  185.6800  178.6950  141.7320 C   0  0  0  0  0  0  0  0  0  0  0  0
  186.6700  178.7840  140.7630 O   0  0  0  0  0  1  0  0  0  0  0  0
  186.8060  177.7960  145.8910 C   0  0  0  0  0  1  0  0  0  0  0  0
  184.7710  178.9360  146.4420 N   0  0  0  0  0  2  0  0  0  0  0  0
  185.5200  178.4480  145.5090 C   0  0  0  0  0  0  0  0  0  0  0  0
  184.5810  177.8040  139.0370 C   0  0  0  0  0  2  0  0  0  0  0  0
  185.1700  178.3780  137.7500 C   0  0  0  0  0  2  0  0  0  0  0  0
  185.9600  177.3200  137.0070 C   0  0  0  0  0  1  0  0  0  0  0  0
  1  9  1  0  0  0  0
  1  2  1  0  0  0  0
  2 19  1  6  0  0  0
  2  5  1  0  0  0  0
  3  8  1  0  0  0  0
  4 17  1  0  0  0  0
  5 14  1  6  0  0  0
  5  8  1  0  0  0  0
  6  7  2  0  0  0  0
  7 10  1  0  0  0  0
  7 14  1  0  0  0  0
  8 13  1  1  0  0  0
  9 11  1  0  0  0  0
 10  3  1  0  0  0  0
 11 15  1  0  0  0  0
 12  9  1  0  0  0  0
 15 13  1  0  0  0  0
 16  6  1  0  0  0  0
 16  4  2  0  0  0  0
 17 14  2  0  0  0  0
 19 18  1  6  0  0  0
 19 22  1  0  0  0  0
 20 23  1  0  0  0  0
 21 23  2  0  0  0  0
 22 25  1  0  0  0  0
 22 24  2  0  0  0  0
 23 29  1  0  0  0  0
 24 21  1  0  0  0  0
 25 20  2  0  0  0  0
 26 25  1  0  0  0  0
 29 27  1  0  0  0  0
 29 28  2  0  0  0  0
 30 19  1  0  0  0  0
 31 30  1  0  0  0  0
 32 31  1  0  0  0  0
M  END
>  <MODEL>
1

>  <REMARK>
 VINA RESULT:      -7.5      0.000      0.000
  Name = 
  5 active torsions:
  status: ('A' for Active; 'I' for Inactive)
    1  A    between atoms: C_1  and  C_4
    2  A    between atoms: C_1  and  C_27
    3  A    between atoms: C_5  and  C_27
    4  A    between atoms: C_16  and  C_27
    5  A    between atoms: C_19  and  C_26
                            x       y       z     vdW  Elec       q    Type
                         _______ _______ _______ _____ _____    ______ ____

>  <TORSDO>
F 5

$$$$
=
 OpenBabel10262421023D

 32 35  0  0  1  0  0  0  0  0999 V2000
  180.9960  177.9290  137.8180 O   0  0  0  0  0  0  0  0  0  0  0  0
  181.6940  177.9340  139.0390 C   0  0  1  0  0  3  0  0  0  0  0  0
  181.8290  175.2400  137.5420 O   0  0  0  0  0  0  0  0  0  0  0  0
  185.9720  178.0750  137.6280 C   0  0  0  0  0  3  0  0  0  0  0  0
  182.7270  176.7970  139.1920 C   0  0  1  0  0  3  0  0  0  0  0  0
  185.0990  176.3000  136.2360 C   0  0  0  0  0  3  0  0  0  0  0  0
  184.0160  176.1480  137.1050 C   0  0  0  0  0  0  0  0  0  0  0  0
  182.0840  175.4140  138.9160 C   0  0  1  0  0  3  0  0  0  0  0  0
  179.6790  177.8430  138.1500 N   0  0  0  0  0  0  0  0  0  0  0  0
  183.0680  174.9970  136.9200 C   0  0  0  0  0  2  0  0  0  0  0  0
  179.3150  176.4340  138.2850 C   0  0  0  0  0  2  0  0  0  0  0  0
  178.9310  178.3580  137.0180 C   0  0  0  0  0  1  0  0  0  0  0  0
  180.8610  175.0270  139.7650 C   0  0  0  0  0  2  0  0  0  0  0  0
  183.9020  176.9660  138.2490 C   0  0  0  0  0  0  0  0  0  0  0  0
  179.6460  175.9600  139.6970 C   0  0  0  0  0  2  0  0  0  0  0  0
  186.0690  177.2720  136.4890 C   0  0  0  0  0  3  0  0  0  0  0  0
  184.8970  177.9160  138.5070 C   0  0  0  0  0  3  0  0  0  0  0  0
  180.6370  179.8760  140.0520 O   0  0  0  0  0  1  0  0  0  0  0  0
  181.8740  179.3000  139.7580 C   0  0  1  0  0  0  0  0  0  0  0  0
  182.7240  178.5900  143.4400 C   0  0  0  0  0  3  0  0  0  0  0  0
  184.7780  179.0440  142.2590 C   0  0  0  0  0  3  0  0  0  0  0  0
  182.6510  179.1300  141.0630 C   0  0  0  0  0  0  0  0  0  0  0  0
  184.1190  178.7200  143.4500 C   0  0  0  0  0  0  0  0  0  0  0  0
  184.0540  179.2410  141.0820 C   0  0  0  0  0  3  0  0  0  0  0  0
  181.9930  178.7850  142.2650 C   0  0  0  0  0  0  0  0  0  0  0  0
  180.6140  178.6210  142.3060 O   0  0  0  0  0  1  0  0  0  0  0  0
  186.2030  177.8170  144.6820 C   0  0  0  0  0  1  0  0  0  0  0  0
  184.4170  178.9300  145.8290 N   0  0  0  0  0  2  0  0  0  0  0  0
  184.8830  178.5110  144.6980 C   0  0  0  0  0  0  0  0  0  0  0  0
  182.6240  180.2480  138.8010 C   0  0  0  0  0  2  0  0  0  0  0  0
  181.8660  181.5350  138.4820 C   0  0  0  0  0  2  0  0  0  0  0  0
  181.0860  181.3870  137.1920 C   0  0  0  0  0  1  0  0  0  0  0  0
  1  9  1  0  0  0  0
  1  2  1  0  0  0  0
  2  5  1  0  0  0  0
  2 19  1  6  0  0  0
  3  8  1  0  0  0  0
  4 17  1  0  0  0  0
  5 14  1  6  0  0  0
  6 16  1  0  0  0  0
  6  7  2  0  0  0  0
  7 14  1  0  0  0  0
  8  5  1  0  0  0  0
  8 13  1  1  0  0  0
  9 11  1  0  0  0  0
 10  7  1  0  0  0  0
 10  3  1  0  0  0  0
 11 15  1  0  0  0  0
 12  9  1  0  0  0  0
 14 17  2  0  0  0  0
 15 13  1  0  0  0  0
 16  4  2  0  0  0  0
 19 18  1  1  0  0  0
 19 22  1  0  0  0  0
 20 23  1  0  0  0  0
 21 23  2  0  0  0  0
 22 24  2  0  0  0  0
 22 25  1  0  0  0  0
 23 29  1  0  0  0  0
 24 21  1  0  0  0  0
 25 26  1  0  0  0  0
 25 20  2  0  0  0  0
 27 29  1  0  0  0  0
 29 28  2  0  0  0  0
 30 19  1  0  0  0  0
 31 30  1  0  0  0  0
 32 31  1  0  0  0  0
M  END
>  <MODEL>
2

>  <REMARK>
 VINA RESULT:      -6.7      1.902      3.540
  Name = 
  5 active torsions:
  status: ('A' for Active; 'I' for Inactive)
    1  A    between atoms: C_1  and  C_4
    2  A    between atoms: C_1  and  C_27
    3  A    between atoms: C_5  and  C_27
    4  A    between atoms: C_16  and  C_27
    5  A    between atoms: C_19  and  C_26
                            x       y       z     vdW  Elec       q    Type
                         _______ _______ _______ _____ _____    ______ ____

>  <TORSDO>
F 5

$$$$
=
 OpenBabel10262421023D

 32 35  0  0  1  0  0  0  0  0999 V2000
  180.3250  177.2140  138.7130 O   0  0  0  0  0  0  0  0  0  0  0  0
  181.3050  178.0470  139.2850 C   0  0  1  0  0  3  0  0  0  0  0  0
  181.9540  177.1620  136.4030 O   0  0  0  0  0  0  0  0  0  0  0  0
  180.5550  181.9300  137.1240 C   0  0  0  0  0  3  0  0  0  0  0  0
  182.2590  178.7060  138.2670 C   0  0  1  0  0  3  0  0  0  0  0  0
  180.5880  180.3810  135.2660 C   0  0  0  0  0  3  0  0  0  0  0  0
  181.2390  179.4360  136.0630 C   0  0  0  0  0  0  0  0  0  0  0  0
  182.8960  177.6480  137.3300 C   0  0  1  0  0  3  0  0  0  0  0  0
  180.5080  175.9910  139.2840 N   0  0  0  0  0  0  0  0  0  0  0  0
  181.7640  178.1720  135.4410 C   0  0  0  0  0  2  0  0  0  0  0  0
  181.4960  175.2480  138.5050 C   0  0  0  0  0  2  0  0  0  0  0  0
  179.2510  175.2790  139.1470 C   0  0  0  0  0  1  0  0  0  0  0  0
  183.6720  176.4980  137.9940 C   0  0  0  0  0  2  0  0  0  0  0  0
  181.5520  179.7330  137.4060 C   0  0  0  0  0  0  0  0  0  0  0  0
  182.8970  175.6180  138.9820 C   0  0  0  0  0  2  0  0  0  0  0  0
  180.2340  181.6220  135.7990 C   0  0  0  0  0  3  0  0  0  0  0  0
  181.2180  180.9920  137.9200 C   0  0  0  0  0  3  0  0  0  0  0  0
  179.8800  178.0990  141.2560 O   0  0  0  0  0  1  0  0  0  0  0  0
  180.9680  178.7250  140.6430 C   0  0  1  0  0  0  0  0  0  0  0  0
  183.1150  178.8680  143.8300 C   0  0  0  0  0  3  0  0  0  0  0  0
  184.5030  178.1070  142.0100 C   0  0  0  0  0  3  0  0  0  0  0  0
  182.1620  178.6600  141.5940 C   0  0  0  0  0  0  0  0  0  0  0  0
  184.3630  178.4380  143.3630 C   0  0  0  0  0  0  0  0  0  0  0  0
  183.4170  178.2130  141.1400 C   0  0  0  0  0  3  0  0  0  0  0  0
  182.0220  178.9750  142.9650 C   0  0  0  0  0  0  0  0  0  0  0  0
  180.8010  179.3850  143.4850 O   0  0  0  0  0  1  0  0  0  0  0  0
  185.4260  178.8360  145.6850 C   0  0  0  0  0  1  0  0  0  0  0  0
  186.6170  177.7820  143.8930 N   0  0  0  0  0  2  0  0  0  0  0  0
  185.5130  178.3270  144.2860 C   0  0  0  0  0  0  0  0  0  0  0  0
  180.5770  180.1890  140.3620 C   0  0  0  0  0  2  0  0  0  0  0  0
  179.1530  180.5430  140.7830 C   0  0  0  0  0  2  0  0  0  0  0  0
  178.9310  182.0400  140.7030 C   0  0  0  0  0  1  0  0  0  0  0  0
  1  9  1  0  0  0  0
  1  2  1  0  0  0  0
  2 19  1  6  0  0  0
  3  8  1  0  0  0  0
  4 17  1  0  0  0  0
  5 14  1  6  0  0  0
  5  2  1  0  0  0  0
  6 16  1  0  0  0  0
  6  7  2  0  0  0  0
  7 14  1  0  0  0  0
  8 13  1  1  0  0  0
  8  5  1  0  0  0  0
 10  7  1  0  0  0  0
 10  3  1  0  0  0  0
 11 15  1  0  0  0  0
 11  9  1  0  0  0  0
 12  9  1  0  0  0  0
 13 15  1  0  0  0  0
 14 17  2  0  0  0  0
 16  4  2  0  0  0  0
 19 18  1  1  0  0  0
 19 22  1  0  0  0  0
 21 23  2  0  0  0  0
 22 25  1  0  0  0  0
 23 20  1  0  0  0  0
 23 29  1  0  0  0  0
 24 22  2  0  0  0  0
 24 21  1  0  0  0  0
 25 26  1  0  0  0  0
 25 20  2  0  0  0  0
 28 29  2  0  0  0  0
 29 27  1  0  0  0  0
 30 19  1  0  0  0  0
 30 31  1  0  0  0  0
 32 31  1  0  0  0  0
M  END
>  <MODEL>
3

>  <REMARK>
 VINA RESULT:      -6.5      2.213      4.773
  Name = 
  5 active torsions:
  status: ('A' for Active; 'I' for Inactive)
    1  A    between atoms: C_1  and  C_4
    2  A    between atoms: C_1  and  C_27
    3  A    between atoms: C_5  and  C_27
    4  A    between atoms: C_16  and  C_27
    5  A    between atoms: C_19  and  C_26
                            x       y       z     vdW  Elec       q    Type
                         _______ _______ _______ _____ _____    ______ ____

>  <TORSDO>
F 5

$$$$
=
 OpenBabel10262421023D

 32 35  0  0  1  0  0  0  0  0999 V2000
  182.8300  177.1180  138.1890 O   0  0  0  0  0  0  0  0  0  0  0  0
  181.7560  178.0200  138.3180 C   0  0  1  0  0  3  0  0  0  0  0  0
  181.0380  175.4420  136.7840 O   0  0  0  0  0  0  0  0  0  0  0  0
  179.2320  175.9710  141.4400 C   0  0  0  0  0  3  0  0  0  0  0  0
  180.3640  177.3970  138.0790 C   0  0  1  0  0  3  0  0  0  0  0  0
  179.6660  174.1290  139.9340 C   0  0  0  0  0  3  0  0  0  0  0  0
  180.0190  175.0320  138.9270 C   0  0  0  0  0  0  0  0  0  0  0  0
  180.3110  176.6470  136.7240 C   0  0  1  0  0  3  0  0  0  0  0  0
  183.6320  177.6420  137.2230 N   0  0  0  0  0  0  0  0  0  0  0  0
  180.2660  174.5320  137.5310 C   0  0  0  0  0  2  0  0  0  0  0  0
  183.1710  177.1720  135.9180 C   0  0  0  0  0  2  0  0  0  0  0  0
  184.9520  177.0720  137.4260 C   0  0  0  0  0  1  0  0  0  0  0  0
  180.6660  177.4510  135.4620 C   0  0  0  0  0  2  0  0  0  0  0  0
  179.9830  176.4200  139.1730 C   0  0  0  0  0  0  0  0  0  0  0  0
  182.0600  178.0880  135.4150 C   0  0  0  0  0  2  0  0  0  0  0  0
  179.2860  174.5970  141.1930 C   0  0  0  0  0  3  0  0  0  0  0  0
  179.5710  176.8780  140.4310 C   0  0  0  0  0  3  0  0  0  0  0  0
  180.7520  179.5840  139.8860 O   0  0  0  0  0  1  0  0  0  0  0  0
  181.9520  179.2400  139.2610 C   0  0  1  0  0  0  0  0  0  0  0  0
  185.2620  179.0880  141.2110 C   0  0  0  0  0  3  0  0  0  0  0  0
  183.5400  178.0600  142.5520 C   0  0  0  0  0  3  0  0  0  0  0  0
  182.9900  178.9330  140.3400 C   0  0  0  0  0  0  0  0  0  0  0  0
  184.8760  178.4460  142.3950 C   0  0  0  0  0  0  0  0  0  0  0  0
  182.6100  178.3050  141.5410 C   0  0  0  0  0  3  0  0  0  0  0  0
  184.3360  179.3370  140.1950 C   0  0  0  0  0  0  0  0  0  0  0  0
  184.7660  179.9970  139.0510 O   0  0  0  0  0  1  0  0  0  0  0  0
  185.5250  178.4310  144.8960 C   0  0  0  0  0  1  0  0  0  0  0  0
  187.0420  177.7430  143.1740 N   0  0  0  0  0  2  0  0  0  0  0  0
  185.8640  178.1880  143.4650 C   0  0  0  0  0  0  0  0  0  0  0  0
  182.4010  180.4390  138.4020 C   0  0  0  0  0  2  0  0  0  0  0  0
  181.3170  181.4950  138.1960 C   0  0  0  0  0  2  0  0  0  0  0  0
  180.6480  181.3160  136.8480 C   0  0  0  0  0  1  0  0  0  0  0  0
  1  2  1  0  0  0  0
  2 19  1  1  0  0  0
  3 10  1  0  0  0  0
  5  2  1  0  0  0  0
  5 14  1  1  0  0  0
  6 16  2  0  0  0  0
  7 14  2  0  0  0  0
  7  6  1  0  0  0  0
  8 13  1  6  0  0  0
  8  3  1  0  0  0  0
  8  5  1  0  0  0  0
  9 12  1  0  0  0  0
  9  1  1  0  0  0  0
 10  7  1  0  0  0  0
 11  9  1  0  0  0  0
 14 17  1  0  0  0  0
 15 13  1  0  0  0  0
 15 11  1  0  0  0  0
 16  4  1  0  0  0  0
 17  4  2  0  0  0  0
 19 18  1  1  0  0  0
 19 22  1  0  0  0  0
 20 23  1  0  0  0  0
 22 24  2  0  0  0  0
 23 21  2  0  0  0  0
 23 29  1  0  0  0  0
 24 21  1  0  0  0  0
 25 22  1  0  0  0  0
 25 20  2  0  0  0  0
 26 25  1  0  0  0  0
 28 29  2  0  0  0  0
 29 27  1  0  0  0  0
 30 19  1  0  0  0  0
 31 30  1  0  0  0  0
 32 31  1  0  0  0  0
M  END
>  <MODEL>
4

>  <REMARK>
 VINA RESULT:      -6.5      2.068      3.770
  Name = 
  5 active torsions:
  status: ('A' for Active; 'I' for Inactive)
    1  A    between atoms: C_1  and  C_4
    2  A    between atoms: C_1  and  C_27
    3  A    between atoms: C_5  and  C_27
    4  A    between atoms: C_16  and  C_27
    5  A    between atoms: C_19  and  C_26
                            x       y       z     vdW  Elec       q    Type
                         _______ _______ _______ _____ _____    ______ ____

>  <TORSDO>
F 5

$$$$
=
 OpenBabel10262421023D

 32 35  0  0  1  0  0  0  0  0999 V2000
  187.0660  175.7360  137.6180 O   0  0  0  0  0  0  0  0  0  0  0  0
  187.1280  177.0980  137.2710 C   0  0  1  0  0  3  0  0  0  0  0  0
  184.4350  175.7610  136.5820 O   0  0  0  0  0  0  0  0  0  0  0  0
  184.5340  178.9540  140.4550 C   0  0  0  0  0  3  0  0  0  0  0  0
  185.7550  177.7620  137.0350 C   0  0  1  0  0  3  0  0  0  0  0  0
  183.1190  177.1310  139.7300 C   0  0  0  0  0  3  0  0  0  0  0  0
  183.8610  177.0210  138.5510 C   0  0  0  0  0  0  0  0  0  0  0  0
  184.9120  176.9580  136.0130 C   0  0  1  0  0  3  0  0  0  0  0  0
  187.7970  175.0850  136.6720 N   0  0  0  0  0  0  0  0  0  0  0  0
  183.3880  176.1080  137.4550 C   0  0  0  0  0  2  0  0  0  0  0  0
  186.9290  174.7650  135.5400 C   0  0  0  0  0  2  0  0  0  0  0  0
  188.1980  173.8180  137.2570 C   0  0  0  0  0  1  0  0  0  0  0  0
  185.5350  176.7110  134.6290 C   0  0  0  0  0  2  0  0  0  0  0  0
  184.9540  177.8820  138.3160 C   0  0  0  0  0  0  0  0  0  0  0  0
  186.8720  175.9610  134.5950 C   0  0  0  0  0  2  0  0  0  0  0  0
  183.4630  178.0870  140.6870 C   0  0  0  0  0  3  0  0  0  0  0  0
  185.2690  178.8560  139.2710 C   0  0  0  0  0  3  0  0  0  0  0  0
  188.1400  179.2840  137.6110 O   0  0  0  0  0  1  0  0  0  0  0  0
  188.3510  177.9140  137.7770 C   0  0  1  0  0  0  0  0  0  0  0  0
  189.8870  176.5460  141.0250 C   0  0  0  0  0  3  0  0  0  0  0  0
  188.1550  178.1200  141.6060 C   0  0  0  0  0  3  0  0  0  0  0  0
  188.6130  177.6400  139.2570 C   0  0  0  0  0  0  0  0  0  0  0  0
  189.1520  177.2230  142.0060 C   0  0  0  0  0  0  0  0  0  0  0  0
  187.8930  178.3280  140.2510 C   0  0  0  0  0  3  0  0  0  0  0  0
  189.6320  176.7500  139.6660 C   0  0  0  0  0  0  0  0  0  0  0  0
  190.4060  176.0700  138.7350 O   0  0  0  0  0  1  0  0  0  0  0  0
  188.3550  177.1430  144.4630 C   0  0  0  0  0  1  0  0  0  0  0  0
  190.6190  176.6770  143.8330 N   0  0  0  0  0  2  0  0  0  0  0  0
  189.4310  177.0010  143.4410 C   0  0  0  0  0  0  0  0  0  0  0  0
  189.5740  177.5150  136.9270 C   0  0  0  0  0  2  0  0  0  0  0  0
  189.4390  177.8590  135.4450 C   0  0  0  0  0  2  0  0  0  0  0  0
  190.2860  176.9270  134.6030 C   0  0  0  0  0  1  0  0  0  0  0  0
  2  1  1  0  0  0  0
  2 19  1  1  0  0  0
  3 10  1  0  0  0  0
  4 16  1  0  0  0  0
  5  2  1  0  0  0  0
  5 14  1  1  0  0  0
  6 16  2  0  0  0  0
  7  6  1  0  0  0  0
  8 13  1  6  0  0  0
  8  3  1  0  0  0  0
  8  5  1  0  0  0  0
  9 12  1  0  0  0  0
  9  1  1  0  0  0  0
 10  7  1  0  0  0  0
 11  9  1  0  0  0  0
 14  7  2  0  0  0  0
 14 17  1  0  0  0  0
 15 13  1  0  0  0  0
 15 11  1  0  0  0  0
 17  4  2  0  0  0  0
 19 18  1  6  0  0  0
 19 22  1  0  0  0  0
 20 23  1  0  0  0  0
 21 23  2  0  0  0  0
 22 25  1  0  0  0  0
 22 24  2  0  0  0  0
 23 29  1  0  0  0  0
 24 21  1  0  0  0  0
 25 20  2  0  0  0  0
 26 25  1  0  0  0  0
 29 28  2  0  0  0  0
 29 27  1  0  0  0  0
 30 19  1  0  0  0  0
 31 30  1  0  0  0  0
 32 31  1  0  0  0  0
M  END
>  <MODEL>
5

>  <REMARK>
 VINA RESULT:      -6.4      3.633      6.009
  Name = 
  5 active torsions:
  status: ('A' for Active; 'I' for Inactive)
    1  A    between atoms: C_1  and  C_4
    2  A    between atoms: C_1  and  C_27
    3  A    between atoms: C_5  and  C_27
    4  A    between atoms: C_16  and  C_27
    5  A    between atoms: C_19  and  C_26
                            x       y       z     vdW  Elec       q    Type
                         _______ _______ _______ _____ _____    ______ ____

>  <TORSDO>
F 5

$$$$
=
 OpenBabel10262421023D

 32 35  0  0  1  0  0  0  0  0999 V2000
  189.8010  179.0030  144.2780 O   0  0  0  0  0  0  0  0  0  0  0  0
  189.0620  177.9880  143.6420 C   0  0  1  0  0  3  0  0  0  0  0  0
  189.8470  177.3190  146.5500 O   0  0  0  0  0  0  0  0  0  0  0  0
  185.0390  178.4290  145.6240 C   0  0  0  0  0  3  0  0  0  0  0  0
  188.4190  176.9660  144.6030 C   0  0  1  0  0  3  0  0  0  0  0  0
  186.4940  178.4450  147.5560 C   0  0  0  0  0  3  0  0  0  0  0  0
  187.5180  177.8780  146.7920 C   0  0  0  0  0  0  0  0  0  0  0  0
  189.4690  176.3730  145.5770 C   0  0  1  0  0  3  0  0  0  0  0  0
  191.0590  178.9140  143.7660 N   0  0  0  0  0  0  0  0  0  0  0  0
  188.7810  177.4190  147.4640 C   0  0  0  0  0  2  0  0  0  0  0  0
  191.8270  177.9560  144.5570 C   0  0  0  0  0  2  0  0  0  0  0  0
  191.6810  180.2110  143.9680 C   0  0  0  0  0  1  0  0  0  0  0  0
  190.6980  175.6910  144.9530 C   0  0  0  0  0  2  0  0  0  0  0  0
  187.3070  177.5830  145.4290 C   0  0  0  0  0  0  0  0  0  0  0  0
  191.5720  176.5470  144.0290 C   0  0  0  0  0  2  0  0  0  0  0  0
  185.2610  178.7330  146.9690 C   0  0  0  0  0  3  0  0  0  0  0  0
  186.0560  177.8490  144.8610 C   0  0  0  0  0  3  0  0  0  0  0  0
  188.4660  179.6900  142.0110 O   0  0  0  0  0  1  0  0  0  0  0  0
  188.4310  178.3170  142.2610 C   0  0  1  0  0  0  0  0  0  0  0  0
  189.5480  177.1720  138.7650 C   0  0  0  0  0  3  0  0  0  0  0  0
  191.0040  176.1580  140.4000 C   0  0  0  0  0  3  0  0  0  0  0  0
  189.1780  177.6010  141.1370 C   0  0  0  0  0  0  0  0  0  0  0  0
  190.6390  176.3450  139.0610 C   0  0  0  0  0  0  0  0  0  0  0  0
  190.2870  176.7820  141.4210 C   0  0  0  0  0  3  0  0  0  0  0  0
  188.8260  177.8000  139.7830 C   0  0  0  0  0  0  0  0  0  0  0  0
  187.7670  178.6280  139.4320 O   0  0  0  0  0  1  0  0  0  0  0  0
  192.5360  176.3780  137.3060 C   0  0  0  0  0  1  0  0  0  0  0  0
  191.0860  174.4920  137.5930 N   0  0  0  0  0  2  0  0  0  0  0  0
  191.3980  175.6860  137.9770 C   0  0  0  0  0  0  0  0  0  0  0  0
  186.9530  177.8780  142.2950 C   0  0  0  0  0  2  0  0  0  0  0  0
  185.9680  178.9900  141.9430 C   0  0  0  0  0  2  0  0  0  0  0  0
  184.6030  178.4120  141.6280 C   0  0  0  0  0  1  0  0  0  0  0  0
  2 19  1  1  0  0  0
  2  1  1  0  0  0  0
  2  5  1  0  0  0  0
  3 10  1  0  0  0  0
  4 16  1  0  0  0  0
  5 14  1  1  0  0  0
  5  8  1  0  0  0  0
  7 10  1  0  0  0  0
  7  6  1  0  0  0  0
  8 13  1  6  0  0  0
  8  3  1  0  0  0  0
  9 12  1  0  0  0  0
  9  1  1  0  0  0  0
  9 11  1  0  0  0  0
 14  7  2  0  0  0  0
 15 11  1  0  0  0  0
 15 13  1  0  0  0  0
 16  6  2  0  0  0  0
 17 14  1  0  0  0  0
 17  4  2  0  0  0  0
 19 18  1  6  0  0  0
 19 30  1  0  0  0  0
 20 23  2  0  0  0  0
 20 25  1  0  0  0  0
 21 24  2  0  0  0  0
 22 24  1  0  0  0  0
 22 19  1  0  0  0  0
 23 21  1  0  0  0  0
 25 22  2  0  0  0  0
 26 25  1  0  0  0  0
 27 29  1  0  0  0  0
 28 29  2  0  0  0  0
 29 23  1  0  0  0  0
 31 30  1  0  0  0  0
 32 31  1  0  0  0  0
M  END
>  <MODEL>
6

>  <REMARK>
 VINA RESULT:      -6.2      4.751      9.175
  Name = 
  5 active torsions:
  status: ('A' for Active; 'I' for Inactive)
    1  A    between atoms: C_1  and  C_4
    2  A    between atoms: C_1  and  C_27
    3  A    between atoms: C_5  and  C_27
    4  A    between atoms: C_16  and  C_27
    5  A    between atoms: C_19  and  C_26
                            x       y       z     vdW  Elec       q    Type
                         _______ _______ _______ _____ _____    ______ ____

>  <TORSDO>
F 5

$$$$
=
 OpenBabel10262421023D

 32 35  0  0  1  0  0  0  0  0999 V2000
  186.1660  175.1000  137.4290 O   0  0  0  0  0  0  0  0  0  0  0  0
  186.0880  176.3230  136.7380 C   0  0  1  0  0  3  0  0  0  0  0  0
  183.3420  175.0360  137.3040 O   0  0  0  0  0  0  0  0  0  0  0  0
  184.6170  179.0910  139.9760 C   0  0  0  0  0  3  0  0  0  0  0  0
  184.6990  176.9950  136.7810 C   0  0  1  0  0  3  0  0  0  0  0  0
  183.0790  177.2420  140.2340 C   0  0  0  0  0  3  0  0  0  0  0  0
  183.4060  176.7890  138.9540 C   0  0  0  0  0  0  0  0  0  0  0  0
  183.5880  176.0160  136.3230 C   0  0  1  0  0  3  0  0  0  0  0  0
  186.5670  174.1840  136.5050 N   0  0  0  0  0  0  0  0  0  0  0  0
  182.6240  175.6610  138.3410 C   0  0  0  0  0  2  0  0  0  0  0  0
  185.3880  173.6460  135.8290 C   0  0  0  0  0  2  0  0  0  0  0  0
  187.1590  173.0830  137.2440 C   0  0  0  0  0  1  0  0  0  0  0  0
  183.7390  175.3870  134.9280 C   0  0  0  0  0  2  0  0  0  0  0  0
  184.3490  177.4880  138.1710 C   0  0  0  0  0  0  0  0  0  0  0  0
  185.0080  174.5650  134.6720 C   0  0  0  0  0  2  0  0  0  0  0  0
  183.6940  178.3840  140.7510 C   0  0  0  0  0  3  0  0  0  0  0  0
  184.9350  178.6490  138.6890 C   0  0  0  0  0  3  0  0  0  0  0  0
  187.1080  178.4670  136.2130 O   0  0  0  0  0  1  0  0  0  0  0  0
  187.3920  177.1570  136.6020 C   0  0  1  0  0  0  0  0  0  0  0  0
  189.9160  176.3760  139.3960 C   0  0  0  0  0  3  0  0  0  0  0  0
  188.5860  178.2690  140.0780 C   0  0  0  0  0  3  0  0  0  0  0  0
  188.1520  177.1990  137.9280 C   0  0  0  0  0  0  0  0  0  0  0  0
  189.6140  177.3590  140.3470 C   0  0  0  0  0  0  0  0  0  0  0  0
  187.8690  178.1930  138.8830 C   0  0  0  0  0  3  0  0  0  0  0  0
  189.2030  176.2940  138.1970 C   0  0  0  0  0  0  0  0  0  0  0  0
  189.5580  175.3150  137.2780 O   0  0  0  0  0  1  0  0  0  0  0  0
  189.6750  177.4590  142.9290 C   0  0  0  0  0  1  0  0  0  0  0  0
  191.6670  177.4880  141.5970 N   0  0  0  0  0  2  0  0  0  0  0  0
  190.3750  177.4380  141.6120 C   0  0  0  0  0  0  0  0  0  0  0  0
  188.2580  176.5120  135.5020 C   0  0  0  0  0  2  0  0  0  0  0  0
  189.1240  177.5060  134.7310 C   0  0  0  0  0  2  0  0  0  0  0  0
  190.5420  176.9880  134.6000 C   0  0  0  0  0  1  0  0  0  0  0  0
  2 19  1  1  0  0  0
  2  5  1  0  0  0  0
  2  1  1  0  0  0  0
  3 10  1  0  0  0  0
  4 16  1  0  0  0  0
  5 14  1  1  0  0  0
  6 16  2  0  0  0  0
  7  6  1  0  0  0  0
  8 13  1  6  0  0  0
  8  5  1  0  0  0  0
  8  3  1  0  0  0  0
  9 12  1  0  0  0  0
  9  1  1  0  0  0  0
 10  7  1  0  0  0  0
 11  9  1  0  0  0  0
 14 17  1  0  0  0  0
 14  7  2  0  0  0  0
 15 13  1  0  0  0  0
 15 11  1  0  0  0  0
 17  4  2  0  0  0  0
 19 18  1  6  0  0  0
 19 22  1  0  0  0  0
 20 23  1  0  0  0  0
 21 23  2  0  0  0  0
 22 25  1  0  0  0  0
 22 24  2  0  0  0  0
 23 29  1  0  0  0  0
 24 21  1  0  0  0  0
 25 20  2  0  0  0  0
 26 25  1  0  0  0  0
 28 29  2  0  0  0  0
 29 27  1  0  0  0  0
 30 19  1  0  0  0  0
 31 30  1  0  0  0  0
 32 31  1  0  0  0  0
M  END
>  <MODEL>
7

>  <REMARK>
 VINA RESULT:      -5.9      3.895      6.126
  Name = 
  5 active torsions:
  status: ('A' for Active; 'I' for Inactive)
    1  A    between atoms: C_1  and  C_4
    2  A    between atoms: C_1  and  C_27
    3  A    between atoms: C_5  and  C_27
    4  A    between atoms: C_16  and  C_27
    5  A    between atoms: C_19  and  C_26
                            x       y       z     vdW  Elec       q    Type
                         _______ _______ _______ _____ _____    ______ ____

>  <TORSDO>
F 5

$$$$
=
 OpenBabel10262421023D

 32 35  0  0  1  0  0  0  0  0999 V2000
  181.3350  176.7240  140.2100 O   0  0  0  0  0  0  0  0  0  0  0  0
  181.6070  177.8870  139.4650 C   0  0  1  0  0  3  0  0  0  0  0  0
  181.2900  178.3940  142.4910 O   0  0  0  0  0  0  0  0  0  0  0  0
  185.9120  178.6620  140.5490 C   0  0  0  0  0  3  0  0  0  0  0  0
  182.1210  179.0780  140.3020 C   0  0  1  0  0  3  0  0  0  0  0  0
  184.9570  178.2930  142.7410 C   0  0  0  0  0  3  0  0  0  0  0  0
  183.6790  178.5240  142.2250 C   0  0  0  0  0  0  0  0  0  0  0  0
  181.1730  179.3780  141.4910 C   0  0  1  0  0  3  0  0  0  0  0  0
  180.0250  176.4370  139.9740 N   0  0  0  0  0  0  0  0  0  0  0  0
  182.5070  178.6280  143.1590 C   0  0  0  0  0  2  0  0  0  0  0  0
  179.2000  177.1640  140.9370 C   0  0  0  0  0  2  0  0  0  0  0  0
  179.8520  175.0250  140.2620 C   0  0  0  0  0  1  0  0  0  0  0  0
  179.7000  179.6660  141.1580 C   0  0  0  0  0  2  0  0  0  0  0  0
  183.5080  178.8250  140.8570 C   0  0  0  0  0  0  0  0  0  0  0  0
  178.9310  178.5700  140.4110 C   0  0  0  0  0  2  0  0  0  0  0  0
  186.0710  178.3480  141.9010 C   0  0  0  0  0  3  0  0  0  0  0  0
  184.6370  178.9070  140.0330 C   0  0  0  0  0  3  0  0  0  0  0  0
  183.0130  178.6030  137.6150 O   0  0  0  0  0  1  0  0  0  0  0  0
  182.0030  177.7080  137.9730 C   0  0  1  0  0  0  0  0  0  0  0  0
  182.1360  174.0330  136.8510 C   0  0  0  0  0  3  0  0  0  0  0  0
  184.3120  174.6530  137.6880 C   0  0  0  0  0  3  0  0  0  0  0  0
  182.4990  176.2870  137.7080 C   0  0  0  0  0  0  0  0  0  0  0  0
  183.4650  173.6880  137.1300 C   0  0  0  0  0  0  0  0  0  0  0  0
  183.8360  175.9350  137.9680 C   0  0  0  0  0  3  0  0  0  0  0  0
  181.6530  175.3150  137.1270 C   0  0  0  0  0  0  0  0  0  0  0  0
  180.3340  175.6110  136.8090 O   0  0  0  0  0  1  0  0  0  0  0  0
  183.0500  171.1540  136.8450 C   0  0  0  0  0  1  0  0  0  0  0  0
  185.2140  172.1400  136.5550 N   0  0  0  0  0  2  0  0  0  0  0  0
  183.9670  172.3300  136.8330 C   0  0  0  0  0  0  0  0  0  0  0  0
  180.7640  178.0200  137.1100 C   0  0  0  0  0  2  0  0  0  0  0  0
  180.8030  179.3930  136.4430 C   0  0  0  0  0  2  0  0  0  0  0  0
  180.1010  180.4230  137.3050 C   0  0  0  0  0  1  0  0  0  0  0  0
  2 19  1  6  0  0  0
  2  1  1  0  0  0  0
  2  5  1  0  0  0  0
  3 10  1  0  0  0  0
  4 16  1  0  0  0  0
  5 14  1  1  0  0  0
  5  8  1  0  0  0  0
  7  6  1  0  0  0  0
  7 10  1  0  0  0  0
  8 13  1  6  0  0  0
  8  3  1  0  0  0  0
  9  1  1  0  0  0  0
  9 12  1  0  0  0  0
  9 11  1  0  0  0  0
 14  7  2  0  0  0  0
 15 11  1  0  0  0  0
 15 13  1  0  0  0  0
 16  6  2  0  0  0  0
 17  4  2  0  0  0  0
 17 14  1  0  0  0  0
 19 18  1  6  0  0  0
 20 25  2  0  0  0  0
 20 23  1  0  0  0  0
 21 24  1  0  0  0  0
 22 24  2  0  0  0  0
 22 19  1  0  0  0  0
 23 21  2  0  0  0  0
 25 22  1  0  0  0  0
 26 25  1  0  0  0  0
 28 29  2  0  0  0  0
 29 27  1  0  0  0  0
 29 23  1  0  0  0  0
 30 19  1  0  0  0  0
 31 30  1  0  0  0  0
 31 32  1  0  0  0  0
M  END
>  <MODEL>
8

>  <REMARK>
 VINA RESULT:      -5.7      2.570      6.192
  Name = 
  5 active torsions:
  status: ('A' for Active; 'I' for Inactive)
    1  A    between atoms: C_1  and  C_4
    2  A    between atoms: C_1  and  C_27
    3  A    between atoms: C_5  and  C_27
    4  A    between atoms: C_16  and  C_27
    5  A    between atoms: C_19  and  C_26
                            x       y       z     vdW  Elec       q    Type
                         _______ _______ _______ _____ _____    ______ ____

>  <TORSDO>
F 5

$$$$
=
 OpenBabel10262421023D

 32 35  0  0  1  0  0  0  0  0999 V2000
  181.2320  177.1080  140.7560 O   0  0  0  0  0  0  0  0  0  0  0  0
  181.5740  178.3250  140.1370 C   0  0  1  0  0  3  0  0  0  0  0  0
  181.2580  178.5330  143.1980 O   0  0  0  0  0  0  0  0  0  0  0  0
  185.9050  178.7440  141.3090 C   0  0  0  0  0  3  0  0  0  0  0  0
  182.1450  179.3920  141.0940 C   0  0  1  0  0  3  0  0  0  0  0  0
  184.9120  178.2040  143.4480 C   0  0  0  0  0  3  0  0  0  0  0  0
  183.6530  178.5570  142.9550 C   0  0  0  0  0  0  0  0  0  0  0  0
  181.2040  179.6200  142.3050 C   0  0  1  0  0  3  0  0  0  0  0  0
  179.9110  176.9200  140.4870 N   0  0  0  0  0  0  0  0  0  0  0  0
  182.4800  178.6280  143.8910 C   0  0  0  0  0  2  0  0  0  0  0  0
  179.1180  177.5870  141.5180 C   0  0  0  0  0  2  0  0  0  0  0  0
  179.6590  175.4970  140.6260 C   0  0  0  0  0  1  0  0  0  0  0  0
  179.7520  180.0220  141.9990 C   0  0  0  0  0  2  0  0  0  0  0  0
  183.5110  179.0080  141.6250 C   0  0  0  0  0  0  0  0  0  0  0  0
  178.9310  179.0530  141.1400 C   0  0  0  0  0  2  0  0  0  0  0  0
  186.0350  178.2840  142.6230 C   0  0  0  0  0  3  0  0  0  0  0  0
  184.6500  179.1120  140.8170 C   0  0  0  0  0  3  0  0  0  0  0  0
  181.3510  177.2120  137.9860 O   0  0  0  0  0  1  0  0  0  0  0  0
  181.9730  178.2800  138.6350 C   0  0  1  0  0  0  0  0  0  0  0  0
  180.8070  180.7640  135.9430 C   0  0  0  0  0  3  0  0  0  0  0  0
  181.0870  181.9640  138.0160 C   0  0  0  0  0  3  0  0  0  0  0  0
  181.5760  179.5740  137.9280 C   0  0  0  0  0  0  0  0  0  0  0  0
  180.7440  181.9660  136.6590 C   0  0  0  0  0  0  0  0  0  0  0  0
  181.4920  180.7840  138.6410 C   0  0  0  0  0  3  0  0  0  0  0  0
  181.2100  179.5780  136.5620 C   0  0  0  0  0  0  0  0  0  0  0  0
  181.2330  178.4100  135.8120 O   0  0  0  0  0  1  0  0  0  0  0  0
  181.1330  184.4570  136.0920 C   0  0  0  0  0  1  0  0  0  0  0  0
  179.2170  183.2480  135.3120 N   0  0  0  0  0  2  0  0  0  0  0  0
  180.3140  183.2150  135.9940 C   0  0  0  0  0  0  0  0  0  0  0  0
  183.4970  178.0630  138.5530 C   0  0  0  0  0  2  0  0  0  0  0  0
  183.9070  176.8410  137.7340 C   0  0  0  0  0  2  0  0  0  0  0  0
  185.1870  177.1150  136.9720 C   0  0  0  0  0  1  0  0  0  0  0  0
  2 19  1  6  0  0  0
  2  1  1  0  0  0  0
  2  5  1  0  0  0  0
  3 10  1  0  0  0  0
  4 16  1  0  0  0  0
  5 14  1  1  0  0  0
  5  8  1  0  0  0  0
  7  6  1  0  0  0  0
  7 10  1  0  0  0  0
  8 13  1  6  0  0  0
  8  3  1  0  0  0  0
  9 12  1  0  0  0  0
  9  1  1  0  0  0  0
  9 11  1  0  0  0  0
 14  7  2  0  0  0  0
 15 11  1  0  0  0  0
 15 13  1  0  0  0  0
 16  6  2  0  0  0  0
 17  4  2  0  0  0  0
 17 14  1  0  0  0  0
 19 18  1  6  0  0  0
 20 25  2  0  0  0  0
 20 23  1  0  0  0  0
 21 24  1  0  0  0  0
 22 19  1  0  0  0  0
 22 24  2  0  0  0  0
 23 21  2  0  0  0  0
 25 22  1  0  0  0  0
 26 25  1  0  0  0  0
 28 29  2  0  0  0  0
 29 27  1  0  0  0  0
 29 23  1  0  0  0  0
 30 19  1  0  0  0  0
 31 30  1  0  0  0  0
 32 31  1  0  0  0  0
M  END
>  <MODEL>
9

>  <REMARK>
 VINA RESULT:      -5.7      2.642      6.336
  Name = 
  5 active torsions:
  status: ('A' for Active; 'I' for Inactive)
    1  A    between atoms: C_1  and  C_4
    2  A    between atoms: C_1  and  C_27
    3  A    between atoms: C_5  and  C_27
    4  A    between atoms: C_16  and  C_27
    5  A    between atoms: C_19  and  C_26
                            x       y       z     vdW  Elec       q    Type
                         _______ _______ _______ _____ _____    ______ ____

>  <TORSDO>
F 5

$$$$
