=
 OpenBabel10262421553D

 30 34  0  0  1  0  0  0  0  0999 V2000
  186.6850  179.0950  141.1230 N   0  0  0  0  0  2  0  0  0  0  0  0
  188.7050  177.6910  141.0940 C   0  0  0  0  0  0  0  0  0  0  0  0
  185.7110  177.6760  145.1080 C   0  0  0  0  0  2  0  0  0  0  0  0
  185.3200  179.3270  141.5930 C   0  0  2  0  0  3  0  0  0  0  0  0
  184.7570  178.5920  145.8660 C   0  0  0  0  0  2  0  0  0  0  0  0
  189.5170  176.7310  141.7040 C   0  0  0  0  0  3  0  0  0  0  0  0
  189.1550  178.3120  139.5150 Cl  0  0  0  0  0  0  0  0  0  0  0  0
  185.9970  178.1500  143.7000 C   0  0  0  0  0  0  0  0  0  0  0  0
  189.1760  176.2170  142.9570 C   0  0  0  0  0  3  0  0  0  0  0  0
  187.5390  178.1290  141.7390 C   0  0  0  0  0  0  0  0  0  0  0  0
  185.1420  178.9810  143.0530 C   0  0  0  0  0  0  0  0  0  0  0  0
  183.5400  178.8620  145.0000 C   0  0  0  0  0  2  0  0  0  0  0  0
  183.9780  179.6300  143.7610 C   0  0  0  0  0  2  0  0  0  0  0  0
  188.0230  176.6640  143.6070 C   0  0  0  0  0  3  0  0  0  0  0  0
  187.1950  177.6220  143.0030 C   0  0  0  0  0  0  0  0  0  0  0  0
  184.2890  178.5840  140.7290 C   0  0  2  0  0  3  0  0  0  0  0  0
  183.0440  180.1450  138.8430 S   0  0  0  0  0  0  0  0  0  0  0  0
  184.1700  179.0470  139.3020 C   0  0  0  0  0  0  0  0  0  0  0  0
  185.8610  177.4530  137.7370 C   0  0  0  0  0  0  0  0  0  0  0  0
  186.3700  178.6620  137.7660 O   0  0  0  0  0  0  0  0  0  0  0  0
  185.1240  178.5980  138.3450 N   0  0  0  0  0  0  0  0  0  0  0  0
  184.7320  176.9940  136.7900 C   0  0  0  0  0  2  0  0  0  0  0  0
  186.0390  177.2580  136.2170 C   0  0  0  0  0  2  0  0  0  0  0  0
  182.1700  179.3850  141.5580 O   0  0  0  0  0  1  0  0  0  0  0  0
  182.9600  178.2430  141.4150 C   0  0  1  0  0  3  0  0  0  0  0  0
  182.1750  177.0850  140.7830 C   0  0  0  0  0  2  0  0  0  0  0  0
  180.7680  177.4640  140.3320 C   0  0  0  0  0  2  0  0  0  0  0  0
  179.3290  177.8210  142.3400 O   0  0  0  0  0  1  0  0  0  0  0  0
  179.7460  176.9900  141.3080 C   0  0  0  0  0  0  0  0  0  0  0  0
  179.2620  175.8340  141.1990 O   0  0  0  0  0  0  0  0  0  0  0  0
  1  4  1  0  0  0  0
  1 10  1  0  0  0  0
  2  6  2  0  0  0  0
  2 10  1  0  0  0  0
  3  5  1  0  0  0  0
  4 16  1  6  0  0  0
  4 11  1  0  0  0  0
  6  9  1  0  0  0  0
  7  2  1  0  0  0  0
  8  3  1  0  0  0  0
  9 14  2  0  0  0  0
 10 15  2  0  0  0  0
 11  8  2  0  0  0  0
 11 13  1  0  0  0  0
 12  5  1  0  0  0  0
 13 12  1  0  0  0  0
 15 14  1  0  0  0  0
 15  8  1  0  0  0  0
 16 18  1  6  0  0  0
 16 25  1  0  0  0  0
 17 18  2  0  0  0  0
 19 20  1  0  0  0  0
 19 21  1  0  0  0  0
 20 21  1  0  0  0  0
 21 18  1  0  0  0  0
 22 19  1  0  0  0  0
 23 22  1  0  0  0  0
 23 19  1  0  0  0  0
 25 24  1  6  0  0  0
 26 25  1  0  0  0  0
 27 26  1  0  0  0  0
 27 29  1  0  0  0  0
 29 28  1  0  0  0  0
 30 29  2  0  0  0  0
M  END
>  <MODEL>
1

>  <REMARK>
 VINA RESULT:      -7.8      0.000      0.000
  Name = 
  7 active torsions:
  status: ('A' for Active; 'I' for Inactive)
    1  A    between atoms: C_4  and  C_13
    2  A    between atoms: C_7  and  C_15
    3  A    between atoms: C_7  and  C_16
    4  A    between atoms: C_8  and  N_12
    5  A    between atoms: C_8  and  C_13
    6  A    between atoms: C_13  and  C_30
    7  A    between atoms: C_16  and  C_30
                            x       y       z     vdW  Elec       q    Type
                         _______ _______ _______ _____ _____    ______ ____

>  <TORSDO>
F 7

$$$$
=
 OpenBabel10262421553D

 30 34  0  0  1  0  0  0  0  0999 V2000
  186.0300  179.1360  141.5480 N   0  0  0  0  0  2  0  0  0  0  0  0
  188.0260  177.8660  140.8750 C   0  0  0  0  0  0  0  0  0  0  0  0
  186.3430  177.5600  145.5800 C   0  0  0  0  0  2  0  0  0  0  0  0
  184.8520  179.2680  142.4040 C   0  0  2  0  0  3  0  0  0  0  0  0
  185.6040  178.3940  146.6210 C   0  0  0  0  0  2  0  0  0  0  0  0
  189.0320  176.9460  141.1810 C   0  0  0  0  0  3  0  0  0  0  0  0
  187.9600  178.5530  139.2600 Cl  0  0  0  0  0  0  0  0  0  0  0  0
  186.1790  178.0860  144.1710 C   0  0  0  0  0  0  0  0  0  0  0  0
  189.1010  176.3800  142.4560 C   0  0  0  0  0  3  0  0  0  0  0  0
  187.0780  178.2120  141.8480 C   0  0  0  0  0  0  0  0  0  0  0  0
  185.1270  178.8760  143.8360 C   0  0  0  0  0  0  0  0  0  0  0  0
  184.1740  178.6060  146.1580 C   0  0  0  0  0  2  0  0  0  0  0  0
  184.1880  179.4300  144.8780 C   0  0  0  0  0  2  0  0  0  0  0  0
  188.1660  176.7360  143.4310 C   0  0  0  0  0  3  0  0  0  0  0  0
  187.1470  177.6530  143.1350 C   0  0  0  0  0  0  0  0  0  0  0  0
  183.6550  178.4820  141.8460 C   0  0  2  0  0  3  0  0  0  0  0  0
  183.6550  176.9730  139.5510 S   0  0  0  0  0  0  0  0  0  0  0  0
  183.5610  178.4020  140.3450 C   0  0  0  0  0  0  0  0  0  0  0  0
  182.5490  180.2280  138.4780 C   0  0  0  0  0  0  0  0  0  0  0  0
  183.7010  180.6920  138.9010 O   0  0  0  0  0  0  0  0  0  0  0  0
  183.2830  179.5860  139.6050 N   0  0  0  0  0  0  0  0  0  0  0  0
  181.2030  180.4020  139.2140 C   0  0  0  0  0  2  0  0  0  0  0  0
  181.8010  181.5720  138.5960 C   0  0  0  0  0  2  0  0  0  0  0  0
  182.0550  180.0490  142.7420 O   0  0  0  0  0  1  0  0  0  0  0  0
  182.3190  178.6890  142.5710 C   0  0  1  0  0  3  0  0  0  0  0  0
  181.1210  177.9490  141.9600 C   0  0  0  0  0  2  0  0  0  0  0  0
  179.7710  178.5820  142.2840 C   0  0  0  0  0  2  0  0  0  0  0  0
  179.6860  177.3170  144.4330 O   0  0  0  0  0  1  0  0  0  0  0  0
  179.4770  178.5030  143.7430 C   0  0  0  0  0  0  0  0  0  0  0  0
  179.0350  179.5130  144.3490 O   0  0  0  0  0  0  0  0  0  0  0  0
  1 10  1  0  0  0  0
  1  4  1  0  0  0  0
  2  6  2  0  0  0  0
  2 10  1  0  0  0  0
  3  5  1  0  0  0  0
  4 16  1  6  0  0  0
  4 11  1  0  0  0  0
  6  9  1  0  0  0  0
  7  2  1  0  0  0  0
  8  3  1  0  0  0  0
  9 14  2  0  0  0  0
 10 15  2  0  0  0  0
 11  8  2  0  0  0  0
 11 13  1  0  0  0  0
 12  5  1  0  0  0  0
 13 12  1  0  0  0  0
 15 14  1  0  0  0  0
 15  8  1  0  0  0  0
 16 18  1  6  0  0  0
 16 25  1  0  0  0  0
 17 18  2  0  0  0  0
 19 23  1  0  0  0  0
 19 20  1  0  0  0  0
 19 22  1  0  0  0  0
 19 21  1  0  0  0  0
 20 21  1  0  0  0  0
 21 18  1  0  0  0  0
 23 22  1  0  0  0  0
 25 24  1  6  0  0  0
 26 27  1  0  0  0  0
 26 25  1  0  0  0  0
 27 29  1  0  0  0  0
 29 30  2  0  0  0  0
 29 28  1  0  0  0  0
M  END
>  <MODEL>
2

>  <REMARK>
 VINA RESULT:      -7.7      2.032      2.481
  Name = 
  7 active torsions:
  status: ('A' for Active; 'I' for Inactive)
    1  A    between atoms: C_4  and  C_13
    2  A    between atoms: C_7  and  C_15
    3  A    between atoms: C_7  and  C_16
    4  A    between atoms: C_8  and  N_12
    5  A    between atoms: C_8  and  C_13
    6  A    between atoms: C_13  and  C_30
    7  A    between atoms: C_16  and  C_30
                            x       y       z     vdW  Elec       q    Type
                         _______ _______ _______ _____ _____    ______ ____

>  <TORSDO>
F 7

$$$$
=
 OpenBabel10262421553D

 30 34  0  0  1  0  0  0  0  0999 V2000
  186.2950  177.1210  143.1440 N   0  0  0  0  0  2  0  0  0  0  0  0
  184.1410  178.1930  142.6300 C   0  0  0  0  0  0  0  0  0  0  0  0
  186.2380  178.8350  147.1320 C   0  0  0  0  0  2  0  0  0  0  0  0
  187.5570  177.1230  143.8820 C   0  0  2  0  0  3  0  0  0  0  0  0
  187.1430  178.1100  148.1210 C   0  0  0  0  0  2  0  0  0  0  0  0
  183.0950  179.0400  143.0040 C   0  0  0  0  0  3  0  0  0  0  0  0
  184.1100  177.4470  141.0410 Cl  0  0  0  0  0  0  0  0  0  0  0  0
  186.3100  178.2660  145.7310 C   0  0  0  0  0  0  0  0  0  0  0  0
  183.1000  179.6510  144.2590 C   0  0  0  0  0  3  0  0  0  0  0  0
  185.2060  177.9680  143.5150 C   0  0  0  0  0  0  0  0  0  0  0  0
  187.3880  177.5510  145.3210 C   0  0  0  0  0  0  0  0  0  0  0  0
  188.5340  177.9960  147.5260 C   0  0  0  0  0  2  0  0  0  0  0  0
  188.4680  177.1200  146.2820 C   0  0  0  0  0  2  0  0  0  0  0  0
  184.1520  179.4150  145.1470 C   0  0  0  0  0  3  0  0  0  0  0  0
  185.2130  178.5730  144.7820 C   0  0  0  0  0  0  0  0  0  0  0  0
  188.6230  177.9810  143.1810 C   0  0  2  0  0  3  0  0  0  0  0  0
  187.4340  179.0850  140.9650 S   0  0  0  0  0  0  0  0  0  0  0  0
  188.5080  178.0780  141.6830 C   0  0  0  0  0  0  0  0  0  0  0  0
  189.6680  176.5900  139.6130 C   0  0  0  0  0  0  0  0  0  0  0  0
  190.3620  176.3600  140.7030 O   0  0  0  0  0  0  0  0  0  0  0  0
  189.4250  177.3540  140.8690 N   0  0  0  0  0  0  0  0  0  0  0  0
  189.8530  177.8130  138.6900 C   0  0  0  0  0  2  0  0  0  0  0  0
  190.8950  176.8020  138.7030 C   0  0  0  0  0  2  0  0  0  0  0  0
  190.3570  178.8900  144.5900 O   0  0  0  0  0  1  0  0  0  0  0  0
  190.0540  177.8430  143.7170 C   0  0  1  0  0  3  0  0  0  0  0  0
  190.3970  176.4770  144.3260 C   0  0  0  0  0  2  0  0  0  0  0  0
  191.8610  176.3270  144.7270 C   0  0  0  0  0  2  0  0  0  0  0  0
  192.3310  174.9240  146.7360 O   0  0  0  0  0  0  0  0  0  0  0  0
  192.0000  176.1620  146.2010 C   0  0  0  0  0  0  0  0  0  0  0  0
  191.8130  177.1460  146.9630 O   0  0  0  0  0  1  0  0  0  0  0  0
  1 10  1  0  0  0  0
  1  4  1  0  0  0  0
  2  6  2  0  0  0  0
  2 10  1  0  0  0  0
  3  5  1  0  0  0  0
  4 16  1  6  0  0  0
  4 11  1  0  0  0  0
  6  9  1  0  0  0  0
  7  2  1  0  0  0  0
  8  3  1  0  0  0  0
  9 14  2  0  0  0  0
 10 15  2  0  0  0  0
 11  8  2  0  0  0  0
 11 13  1  0  0  0  0
 12  5  1  0  0  0  0
 13 12  1  0  0  0  0
 15 14  1  0  0  0  0
 15  8  1  0  0  0  0
 16 18  1  6  0  0  0
 16 25  1  0  0  0  0
 17 18  2  0  0  0  0
 19 20  1  0  0  0  0
 19 21  1  0  0  0  0
 20 21  1  0  0  0  0
 21 18  1  0  0  0  0
 22 23  1  0  0  0  0
 22 19  1  0  0  0  0
 23 19  1  0  0  0  0
 25 26  1  0  0  0  0
 25 24  1  1  0  0  0
 26 27  1  0  0  0  0
 27 29  1  0  0  0  0
 29 28  2  0  0  0  0
 29 30  1  0  0  0  0
M  END
>  <MODEL>
3

>  <REMARK>
 VINA RESULT:      -7.7      4.444      6.940
  Name = 
  7 active torsions:
  status: ('A' for Active; 'I' for Inactive)
    1  A    between atoms: C_4  and  C_13
    2  A    between atoms: C_7  and  C_15
    3  A    between atoms: C_7  and  C_16
    4  A    between atoms: C_8  and  N_12
    5  A    between atoms: C_8  and  C_13
    6  A    between atoms: C_13  and  C_30
    7  A    between atoms: C_16  and  C_30
                            x       y       z     vdW  Elec       q    Type
                         _______ _______ _______ _____ _____    ______ ____

>  <TORSDO>
F 7

$$$$
=
 OpenBabel10262421553D

 30 34  0  0  1  0  0  0  0  0999 V2000
  186.2170  179.0850  140.9880 N   0  0  0  0  0  2  0  0  0  0  0  0
  188.2930  177.7780  140.8070 C   0  0  0  0  0  0  0  0  0  0  0  0
  185.7380  177.8210  145.1130 C   0  0  0  0  0  2  0  0  0  0  0  0
  184.8980  179.2750  141.5900 C   0  0  2  0  0  3  0  0  0  0  0  0
  184.8210  178.7270  145.9270 C   0  0  0  0  0  2  0  0  0  0  0  0
  189.2130  176.8890  141.3700 C   0  0  0  0  0  3  0  0  0  0  0  0
  188.5440  178.3400  139.1630 Cl  0  0  0  0  0  0  0  0  0  0  0  0
  185.8510  178.2370  143.6630 C   0  0  0  0  0  0  0  0  0  0  0  0
  189.0320  176.4220  142.6730 C   0  0  0  0  0  3  0  0  0  0  0  0
  187.1790  178.1920  141.5520 C   0  0  0  0  0  0  0  0  0  0  0  0
  184.8910  178.9940  143.0740 C   0  0  0  0  0  0  0  0  0  0  0  0
  183.5080  178.8970  145.1840 C   0  0  0  0  0  2  0  0  0  0  0  0
  183.7750  179.6210  143.8720 C   0  0  0  0  0  2  0  0  0  0  0  0
  187.9310  176.8460  143.4210 C   0  0  0  0  0  3  0  0  0  0  0  0
  186.9960  177.7330  142.8670 C   0  0  0  0  0  0  0  0  0  0  0  0
  183.8230  178.4430  140.8740 C   0  0  2  0  0  3  0  0  0  0  0  0
  185.0950  178.9040  138.4840 S   0  0  0  0  0  0  0  0  0  0  0  0
  184.1580  177.9980  139.4760 C   0  0  0  0  0  0  0  0  0  0  0  0
  183.2530  175.8530  137.9170 C   0  0  0  0  0  0  0  0  0  0  0  0
  182.9330  175.5990  139.1650 O   0  0  0  0  0  0  0  0  0  0  0  0
  183.7330  176.7110  139.0370 N   0  0  0  0  0  0  0  0  0  0  0  0
  184.6360  175.5840  137.2880 C   0  0  0  0  0  2  0  0  0  0  0  0
  183.8020  174.4420  137.6200 C   0  0  0  0  0  2  0  0  0  0  0  0
  181.8810  179.5230  139.9350 O   0  0  0  0  0  1  0  0  0  0  0  0
  182.3720  178.8970  141.0820 C   0  0  1  0  0  3  0  0  0  0  0  0
  181.4130  177.8140  141.5930 C   0  0  0  0  0  2  0  0  0  0  0  0
  180.0200  178.3310  141.9370 C   0  0  0  0  0  2  0  0  0  0  0  0
  180.0680  180.6230  142.9230 O   0  0  0  0  0  0  0  0  0  0  0  0
  180.0620  179.2470  143.1110 C   0  0  0  0  0  0  0  0  0  0  0  0
  180.0950  178.7720  144.2760 O   0  0  0  0  0  1  0  0  0  0  0  0
  1 10  1  0  0  0  0
  1  4  1  0  0  0  0
  2  6  2  0  0  0  0
  2 10  1  0  0  0  0
  3  5  1  0  0  0  0
  4 16  1  6  0  0  0
  4 11  1  0  0  0  0
  6  9  1  0  0  0  0
  7  2  1  0  0  0  0
  8  3  1  0  0  0  0
  9 14  2  0  0  0  0
 10 15  2  0  0  0  0
 11  8  2  0  0  0  0
 11 13  1  0  0  0  0
 12  5  1  0  0  0  0
 13 12  1  0  0  0  0
 15 14  1  0  0  0  0
 15  8  1  0  0  0  0
 16 18  1  6  0  0  0
 16 25  1  0  0  0  0
 17 18  2  0  0  0  0
 19 21  1  0  0  0  0
 19 20  1  0  0  0  0
 21 20  1  0  0  0  0
 21 18  1  0  0  0  0
 22 23  1  0  0  0  0
 22 19  1  0  0  0  0
 23 19  1  0  0  0  0
 25 24  1  6  0  0  0
 25 26  1  0  0  0  0
 26 27  1  0  0  0  0
 27 29  1  0  0  0  0
 28 29  2  0  0  0  0
 29 30  1  0  0  0  0
M  END
>  <MODEL>
4

>  <REMARK>
 VINA RESULT:      -7.5      1.679      1.917
  Name = 
  7 active torsions:
  status: ('A' for Active; 'I' for Inactive)
    1  A    between atoms: C_4  and  C_13
    2  A    between atoms: C_7  and  C_15
    3  A    between atoms: C_7  and  C_16
    4  A    between atoms: C_8  and  N_12
    5  A    between atoms: C_8  and  C_13
    6  A    between atoms: C_13  and  C_30
    7  A    between atoms: C_16  and  C_30
                            x       y       z     vdW  Elec       q    Type
                         _______ _______ _______ _____ _____    ______ ____

>  <TORSDO>
F 7

$$$$
=
 OpenBabel10262421553D

 30 34  0  0  1  0  0  0  0  0999 V2000
  187.2210  176.8710  144.4280 N   0  0  0  0  0  2  0  0  0  0  0  0
  186.4540  178.1030  146.4130 C   0  0  0  0  0  0  0  0  0  0  0  0
  191.2140  176.5810  146.1040 C   0  0  0  0  0  2  0  0  0  0  0  0
  188.2990  176.5100  143.5090 C   0  0  2  0  0  3  0  0  0  0  0  0
  192.0540  175.4670  145.4900 C   0  0  0  0  0  2  0  0  0  0  0  0
  186.7340  178.7080  147.6410 C   0  0  0  0  0  3  0  0  0  0  0  0
  184.8160  178.1630  145.7860 Cl  0  0  0  0  0  0  0  0  0  0  0  0
  189.8460  176.7110  145.4710 C   0  0  0  0  0  0  0  0  0  0  0  0
  188.0310  178.6810  148.1580 C   0  0  0  0  0  3  0  0  0  0  0  0
  187.4830  177.4780  145.6940 C   0  0  0  0  0  0  0  0  0  0  0  0
  189.6030  176.2390  144.2220 C   0  0  0  0  0  0  0  0  0  0  0  0
  192.0360  175.6080  143.9800 C   0  0  0  0  0  2  0  0  0  0  0  0
  190.6120  175.3960  143.4830 C   0  0  0  0  0  2  0  0  0  0  0  0
  189.0530  178.0440  147.4500 C   0  0  0  0  0  3  0  0  0  0  0  0
  188.7870  177.4390  146.2120 C   0  0  0  0  0  0  0  0  0  0  0  0
  188.4900  177.5710  142.4130 C   0  0  2  0  0  3  0  0  0  0  0  0
  190.4920  179.1570  143.4210 S   0  0  0  0  0  0  0  0  0  0  0  0
  189.8750  178.1470  142.2890 C   0  0  0  0  0  0  0  0  0  0  0  0
  190.9660  176.7380  140.1280 C   0  0  0  0  0  0  0  0  0  0  0  0
  191.9430  177.3970  140.7050 O   0  0  0  0  0  0  0  0  0  0  0  0
  190.7070  177.7260  141.2130 N   0  0  0  0  0  0  0  0  0  0  0  0
  189.9830  177.3380  139.0990 C   0  0  0  0  0  2  0  0  0  0  0  0
  191.3600  177.1280  138.6880 C   0  0  0  0  0  2  0  0  0  0  0  0
  187.5600  179.3930  141.1360 O   0  0  0  0  0  1  0  0  0  0  0  0
  187.3480  178.5820  142.2510 C   0  0  1  0  0  3  0  0  0  0  0  0
  185.9350  177.9800  142.2560 C   0  0  0  0  0  2  0  0  0  0  0  0
  184.8260  179.0020  142.0260 C   0  0  0  0  0  2  0  0  0  0  0  0
  184.5380  179.7570  139.6650 O   0  0  0  0  0  0  0  0  0  0  0  0
  184.2280  178.8500  140.6690 C   0  0  0  0  0  0  0  0  0  0  0  0
  183.4380  177.8990  140.4350 O   0  0  0  0  0  1  0  0  0  0  0  0
  1 10  1  0  0  0  0
  2  6  1  0  0  0  0
  4 16  1  6  0  0  0
  4 11  1  0  0  0  0
  4  1  1  0  0  0  0
  5  3  1  0  0  0  0
  6  9  2  0  0  0  0
  7  2  1  0  0  0  0
  8  3  1  0  0  0  0
  8 15  1  0  0  0  0
 10 15  1  0  0  0  0
 10  2  2  0  0  0  0
 11  8  2  0  0  0  0
 12  5  1  0  0  0  0
 13 12  1  0  0  0  0
 13 11  1  0  0  0  0
 14  9  1  0  0  0  0
 15 14  2  0  0  0  0
 16 18  1  1  0  0  0
 18 17  2  0  0  0  0
 19 20  1  0  0  0  0
 19 21  1  0  0  0  0
 20 21  1  0  0  0  0
 21 18  1  0  0  0  0
 22 19  1  0  0  0  0
 23 22  1  0  0  0  0
 23 19  1  0  0  0  0
 25 24  1  6  0  0  0
 25 26  1  0  0  0  0
 25 16  1  0  0  0  0
 27 26  1  0  0  0  0
 28 29  2  0  0  0  0
 29 27  1  0  0  0  0
 30 29  1  0  0  0  0
M  END
>  <MODEL>
5

>  <REMARK>
 VINA RESULT:      -7.2      3.584      5.892
  Name = 
  7 active torsions:
  status: ('A' for Active; 'I' for Inactive)
    1  A    between atoms: C_4  and  C_13
    2  A    between atoms: C_7  and  C_15
    3  A    between atoms: C_7  and  C_16
    4  A    between atoms: C_8  and  N_12
    5  A    between atoms: C_8  and  C_13
    6  A    between atoms: C_13  and  C_30
    7  A    between atoms: C_16  and  C_30
                            x       y       z     vdW  Elec       q    Type
                         _______ _______ _______ _____ _____    ______ ____

>  <TORSDO>
F 7

$$$$
=
 OpenBabel10262421553D

 30 34  0  0  1  0  0  0  0  0999 V2000
  186.5190  177.3450  144.5900 N   0  0  0  0  0  2  0  0  0  0  0  0
  186.4910  177.9730  146.9690 C   0  0  0  0  0  0  0  0  0  0  0  0
  190.8400  176.9520  144.7070 C   0  0  0  0  0  2  0  0  0  0  0  0
  187.2150  177.3120  143.3050 C   0  0  2  0  0  3  0  0  0  0  0  0
  191.4060  176.0970  143.5790 C   0  0  0  0  0  2  0  0  0  0  0  0
  187.1810  178.2680  148.1480 C   0  0  0  0  0  3  0  0  0  0  0  0
  184.7380  178.0620  146.9590 Cl  0  0  0  0  0  0  0  0  0  0  0  0
  189.3400  177.1300  144.6230 C   0  0  0  0  0  0  0  0  0  0  0  0
  188.5760  178.2110  148.1780 C   0  0  0  0  0  3  0  0  0  0  0  0
  187.2040  177.6310  145.8100 C   0  0  0  0  0  0  0  0  0  0  0  0
  188.6800  176.9720  143.4470 C   0  0  0  0  0  0  0  0  0  0  0  0
  190.8760  176.6130  142.2540 C   0  0  0  0  0  2  0  0  0  0  0  0
  189.3660  176.4240  142.2210 C   0  0  0  0  0  2  0  0  0  0  0  0
  189.2860  177.8550  147.0290 C   0  0  0  0  0  3  0  0  0  0  0  0
  188.6070  177.5630  145.8370 C   0  0  0  0  0  0  0  0  0  0  0  0
  187.0360  178.6270  142.5290 C   0  0  2  0  0  3  0  0  0  0  0  0
  184.8860  179.7520  143.8160 S   0  0  0  0  0  0  0  0  0  0  0  0
  185.6340  179.1750  142.4780 C   0  0  0  0  0  0  0  0  0  0  0  0
  184.3170  178.6020  140.0730 C   0  0  0  0  0  0  0  0  0  0  0  0
  184.9310  179.7520  139.9250 O   0  0  0  0  0  0  0  0  0  0  0  0
  184.9790  179.2880  141.2190 N   0  0  0  0  0  0  0  0  0  0  0  0
  182.9390  178.4160  140.7450 C   0  0  0  0  0  2  0  0  0  0  0  0
  182.9860  179.0670  139.4480 C   0  0  0  0  0  2  0  0  0  0  0  0
  189.1320  179.1860  141.4740 O   0  0  0  0  0  1  0  0  0  0  0  0
  187.8300  178.7490  141.2220 C   0  0  1  0  0  3  0  0  0  0  0  0
  187.8120  177.5030  140.3260 C   0  0  0  0  0  2  0  0  0  0  0  0
  187.7150  177.8130  138.8360 C   0  0  0  0  0  2  0  0  0  0  0  0
  190.1790  177.5910  138.5160 O   0  0  0  0  0  1  0  0  0  0  0  0
  189.0140  178.3150  138.3060 C   0  0  0  0  0  0  0  0  0  0  0  0
  189.0550  179.4010  137.6700 O   0  0  0  0  0  0  0  0  0  0  0  0
  1 10  1  0  0  0  0
  2  6  1  0  0  0  0
  4 16  1  1  0  0  0
  4 11  1  0  0  0  0
  4  1  1  0  0  0  0
  5  3  1  0  0  0  0
  6  9  2  0  0  0  0
  7  2  1  0  0  0  0
  8  3  1  0  0  0  0
  8 15  1  0  0  0  0
 10 15  1  0  0  0  0
 10  2  2  0  0  0  0
 11  8  2  0  0  0  0
 12  5  1  0  0  0  0
 13 12  1  0  0  0  0
 13 11  1  0  0  0  0
 14  9  1  0  0  0  0
 15 14  2  0  0  0  0
 16 18  1  6  0  0  0
 18 17  2  0  0  0  0
 19 22  1  0  0  0  0
 19 21  1  0  0  0  0
 20 19  1  0  0  0  0
 20 21  1  0  0  0  0
 21 18  1  0  0  0  0
 23 19  1  0  0  0  0
 23 22  1  0  0  0  0
 25 24  1  1  0  0  0
 25 16  1  0  0  0  0
 26 25  1  0  0  0  0
 27 26  1  0  0  0  0
 29 28  1  0  0  0  0
 29 27  1  0  0  0  0
 30 29  2  0  0  0  0
M  END
>  <MODEL>
6

>  <REMARK>
 VINA RESULT:      -7.2      3.186      6.082
  Name = 
  7 active torsions:
  status: ('A' for Active; 'I' for Inactive)
    1  A    between atoms: C_4  and  C_13
    2  A    between atoms: C_7  and  C_15
    3  A    between atoms: C_7  and  C_16
    4  A    between atoms: C_8  and  N_12
    5  A    between atoms: C_8  and  C_13
    6  A    between atoms: C_13  and  C_30
    7  A    between atoms: C_16  and  C_30
                            x       y       z     vdW  Elec       q    Type
                         _______ _______ _______ _____ _____    ______ ____

>  <TORSDO>
F 7

$$$$
=
 OpenBabel10262421553D

 30 34  0  0  1  0  0  0  0  0999 V2000
  186.8930  177.1460  143.6700 N   0  0  0  0  0  2  0  0  0  0  0  0
  185.7170  178.1730  145.5710 C   0  0  0  0  0  0  0  0  0  0  0  0
  190.5270  176.8590  146.0250 C   0  0  0  0  0  2  0  0  0  0  0  0
  188.1370  176.9060  142.9400 C   0  0  2  0  0  3  0  0  0  0  0  0
  191.5210  175.8340  145.4920 C   0  0  0  0  0  2  0  0  0  0  0  0
  185.7390  178.6790  146.8740 C   0  0  0  0  0  3  0  0  0  0  0  0
  184.2180  178.2260  144.6590 Cl  0  0  0  0  0  0  0  0  0  0  0  0
  189.2900  176.9920  145.1640 C   0  0  0  0  0  0  0  0  0  0  0  0
  186.9210  178.6540  147.6170 C   0  0  0  0  0  3  0  0  0  0  0  0
  186.8900  177.6500  145.0060 C   0  0  0  0  0  0  0  0  0  0  0  0
  189.3030  176.6230  143.8580 C   0  0  0  0  0  0  0  0  0  0  0  0
  191.7680  176.1040  144.0200 C   0  0  0  0  0  2  0  0  0  0  0  0
  190.4710  175.8840  143.2540 C   0  0  0  0  0  2  0  0  0  0  0  0
  188.0850  178.1190  147.0610 C   0  0  0  0  0  3  0  0  0  0  0  0
  188.0790  177.6140  145.7520 C   0  0  0  0  0  0  0  0  0  0  0  0
  188.4670  178.0640  141.9850 C   0  0  2  0  0  3  0  0  0  0  0  0
  185.9240  179.0470  141.6460 S   0  0  0  0  0  0  0  0  0  0  0  0
  187.3550  178.4970  141.0670 C   0  0  0  0  0  0  0  0  0  0  0  0
  187.5520  177.7970  138.3620 C   0  0  0  0  0  0  0  0  0  0  0  0
  188.3990  178.7750  138.5810 O   0  0  0  0  0  0  0  0  0  0  0  0
  187.5860  178.5240  139.6630 N   0  0  0  0  0  0  0  0  0  0  0  0
  186.0430  177.9800  138.0910 C   0  0  0  0  0  2  0  0  0  0  0  0
  186.9780  178.3930  137.0600 C   0  0  0  0  0  2  0  0  0  0  0  0
  190.8330  178.4370  142.2640 O   0  0  0  0  0  1  0  0  0  0  0  0
  189.8610  178.0320  141.3470 C   0  0  1  0  0  3  0  0  0  0  0  0
  190.2390  176.7100  140.6650 C   0  0  0  0  0  2  0  0  0  0  0  0
  191.3880  176.8330  139.6700 C   0  0  0  0  0  2  0  0  0  0  0  0
  190.9630  174.8140  138.2650 O   0  0  0  0  0  1  0  0  0  0  0  0
  191.0400  176.1960  138.3670 C   0  0  0  0  0  0  0  0  0  0  0  0
  190.8210  176.9140  137.3580 O   0  0  0  0  0  0  0  0  0  0  0  0
  1 10  1  0  0  0  0
  2  6  1  0  0  0  0
  4 16  1  1  0  0  0
  4  1  1  0  0  0  0
  4 11  1  0  0  0  0
  5  3  1  0  0  0  0
  6  9  2  0  0  0  0
  7  2  1  0  0  0  0
  8 15  1  0  0  0  0
  8  3  1  0  0  0  0
 10  2  2  0  0  0  0
 10 15  1  0  0  0  0
 11  8  2  0  0  0  0
 12  5  1  0  0  0  0
 13 11  1  0  0  0  0
 13 12  1  0  0  0  0
 14  9  1  0  0  0  0
 15 14  2  0  0  0  0
 16 18  1  6  0  0  0
 18 17  2  0  0  0  0
 19 20  1  0  0  0  0
 19 21  1  0  0  0  0
 20 21  1  0  0  0  0
 21 18  1  0  0  0  0
 22 19  1  0  0  0  0
 23 22  1  0  0  0  0
 23 19  1  0  0  0  0
 25 16  1  0  0  0  0
 25 24  1  1  0  0  0
 26 25  1  0  0  0  0
 27 26  1  0  0  0  0
 28 29  1  0  0  0  0
 29 27  1  0  0  0  0
 30 29  2  0  0  0  0
M  END
>  <MODEL>
7

>  <REMARK>
 VINA RESULT:      -7.1      4.144      6.557
  Name = 
  7 active torsions:
  status: ('A' for Active; 'I' for Inactive)
    1  A    between atoms: C_4  and  C_13
    2  A    between atoms: C_7  and  C_15
    3  A    between atoms: C_7  and  C_16
    4  A    between atoms: C_8  and  N_12
    5  A    between atoms: C_8  and  C_13
    6  A    between atoms: C_13  and  C_30
    7  A    between atoms: C_16  and  C_30
                            x       y       z     vdW  Elec       q    Type
                         _______ _______ _______ _____ _____    ______ ____

>  <TORSDO>
F 7

$$$$
=
 OpenBabel10262421553D

 30 34  0  0  1  0  0  0  0  0999 V2000
  188.9440  178.4610  140.5240 N   0  0  0  0  0  2  0  0  0  0  0  0
  190.6950  177.0850  141.5680 C   0  0  0  0  0  0  0  0  0  0  0  0
  186.2310  177.5510  143.7880 C   0  0  0  0  0  2  0  0  0  0  0  0
  187.5250  178.7370  140.3020 C   0  0  2  0  0  3  0  0  0  0  0  0
  185.0840  178.5460  143.9250 C   0  0  0  0  0  2  0  0  0  0  0  0
  191.1030  176.2180  142.5860 C   0  0  0  0  0  3  0  0  0  0  0  0
  191.8300  177.5040  140.2960 Cl  0  0  0  0  0  0  0  0  0  0  0  0
  187.1370  177.8450  142.6120 C   0  0  0  0  0  0  0  0  0  0  0  0
  190.2170  175.8640  143.6040 C   0  0  0  0  0  3  0  0  0  0  0  0
  189.3860  177.5900  141.5660 C   0  0  0  0  0  0  0  0  0  0  0  0
  186.6990  178.5780  141.5570 C   0  0  0  0  0  0  0  0  0  0  0  0
  184.3950  178.6920  142.5810 C   0  0  0  0  0  2  0  0  0  0  0  0
  185.3750  179.3000  141.5880 C   0  0  0  0  0  2  0  0  0  0  0  0
  188.9180  176.3790  143.6110 C   0  0  0  0  0  3  0  0  0  0  0  0
  188.4930  177.2440  142.5920 C   0  0  0  0  0  0  0  0  0  0  0  0
  186.9520  177.8800  139.1630 C   0  0  2  0  0  3  0  0  0  0  0  0
  188.5760  178.9070  137.2010 S   0  0  0  0  0  0  0  0  0  0  0  0
  187.8620  177.6590  137.9840 C   0  0  0  0  0  0  0  0  0  0  0  0
  188.9770  175.4240  136.7150 C   0  0  0  0  0  0  0  0  0  0  0  0
  187.8190  175.0600  137.2140 O   0  0  0  0  0  0  0  0  0  0  0  0
  188.1900  176.3270  137.6020 N   0  0  0  0  0  0  0  0  0  0  0  0
  190.2980  175.4950  137.5110 C   0  0  0  0  0  2  0  0  0  0  0  0
  189.7470  174.1850  137.2170 C   0  0  0  0  0  2  0  0  0  0  0  0
  185.3050  179.4180  138.3020 O   0  0  0  0  0  1  0  0  0  0  0  0
  185.4800  178.1300  138.8100 C   0  0  1  0  0  3  0  0  0  0  0  0
  184.8330  177.0700  137.9080 C   0  0  0  0  0  2  0  0  0  0  0  0
  183.3350  177.2640  137.6990 C   0  0  0  0  0  2  0  0  0  0  0  0
  182.6660  176.1750  139.8420 O   0  0  0  0  0  1  0  0  0  0  0  0
  182.6080  177.2770  139.0000 C   0  0  0  0  0  0  0  0  0  0  0  0
  181.9380  178.2880  139.3330 O   0  0  0  0  0  0  0  0  0  0  0  0
  1 10  1  0  0  0  0
  2  6  1  0  0  0  0
  3  5  1  0  0  0  0
  4 16  1  6  0  0  0
  4  1  1  0  0  0  0
  4 11  1  0  0  0  0
  6  9  2  0  0  0  0
  7  2  1  0  0  0  0
  8  3  1  0  0  0  0
  9 14  1  0  0  0  0
 10  2  2  0  0  0  0
 10 15  1  0  0  0  0
 11 13  1  0  0  0  0
 11  8  2  0  0  0  0
 12  5  1  0  0  0  0
 13 12  1  0  0  0  0
 15  8  1  0  0  0  0
 15 14  2  0  0  0  0
 16 18  1  6  0  0  0
 17 18  2  0  0  0  0
 19 20  1  0  0  0  0
 19 23  1  0  0  0  0
 19 22  1  0  0  0  0
 19 21  1  0  0  0  0
 20 21  1  0  0  0  0
 21 18  1  0  0  0  0
 23 22  1  0  0  0  0
 25 24  1  6  0  0  0
 25 16  1  0  0  0  0
 26 25  1  0  0  0  0
 27 26  1  0  0  0  0
 27 29  1  0  0  0  0
 29 30  2  0  0  0  0
 29 28  1  0  0  0  0
M  END
>  <MODEL>
8

>  <REMARK>
 VINA RESULT:      -7.0      2.514      3.379
  Name = 
  7 active torsions:
  status: ('A' for Active; 'I' for Inactive)
    1  A    between atoms: C_4  and  C_13
    2  A    between atoms: C_7  and  C_15
    3  A    between atoms: C_7  and  C_16
    4  A    between atoms: C_8  and  N_12
    5  A    between atoms: C_8  and  C_13
    6  A    between atoms: C_13  and  C_30
    7  A    between atoms: C_16  and  C_30
                            x       y       z     vdW  Elec       q    Type
                         _______ _______ _______ _____ _____    ______ ____

>  <TORSDO>
F 7

$$$$
=
 OpenBabel10262421553D

 30 34  0  0  1  0  0  0  0  0999 V2000
  182.8120  176.5750  140.1870 N   0  0  0  0  0  2  0  0  0  0  0  0
  181.9580  175.6590  138.0700 C   0  0  0  0  0  0  0  0  0  0  0  0
  179.1790  178.8960  140.6920 C   0  0  0  0  0  2  0  0  0  0  0  0
  182.8530  177.6640  141.1620 C   0  0  2  0  0  3  0  0  0  0  0  0
  178.9310  179.3360  142.1300 C   0  0  0  0  0  2  0  0  0  0  0  0
  180.9700  175.6210  137.0820 C   0  0  0  0  0  3  0  0  0  0  0  0
  183.3870  174.6560  137.8880 Cl  0  0  0  0  0  0  0  0  0  0  0  0
  180.4770  178.1380  140.5180 C   0  0  0  0  0  0  0  0  0  0  0  0
  179.8280  176.4150  137.2010 C   0  0  0  0  0  3  0  0  0  0  0  0
  181.8050  176.5080  139.1760 C   0  0  0  0  0  0  0  0  0  0  0  0
  181.4930  178.2740  141.4080 C   0  0  0  0  0  0  0  0  0  0  0  0
  180.1740  180.0270  142.6570 C   0  0  0  0  0  2  0  0  0  0  0  0
  181.3140  179.0200  142.7070 C   0  0  0  0  0  2  0  0  0  0  0  0
  179.6680  177.2490  138.3100 C   0  0  0  0  0  3  0  0  0  0  0  0
  180.6540  177.3020  139.3060 C   0  0  0  0  0  0  0  0  0  0  0  0
  183.8690  178.7460  140.7630 C   0  0  2  0  0  3  0  0  0  0  0  0
  182.7840  180.1700  138.6800 S   0  0  0  0  0  0  0  0  0  0  0  0
  183.8840  179.1300  139.3070 C   0  0  0  0  0  0  0  0  0  0  0  0
  185.5790  177.5060  137.7790 C   0  0  0  0  0  0  0  0  0  0  0  0
  186.2770  178.5440  138.1780 O   0  0  0  0  0  0  0  0  0  0  0  0
  184.9390  178.6580  138.4760 N   0  0  0  0  0  0  0  0  0  0  0  0
  184.6410  177.4930  136.5530 C   0  0  0  0  0  2  0  0  0  0  0  0
  186.0720  177.5540  136.3180 C   0  0  0  0  0  2  0  0  0  0  0  0
  185.9600  179.8380  141.2670 O   0  0  0  0  0  1  0  0  0  0  0  0
  185.2500  178.6460  141.4230 C   0  0  1  0  0  3  0  0  0  0  0  0
  185.2450  178.1760  142.8840 C   0  0  0  0  0  2  0  0  0  0  0  0
  184.8590  179.2620  143.8840 C   0  0  0  0  0  2  0  0  0  0  0  0
  183.8220  178.9940  146.1380 O   0  0  0  0  0  1  0  0  0  0  0  0
  184.8840  178.7400  145.2800 C   0  0  0  0  0  0  0  0  0  0  0  0
  185.8710  178.0720  145.6820 O   0  0  0  0  0  0  0  0  0  0  0  0
  1  4  1  0  0  0  0
  2 10  1  0  0  0  0
  3  5  1  0  0  0  0
  4 16  1  6  0  0  0
  4 11  1  0  0  0  0
  5 12  1  0  0  0  0
  6  9  1  0  0  0  0
  6  2  2  0  0  0  0
  7  2  1  0  0  0  0
  8  3  1  0  0  0  0
  8 11  2  0  0  0  0
  9 14  2  0  0  0  0
 10 15  2  0  0  0  0
 10  1  1  0  0  0  0
 11 13  1  0  0  0  0
 12 13  1  0  0  0  0
 14 15  1  0  0  0  0
 15  8  1  0  0  0  0
 16 18  1  6  0  0  0
 16 25  1  0  0  0  0
 17 18  2  0  0  0  0
 19 20  1  0  0  0  0
 19 21  1  0  0  0  0
 20 21  1  0  0  0  0
 21 18  1  0  0  0  0
 22 19  1  0  0  0  0
 23 22  1  0  0  0  0
 23 19  1  0  0  0  0
 25 24  1  1  0  0  0
 25 26  1  0  0  0  0
 26 27  1  0  0  0  0
 27 29  1  0  0  0  0
 29 30  2  0  0  0  0
 29 28  1  0  0  0  0
M  END
>  <MODEL>
9

>  <REMARK>
 VINA RESULT:      -6.9      2.902      5.678
  Name = 
  7 active torsions:
  status: ('A' for Active; 'I' for Inactive)
    1  A    between atoms: C_4  and  C_13
    2  A    between atoms: C_7  and  C_15
    3  A    between atoms: C_7  and  C_16
    4  A    between atoms: C_8  and  N_12
    5  A    between atoms: C_8  and  C_13
    6  A    between atoms: C_13  and  C_30
    7  A    between atoms: C_16  and  C_30
                            x       y       z     vdW  Elec       q    Type
                         _______ _______ _______ _____ _____    ______ ____

>  <TORSDO>
F 7

$$$$
