=
 OpenBabel10262421143D

 32 37  0  0  1  0  0  0  0  0999 V2000
  187.8470  177.7790  144.8100 C   0  0  0  0  0  0  0  0  0  0  0  0
  185.9210  178.3920  143.4080 C   0  0  0  0  0  0  0  0  0  0  0  0
  188.3820  177.5870  146.0930 C   0  0  0  0  0  3  0  0  0  0  0  0
  186.4870  178.1350  144.6760 C   0  0  0  0  0  0  0  0  0  0  0  0
  184.5780  178.8250  143.3120 C   0  0  0  0  0  0  0  0  0  0  0  0
  185.0460  179.4850  138.5620 N   0  0  0  0  0  2  0  0  0  0  0  0
  186.6670  178.2060  142.2260 C   0  0  0  0  0  0  0  0  0  0  0  0
  184.0760  179.2260  139.6270 C   0  0  0  0  0  2  0  0  0  0  0  0
  184.7570  178.9770  140.9430 C   0  0  0  0  0  0  0  0  0  0  0  0
  185.6820  178.2600  145.8330 C   0  0  0  0  0  0  0  0  0  0  0  0
  184.0440  179.1050  142.0920 N   0  0  0  0  0  0  0  0  0  0  0  0
  184.3460  178.6520  145.7210 C   0  0  0  0  0  3  0  0  0  0  0  0
  186.2290  178.0320  147.0980 C   0  0  0  0  0  3  0  0  0  0  0  0
  188.0190  177.5460  142.2870 C   0  0  0  0  0  2  0  0  0  0  0  0
  188.7610  177.8080  143.6070 C   0  0  2  0  0  3  0  0  0  0  0  0
  186.0770  178.4840  140.9820 C   0  0  0  0  0  0  0  0  0  0  0  0
  183.7920  178.9390  144.4710 C   0  0  0  0  0  0  0  0  0  0  0  0
  187.5770  177.6940  147.2270 C   0  0  0  0  0  3  0  0  0  0  0  0
  185.9470  178.3390  138.4800 C   0  0  0  0  0  2  0  0  0  0  0  0
  186.8600  178.3180  139.7020 C   0  0  0  0  0  2  0  0  0  0  0  0
  182.3660  179.3790  144.3960 C   0  0  0  0  0  2  0  0  0  0  0  0
  181.5430  178.2740  144.1760 O   0  0  0  0  0  1  0  0  0  0  0  0
  189.9400  176.9420  143.7840 N   0  0  0  0  0  0  0  0  0  0  0  0
  191.1090  177.7560  144.1650 C   0  0  1  0  0  3  0  0  0  0  0  0
  190.8520  179.2370  143.9470 C   0  0  0  0  0  1  0  0  0  0  0  0
  191.7170  177.4400  145.5480 C   0  0  0  0  0  2  0  0  0  0  0  0
  191.7700  175.9510  145.8570 C   0  0  0  0  0  1  0  0  0  0  0  0
  190.1690  176.0850  142.6140 C   0  0  0  0  0  2  0  0  0  0  0  0
  191.3040  176.6410  141.7710 C   0  0  0  0  0  2  0  0  0  0  0  0
  191.6920  176.8110  139.3570 C   0  0  0  0  0  2  0  0  0  0  0  0
  190.5240  176.0680  139.6000 O   0  0  0  0  0  0  0  0  0  0  0  0
  190.7650  177.1610  140.4540 C   0  0  1  0  0  3  0  0  0  0  0  0
  1  3  1  0  0  0  0
  2  4  1  0  0  0  0
  3 18  2  0  0  0  0
  4  1  2  0  0  0  0
  4 10  1  0  0  0  0
  5  2  1  0  0  0  0
  5 17  1  0  0  0  0
  6  8  1  0  0  0  0
  7 14  1  0  0  0  0
  7  2  2  0  0  0  0
  8  9  1  0  0  0  0
  9 16  2  0  0  0  0
  9 11  1  0  0  0  0
 10 13  2  0  0  0  0
 11  5  2  0  0  0  0
 12 10  1  0  0  0  0
 13 18  1  0  0  0  0
 14 15  1  0  0  0  0
 15 23  1  1  0  0  0
 15  1  1  0  0  0  0
 16  7  1  0  0  0  0
 17 12  2  0  0  0  0
 19  6  1  0  0  0  0
 19 20  1  0  0  0  0
 20 16  1  0  0  0  0
 21 17  1  0  0  0  0
 22 21  1  0  0  0  0
 23 24  1  0  0  0  0
 24 25  1  1  0  0  0
 24 26  1  0  0  0  0
 26 27  1  0  0  0  0
 28 23  1  0  0  0  0
 29 28  1  0  0  0  0
 30 31  1  0  0  0  0
 30 32  1  0  0  0  0
 31 32  1  0  0  0  0
 32 29  1  1  0  0  0
M  END
>  <MODEL>
1

>  <REMARK>
 VINA RESULT:      -9.2      0.000      0.000
  Name = 
  7 active torsions:
  status: ('A' for Active; 'I' for Inactive)
    1  A    between atoms: C_3  and  C_22
    2  A    between atoms: C_13  and  C_29
    3  A    between atoms: C_15  and  C_20
    4  A    between atoms: C_15  and  C_26
    5  A    between atoms: N_16  and  C_20
    6  A    between atoms: N_16  and  C_22
    7  A    between atoms: N_16  and  C_27
                            x       y       z     vdW  Elec       q    Type
                         _______ _______ _______ _____ _____    ______ ____

>  <TORSDO>
F 7

$$$$
=
 OpenBabel10262421143D

 32 37  0  0  1  0  0  0  0  0999 V2000
  184.3650  178.5790  142.7550 C   0  0  0  0  0  0  0  0  0  0  0  0
  186.7750  178.1120  142.9080 C   0  0  0  0  0  0  0  0  0  0  0  0
  183.1420  178.7900  143.4100 C   0  0  0  0  0  3  0  0  0  0  0  0
  185.5340  178.3820  143.5240 C   0  0  0  0  0  0  0  0  0  0  0  0
  187.9110  177.8380  143.7060 C   0  0  0  0  0  0  0  0  0  0  0  0
  190.5170  176.8150  139.7840 N   0  0  0  0  0  2  0  0  0  0  0  0
  186.9120  178.1280  141.5050 C   0  0  0  0  0  0  0  0  0  0  0  0
  190.6060  177.2580  141.1760 C   0  0  0  0  0  2  0  0  0  0  0  0
  189.2430  177.5100  141.7610 C   0  0  0  0  0  0  0  0  0  0  0  0
  185.4560  178.4300  144.9360 C   0  0  0  0  0  0  0  0  0  0  0  0
  189.0990  177.5440  143.1100 N   0  0  0  0  0  0  0  0  0  0  0  0
  186.5930  178.1950  145.7110 C   0  0  0  0  0  3  0  0  0  0  0  0
  184.2320  178.6740  145.5650 C   0  0  0  0  0  3  0  0  0  0  0  0
  185.7780  178.6230  140.6470 C   0  0  0  0  0  2  0  0  0  0  0  0
  184.3940  178.3620  141.2610 C   0  0  2  0  0  3  0  0  0  0  0  0
  188.1590  177.8420  140.9250 C   0  0  0  0  0  0  0  0  0  0  0  0
  187.8160  177.8960  145.1060 C   0  0  0  0  0  0  0  0  0  0  0  0
  183.0770  178.8550  144.8020 C   0  0  0  0  0  3  0  0  0  0  0  0
  189.8000  177.8370  139.0270 C   0  0  0  0  0  2  0  0  0  0  0  0
  188.3270  177.8280  139.4250 C   0  0  0  0  0  2  0  0  0  0  0  0
  189.0050  177.6260  145.9710 C   0  0  0  0  0  2  0  0  0  0  0  0
  188.5840  177.1700  147.2200 O   0  0  0  0  0  1  0  0  0  0  0  0
  183.3140  179.0890  140.5720 N   0  0  0  0  0  0  0  0  0  0  0  0
  182.2340  178.1550  140.2030 C   0  0  1  0  0  3  0  0  0  0  0  0
  182.7540  176.7360  140.0480 C   0  0  0  0  0  1  0  0  0  0  0  0
  180.9550  178.2450  141.0610 C   0  0  0  0  0  2  0  0  0  0  0  0
  179.9990  177.0810  140.8410 C   0  0  0  0  0  1  0  0  0  0  0  0
  183.8210  179.8850  139.4470 C   0  0  0  0  0  2  0  0  0  0  0  0
  182.7100  180.1400  138.4430 C   0  0  0  0  0  2  0  0  0  0  0  0
  180.9450  181.7060  137.7790 C   0  0  0  0  0  2  0  0  0  0  0  0
  180.7730  181.3360  139.1240 O   0  0  0  0  0  0  0  0  0  0  0  0
  182.0980  181.5050  138.6820 C   0  0  1  0  0  3  0  0  0  0  0  0
  1  3  2  0  0  0  0
  1  4  1  0  0  0  0
  2  4  2  0  0  0  0
  2  5  1  0  0  0  0
  3 18  1  0  0  0  0
  4 10  1  0  0  0  0
  5 17  2  0  0  0  0
  6  8  1  0  0  0  0
  7  2  1  0  0  0  0
  8  9  1  0  0  0  0
  9 11  2  0  0  0  0
 10 13  1  0  0  0  0
 10 12  2  0  0  0  0
 11  5  1  0  0  0  0
 14 15  1  0  0  0  0
 14  7  1  0  0  0  0
 15 23  1  6  0  0  0
 15  1  1  0  0  0  0
 16  7  2  0  0  0  0
 16  9  1  0  0  0  0
 17 12  1  0  0  0  0
 17 21  1  0  0  0  0
 18 13  2  0  0  0  0
 19 20  1  0  0  0  0
 19  6  1  0  0  0  0
 20 16  1  0  0  0  0
 21 22  1  0  0  0  0
 24 25  1  1  0  0  0
 24 23  1  0  0  0  0
 24 26  1  0  0  0  0
 27 26  1  0  0  0  0
 28 23  1  0  0  0  0
 29 28  1  0  0  0  0
 30 32  1  0  0  0  0
 30 31  1  0  0  0  0
 32 29  1  6  0  0  0
 32 31  1  0  0  0  0
M  END
>  <MODEL>
2

>  <REMARK>
 VINA RESULT:      -8.7      2.602      6.844
  Name = 
  7 active torsions:
  status: ('A' for Active; 'I' for Inactive)
    1  A    between atoms: C_3  and  C_22
    2  A    between atoms: C_13  and  C_29
    3  A    between atoms: C_15  and  C_20
    4  A    between atoms: C_15  and  C_26
    5  A    between atoms: N_16  and  C_20
    6  A    between atoms: N_16  and  C_22
    7  A    between atoms: N_16  and  C_27
                            x       y       z     vdW  Elec       q    Type
                         _______ _______ _______ _____ _____    ______ ____

>  <TORSDO>
F 7

$$$$
=
 OpenBabel10262421143D

 32 37  0  0  1  0  0  0  0  0999 V2000
  189.6580  177.7560  142.0880 C   0  0  0  0  0  0  0  0  0  0  0  0
  187.8300  177.8930  143.7280 C   0  0  0  0  0  0  0  0  0  0  0  0
  191.0210  177.5430  141.8290 C   0  0  0  0  0  3  0  0  0  0  0  0
  189.1810  177.6340  143.4130 C   0  0  0  0  0  0  0  0  0  0  0  0
  187.4000  177.8420  145.0750 C   0  0  0  0  0  0  0  0  0  0  0  0
  183.0270  179.4310  143.8220 N   0  0  0  0  0  2  0  0  0  0  0  0
  186.8880  178.1840  142.7190 C   0  0  0  0  0  0  0  0  0  0  0  0
  183.7600  178.6730  144.8360 C   0  0  0  0  0  2  0  0  0  0  0  0
  185.1910  178.4530  144.4310 C   0  0  0  0  0  0  0  0  0  0  0  0
  190.0770  177.2710  144.4460 C   0  0  0  0  0  0  0  0  0  0  0  0
  186.1040  178.1250  145.3810 N   0  0  0  0  0  0  0  0  0  0  0  0
  189.6310  177.1880  145.7660 C   0  0  0  0  0  3  0  0  0  0  0  0
  191.4240  177.0330  144.1580 C   0  0  0  0  0  3  0  0  0  0  0  0
  187.2710  178.0350  141.2710 C   0  0  0  0  0  2  0  0  0  0  0  0
  188.7600  178.3070  141.0060 C   0  0  2  0  0  3  0  0  0  0  0  0
  185.5550  178.4500  143.0700 C   0  0  0  0  0  0  0  0  0  0  0  0
  188.3020  177.4750  146.0870 C   0  0  0  0  0  0  0  0  0  0  0  0
  191.8940  177.1680  142.8500 C   0  0  0  0  0  3  0  0  0  0  0  0
  183.1100  178.7020  142.5600 C   0  0  0  0  0  2  0  0  0  0  0  0
  184.5320  178.7890  142.0130 C   0  0  0  0  0  2  0  0  0  0  0  0
  187.8700  177.3980  147.5150 C   0  0  0  0  0  2  0  0  0  0  0  0
  188.9140  177.8050  148.3460 O   0  0  0  0  0  1  0  0  0  0  0  0
  189.1900  177.8870  139.6610 N   0  0  0  0  0  0  0  0  0  0  0  0
  188.3100  178.4890  138.6420 C   0  0  1  0  0  3  0  0  0  0  0  0
  189.1080  179.2320  137.5850 C   0  0  0  0  0  1  0  0  0  0  0  0
  187.2400  177.5480  138.0480 C   0  0  0  0  0  2  0  0  0  0  0  0
  185.8650  178.1910  137.9400 C   0  0  0  0  0  1  0  0  0  0  0  0
  189.3090  176.4280  139.5540 C   0  0  0  0  0  2  0  0  0  0  0  0
  190.5200  176.0600  138.7150 C   0  0  0  0  0  2  0  0  0  0  0  0
  191.2530  174.9540  136.6540 C   0  0  0  0  0  2  0  0  0  0  0  0
  190.8180  173.9920  137.5820 O   0  0  0  0  0  0  0  0  0  0  0  0
  190.0970  175.2000  137.5410 C   0  0  1  0  0  3  0  0  0  0  0  0
  1  4  1  0  0  0  0
  2  5  1  0  0  0  0
  3  1  2  0  0  0  0
  3 18  1  0  0  0  0
  4  2  2  0  0  0  0
  4 10  1  0  0  0  0
  5 11  1  0  0  0  0
  5 17  2  0  0  0  0
  6  8  1  0  0  0  0
  7 16  2  0  0  0  0
  7  2  1  0  0  0  0
  9  8  1  0  0  0  0
  9 11  2  0  0  0  0
 10 12  2  0  0  0  0
 12 17  1  0  0  0  0
 13 10  1  0  0  0  0
 14  7  1  0  0  0  0
 15 23  1  6  0  0  0
 15 14  1  0  0  0  0
 15  1  1  0  0  0  0
 16  9  1  0  0  0  0
 17 21  1  0  0  0  0
 18 13  2  0  0  0  0
 19  6  1  0  0  0  0
 20 19  1  0  0  0  0
 20 16  1  0  0  0  0
 21 22  1  0  0  0  0
 24 25  1  6  0  0  0
 24 23  1  0  0  0  0
 26 24  1  0  0  0  0
 27 26  1  0  0  0  0
 28 23  1  0  0  0  0
 29 28  1  0  0  0  0
 30 32  1  0  0  0  0
 30 31  1  0  0  0  0
 32 31  1  0  0  0  0
 32 29  1  1  0  0  0
M  END
>  <MODEL>
3

>  <REMARK>
 VINA RESULT:      -8.5      2.385      4.996
  Name = 
  7 active torsions:
  status: ('A' for Active; 'I' for Inactive)
    1  A    between atoms: C_3  and  C_22
    2  A    between atoms: C_13  and  C_29
    3  A    between atoms: C_15  and  C_20
    4  A    between atoms: C_15  and  C_26
    5  A    between atoms: N_16  and  C_20
    6  A    between atoms: N_16  and  C_22
    7  A    between atoms: N_16  and  C_27
                            x       y       z     vdW  Elec       q    Type
                         _______ _______ _______ _____ _____    ______ ____

>  <TORSDO>
F 7

$$$$
=
 OpenBabel10262421143D

 32 37  0  0  1  0  0  0  0  0999 V2000
  184.2300  178.5900  142.8200 C   0  0  0  0  0  0  0  0  0  0  0  0
  186.4590  177.9730  143.6580 C   0  0  0  0  0  0  0  0  0  0  0  0
  182.8990  178.9360  143.0990 C   0  0  0  0  0  3  0  0  0  0  0  0
  185.1260  178.3760  143.8910 C   0  0  0  0  0  0  0  0  0  0  0  0
  187.3090  177.6880  144.7520 C   0  0  0  0  0  0  0  0  0  0  0  0
  190.7770  176.1770  141.7680 N   0  0  0  0  0  2  0  0  0  0  0  0
  186.9700  177.8680  142.3480 C   0  0  0  0  0  0  0  0  0  0  0  0
  190.5250  176.7230  143.1020 C   0  0  0  0  0  2  0  0  0  0  0  0
  189.0830  177.1140  143.2730 C   0  0  0  0  0  0  0  0  0  0  0  0
  184.6740  178.5430  145.2220 C   0  0  0  0  0  0  0  0  0  0  0  0
  188.5830  177.2670  144.5260 N   0  0  0  0  0  0  0  0  0  0  0  0
  185.5350  178.2940  146.2920 C   0  0  0  0  0  3  0  0  0  0  0  0
  183.3520  178.9200  145.4730 C   0  0  0  0  0  3  0  0  0  0  0  0
  186.1590  178.3680  141.1830 C   0  0  0  0  0  2  0  0  0  0  0  0
  184.6420  178.2520  141.4070 C   0  0  2  0  0  3  0  0  0  0  0  0
  188.2970  177.4510  142.1530 C   0  0  0  0  0  0  0  0  0  0  0  0
  186.8450  177.8640  146.0670 C   0  0  0  0  0  0  0  0  0  0  0  0
  182.4670  179.1170  144.4120 C   0  0  0  0  0  3  0  0  0  0  0  0
  190.3840  177.1810  140.7840 C   0  0  0  0  0  2  0  0  0  0  0  0
  188.8620  177.3050  140.7610 C   0  0  0  0  0  2  0  0  0  0  0  0
  187.7270  177.5850  147.2400 C   0  0  0  0  0  2  0  0  0  0  0  0
  187.6110  178.6160  148.1730 O   0  0  0  0  0  1  0  0  0  0  0  0
  183.8570  178.9940  140.4050 N   0  0  0  0  0  0  0  0  0  0  0  0
  182.7850  178.1340  139.8690 C   0  0  1  0  0  3  0  0  0  0  0  0
  182.9720  176.6860  140.2870 C   0  0  0  0  0  1  0  0  0  0  0  0
  181.3470  178.6500  140.0880 C   0  0  0  0  0  2  0  0  0  0  0  0
  180.4270  177.6180  140.7220 C   0  0  0  0  0  1  0  0  0  0  0  0
  184.7120  179.5910  139.3710 C   0  0  0  0  0  2  0  0  0  0  0  0
  184.7140  178.7200  138.1270 C   0  0  0  0  0  2  0  0  0  0  0  0
  186.3700  177.8690  136.5320 C   0  0  0  0  0  2  0  0  0  0  0  0
  186.9260  178.9210  137.2800 O   0  0  0  0  0  0  0  0  0  0  0  0
  186.0620  178.0470  137.9660 C   0  0  1  0  0  3  0  0  0  0  0  0
  1  3  2  0  0  0  0
  1  4  1  0  0  0  0
  2  4  2  0  0  0  0
  2  5  1  0  0  0  0
  3 18  1  0  0  0  0
  4 10  1  0  0  0  0
  5 17  2  0  0  0  0
  6  8  1  0  0  0  0
  7  2  1  0  0  0  0
  8  9  1  0  0  0  0
  9 11  2  0  0  0  0
 10 13  1  0  0  0  0
 10 12  2  0  0  0  0
 11  5  1  0  0  0  0
 14 15  1  0  0  0  0
 14  7  1  0  0  0  0
 15 23  1  6  0  0  0
 15  1  1  0  0  0  0
 16  7  2  0  0  0  0
 16  9  1  0  0  0  0
 17 12  1  0  0  0  0
 17 21  1  0  0  0  0
 18 13  2  0  0  0  0
 19  6  1  0  0  0  0
 20 19  1  0  0  0  0
 20 16  1  0  0  0  0
 21 22  1  0  0  0  0
 24 26  1  0  0  0  0
 24 25  1  1  0  0  0
 24 23  1  0  0  0  0
 26 27  1  0  0  0  0
 28 23  1  0  0  0  0
 29 28  1  0  0  0  0
 30 31  1  0  0  0  0
 30 32  1  0  0  0  0
 31 32  1  0  0  0  0
 32 29  1  6  0  0  0
M  END
>  <MODEL>
4

>  <REMARK>
 VINA RESULT:      -8.1      2.141      6.109
  Name = 
  7 active torsions:
  status: ('A' for Active; 'I' for Inactive)
    1  A    between atoms: C_3  and  C_22
    2  A    between atoms: C_13  and  C_29
    3  A    between atoms: C_15  and  C_20
    4  A    between atoms: C_15  and  C_26
    5  A    between atoms: N_16  and  C_20
    6  A    between atoms: N_16  and  C_22
    7  A    between atoms: N_16  and  C_27
                            x       y       z     vdW  Elec       q    Type
                         _______ _______ _______ _____ _____    ______ ____

>  <TORSDO>
F 7

$$$$
=
 OpenBabel10262421143D

 32 37  0  0  1  0  0  0  0  0999 V2000
  183.4300  178.5430  141.9060 C   0  0  0  0  0  0  0  0  0  0  0  0
  185.3690  178.2870  143.3980 C   0  0  0  0  0  0  0  0  0  0  0  0
  182.0550  178.7820  141.7590 C   0  0  0  0  0  3  0  0  0  0  0  0
  184.0020  178.5760  143.1970 C   0  0  0  0  0  0  0  0  0  0  0  0
  185.8940  178.2480  144.7110 C   0  0  0  0  0  0  0  0  0  0  0  0
  190.1470  176.7090  143.0490 N   0  0  0  0  0  2  0  0  0  0  0  0
  186.2330  178.0540  142.3080 C   0  0  0  0  0  0  0  0  0  0  0  0
  189.4980  177.4070  144.1600 C   0  0  0  0  0  2  0  0  0  0  0  0
  188.0440  177.6630  143.8730 C   0  0  0  0  0  0  0  0  0  0  0  0
  183.1860  178.8780  144.3130 C   0  0  0  0  0  0  0  0  0  0  0  0
  187.2050  177.9360  144.9050 N   0  0  0  0  0  0  0  0  0  0  0  0
  183.7260  178.8730  145.6010 C   0  0  0  0  0  3  0  0  0  0  0  0
  181.8250  179.1450  144.1380 C   0  0  0  0  0  3  0  0  0  0  0  0
  185.7500  178.2980  140.9030 C   0  0  0  0  0  2  0  0  0  0  0  0
  184.2420  178.0560  140.7290 C   0  0  2  0  0  3  0  0  0  0  0  0
  187.5850  177.7560  142.5440 C   0  0  0  0  0  0  0  0  0  0  0  0
  185.0700  178.5560  145.8060 C   0  0  0  0  0  0  0  0  0  0  0  0
  181.2620  179.0980  142.8610 C   0  0  0  0  0  3  0  0  0  0  0  0
  189.9840  177.5190  141.8450 C   0  0  0  0  0  2  0  0  0  0  0  0
  188.5250  177.4770  141.3970 C   0  0  0  0  0  2  0  0  0  0  0  0
  185.6040  178.5380  147.2020 C   0  0  0  0  0  2  0  0  0  0  0  0
  185.8610  179.8420  147.6250 O   0  0  0  0  0  1  0  0  0  0  0  0
  183.7230  178.5640  139.4470 N   0  0  0  0  0  0  0  0  0  0  0  0
  182.9060  177.5280  138.7890 C   0  0  1  0  0  3  0  0  0  0  0  0
  182.9150  176.2290  139.5760 C   0  0  0  0  0  1  0  0  0  0  0  0
  181.4920  177.9700  138.3600 C   0  0  0  0  0  2  0  0  0  0  0  0
  181.4970  179.0130  137.2520 C   0  0  0  0  0  1  0  0  0  0  0  0
  184.7940  179.1030  138.5980 C   0  0  0  0  0  2  0  0  0  0  0  0
  185.1740  178.0930  137.5290 C   0  0  0  0  0  2  0  0  0  0  0  0
  187.1500  178.1840  136.0820 C   0  0  0  0  0  2  0  0  0  0  0  0
  187.2370  179.1800  137.0700 O   0  0  0  0  0  0  0  0  0  0  0  0
  186.6810  177.9490  137.4630 C   0  0  1  0  0  3  0  0  0  0  0  0
  1  4  1  0  0  0  0
  2  5  1  0  0  0  0
  3  1  2  0  0  0  0
  3 18  1  0  0  0  0
  4  2  2  0  0  0  0
  4 10  1  0  0  0  0
  5 11  1  0  0  0  0
  5 17  2  0  0  0  0
  6  8  1  0  0  0  0
  7 16  2  0  0  0  0
  7  2  1  0  0  0  0
  9  8  1  0  0  0  0
  9 11  2  0  0  0  0
 10 12  2  0  0  0  0
 12 17  1  0  0  0  0
 13 10  1  0  0  0  0
 14  7  1  0  0  0  0
 15 23  1  6  0  0  0
 15 14  1  0  0  0  0
 15  1  1  0  0  0  0
 16  9  1  0  0  0  0
 17 21  1  0  0  0  0
 18 13  2  0  0  0  0
 19  6  1  0  0  0  0
 20 19  1  0  0  0  0
 20 16  1  0  0  0  0
 21 22  1  0  0  0  0
 24 23  1  0  0  0  0
 24 25  1  1  0  0  0
 26 24  1  0  0  0  0
 27 26  1  0  0  0  0
 28 23  1  0  0  0  0
 29 28  1  0  0  0  0
 30 31  1  0  0  0  0
 30 32  1  0  0  0  0
 31 32  1  0  0  0  0
 32 29  1  6  0  0  0
M  END
>  <MODEL>
5

>  <REMARK>
 VINA RESULT:      -8.0      2.148      6.305
  Name = 
  7 active torsions:
  status: ('A' for Active; 'I' for Inactive)
    1  A    between atoms: C_3  and  C_22
    2  A    between atoms: C_13  and  C_29
    3  A    between atoms: C_15  and  C_20
    4  A    between atoms: C_15  and  C_26
    5  A    between atoms: N_16  and  C_20
    6  A    between atoms: N_16  and  C_22
    7  A    between atoms: N_16  and  C_27
                            x       y       z     vdW  Elec       q    Type
                         _______ _______ _______ _____ _____    ______ ____

>  <TORSDO>
F 7

$$$$
=
 OpenBabel10262421143D

 32 37  0  0  1  0  0  0  0  0999 V2000
  182.5360  178.7220  141.7130 C   0  0  0  0  0  0  0  0  0  0  0  0
  184.8250  178.5350  142.5950 C   0  0  0  0  0  0  0  0  0  0  0  0
  181.1600  178.8280  141.9660 C   0  0  0  0  0  3  0  0  0  0  0  0
  183.4370  178.6960  142.8010 C   0  0  0  0  0  0  0  0  0  0  0  0
  185.6930  178.4300  143.7070 C   0  0  0  0  0  0  0  0  0  0  0  0
  189.4280  177.5100  140.8060 N   0  0  0  0  0  2  0  0  0  0  0  0
  185.3700  178.4970  141.2960 C   0  0  0  0  0  0  0  0  0  0  0  0
  189.0580  178.0290  142.1240 C   0  0  0  0  0  2  0  0  0  0  0  0
  187.5670  178.1560  142.2660 C   0  0  0  0  0  0  0  0  0  0  0  0
  182.9400  178.8060  144.1210 C   0  0  0  0  0  0  0  0  0  0  0  0
  187.0260  178.2420  143.5080 N   0  0  0  0  0  0  0  0  0  0  0  0
  183.8120  178.7380  145.2090 C   0  0  0  0  0  3  0  0  0  0  0  0
  181.5670  178.9420  144.3460 C   0  0  0  0  0  3  0  0  0  0  0  0
  184.5020  178.8180  140.1080 C   0  0  0  0  0  2  0  0  0  0  0  0
  183.0270  178.4350  140.3140 C   0  0  2  0  0  3  0  0  0  0  0  0
  186.7530  178.3220  141.1280 C   0  0  0  0  0  0  0  0  0  0  0  0
  185.1820  178.5470  145.0110 C   0  0  0  0  0  0  0  0  0  0  0  0
  180.6790  178.9550  143.2690 C   0  0  0  0  0  3  0  0  0  0  0  0
  188.8780  178.4060  139.7940 C   0  0  0  0  0  2  0  0  0  0  0  0
  187.3600  178.2530  139.7470 C   0  0  0  0  0  2  0  0  0  0  0  0
  186.0790  178.4560  146.2020 C   0  0  0  0  0  2  0  0  0  0  0  0
  185.6870  179.3900  147.1600 O   0  0  0  0  0  1  0  0  0  0  0  0
  182.1380  179.0020  139.2850 N   0  0  0  0  0  0  0  0  0  0  0  0
  181.7890  177.9660  138.2960 C   0  0  1  0  0  3  0  0  0  0  0  0
  182.8340  177.8680  137.1990 C   0  0  0  0  0  1  0  0  0  0  0  0
  181.3910  176.5950  138.8820 C   0  0  0  0  0  2  0  0  0  0  0  0
  179.9400  176.5320  139.3360 C   0  0  0  0  0  1  0  0  0  0  0  0
  182.6970  180.2240  138.6920 C   0  0  0  0  0  2  0  0  0  0  0  0
  181.6610  181.3340  138.7040 C   0  0  0  0  0  2  0  0  0  0  0  0
  179.7400  182.0050  137.3360 C   0  0  0  0  0  2  0  0  0  0  0  0
  180.7790  182.9420  137.1920 O   0  0  0  0  0  0  0  0  0  0  0  0
  181.1590  181.5910  137.2980 C   0  0  1  0  0  3  0  0  0  0  0  0
  1  3  2  0  0  0  0
  1  4  1  0  0  0  0
  2  4  2  0  0  0  0
  2  5  1  0  0  0  0
  3 18  1  0  0  0  0
  4 10  1  0  0  0  0
  5 17  2  0  0  0  0
  6  8  1  0  0  0  0
  7  2  1  0  0  0  0
  8  9  1  0  0  0  0
  9 11  2  0  0  0  0
 10 13  1  0  0  0  0
 10 12  2  0  0  0  0
 11  5  1  0  0  0  0
 14 15  1  0  0  0  0
 14  7  1  0  0  0  0
 15 23  1  6  0  0  0
 15  1  1  0  0  0  0
 16  7  2  0  0  0  0
 16  9  1  0  0  0  0
 17 12  1  0  0  0  0
 17 21  1  0  0  0  0
 18 13  2  0  0  0  0
 19  6  1  0  0  0  0
 20 19  1  0  0  0  0
 20 16  1  0  0  0  0
 21 22  1  0  0  0  0
 24 25  1  6  0  0  0
 24 26  1  0  0  0  0
 24 23  1  0  0  0  0
 26 27  1  0  0  0  0
 28 29  1  0  0  0  0
 28 23  1  0  0  0  0
 31 32  1  0  0  0  0
 31 30  1  0  0  0  0
 32 30  1  0  0  0  0
 32 29  1  1  0  0  0
M  END
>  <MODEL>
6

>  <REMARK>
 VINA RESULT:      -8.0      2.980      7.392
  Name = 
  7 active torsions:
  status: ('A' for Active; 'I' for Inactive)
    1  A    between atoms: C_3  and  C_22
    2  A    between atoms: C_13  and  C_29
    3  A    between atoms: C_15  and  C_20
    4  A    between atoms: C_15  and  C_26
    5  A    between atoms: N_16  and  C_20
    6  A    between atoms: N_16  and  C_22
    7  A    between atoms: N_16  and  C_27
                            x       y       z     vdW  Elec       q    Type
                         _______ _______ _______ _____ _____    ______ ____

>  <TORSDO>
F 7

$$$$
=
 OpenBabel10262421143D

 32 37  0  0  1  0  0  0  0  0999 V2000
  187.5130  178.2970  144.8160 C   0  0  0  0  0  0  0  0  0  0  0  0
  185.8350  178.4300  143.0230 C   0  0  0  0  0  0  0  0  0  0  0  0
  187.8010  178.3030  146.1900 C   0  0  0  0  0  3  0  0  0  0  0  0
  186.1670  178.3770  144.3940 C   0  0  0  0  0  0  0  0  0  0  0  0
  184.4850  178.5930  142.6330 C   0  0  0  0  0  0  0  0  0  0  0  0
  185.7850  178.9850  138.0100 N   0  0  0  0  0  2  0  0  0  0  0  0
  186.8250  178.3040  142.0270 C   0  0  0  0  0  0  0  0  0  0  0  0
  184.6780  178.6240  138.8970 C   0  0  0  0  0  2  0  0  0  0  0  0
  185.1110  178.6050  140.3370 C   0  0  0  0  0  0  0  0  0  0  0  0
  185.1350  178.4310  145.3610 C   0  0  0  0  0  0  0  0  0  0  0  0
  184.1690  178.6780  141.3120 N   0  0  0  0  0  0  0  0  0  0  0  0
  183.8030  178.5540  144.9610 C   0  0  0  0  0  3  0  0  0  0  0  0
  185.4450  178.4030  146.7230 C   0  0  0  0  0  3  0  0  0  0  0  0
  188.2290  177.9190  142.4100 C   0  0  0  0  0  2  0  0  0  0  0  0
  188.6320  178.4120  143.8090 C   0  0  2  0  0  3  0  0  0  0  0  0
  186.4600  178.3750  140.6720 C   0  0  0  0  0  0  0  0  0  0  0  0
  183.4720  178.6390  143.6060 C   0  0  0  0  0  0  0  0  0  0  0  0
  186.7780  178.3370  147.1360 C   0  0  0  0  0  3  0  0  0  0  0  0
  186.8660  178.0280  138.2200 C   0  0  0  0  0  2  0  0  0  0  0  0
  187.5030  178.2680  139.5870 C   0  0  0  0  0  2  0  0  0  0  0  0
  182.0370  178.7940  143.2200 C   0  0  0  0  0  2  0  0  0  0  0  0
  181.2270  178.6280  144.3430 O   0  0  0  0  0  1  0  0  0  0  0  0
  189.8820  177.8000  144.2940 N   0  0  0  0  0  0  0  0  0  0  0  0
  191.0230  178.2910  143.5000 C   0  0  1  0  0  3  0  0  0  0  0  0
  191.9670  179.1310  144.3430 C   0  0  0  0  0  1  0  0  0  0  0  0
  191.7490  177.2270  142.6510 C   0  0  0  0  0  2  0  0  0  0  0  0
  191.6840  177.5020  141.1560 C   0  0  0  0  0  1  0  0  0  0  0  0
  189.7870  176.3360  144.3540 C   0  0  0  0  0  2  0  0  0  0  0  0
  190.9330  175.7690  145.1730 C   0  0  0  0  0  2  0  0  0  0  0  0
  191.9240  175.6660  147.4130 C   0  0  0  0  0  2  0  0  0  0  0  0
  192.0560  176.9650  146.8920 O   0  0  0  0  0  0  0  0  0  0  0  0
  190.8600  176.2860  146.5950 C   0  0  1  0  0  3  0  0  0  0  0  0
  1  3  1  0  0  0  0
  2  4  1  0  0  0  0
  3 18  2  0  0  0  0
  4  1  2  0  0  0  0
  4 10  1  0  0  0  0
  5  2  1  0  0  0  0
  5 17  1  0  0  0  0
  6 19  1  0  0  0  0
  6  8  1  0  0  0  0
  7 14  1  0  0  0  0
  7  2  2  0  0  0  0
  8  9  1  0  0  0  0
  9 16  2  0  0  0  0
  9 11  1  0  0  0  0
 10 13  2  0  0  0  0
 11  5  2  0  0  0  0
 12 10  1  0  0  0  0
 13 18  1  0  0  0  0
 14 15  1  0  0  0  0
 15 23  1  1  0  0  0
 15  1  1  0  0  0  0
 16  7  1  0  0  0  0
 17 12  2  0  0  0  0
 19 20  1  0  0  0  0
 20 16  1  0  0  0  0
 21 17  1  0  0  0  0
 21 22  1  0  0  0  0
 23 28  1  0  0  0  0
 24 23  1  0  0  0  0
 24 25  1  1  0  0  0
 26 24  1  0  0  0  0
 27 26  1  0  0  0  0
 28 29  1  0  0  0  0
 31 30  1  0  0  0  0
 32 29  1  6  0  0  0
 32 31  1  0  0  0  0
 32 30  1  0  0  0  0
M  END
>  <MODEL>
7

>  <REMARK>
 VINA RESULT:      -7.9      1.647      2.667
  Name = 
  7 active torsions:
  status: ('A' for Active; 'I' for Inactive)
    1  A    between atoms: C_3  and  C_22
    2  A    between atoms: C_13  and  C_29
    3  A    between atoms: C_15  and  C_20
    4  A    between atoms: C_15  and  C_26
    5  A    between atoms: N_16  and  C_20
    6  A    between atoms: N_16  and  C_22
    7  A    between atoms: N_16  and  C_27
                            x       y       z     vdW  Elec       q    Type
                         _______ _______ _______ _____ _____    ______ ____

>  <TORSDO>
F 7

$$$$
=
 OpenBabel10262421143D

 32 37  0  0  1  0  0  0  0  0999 V2000
  186.5570  178.5260  144.3860 C   0  0  0  0  0  0  0  0  0  0  0  0
  185.6190  178.4540  142.1140 C   0  0  0  0  0  0  0  0  0  0  0  0
  186.3420  178.6460  145.7680 C   0  0  0  0  0  3  0  0  0  0  0  0
  185.4460  178.5170  143.5140 C   0  0  0  0  0  0  0  0  0  0  0  0
  184.4910  178.5290  141.2630 C   0  0  0  0  0  0  0  0  0  0  0  0
  187.3340  178.6280  137.3740 N   0  0  0  0  0  2  0  0  0  0  0  0
  186.8980  178.2950  141.5430 C   0  0  0  0  0  0  0  0  0  0  0  0
  185.9900  178.2890  137.8440 C   0  0  0  0  0  2  0  0  0  0  0  0
  185.8880  178.3950  139.3400 C   0  0  0  0  0  0  0  0  0  0  0  0
  184.1390  178.6000  144.0490 C   0  0  0  0  0  0  0  0  0  0  0  0
  184.6610  178.5010  139.9130 N   0  0  0  0  0  0  0  0  0  0  0  0
  183.0320  178.6360  143.1980 C   0  0  0  0  0  3  0  0  0  0  0  0
  183.9490  178.6860  145.4310 C   0  0  0  0  0  3  0  0  0  0  0  0
  188.0820  178.0000  142.4250 C   0  0  0  0  0  2  0  0  0  0  0  0
  187.9590  178.6120  143.8300 C   0  0  2  0  0  3  0  0  0  0  0  0
  187.0340  178.2490  140.1460 C   0  0  0  0  0  0  0  0  0  0  0  0
  183.2000  178.6050  141.8120 C   0  0  0  0  0  0  0  0  0  0  0  0
  185.0500  178.7080  146.2890 C   0  0  0  0  0  3  0  0  0  0  0  0
  188.2840  177.7360  138.0310 C   0  0  0  0  0  2  0  0  0  0  0  0
  188.3950  178.1050  139.5080 C   0  0  0  0  0  2  0  0  0  0  0  0
  181.9920  178.6700  140.9350 C   0  0  0  0  0  2  0  0  0  0  0  0
  180.9190  179.2010  141.6510 O   0  0  0  0  0  1  0  0  0  0  0  0
  188.9640  178.0910  144.7720 N   0  0  0  0  0  0  0  0  0  0  0  0
  190.2800  178.0120  144.1110 C   0  0  1  0  0  3  0  0  0  0  0  0
  190.9350  179.3780  144.0080 C   0  0  0  0  0  1  0  0  0  0  0  0
  191.2290  176.9200  144.6480 C   0  0  0  0  0  2  0  0  0  0  0  0
  191.6200  175.8920  143.5960 C   0  0  0  0  0  1  0  0  0  0  0  0
  188.5340  176.8310  145.3910 C   0  0  0  0  0  2  0  0  0  0  0  0
  189.0370  176.7510  146.8220 C   0  0  0  0  0  2  0  0  0  0  0  0
  188.3060  177.9300  148.8420 C   0  0  0  0  0  2  0  0  0  0  0  0
  189.6880  178.1060  148.6620 O   0  0  0  0  0  0  0  0  0  0  0  0
  188.8970  178.0990  147.4980 C   0  0  1  0  0  3  0  0  0  0  0  0
  1  3  1  0  0  0  0
  2  4  1  0  0  0  0
  3 18  2  0  0  0  0
  4 10  1  0  0  0  0
  4  1  2  0  0  0  0
  5 17  1  0  0  0  0
  5  2  2  0  0  0  0
  6  8  1  0  0  0  0
  6 19  1  0  0  0  0
  7  2  1  0  0  0  0
  7 14  1  0  0  0  0
  8  9  1  0  0  0  0
  9 11  2  0  0  0  0
  9 16  1  0  0  0  0
 10 13  2  0  0  0  0
 11  5  1  0  0  0  0
 12 10  1  0  0  0  0
 13 18  1  0  0  0  0
 14 15  1  0  0  0  0
 15  1  1  0  0  0  0
 15 23  1  1  0  0  0
 16  7  2  0  0  0  0
 17 12  2  0  0  0  0
 19 20  1  0  0  0  0
 20 16  1  0  0  0  0
 21 22  1  0  0  0  0
 21 17  1  0  0  0  0
 23 28  1  0  0  0  0
 24 25  1  1  0  0  0
 24 26  1  0  0  0  0
 24 23  1  0  0  0  0
 27 26  1  0  0  0  0
 28 29  1  0  0  0  0
 31 30  1  0  0  0  0
 32 29  1  6  0  0  0
 32 31  1  0  0  0  0
 32 30  1  0  0  0  0
M  END
>  <MODEL>
8

>  <REMARK>
 VINA RESULT:      -7.7      2.218      3.568
  Name = 
  7 active torsions:
  status: ('A' for Active; 'I' for Inactive)
    1  A    between atoms: C_3  and  C_22
    2  A    between atoms: C_13  and  C_29
    3  A    between atoms: C_15  and  C_20
    4  A    between atoms: C_15  and  C_26
    5  A    between atoms: N_16  and  C_20
    6  A    between atoms: N_16  and  C_22
    7  A    between atoms: N_16  and  C_27
                            x       y       z     vdW  Elec       q    Type
                         _______ _______ _______ _____ _____    ______ ____

>  <TORSDO>
F 7

$$$$
=
 OpenBabel10262421143D

 32 37  0  0  1  0  0  0  0  0999 V2000
  187.9150  178.1540  140.7980 C   0  0  0  0  0  0  0  0  0  0  0  0
  188.5870  177.4310  138.5450 C   0  0  0  0  0  0  0  0  0  0  0  0
  186.9360  178.7100  141.6350 C   0  0  0  0  0  3  0  0  0  0  0  0
  187.6140  177.9370  139.4350 C   0  0  0  0  0  0  0  0  0  0  0  0
  188.2810  177.3010  137.1700 C   0  0  0  0  0  0  0  0  0  0  0  0
  192.8250  176.0260  136.1990 N   0  0  0  0  0  2  0  0  0  0  0  0
  189.8580  177.0310  139.0040 C   0  0  0  0  0  0  0  0  0  0  0  0
  191.4450  175.9260  135.7220 C   0  0  0  0  0  2  0  0  0  0  0  0
  190.4760  176.4980  136.7200 C   0  0  0  0  0  0  0  0  0  0  0  0
  186.3250  178.2550  138.9460 C   0  0  0  0  0  0  0  0  0  0  0  0
  189.2300  176.8450  136.3070 N   0  0  0  0  0  0  0  0  0  0  0  0
  186.0250  178.0860  137.5930 C   0  0  0  0  0  3  0  0  0  0  0  0
  185.3560  178.7770  139.8060 C   0  0  0  0  0  3  0  0  0  0  0  0
  190.1330  176.9590  140.4820 C   0  0  0  0  0  2  0  0  0  0  0  0
  189.3290  177.9840  141.2990 C   0  0  2  0  0  3  0  0  0  0  0  0
  190.8060  176.5450  138.0880 C   0  0  0  0  0  0  0  0  0  0  0  0
  186.9930  177.6170  136.7030 C   0  0  0  0  0  0  0  0  0  0  0  0
  185.6610  179.0030  141.1500 C   0  0  0  0  0  3  0  0  0  0  0  0
  192.9160  175.3310  137.4790 C   0  0  0  0  0  2  0  0  0  0  0  0
  192.1830  176.1340  138.5500 C   0  0  0  0  0  2  0  0  0  0  0  0
  186.6400  177.4730  135.2580 C   0  0  0  0  0  2  0  0  0  0  0  0
  186.0640  176.2230  135.0360 O   0  0  0  0  0  1  0  0  0  0  0  0
  189.3780  177.7270  142.7490 N   0  0  0  0  0  0  0  0  0  0  0  0
  190.7580  177.8880  143.2420 C   0  0  1  0  0  3  0  0  0  0  0  0
  190.9390  179.2090  143.9700 C   0  0  0  0  0  1  0  0  0  0  0  0
  191.3340  176.6830  144.0150 C   0  0  0  0  0  2  0  0  0  0  0  0
  191.6590  176.9990  145.4680 C   0  0  0  0  0  1  0  0  0  0  0  0
  188.7720  176.4360  143.0970 C   0  0  0  0  0  2  0  0  0  0  0  0
  187.5620  176.6480  143.9900 C   0  0  0  0  0  2  0  0  0  0  0  0
  186.9700  177.5690  146.1840 C   0  0  0  0  0  2  0  0  0  0  0  0
  188.3040  177.1270  146.1960 O   0  0  0  0  0  0  0  0  0  0  0  0
  187.8520  177.7320  145.0090 C   0  0  1  0  0  3  0  0  0  0  0  0
  1 15  1  0  0  0  0
  1  3  1  0  0  0  0
  2  7  1  0  0  0  0
  2  4  1  0  0  0  0
  4  1  2  0  0  0  0
  5  2  2  0  0  0  0
  6 19  1  0  0  0  0
  7 14  1  0  0  0  0
  8  6  1  0  0  0  0
  8  9  1  0  0  0  0
  9 16  1  0  0  0  0
 10  4  1  0  0  0  0
 10 13  2  0  0  0  0
 11  9  2  0  0  0  0
 11  5  1  0  0  0  0
 12 10  1  0  0  0  0
 13 18  1  0  0  0  0
 14 15  1  0  0  0  0
 15 23  1  1  0  0  0
 16 20  1  0  0  0  0
 16  7  2  0  0  0  0
 17  5  1  0  0  0  0
 17 12  2  0  0  0  0
 18  3  2  0  0  0  0
 19 20  1  0  0  0  0
 21 17  1  0  0  0  0
 22 21  1  0  0  0  0
 23 28  1  0  0  0  0
 23 24  1  0  0  0  0
 24 25  1  1  0  0  0
 24 26  1  0  0  0  0
 26 27  1  0  0  0  0
 28 29  1  0  0  0  0
 30 31  1  0  0  0  0
 32 29  1  6  0  0  0
 32 30  1  0  0  0  0
 32 31  1  0  0  0  0
M  END
>  <MODEL>
9

>  <REMARK>
 VINA RESULT:      -7.7      2.923      6.311
  Name = 
  7 active torsions:
  status: ('A' for Active; 'I' for Inactive)
    1  A    between atoms: C_3  and  C_22
    2  A    between atoms: C_13  and  C_29
    3  A    between atoms: C_15  and  C_20
    4  A    between atoms: C_15  and  C_26
    5  A    between atoms: N_16  and  C_20
    6  A    between atoms: N_16  and  C_22
    7  A    between atoms: N_16  and  C_27
                            x       y       z     vdW  Elec       q    Type
                         _______ _______ _______ _____ _____    ______ ____

>  <TORSDO>
F 7

$$$$
