=
 OpenBabel10262420263D

 55 62  0  0  1  0  0  0  0  0999 V2000
  187.6220  178.4800  141.3940 C   0  0  2  0  0  3  0  0  0  0  0  0
  187.9950  175.8510  135.1760 O   0  0  0  0  0  0  0  0  0  0  0  0
  187.0800  178.1250  136.2620 O   0  0  0  0  0  0  0  0  0  0  0  0
  190.7750  176.0090  136.1330 C   0  0  1  0  0  3  0  0  0  0  0  0
  182.5360  178.6280  137.4570 C   0  0  0  0  0  3  0  0  0  0  0  0
  181.3480  179.1430  137.7730 C   0  0  0  0  0  3  0  0  0  0  0  0
  183.2970  178.8510  139.8540 C   0  0  2  0  0  3  0  0  0  0  0  0
  181.8480  179.1150  140.1580 C   0  0  0  0  0  3  0  0  0  0  0  0
  185.2060  177.1220  137.1700 O   0  0  0  0  0  0  0  0  0  0  0  0
  190.0410  174.8310  135.6820 N   0  0  0  0  0  2  0  0  0  0  0  0
  180.9530  179.2830  139.1820 C   0  0  0  0  0  3  0  0  0  0  0  0
  189.0390  177.0350  142.8480 C   0  0  0  0  0  2  0  0  0  0  0  0
  183.4710  178.1060  138.5170 C   0  0  2  0  0  3  0  0  0  0  0  0
  190.7230  176.8350  140.5720 C   0  0  1  0  0  3  0  0  0  0  0  0
  187.0760  178.5980  140.1030 O   0  0  0  0  0  0  0  0  0  0  0  0
  189.8670  177.9400  140.7420 O   0  0  0  0  0  0  0  0  0  0  0  0
  185.1510  178.6270  141.5300 C   0  0  2  0  0  3  0  0  0  0  0  0
  188.6360  174.9760  136.0540 C   0  0  0  0  0  2  0  0  0  0  0  0
  183.8620  178.0200  140.9940 C   0  0  0  0  0  2  0  0  0  0  0  0
  186.6570  175.8670  135.5840 C   0  0  0  0  0  2  0  0  0  0  0  0
  186.3490  177.1000  136.3720 C   0  0  0  0  0  0  0  0  0  0  0  0
  190.5470  176.9730  143.1060 C   0  0  0  0  0  2  0  0  0  0  0  0
  190.9760  175.9440  137.6410 C   0  0  0  0  0  2  0  0  0  0  0  0
  188.7240  177.4420  141.3980 C   0  0  2  0  0  3  0  0  0  0  0  0
  184.8980  178.2230  138.0120 C   0  0  0  0  0  2  0  0  0  0  0  0
  186.3450  177.8230  141.0260 C   0  0  2  0  0  3  0  0  0  0  0  0
  191.3560  177.3100  138.1890 C   0  0  0  0  0  2  0  0  0  0  0  0
  191.8530  177.1880  139.6200 C   0  0  0  0  0  2  0  0  0  0  0  0
  191.3040  176.3670  141.9170 C   0  0  0  0  0  2  0  0  0  0  0  0
  186.0700  177.8390  143.7830 C   0  0  0  0  0  3  0  0  0  0  0  0
  185.2620  178.7910  145.8370 N   0  0  0  0  0  0  0  0  0  0  0  0
  184.2270  179.4330  143.6830 C   0  0  0  0  0  3  0  0  0  0  0  0
  184.1040  179.4170  145.1820 C   0  0  0  0  0  2  0  0  0  0  0  0
  186.1270  177.9040  145.1130 C   0  0  0  0  0  3  0  0  0  0  0  0
  185.1210  178.6800  143.0320 C   0  0  0  0  0  0  0  0  0  0  0  0
  185.3460  178.8090  147.2940 C   0  0  0  0  0  3  0  0  0  0  0  0
  186.4050  179.8020  147.7520 C   0  0  0  0  0  2  0  0  0  0  0  0
  186.7140  178.3240  147.7410 C   0  0  0  0  0  2  0  0  0  0  0  0
  192.1480  176.0170  135.4770 C   0  0  0  0  0  2  0  0  0  0  0  0
  193.2580  175.5550  136.4160 C   0  0  2  0  0  3  0  0  0  0  0  0
  193.8960  176.6890  136.9180 O   0  0  0  0  0  1  0  0  0  0  0  0
  194.7160  173.3330  137.8400 N   0  0  0  0  0  0  0  0  0  0  0  0
  196.6890  173.2720  134.5940 O   0  0  0  0  0  1  0  0  0  0  0  0
  194.2810  174.6740  135.6770 C   0  0  1  0  0  0  0  0  0  0  0  0
  192.6480  172.7430  136.1220 C   0  0  0  0  0  1  0  0  0  0  0  0
  193.9270  173.2030  135.4280 C   0  0  2  0  0  3  0  0  0  0  0  0
  195.3890  174.3460  138.6380 C   0  0  0  0  0  1  0  0  0  0  0  0
  196.6320  171.5520  136.3190 C   0  0  1  0  0  3  0  0  0  0  0  0
  195.2270  172.0470  138.3440 C   0  0  0  0  0  2  0  0  0  0  0  0
  196.4350  173.0400  135.9500 C   0  0  2  0  0  3  0  0  0  0  0  0
  194.9570  175.2640  134.6040 O   0  0  0  0  0  1  0  0  0  0  0  0
  195.5350  171.0270  137.2470 C   0  0  0  0  0  2  0  0  0  0  0  0
  195.0560  173.5700  136.4160 C   0  0  2  0  0  0  0  0  0  0  0  0
  196.6880  170.7400  135.1810 O   0  0  0  0  0  0  0  0  0  0  0  0
  197.6960  169.9240  135.4040 O   0  0  0  0  0  1  0  0  0  0  0  0
  1 15  1  6  0  0  0
  1 24  1  0  0  0  0
  2 20  1  0  0  0  0
  2 18  1  0  0  0  0
  3 21  2  0  0  0  0
  4 39  1  6  0  0  0
  4 23  1  0  0  0  0
  5  6  2  0  0  0  0
  6 11  1  0  0  0  0
  7  8  1  1  0  0  0
  7 19  1  0  0  0  0
  9 25  1  0  0  0  0
 10 18  1  0  0  0  0
 10  4  1  0  0  0  0
 11  8  2  0  0  0  0
 12 22  1  0  0  0  0
 13  5  1  6  0  0  0
 13  7  1  0  0  0  0
 14 28  1  6  0  0  0
 14 16  1  0  0  0  0
 14 29  1  0  0  0  0
 16 24  1  0  0  0  0
 17 35  1  1  0  0  0
 19 17  1  0  0  0  0
 20 21  1  0  0  0  0
 21  9  1  0  0  0  0
 23 27  1  0  0  0  0
 24 12  1  1  0  0  0
 25 13  1  0  0  0  0
 26 15  1  6  0  0  0
 26  1  1  0  0  0  0
 26 17  1  0  0  0  0
 27 28  1  0  0  0  0
 29 22  1  0  0  0  0
 30 34  2  0  0  0  0
 31 36  1  0  0  0  0
 32 33  1  0  0  0  0
 33 31  1  0  0  0  0
 34 31  1  0  0  0  0
 35 32  2  0  0  0  0
 35 30  1  0  0  0  0
 36 38  1  0  0  0  0
 36 37  1  0  0  0  0
 38 37  1  0  0  0  0
 39 40  1  0  0  0  0
 40 41  1  6  0  0  0
 42 49  1  0  0  0  0
 42 47  1  0  0  0  0
 44 51  1  6  0  0  0
 44 53  1  0  0  0  0
 44 40  1  0  0  0  0
 46 44  1  0  0  0  0
 46 45  1  1  0  0  0
 46 53  1  0  0  0  0
 48 54  1  6  0  0  0
 48 52  1  0  0  0  0
 50 43  1  6  0  0  0
 50 48  1  0  0  0  0
 50 53  1  0  0  0  0
 52 49  1  0  0  0  0
 53 42  1  1  0  0  0
 54 55  1  0  0  0  0
M  END
>  <MODEL>
1

>  <REMARK>
 VINA RESULT:      -8.6      0.000      0.000
  Name = 
  6 active torsions:
  status: ('A' for Active; 'I' for Inactive)
    1  A    between atoms: C_6  and  C_20
    2  A    between atoms: C_7  and  C_8
    3  A    between atoms: C_7  and  C_20
    4  A    between atoms: C_10  and  N_32
    5  A    between atoms: O_11  and  C_29
    6  A    between atoms: C_33  and  C_52
                            x       y       z     vdW  Elec       q    Type
                         _______ _______ _______ _____ _____    ______ ____

>  <TORSDO>
F 6

$$$$
=
 OpenBabel10262420263D

 55 62  0  0  1  0  0  0  0  0999 V2000
  187.8370  178.4960  141.5130 C   0  0  2  0  0  3  0  0  0  0  0  0
  188.3510  175.6590  135.3970 O   0  0  0  0  0  0  0  0  0  0  0  0
  187.4220  177.9720  136.3830 O   0  0  0  0  0  0  0  0  0  0  0  0
  191.1060  175.8340  136.4190 C   0  0  1  0  0  3  0  0  0  0  0  0
  182.8520  178.5390  137.4460 C   0  0  0  0  0  3  0  0  0  0  0  0
  181.6610  179.0700  137.7140 C   0  0  0  0  0  3  0  0  0  0  0  0
  183.5540  178.8380  139.8520 C   0  0  2  0  0  3  0  0  0  0  0  0
  182.1000  179.1200  140.1110 C   0  0  0  0  0  3  0  0  0  0  0  0
  185.5190  177.0100  137.2770 O   0  0  0  0  0  0  0  0  0  0  0  0
  190.3770  174.6450  135.9890 N   0  0  0  0  0  2  0  0  0  0  0  0
  181.2310  179.2600  139.1080 C   0  0  0  0  0  3  0  0  0  0  0  0
  189.2090  177.0930  143.0490 C   0  0  0  0  0  2  0  0  0  0  0  0
  183.7570  178.0480  138.5460 C   0  0  2  0  0  3  0  0  0  0  0  0
  190.9470  176.8080  140.8250 C   0  0  1  0  0  3  0  0  0  0  0  0
  187.3250  178.5740  140.2050 O   0  0  0  0  0  0  0  0  0  0  0  0
  190.0940  177.9230  140.9360 O   0  0  0  0  0  0  0  0  0  0  0  0
  185.3650  178.6600  141.5820 C   0  0  2  0  0  3  0  0  0  0  0  0
  188.9640  174.8100  136.3200 C   0  0  0  0  0  2  0  0  0  0  0  0
  184.0860  178.0430  141.0340 C   0  0  0  0  0  2  0  0  0  0  0  0
  187.0030  175.6950  135.7710 C   0  0  0  0  0  2  0  0  0  0  0  0
  186.6820  176.9550  136.5090 C   0  0  0  0  0  0  0  0  0  0  0  0
  190.7090  177.0310  143.3470 C   0  0  0  0  0  2  0  0  0  0  0  0
  191.2680  175.8190  137.9320 C   0  0  0  0  0  2  0  0  0  0  0  0
  188.9320  177.4530  141.5800 C   0  0  2  0  0  3  0  0  0  0  0  0
  185.1970  178.1410  138.0730 C   0  0  0  0  0  2  0  0  0  0  0  0
  186.5660  177.8340  141.1350 C   0  0  2  0  0  3  0  0  0  0  0  0
  191.6440  177.1990  138.4440 C   0  0  0  0  0  2  0  0  0  0  0  0
  192.1040  177.1230  139.8910 C   0  0  0  0  0  2  0  0  0  0  0  0
  191.4920  176.3830  142.1990 C   0  0  0  0  0  2  0  0  0  0  0  0
  186.0420  177.7800  143.8850 C   0  0  0  0  0  3  0  0  0  0  0  0
  185.3660  178.9310  145.8840 N   0  0  0  0  0  0  0  0  0  0  0  0
  184.5440  179.6940  143.6790 C   0  0  0  0  0  3  0  0  0  0  0  0
  184.3730  179.7470  145.1720 C   0  0  0  0  0  2  0  0  0  0  0  0
  186.0670  177.8730  145.2150 C   0  0  0  0  0  3  0  0  0  0  0  0
  185.2970  178.7640  143.0800 C   0  0  0  0  0  0  0  0  0  0  0  0
  185.4050  178.9760  147.3430 C   0  0  0  0  0  3  0  0  0  0  0  0
  186.4000  180.0280  147.8140 C   0  0  0  0  0  2  0  0  0  0  0  0
  186.7810  178.5660  147.8390 C   0  0  0  0  0  2  0  0  0  0  0  0
  192.4960  175.8130  135.7980 C   0  0  0  0  0  2  0  0  0  0  0  0
  193.2770  174.5480  136.1350 C   0  0  2  0  0  3  0  0  0  0  0  0
  192.4620  173.7340  136.9210 O   0  0  0  0  0  1  0  0  0  0  0  0
  195.7240  172.8000  135.9050 N   0  0  0  0  0  0  0  0  0  0  0  0
  196.9190  175.0200  138.7470 O   0  0  0  0  0  1  0  0  0  0  0  0
  194.5670  174.8800  136.9070 C   0  0  1  0  0  0  0  0  0  0  0  0
  195.6320  175.2190  134.5940 C   0  0  0  0  0  1  0  0  0  0  0  0
  195.7960  175.3320  136.1080 C   0  0  2  0  0  3  0  0  0  0  0  0
  194.9790  171.7450  136.5750 C   0  0  0  0  0  1  0  0  0  0  0  0
  198.2740  173.5560  137.3470 C   0  0  1  0  0  3  0  0  0  0  0  0
  197.0430  172.2130  135.6160 C   0  0  0  0  0  2  0  0  0  0  0  0
  196.8800  173.8850  137.9290 C   0  0  2  0  0  3  0  0  0  0  0  0
  194.4160  175.5690  138.1140 O   0  0  0  0  0  1  0  0  0  0  0  0
  198.2160  173.1610  135.8710 C   0  0  0  0  0  2  0  0  0  0  0  0
  195.8000  173.9630  136.8220 C   0  0  2  0  0  0  0  0  0  0  0  0
  199.1620  174.6270  137.4940 O   0  0  0  0  0  0  0  0  0  0  0  0
  199.1800  175.2070  136.3130 O   0  0  0  0  0  1  0  0  0  0  0  0
  1 15  1  6  0  0  0
  1 24  1  0  0  0  0
  2 20  1  0  0  0  0
  2 18  1  0  0  0  0
  3 21  2  0  0  0  0
  4 39  1  6  0  0  0
  4 23  1  0  0  0  0
  5  6  2  0  0  0  0
  6 11  1  0  0  0  0
  7  8  1  1  0  0  0
  7 19  1  0  0  0  0
  9 25  1  0  0  0  0
 10 18  1  0  0  0  0
 10  4  1  0  0  0  0
 11  8  2  0  0  0  0
 12 22  1  0  0  0  0
 13  5  1  6  0  0  0
 13  7  1  0  0  0  0
 14 28  1  6  0  0  0
 14 16  1  0  0  0  0
 14 29  1  0  0  0  0
 16 24  1  0  0  0  0
 17 35  1  1  0  0  0
 19 17  1  0  0  0  0
 20 21  1  0  0  0  0
 21  9  1  0  0  0  0
 23 27  1  0  0  0  0
 24 12  1  1  0  0  0
 25 13  1  0  0  0  0
 26 15  1  6  0  0  0
 26  1  1  0  0  0  0
 26 17  1  0  0  0  0
 27 28  1  0  0  0  0
 29 22  1  0  0  0  0
 30 34  2  0  0  0  0
 31 36  1  0  0  0  0
 32 33  1  0  0  0  0
 33 31  1  0  0  0  0
 34 31  1  0  0  0  0
 35 32  2  0  0  0  0
 35 30  1  0  0  0  0
 36 37  1  0  0  0  0
 36 38  1  0  0  0  0
 37 38  1  0  0  0  0
 39 40  1  0  0  0  0
 40 44  1  0  0  0  0
 40 41  1  1  0  0  0
 42 47  1  0  0  0  0
 44 51  1  1  0  0  0
 46 45  1  6  0  0  0
 46 53  1  0  0  0  0
 46 44  1  0  0  0  0
 48 54  1  6  0  0  0
 48 50  1  0  0  0  0
 49 52  1  0  0  0  0
 49 42  1  0  0  0  0
 50 43  1  6  0  0  0
 52 48  1  0  0  0  0
 53 42  1  6  0  0  0
 53 44  1  0  0  0  0
 53 50  1  0  0  0  0
 55 54  1  0  0  0  0
M  END
>  <MODEL>
2

>  <REMARK>
 VINA RESULT:      -8.3      1.430      1.851
  Name = 
  6 active torsions:
  status: ('A' for Active; 'I' for Inactive)
    1  A    between atoms: C_6  and  C_20
    2  A    between atoms: C_7  and  C_8
    3  A    between atoms: C_7  and  C_20
    4  A    between atoms: C_10  and  N_32
    5  A    between atoms: O_11  and  C_29
    6  A    between atoms: C_33  and  C_52
                            x       y       z     vdW  Elec       q    Type
                         _______ _______ _______ _____ _____    ______ ____

>  <TORSDO>
F 6

$$$$
=
 OpenBabel10262420263D

 55 62  0  0  1  0  0  0  0  0999 V2000
  186.1070  177.3320  141.2220 C   0  0  2  0  0  3  0  0  0  0  0  0
  192.8450  177.0140  140.7580 O   0  0  0  0  0  0  0  0  0  0  0  0
  190.9370  175.7030  142.1090 O   0  0  0  0  0  0  0  0  0  0  0  0
  191.8440  176.5360  138.0310 C   0  0  1  0  0  3  0  0  0  0  0  0
  189.7470  176.9370  146.5130 C   0  0  0  0  0  3  0  0  0  0  0  0
  189.2740  176.9250  147.7580 C   0  0  0  0  0  3  0  0  0  0  0  0
  187.4560  177.5140  145.6230 C   0  0  2  0  0  3  0  0  0  0  0  0
  187.1030  177.7860  147.0600 C   0  0  0  0  0  3  0  0  0  0  0  0
  190.5690  177.4410  143.5890 O   0  0  0  0  0  0  0  0  0  0  0  0
  192.7600  177.5770  138.4870 N   0  0  0  0  0  2  0  0  0  0  0  0
  187.9430  177.4770  148.0500 C   0  0  0  0  0  3  0  0  0  0  0  0
  185.3500  178.8160  139.3690 C   0  0  0  0  0  2  0  0  0  0  0  0
  188.9770  177.5790  145.3880 C   0  0  2  0  0  3  0  0  0  0  0  0
  187.4640  177.6270  137.8950 C   0  0  1  0  0  3  0  0  0  0  0  0
  187.2460  176.8470  141.8910 O   0  0  0  0  0  0  0  0  0  0  0  0
  186.8720  176.9520  138.9800 O   0  0  0  0  0  0  0  0  0  0  0  0
  185.9810  177.9050  143.6300 C   0  0  2  0  0  3  0  0  0  0  0  0
  192.3930  177.9690  139.8450 C   0  0  0  0  0  2  0  0  0  0  0  0
  186.7490  178.5560  144.7710 C   0  0  0  0  0  2  0  0  0  0  0  0
  192.4990  177.5160  142.0170 C   0  0  0  0  0  2  0  0  0  0  0  0
  191.2790  176.8370  142.5510 C   0  0  0  0  0  0  0  0  0  0  0  0
  185.1060  178.5800  137.8760 C   0  0  0  0  0  2  0  0  0  0  0  0
  190.4940  177.1520  137.6890 C   0  0  0  0  0  2  0  0  0  0  0  0
  186.5080  177.9530  139.9020 C   0  0  2  0  0  3  0  0  0  0  0  0
  189.3550  176.8980  144.0850 C   0  0  0  0  0  2  0  0  0  0  0  0
  186.7440  178.0920  142.3240 C   0  0  2  0  0  3  0  0  0  0  0  0
  189.4210  176.0790  137.6110 C   0  0  0  0  0  2  0  0  0  0  0  0
  188.1570  176.6360  136.9760 C   0  0  0  0  0  2  0  0  0  0  0  0
  186.4210  178.4290  137.1000 C   0  0  0  0  0  2  0  0  0  0  0  0
  183.8860  178.4000  142.2490 C   0  0  0  0  0  3  0  0  0  0  0  0
  181.9440  179.3780  143.2750 N   0  0  0  0  0  0  0  0  0  0  0  0
  184.0200  179.0810  144.5870 C   0  0  0  0  0  3  0  0  0  0  0  0
  182.6800  179.7560  144.4900 C   0  0  0  0  0  2  0  0  0  0  0  0
  182.6290  178.8310  142.1390 C   0  0  0  0  0  3  0  0  0  0  0  0
  184.5920  178.4750  143.5400 C   0  0  0  0  0  0  0  0  0  0  0  0
  180.5770  179.8570  143.0980 C   0  0  0  0  0  3  0  0  0  0  0  0
  179.6060  178.9950  143.8920 C   0  0  0  0  0  2  0  0  0  0  0  0
  179.7410  178.7970  142.4010 C   0  0  0  0  0  2  0  0  0  0  0  0
  192.4050  175.9040  136.7660 C   0  0  0  0  0  2  0  0  0  0  0  0
  193.1440  174.5970  137.0320 C   0  0  2  0  0  3  0  0  0  0  0  0
  192.4610  173.9140  138.0380 O   0  0  0  0  0  1  0  0  0  0  0  0
  195.4230  172.9190  135.9930 N   0  0  0  0  0  0  0  0  0  0  0  0
  197.3380  174.8240  138.6640 O   0  0  0  0  0  1  0  0  0  0  0  0
  194.5930  174.8580  137.4810 C   0  0  1  0  0  0  0  0  0  0  0  0
  195.0370  175.4670  135.0250 C   0  0  0  0  0  1  0  0  0  0  0  0
  195.5830  175.4140  136.4500 C   0  0  2  0  0  3  0  0  0  0  0  0
  194.8580  171.7860  136.7090 C   0  0  0  0  0  1  0  0  0  0  0  0
  198.2690  173.5440  136.8110 C   0  0  1  0  0  3  0  0  0  0  0  0
  196.6150  172.3850  135.3130 C   0  0  0  0  0  2  0  0  0  0  0  0
  197.0740  173.7870  137.7620 C   0  0  2  0  0  3  0  0  0  0  0  0
  194.7650  175.4070  138.7560 O   0  0  0  0  0  1  0  0  0  0  0  0
  197.8290  173.3150  135.3640 C   0  0  0  0  0  2  0  0  0  0  0  0
  195.7490  173.9730  136.9830 C   0  0  2  0  0  0  0  0  0  0  0  0
  199.1800  174.6040  136.8430 O   0  0  0  0  0  0  0  0  0  0  0  0
  198.9770  175.2530  135.7170 O   0  0  0  0  0  1  0  0  0  0  0  0
  1 15  1  6  0  0  0
  1 26  1  0  0  0  0
  2 20  1  0  0  0  0
  3 21  2  0  0  0  0
  4 39  1  6  0  0  0
  4 10  1  0  0  0  0
  5  6  2  0  0  0  0
  6 11  1  0  0  0  0
  7 19  1  6  0  0  0
  7  8  1  0  0  0  0
  8 11  2  0  0  0  0
  9 25  1  0  0  0  0
 10 18  1  0  0  0  0
 13 25  1  6  0  0  0
 13  7  1  0  0  0  0
 13  5  1  0  0  0  0
 14 28  1  6  0  0  0
 14 16  1  0  0  0  0
 16 24  1  0  0  0  0
 17 35  1  6  0  0  0
 17 19  1  0  0  0  0
 18  2  1  0  0  0  0
 20 21  1  0  0  0  0
 21  9  1  0  0  0  0
 22 12  1  0  0  0  0
 23  4  1  0  0  0  0
 24 12  1  6  0  0  0
 24  1  1  0  0  0  0
 26 15  1  1  0  0  0
 26 17  1  0  0  0  0
 27 23  1  0  0  0  0
 28 27  1  0  0  0  0
 29 22  1  0  0  0  0
 29 14  1  0  0  0  0
 30 35  1  0  0  0  0
 31 33  1  0  0  0  0
 33 32  1  0  0  0  0
 34 30  2  0  0  0  0
 34 31  1  0  0  0  0
 35 32  2  0  0  0  0
 36 31  1  0  0  0  0
 36 37  1  0  0  0  0
 38 36  1  0  0  0  0
 38 37  1  0  0  0  0
 39 40  1  0  0  0  0
 40 44  1  0  0  0  0
 40 41  1  1  0  0  0
 42 47  1  0  0  0  0
 44 51  1  1  0  0  0
 46 45  1  6  0  0  0
 46 53  1  0  0  0  0
 46 44  1  0  0  0  0
 48 54  1  6  0  0  0
 48 50  1  0  0  0  0
 49 52  1  0  0  0  0
 49 42  1  0  0  0  0
 50 43  1  6  0  0  0
 52 48  1  0  0  0  0
 53 42  1  6  0  0  0
 53 44  1  0  0  0  0
 53 50  1  0  0  0  0
 55 54  1  0  0  0  0
M  END
>  <MODEL>
3

>  <REMARK>
 VINA RESULT:      -6.3      2.296      5.641
  Name = 
  6 active torsions:
  status: ('A' for Active; 'I' for Inactive)
    1  A    between atoms: C_6  and  C_20
    2  A    between atoms: C_7  and  C_8
    3  A    between atoms: C_7  and  C_20
    4  A    between atoms: C_10  and  N_32
    5  A    between atoms: O_11  and  C_29
    6  A    between atoms: C_33  and  C_52
                            x       y       z     vdW  Elec       q    Type
                         _______ _______ _______ _____ _____    ______ ____

>  <TORSDO>
F 6

$$$$
=
 OpenBabel10262420263D

 55 62  0  0  1  0  0  0  0  0999 V2000
  186.1450  177.4520  139.0680 C   0  0  2  0  0  3  0  0  0  0  0  0
  192.5370  176.9910  141.2250 O   0  0  0  0  0  0  0  0  0  0  0  0
  190.1840  175.9040  141.9070 O   0  0  0  0  0  0  0  0  0  0  0  0
  192.5950  176.1510  138.4040 C   0  0  1  0  0  3  0  0  0  0  0  0
  187.5210  177.7520  145.3460 C   0  0  0  0  0  3  0  0  0  0  0  0
  186.6190  177.9190  146.3120 C   0  0  0  0  0  3  0  0  0  0  0  0
  185.7680  178.2270  143.5930 C   0  0  2  0  0  3  0  0  0  0  0  0
  184.9240  178.7000  144.7450 C   0  0  0  0  0  3  0  0  0  0  0  0
  189.4030  177.8350  142.9110 O   0  0  0  0  0  0  0  0  0  0  0  0
  193.3390  177.2340  139.0390 N   0  0  0  0  0  2  0  0  0  0  0  0
  185.3130  178.5220  146.0090 C   0  0  0  0  0  3  0  0  0  0  0  0
  186.2290  178.6720  136.8980 C   0  0  0  0  0  2  0  0  0  0  0  0
  187.2680  178.2410  143.9440 C   0  0  2  0  0  3  0  0  0  0  0  0
  188.6590  177.2650  136.4910 C   0  0  1  0  0  3  0  0  0  0  0  0
  186.9200  177.0510  140.1720 O   0  0  0  0  0  0  0  0  0  0  0  0
  187.6640  176.7550  137.3470 O   0  0  0  0  0  0  0  0  0  0  0  0
  185.1680  178.3550  141.1590 C   0  0  2  0  0  3  0  0  0  0  0  0
  192.5190  177.8150  140.0990 C   0  0  0  0  0  2  0  0  0  0  0  0
  185.4970  179.1500  142.4160 C   0  0  0  0  0  2  0  0  0  0  0  0
  191.7790  177.6680  142.1870 C   0  0  0  0  0  2  0  0  0  0  0  0
  190.4080  177.0830  142.3010 C   0  0  0  0  0  0  0  0  0  0  0  0
  186.5440  178.2350  135.4650 C   0  0  0  0  0  2  0  0  0  0  0  0
  191.5120  176.7290  137.5040 C   0  0  0  0  0  2  0  0  0  0  0  0
  187.0480  177.8790  137.9310 C   0  0  2  0  0  3  0  0  0  0  0  0
  188.0590  177.3810  142.9750 C   0  0  0  0  0  2  0  0  0  0  0  0
  186.3740  178.3500  140.2250 C   0  0  2  0  0  3  0  0  0  0  0  0
  190.4780  175.6690  137.1610 C   0  0  0  0  0  2  0  0  0  0  0  0
  189.5810  176.1480  136.0320 C   0  0  0  0  0  2  0  0  0  0  0  0
  188.0400  177.9620  135.2680 C   0  0  0  0  0  2  0  0  0  0  0  0
  184.1480  179.8830  139.3800 C   0  0  0  0  0  3  0  0  0  0  0  0
  181.7690  179.9540  139.0430 N   0  0  0  0  0  0  0  0  0  0  0  0
  182.7180  178.6120  140.8930 C   0  0  0  0  0  3  0  0  0  0  0  0
  181.4910  179.2530  140.3050 C   0  0  0  0  0  2  0  0  0  0  0  0
  183.1030  180.3610  138.7050 C   0  0  0  0  0  3  0  0  0  0  0  0
  183.9520  178.9240  140.4820 C   0  0  0  0  0  0  0  0  0  0  0  0
  180.6560  180.5240  138.2900 C   0  0  0  0  0  3  0  0  0  0  0  0
  180.0390  179.4720  137.3790 C   0  0  0  0  0  2  0  0  0  0  0  0
  180.9730  180.5100  136.8040 C   0  0  0  0  0  2  0  0  0  0  0  0
  193.5450  175.3420  137.5330 C   0  0  0  0  0  2  0  0  0  0  0  0
  194.4790  174.4500  138.3440 C   0  0  2  0  0  3  0  0  0  0  0  0
  195.4850  175.2530  138.8790 O   0  0  0  0  0  1  0  0  0  0  0  0
  196.5680  175.1290  136.2780 N   0  0  0  0  0  0  0  0  0  0  0  0
  195.9970  171.5060  135.2870 O   0  0  0  0  0  1  0  0  0  0  0  0
  195.1090  173.3570  137.4600 C   0  0  1  0  0  0  0  0  0  0  0  0
  197.3110  173.9410  138.6470 C   0  0  0  0  0  1  0  0  0  0  0  0
  196.5860  173.0090  137.6790 C   0  0  2  0  0  3  0  0  0  0  0  0
  195.5430  175.8570  135.5450 C   0  0  0  0  0  1  0  0  0  0  0  0
  197.8640  172.9350  134.6460 C   0  0  1  0  0  3  0  0  0  0  0  0
  197.7990  175.3030  135.4880 C   0  0  0  0  0  2  0  0  0  0  0  0
  196.3970  172.8370  135.1250 C   0  0  2  0  0  3  0  0  0  0  0  0
  194.3170  172.2370  137.1880 O   0  0  0  0  0  1  0  0  0  0  0  0
  198.6450  174.0340  135.3680 C   0  0  0  0  0  2  0  0  0  0  0  0
  196.1420  173.7120  136.3770 C   0  0  2  0  0  0  0  0  0  0  0  0
  198.5410  171.7220  134.8030 O   0  0  0  0  0  0  0  0  0  0  0  0
  199.1730  171.8390  135.9510 O   0  0  0  0  0  1  0  0  0  0  0  0
  1 15  1  1  0  0  0
  1 26  1  0  0  0  0
  2 20  1  0  0  0  0
  3 21  2  0  0  0  0
  4 39  1  6  0  0  0
  4 10  1  0  0  0  0
  5  6  2  0  0  0  0
  7 19  1  6  0  0  0
  7 13  1  0  0  0  0
  7  8  1  0  0  0  0
  8 11  2  0  0  0  0
  9 25  1  0  0  0  0
 10 18  1  0  0  0  0
 11  6  1  0  0  0  0
 13 25  1  6  0  0  0
 13  5  1  0  0  0  0
 14 29  1  6  0  0  0
 14 16  1  0  0  0  0
 16 24  1  0  0  0  0
 17 35  1  6  0  0  0
 17 19  1  0  0  0  0
 18  2  1  0  0  0  0
 20 21  1  0  0  0  0
 21  9  1  0  0  0  0
 22 12  1  0  0  0  0
 23  4  1  0  0  0  0
 24 12  1  6  0  0  0
 24  1  1  0  0  0  0
 26 15  1  1  0  0  0
 26 17  1  0  0  0  0
 27 23  1  0  0  0  0
 28 14  1  0  0  0  0
 28 27  1  0  0  0  0
 29 22  1  0  0  0  0
 30 35  1  0  0  0  0
 31 33  1  0  0  0  0
 33 32  1  0  0  0  0
 34 31  1  0  0  0  0
 34 30  2  0  0  0  0
 35 32  2  0  0  0  0
 36 31  1  0  0  0  0
 37 36  1  0  0  0  0
 38 37  1  0  0  0  0
 38 36  1  0  0  0  0
 39 40  1  0  0  0  0
 40 41  1  6  0  0  0
 44 51  1  6  0  0  0
 44 46  1  0  0  0  0
 44 40  1  0  0  0  0
 46 45  1  1  0  0  0
 47 42  1  0  0  0  0
 48 54  1  1  0  0  0
 48 50  1  0  0  0  0
 48 52  1  0  0  0  0
 49 42  1  0  0  0  0
 50 43  1  1  0  0  0
 50 53  1  0  0  0  0
 52 49  1  0  0  0  0
 53 42  1  6  0  0  0
 53 44  1  0  0  0  0
 53 46  1  0  0  0  0
 54 55  1  0  0  0  0
M  END
>  <MODEL>
4

>  <REMARK>
 VINA RESULT:      -6.2      2.135      5.721
  Name = 
  6 active torsions:
  status: ('A' for Active; 'I' for Inactive)
    1  A    between atoms: C_6  and  C_20
    2  A    between atoms: C_7  and  C_8
    3  A    between atoms: C_7  and  C_20
    4  A    between atoms: C_10  and  N_32
    5  A    between atoms: O_11  and  C_29
    6  A    between atoms: C_33  and  C_52
                            x       y       z     vdW  Elec       q    Type
                         _______ _______ _______ _____ _____    ______ ____

>  <TORSDO>
F 6

$$$$
=
 OpenBabel10262420263D

 55 62  0  0  1  0  0  0  0  0999 V2000
  188.3270  176.7810  137.2600 C   0  0  2  0  0  3  0  0  0  0  0  0
  183.1040  178.3230  141.2690 O   0  0  0  0  0  0  0  0  0  0  0  0
  185.4220  179.4820  140.5820 O   0  0  0  0  0  0  0  0  0  0  0  0
  181.9640  178.0160  138.5720 C   0  0  1  0  0  3  0  0  0  0  0  0
  189.3050  178.9790  143.2280 C   0  0  0  0  0  3  0  0  0  0  0  0
  190.5040  179.1550  143.7820 C   0  0  0  0  0  3  0  0  0  0  0  0
  190.3620  177.7880  141.2680 C   0  0  2  0  0  3  0  0  0  0  0  0
  191.6030  177.7560  142.1170 C   0  0  0  0  0  3  0  0  0  0  0  0
  186.7010  178.0520  141.8720 O   0  0  0  0  0  0  0  0  0  0  0  0
  181.6080  177.2950  139.7900 N   0  0  0  0  0  2  0  0  0  0  0  0
  191.6720  178.4230  143.2710 C   0  0  0  0  0  3  0  0  0  0  0  0
  187.6040  174.8250  135.8960 C   0  0  0  0  0  2  0  0  0  0  0  0
  189.0930  177.9780  142.1220 C   0  0  2  0  0  3  0  0  0  0  0  0
  185.0580  176.0760  135.9150 C   0  0  1  0  0  3  0  0  0  0  0  0
  187.9580  177.6100  138.3360 O   0  0  0  0  0  0  0  0  0  0  0  0
  186.2340  176.8310  136.0890 O   0  0  0  0  0  0  0  0  0  0  0  0
  190.0690  176.7070  139.0220 C   0  0  2  0  0  3  0  0  0  0  0  0
  182.8060  177.1290  140.6090 C   0  0  0  0  0  2  0  0  0  0  0  0
  190.2910  176.4730  140.5100 C   0  0  0  0  0  2  0  0  0  0  0  0
  184.2190  178.0350  142.0630 C   0  0  0  0  0  2  0  0  0  0  0  0
  185.4740  178.5550  141.4400 C   0  0  0  0  0  0  0  0  0  0  0  0
  186.7590  174.6920  134.6270 C   0  0  0  0  0  2  0  0  0  0  0  0
  182.7110  177.0880  137.6240 C   0  0  0  0  0  2  0  0  0  0  0  0
  187.1290  175.9910  136.7810 C   0  0  2  0  0  3  0  0  0  0  0  0
  187.9260  178.4340  141.2650 C   0  0  0  0  0  2  0  0  0  0  0  0
  188.6170  176.4080  138.6650 C   0  0  2  0  0  3  0  0  0  0  0  0
  183.4410  177.8870  136.5570 C   0  0  0  0  0  2  0  0  0  0  0  0
  183.9240  176.9720  135.4440 C   0  0  0  0  0  2  0  0  0  0  0  0
  185.2700  174.9360  134.9050 C   0  0  0  0  0  2  0  0  0  0  0  0
  192.3520  176.4130  137.9070 C   0  0  0  0  0  3  0  0  0  0  0  0
  192.9300  174.3460  136.8250 N   0  0  0  0  0  0  0  0  0  0  0  0
  190.6510  174.6730  137.7320 C   0  0  0  0  0  3  0  0  0  0  0  0
  191.5410  173.8650  136.8270 C   0  0  0  0  0  2  0  0  0  0  0  0
  193.2490  175.6780  137.2500 C   0  0  0  0  0  3  0  0  0  0  0  0
  191.0170  175.8670  138.2110 C   0  0  0  0  0  0  0  0  0  0  0  0
  193.9390  173.5900  136.0890 C   0  0  0  0  0  3  0  0  0  0  0  0
  194.6630  172.6270  137.0190 C   0  0  0  0  0  2  0  0  0  0  0  0
  195.3240  173.9230  136.6160 C   0  0  0  0  0  2  0  0  0  0  0  0
  180.6890  178.4700  137.8760 C   0  0  0  0  0  2  0  0  0  0  0  0
  180.9270  179.5980  136.8770 C   0  0  2  0  0  3  0  0  0  0  0  0
  181.9050  179.1760  135.9760 O   0  0  0  0  0  1  0  0  0  0  0  0
  180.0360  182.3200  135.9370 N   0  0  0  0  0  0  0  0  0  0  0  0
  182.6580  183.4530  138.4410 O   0  0  0  0  0  1  0  0  0  0  0  0
  181.4010  180.8790  137.5870 C   0  0  1  0  0  0  0  0  0  0  0  0
  178.9310  181.2170  138.2040 C   0  0  0  0  0  1  0  0  0  0  0  0
  180.3710  181.6950  138.3770 C   0  0  2  0  0  3  0  0  0  0  0  0
  180.7930  182.0970  134.7140 C   0  0  0  0  0  1  0  0  0  0  0  0
  180.8980  184.8040  137.4340 C   0  0  1  0  0  3  0  0  0  0  0  0
  179.4160  183.6450  135.7660 C   0  0  0  0  0  2  0  0  0  0  0  0
  181.8030  183.5550  137.3380 C   0  0  2  0  0  3  0  0  0  0  0  0
  182.6510  180.8240  138.2120 O   0  0  0  0  0  1  0  0  0  0  0  0
  179.4530  184.5160  137.0240 C   0  0  0  0  0  2  0  0  0  0  0  0
  180.9800  182.2690  137.0780 C   0  0  2  0  0  0  0  0  0  0  0  0
  180.9010  185.3480  138.7220 O   0  0  0  0  0  0  0  0  0  0  0  0
  179.7350  185.9460  138.8340 O   0  0  0  0  0  1  0  0  0  0  0  0
  1 15  1  1  0  0  0
  1 26  1  0  0  0  0
  2 20  1  0  0  0  0
  3 21  2  0  0  0  0
  4 39  1  6  0  0  0
  4 10  1  0  0  0  0
  5  6  2  0  0  0  0
  7 19  1  1  0  0  0
  7  8  1  0  0  0  0
  7 13  1  0  0  0  0
  8 11  2  0  0  0  0
 10 18  1  0  0  0  0
 11  6  1  0  0  0  0
 13 25  1  6  0  0  0
 13  5  1  0  0  0  0
 14 29  1  6  0  0  0
 14 16  1  0  0  0  0
 16 24  1  0  0  0  0
 17 35  1  6  0  0  0
 17 19  1  0  0  0  0
 18  2  1  0  0  0  0
 21  9  1  0  0  0  0
 21 20  1  0  0  0  0
 22 29  1  0  0  0  0
 22 12  1  0  0  0  0
 23  4  1  0  0  0  0
 24 12  1  6  0  0  0
 24  1  1  0  0  0  0
 25  9  1  0  0  0  0
 26 15  1  1  0  0  0
 26 17  1  0  0  0  0
 27 23  1  0  0  0  0
 28 14  1  0  0  0  0
 28 27  1  0  0  0  0
 30 35  1  0  0  0  0
 31 33  1  0  0  0  0
 31 34  1  0  0  0  0
 32 35  2  0  0  0  0
 33 32  1  0  0  0  0
 34 30  2  0  0  0  0
 36 38  1  0  0  0  0
 36 31  1  0  0  0  0
 36 37  1  0  0  0  0
 38 37  1  0  0  0  0
 40 41  1  6  0  0  0
 40 44  1  0  0  0  0
 40 39  1  0  0  0  0
 44 51  1  1  0  0  0
 44 46  1  0  0  0  0
 46 45  1  6  0  0  0
 47 42  1  0  0  0  0
 48 54  1  1  0  0  0
 49 42  1  0  0  0  0
 49 52  1  0  0  0  0
 50 48  1  0  0  0  0
 50 43  1  1  0  0  0
 52 48  1  0  0  0  0
 53 42  1  6  0  0  0
 53 50  1  0  0  0  0
 53 44  1  0  0  0  0
 53 46  1  0  0  0  0
 54 55  1  0  0  0  0
M  END
>  <MODEL>
5

>  <REMARK>
 VINA RESULT:      -6.1      3.810     12.244
  Name = 
  6 active torsions:
  status: ('A' for Active; 'I' for Inactive)
    1  A    between atoms: C_6  and  C_20
    2  A    between atoms: C_7  and  C_8
    3  A    between atoms: C_7  and  C_20
    4  A    between atoms: C_10  and  N_32
    5  A    between atoms: O_11  and  C_29
    6  A    between atoms: C_33  and  C_52
                            x       y       z     vdW  Elec       q    Type
                         _______ _______ _______ _____ _____    ______ ____

>  <TORSDO>
F 6

$$$$
