=
 OpenBabel10262419563D

 25 28  0  0  1  0  0  0  0  0999 V2000
  189.4270  178.0220  144.1740 C   0  0  2  0  0  0  0  0  0  0  0  0
  189.5060  177.9650  142.6270 C   0  0  2  0  0  3  0  0  0  0  0  0
  191.4030  176.3240  144.2220 C   0  0  0  0  0  2  0  0  0  0  0  0
  188.0920  178.4340  144.8070 C   0  0  0  0  0  2  0  0  0  0  0  0
  188.2490  176.6220  148.1530 C   0  0  0  0  0  1  0  0  0  0  0  0
  190.6970  175.7160  143.0260 C   0  0  0  0  0  2  0  0  0  0  0  0
  188.7550  177.3870  146.9500 C   0  0  2  0  0  3  0  0  0  0  0  0
  187.6560  177.4790  145.9080 C   0  0  0  0  0  2  0  0  0  0  0  0
  189.7000  176.2220  140.9150 O   0  0  0  0  0  0  0  0  0  0  0  0
  189.3600  177.2500  140.0140 C   0  0  0  0  0  2  0  0  0  0  0  0
  188.2250  177.9750  142.0440 O   0  0  0  0  0  0  0  0  0  0  0  0
  190.5930  178.7310  144.8980 C   0  0  1  0  0  3  0  0  0  0  0  0
  190.4350  177.2110  145.0060 C   0  0  1  0  0  0  0  0  0  0  0  0
  189.9620  176.6630  146.3620 C   0  0  0  0  0  2  0  0  0  0  0  0
  191.7340  179.1700  143.9800 C   0  0  0  0  0  1  0  0  0  0  0  0
  188.3970  178.2580  140.6710 C   0  0  2  0  0  3  0  0  0  0  0  0
  190.3570  176.8080  142.0200 C   0  0  1  0  0  3  0  0  0  0  0  0
  187.0540  178.2070  139.9620 C   0  0  0  0  0  2  0  0  0  0  0  0
  185.9910  178.9840  140.7290 C   0  0  0  0  0  2  0  0  0  0  0  0
  184.6010  178.3930  140.5240 C   0  0  0  0  0  2  0  0  0  0  0  0
  183.8950  178.1540  141.8520 C   0  0  0  0  0  2  0  0  0  0  0  0
  184.8370  178.3510  143.0340 C   0  0  0  0  0  2  0  0  0  0  0  0
  184.3770  179.4990  143.9240 C   0  0  0  0  0  2  0  0  0  0  0  0
  183.5770  178.9940  145.1140 C   0  0  0  0  0  2  0  0  0  0  0  0
  184.4210  178.8000  146.2080 O   0  0  0  0  0  1  0  0  0  0  0  0
  1  4  1  1  0  0  0
  1 12  1  0  0  0  0
  1 13  1  0  0  0  0
  2 11  1  6  0  0  0
  2  1  1  0  0  0  0
  4  8  1  0  0  0  0
  6  3  1  0  0  0  0
  7  5  1  1  0  0  0
  8  7  1  0  0  0  0
  9 17  1  0  0  0  0
 10 16  1  0  0  0  0
 10  9  1  0  0  0  0
 12 15  1  6  0  0  0
 12 13  1  0  0  0  0
 13  3  1  6  0  0  0
 13 14  1  0  0  0  0
 14  7  1  0  0  0  0
 16 18  1  6  0  0  0
 16 11  1  0  0  0  0
 17  2  1  0  0  0  0
 17  6  1  1  0  0  0
 18 19  1  0  0  0  0
 20 19  1  0  0  0  0
 20 21  1  0  0  0  0
 21 22  1  0  0  0  0
 22 23  1  0  0  0  0
 23 24  1  0  0  0  0
 24 25  1  0  0  0  0
M  END
>  <MODEL>
1

>  <REMARK>
 VINA RESULT:      -7.4      0.000      0.000
  Name = 
  7 active torsions:
  status: ('A' for Active; 'I' for Inactive)
    1  A    between atoms: C_2  and  C_7
    2  A    between atoms: C_2  and  C_25
    3  A    between atoms: C_6  and  C_15
    4  A    between atoms: C_6  and  C_21
    5  A    between atoms: C_15  and  C_20
    6  A    between atoms: C_20  and  C_23
    7  A    between atoms: C_21  and  C_25
                            x       y       z     vdW  Elec       q    Type
                         _______ _______ _______ _____ _____    ______ ____

>  <TORSDO>
F 7

$$$$
=
 OpenBabel10262419563D

 25 28  0  0  1  0  0  0  0  0999 V2000
  189.8450  177.7360  145.3040 C   0  0  2  0  0  0  0  0  0  0  0  0
  188.5840  178.0210  144.4510 C   0  0  2  0  0  3  0  0  0  0  0  0
  190.7760  176.3970  143.2720 C   0  0  0  0  0  2  0  0  0  0  0  0
  189.7040  177.7900  146.8310 C   0  0  0  0  0  2  0  0  0  0  0  0
  192.4200  175.3570  147.9320 C   0  0  0  0  0  1  0  0  0  0  0  0
  189.3350  175.9540  143.1110 C   0  0  0  0  0  2  0  0  0  0  0  0
  191.7540  176.4300  147.0960 C   0  0  2  0  0  3  0  0  0  0  0  0
  190.3020  176.5670  147.5100 C   0  0  0  0  0  2  0  0  0  0  0  0
  187.0800  176.7320  143.0070 O   0  0  0  0  0  0  0  0  0  0  0  0
  186.2420  177.8620  143.0900 C   0  0  0  0  0  2  0  0  0  0  0  0
  187.4100  177.9540  145.2260 O   0  0  0  0  0  0  0  0  0  0  0  0
  191.1460  178.4490  144.8720 C   0  0  1  0  0  3  0  0  0  0  0  0
  191.0030  176.9350  144.6850 C   0  0  1  0  0  0  0  0  0  0  0  0
  191.8360  176.0450  145.6220 C   0  0  0  0  0  2  0  0  0  0  0  0
  191.0280  179.2450  143.5720 C   0  0  0  0  0  1  0  0  0  0  0  0
  186.3770  178.5440  144.4650 C   0  0  2  0  0  3  0  0  0  0  0  0
  188.4160  177.1670  143.1580 C   0  0  1  0  0  3  0  0  0  0  0  0
  185.0590  178.4350  145.2140 C   0  0  0  0  0  2  0  0  0  0  0  0
  184.0360  179.4320  144.6840 C   0  0  0  0  0  2  0  0  0  0  0  0
  182.7690  178.7370  144.2000 C   0  0  0  0  0  2  0  0  0  0  0  0
  182.7110  178.6790  142.6780 C   0  0  0  0  0  2  0  0  0  0  0  0
  181.3030  178.9380  142.1580 C   0  0  0  0  0  2  0  0  0  0  0  0
  180.2620  178.7410  143.2530 C   0  0  0  0  0  2  0  0  0  0  0  0
  179.3920  179.9760  143.4210 C   0  0  0  0  0  2  0  0  0  0  0  0
  179.7170  180.9240  142.4490 O   0  0  0  0  0  1  0  0  0  0  0  0
  1  4  1  1  0  0  0
  2 11  1  1  0  0  0
  2  1  1  0  0  0  0
  4  8  1  0  0  0  0
  6  3  1  0  0  0  0
  7  8  1  0  0  0  0
  7  5  1  1  0  0  0
  9 10  1  0  0  0  0
  9 17  1  0  0  0  0
 10 16  1  0  0  0  0
 12 15  1  6  0  0  0
 12  1  1  0  0  0  0
 13  3  1  6  0  0  0
 13 12  1  0  0  0  0
 13  1  1  0  0  0  0
 13 14  1  0  0  0  0
 14  7  1  0  0  0  0
 16 18  1  1  0  0  0
 16 11  1  0  0  0  0
 17  6  1  1  0  0  0
 17  2  1  0  0  0  0
 19 18  1  0  0  0  0
 20 19  1  0  0  0  0
 21 20  1  0  0  0  0
 22 21  1  0  0  0  0
 22 23  1  0  0  0  0
 23 24  1  0  0  0  0
 25 24  1  0  0  0  0
M  END
>  <MODEL>
2

>  <REMARK>
 VINA RESULT:      -7.4      2.340      3.414
  Name = 
  7 active torsions:
  status: ('A' for Active; 'I' for Inactive)
    1  A    between atoms: C_2  and  C_7
    2  A    between atoms: C_2  and  C_25
    3  A    between atoms: C_6  and  C_15
    4  A    between atoms: C_6  and  C_21
    5  A    between atoms: C_15  and  C_20
    6  A    between atoms: C_20  and  C_23
    7  A    between atoms: C_21  and  C_25
                            x       y       z     vdW  Elec       q    Type
                         _______ _______ _______ _____ _____    ______ ____

>  <TORSDO>
F 7

$$$$
=
 OpenBabel10262419563D

 25 28  0  0  1  0  0  0  0  0999 V2000
  189.3170  176.9610  143.0210 C   0  0  2  0  0  0  0  0  0  0  0  0
  189.1900  177.0710  144.5610 C   0  0  2  0  0  3  0  0  0  0  0  0
  191.7930  177.7280  143.2860 C   0  0  0  0  0  2  0  0  0  0  0  0
  188.0350  177.0780  142.1870 C   0  0  0  0  0  2  0  0  0  0  0  0
  189.3830  178.4830  138.9140 C   0  0  0  0  0  1  0  0  0  0  0  0
  191.2270  178.6350  144.3620 C   0  0  0  0  0  2  0  0  0  0  0  0
  189.3620  177.6500  140.1780 C   0  0  2  0  0  3  0  0  0  0  0  0
  188.1820  178.0620  141.0370 C   0  0  0  0  0  2  0  0  0  0  0  0
  189.8200  178.6900  146.2910 O   0  0  0  0  0  0  0  0  0  0  0  0
  188.9700  177.9350  147.1240 C   0  0  0  0  0  2  0  0  0  0  0  0
  187.9430  177.6050  144.9400 O   0  0  0  0  0  0  0  0  0  0  0  0
  190.1910  175.8070  142.4820 C   0  0  1  0  0  3  0  0  0  0  0  0
  190.6730  177.2560  142.3590 C   0  0  1  0  0  0  0  0  0  0  0  0
  190.6610  177.8670  140.9480 C   0  0  0  0  0  2  0  0  0  0  0  0
  190.9150  175.0040  143.5630 C   0  0  0  0  0  1  0  0  0  0  0  0
  187.7890  177.3570  146.3210 C   0  0  2  0  0  3  0  0  0  0  0  0
  190.3370  177.8280  145.2980 C   0  0  1  0  0  3  0  0  0  0  0  0
  186.4930  177.9780  146.8150 C   0  0  0  0  0  2  0  0  0  0  0  0
  185.8690  178.8770  145.7540 C   0  0  0  0  0  2  0  0  0  0  0  0
  184.3480  178.7790  145.7550 C   0  0  0  0  0  2  0  0  0  0  0  0
  183.7760  178.9720  144.3560 C   0  0  0  0  0  2  0  0  0  0  0  0
  184.6320  178.2850  143.2990 C   0  0  0  0  0  2  0  0  0  0  0  0
  185.0220  179.2510  142.1870 C   0  0  0  0  0  2  0  0  0  0  0  0
  184.3890  178.8580  140.8620 C   0  0  0  0  0  2  0  0  0  0  0  0
  184.7650  179.7620  139.8670 O   0  0  0  0  0  1  0  0  0  0  0  0
  1  4  1  6  0  0  0
  1  2  1  0  0  0  0
  2 11  1  6  0  0  0
  2 17  1  0  0  0  0
  3  6  1  0  0  0  0
  7  5  1  6  0  0  0
  7 14  1  0  0  0  0
  7  8  1  0  0  0  0
  8  4  1  0  0  0  0
  9 10  1  0  0  0  0
 11 16  1  0  0  0  0
 12  1  1  0  0  0  0
 12 15  1  1  0  0  0
 13 14  1  6  0  0  0
 13 12  1  0  0  0  0
 13  1  1  0  0  0  0
 13  3  1  0  0  0  0
 16 18  1  1  0  0  0
 16 10  1  0  0  0  0
 17  6  1  6  0  0  0
 17  9  1  0  0  0  0
 19 20  1  0  0  0  0
 19 18  1  0  0  0  0
 21 20  1  0  0  0  0
 22 21  1  0  0  0  0
 23 22  1  0  0  0  0
 24 23  1  0  0  0  0
 25 24  1  0  0  0  0
M  END
>  <MODEL>
3

>  <REMARK>
 VINA RESULT:      -7.3      1.766      4.782
  Name = 
  7 active torsions:
  status: ('A' for Active; 'I' for Inactive)
    1  A    between atoms: C_2  and  C_7
    2  A    between atoms: C_2  and  C_25
    3  A    between atoms: C_6  and  C_15
    4  A    between atoms: C_6  and  C_21
    5  A    between atoms: C_15  and  C_20
    6  A    between atoms: C_20  and  C_23
    7  A    between atoms: C_21  and  C_25
                            x       y       z     vdW  Elec       q    Type
                         _______ _______ _______ _____ _____    ______ ____

>  <TORSDO>
F 7

$$$$
=
 OpenBabel10262419563D

 25 28  0  0  1  0  0  0  0  0999 V2000
  181.7820  178.0030  140.6270 C   0  0  2  0  0  0  0  0  0  0  0  0
  182.4750  178.7350  141.8050 C   0  0  2  0  0  3  0  0  0  0  0  0
  179.5120  178.4930  141.8090 C   0  0  0  0  0  2  0  0  0  0  0  0
  182.6060  176.9790  139.8380 C   0  0  0  0  0  2  0  0  0  0  0  0
  179.8930  174.6030  138.6120 C   0  0  0  0  0  1  0  0  0  0  0  0
  180.2970  178.2120  143.0760 C   0  0  0  0  0  2  0  0  0  0  0  0
  180.5340  175.9200  138.9960 C   0  0  2  0  0  3  0  0  0  0  0  0
  181.8710  175.6590  139.6610 C   0  0  0  0  0  2  0  0  0  0  0  0
  182.3110  178.7300  144.2500 O   0  0  0  0  0  0  0  0  0  0  0  0
  183.5250  179.4430  144.2040 C   0  0  0  0  0  2  0  0  0  0  0  0
  183.6680  178.0900  142.1830 O   0  0  0  0  0  0  0  0  0  0  0  0
  180.9650  178.8820  139.6540 C   0  0  1  0  0  3  0  0  0  0  0  0
  180.2470  177.9140  140.6000 C   0  0  1  0  0  0  0  0  0  0  0  0
  179.6160  176.6670  139.9580 C   0  0  0  0  0  2  0  0  0  0  0  0
  180.8520  180.3490  140.0700 C   0  0  0  0  0  1  0  0  0  0  0  0
  184.3810  178.9890  143.0050 C   0  0  2  0  0  3  0  0  0  0  0  0
  181.5950  179.0060  143.0630 C   0  0  1  0  0  3  0  0  0  0  0  0
  185.6500  178.3250  143.5160 C   0  0  0  0  0  2  0  0  0  0  0  0
  185.7400  178.3960  145.0350 C   0  0  0  0  0  2  0  0  0  0  0  0
  186.9110  177.5790  145.5700 C   0  0  0  0  0  2  0  0  0  0  0  0
  188.0110  177.4320  144.5260 C   0  0  0  0  0  2  0  0  0  0  0  0
  189.3970  177.5310  145.1510 C   0  0  0  0  0  2  0  0  0  0  0  0
  189.3480  177.2680  146.6510 C   0  0  0  0  0  2  0  0  0  0  0  0
  190.6790  176.7450  147.1670 C   0  0  0  0  0  2  0  0  0  0  0  0
  191.7020  177.0920  146.2840 O   0  0  0  0  0  1  0  0  0  0  0  0
  1  4  1  6  0  0  0
  1  2  1  0  0  0  0
  2 11  1  1  0  0  0
  2 17  1  0  0  0  0
  3  6  1  0  0  0  0
  7  5  1  1  0  0  0
  7  8  1  0  0  0  0
  7 14  1  0  0  0  0
  8  4  1  0  0  0  0
 10  9  1  0  0  0  0
 11 16  1  0  0  0  0
 12 15  1  1  0  0  0
 12 13  1  0  0  0  0
 12  1  1  0  0  0  0
 13 14  1  6  0  0  0
 13  1  1  0  0  0  0
 13  3  1  0  0  0  0
 16 18  1  1  0  0  0
 16 10  1  0  0  0  0
 17  6  1  6  0  0  0
 17  9  1  0  0  0  0
 18 19  1  0  0  0  0
 19 20  1  0  0  0  0
 21 22  1  0  0  0  0
 21 20  1  0  0  0  0
 22 23  1  0  0  0  0
 23 24  1  0  0  0  0
 25 24  1  0  0  0  0
M  END
>  <MODEL>
4

>  <REMARK>
 VINA RESULT:      -6.4      3.302      8.644
  Name = 
  7 active torsions:
  status: ('A' for Active; 'I' for Inactive)
    1  A    between atoms: C_2  and  C_7
    2  A    between atoms: C_2  and  C_25
    3  A    between atoms: C_6  and  C_15
    4  A    between atoms: C_6  and  C_21
    5  A    between atoms: C_15  and  C_20
    6  A    between atoms: C_20  and  C_23
    7  A    between atoms: C_21  and  C_25
                            x       y       z     vdW  Elec       q    Type
                         _______ _______ _______ _____ _____    ______ ____

>  <TORSDO>
F 7

$$$$
=
 OpenBabel10262419563D

 25 28  0  0  1  0  0  0  0  0999 V2000
  182.2000  178.4410  140.7890 C   0  0  2  0  0  0  0  0  0  0  0  0
  183.5730  178.2410  141.4790 C   0  0  2  0  0  3  0  0  0  0  0  0
  183.4930  178.6610  138.5370 C   0  0  0  0  0  2  0  0  0  0  0  0
  181.0410  178.9700  141.6430 C   0  0  0  0  0  2  0  0  0  0  0  0
  178.9310  180.7670  139.0310 C   0  0  0  0  0  1  0  0  0  0  0  0
  184.5100  179.4050  139.3810 C   0  0  0  0  0  2  0  0  0  0  0  0
  179.8390  179.7020  139.6070 C   0  0  2  0  0  3  0  0  0  0  0  0
  180.3180  180.1320  140.9810 C   0  0  0  0  0  2  0  0  0  0  0  0
  185.7800  179.3060  141.4010 O   0  0  0  0  0  0  0  0  0  0  0  0
  186.0370  178.5610  142.5700 C   0  0  0  0  0  2  0  0  0  0  0  0
  183.6290  178.9030  142.7200 O   0  0  0  0  0  0  0  0  0  0  0  0
  181.7060  177.2870  139.8880 C   0  0  1  0  0  3  0  0  0  0  0  0
  182.1470  178.6140  139.2620 C   0  0  1  0  0  0  0  0  0  0  0  0
  181.0360  179.5040  138.6820 C   0  0  0  0  0  2  0  0  0  0  0  0
  182.7130  176.1520  139.7060 C   0  0  0  0  0  1  0  0  0  0  0  0
  184.7540  178.3980  143.4080 C   0  0  2  0  0  3  0  0  0  0  0  0
  184.8320  178.5960  140.6300 C   0  0  1  0  0  3  0  0  0  0  0  0
  184.9210  179.1290  144.7300 C   0  0  0  0  0  2  0  0  0  0  0  0
  185.2740  178.1650  145.8560 C   0  0  0  0  0  2  0  0  0  0  0  0
  186.6010  178.5270  146.5130 C   0  0  0  0  0  2  0  0  0  0  0  0
  187.6270  177.4120  146.3490 C   0  0  0  0  0  2  0  0  0  0  0  0
  188.3760  177.5280  145.0280 C   0  0  0  0  0  2  0  0  0  0  0  0
  189.7220  178.2200  145.2110 C   0  0  0  0  0  2  0  0  0  0  0  0
  190.5050  178.2680  143.9100 C   0  0  0  0  0  2  0  0  0  0  0  0
  191.6750  179.0080  144.0840 O   0  0  0  0  0  1  0  0  0  0  0  0
  1  2  1  0  0  0  0
  1  4  1  1  0  0  0
  2 11  1  1  0  0  0
  3  6  1  0  0  0  0
  7  5  1  6  0  0  0
  7  8  1  0  0  0  0
  8  4  1  0  0  0  0
  9 10  1  0  0  0  0
 10 16  1  0  0  0  0
 11 16  1  0  0  0  0
 12 15  1  6  0  0  0
 12  1  1  0  0  0  0
 13  3  1  6  0  0  0
 13 12  1  0  0  0  0
 13  1  1  0  0  0  0
 14 13  1  0  0  0  0
 14  7  1  0  0  0  0
 16 18  1  1  0  0  0
 17  6  1  6  0  0  0
 17  9  1  0  0  0  0
 17  2  1  0  0  0  0
 18 19  1  0  0  0  0
 19 20  1  0  0  0  0
 21 20  1  0  0  0  0
 22 23  1  0  0  0  0
 22 21  1  0  0  0  0
 24 25  1  0  0  0  0
 24 23  1  0  0  0  0
M  END
>  <MODEL>
5

>  <REMARK>
 VINA RESULT:      -6.2      2.804      8.030
  Name = 
  7 active torsions:
  status: ('A' for Active; 'I' for Inactive)
    1  A    between atoms: C_2  and  C_7
    2  A    between atoms: C_2  and  C_25
    3  A    between atoms: C_6  and  C_15
    4  A    between atoms: C_6  and  C_21
    5  A    between atoms: C_15  and  C_20
    6  A    between atoms: C_20  and  C_23
    7  A    between atoms: C_21  and  C_25
                            x       y       z     vdW  Elec       q    Type
                         _______ _______ _______ _____ _____    ______ ____

>  <TORSDO>
F 7

$$$$
=
 OpenBabel10262419563D

 25 28  0  0  1  0  0  0  0  0999 V2000
  188.0450  178.0670  139.1770 C   0  0  2  0  0  0  0  0  0  0  0  0
  186.7630  177.9820  138.3110 C   0  0  2  0  0  3  0  0  0  0  0  0
  189.1320  176.3680  137.5270 C   0  0  0  0  0  2  0  0  0  0  0  0
  187.8920  178.4910  140.6430 C   0  0  0  0  0  2  0  0  0  0  0  0
  190.8650  176.7390  142.2550 C   0  0  0  0  0  1  0  0  0  0  0  0
  187.7520  175.7400  137.5200 C   0  0  0  0  0  2  0  0  0  0  0  0
  190.0840  177.4820  141.1920 C   0  0  2  0  0  3  0  0  0  0  0  0
  188.6240  177.5560  141.5940 C   0  0  0  0  0  2  0  0  0  0  0  0
  185.4230  176.2070  137.2790 O   0  0  0  0  0  0  0  0  0  0  0  0
  184.4600  177.2200  137.0940 C   0  0  0  0  0  2  0  0  0  0  0  0
  185.6010  177.9820  139.1080 O   0  0  0  0  0  0  0  0  0  0  0  0
  189.2570  178.7870  138.5450 C   0  0  1  0  0  3  0  0  0  0  0  0
  189.2900  177.2690  138.7520 C   0  0  1  0  0  0  0  0  0  0  0  0
  190.2160  176.7470  139.8620 C   0  0  0  0  0  2  0  0  0  0  0  0
  189.0540  179.2090  137.0900 C   0  0  0  0  0  1  0  0  0  0  0  0
  184.5110  178.2400  138.2490 C   0  0  2  0  0  3  0  0  0  0  0  0
  186.7000  176.8130  137.2810 C   0  0  1  0  0  3  0  0  0  0  0  0
  183.2100  178.1770  139.0330 C   0  0  0  0  0  2  0  0  0  0  0  0
  183.4300  177.5950  140.4250 C   0  0  0  0  0  2  0  0  0  0  0  0
  183.1840  178.6320  141.5140 C   0  0  0  0  0  2  0  0  0  0  0  0
  184.4630  178.9530  142.2780 C   0  0  0  0  0  2  0  0  0  0  0  0
  184.3720  178.5160  143.7350 C   0  0  0  0  0  2  0  0  0  0  0  0
  185.7540  178.2540  144.3230 C   0  0  0  0  0  2  0  0  0  0  0  0
  185.7030  178.1490  145.8380 C   0  0  0  0  0  2  0  0  0  0  0  0
  184.7190  179.0010  146.3420 O   0  0  0  0  0  1  0  0  0  0  0  0
  1  4  1  1  0  0  0
  2 11  1  1  0  0  0
  2  1  1  0  0  0  0
  4  8  1  0  0  0  0
  6  3  1  0  0  0  0
  7  8  1  0  0  0  0
  7  5  1  1  0  0  0
  9 17  1  0  0  0  0
 10  9  1  0  0  0  0
 10 16  1  0  0  0  0
 12 15  1  6  0  0  0
 12 13  1  0  0  0  0
 12  1  1  0  0  0  0
 13  3  1  6  0  0  0
 13  1  1  0  0  0  0
 13 14  1  0  0  0  0
 14  7  1  0  0  0  0
 16 18  1  1  0  0  0
 16 11  1  0  0  0  0
 17  6  1  1  0  0  0
 17  2  1  0  0  0  0
 18 19  1  0  0  0  0
 19 20  1  0  0  0  0
 20 21  1  0  0  0  0
 21 22  1  0  0  0  0
 22 23  1  0  0  0  0
 23 24  1  0  0  0  0
 24 25  1  0  0  0  0
M  END
>  <MODEL>
6

>  <REMARK>
 VINA RESULT:      -6.2      2.449      4.940
  Name = 
  7 active torsions:
  status: ('A' for Active; 'I' for Inactive)
    1  A    between atoms: C_2  and  C_7
    2  A    between atoms: C_2  and  C_25
    3  A    between atoms: C_6  and  C_15
    4  A    between atoms: C_6  and  C_21
    5  A    between atoms: C_15  and  C_20
    6  A    between atoms: C_20  and  C_23
    7  A    between atoms: C_21  and  C_25
                            x       y       z     vdW  Elec       q    Type
                         _______ _______ _______ _____ _____    ______ ____

>  <TORSDO>
F 7

$$$$
=
 OpenBabel10262419563D

 25 28  0  0  1  0  0  0  0  0999 V2000
  189.1180  178.1580  143.1320 C   0  0  2  0  0  0  0  0  0  0  0  0
  189.8660  177.9290  141.7950 C   0  0  2  0  0  3  0  0  0  0  0  0
  190.6410  176.3150  144.1670 C   0  0  0  0  0  2  0  0  0  0  0  0
  187.7020  178.7450  143.0670 C   0  0  0  0  0  2  0  0  0  0  0  0
  186.1340  177.2950  146.2210 C   0  0  0  0  0  1  0  0  0  0  0  0
  190.4700  175.6440  142.8180 C   0  0  0  0  0  2  0  0  0  0  0  0
  187.2120  177.8820  145.3350 C   0  0  2  0  0  3  0  0  0  0  0  0
  186.7100  177.9540  143.9060 C   0  0  0  0  0  2  0  0  0  0  0  0
  190.5830  176.0020  140.4600 O   0  0  0  0  0  0  0  0  0  0  0  0
  190.8080  176.9540  139.4440 C   0  0  0  0  0  2  0  0  0  0  0  0
  188.9890  177.9840  140.6950 O   0  0  0  0  0  0  0  0  0  0  0  0
  189.9190  178.8400  144.2630 C   0  0  1  0  0  3  0  0  0  0  0  0
  189.5430  177.3590  144.3750 C   0  0  1  0  0  0  0  0  0  0  0  0
  188.4550  177.0010  145.4010 C   0  0  0  0  0  2  0  0  0  0  0  0
  191.3930  179.0810  143.9370 C   0  0  0  0  0  1  0  0  0  0  0  0
  189.7850  178.1030  139.5350 C   0  0  2  0  0  3  0  0  0  0  0  0
  190.7490  176.6470  141.7070 C   0  0  1  0  0  3  0  0  0  0  0  0
  188.9000  178.0880  138.2990 C   0  0  0  0  0  2  0  0  0  0  0  0
  187.5160  177.5360  138.6140 C   0  0  0  0  0  2  0  0  0  0  0  0
  186.4290  178.2500  137.8180 C   0  0  0  0  0  2  0  0  0  0  0  0
  185.0390  177.9090  138.3410 C   0  0  0  0  0  2  0  0  0  0  0  0
  184.4650  179.0370  139.1890 C   0  0  0  0  0  2  0  0  0  0  0  0
  184.9050  178.9180  140.6430 C   0  0  0  0  0  2  0  0  0  0  0  0
  183.8370  178.2510  141.4940 C   0  0  0  0  0  2  0  0  0  0  0  0
  183.6020  179.0080  142.6430 O   0  0  0  0  0  1  0  0  0  0  0  0
  1  4  1  6  0  0  0
  1 12  1  0  0  0  0
  1 13  1  0  0  0  0
  2 11  1  6  0  0  0
  2  1  1  0  0  0  0
  4  8  1  0  0  0  0
  6  3  1  0  0  0  0
  7 14  1  0  0  0  0
  7  5  1  1  0  0  0
  8  7  1  0  0  0  0
  9 17  1  0  0  0  0
 10 16  1  0  0  0  0
 10  9  1  0  0  0  0
 12 15  1  6  0  0  0
 12 13  1  0  0  0  0
 13  3  1  6  0  0  0
 13 14  1  0  0  0  0
 16 18  1  6  0  0  0
 16 11  1  0  0  0  0
 17  2  1  0  0  0  0
 17  6  1  1  0  0  0
 18 19  1  0  0  0  0
 20 21  1  0  0  0  0
 20 19  1  0  0  0  0
 21 22  1  0  0  0  0
 22 23  1  0  0  0  0
 23 24  1  0  0  0  0
 24 25  1  0  0  0  0
M  END
>  <MODEL>
7

>  <REMARK>
 VINA RESULT:      -6.1      1.638      2.310
  Name = 
  7 active torsions:
  status: ('A' for Active; 'I' for Inactive)
    1  A    between atoms: C_2  and  C_7
    2  A    between atoms: C_2  and  C_25
    3  A    between atoms: C_6  and  C_15
    4  A    between atoms: C_6  and  C_21
    5  A    between atoms: C_15  and  C_20
    6  A    between atoms: C_20  and  C_23
    7  A    between atoms: C_21  and  C_25
                            x       y       z     vdW  Elec       q    Type
                         _______ _______ _______ _____ _____    ______ ____

>  <TORSDO>
F 7

$$$$
=
 OpenBabel10262419563D

 25 28  0  0  1  0  0  0  0  0999 V2000
  189.5540  178.0110  144.0960 C   0  0  2  0  0  0  0  0  0  0  0  0
  189.8690  177.8660  142.5860 C   0  0  2  0  0  3  0  0  0  0  0  0
  191.6520  176.5360  144.5570 C   0  0  0  0  0  2  0  0  0  0  0  0
  188.1060  178.3180  144.4990 C   0  0  0  0  0  2  0  0  0  0  0  0
  187.9310  176.7450  147.9630 C   0  0  0  0  0  1  0  0  0  0  0  0
  191.1950  175.7840  143.3230 C   0  0  0  0  0  2  0  0  0  0  0  0
  188.5370  177.4820  146.7880 C   0  0  2  0  0  3  0  0  0  0  0  0
  187.6030  177.3930  145.5970 C   0  0  0  0  0  2  0  0  0  0  0  0
  190.4820  176.0490  141.0590 O   0  0  0  0  0  0  0  0  0  0  0  0
  190.1850  176.9780  140.0410 C   0  0  0  0  0  2  0  0  0  0  0  0
  188.6940  177.7050  141.8270 O   0  0  0  0  0  0  0  0  0  0  0  0
  190.5260  178.8820  144.9230 C   0  0  1  0  0  3  0  0  0  0  0  0
  190.4980  177.3630  145.1240 C   0  0  1  0  0  0  0  0  0  0  0  0
  189.8820  176.8540  146.4370 C   0  0  0  0  0  2  0  0  0  0  0  0
  191.7440  179.3800  144.1470 C   0  0  0  0  0  1  0  0  0  0  0  0
  189.0430  177.9170  140.4750 C   0  0  2  0  0  3  0  0  0  0  0  0
  190.9080  176.7690  142.1980 C   0  0  1  0  0  3  0  0  0  0  0  0
  187.8320  177.6810  139.5870 C   0  0  0  0  0  2  0  0  0  0  0  0
  188.0520  178.2440  138.1880 C   0  0  0  0  0  2  0  0  0  0  0  0
  187.9140  177.1680  137.1180 C   0  0  0  0  0  2  0  0  0  0  0  0
  188.7300  177.5070  135.8770 C   0  0  0  0  0  2  0  0  0  0  0  0
  189.5810  176.3290  135.4230 C   0  0  0  0  0  2  0  0  0  0  0  0
  190.7950  176.1400  136.3260 C   0  0  0  0  0  2  0  0  0  0  0  0
  191.0390  174.6720  136.6300 C   0  0  0  0  0  2  0  0  0  0  0  0
  191.3980  174.5150  137.9690 O   0  0  0  0  0  1  0  0  0  0  0  0
  1  4  1  1  0  0  0
  1 12  1  0  0  0  0
  1 13  1  0  0  0  0
  2 11  1  6  0  0  0
  2  1  1  0  0  0  0
  4  8  1  0  0  0  0
  6  3  1  0  0  0  0
  7  5  1  1  0  0  0
  8  7  1  0  0  0  0
  9 17  1  0  0  0  0
 10 16  1  0  0  0  0
 10  9  1  0  0  0  0
 12 15  1  6  0  0  0
 12 13  1  0  0  0  0
 13  3  1  6  0  0  0
 13 14  1  0  0  0  0
 14  7  1  0  0  0  0
 16 18  1  6  0  0  0
 16 11  1  0  0  0  0
 17  2  1  0  0  0  0
 17  6  1  1  0  0  0
 19 18  1  0  0  0  0
 20 19  1  0  0  0  0
 21 20  1  0  0  0  0
 22 21  1  0  0  0  0
 22 23  1  0  0  0  0
 23 24  1  0  0  0  0
 24 25  1  0  0  0  0
M  END
>  <MODEL>
8

>  <REMARK>
 VINA RESULT:      -6.1      2.283      4.799
  Name = 
  7 active torsions:
  status: ('A' for Active; 'I' for Inactive)
    1  A    between atoms: C_2  and  C_7
    2  A    between atoms: C_2  and  C_25
    3  A    between atoms: C_6  and  C_15
    4  A    between atoms: C_6  and  C_21
    5  A    between atoms: C_15  and  C_20
    6  A    between atoms: C_20  and  C_23
    7  A    between atoms: C_21  and  C_25
                            x       y       z     vdW  Elec       q    Type
                         _______ _______ _______ _____ _____    ______ ____

>  <TORSDO>
F 7

$$$$
=
 OpenBabel10262419563D

 25 28  0  0  1  0  0  0  0  0999 V2000
  189.3660  178.0640  144.2630 C   0  0  2  0  0  0  0  0  0  0  0  0
  189.4270  178.0020  142.7150 C   0  0  2  0  0  3  0  0  0  0  0  0
  191.3890  176.4220  144.2930 C   0  0  0  0  0  2  0  0  0  0  0  0
  188.0280  178.4400  144.9110 C   0  0  0  0  0  2  0  0  0  0  0  0
  188.2780  176.6480  148.2630 C   0  0  0  0  0  1  0  0  0  0  0  0
  190.6860  175.7900  143.1080 C   0  0  0  0  0  2  0  0  0  0  0  0
  188.7470  177.4220  147.0490 C   0  0  2  0  0  3  0  0  0  0  0  0
  187.6330  177.4790  146.0220 C   0  0  0  0  0  2  0  0  0  0  0  0
  189.6490  176.2570  141.0080 O   0  0  0  0  0  0  0  0  0  0  0  0
  189.2680  177.2720  140.1070 C   0  0  0  0  0  2  0  0  0  0  0  0
  188.1380  177.9740  142.1490 O   0  0  0  0  0  0  0  0  0  0  0  0
  190.5210  178.8080  144.9690 C   0  0  1  0  0  3  0  0  0  0  0  0
  190.4060  177.2850  145.0850 C   0  0  1  0  0  0  0  0  0  0  0  0
  189.9670  176.7300  146.4500 C   0  0  0  0  0  2  0  0  0  0  0  0
  191.6370  179.2750  144.0350 C   0  0  0  0  0  1  0  0  0  0  0  0
  188.2850  178.2550  140.7730 C   0  0  2  0  0  3  0  0  0  0  0  0
  190.3030  176.8670  142.1020 C   0  0  1  0  0  3  0  0  0  0  0  0
  186.9350  178.1620  140.0810 C   0  0  0  0  0  2  0  0  0  0  0  0
  185.8900  179.0160  140.7880 C   0  0  0  0  0  2  0  0  0  0  0  0
  185.1060  178.2090  141.8170 C   0  0  0  0  0  2  0  0  0  0  0  0
  183.6170  178.1880  141.4930 C   0  0  0  0  0  2  0  0  0  0  0  0
  183.3100  178.9510  140.2110 C   0  0  0  0  0  2  0  0  0  0  0  0
  182.8120  178.0160  139.1150 C   0  0  0  0  0  2  0  0  0  0  0  0
  182.2750  176.7180  139.6930 C   0  0  0  0  0  2  0  0  0  0  0  0
  182.9280  175.6300  139.1090 O   0  0  0  0  0  1  0  0  0  0  0  0
  1  4  1  1  0  0  0
  1 12  1  0  0  0  0
  1 13  1  0  0  0  0
  2 11  1  6  0  0  0
  2  1  1  0  0  0  0
  4  8  1  0  0  0  0
  6  3  1  0  0  0  0
  7  5  1  1  0  0  0
  8  7  1  0  0  0  0
  9 17  1  0  0  0  0
 10 16  1  0  0  0  0
 10  9  1  0  0  0  0
 12 15  1  6  0  0  0
 12 13  1  0  0  0  0
 13  3  1  6  0  0  0
 13 14  1  0  0  0  0
 14  7  1  0  0  0  0
 16 18  1  6  0  0  0
 16 11  1  0  0  0  0
 17  2  1  0  0  0  0
 17  6  1  1  0  0  0
 18 19  1  0  0  0  0
 19 20  1  0  0  0  0
 21 20  1  0  0  0  0
 22 21  1  0  0  0  0
 23 24  1  0  0  0  0
 23 22  1  0  0  0  0
 25 24  1  0  0  0  0
M  END
>  <MODEL>
9

>  <REMARK>
 VINA RESULT:      -6.0      1.555      2.365
  Name = 
  7 active torsions:
  status: ('A' for Active; 'I' for Inactive)
    1  A    between atoms: C_2  and  C_7
    2  A    between atoms: C_2  and  C_25
    3  A    between atoms: C_6  and  C_15
    4  A    between atoms: C_6  and  C_21
    5  A    between atoms: C_15  and  C_20
    6  A    between atoms: C_20  and  C_23
    7  A    between atoms: C_21  and  C_25
                            x       y       z     vdW  Elec       q    Type
                         _______ _______ _______ _____ _____    ______ ____

>  <TORSDO>
F 7

$$$$
