=
 OpenBabel10252414523D

 34 38  0  0  1  0  0  0  0  0999 V2000
  181.3140  178.9150  143.2230 C   0  0  0  0  0  0  0  0  0  0  0  0
  183.5530  178.8310  144.2310 C   0  0  0  0  0  0  0  0  0  0  0  0
  183.3220  178.9160  141.7730 C   0  0  0  0  0  0  0  0  0  0  0  0
  185.2650  179.4190  139.3270 N   0  0  0  0  0  0  0  0  0  0  0  0
  179.0140  179.0190  142.2190 C   0  0  0  0  0  1  0  0  0  0  0  0
  183.0290  178.8140  145.5190 O   0  0  0  0  0  1  0  0  0  0  0  0
  185.5100  178.8030  142.8460 C   0  0  0  0  0  3  0  0  0  0  0  0
  182.7250  178.8860  143.0850 C   0  0  0  0  0  0  0  0  0  0  0  0
  185.5940  178.8100  140.4210 C   0  0  0  0  0  0  0  0  0  0  0  0
  180.7070  178.8710  144.4770 O   0  0  0  0  0  1  0  0  0  0  0  0
  182.4450  179.0210  140.6540 C   0  0  0  0  0  0  0  0  0  0  0  0
  180.4980  178.9880  142.0960 C   0  0  0  0  0  0  0  0  0  0  0  0
  184.9290  178.8000  144.0980 C   0  0  0  0  0  3  0  0  0  0  0  0
  184.0200  179.9290  139.0660 O   0  0  0  0  0  0  0  0  0  0  0  0
  182.8650  179.1280  139.2300 C   0  0  1  0  0  3  0  0  0  0  0  0
  184.7550  178.8370  141.6680 C   0  0  0  0  0  0  0  0  0  0  0  0
  181.0640  179.0470  140.8360 C   0  0  0  0  0  3  0  0  0  0  0  0
  183.1210  176.4970  136.4880 C   0  0  0  0  0  0  0  0  0  0  0  0
  183.0610  175.3590  137.2310 N   0  0  0  0  0  0  0  0  0  0  0  0
  182.9550  177.8110  138.5090 C   0  0  0  0  0  0  0  0  0  0  0  0
  182.9460  175.4000  138.5860 C   0  0  0  0  0  3  0  0  0  0  0  0
  183.0670  177.7430  137.1130 C   0  0  0  0  0  3  0  0  0  0  0  0
  182.8880  176.6280  139.2480 C   0  0  0  0  0  3  0  0  0  0  0  0
  183.2400  176.4150  135.0100 C   0  0  0  0  0  1  0  0  0  0  0  0
  186.8450  178.1810  140.4300 O   0  0  0  0  0  0  0  0  0  0  0  0
  187.9740  178.8470  140.7070 O   0  0  0  0  0  0  0  0  0  0  0  0
  188.9450  177.8550  140.8440 C   0  0  0  0  0  2  0  0  0  0  0  0
  188.2990  176.3030  143.2300 C   0  0  0  0  0  1  0  0  0  0  0  0
  189.6830  178.0540  142.0860 N   0  0  0  0  0  0  0  0  0  0  0  0
  188.8320  177.7360  143.2510 C   0  0  2  0  0  3  0  0  0  0  0  0
  191.0660  178.2640  144.3600 C   0  0  0  0  0  2  0  0  0  0  0  0
  191.6700  177.2700  143.3680 C   0  0  0  0  0  2  0  0  0  0  0  0
  190.8740  177.1980  142.0560 C   0  0  0  0  0  2  0  0  0  0  0  0
  189.5780  177.9810  144.5710 C   0  0  0  0  0  2  0  0  0  0  0  0
  1 10  1  0  0  0  0
  2  6  1  0  0  0  0
  3  8  1  0  0  0  0
  4  9  2  0  0  0  0
  7 13  2  0  0  0  0
  8  1  1  0  0  0  0
  8  2  2  0  0  0  0
  9 25  1  0  0  0  0
  9 16  1  0  0  0  0
 11 17  2  0  0  0  0
 11  3  1  0  0  0  0
 12  5  1  0  0  0  0
 12  1  2  0  0  0  0
 13  2  1  0  0  0  0
 14 15  1  0  0  0  0
 14  4  1  0  0  0  0
 15 20  1  1  0  0  0
 15 11  1  0  0  0  0
 16  3  2  0  0  0  0
 16  7  1  0  0  0  0
 17 12  1  0  0  0  0
 18 22  2  0  0  0  0
 18 19  1  0  0  0  0
 19 21  2  0  0  0  0
 20 23  2  0  0  0  0
 21 23  1  0  0  0  0
 22 20  1  0  0  0  0
 24 18  1  0  0  0  0
 25 26  1  0  0  0  0
 26 27  1  0  0  0  0
 27 29  1  0  0  0  0
 29 30  1  0  0  0  0
 30 28  1  6  0  0  0
 30 34  1  0  0  0  0
 31 34  1  0  0  0  0
 32 31  1  0  0  0  0
 33 29  1  0  0  0  0
 33 32  1  0  0  0  0
M  END
>  <MODEL>
1

>  <REMARK>
 VINA RESULT:      -8.8      0.000      0.000
  Name = 
  5 active torsions:
  status: ('A' for Active; 'I' for Inactive)
    1  A    between atoms: C_3  and  N_13
    2  A    between atoms: C_3  and  O_17
    3  A    between atoms: C_12  and  C_28
    4  A    between atoms: O_17  and  O_29
    5  A    between atoms: C_18  and  O_29
                            x       y       z     vdW  Elec       q    Type
                         _______ _______ _______ _____ _____    ______ ____

>  <TORSDO>
F 5

$$$$
=
 OpenBabel10252414523D

 34 38  0  0  1  0  0  0  0  0999 V2000
  183.0540  178.4670  139.6320 C   0  0  0  0  0  0  0  0  0  0  0  0
  184.2420  178.7660  141.7620 C   0  0  0  0  0  0  0  0  0  0  0  0
  185.5300  178.4180  139.6830 C   0  0  0  0  0  0  0  0  0  0  0  0
  188.5610  178.6900  138.8190 N   0  0  0  0  0  0  0  0  0  0  0  0
  181.8150  178.1830  137.4660 C   0  0  0  0  0  1  0  0  0  0  0  0
  183.0510  178.9130  142.4650 O   0  0  0  0  0  1  0  0  0  0  0  0
  186.6370  178.6940  141.8390 C   0  0  0  0  0  3  0  0  0  0  0  0
  184.2660  178.5510  140.3640 C   0  0  0  0  0  0  0  0  0  0  0  0
  188.1560  178.3060  139.9870 C   0  0  0  0  0  0  0  0  0  0  0  0
  181.8170  178.5750  140.2650 O   0  0  0  0  0  1  0  0  0  0  0  0
  185.4990  178.2520  138.2680 C   0  0  0  0  0  0  0  0  0  0  0  0
  183.0770  178.2740  138.2530 C   0  0  0  0  0  0  0  0  0  0  0  0
  185.4220  178.8450  142.4770 C   0  0  0  0  0  3  0  0  0  0  0  0
  187.7320  179.0290  137.7810 O   0  0  0  0  0  0  0  0  0  0  0  0
  186.6900  178.1600  137.3800 C   0  0  1  0  0  3  0  0  0  0  0  0
  186.7390  178.4600  140.4630 C   0  0  0  0  0  0  0  0  0  0  0  0
  184.2850  178.1760  137.5890 C   0  0  0  0  0  3  0  0  0  0  0  0
  186.8420  174.3610  137.1470 C   0  0  0  0  0  0  0  0  0  0  0  0
  188.1040  174.1930  136.6680 N   0  0  0  0  0  0  0  0  0  0  0  0
  187.1630  176.7560  137.1180 C   0  0  0  0  0  0  0  0  0  0  0  0
  188.9130  175.2550  136.4090 C   0  0  0  0  0  3  0  0  0  0  0  0
  186.3500  175.6450  137.3830 C   0  0  0  0  0  3  0  0  0  0  0  0
  188.4560  176.5560  136.6320 C   0  0  0  0  0  3  0  0  0  0  0  0
  185.9880  173.1780  137.4250 C   0  0  0  0  0  1  0  0  0  0  0  0
  189.1370  177.8090  140.8530 O   0  0  0  0  0  0  0  0  0  0  0  0
  188.8450  176.9570  141.8450 O   0  0  0  0  0  0  0  0  0  0  0  0
  190.0840  176.5070  142.3020 C   0  0  0  0  0  2  0  0  0  0  0  0
  191.5070  178.6290  143.7140 C   0  0  0  0  0  1  0  0  0  0  0  0
  190.1150  176.5420  143.7590 N   0  0  0  0  0  0  0  0  0  0  0  0
  191.3500  177.2000  144.2350 C   0  0  2  0  0  3  0  0  0  0  0  0
  190.1140  176.7540  146.4210 C   0  0  0  0  0  2  0  0  0  0  0  0
  188.9160  177.4300  145.7550 C   0  0  0  0  0  2  0  0  0  0  0  0
  188.9240  177.2600  144.2280 C   0  0  0  0  0  2  0  0  0  0  0  0
  191.4220  177.2080  145.7690 C   0  0  0  0  0  2  0  0  0  0  0  0
  1 10  1  0  0  0  0
  1  8  1  0  0  0  0
  2  6  1  0  0  0  0
  2 13  1  0  0  0  0
  3  8  1  0  0  0  0
  3 16  2  0  0  0  0
  4  9  2  0  0  0  0
  5 12  1  0  0  0  0
  7 13  2  0  0  0  0
  8  2  2  0  0  0  0
  9 16  1  0  0  0  0
  9 25  1  0  0  0  0
 11  3  1  0  0  0  0
 12  1  2  0  0  0  0
 14  4  1  0  0  0  0
 15 20  1  1  0  0  0
 15 14  1  0  0  0  0
 15 11  1  0  0  0  0
 16  7  1  0  0  0  0
 17 12  1  0  0  0  0
 17 11  2  0  0  0  0
 18 22  1  0  0  0  0
 18 24  1  0  0  0  0
 19 18  2  0  0  0  0
 20 22  2  0  0  0  0
 21 23  2  0  0  0  0
 21 19  1  0  0  0  0
 23 20  1  0  0  0  0
 25 26  1  0  0  0  0
 26 27  1  0  0  0  0
 27 29  1  0  0  0  0
 29 33  1  0  0  0  0
 29 30  1  0  0  0  0
 30 28  1  1  0  0  0
 30 34  1  0  0  0  0
 32 31  1  0  0  0  0
 33 32  1  0  0  0  0
 34 31  1  0  0  0  0
M  END
>  <MODEL>
2

>  <REMARK>
 VINA RESULT:      -8.0      2.601      3.794
  Name = 
  5 active torsions:
  status: ('A' for Active; 'I' for Inactive)
    1  A    between atoms: C_3  and  N_13
    2  A    between atoms: C_3  and  O_17
    3  A    between atoms: C_12  and  C_28
    4  A    between atoms: O_17  and  O_29
    5  A    between atoms: C_18  and  O_29
                            x       y       z     vdW  Elec       q    Type
                         _______ _______ _______ _____ _____    ______ ____

>  <TORSDO>
F 5

$$$$
=
 OpenBabel10252414523D

 34 38  0  0  1  0  0  0  0  0999 V2000
  185.5890  178.3290  143.8500 C   0  0  0  0  0  0  0  0  0  0  0  0
  187.8090  177.8450  142.9140 C   0  0  0  0  0  0  0  0  0  0  0  0
  185.9460  178.4290  141.4010 C   0  0  0  0  0  0  0  0  0  0  0  0
  185.6640  179.2200  138.3510 N   0  0  0  0  0  0  0  0  0  0  0  0
  183.3350  178.8390  144.8340 C   0  0  0  0  0  1  0  0  0  0  0  0
  188.3490  177.6230  144.1770 O   0  0  0  0  0  1  0  0  0  0  0  0
  188.1700  177.9080  140.5460 C   0  0  0  0  0  3  0  0  0  0  0  0
  186.4510  178.1990  142.7310 C   0  0  0  0  0  0  0  0  0  0  0  0
  186.5310  178.3820  138.8210 C   0  0  0  0  0  0  0  0  0  0  0  0
  186.0440  178.0970  145.1470 O   0  0  0  0  0  1  0  0  0  0  0  0
  184.5850  178.8310  141.2760 C   0  0  0  0  0  0  0  0  0  0  0  0
  184.2570  178.6970  143.6730 C   0  0  0  0  0  0  0  0  0  0  0  0
  188.6500  177.7140  141.8260 C   0  0  0  0  0  3  0  0  0  0  0  0
  184.7340  179.8840  139.1090 O   0  0  0  0  0  0  0  0  0  0  0  0
  183.8960  179.1760  140.0020 C   0  0  1  0  0  3  0  0  0  0  0  0
  186.8360  178.2410  140.2860 C   0  0  0  0  0  0  0  0  0  0  0  0
  183.7730  178.9490  142.4020 C   0  0  0  0  0  3  0  0  0  0  0  0
  182.0790  176.9940  137.4630 C   0  0  0  0  0  0  0  0  0  0  0  0
  181.8250  175.8930  138.2210 N   0  0  0  0  0  0  0  0  0  0  0  0
  183.1820  178.0230  139.3500 C   0  0  0  0  0  0  0  0  0  0  0  0
  182.2190  175.8180  139.5210 C   0  0  0  0  0  3  0  0  0  0  0  0
  182.7600  178.0800  138.0150 C   0  0  0  0  0  3  0  0  0  0  0  0
  182.9030  176.8840  140.1090 C   0  0  0  0  0  3  0  0  0  0  0  0
  181.6280  177.0440  136.0490 C   0  0  0  0  0  1  0  0  0  0  0  0
  187.2630  177.6500  137.8780 O   0  0  0  0  0  0  0  0  0  0  0  0
  186.8010  177.4210  136.6410 O   0  0  0  0  0  0  0  0  0  0  0  0
  187.3740  176.2050  136.2690 C   0  0  0  0  0  2  0  0  0  0  0  0
  185.1720  174.9410  134.8300 C   0  0  0  0  0  1  0  0  0  0  0  0
  186.6270  175.1050  136.8660 N   0  0  0  0  0  0  0  0  0  0  0  0
  185.2430  175.0780  136.3510 C   0  0  2  0  0  3  0  0  0  0  0  0
  185.2930  173.0030  137.8320 C   0  0  0  0  0  2  0  0  0  0  0  0
  186.5610  172.6220  137.0680 C   0  0  0  0  0  2  0  0  0  0  0  0
  187.3260  173.8520  136.5570 C   0  0  0  0  0  2  0  0  0  0  0  0
  184.4260  173.9510  137.0020 C   0  0  0  0  0  2  0  0  0  0  0  0
  1 10  1  0  0  0  0
  2  6  1  0  0  0  0
  3  8  1  0  0  0  0
  4  9  2  0  0  0  0
  4 14  1  0  0  0  0
  7 13  1  0  0  0  0
  8  2  1  0  0  0  0
  8  1  2  0  0  0  0
  9 16  1  0  0  0  0
 11  3  2  0  0  0  0
 11 17  1  0  0  0  0
 12  1  1  0  0  0  0
 12  5  1  0  0  0  0
 13  2  2  0  0  0  0
 14 15  1  0  0  0  0
 15 20  1  6  0  0  0
 15 11  1  0  0  0  0
 16  7  2  0  0  0  0
 16  3  1  0  0  0  0
 17 12  2  0  0  0  0
 18 22  2  0  0  0  0
 18 19  1  0  0  0  0
 19 21  2  0  0  0  0
 20 23  2  0  0  0  0
 21 23  1  0  0  0  0
 22 20  1  0  0  0  0
 24 18  1  0  0  0  0
 25  9  1  0  0  0  0
 26 25  1  0  0  0  0
 27 26  1  0  0  0  0
 27 29  1  0  0  0  0
 30 28  1  6  0  0  0
 30 29  1  0  0  0  0
 30 34  1  0  0  0  0
 32 31  1  0  0  0  0
 33 29  1  0  0  0  0
 33 32  1  0  0  0  0
 34 31  1  0  0  0  0
M  END
>  <MODEL>
3

>  <REMARK>
 VINA RESULT:      -7.8      2.425      4.950
  Name = 
  5 active torsions:
  status: ('A' for Active; 'I' for Inactive)
    1  A    between atoms: C_3  and  N_13
    2  A    between atoms: C_3  and  O_17
    3  A    between atoms: C_12  and  C_28
    4  A    between atoms: O_17  and  O_29
    5  A    between atoms: C_18  and  O_29
                            x       y       z     vdW  Elec       q    Type
                         _______ _______ _______ _____ _____    ______ ____

>  <TORSDO>
F 5

$$$$
=
 OpenBabel10252414523D

 34 38  0  0  1  0  0  0  0  0999 V2000
  181.3690  178.8780  143.2240 C   0  0  0  0  0  0  0  0  0  0  0  0
  183.6070  178.8380  144.2390 C   0  0  0  0  0  0  0  0  0  0  0  0
  183.3820  178.9060  141.7800 C   0  0  0  0  0  0  0  0  0  0  0  0
  185.3230  179.4300  139.3370 N   0  0  0  0  0  0  0  0  0  0  0  0
  179.0710  178.9380  142.2140 C   0  0  0  0  0  1  0  0  0  0  0  0
  183.0800  178.8180  145.5260 O   0  0  0  0  0  1  0  0  0  0  0  0
  185.5670  178.8360  142.8600 C   0  0  0  0  0  3  0  0  0  0  0  0
  182.7810  178.8730  143.0910 C   0  0  0  0  0  0  0  0  0  0  0  0
  185.6580  178.8330  140.4350 C   0  0  0  0  0  0  0  0  0  0  0  0
  180.7600  178.8300  144.4770 O   0  0  0  0  0  1  0  0  0  0  0  0
  182.5060  178.9910  140.6590 C   0  0  0  0  0  0  0  0  0  0  0  0
  180.5560  178.9320  142.0950 C   0  0  0  0  0  0  0  0  0  0  0  0
  184.9830  178.8300  144.1110 C   0  0  0  0  0  3  0  0  0  0  0  0
  184.0690  179.9180  139.0700 O   0  0  0  0  0  0  0  0  0  0  0  0
  182.9280  179.0980  139.2350 C   0  0  1  0  0  3  0  0  0  0  0  0
  184.8160  178.8510  141.6790 C   0  0  0  0  0  0  0  0  0  0  0  0
  181.1240  178.9950  140.8360 C   0  0  0  0  0  3  0  0  0  0  0  0
  183.2430  176.4580  136.5070 C   0  0  0  0  0  0  0  0  0  0  0  0
  183.1930  175.3230  137.2560 N   0  0  0  0  0  0  0  0  0  0  0  0
  183.0420  177.7790  138.5210 C   0  0  0  0  0  0  0  0  0  0  0  0
  183.0670  175.3680  138.6090 C   0  0  0  0  0  3  0  0  0  0  0  0
  183.1660  177.7060  137.1260 C   0  0  0  0  0  3  0  0  0  0  0  0
  182.9860  176.5990  139.2650 C   0  0  0  0  0  3  0  0  0  0  0  0
  183.3760  176.3710  135.0300 C   0  0  0  0  0  1  0  0  0  0  0  0
  186.9200  178.2250  140.4510 O   0  0  0  0  0  0  0  0  0  0  0  0
  187.9470  178.6990  139.7310 O   0  0  0  0  0  0  0  0  0  0  0  0
  188.5030  177.5730  139.1240 C   0  0  0  0  0  2  0  0  0  0  0  0
  189.9000  175.7340  137.3390 C   0  0  0  0  0  1  0  0  0  0  0  0
  188.3100  177.6440  137.6810 N   0  0  0  0  0  0  0  0  0  0  0  0
  189.5160  177.1690  136.9730 C   0  0  2  0  0  3  0  0  0  0  0  0
  187.9170  177.6220  135.0400 C   0  0  0  0  0  2  0  0  0  0  0  0
  186.9130  176.7670  135.8130 C   0  0  0  0  0  2  0  0  0  0  0  0
  187.1410  176.8290  137.3320 C   0  0  0  0  0  2  0  0  0  0  0  0
  189.3500  177.2770  135.4500 C   0  0  0  0  0  2  0  0  0  0  0  0
  1 10  1  0  0  0  0
  2  6  1  0  0  0  0
  3  8  1  0  0  0  0
  4  9  2  0  0  0  0
  7 13  2  0  0  0  0
  8  1  1  0  0  0  0
  8  2  2  0  0  0  0
  9 25  1  0  0  0  0
  9 16  1  0  0  0  0
 11 17  2  0  0  0  0
 11  3  1  0  0  0  0
 12  5  1  0  0  0  0
 12  1  2  0  0  0  0
 13  2  1  0  0  0  0
 14 15  1  0  0  0  0
 14  4  1  0  0  0  0
 15 20  1  1  0  0  0
 15 11  1  0  0  0  0
 16  3  2  0  0  0  0
 16  7  1  0  0  0  0
 17 12  1  0  0  0  0
 18 22  2  0  0  0  0
 18 19  1  0  0  0  0
 19 21  2  0  0  0  0
 20 23  2  0  0  0  0
 21 23  1  0  0  0  0
 22 20  1  0  0  0  0
 24 18  1  0  0  0  0
 26 25  1  0  0  0  0
 27 26  1  0  0  0  0
 29 27  1  0  0  0  0
 30 28  1  6  0  0  0
 30 29  1  0  0  0  0
 31 34  1  0  0  0  0
 31 32  1  0  0  0  0
 32 33  1  0  0  0  0
 33 29  1  0  0  0  0
 34 30  1  0  0  0  0
M  END
>  <MODEL>
4

>  <REMARK>
 VINA RESULT:      -7.8      2.079      3.434
  Name = 
  5 active torsions:
  status: ('A' for Active; 'I' for Inactive)
    1  A    between atoms: C_3  and  N_13
    2  A    between atoms: C_3  and  O_17
    3  A    between atoms: C_12  and  C_28
    4  A    between atoms: O_17  and  O_29
    5  A    between atoms: C_18  and  O_29
                            x       y       z     vdW  Elec       q    Type
                         _______ _______ _______ _____ _____    ______ ____

>  <TORSDO>
F 5

$$$$
=
 OpenBabel10252414523D

 34 38  0  0  1  0  0  0  0  0999 V2000
  185.7970  178.2720  143.8190 C   0  0  0  0  0  0  0  0  0  0  0  0
  187.8670  177.8180  142.5740 C   0  0  0  0  0  0  0  0  0  0  0  0
  185.8270  178.4840  141.3500 C   0  0  0  0  0  0  0  0  0  0  0  0
  185.1520  179.4180  138.4040 N   0  0  0  0  0  0  0  0  0  0  0  0
  183.7000  178.7490  145.1160 C   0  0  0  0  0  1  0  0  0  0  0  0
  188.5680  177.5350  143.7420 O   0  0  0  0  0  1  0  0  0  0  0  0
  187.9110  177.9890  140.1840 C   0  0  0  0  0  3  0  0  0  0  0  0
  186.5020  178.1880  142.5900 C   0  0  0  0  0  0  0  0  0  0  0  0
  186.0630  178.5530  138.7160 C   0  0  0  0  0  0  0  0  0  0  0  0
  186.4170  177.9770  145.0310 O   0  0  0  0  0  1  0  0  0  0  0  0
  184.4660  178.9000  141.4260 C   0  0  0  0  0  0  0  0  0  0  0  0
  184.4580  178.6550  143.8370 C   0  0  0  0  0  0  0  0  0  0  0  0
  188.5550  177.7330  141.3780 C   0  0  0  0  0  3  0  0  0  0  0  0
  184.3400  180.0510  139.3090 O   0  0  0  0  0  0  0  0  0  0  0  0
  183.6190  179.3070  140.2720 C   0  0  1  0  0  3  0  0  0  0  0  0
  186.5590  178.3420  140.1190 C   0  0  0  0  0  0  0  0  0  0  0  0
  183.8130  178.9690  142.6550 C   0  0  0  0  0  3  0  0  0  0  0  0
  180.9880  177.3740  138.3110 C   0  0  0  0  0  0  0  0  0  0  0  0
  181.3260  176.0970  138.6360 N   0  0  0  0  0  0  0  0  0  0  0  0
  182.8110  178.1900  139.6700 C   0  0  0  0  0  0  0  0  0  0  0  0
  182.3740  175.8270  139.4590 C   0  0  0  0  0  3  0  0  0  0  0  0
  181.7220  178.4440  138.8250 C   0  0  0  0  0  3  0  0  0  0  0  0
  183.1330  176.8710  139.9930 C   0  0  0  0  0  3  0  0  0  0  0  0
  179.8330  177.6320  137.4130 C   0  0  0  0  0  1  0  0  0  0  0  0
  186.6550  177.8620  137.6520 O   0  0  0  0  0  0  0  0  0  0  0  0
  187.5230  178.4500  136.8170 O   0  0  0  0  0  0  0  0  0  0  0  0
  187.9940  177.4140  136.0100 C   0  0  0  0  0  2  0  0  0  0  0  0
  188.4650  174.6950  136.9600 C   0  0  0  0  0  1  0  0  0  0  0  0
  189.3180  177.0000  136.4610 N   0  0  0  0  0  0  0  0  0  0  0  0
  189.2090  175.9290  137.4720 C   0  0  2  0  0  3  0  0  0  0  0  0
  191.7350  176.1240  137.1800 C   0  0  0  0  0  2  0  0  0  0  0  0
  191.4620  175.9980  135.6810 C   0  0  0  0  0  2  0  0  0  0  0  0
  190.0800  176.5440  135.2920 C   0  0  0  0  0  2  0  0  0  0  0  0
  190.5920  175.5090  137.9910 C   0  0  0  0  0  2  0  0  0  0  0  0
  1 12  1  0  0  0  0
  1 10  1  0  0  0  0
  2  8  1  0  0  0  0
  2  6  1  0  0  0  0
  3 11  2  0  0  0  0
  3  8  1  0  0  0  0
  4  9  2  0  0  0  0
  4 14  1  0  0  0  0
  7 13  1  0  0  0  0
  8  1  2  0  0  0  0
  9 16  1  0  0  0  0
 11 17  1  0  0  0  0
 12  5  1  0  0  0  0
 13  2  2  0  0  0  0
 14 15  1  0  0  0  0
 15 20  1  6  0  0  0
 15 11  1  0  0  0  0
 16  7  2  0  0  0  0
 16  3  1  0  0  0  0
 17 12  2  0  0  0  0
 18 19  2  0  0  0  0
 18 22  1  0  0  0  0
 19 21  1  0  0  0  0
 20 23  1  0  0  0  0
 21 23  2  0  0  0  0
 22 20  2  0  0  0  0
 24 18  1  0  0  0  0
 25  9  1  0  0  0  0
 26 25  1  0  0  0  0
 27 29  1  0  0  0  0
 27 26  1  0  0  0  0
 29 30  1  0  0  0  0
 30 28  1  6  0  0  0
 30 34  1  0  0  0  0
 31 34  1  0  0  0  0
 32 31  1  0  0  0  0
 33 32  1  0  0  0  0
 33 29  1  0  0  0  0
M  END
>  <MODEL>
5

>  <REMARK>
 VINA RESULT:      -7.6      2.933      4.411
  Name = 
  5 active torsions:
  status: ('A' for Active; 'I' for Inactive)
    1  A    between atoms: C_3  and  N_13
    2  A    between atoms: C_3  and  O_17
    3  A    between atoms: C_12  and  C_28
    4  A    between atoms: O_17  and  O_29
    5  A    between atoms: C_18  and  O_29
                            x       y       z     vdW  Elec       q    Type
                         _______ _______ _______ _____ _____    ______ ____

>  <TORSDO>
F 5

$$$$
=
 OpenBabel10252414523D

 34 38  0  0  1  0  0  0  0  0999 V2000
  186.2310  178.2420  144.1420 C   0  0  0  0  0  0  0  0  0  0  0  0
  188.1620  177.8780  142.6660 C   0  0  0  0  0  0  0  0  0  0  0  0
  185.9720  178.4690  141.6880 C   0  0  0  0  0  0  0  0  0  0  0  0
  184.9310  179.3910  138.8470 N   0  0  0  0  0  0  0  0  0  0  0  0
  184.2780  178.6280  145.6730 C   0  0  0  0  0  1  0  0  0  0  0  0
  189.0020  177.6170  143.7440 O   0  0  0  0  0  1  0  0  0  0  0  0
  187.9280  178.0640  140.2880 C   0  0  0  0  0  3  0  0  0  0  0  0
  186.7950  178.1940  142.8400 C   0  0  0  0  0  0  0  0  0  0  0  0
  185.9050  178.5620  139.0460 C   0  0  0  0  0  0  0  0  0  0  0  0
  186.9960  177.9650  145.2730 O   0  0  0  0  0  1  0  0  0  0  0  0
  184.6140  178.8300  141.9220 C   0  0  0  0  0  0  0  0  0  0  0  0
  184.8890  178.5720  144.3150 C   0  0  0  0  0  0  0  0  0  0  0  0
  188.7120  177.8270  141.3990 C   0  0  0  0  0  3  0  0  0  0  0  0
  184.2020  179.9870  139.8440 O   0  0  0  0  0  0  0  0  0  0  0  0
  183.6250  179.2090  140.8760 C   0  0  1  0  0  3  0  0  0  0  0  0
  186.5640  178.3630  140.3810 C   0  0  0  0  0  0  0  0  0  0  0  0
  184.1020  178.8660  143.2170 C   0  0  0  0  0  3  0  0  0  0  0  0
  182.5510  176.0070  139.1160 C   0  0  0  0  0  0  0  0  0  0  0  0
  181.2180  176.0120  139.3860 N   0  0  0  0  0  0  0  0  0  0  0  0
  182.7980  178.0650  140.3580 C   0  0  0  0  0  0  0  0  0  0  0  0
  180.6450  177.0040  140.1190 C   0  0  0  0  0  3  0  0  0  0  0  0
  183.3640  177.0350  139.5950 C   0  0  0  0  0  3  0  0  0  0  0  0
  181.4260  178.0500  140.6160 C   0  0  0  0  0  3  0  0  0  0  0  0
  183.1420  174.9100  138.3060 C   0  0  0  0  0  1  0  0  0  0  0  0
  186.3980  177.9010  137.9140 O   0  0  0  0  0  0  0  0  0  0  0  0
  186.9050  178.5660  136.8670 O   0  0  0  0  0  0  0  0  0  0  0  0
  187.5470  177.5890  136.1050 C   0  0  0  0  0  2  0  0  0  0  0  0
  189.3820  175.6560  134.9170 C   0  0  0  0  0  1  0  0  0  0  0  0
  188.5160  176.8780  136.9290 N   0  0  0  0  0  0  0  0  0  0  0  0
  188.8300  175.5600  136.3390 C   0  0  2  0  0  3  0  0  0  0  0  0
  190.4070  175.6290  138.3420 C   0  0  0  0  0  2  0  0  0  0  0  0
  190.8430  176.9950  137.8130 C   0  0  0  0  0  2  0  0  0  0  0  0
  189.7240  177.7050  137.0360 C   0  0  0  0  0  2  0  0  0  0  0  0
  189.8180  174.7770  137.2160 C   0  0  0  0  0  2  0  0  0  0  0  0
  1 12  1  0  0  0  0
  1 10  1  0  0  0  0
  2  8  1  0  0  0  0
  2  6  1  0  0  0  0
  3 11  2  0  0  0  0
  3  8  1  0  0  0  0
  4  9  2  0  0  0  0
  4 14  1  0  0  0  0
  7 16  2  0  0  0  0
  7 13  1  0  0  0  0
  8  1  2  0  0  0  0
  9 16  1  0  0  0  0
 11 17  1  0  0  0  0
 12  5  1  0  0  0  0
 13  2  2  0  0  0  0
 14 15  1  0  0  0  0
 15 20  1  6  0  0  0
 15 11  1  0  0  0  0
 16  3  1  0  0  0  0
 17 12  2  0  0  0  0
 18 19  2  0  0  0  0
 18 22  1  0  0  0  0
 19 21  1  0  0  0  0
 20 23  1  0  0  0  0
 21 23  2  0  0  0  0
 22 20  2  0  0  0  0
 24 18  1  0  0  0  0
 25  9  1  0  0  0  0
 26 25  1  0  0  0  0
 27 26  1  0  0  0  0
 27 29  1  0  0  0  0
 29 33  1  0  0  0  0
 30 28  1  6  0  0  0
 30 29  1  0  0  0  0
 30 34  1  0  0  0  0
 32 31  1  0  0  0  0
 33 32  1  0  0  0  0
 34 31  1  0  0  0  0
M  END
>  <MODEL>
6

>  <REMARK>
 VINA RESULT:      -7.6      2.740      4.569
  Name = 
  5 active torsions:
  status: ('A' for Active; 'I' for Inactive)
    1  A    between atoms: C_3  and  N_13
    2  A    between atoms: C_3  and  O_17
    3  A    between atoms: C_12  and  C_28
    4  A    between atoms: O_17  and  O_29
    5  A    between atoms: C_18  and  O_29
                            x       y       z     vdW  Elec       q    Type
                         _______ _______ _______ _____ _____    ______ ____

>  <TORSDO>
F 5

$$$$
=
 OpenBabel10252414523D

 34 38  0  0  1  0  0  0  0  0999 V2000
  189.0860  173.8430  136.3540 C   0  0  0  0  0  0  0  0  0  0  0  0
  186.7450  174.5860  136.4400 C   0  0  0  0  0  0  0  0  0  0  0  0
  188.5030  175.9660  137.4910 C   0  0  0  0  0  0  0  0  0  0  0  0
  188.6890  178.8990  138.6620 N   0  0  0  0  0  0  0  0  0  0  0  0
  191.4720  173.0710  136.2350 C   0  0  0  0  0  1  0  0  0  0  0  0
  186.3120  173.4750  135.7240 O   0  0  0  0  0  1  0  0  0  0  0  0
  186.1550  176.6220  137.5600 C   0  0  0  0  0  3  0  0  0  0  0  0
  188.1080  174.7900  136.7570 C   0  0  0  0  0  0  0  0  0  0  0  0
  187.6430  178.1390  138.7300 C   0  0  0  0  0  0  0  0  0  0  0  0
  188.7320  172.6890  135.6580 O   0  0  0  0  0  1  0  0  0  0  0  0
  189.8950  176.1480  137.7410 C   0  0  0  0  0  0  0  0  0  0  0  0
  190.4310  174.0530  136.6490 C   0  0  0  0  0  0  0  0  0  0  0  0
  185.7910  175.5050  136.8350 C   0  0  0  0  0  3  0  0  0  0  0  0
  189.8750  178.5380  138.0770 O   0  0  0  0  0  0  0  0  0  0  0  0
  190.5070  177.3200  138.4240 C   0  0  1  0  0  3  0  0  0  0  0  0
  187.4810  176.8800  137.9260 C   0  0  0  0  0  0  0  0  0  0  0  0
  190.8210  175.1930  137.3260 C   0  0  0  0  0  3  0  0  0  0  0  0
  189.8570  176.5630  142.0990 C   0  0  0  0  0  0  0  0  0  0  0  0
  191.0550  176.9130  142.6390 N   0  0  0  0  0  0  0  0  0  0  0  0
  190.6860  177.1520  139.9080 C   0  0  0  0  0  0  0  0  0  0  0  0
  192.0730  177.3810  141.8680 C   0  0  0  0  0  3  0  0  0  0  0  0
  189.6500  176.6780  140.7240 C   0  0  0  0  0  3  0  0  0  0  0  0
  191.9040  177.5110  140.4880 C   0  0  0  0  0  3  0  0  0  0  0  0
  188.7650  176.0610  142.9730 C   0  0  0  0  0  1  0  0  0  0  0  0
  186.5950  178.5960  139.5380 O   0  0  0  0  0  0  0  0  0  0  0  0
  186.6390  178.5130  140.8750 O   0  0  0  0  0  0  0  0  0  0  0  0
  185.6270  179.3660  141.3160 C   0  0  0  0  0  2  0  0  0  0  0  0
  183.2000  178.3410  142.5720 C   0  0  0  0  0  1  0  0  0  0  0  0
  185.5140  179.2880  142.7680 N   0  0  0  0  0  0  0  0  0  0  0  0
  184.1020  179.4120  143.1850 C   0  0  2  0  0  3  0  0  0  0  0  0
  185.2730  178.9900  145.4100 C   0  0  0  0  0  2  0  0  0  0  0  0
  185.9210  177.7910  144.7180 C   0  0  0  0  0  2  0  0  0  0  0  0
  186.0800  178.0060  143.2050 C   0  0  0  0  0  2  0  0  0  0  0  0
  183.9670  179.3750  144.7140 C   0  0  0  0  0  2  0  0  0  0  0  0
  1 12  2  0  0  0  0
  1  8  1  0  0  0  0
  2  8  2  0  0  0  0
  2 13  1  0  0  0  0
  3 11  1  0  0  0  0
  3 16  2  0  0  0  0
  4  9  2  0  0  0  0
  5 12  1  0  0  0  0
  6  2  1  0  0  0  0
  7 16  1  0  0  0  0
  8  3  1  0  0  0  0
  9 25  1  0  0  0  0
 10  1  1  0  0  0  0
 11 15  1  0  0  0  0
 12 17  1  0  0  0  0
 13  7  2  0  0  0  0
 14 15  1  0  0  0  0
 14  4  1  0  0  0  0
 15 20  1  1  0  0  0
 16  9  1  0  0  0  0
 17 11  2  0  0  0  0
 18 19  1  0  0  0  0
 18 24  1  0  0  0  0
 20 23  2  0  0  0  0
 20 22  1  0  0  0  0
 21 19  2  0  0  0  0
 22 18  2  0  0  0  0
 23 21  1  0  0  0  0
 25 26  1  0  0  0  0
 26 27  1  0  0  0  0
 27 29  1  0  0  0  0
 29 30  1  0  0  0  0
 29 33  1  0  0  0  0
 30 28  1  6  0  0  0
 30 34  1  0  0  0  0
 32 31  1  0  0  0  0
 33 32  1  0  0  0  0
 34 31  1  0  0  0  0
M  END
>  <MODEL>
7

>  <REMARK>
 VINA RESULT:      -7.5      3.535      8.192
  Name = 
  5 active torsions:
  status: ('A' for Active; 'I' for Inactive)
    1  A    between atoms: C_3  and  N_13
    2  A    between atoms: C_3  and  O_17
    3  A    between atoms: C_12  and  C_28
    4  A    between atoms: O_17  and  O_29
    5  A    between atoms: C_18  and  O_29
                            x       y       z     vdW  Elec       q    Type
                         _______ _______ _______ _____ _____    ______ ____

>  <TORSDO>
F 5

$$$$
=
 OpenBabel10252414523D

 34 38  0  0  1  0  0  0  0  0999 V2000
  183.1360  178.7120  143.9870 C   0  0  0  0  0  0  0  0  0  0  0  0
  185.5780  178.4390  144.0320 C   0  0  0  0  0  0  0  0  0  0  0  0
  184.4230  178.7520  141.8710 C   0  0  0  0  0  0  0  0  0  0  0  0
  185.3040  179.3820  138.8990 N   0  0  0  0  0  0  0  0  0  0  0  0
  180.6420  179.0070  143.9710 C   0  0  0  0  0  1  0  0  0  0  0  0
  185.5920  178.3300  145.4190 O   0  0  0  0  0  1  0  0  0  0  0  0
  186.8400  178.4460  141.9950 C   0  0  0  0  0  3  0  0  0  0  0  0
  184.3780  178.6320  143.3070 C   0  0  0  0  0  0  0  0  0  0  0  0
  185.9820  178.6650  139.7360 C   0  0  0  0  0  0  0  0  0  0  0  0
  183.0590  178.5840  145.3730 O   0  0  0  0  0  1  0  0  0  0  0  0
  183.1930  178.9950  141.1940 C   0  0  0  0  0  0  0  0  0  0  0  0
  181.9570  178.9220  143.2760 C   0  0  0  0  0  0  0  0  0  0  0  0
  186.7890  178.3580  143.3720 C   0  0  0  0  0  3  0  0  0  0  0  0
  184.0960  179.9690  139.1790 O   0  0  0  0  0  0  0  0  0  0  0  0
  183.0380  179.2090  139.7290 C   0  0  1  0  0  3  0  0  0  0  0  0
  185.6940  178.6180  141.2100 C   0  0  0  0  0  0  0  0  0  0  0  0
  181.9960  179.0670  141.9020 C   0  0  0  0  0  3  0  0  0  0  0  0
  182.0400  176.8230  136.9330 C   0  0  0  0  0  0  0  0  0  0  0  0
  182.1580  175.6290  137.5740 N   0  0  0  0  0  0  0  0  0  0  0  0
  182.7420  177.9590  138.9470 C   0  0  0  0  0  0  0  0  0  0  0  0
  182.5530  175.5550  138.8730 C   0  0  0  0  0  3  0  0  0  0  0  0
  182.3270  178.0100  137.6090 C   0  0  0  0  0  3  0  0  0  0  0  0
  182.8490  176.7210  139.5830 C   0  0  0  0  0  3  0  0  0  0  0  0
  181.6000  176.8660  135.5140 C   0  0  0  0  0  1  0  0  0  0  0  0
  187.0880  177.9820  139.2140 O   0  0  0  0  0  0  0  0  0  0  0  0
  188.1380  178.6260  138.6860 O   0  0  0  0  0  0  0  0  0  0  0  0
  188.3790  177.9760  137.4760 C   0  0  0  0  0  2  0  0  0  0  0  0
  187.3700  177.3770  134.8040 C   0  0  0  0  0  1  0  0  0  0  0  0
  187.3870  176.9280  137.2720 N   0  0  0  0  0  0  0  0  0  0  0  0
  186.5540  177.2270  136.0890 C   0  0  2  0  0  3  0  0  0  0  0  0
  185.6670  174.9420  136.7930 C   0  0  0  0  0  2  0  0  0  0  0  0
  187.1290  174.4960  136.7940 C   0  0  0  0  0  2  0  0  0  0  0  0
  188.0920  175.6520  137.1090 C   0  0  0  0  0  2  0  0  0  0  0  0
  185.4730  176.1550  135.8810 C   0  0  0  0  0  2  0  0  0  0  0  0
  1 10  1  0  0  0  0
  2  6  1  0  0  0  0
  3  8  1  0  0  0  0
  4 14  1  0  0  0  0
  4  9  2  0  0  0  0
  7 13  2  0  0  0  0
  8  1  1  0  0  0  0
  8  2  2  0  0  0  0
  9 16  1  0  0  0  0
 11  3  1  0  0  0  0
 11 17  2  0  0  0  0
 12  5  1  0  0  0  0
 12  1  2  0  0  0  0
 13  2  1  0  0  0  0
 14 15  1  0  0  0  0
 15 20  1  6  0  0  0
 15 11  1  0  0  0  0
 16  3  2  0  0  0  0
 16  7  1  0  0  0  0
 17 12  1  0  0  0  0
 18 19  2  0  0  0  0
 18 22  1  0  0  0  0
 19 21  1  0  0  0  0
 20 23  1  0  0  0  0
 21 23  2  0  0  0  0
 22 20  2  0  0  0  0
 24 18  1  0  0  0  0
 25  9  1  0  0  0  0
 26 25  1  0  0  0  0
 27 26  1  0  0  0  0
 29 27  1  0  0  0  0
 30 28  1  6  0  0  0
 30 29  1  0  0  0  0
 31 32  1  0  0  0  0
 32 33  1  0  0  0  0
 33 29  1  0  0  0  0
 34 30  1  0  0  0  0
 34 31  1  0  0  0  0
M  END
>  <MODEL>
8

>  <REMARK>
 VINA RESULT:      -7.4      2.123      3.948
  Name = 
  5 active torsions:
  status: ('A' for Active; 'I' for Inactive)
    1  A    between atoms: C_3  and  N_13
    2  A    between atoms: C_3  and  O_17
    3  A    between atoms: C_12  and  C_28
    4  A    between atoms: O_17  and  O_29
    5  A    between atoms: C_18  and  O_29
                            x       y       z     vdW  Elec       q    Type
                         _______ _______ _______ _____ _____    ______ ____

>  <TORSDO>
F 5

$$$$
=
 OpenBabel10252414523D

 34 38  0  0  1  0  0  0  0  0999 V2000
  186.2270  178.2110  146.7630 C   0  0  0  0  0  0  0  0  0  0  0  0
  184.7320  178.8970  144.9370 C   0  0  0  0  0  0  0  0  0  0  0  0
  186.8640  177.7670  144.4110 C   0  0  0  0  0  0  0  0  0  0  0  0
  188.1590  176.4440  141.8450 N   0  0  0  0  0  0  0  0  0  0  0  0
  187.7270  177.5030  148.6490 C   0  0  0  0  0  1  0  0  0  0  0  0
  183.7960  179.4120  145.8280 O   0  0  0  0  0  1  0  0  0  0  0  0
  185.3420  178.5020  142.6530 C   0  0  0  0  0  3  0  0  0  0  0  0
  185.9350  178.2960  145.3770 C   0  0  0  0  0  0  0  0  0  0  0  0
  187.3850  177.4820  141.8330 C   0  0  0  0  0  0  0  0  0  0  0  0
  185.3550  178.7280  147.7200 O   0  0  0  0  0  1  0  0  0  0  0  0
  188.0370  177.1280  144.9090 C   0  0  0  0  0  0  0  0  0  0  0  0
  187.4010  177.6020  147.1980 C   0  0  0  0  0  0  0  0  0  0  0  0
  184.4470  178.9840  143.5880 C   0  0  0  0  0  3  0  0  0  0  0  0
  188.5370  175.7700  142.9770 O   0  0  0  0  0  0  0  0  0  0  0  0
  189.0820  176.4670  144.0810 C   0  0  1  0  0  3  0  0  0  0  0  0
  186.5600  177.9130  143.0120 C   0  0  0  0  0  0  0  0  0  0  0  0
  188.2830  177.0650  146.2790 C   0  0  0  0  0  3  0  0  0  0  0  0
  192.0550  177.9820  142.2450 C   0  0  0  0  0  0  0  0  0  0  0  0
  192.3720  179.0030  143.0880 N   0  0  0  0  0  0  0  0  0  0  0  0
  190.2320  177.3600  143.7030 C   0  0  0  0  0  0  0  0  0  0  0  0
  191.6630  179.2300  144.2260 C   0  0  0  0  0  3  0  0  0  0  0  0
  190.9820  177.1410  142.5390 C   0  0  0  0  0  3  0  0  0  0  0  0
  190.5820  178.4100  144.5550 C   0  0  0  0  0  3  0  0  0  0  0  0
  192.8560  177.7590  141.0140 C   0  0  0  0  0  1  0  0  0  0  0  0
  187.2710  178.1580  140.6120 O   0  0  0  0  0  0  0  0  0  0  0  0
  188.3270  178.3660  139.8130 O   0  0  0  0  0  0  0  0  0  0  0  0
  187.9300  177.8790  138.5680 C   0  0  0  0  0  2  0  0  0  0  0  0
  189.1520  177.8090  135.9180 C   0  0  0  0  0  1  0  0  0  0  0  0
  188.7930  176.7720  138.1730 N   0  0  0  0  0  0  0  0  0  0  0  0
  188.7390  176.5690  136.7110 C   0  0  2  0  0  3  0  0  0  0  0  0
  190.4850  174.8500  137.4170 C   0  0  0  0  0  2  0  0  0  0  0  0
  191.1630  176.0030  138.1570 C   0  0  0  0  0  2  0  0  0  0  0  0
  190.1600  177.0750  138.6110 C   0  0  0  0  0  2  0  0  0  0  0  0
  189.6080  175.3780  136.2800 C   0  0  0  0  0  2  0  0  0  0  0  0
  1 12  1  0  0  0  0
  1 10  1  0  0  0  0
  2  8  1  0  0  0  0
  2  6  1  0  0  0  0
  3 11  2  0  0  0  0
  3  8  1  0  0  0  0
  4 14  1  0  0  0  0
  7 16  2  0  0  0  0
  7 13  1  0  0  0  0
  8  1  2  0  0  0  0
  9  4  2  0  0  0  0
  9 16  1  0  0  0  0
 11 17  1  0  0  0  0
 12  5  1  0  0  0  0
 13  2  2  0  0  0  0
 14 15  1  0  0  0  0
 15 20  1  6  0  0  0
 15 11  1  0  0  0  0
 16  3  1  0  0  0  0
 17 12  2  0  0  0  0
 18 22  2  0  0  0  0
 18 19  1  0  0  0  0
 19 21  2  0  0  0  0
 20 23  2  0  0  0  0
 21 23  1  0  0  0  0
 22 20  1  0  0  0  0
 24 18  1  0  0  0  0
 25  9  1  0  0  0  0
 26 25  1  0  0  0  0
 27 26  1  0  0  0  0
 29 27  1  0  0  0  0
 29 33  1  0  0  0  0
 30 28  1  6  0  0  0
 30 29  1  0  0  0  0
 31 32  1  0  0  0  0
 32 33  1  0  0  0  0
 34 30  1  0  0  0  0
 34 31  1  0  0  0  0
M  END
>  <MODEL>
9

>  <REMARK>
 VINA RESULT:      -7.4      3.390      7.010
  Name = 
  5 active torsions:
  status: ('A' for Active; 'I' for Inactive)
    1  A    between atoms: C_3  and  N_13
    2  A    between atoms: C_3  and  O_17
    3  A    between atoms: C_12  and  C_28
    4  A    between atoms: O_17  and  O_29
    5  A    between atoms: C_18  and  O_29
                            x       y       z     vdW  Elec       q    Type
                         _______ _______ _______ _____ _____    ______ ____

>  <TORSDO>
F 5

$$$$
