=
 OpenBabel10262422023D

 30 33  0  0  1  0  0  0  0  0999 V2000
  188.5210  178.2270  140.1310 C   0  0  0  0  0  0  0  0  0  0  0  0
  187.4180  178.4370  142.4080 C   0  0  0  0  0  2  0  0  0  0  0  0
  183.9480  179.5870  140.5700 O   0  0  0  0  0  0  0  0  0  0  0  0
  186.2670  176.8830  138.3230 C   0  0  0  0  0  2  0  0  0  0  0  0
  188.6560  178.8610  138.8520 N   0  0  0  0  0  0  0  0  0  0  0  0
  188.9420  175.9160  137.0050 C   0  0  0  0  0  0  0  0  0  0  0  0
  189.4540  176.8940  137.8670 O   0  0  0  0  0  0  0  0  0  0  0  0
  189.2030  178.9850  136.5120 C   0  0  0  0  0  1  0  0  0  0  0  0
  183.5820  177.6740  137.6500 C   0  0  2  0  0  3  0  0  0  0  0  0
  183.7570  179.6720  139.1900 C   0  0  0  0  0  0  0  0  0  0  0  0
  189.1080  178.2470  137.8020 C   0  0  0  0  0  0  0  0  0  0  0  0
  186.5880  176.9570  136.8380 C   0  0  1  0  0  3  0  0  0  0  0  0
  186.1500  178.0380  143.1450 C   0  0  0  0  0  2  0  0  0  0  0  0
  184.0630  177.2700  136.3260 N   0  0  0  0  0  2  0  0  0  0  0  0
  189.6590  174.9200  136.7300 O   0  0  0  0  0  0  0  0  0  0  0  0
  189.4900  177.5790  140.6120 O   0  0  0  0  0  0  0  0  0  0  0  0
  184.7730  178.5750  141.1390 C   0  0  2  0  0  3  0  0  0  0  0  0
  185.0060  178.8800  142.6170 C   0  0  1  0  0  3  0  0  0  0  0  0
  187.6020  175.9640  136.4910 N   0  0  0  0  0  2  0  0  0  0  0  0
  187.2660  178.3470  140.9090 C   0  0  0  0  0  0  0  0  0  0  0  0
  185.8610  178.2710  138.8200 C   0  0  1  0  0  3  0  0  0  0  0  0
  182.9610  180.5270  138.7230 O   0  0  0  0  0  0  0  0  0  0  0  0
  184.4950  178.7530  138.2630 C   0  0  1  0  0  3  0  0  0  0  0  0
  185.5180  176.3100  134.8070 O   0  0  0  0  0  0  0  0  0  0  0  0
  183.8480  178.6000  143.3420 O   0  0  0  0  0  1  0  0  0  0  0  0
  186.0410  178.4160  140.3210 C   0  0  0  0  0  0  0  0  0  0  0  0
  185.3680  176.7920  135.9610 C   0  0  0  0  0  0  0  0  0  0  0  0
  183.2880  176.4660  138.5600 C   0  0  0  0  0  3  0  0  0  0  0  0
  183.0100  175.2100  137.7500 C   0  0  0  0  0  1  0  0  0  0  0  0
  182.0760  176.7330  139.4320 C   0  0  0  0  0  1  0  0  0  0  0  0
  1 16  2  0  0  0  0
  1 20  1  0  0  0  0
  2 13  1  0  0  0  0
  3 17  1  0  0  0  0
  5  1  1  0  0  0  0
  6  7  1  0  0  0  0
  8 11  1  0  0  0  0
  9 23  1  0  0  0  0
  9 28  1  1  0  0  0
 10  3  1  0  0  0  0
 11  7  1  0  0  0  0
 11  5  2  0  0  0  0
 12  4  1  1  0  0  0
 14  9  1  0  0  0  0
 15  6  2  0  0  0  0
 17 26  1  6  0  0  0
 17 18  1  0  0  0  0
 18 13  1  0  0  0  0
 18 25  1  1  0  0  0
 19 12  1  0  0  0  0
 19  6  1  0  0  0  0
 20  2  1  0  0  0  0
 21  4  1  1  0  0  0
 21 26  1  0  0  0  0
 22 10  2  0  0  0  0
 23 21  1  0  0  0  0
 23 10  1  1  0  0  0
 24 27  2  0  0  0  0
 26 20  2  0  0  0  0
 27 14  1  0  0  0  0
 27 12  1  0  0  0  0
 28 30  1  0  0  0  0
 29 28  1  0  0  0  0
M  END
>  <MODEL>
1

>  <REMARK>
 VINA RESULT:      -6.3      0.000      0.000
  Name = 
  1 active torsions:
  status: ('A' for Active; 'I' for Inactive)
    1  A    between atoms: C_7  and  C_10
                            x       y       z     vdW  Elec       q    Type
                         _______ _______ _______ _____ _____    ______ ____

>  <TORSDO>
F 1

$$$$
=
 OpenBabel10262422023D

 30 33  0  0  1  0  0  0  0  0999 V2000
  188.3930  177.6840  138.2760 C   0  0  0  0  0  0  0  0  0  0  0  0
  188.2860  178.2670  140.7450 C   0  0  0  0  0  2  0  0  0  0  0  0
  184.5280  179.7810  140.1760 O   0  0  0  0  0  0  0  0  0  0  0  0
  185.4810  176.5570  137.6410 C   0  0  0  0  0  2  0  0  0  0  0  0
  188.0940  178.1720  136.9620 N   0  0  0  0  0  0  0  0  0  0  0  0
  187.3140  175.0670  135.5790 C   0  0  0  0  0  0  0  0  0  0  0  0
  188.2250  176.0250  136.0420 O   0  0  0  0  0  0  0  0  0  0  0  0
  187.7060  178.0000  134.5940 C   0  0  0  0  0  1  0  0  0  0  0  0
  182.8510  177.6980  137.9020 C   0  0  2  0  0  3  0  0  0  0  0  0
  183.8290  179.7730  138.9680 C   0  0  0  0  0  0  0  0  0  0  0  0
  188.0350  177.4050  135.9180 C   0  0  0  0  0  0  0  0  0  0  0  0
  185.2110  176.4470  136.1480 C   0  0  1  0  0  3  0  0  0  0  0  0
  187.3640  178.1400  141.9470 C   0  0  0  0  0  2  0  0  0  0  0  0
  182.7350  177.1070  136.5670 N   0  0  0  0  0  2  0  0  0  0  0  0
  187.7530  173.9500  135.2040 O   0  0  0  0  0  0  0  0  0  0  0  0
  189.3940  176.9370  138.4530 O   0  0  0  0  0  0  0  0  0  0  0  0
  185.3890  178.7070  140.5380 C   0  0  2  0  0  3  0  0  0  0  0  0
  186.2080  179.1020  141.7660 C   0  0  1  0  0  3  0  0  0  0  0  0
  185.8950  175.2800  135.5960 N   0  0  0  0  0  2  0  0  0  0  0  0
  187.5580  178.0690  139.4370 C   0  0  0  0  0  0  0  0  0  0  0  0
  185.4570  178.0300  138.0500 C   0  0  1  0  0  3  0  0  0  0  0  0
  183.0150  180.6970  138.7120 O   0  0  0  0  0  0  0  0  0  0  0  0
  184.0450  178.6700  137.9740 C   0  0  1  0  0  3  0  0  0  0  0  0
  183.3740  175.7990  134.7710 O   0  0  0  0  0  0  0  0  0  0  0  0
  185.3960  179.0730  142.8990 O   0  0  0  0  0  1  0  0  0  0  0  0
  186.2170  178.2780  139.3400 C   0  0  0  0  0  0  0  0  0  0  0  0
  183.7370  176.3990  135.8180 C   0  0  0  0  0  0  0  0  0  0  0  0
  182.7980  176.6370  139.0190 C   0  0  0  0  0  3  0  0  0  0  0  0
  182.1140  175.3640  138.5490 C   0  0  0  0  0  1  0  0  0  0  0  0
  182.0330  177.1590  140.2200 C   0  0  0  0  0  1  0  0  0  0  0  0
  1 16  2  0  0  0  0
  1 20  1  0  0  0  0
  2 13  1  0  0  0  0
  3 17  1  0  0  0  0
  5  1  1  0  0  0  0
  6 19  1  0  0  0  0
  6  7  1  0  0  0  0
  8 11  1  0  0  0  0
  9 23  1  0  0  0  0
  9 28  1  1  0  0  0
 10  3  1  0  0  0  0
 11  7  1  0  0  0  0
 11  5  2  0  0  0  0
 12  4  1  1  0  0  0
 14  9  1  0  0  0  0
 15  6  2  0  0  0  0
 17 26  1  6  0  0  0
 17 18  1  0  0  0  0
 18 13  1  0  0  0  0
 18 25  1  1  0  0  0
 19 12  1  0  0  0  0
 20  2  1  0  0  0  0
 21  4  1  1  0  0  0
 21 26  1  0  0  0  0
 22 10  2  0  0  0  0
 23 21  1  0  0  0  0
 23 10  1  1  0  0  0
 24 27  2  0  0  0  0
 26 20  2  0  0  0  0
 27 12  1  0  0  0  0
 27 14  1  0  0  0  0
 28 30  1  0  0  0  0
 29 28  1  0  0  0  0
M  END
>  <MODEL>
2

>  <REMARK>
 VINA RESULT:      -6.0      1.416      1.649
  Name = 
  1 active torsions:
  status: ('A' for Active; 'I' for Inactive)
    1  A    between atoms: C_7  and  C_10
                            x       y       z     vdW  Elec       q    Type
                         _______ _______ _______ _____ _____    ______ ____

>  <TORSDO>
F 1

$$$$
=
 OpenBabel10262422023D

 30 33  0  0  1  0  0  0  0  0999 V2000
  186.9960  178.4250  138.5120 C   0  0  0  0  0  0  0  0  0  0  0  0
  184.9520  179.0020  139.9020 C   0  0  0  0  0  2  0  0  0  0  0  0
  182.5660  177.5660  136.9040 O   0  0  0  0  0  0  0  0  0  0  0  0
  186.2710  175.5930  137.2440 C   0  0  0  0  0  2  0  0  0  0  0  0
  187.5400  178.4710  137.1860 N   0  0  0  0  0  0  0  0  0  0  0  0
  189.3990  175.5310  137.4440 C   0  0  0  0  0  0  0  0  0  0  0  0
  189.1810  176.8880  137.7130 O   0  0  0  0  0  0  0  0  0  0  0  0
  189.0570  177.8760  135.4150 C   0  0  0  0  0  1  0  0  0  0  0  0
  184.1030  174.7070  135.5690 C   0  0  2  0  0  3  0  0  0  0  0  0
  183.0210  176.9880  135.7180 C   0  0  0  0  0  0  0  0  0  0  0  0
  188.5690  177.7710  136.8180 C   0  0  0  0  0  0  0  0  0  0  0  0
  187.2120  175.2000  136.1160 C   0  0  1  0  0  3  0  0  0  0  0  0
  183.6380  178.3990  140.3730 C   0  0  0  0  0  2  0  0  0  0  0  0
  185.2290  174.0750  134.8770 N   0  0  0  0  0  2  0  0  0  0  0  0
  190.3910  174.9640  137.9690 O   0  0  0  0  0  0  0  0  0  0  0  0
  187.7620  178.5550  139.5060 O   0  0  0  0  0  0  0  0  0  0  0  0
  183.2620  177.3780  138.1320 C   0  0  2  0  0  3  0  0  0  0  0  0
  182.6960  178.3230  139.1890 C   0  0  1  0  0  3  0  0  0  0  0  0
  188.4890  174.7440  136.6600 N   0  0  0  0  0  2  0  0  0  0  0  0
  185.5410  178.2550  138.7300 C   0  0  0  0  0  0  0  0  0  0  0  0
  185.3390  176.7030  136.7580 C   0  0  1  0  0  3  0  0  0  0  0  0
  182.3430  177.1070  134.6660 O   0  0  0  0  0  0  0  0  0  0  0  0
  184.3150  176.2280  135.6920 C   0  0  1  0  0  3  0  0  0  0  0  0
  187.4140  173.3740  134.5940 O   0  0  0  0  0  0  0  0  0  0  0  0
  181.4510  177.8610  139.6130 O   0  0  0  0  0  1  0  0  0  0  0  0
  184.7580  177.5060  137.9070 C   0  0  0  0  0  0  0  0  0  0  0  0
  186.6270  174.1530  135.1970 C   0  0  0  0  0  0  0  0  0  0  0  0
  183.7440  173.9840  136.8830 C   0  0  0  0  0  3  0  0  0  0  0  0
  184.2160  172.5400  136.8740 C   0  0  0  0  0  1  0  0  0  0  0  0
  182.2420  173.9800  137.0990 C   0  0  0  0  0  1  0  0  0  0  0  0
  1 20  1  0  0  0  0
  1 16  2  0  0  0  0
  2 13  1  0  0  0  0
  5  1  1  0  0  0  0
  6  7  1  0  0  0  0
  6 15  2  0  0  0  0
  8 11  1  0  0  0  0
  9 23  1  0  0  0  0
  9 28  1  1  0  0  0
 10  3  1  0  0  0  0
 11  5  2  0  0  0  0
 11  7  1  0  0  0  0
 12 19  1  0  0  0  0
 12  4  1  1  0  0  0
 14 27  1  0  0  0  0
 14  9  1  0  0  0  0
 17  3  1  6  0  0  0
 17 18  1  0  0  0  0
 18 25  1  1  0  0  0
 18 13  1  0  0  0  0
 19  6  1  0  0  0  0
 20  2  1  0  0  0  0
 21  4  1  1  0  0  0
 21 26  1  0  0  0  0
 22 10  2  0  0  0  0
 23 10  1  1  0  0  0
 23 21  1  0  0  0  0
 24 27  2  0  0  0  0
 26 17  1  0  0  0  0
 26 20  2  0  0  0  0
 27 12  1  0  0  0  0
 28 30  1  0  0  0  0
 29 28  1  0  0  0  0
M  END
>  <MODEL>
3

>  <REMARK>
 VINA RESULT:      -5.7      2.202      3.115
  Name = 
  1 active torsions:
  status: ('A' for Active; 'I' for Inactive)
    1  A    between atoms: C_7  and  C_10
                            x       y       z     vdW  Elec       q    Type
                         _______ _______ _______ _____ _____    ______ ____

>  <TORSDO>
F 1

$$$$
=
 OpenBabel10262422023D

 30 33  0  0  1  0  0  0  0  0999 V2000
  187.2890  178.2110  139.0330 C   0  0  0  0  0  0  0  0  0  0  0  0
  186.6170  178.6600  141.4390 C   0  0  0  0  0  2  0  0  0  0  0  0
  182.8250  179.5250  140.1720 O   0  0  0  0  0  0  0  0  0  0  0  0
  184.7950  176.6260  137.8380 C   0  0  0  0  0  2  0  0  0  0  0  0
  187.1600  178.6950  137.6900 N   0  0  0  0  0  0  0  0  0  0  0  0
  187.2180  175.5640  136.1550 C   0  0  0  0  0  0  0  0  0  0  0  0
  187.8400  176.6440  136.7930 O   0  0  0  0  0  0  0  0  0  0  0  0
  187.2600  178.5610  135.2890 C   0  0  0  0  0  1  0  0  0  0  0  0
  182.0030  177.2840  137.5990 C   0  0  2  0  0  3  0  0  0  0  0  0
  182.3790  179.4480  138.8520 C   0  0  0  0  0  0  0  0  0  0  0  0
  187.4350  177.9750  136.6470 C   0  0  0  0  0  0  0  0  0  0  0  0
  184.8340  176.5350  136.3210 C   0  0  1  0  0  3  0  0  0  0  0  0
  185.5240  178.3240  142.4410 C   0  0  0  0  0  2  0  0  0  0  0  0
  182.2470  176.7400  136.2610 N   0  0  0  0  0  2  0  0  0  0  0  0
  187.9100  174.5570  135.8610 O   0  0  0  0  0  0  0  0  0  0  0  0
  188.3550  177.6400  139.3910 O   0  0  0  0  0  0  0  0  0  0  0  0
  183.7800  178.6010  140.6830 C   0  0  2  0  0  3  0  0  0  0  0  0
  184.2700  179.0780  142.0490 C   0  0  1  0  0  3  0  0  0  0  0  0
  185.8050  175.5280  135.9000 N   0  0  0  0  0  2  0  0  0  0  0  0
  186.1960  178.3950  140.0150 C   0  0  0  0  0  0  0  0  0  0  0  0
  184.4330  178.0530  138.2480 C   0  0  1  0  0  3  0  0  0  0  0  0
  181.4770  180.2290  138.4520 O   0  0  0  0  0  0  0  0  0  0  0  0
  182.9700  178.4430  137.9080 C   0  0  1  0  0  3  0  0  0  0  0  0
  183.4330  175.6390  134.6100 O   0  0  0  0  0  0  0  0  0  0  0  0
  183.2780  178.8620  143.0040 O   0  0  0  0  0  1  0  0  0  0  0  0
  184.8810  178.3730  139.6630 C   0  0  0  0  0  0  0  0  0  0  0  0
  183.4800  176.2480  135.7120 C   0  0  0  0  0  0  0  0  0  0  0  0
  181.9300  176.1820  138.6750 C   0  0  0  0  0  3  0  0  0  0  0  0
  181.5300  174.8440  138.0790 C   0  0  0  0  0  1  0  0  0  0  0  0
  180.9110  176.5390  139.7410 C   0  0  0  0  0  1  0  0  0  0  0  0
  1 16  2  0  0  0  0
  1 20  1  0  0  0  0
  2 13  1  0  0  0  0
  3 17  1  0  0  0  0
  5  1  1  0  0  0  0
  6  7  1  0  0  0  0
  8 11  1  0  0  0  0
  9 23  1  0  0  0  0
  9 28  1  1  0  0  0
 10  3  1  0  0  0  0
 11  7  1  0  0  0  0
 11  5  2  0  0  0  0
 12  4  1  1  0  0  0
 14  9  1  0  0  0  0
 15  6  2  0  0  0  0
 17 26  1  6  0  0  0
 17 18  1  0  0  0  0
 18 13  1  0  0  0  0
 18 25  1  1  0  0  0
 19  6  1  0  0  0  0
 19 12  1  0  0  0  0
 20  2  1  0  0  0  0
 21  4  1  1  0  0  0
 21 26  1  0  0  0  0
 22 10  2  0  0  0  0
 23 21  1  0  0  0  0
 23 10  1  1  0  0  0
 24 27  2  0  0  0  0
 26 20  2  0  0  0  0
 27 14  1  0  0  0  0
 27 12  1  0  0  0  0
 28 30  1  0  0  0  0
 29 28  1  0  0  0  0
M  END
>  <MODEL>
4

>  <REMARK>
 VINA RESULT:      -5.6      1.484      1.640
  Name = 
  1 active torsions:
  status: ('A' for Active; 'I' for Inactive)
    1  A    between atoms: C_7  and  C_10
                            x       y       z     vdW  Elec       q    Type
                         _______ _______ _______ _____ _____    ______ ____

>  <TORSDO>
F 1

$$$$
=
 OpenBabel10262422023D

 30 33  0  0  1  0  0  0  0  0999 V2000
  182.5880  175.3720  136.9370 C   0  0  0  0  0  0  0  0  0  0  0  0
  185.0780  175.6250  136.5140 C   0  0  0  0  0  2  0  0  0  0  0  0
  184.9400  179.3490  138.2020 O   0  0  0  0  0  0  0  0  0  0  0  0
  182.1870  176.6170  139.8430 C   0  0  0  0  0  2  0  0  0  0  0  0
  181.3310  176.0580  136.8680 N   0  0  0  0  0  0  0  0  0  0  0  0
  179.8970  174.4870  139.6320 C   0  0  0  0  0  0  0  0  0  0  0  0
  180.3110  174.5090  138.2950 O   0  0  0  0  0  0  0  0  0  0  0  0
  179.0060  176.4310  137.3610 C   0  0  0  0  0  1  0  0  0  0  0  0
  182.7500  179.2170  140.9420 C   0  0  2  0  0  3  0  0  0  0  0  0
  183.8060  179.9390  138.7600 C   0  0  0  0  0  0  0  0  0  0  0  0
  180.2650  175.6460  137.4830 C   0  0  0  0  0  0  0  0  0  0  0  0
  180.7250  176.8690  140.1730 C   0  0  1  0  0  3  0  0  0  0  0  0
  186.3570  176.0470  137.2190 C   0  0  0  0  0  2  0  0  0  0  0  0
  181.4080  179.0010  141.4870 N   0  0  0  0  0  2  0  0  0  0  0  0
  179.4320  173.4170  140.1020 O   0  0  0  0  0  0  0  0  0  0  0  0
  182.6340  174.1290  136.7250 O   0  0  0  0  0  0  0  0  0  0  0  0
  185.1700  177.9480  138.3090 C   0  0  2  0  0  3  0  0  0  0  0  0
  186.3300  177.5510  137.3970 C   0  0  1  0  0  3  0  0  0  0  0  0
  180.0590  175.6120  140.5090 N   0  0  0  0  0  2  0  0  0  0  0  0
  183.8400  176.1080  137.2280 C   0  0  0  0  0  0  0  0  0  0  0  0
  182.6600  177.6560  138.8270 C   0  0  1  0  0  3  0  0  0  0  0  0
  183.6690  181.1890  138.7190 O   0  0  0  0  0  0  0  0  0  0  0  0
  182.7490  179.0930  139.4060 C   0  0  1  0  0  3  0  0  0  0  0  0
  179.5030  177.7950  142.0020 O   0  0  0  0  0  0  0  0  0  0  0  0
  187.5330  177.9770  137.9570 O   0  0  0  0  0  1  0  0  0  0  0  0
  183.8810  177.1880  138.0560 C   0  0  0  0  0  0  0  0  0  0  0  0
  180.5350  177.8780  141.2830 C   0  0  0  0  0  0  0  0  0  0  0  0
  183.8200  178.3790  141.6690 C   0  0  0  0  0  3  0  0  0  0  0  0
  183.5170  178.2530  143.1530 C   0  0  0  0  0  1  0  0  0  0  0  0
  185.1890  179.0160  141.5270 C   0  0  0  0  0  1  0  0  0  0  0  0
  1 20  1  0  0  0  0
  2 13  1  0  0  0  0
  2 20  1  0  0  0  0
  3 17  1  0  0  0  0
  3 10  1  0  0  0  0
  5  1  1  0  0  0  0
  5 11  2  0  0  0  0
  6 15  2  0  0  0  0
  6 19  1  0  0  0  0
  7  6  1  0  0  0  0
  8 11  1  0  0  0  0
  9 14  1  0  0  0  0
  9 28  1  1  0  0  0
 11  7  1  0  0  0  0
 12  4  1  1  0  0  0
 12 19  1  0  0  0  0
 12 27  1  0  0  0  0
 13 18  1  0  0  0  0
 16  1  2  0  0  0  0
 17 26  1  6  0  0  0
 18 25  1  1  0  0  0
 18 17  1  0  0  0  0
 20 26  2  0  0  0  0
 21 23  1  0  0  0  0
 21  4  1  1  0  0  0
 22 10  2  0  0  0  0
 23 10  1  1  0  0  0
 23  9  1  0  0  0  0
 26 21  1  0  0  0  0
 27 14  1  0  0  0  0
 27 24  2  0  0  0  0
 28 29  1  0  0  0  0
 30 28  1  0  0  0  0
M  END
>  <MODEL>
5

>  <REMARK>
 VINA RESULT:      -5.5      3.119      6.645
  Name = 
  1 active torsions:
  status: ('A' for Active; 'I' for Inactive)
    1  A    between atoms: C_7  and  C_10
                            x       y       z     vdW  Elec       q    Type
                         _______ _______ _______ _____ _____    ______ ____

>  <TORSDO>
F 1

$$$$
=
 OpenBabel10262422023D

 30 33  0  0  1  0  0  0  0  0999 V2000
  193.0050  176.7450  138.8740 C   0  0  0  0  0  0  0  0  0  0  0  0
  191.2500  177.8780  140.3180 C   0  0  0  0  0  2  0  0  0  0  0  0
  188.5740  177.5510  137.2410 O   0  0  0  0  0  0  0  0  0  0  0  0
  191.3880  174.4230  137.4070 C   0  0  0  0  0  2  0  0  0  0  0  0
  193.5550  176.6990  137.5510 N   0  0  0  0  0  0  0  0  0  0  0  0
  194.3080  173.2940  137.5790 C   0  0  0  0  0  0  0  0  0  0  0  0
  194.5560  174.6210  137.9480 O   0  0  0  0  0  0  0  0  0  0  0  0
  194.8140  175.7550  135.7310 C   0  0  0  0  0  1  0  0  0  0  0  0
  189.0790  174.4440  135.6890 C   0  0  2  0  0  3  0  0  0  0  0  0
  188.8280  176.9390  136.0130 C   0  0  0  0  0  0  0  0  0  0  0  0
  194.2940  175.7210  137.1260 C   0  0  0  0  0  0  0  0  0  0  0  0
  192.1620  173.8170  136.2470 C   0  0  1  0  0  3  0  0  0  0  0  0
  189.8020  177.7230  140.7530 C   0  0  0  0  0  2  0  0  0  0  0  0
  189.9370  173.5190  134.9430 N   0  0  0  0  0  2  0  0  0  0  0  0
  195.0410  172.3890  138.0540 O   0  0  0  0  0  0  0  0  0  0  0  0
  193.7510  176.5370  139.8700 O   0  0  0  0  0  0  0  0  0  0  0  0
  189.1430  177.0510  138.4460 C   0  0  2  0  0  3  0  0  0  0  0  0
  188.9110  178.0540  139.5740 C   0  0  1  0  0  3  0  0  0  0  0  0
  193.2000  172.9180  136.7470 N   0  0  0  0  0  2  0  0  0  0  0  0
  191.5740  177.0610  139.0900 C   0  0  0  0  0  0  0  0  0  0  0  0
  190.8940  175.8140  137.0110 C   0  0  1  0  0  3  0  0  0  0  0  0
  188.2480  177.3550  134.9770 O   0  0  0  0  0  0  0  0  0  0  0  0
  189.7900  175.7910  135.9210 C   0  0  1  0  0  3  0  0  0  0  0  0
  191.7630  172.1440  134.5940 O   0  0  0  0  0  0  0  0  0  0  0  0
  187.5760  178.0110  139.9720 O   0  0  0  0  0  1  0  0  0  0  0  0
  190.5980  176.6830  138.2200 C   0  0  0  0  0  0  0  0  0  0  0  0
  191.2740  173.0970  135.2580 C   0  0  0  0  0  0  0  0  0  0  0  0
  188.4730  173.7930  136.9480 C   0  0  0  0  0  3  0  0  0  0  0  0
  188.3670  172.2850  136.8020 C   0  0  0  0  0  1  0  0  0  0  0  0
  187.0810  174.3330  137.2140 C   0  0  0  0  0  1  0  0  0  0  0  0
  1 20  1  0  0  0  0
  1 16  2  0  0  0  0
  2 13  1  0  0  0  0
  5  1  1  0  0  0  0
  6  7  1  0  0  0  0
  6 15  2  0  0  0  0
  8 11  1  0  0  0  0
  9 23  1  0  0  0  0
  9 28  1  1  0  0  0
 10  3  1  0  0  0  0
 11  5  2  0  0  0  0
 11  7  1  0  0  0  0
 12 19  1  0  0  0  0
 12  4  1  1  0  0  0
 14 27  1  0  0  0  0
 14  9  1  0  0  0  0
 17  3  1  6  0  0  0
 17 18  1  0  0  0  0
 18 25  1  1  0  0  0
 18 13  1  0  0  0  0
 19  6  1  0  0  0  0
 20  2  1  0  0  0  0
 21  4  1  1  0  0  0
 21 26  1  0  0  0  0
 22 10  2  0  0  0  0
 23 10  1  1  0  0  0
 23 21  1  0  0  0  0
 24 27  2  0  0  0  0
 26 17  1  0  0  0  0
 26 20  2  0  0  0  0
 27 12  1  0  0  0  0
 28 30  1  0  0  0  0
 29 28  1  0  0  0  0
M  END
>  <MODEL>
6

>  <REMARK>
 VINA RESULT:      -5.5      3.945      5.942
  Name = 
  1 active torsions:
  status: ('A' for Active; 'I' for Inactive)
    1  A    between atoms: C_7  and  C_10
                            x       y       z     vdW  Elec       q    Type
                         _______ _______ _______ _____ _____    ______ ____

>  <TORSDO>
F 1

$$$$
=
 OpenBabel10262422023D

 30 33  0  0  1  0  0  0  0  0999 V2000
  184.5210  178.8930  138.9970 C   0  0  0  0  0  0  0  0  0  0  0  0
  186.5120  178.6310  137.4440 C   0  0  0  0  0  2  0  0  0  0  0  0
  185.6240  174.6570  137.0500 O   0  0  0  0  0  0  0  0  0  0  0  0
  182.2560  177.1190  137.6240 C   0  0  0  0  0  2  0  0  0  0  0  0
  183.8230  178.2830  140.0910 N   0  0  0  0  0  0  0  0  0  0  0  0
  180.6380  179.3370  139.1390 C   0  0  0  0  0  0  0  0  0  0  0  0
  181.9050  179.5610  139.6930 O   0  0  0  0  0  0  0  0  0  0  0  0
  181.9660  177.9100  141.5750 C   0  0  0  0  0  1  0  0  0  0  0  0
  182.1310  174.3340  136.9070 C   0  0  2  0  0  3  0  0  0  0  0  0
  184.5320  174.0130  137.6340 C   0  0  0  0  0  0  0  0  0  0  0  0
  182.6140  178.6070  140.4290 C   0  0  0  0  0  0  0  0  0  0  0  0
  181.0750  176.8640  138.5470 C   0  0  1  0  0  3  0  0  0  0  0  0
  186.8880  178.0290  136.1000 C   0  0  0  0  0  2  0  0  0  0  0  0
  180.8140  174.4920  137.5270 N   0  0  0  0  0  2  0  0  0  0  0  0
  179.8530  180.3110  139.0150 O   0  0  0  0  0  0  0  0  0  0  0  0
  184.5580  180.1500  138.9020 O   0  0  0  0  0  0  0  0  0  0  0  0
  185.5270  176.0000  136.5880 C   0  0  2  0  0  3  0  0  0  0  0  0
  186.9210  176.5220  136.2440 C   0  0  1  0  0  3  0  0  0  0  0  0
  180.2340  178.0560  138.6310 N   0  0  0  0  0  2  0  0  0  0  0  0
  185.2230  178.0650  137.9890 C   0  0  0  0  0  0  0  0  0  0  0  0
  183.4480  176.2820  138.0880 C   0  0  1  0  0  3  0  0  0  0  0  0
  184.6240  172.8010  137.9610 O   0  0  0  0  0  0  0  0  0  0  0  0
  183.2520  174.7570  137.8760 C   0  0  1  0  0  3  0  0  0  0  0  0
  179.0260  175.6470  138.4310 O   0  0  0  0  0  0  0  0  0  0  0  0
  187.3540  175.9480  135.0490 O   0  0  0  0  0  1  0  0  0  0  0  0
  184.7690  176.8440  137.5960 C   0  0  0  0  0  0  0  0  0  0  0  0
  180.2510  175.6670  138.1330 C   0  0  0  0  0  0  0  0  0  0  0  0
  182.1990  174.9720  135.5050 C   0  0  0  0  0  3  0  0  0  0  0  0
  180.8290  175.0310  134.8510 C   0  0  0  0  0  1  0  0  0  0  0  0
  183.1130  174.1730  134.5950 C   0  0  0  0  0  1  0  0  0  0  0  0
  1  5  1  0  0  0  0
  2 20  1  0  0  0  0
  3 10  1  0  0  0  0
  5 11  2  0  0  0  0
  6  7  1  0  0  0  0
  7 11  1  0  0  0  0
  9 28  1  6  0  0  0
  9 14  1  0  0  0  0
  9 23  1  0  0  0  0
 10 22  2  0  0  0  0
 11  8  1  0  0  0  0
 12  4  1  6  0  0  0
 12 19  1  0  0  0  0
 13 18  1  0  0  0  0
 13  2  1  0  0  0  0
 14 27  1  0  0  0  0
 15  6  2  0  0  0  0
 16  1  2  0  0  0  0
 17  3  1  1  0  0  0
 17 26  1  0  0  0  0
 18 25  1  6  0  0  0
 18 17  1  0  0  0  0
 19  6  1  0  0  0  0
 20  1  1  0  0  0  0
 21  4  1  6  0  0  0
 23 10  1  6  0  0  0
 23 21  1  0  0  0  0
 26 20  2  0  0  0  0
 26 21  1  0  0  0  0
 27 24  2  0  0  0  0
 27 12  1  0  0  0  0
 29 28  1  0  0  0  0
 30 28  1  0  0  0  0
M  END
>  <MODEL>
7

>  <REMARK>
 VINA RESULT:      -5.2      3.001      6.354
  Name = 
  1 active torsions:
  status: ('A' for Active; 'I' for Inactive)
    1  A    between atoms: C_7  and  C_10
                            x       y       z     vdW  Elec       q    Type
                         _______ _______ _______ _____ _____    ______ ____

>  <TORSDO>
F 1

$$$$
=
 OpenBabel10262422023D

 30 33  0  0  1  0  0  0  0  0999 V2000
  184.9690  173.8080  135.5000 C   0  0  0  0  0  0  0  0  0  0  0  0
  186.9290  172.2230  135.1980 C   0  0  0  0  0  2  0  0  0  0  0  0
  189.4490  175.4420  135.0440 O   0  0  0  0  0  0  0  0  0  0  0  0
  186.0850  176.0120  137.5130 C   0  0  0  0  0  2  0  0  0  0  0  0
  184.4020  175.0420  135.0390 N   0  0  0  0  0  0  0  0  0  0  0  0
  183.0050  175.9740  138.0960 C   0  0  0  0  0  0  0  0  0  0  0  0
  183.0240  175.2100  136.9230 O   0  0  0  0  0  0  0  0  0  0  0  0
  182.9600  176.9660  135.1380 C   0  0  0  0  0  1  0  0  0  0  0  0
  188.3310  177.8080  137.3840 C   0  0  2  0  0  3  0  0  0  0  0  0
  189.0650  176.7750  135.1950 C   0  0  0  0  0  0  0  0  0  0  0  0
  183.4820  175.6850  135.6900 C   0  0  0  0  0  0  0  0  0  0  0  0
  185.1940  177.2410  137.5860 C   0  0  1  0  0  3  0  0  0  0  0  0
  188.3260  171.9590  135.7360 C   0  0  0  0  0  2  0  0  0  0  0  0
  187.3010  178.7310  137.8660 N   0  0  0  0  0  2  0  0  0  0  0  0
  182.1180  175.7390  138.9550 O   0  0  0  0  0  0  0  0  0  0  0  0
  184.2100  172.8690  135.8640 O   0  0  0  0  0  0  0  0  0  0  0  0
  188.8100  174.4030  135.7780 C   0  0  2  0  0  3  0  0  0  0  0  0
  189.2480  173.0470  135.2270 C   0  0  1  0  0  3  0  0  0  0  0  0
  184.0080  176.9580  138.3920 N   0  0  0  0  0  2  0  0  0  0  0  0
  186.4370  173.6110  135.5280 C   0  0  0  0  0  0  0  0  0  0  0  0
  186.8340  176.0110  136.1800 C   0  0  1  0  0  3  0  0  0  0  0  0
  189.7000  177.6790  134.5940 O   0  0  0  0  0  0  0  0  0  0  0  0
  187.8980  177.1350  136.0680 C   0  0  1  0  0  3  0  0  0  0  0  0
  185.2390  179.3420  138.7160 O   0  0  0  0  0  0  0  0  0  0  0  0
  190.5550  172.7770  135.6290 O   0  0  0  0  0  1  0  0  0  0  0  0
  187.3090  174.6220  135.7910 C   0  0  0  0  0  0  0  0  0  0  0  0
  185.9120  178.4610  138.1160 C   0  0  0  0  0  0  0  0  0  0  0  0
  188.8170  176.8460  138.4860 C   0  0  0  0  0  3  0  0  0  0  0  0
  188.6810  177.4640  139.8680 C   0  0  0  0  0  1  0  0  0  0  0  0
  190.2760  176.4860  138.2800 C   0  0  0  0  0  1  0  0  0  0  0  0
  1 20  1  0  0  0  0
  1 16  2  0  0  0  0
  2 20  1  0  0  0  0
  2 13  1  0  0  0  0
  3 10  1  0  0  0  0
  5  1  1  0  0  0  0
  5 11  2  0  0  0  0
  6 19  1  0  0  0  0
  6 15  2  0  0  0  0
  7  6  1  0  0  0  0
  8 11  1  0  0  0  0
  9 14  1  0  0  0  0
  9 28  1  1  0  0  0
 11  7  1  0  0  0  0
 12  4  1  1  0  0  0
 12 27  1  0  0  0  0
 12 19  1  0  0  0  0
 14 27  1  0  0  0  0
 17  3  1  6  0  0  0
 17 26  1  0  0  0  0
 18 25  1  1  0  0  0
 18 13  1  0  0  0  0
 18 17  1  0  0  0  0
 20 26  2  0  0  0  0
 21  4  1  1  0  0  0
 22 10  2  0  0  0  0
 23 10  1  1  0  0  0
 23 21  1  0  0  0  0
 23  9  1  0  0  0  0
 26 21  1  0  0  0  0
 27 24  2  0  0  0  0
 28 29  1  0  0  0  0
 30 28  1  0  0  0  0
M  END
>  <MODEL>
8

>  <REMARK>
 VINA RESULT:      -5.2      2.580      6.962
  Name = 
  1 active torsions:
  status: ('A' for Active; 'I' for Inactive)
    1  A    between atoms: C_7  and  C_10
                            x       y       z     vdW  Elec       q    Type
                         _______ _______ _______ _____ _____    ______ ____

>  <TORSDO>
F 1

$$$$
=
 OpenBabel10262422023D

 30 33  0  0  1  0  0  0  0  0999 V2000
  185.9700  178.5200  138.8920 C   0  0  0  0  0  0  0  0  0  0  0  0
  183.9270  178.8660  140.3590 C   0  0  0  0  0  2  0  0  0  0  0  0
  181.5630  177.4970  137.3140 O   0  0  0  0  0  0  0  0  0  0  0  0
  185.3910  175.7440  137.4370 C   0  0  0  0  0  2  0  0  0  0  0  0
  186.4770  178.6940  137.5620 N   0  0  0  0  0  0  0  0  0  0  0  0
  188.5200  175.8670  137.5700 C   0  0  0  0  0  0  0  0  0  0  0  0
  188.2250  177.1850  137.9400 O   0  0  0  0  0  0  0  0  0  0  0  0
  187.9840  178.3240  135.7230 C   0  0  0  0  0  1  0  0  0  0  0  0
  183.2420  174.8430  135.7460 C   0  0  2  0  0  3  0  0  0  0  0  0
  182.0250  177.0340  136.0810 C   0  0  0  0  0  0  0  0  0  0  0  0
  187.5380  178.0890  137.1240 C   0  0  0  0  0  0  0  0  0  0  0  0
  186.3270  175.4930  136.2650 C   0  0  1  0  0  3  0  0  0  0  0  0
  182.6650  178.1490  140.8120 C   0  0  0  0  0  2  0  0  0  0  0  0
  184.3870  174.3340  134.9870 N   0  0  0  0  0  2  0  0  0  0  0  0
  189.5580  175.3290  138.0330 O   0  0  0  0  0  0  0  0  0  0  0  0
  186.7490  178.6270  139.8770 O   0  0  0  0  0  0  0  0  0  0  0  0
  182.2990  177.2670  138.5100 C   0  0  2  0  0  3  0  0  0  0  0  0
  181.7010  178.0970  139.6440 C   0  0  1  0  0  3  0  0  0  0  0  0
  187.6420  175.0810  136.7500 N   0  0  0  0  0  2  0  0  0  0  0  0
  184.5340  178.2430  139.1260 C   0  0  0  0  0  0  0  0  0  0  0  0
  184.3800  176.8240  137.0510 C   0  0  1  0  0  3  0  0  0  0  0  0
  181.3140  177.1840  135.0530 O   0  0  0  0  0  0  0  0  0  0  0  0
  183.3620  176.3620  135.9740 C   0  0  1  0  0  3  0  0  0  0  0  0
  186.6040  173.7960  134.6120 O   0  0  0  0  0  0  0  0  0  0  0  0
  180.4980  177.5280  140.0580 O   0  0  0  0  0  1  0  0  0  0  0  0
  183.7780  177.5060  138.2660 C   0  0  0  0  0  0  0  0  0  0  0  0
  185.7860  174.4780  135.2850 C   0  0  0  0  0  0  0  0  0  0  0  0
  182.9600  174.0080  137.0110 C   0  0  0  0  0  3  0  0  0  0  0  0
  183.5570  172.6150  136.9060 C   0  0  0  0  0  1  0  0  0  0  0  0
  181.4670  173.8570  137.2320 C   0  0  0  0  0  1  0  0  0  0  0  0
  1 20  1  0  0  0  0
  1 16  2  0  0  0  0
  2 13  1  0  0  0  0
  5  1  1  0  0  0  0
  6  7  1  0  0  0  0
  6 15  2  0  0  0  0
  8 11  1  0  0  0  0
  9 23  1  0  0  0  0
  9 28  1  1  0  0  0
 10  3  1  0  0  0  0
 11  5  2  0  0  0  0
 11  7  1  0  0  0  0
 12 19  1  0  0  0  0
 12  4  1  1  0  0  0
 14 27  1  0  0  0  0
 14  9  1  0  0  0  0
 17  3  1  6  0  0  0
 17 18  1  0  0  0  0
 18 25  1  1  0  0  0
 18 13  1  0  0  0  0
 19  6  1  0  0  0  0
 20  2  1  0  0  0  0
 21  4  1  1  0  0  0
 21 26  1  0  0  0  0
 22 10  2  0  0  0  0
 23 10  1  1  0  0  0
 23 21  1  0  0  0  0
 24 27  2  0  0  0  0
 26 17  1  0  0  0  0
 26 20  2  0  0  0  0
 27 12  1  0  0  0  0
 28 30  1  0  0  0  0
 29 28  1  0  0  0  0
M  END
>  <MODEL>
9

>  <REMARK>
 VINA RESULT:      -5.2      2.253      3.192
  Name = 
  1 active torsions:
  status: ('A' for Active; 'I' for Inactive)
    1  A    between atoms: C_7  and  C_10
                            x       y       z     vdW  Elec       q    Type
                         _______ _______ _______ _____ _____    ______ ____

>  <TORSDO>
F 1

$$$$
