=
 OpenBabel10262419263D

 31 35  0  0  1  0  0  0  0  0999 V2000
  188.7200  176.5190  143.5740 C   0  0  0  0  0  3  0  0  0  0  0  0
  186.4210  177.5340  143.8660 C   0  0  2  0  0  3  0  0  0  0  0  0
  186.4660  177.3460  145.3300 N   0  0  1  0  0  0  0  0  0  0  0  0
  187.7330  177.4050  143.1170 C   0  0  0  0  0  0  0  0  0  0  0  0
  190.0800  176.9820  141.6300 C   0  0  0  0  0  3  0  0  0  0  0  0
  187.6510  177.6800  146.1350 C   0  0  1  0  0  3  0  0  0  0  0  0
  185.5420  178.8770  141.9500 C   0  0  0  0  0  0  0  0  0  0  0  0
  190.9390  175.3980  143.3570 C   0  0  0  0  0  1  0  0  0  0  0  0
  184.1450  178.6290  145.6800 C   0  0  0  0  0  2  0  0  0  0  0  0
  186.8720  178.9560  141.2540 C   0  0  0  0  0  2  0  0  0  0  0  0
  185.5820  178.7710  143.4380 C   0  0  1  0  0  3  0  0  0  0  0  0
  184.4030  178.8970  141.3180 N   0  0  0  0  0  0  0  0  0  0  0  0
  189.8940  176.3210  142.8450 C   0  0  0  0  0  0  0  0  0  0  0  0
  187.9050  178.0370  141.8570 C   0  0  0  0  0  0  0  0  0  0  0  0
  189.0880  177.8340  141.1380 C   0  0  0  0  0  3  0  0  0  0  0  0
  184.2330  179.0140  144.1750 C   0  0  0  0  0  2  0  0  0  0  0  0
  186.6600  178.7200  145.8640 C   0  0  2  0  0  3  0  0  0  0  0  0
  185.3490  179.0120  146.5820 C   0  0  0  0  0  2  0  0  0  0  0  0
  184.3190  180.0850  139.2850 O   0  0  0  0  0  0  0  0  0  0  0  0
  184.1950  178.9920  139.8970 C   0  0  0  0  0  0  0  0  0  0  0  0
  182.8650  176.3710  136.8240 C   0  0  0  0  0  0  0  0  0  0  0  0
  182.3390  177.8340  138.7410 C   0  0  0  0  0  2  0  0  0  0  0  0
  186.4000  178.0360  137.9200 Cl  0  0  0  0  0  0  0  0  0  0  0  0
  182.5000  175.4670  135.8850 F   0  0  0  0  0  0  0  0  0  0  0  0
  181.9770  176.7770  137.7340 C   0  0  0  0  0  3  0  0  0  0  0  0
  184.7060  177.5680  137.9060 C   0  0  0  0  0  0  0  0  0  0  0  0
  183.8240  177.7680  139.1230 C   0  0  1  0  0  3  0  0  0  0  0  0
  184.2540  176.8630  136.8630 C   0  0  0  0  0  3  0  0  0  0  0  0
  187.4960  177.1150  147.5370 C   0  0  0  0  0  2  0  0  0  0  0  0
  188.3640  177.8850  148.5160 C   0  0  0  0  0  2  0  0  0  0  0  0
  189.6960  177.8530  148.1010 O   0  0  0  0  0  1  0  0  0  0  0  0
  2  4  1  1  0  0  0
  2  3  1  0  0  0  0
  3 17  1  0  0  0  0
  3  6  1  0  0  0  0
  4  1  1  0  0  0  0
  5 13  1  0  0  0  0
  6 29  1  0  0  0  0
  7 11  1  0  0  0  0
  9 18  1  0  0  0  0
 10 14  1  0  0  0  0
 10  7  1  0  0  0  0
 11  2  1  0  0  0  0
 11 16  1  0  0  0  0
 12  7  2  0  0  0  0
 13  8  1  0  0  0  0
 13  1  2  0  0  0  0
 14  4  2  0  0  0  0
 15  5  2  0  0  0  0
 15 14  1  0  0  0  0
 16  9  1  0  0  0  0
 17  6  1  0  0  0  0
 17 18  1  0  0  0  0
 19 20  2  0  0  0  0
 20 12  1  0  0  0  0
 21 28  1  0  0  0  0
 21 25  2  0  0  0  0
 22 27  1  0  0  0  0
 24 21  1  0  0  0  0
 25 22  1  0  0  0  0
 26 23  1  0  0  0  0
 26 27  1  0  0  0  0
 27 20  1  0  0  0  0
 28 26  2  0  0  0  0
 29 30  1  0  0  0  0
 31 30  1  0  0  0  0
M  END
>  <MODEL>
1

>  <REMARK>
 VINA RESULT:      -9.6      0.000      0.000
  Name = 
  4 active torsions:
  status: ('A' for Active; 'I' for Inactive)
    1  A    between atoms: C_9  and  C_22
    2  A    between atoms: C_9  and  N_23
    3  A    between atoms: C_10  and  C_14
    4  A    between atoms: C_10  and  C_18
                            x       y       z     vdW  Elec       q    Type
                         _______ _______ _______ _____ _____    ______ ____

>  <TORSDO>
F 4

$$$$
=
 OpenBabel10262419263D

 31 35  0  0  1  0  0  0  0  0999 V2000
  188.4930  176.6680  143.4160 C   0  0  0  0  0  3  0  0  0  0  0  0
  186.2040  177.5740  144.0000 C   0  0  2  0  0  3  0  0  0  0  0  0
  186.4340  177.3680  145.4450 N   0  0  1  0  0  0  0  0  0  0  0  0
  187.4210  177.5150  143.0970 C   0  0  0  0  0  0  0  0  0  0  0  0
  189.5880  177.2190  141.3320 C   0  0  0  0  0  3  0  0  0  0  0  0
  187.6920  177.7450  146.1080 C   0  0  1  0  0  3  0  0  0  0  0  0
  185.0440  178.9020  142.2300 C   0  0  0  0  0  0  0  0  0  0  0  0
  190.7160  175.6510  142.9130 C   0  0  0  0  0  1  0  0  0  0  0  0
  184.1190  178.5400  146.0950 C   0  0  0  0  0  2  0  0  0  0  0  0
  186.2750  179.0510  141.3810 C   0  0  0  0  0  2  0  0  0  0  0  0
  185.2670  178.7770  143.7000 C   0  0  1  0  0  3  0  0  0  0  0  0
  183.8370  178.8800  141.7390 N   0  0  0  0  0  0  0  0  0  0  0  0
  189.5780  176.5330  142.5480 C   0  0  0  0  0  0  0  0  0  0  0  0
  187.4130  178.1710  141.8380 C   0  0  0  0  0  0  0  0  0  0  0  0
  188.5080  178.0310  140.9800 C   0  0  0  0  0  3  0  0  0  0  0  0
  184.0080  178.9500  144.5980 C   0  0  0  0  0  2  0  0  0  0  0  0
  186.6310  178.7420  145.9780 C   0  0  2  0  0  3  0  0  0  0  0  0
  185.4050  178.9640  146.8530 C   0  0  0  0  0  2  0  0  0  0  0  0
  183.9870  179.8290  139.5880 O   0  0  0  0  0  0  0  0  0  0  0  0
  183.4550  178.9840  140.3560 C   0  0  0  0  0  0  0  0  0  0  0  0
  180.5870  175.8730  139.9370 C   0  0  0  0  0  0  0  0  0  0  0  0
  182.9320  176.6290  139.8020 C   0  0  0  0  0  2  0  0  0  0  0  0
  180.5640  179.7150  141.2450 Cl  0  0  0  0  0  0  0  0  0  0  0  0
  179.6270  174.9390  139.7380 F   0  0  0  0  0  0  0  0  0  0  0  0
  181.8360  175.6390  139.5270 C   0  0  0  0  0  3  0  0  0  0  0  0
  181.0950  178.1840  140.5630 C   0  0  0  0  0  0  0  0  0  0  0  0
  182.4060  178.0710  139.8090 C   0  0  1  0  0  3  0  0  0  0  0  0
  180.2350  177.1600  140.5630 C   0  0  0  0  0  3  0  0  0  0  0  0
  187.7310  177.1540  147.5080 C   0  0  0  0  0  2  0  0  0  0  0  0
  188.7090  177.9210  148.3780 C   0  0  0  0  0  2  0  0  0  0  0  0
  190.0190  177.5690  148.0500 O   0  0  0  0  0  1  0  0  0  0  0  0
  2  4  1  6  0  0  0
  2  3  1  0  0  0  0
  3 17  1  0  0  0  0
  3  6  1  0  0  0  0
  4  1  1  0  0  0  0
  5 13  1  0  0  0  0
  6 29  1  0  0  0  0
  7 11  1  0  0  0  0
  9 18  1  0  0  0  0
 10 14  1  0  0  0  0
 10  7  1  0  0  0  0
 11  2  1  0  0  0  0
 11 16  1  0  0  0  0
 12  7  2  0  0  0  0
 13  8  1  0  0  0  0
 13  1  2  0  0  0  0
 14  4  2  0  0  0  0
 15  5  2  0  0  0  0
 15 14  1  0  0  0  0
 16  9  1  0  0  0  0
 17  6  1  0  0  0  0
 17 18  1  0  0  0  0
 19 20  2  0  0  0  0
 20 12  1  0  0  0  0
 21 28  1  0  0  0  0
 22 27  1  0  0  0  0
 24 21  1  0  0  0  0
 25 22  1  0  0  0  0
 25 21  2  0  0  0  0
 26 23  1  0  0  0  0
 27 20  1  0  0  0  0
 27 26  1  0  0  0  0
 28 26  2  0  0  0  0
 29 30  1  0  0  0  0
 31 30  1  0  0  0  0
M  END
>  <MODEL>
2

>  <REMARK>
 VINA RESULT:      -9.6      1.898      2.215
  Name = 
  4 active torsions:
  status: ('A' for Active; 'I' for Inactive)
    1  A    between atoms: C_9  and  C_22
    2  A    between atoms: C_9  and  N_23
    3  A    between atoms: C_10  and  C_14
    4  A    between atoms: C_10  and  C_18
                            x       y       z     vdW  Elec       q    Type
                         _______ _______ _______ _____ _____    ______ ____

>  <TORSDO>
F 4

$$$$
=
 OpenBabel10262419263D

 31 35  0  0  1  0  0  0  0  0999 V2000
  188.7460  176.7700  143.4890 C   0  0  0  0  0  3  0  0  0  0  0  0
  186.4430  177.4250  144.3060 C   0  0  2  0  0  3  0  0  0  0  0  0
  186.8620  177.3340  145.7190 N   0  0  1  0  0  0  0  0  0  0  0  0
  187.5450  177.4600  143.2650 C   0  0  0  0  0  0  0  0  0  0  0  0
  189.5150  177.3250  141.2650 C   0  0  0  0  0  3  0  0  0  0  0  0
  188.1290  177.9000  146.2070 C   0  0  1  0  0  3  0  0  0  0  0  0
  184.9260  178.4940  142.6320 C   0  0  0  0  0  0  0  0  0  0  0  0
  191.0090  176.0030  142.7650 C   0  0  0  0  0  1  0  0  0  0  0  0
  184.5070  178.2530  146.5930 C   0  0  0  0  0  2  0  0  0  0  0  0
  186.0230  178.7400  141.6340 C   0  0  0  0  0  2  0  0  0  0  0  0
  185.3320  178.4840  144.0680 C   0  0  1  0  0  3  0  0  0  0  0  0
  183.6850  178.2950  142.2930 N   0  0  0  0  0  0  0  0  0  0  0  0
  189.7320  176.7160  142.5020 C   0  0  0  0  0  0  0  0  0  0  0  0
  187.3090  178.0340  141.9880 C   0  0  0  0  0  0  0  0  0  0  0  0
  188.3070  177.9770  141.0100 C   0  0  0  0  0  3  0  0  0  0  0  0
  184.1730  178.5560  145.1040 C   0  0  0  0  0  2  0  0  0  0  0  0
  186.9420  178.7510  146.1620 C   0  0  2  0  0  3  0  0  0  0  0  0
  185.8060  178.8740  147.1700 C   0  0  0  0  0  2  0  0  0  0  0  0
  183.2650  177.2630  140.2170 O   0  0  0  0  0  0  0  0  0  0  0  0
  183.1360  178.2700  140.9630 C   0  0  0  0  0  0  0  0  0  0  0  0
  180.6330  180.8160  138.6540 C   0  0  0  0  0  0  0  0  0  0  0  0
  182.8330  179.7570  139.0080 C   0  0  0  0  0  2  0  0  0  0  0  0
  180.1610  178.3860  141.8700 Cl  0  0  0  0  0  0  0  0  0  0  0  0
  179.8230  181.6820  138.0000 F   0  0  0  0  0  0  0  0  0  0  0  0
  181.9310  180.7610  138.3470 C   0  0  0  0  0  3  0  0  0  0  0  0
  180.8900  179.2880  140.5480 C   0  0  0  0  0  0  0  0  0  0  0  0
  182.3930  179.4600  140.4480 C   0  0  1  0  0  3  0  0  0  0  0  0
  180.0830  179.9760  139.7330 C   0  0  0  0  0  3  0  0  0  0  0  0
  188.4050  177.4020  147.6170 C   0  0  0  0  0  2  0  0  0  0  0  0
  189.8170  176.8570  147.7180 C   0  0  0  0  0  2  0  0  0  0  0  0
  190.4850  177.0330  146.5060 O   0  0  0  0  0  1  0  0  0  0  0  0
  2  4  1  6  0  0  0
  2  3  1  0  0  0  0
  3 17  1  0  0  0  0
  3  6  1  0  0  0  0
  4  1  1  0  0  0  0
  5 13  1  0  0  0  0
  6 29  1  0  0  0  0
  7 11  1  0  0  0  0
  9 18  1  0  0  0  0
 10 14  1  0  0  0  0
 10  7  1  0  0  0  0
 11  2  1  0  0  0  0
 11 16  1  0  0  0  0
 12  7  2  0  0  0  0
 13  8  1  0  0  0  0
 13  1  2  0  0  0  0
 14  4  2  0  0  0  0
 15  5  2  0  0  0  0
 15 14  1  0  0  0  0
 16  9  1  0  0  0  0
 17  6  1  0  0  0  0
 17 18  1  0  0  0  0
 19 20  2  0  0  0  0
 20 12  1  0  0  0  0
 21 28  1  0  0  0  0
 22 27  1  0  0  0  0
 24 21  1  0  0  0  0
 25 21  2  0  0  0  0
 25 22  1  0  0  0  0
 26 23  1  0  0  0  0
 27 26  1  0  0  0  0
 27 20  1  0  0  0  0
 28 26  2  0  0  0  0
 29 30  1  0  0  0  0
 31 30  1  0  0  0  0
M  END
>  <MODEL>
3

>  <REMARK>
 VINA RESULT:      -9.0      2.493      2.850
  Name = 
  4 active torsions:
  status: ('A' for Active; 'I' for Inactive)
    1  A    between atoms: C_9  and  C_22
    2  A    between atoms: C_9  and  N_23
    3  A    between atoms: C_10  and  C_14
    4  A    between atoms: C_10  and  C_18
                            x       y       z     vdW  Elec       q    Type
                         _______ _______ _______ _____ _____    ______ ____

>  <TORSDO>
F 4

$$$$
=
 OpenBabel10262419263D

 31 35  0  0  1  0  0  0  0  0999 V2000
  188.4360  177.3580  144.7980 C   0  0  0  0  0  3  0  0  0  0  0  0
  186.8570  177.7480  142.8590 C   0  0  2  0  0  3  0  0  0  0  0  0
  185.6950  177.8730  143.7630 N   0  0  1  0  0  0  0  0  0  0  0  0
  188.2320  177.8340  143.4940 C   0  0  0  0  0  0  0  0  0  0  0  0
  190.8090  177.7780  144.6130 C   0  0  0  0  0  3  0  0  0  0  0  0
  185.7360  178.6690  145.0000 C   0  0  1  0  0  3  0  0  0  0  0  0
  187.9000  178.3950  140.6830 C   0  0  0  0  0  0  0  0  0  0  0  0
  189.9070  176.8610  146.7520 C   0  0  0  0  0  1  0  0  0  0  0  0
  184.0570  178.5210  141.7500 C   0  0  0  0  0  2  0  0  0  0  0  0
  189.2420  178.6920  141.2900 C   0  0  0  0  0  2  0  0  0  0  0  0
  186.7160  178.6000  141.5670 C   0  0  1  0  0  3  0  0  0  0  0  0
  187.7480  177.9790  139.4580 N   0  0  0  0  0  0  0  0  0  0  0  0
  189.7130  177.3450  145.3610 C   0  0  0  0  0  0  0  0  0  0  0  0
  189.3560  178.2260  142.7210 C   0  0  0  0  0  0  0  0  0  0  0  0
  190.6300  178.2140  143.2980 C   0  0  0  0  0  3  0  0  0  0  0  0
  185.3300  178.6090  140.8600 C   0  0  0  0  0  2  0  0  0  0  0  0
  185.3780  179.3250  143.7430 C   0  0  2  0  0  3  0  0  0  0  0  0
  184.0300  179.3860  143.0380 C   0  0  0  0  0  2  0  0  0  0  0  0
  189.2920  178.6660  137.8160 O   0  0  0  0  0  0  0  0  0  0  0  0
  188.7780  177.7300  138.4850 C   0  0  0  0  0  0  0  0  0  0  0  0
  190.7970  174.3230  136.9370 C   0  0  0  0  0  0  0  0  0  0  0  0
  188.8920  175.8890  136.8360 C   0  0  0  0  0  2  0  0  0  0  0  0
  191.5420  177.1230  139.7800 Cl  0  0  0  0  0  0  0  0  0  0  0  0
  191.4310  173.1970  136.5340 F   0  0  0  0  0  0  0  0  0  0  0  0
  189.5840  174.6090  136.4580 C   0  0  0  0  0  3  0  0  0  0  0  0
  190.7420  176.1830  138.5270 C   0  0  0  0  0  0  0  0  0  0  0  0
  189.2580  176.3330  138.2590 C   0  0  1  0  0  3  0  0  0  0  0  0
  191.4310  175.2000  137.9380 C   0  0  0  0  0  3  0  0  0  0  0  0
  184.5060  178.3720  145.8420 C   0  0  0  0  0  2  0  0  0  0  0  0
  184.8860  178.2490  147.3060 C   0  0  0  0  0  2  0  0  0  0  0  0
  186.2690  178.3650  147.4520 O   0  0  0  0  0  1  0  0  0  0  0  0
  1 13  1  0  0  0  0
  2  4  1  1  0  0  0
  2  3  1  0  0  0  0
  3  6  1  0  0  0  0
  4  1  2  0  0  0  0
  5 13  2  0  0  0  0
  6 29  1  0  0  0  0
  7 10  1  0  0  0  0
  7 11  1  0  0  0  0
  9 18  1  0  0  0  0
 10 14  1  0  0  0  0
 11  2  1  0  0  0  0
 12  7  2  0  0  0  0
 13  8  1  0  0  0  0
 14 15  2  0  0  0  0
 14  4  1  0  0  0  0
 15  5  1  0  0  0  0
 16 11  1  0  0  0  0
 16  9  1  0  0  0  0
 17  3  1  0  0  0  0
 17  6  1  0  0  0  0
 18 17  1  0  0  0  0
 19 20  2  0  0  0  0
 20 12  1  0  0  0  0
 21 28  1  0  0  0  0
 22 27  1  0  0  0  0
 24 21  1  0  0  0  0
 25 22  1  0  0  0  0
 25 21  2  0  0  0  0
 26 23  1  0  0  0  0
 27 20  1  0  0  0  0
 27 26  1  0  0  0  0
 28 26  2  0  0  0  0
 29 30  1  0  0  0  0
 30 31  1  0  0  0  0
M  END
>  <MODEL>
4

>  <REMARK>
 VINA RESULT:      -8.8      3.342      4.597
  Name = 
  4 active torsions:
  status: ('A' for Active; 'I' for Inactive)
    1  A    between atoms: C_9  and  C_22
    2  A    between atoms: C_9  and  N_23
    3  A    between atoms: C_10  and  C_14
    4  A    between atoms: C_10  and  C_18
                            x       y       z     vdW  Elec       q    Type
                         _______ _______ _______ _____ _____    ______ ____

>  <TORSDO>
F 4

$$$$
=
 OpenBabel10262419263D

 31 35  0  0  1  0  0  0  0  0999 V2000
  186.8680  178.6370  139.1520 C   0  0  0  0  0  3  0  0  0  0  0  0
  186.2950  178.8570  141.6060 C   0  0  2  0  0  3  0  0  0  0  0  0
  184.8830  179.1680  141.3020 N   0  0  1  0  0  0  0  0  0  0  0  0
  187.1260  178.2700  140.4810 C   0  0  0  0  0  0  0  0  0  0  0  0
  188.7870  177.3720  138.3990 C   0  0  0  0  0  3  0  0  0  0  0  0
  184.1020  178.4120  140.3110 C   0  0  1  0  0  3  0  0  0  0  0  0
  187.9240  177.8740  143.2260 C   0  0  0  0  0  0  0  0  0  0  0  0
  187.3810  178.5550  136.7100 C   0  0  0  0  0  1  0  0  0  0  0  0
  184.2090  179.1700  143.8900 C   0  0  0  0  0  2  0  0  0  0  0  0
  188.6700  177.1020  142.1740 C   0  0  0  0  0  2  0  0  0  0  0  0
  186.4760  178.1180  142.9610 C   0  0  1  0  0  3  0  0  0  0  0  0
  188.4820  178.3160  144.3160 N   0  0  0  0  0  0  0  0  0  0  0  0
  187.6830  178.1780  138.1150 C   0  0  0  0  0  0  0  0  0  0  0  0
  188.2780  177.4920  140.7700 C   0  0  0  0  0  0  0  0  0  0  0  0
  189.0830  177.0350  139.7220 C   0  0  0  0  0  3  0  0  0  0  0  0
  185.6370  178.6200  144.1710 C   0  0  0  0  0  2  0  0  0  0  0  0
  184.1510  177.9350  141.6910 C   0  0  2  0  0  3  0  0  0  0  0  0
  183.3250  178.3750  142.8930 C   0  0  0  0  0  2  0  0  0  0  0  0
  190.7410  178.9830  144.3410 O   0  0  0  0  0  0  0  0  0  0  0  0
  189.8560  178.1690  144.7160 C   0  0  0  0  0  0  0  0  0  0  0  0
  191.8760  175.7330  147.5560 C   0  0  0  0  0  0  0  0  0  0  0  0
  191.6750  176.5770  145.2460 C   0  0  0  0  0  2  0  0  0  0  0  0
  188.8530  178.4400  147.6490 Cl  0  0  0  0  0  0  0  0  0  0  0  0
  192.4330  174.9100  148.4750 F   0  0  0  0  0  0  0  0  0  0  0  0
  192.2250  175.6260  146.2720 C   0  0  0  0  0  3  0  0  0  0  0  0
  190.1190  177.3660  147.0690 C   0  0  0  0  0  0  0  0  0  0  0  0
  190.2500  177.0290  145.5970 C   0  0  1  0  0  3  0  0  0  0  0  0
  190.8510  176.7070  147.9730 C   0  0  0  0  0  3  0  0  0  0  0  0
  182.8000  179.1400  140.0190 C   0  0  0  0  0  2  0  0  0  0  0  0
  182.9340  179.9800  138.7630 C   0  0  0  0  0  2  0  0  0  0  0  0
  184.0740  180.7810  138.8440 O   0  0  0  0  0  1  0  0  0  0  0  0
  1  4  1  0  0  0  0
  2  4  1  6  0  0  0
  2 11  1  0  0  0  0
  3  2  1  0  0  0  0
  3 17  1  0  0  0  0
  4 14  2  0  0  0  0
  5 15  2  0  0  0  0
  6  3  1  0  0  0  0
  6 17  1  0  0  0  0
  7 12  2  0  0  0  0
  8 13  1  0  0  0  0
  9 16  1  0  0  0  0
 10  7  1  0  0  0  0
 11  7  1  0  0  0  0
 11 16  1  0  0  0  0
 12 20  1  0  0  0  0
 13  5  1  0  0  0  0
 13  1  2  0  0  0  0
 14 10  1  0  0  0  0
 15 14  1  0  0  0  0
 17 18  1  0  0  0  0
 18  9  1  0  0  0  0
 19 20  2  0  0  0  0
 20 27  1  0  0  0  0
 21 28  1  0  0  0  0
 21 24  1  0  0  0  0
 22 27  1  0  0  0  0
 22 25  1  0  0  0  0
 25 21  2  0  0  0  0
 26 23  1  0  0  0  0
 26 28  2  0  0  0  0
 27 26  1  0  0  0  0
 29  6  1  0  0  0  0
 30 31  1  0  0  0  0
 30 29  1  0  0  0  0
M  END
>  <MODEL>
5

>  <REMARK>
 VINA RESULT:      -8.6      3.987      8.048
  Name = 
  4 active torsions:
  status: ('A' for Active; 'I' for Inactive)
    1  A    between atoms: C_9  and  C_22
    2  A    between atoms: C_9  and  N_23
    3  A    between atoms: C_10  and  C_14
    4  A    between atoms: C_10  and  C_18
                            x       y       z     vdW  Elec       q    Type
                         _______ _______ _______ _____ _____    ______ ____

>  <TORSDO>
F 4

$$$$
=
 OpenBabel10262419263D

 31 35  0  0  1  0  0  0  0  0999 V2000
  189.4110  176.9980  141.7540 C   0  0  0  0  0  3  0  0  0  0  0  0
  187.4270  177.2150  143.3090 C   0  0  2  0  0  3  0  0  0  0  0  0
  188.2600  176.9280  144.4950 N   0  0  1  0  0  0  0  0  0  0  0  0
  188.1580  177.5660  142.0270 C   0  0  0  0  0  0  0  0  0  0  0  0
  189.4330  178.0240  139.5650 C   0  0  0  0  0  3  0  0  0  0  0  0
  189.5770  177.5470  144.7060 C   0  0  1  0  0  3  0  0  0  0  0  0
  185.4110  178.3720  142.3920 C   0  0  0  0  0  0  0  0  0  0  0  0
  191.3910  176.6480  140.2740 C   0  0  0  0  0  1  0  0  0  0  0  0
  186.2270  177.3880  146.1730 C   0  0  0  0  0  2  0  0  0  0  0  0
  186.1360  178.9210  141.1950 C   0  0  0  0  0  2  0  0  0  0  0  0
  186.2320  178.1590  143.6200 C   0  0  1  0  0  3  0  0  0  0  0  0
  184.1400  178.0890  142.3880 N   0  0  0  0  0  0  0  0  0  0  0  0
  190.0530  177.2380  140.5370 C   0  0  0  0  0  0  0  0  0  0  0  0
  187.5100  178.3230  141.0160 C   0  0  0  0  0  0  0  0  0  0  0  0
  188.1660  178.5610  139.8040 C   0  0  0  0  0  3  0  0  0  0  0  0
  185.4390  177.9060  144.9350 C   0  0  0  0  0  2  0  0  0  0  0  0
  188.3820  178.2440  145.1760 C   0  0  2  0  0  3  0  0  0  0  0  0
  187.5990  178.0500  146.4690 C   0  0  0  0  0  2  0  0  0  0  0  0
  182.1770  178.9370  141.3980 O   0  0  0  0  0  0  0  0  0  0  0  0
  183.2160  178.2320  141.2940 C   0  0  0  0  0  0  0  0  0  0  0  0
  182.7810  176.5020  137.4340 C   0  0  0  0  0  0  0  0  0  0  0  0
  182.5910  176.2960  139.8860 C   0  0  0  0  0  2  0  0  0  0  0  0
  183.7360  180.1610  138.9080 Cl  0  0  0  0  0  0  0  0  0  0  0  0
  182.7390  175.9680  136.1910 F   0  0  0  0  0  0  0  0  0  0  0  0
  182.6200  175.7150  138.5000 C   0  0  0  0  0  3  0  0  0  0  0  0
  183.3300  178.4530  138.8060 C   0  0  0  0  0  0  0  0  0  0  0  0
  183.4900  177.5340  140.0010 C   0  0  1  0  0  3  0  0  0  0  0  0
  183.0520  177.9410  137.6030 C   0  0  0  0  0  3  0  0  0  0  0  0
  190.2980  176.8460  145.8460 C   0  0  0  0  0  2  0  0  0  0  0  0
  191.7250  176.5200  145.4480 C   0  0  0  0  0  2  0  0  0  0  0  0
  191.7440  175.9150  144.1900 O   0  0  0  0  0  1  0  0  0  0  0  0
  1  4  1  0  0  0  0
  2  4  1  6  0  0  0
  2 11  1  0  0  0  0
  2  3  1  0  0  0  0
  3  6  1  0  0  0  0
  3 17  1  0  0  0  0
  5 15  2  0  0  0  0
  5 13  1  0  0  0  0
  6 17  1  0  0  0  0
  6 29  1  0  0  0  0
  7 11  1  0  0  0  0
  8 13  1  0  0  0  0
  9 18  1  0  0  0  0
 10  7  1  0  0  0  0
 11 16  1  0  0  0  0
 12  7  2  0  0  0  0
 13  1  2  0  0  0  0
 14 10  1  0  0  0  0
 14  4  2  0  0  0  0
 15 14  1  0  0  0  0
 16  9  1  0  0  0  0
 17 18  1  0  0  0  0
 20 19  2  0  0  0  0
 20 12  1  0  0  0  0
 21 28  1  0  0  0  0
 21 25  2  0  0  0  0
 22 27  1  0  0  0  0
 24 21  1  0  0  0  0
 25 22  1  0  0  0  0
 26 23  1  0  0  0  0
 26 27  1  0  0  0  0
 27 20  1  0  0  0  0
 28 26  2  0  0  0  0
 30 29  1  0  0  0  0
 31 30  1  0  0  0  0
M  END
>  <MODEL>
6

>  <REMARK>
 VINA RESULT:      -8.6      1.826      2.301
  Name = 
  4 active torsions:
  status: ('A' for Active; 'I' for Inactive)
    1  A    between atoms: C_9  and  C_22
    2  A    between atoms: C_9  and  N_23
    3  A    between atoms: C_10  and  C_14
    4  A    between atoms: C_10  and  C_18
                            x       y       z     vdW  Elec       q    Type
                         _______ _______ _______ _____ _____    ______ ____

>  <TORSDO>
F 4

$$$$
=
 OpenBabel10262419263D

 31 35  0  0  1  0  0  0  0  0999 V2000
  188.1720  178.1330  146.4460 C   0  0  0  0  0  3  0  0  0  0  0  0
  188.8520  177.9620  144.0140 C   0  0  2  0  0  3  0  0  0  0  0  0
  190.2170  177.5280  144.3730 N   0  0  1  0  0  0  0  0  0  0  0  0
  187.8050  177.9070  145.1110 C   0  0  0  0  0  0  0  0  0  0  0  0
  185.8560  178.0310  147.1320 C   0  0  0  0  0  3  0  0  0  0  0  0
  190.4800  176.5100  145.4030 C   0  0  1  0  0  3  0  0  0  0  0  0
  186.9980  177.8860  142.3400 C   0  0  0  0  0  0  0  0  0  0  0  0
  187.6150  178.3930  148.8650 C   0  0  0  0  0  1  0  0  0  0  0  0
  190.8780  177.1130  141.8140 C   0  0  0  0  0  2  0  0  0  0  0  0
  185.9330  177.6280  143.3680 C   0  0  0  0  0  2  0  0  0  0  0  0
  188.3630  177.3750  142.6610 C   0  0  1  0  0  3  0  0  0  0  0  0
  186.7730  178.5180  141.2230 N   0  0  0  0  0  0  0  0  0  0  0  0
  187.2060  178.1780  147.4530 C   0  0  0  0  0  0  0  0  0  0  0  0
  186.4270  177.8080  144.7830 C   0  0  0  0  0  0  0  0  0  0  0  0
  185.4700  177.8490  145.8020 C   0  0  0  0  0  3  0  0  0  0  0  0
  189.3770  177.3500  141.4810 C   0  0  0  0  0  2  0  0  0  0  0  0
  190.2380  176.0820  144.0260 C   0  0  2  0  0  3  0  0  0  0  0  0
  191.2090  176.0110  142.8550 C   0  0  0  0  0  2  0  0  0  0  0  0
  184.8270  179.8130  141.5100 O   0  0  0  0  0  0  0  0  0  0  0  0
  185.5260  179.0720  140.7690 C   0  0  0  0  0  0  0  0  0  0  0  0
  184.5280  177.0540  137.1610 C   0  0  0  0  0  0  0  0  0  0  0  0
  186.2040  178.2240  138.5450 C   0  0  0  0  0  2  0  0  0  0  0  0
  182.6670  177.8470  140.6800 Cl  0  0  0  0  0  0  0  0  0  0  0  0
  184.1410  176.4810  135.9980 F   0  0  0  0  0  0  0  0  0  0  0  0
  185.7220  177.6450  137.2440 C   0  0  0  0  0  3  0  0  0  0  0  0
  183.8600  177.8170  139.3890 C   0  0  0  0  0  0  0  0  0  0  0  0
  185.0420  178.7670  139.3880 C   0  0  1  0  0  3  0  0  0  0  0  0
  183.6080  177.0640  138.3130 C   0  0  0  0  0  3  0  0  0  0  0  0
  191.9620  176.4910  145.7400 C   0  0  0  0  0  2  0  0  0  0  0  0
  192.1980  175.7500  147.0430 C   0  0  0  0  0  2  0  0  0  0  0  0
  192.3150  176.6600  148.0950 O   0  0  0  0  0  1  0  0  0  0  0  0
  1 13  1  0  0  0  0
  2  3  1  0  0  0  0
  2  4  1  1  0  0  0
  3  6  1  0  0  0  0
  4  1  2  0  0  0  0
  5 13  2  0  0  0  0
  6 29  1  0  0  0  0
  7 11  1  0  0  0  0
  7 10  1  0  0  0  0
  9 18  1  0  0  0  0
 10 14  1  0  0  0  0
 11  2  1  0  0  0  0
 12  7  2  0  0  0  0
 13  8  1  0  0  0  0
 14  4  1  0  0  0  0
 14 15  2  0  0  0  0
 15  5  1  0  0  0  0
 16  9  1  0  0  0  0
 16 11  1  0  0  0  0
 17  3  1  0  0  0  0
 17  6  1  0  0  0  0
 18 17  1  0  0  0  0
 20 12  1  0  0  0  0
 20 19  2  0  0  0  0
 21 25  2  0  0  0  0
 21 28  1  0  0  0  0
 22 27  1  0  0  0  0
 24 21  1  0  0  0  0
 25 22  1  0  0  0  0
 26 23  1  0  0  0  0
 27 26  1  0  0  0  0
 27 20  1  0  0  0  0
 28 26  2  0  0  0  0
 29 30  1  0  0  0  0
 30 31  1  0  0  0  0
M  END
>  <MODEL>
7

>  <REMARK>
 VINA RESULT:      -8.5      1.909      4.240
  Name = 
  4 active torsions:
  status: ('A' for Active; 'I' for Inactive)
    1  A    between atoms: C_9  and  C_22
    2  A    between atoms: C_9  and  N_23
    3  A    between atoms: C_10  and  C_14
    4  A    between atoms: C_10  and  C_18
                            x       y       z     vdW  Elec       q    Type
                         _______ _______ _______ _____ _____    ______ ____

>  <TORSDO>
F 4

$$$$
=
 OpenBabel10262419263D

 31 35  0  0  1  0  0  0  0  0999 V2000
  189.6110  176.4750  143.6320 C   0  0  0  0  0  3  0  0  0  0  0  0
  187.3080  177.3160  143.0100 C   0  0  2  0  0  3  0  0  0  0  0  0
  186.8520  177.2630  144.4140 N   0  0  1  0  0  0  0  0  0  0  0  0
  188.8030  177.2300  142.7700 C   0  0  0  0  0  0  0  0  0  0  0  0
  191.5370  176.8740  142.2270 C   0  0  0  0  0  3  0  0  0  0  0  0
  187.6680  177.7660  145.5300 C   0  0  1  0  0  3  0  0  0  0  0  0
  187.0840  178.4040  140.7710 C   0  0  0  0  0  0  0  0  0  0  0  0
  191.8200  175.5280  144.3090 C   0  0  0  0  0  1  0  0  0  0  0  0
  184.4950  178.3740  143.8080 C   0  0  0  0  0  2  0  0  0  0  0  0
  188.5670  178.5310  140.5640 C   0  0  0  0  0  2  0  0  0  0  0  0
  186.6110  178.4340  142.1860 C   0  0  1  0  0  3  0  0  0  0  0  0
  186.2350  178.2720  139.7920 N   0  0  0  0  0  0  0  0  0  0  0  0
  190.9730  176.3100  143.3720 C   0  0  0  0  0  0  0  0  0  0  0  0
  189.3710  177.7590  141.5810 C   0  0  0  0  0  0  0  0  0  0  0  0
  190.7370  177.5920  141.3350 C   0  0  0  0  0  3  0  0  0  0  0  0
  185.0800  178.6290  142.3890 C   0  0  0  0  0  2  0  0  0  0  0  0
  186.7830  178.6900  144.8230 C   0  0  2  0  0  3  0  0  0  0  0  0
  185.2920  178.9340  145.0160 C   0  0  0  0  0  2  0  0  0  0  0  0
  186.0280  179.0500  137.5780 O   0  0  0  0  0  0  0  0  0  0  0  0
  186.5280  178.2220  138.3840 C   0  0  0  0  0  0  0  0  0  0  0  0
  188.6240  175.5720  135.8020 C   0  0  0  0  0  0  0  0  0  0  0  0
  186.6240  176.0740  137.1590 C   0  0  0  0  0  2  0  0  0  0  0  0
  189.1880  179.3350  137.2140 Cl  0  0  0  0  0  0  0  0  0  0  0  0
  189.3650  174.7280  135.0460 F   0  0  0  0  0  0  0  0  0  0  0  0
  187.5000  175.1360  136.3760 C   0  0  0  0  0  3  0  0  0  0  0  0
  188.5130  177.7340  136.9440 C   0  0  0  0  0  0  0  0  0  0  0  0
  187.4450  177.1660  137.8580 C   0  0  1  0  0  3  0  0  0  0  0  0
  189.0890  176.9530  136.0240 C   0  0  0  0  0  3  0  0  0  0  0  0
  187.0630  177.3170  146.8510 C   0  0  0  0  0  2  0  0  0  0  0  0
  188.1480  177.1530  147.8990 C   0  0  0  0  0  2  0  0  0  0  0  0
  188.0860  178.2010  148.8190 O   0  0  0  0  0  1  0  0  0  0  0  0
  2  4  1  1  0  0  0
  2  3  1  0  0  0  0
  3 17  1  0  0  0  0
  3  6  1  0  0  0  0
  4  1  2  0  0  0  0
  5 13  2  0  0  0  0
  6 29  1  0  0  0  0
  7 11  1  0  0  0  0
  9 18  1  0  0  0  0
 10  7  1  0  0  0  0
 10 14  1  0  0  0  0
 11 16  1  0  0  0  0
 11  2  1  0  0  0  0
 12  7  2  0  0  0  0
 13  1  1  0  0  0  0
 13  8  1  0  0  0  0
 14  4  1  0  0  0  0
 15 14  2  0  0  0  0
 15  5  1  0  0  0  0
 16  9  1  0  0  0  0
 17 18  1  0  0  0  0
 17  6  1  0  0  0  0
 19 20  2  0  0  0  0
 20 12  1  0  0  0  0
 21 28  1  0  0  0  0
 21 25  2  0  0  0  0
 22 27  1  0  0  0  0
 24 21  1  0  0  0  0
 25 22  1  0  0  0  0
 26 23  1  0  0  0  0
 26 27  1  0  0  0  0
 27 20  1  0  0  0  0
 28 26  2  0  0  0  0
 29 30  1  0  0  0  0
 30 31  1  0  0  0  0
M  END
>  <MODEL>
8

>  <REMARK>
 VINA RESULT:      -8.5      2.440      2.953
  Name = 
  4 active torsions:
  status: ('A' for Active; 'I' for Inactive)
    1  A    between atoms: C_9  and  C_22
    2  A    between atoms: C_9  and  N_23
    3  A    between atoms: C_10  and  C_14
    4  A    between atoms: C_10  and  C_18
                            x       y       z     vdW  Elec       q    Type
                         _______ _______ _______ _____ _____    ______ ____

>  <TORSDO>
F 4

$$$$
=
 OpenBabel10262419263D

 31 35  0  0  1  0  0  0  0  0999 V2000
  189.5410  176.5390  143.3660 C   0  0  0  0  0  3  0  0  0  0  0  0
  187.3050  177.3770  142.5290 C   0  0  2  0  0  3  0  0  0  0  0  0
  186.7240  177.3370  143.8870 N   0  0  1  0  0  0  0  0  0  0  0  0
  188.8150  177.2880  142.4280 C   0  0  0  0  0  0  0  0  0  0  0  0
  191.5870  176.9250  142.1380 C   0  0  0  0  0  3  0  0  0  0  0  0
  187.4350  177.8490  145.0680 C   0  0  1  0  0  3  0  0  0  0  0  0
  187.2870  178.4450  140.2710 C   0  0  0  0  0  0  0  0  0  0  0  0
  191.6770  175.5970  144.2490 C   0  0  0  0  0  1  0  0  0  0  0  0
  184.4330  178.4440  143.0600 C   0  0  0  0  0  2  0  0  0  0  0  0
  188.7830  178.5690  140.1980 C   0  0  0  0  0  2  0  0  0  0  0  0
  186.6880  178.4880  141.6360 C   0  0  1  0  0  3  0  0  0  0  0  0
  186.5310  178.3060  139.2190 N   0  0  0  0  0  0  0  0  0  0  0  0
  190.9210  176.3710  143.2320 C   0  0  0  0  0  0  0  0  0  0  0  0
  189.4900  177.8060  141.2910 C   0  0  0  0  0  0  0  0  0  0  0  0
  190.8730  177.6360  141.1710 C   0  0  0  0  0  3  0  0  0  0  0  0
  185.1450  178.6860  141.6980 C   0  0  0  0  0  2  0  0  0  0  0  0
  186.6200  178.7680  144.2760 C   0  0  2  0  0  3  0  0  0  0  0  0
  185.1180  179.0150  144.3300 C   0  0  0  0  0  2  0  0  0  0  0  0
  187.4120  179.2520  137.2500 O   0  0  0  0  0  0  0  0  0  0  0  0
  186.9490  178.2420  137.8450 C   0  0  0  0  0  0  0  0  0  0  0  0
  186.4450  174.1320  136.8780 C   0  0  0  0  0  0  0  0  0  0  0  0
  187.9190  175.9800  137.5900 C   0  0  0  0  0  2  0  0  0  0  0  0
  184.0180  177.3590  137.2870 Cl  0  0  0  0  0  0  0  0  0  0  0  0
  186.2530  172.8520  136.4810 F   0  0  0  0  0  0  0  0  0  0  0  0
  187.6850  174.5850  137.0790 C   0  0  0  0  0  3  0  0  0  0  0  0
  185.4530  176.3460  137.1990 C   0  0  0  0  0  0  0  0  0  0  0  0
  186.8390  176.9530  137.0980 C   0  0  1  0  0  3  0  0  0  0  0  0
  185.2870  175.0290  137.0380 C   0  0  0  0  0  3  0  0  0  0  0  0
  186.7130  177.4120  146.3320 C   0  0  0  0  0  2  0  0  0  0  0  0
  187.4700  177.8800  147.5620 C   0  0  0  0  0  2  0  0  0  0  0  0
  188.8340  177.6300  147.4060 O   0  0  0  0  0  1  0  0  0  0  0  0
  2  4  1  1  0  0  0
  2  3  1  0  0  0  0
  3 17  1  0  0  0  0
  3  6  1  0  0  0  0
  4  1  2  0  0  0  0
  5 13  2  0  0  0  0
  6 29  1  0  0  0  0
  7 11  1  0  0  0  0
  9 18  1  0  0  0  0
 10  7  1  0  0  0  0
 10 14  1  0  0  0  0
 11 16  1  0  0  0  0
 11  2  1  0  0  0  0
 12  7  2  0  0  0  0
 13  1  1  0  0  0  0
 13  8  1  0  0  0  0
 14  4  1  0  0  0  0
 15 14  2  0  0  0  0
 15  5  1  0  0  0  0
 16  9  1  0  0  0  0
 17 18  1  0  0  0  0
 17  6  1  0  0  0  0
 19 20  2  0  0  0  0
 20 12  1  0  0  0  0
 21 28  1  0  0  0  0
 21 25  2  0  0  0  0
 24 21  1  0  0  0  0
 25 22  1  0  0  0  0
 26 23  1  0  0  0  0
 27 26  1  0  0  0  0
 27 22  1  0  0  0  0
 27 20  1  0  0  0  0
 28 26  2  0  0  0  0
 29 30  1  0  0  0  0
 31 30  1  0  0  0  0
M  END
>  <MODEL>
9

>  <REMARK>
 VINA RESULT:      -8.3      2.078      2.772
  Name = 
  4 active torsions:
  status: ('A' for Active; 'I' for Inactive)
    1  A    between atoms: C_9  and  C_22
    2  A    between atoms: C_9  and  N_23
    3  A    between atoms: C_10  and  C_14
    4  A    between atoms: C_10  and  C_18
                            x       y       z     vdW  Elec       q    Type
                         _______ _______ _______ _____ _____    ______ ____

>  <TORSDO>
F 4

$$$$
