=
 OpenBabel10262422033D

 30 32  0  0  1  0  0  0  0  0999 V2000
  182.1370  177.5160  140.4500 C   0  0  1  0  0  3  0  0  0  0  0  0
  181.0750  179.7080  142.6810 C   0  0  0  0  0  2  0  0  0  0  0  0
  180.7500  182.0700  138.5650 C   0  0  0  0  0  1  0  0  0  0  0  0
  182.0590  176.9840  138.9880 C   0  0  2  0  0  3  0  0  0  0  0  0
  183.1700  178.6360  140.6820 C   0  0  0  0  0  2  0  0  0  0  0  0
  184.1320  178.3970  138.3480 C   0  0  2  0  0  3  0  0  0  0  0  0
  181.0590  176.9490  136.6260 C   0  0  0  0  0  2  0  0  0  0  0  0
  181.3430  179.6870  137.1370 O   0  0  0  0  0  0  0  0  0  0  0  0
  183.5670  179.3590  139.3990 C   0  0  0  0  0  2  0  0  0  0  0  0
  183.4660  177.0080  138.3460 C   0  0  2  0  0  3  0  0  0  0  0  0
  179.7320  180.4130  142.8560 C   0  0  0  0  0  2  0  0  0  0  0  0
  182.4710  177.1230  136.0830 C   0  0  2  0  0  3  0  0  0  0  0  0
  180.9210  178.1940  142.6010 C   0  0  0  0  0  2  0  0  0  0  0  0
  180.1150  179.6610  139.1270 N   0  0  0  0  0  2  0  0  0  0  0  0
  178.9390  180.5010  141.5580 C   0  0  0  0  0  2  0  0  0  0  0  0
  180.7900  177.7350  141.1520 C   0  0  0  0  0  2  0  0  0  0  0  0
  179.5880  176.9040  138.5440 C   0  0  0  0  0  1  0  0  0  0  0  0
  180.7930  179.0080  138.0470 C   0  0  0  0  0  0  0  0  0  0  0  0
  180.9040  177.4960  138.0570 C   0  0  1  0  0  0  0  0  0  0  0  0
  182.5440  176.7740  134.6080 C   0  0  0  0  0  1  0  0  0  0  0  0
  180.1180  181.0570  139.4550 C   0  0  0  0  0  0  0  0  0  0  0  0
  179.5680  181.4620  140.5970 C   0  0  0  0  0  3  0  0  0  0  0  0
  183.4940  176.3690  136.9480 C   0  0  2  0  0  3  0  0  0  0  0  0
  184.2590  174.2860  137.8210 C   0  0  0  0  0  1  0  0  0  0  0  0
  183.3350  174.3960  135.7890 O   0  0  0  0  0  1  0  0  0  0  0  0
  183.2140  174.9230  137.0300 N   0  0  0  0  0  0  0  0  0  0  0  0
  185.6480  178.2780  138.4620 C   0  0  0  0  0  2  0  0  0  0  0  0
  186.0870  178.7050  139.7180 O   0  0  0  0  0  0  0  0  0  0  0  0
  187.4000  178.3800  139.7510 N   0  0  0  0  0  2  0  0  0  0  0  0
  187.8610  178.6360  141.1040 C   0  0  0  0  0  1  0  0  0  0  0  0
  1  5  1  6  0  0  0
  1 16  1  0  0  0  0
  2 11  1  0  0  0  0
  3 21  1  0  0  0  0
  4  1  1  0  0  0  0
  6 27  1  0  0  0  0
  6  9  1  0  0  0  0
  7 19  1  0  0  0  0
  8 18  2  0  0  0  0
  9  5  1  0  0  0  0
 10  6  1  0  0  0  0
 10  4  1  0  0  0  0
 12  7  1  0  0  0  0
 12 23  1  0  0  0  0
 13  2  1  0  0  0  0
 14 21  1  0  0  0  0
 15 11  1  0  0  0  0
 16 13  1  0  0  0  0
 18 19  1  0  0  0  0
 18 14  1  0  0  0  0
 19 17  1  0  0  0  0
 19  4  1  0  0  0  0
 20 12  1  0  0  0  0
 21 22  2  0  0  0  0
 22 15  1  0  0  0  0
 23 26  1  0  0  0  0
 23 10  1  0  0  0  0
 25 26  1  0  0  0  0
 26 24  1  0  0  0  0
 27 28  1  0  0  0  0
 28 29  1  0  0  0  0
 29 30  1  0  0  0  0
M  END
>  <MODEL>
1

>  <REMARK>
 VINA RESULT:      -5.0      0.000      0.000
  Name = 
  4 active torsions:
  status: ('A' for Active; 'I' for Inactive)
    1  A    between atoms: C_6  and  C_8
    2  A    between atoms: C_6  and  O_21
    3  A    between atoms: N_9  and  O_21
    4  A    between atoms: N_27  and  C_30
                            x       y       z     vdW  Elec       q    Type
                         _______ _______ _______ _____ _____    ______ ____

>  <TORSDO>
F 4

$$$$
=
 OpenBabel10262422033D

 30 32  0  0  1  0  0  0  0  0999 V2000
  182.1190  177.2470  137.4420 C   0  0  1  0  0  3  0  0  0  0  0  0
  182.5490  174.0380  136.7850 C   0  0  0  0  0  2  0  0  0  0  0  0
  179.7170  174.0160  140.6070 C   0  0  0  0  0  1  0  0  0  0  0  0
  181.1900  178.3600  138.0130 C   0  0  2  0  0  3  0  0  0  0  0  0
  183.0410  176.5740  138.4770 C   0  0  0  0  0  2  0  0  0  0  0  0
  182.4020  178.2200  140.2970 C   0  0  2  0  0  3  0  0  0  0  0  0
  178.9660  179.1990  138.9780 C   0  0  0  0  0  2  0  0  0  0  0  0
  179.4070  176.8330  140.4070 O   0  0  0  0  0  0  0  0  0  0  0  0
  182.5560  176.7440  139.9120 C   0  0  0  0  0  2  0  0  0  0  0  0
  181.9190  179.1210  139.1450 C   0  0  2  0  0  3  0  0  0  0  0  0
  181.5630  172.9360  136.4080 C   0  0  0  0  0  2  0  0  0  0  0  0
  179.7540  179.7930  140.1370 C   0  0  2  0  0  3  0  0  0  0  0  0
  182.4300  175.2500  135.8670 C   0  0  0  0  0  2  0  0  0  0  0  0
  179.6360  175.4790  138.5150 N   0  0  0  0  0  2  0  0  0  0  0  0
  180.1430  173.2290  136.8790 C   0  0  0  0  0  2  0  0  0  0  0  0
  181.4650  176.2800  136.4460 C   0  0  0  0  0  2  0  0  0  0  0  0
  178.9590  177.8140  136.9960 C   0  0  0  0  0  1  0  0  0  0  0  0
  179.5430  176.7570  139.1560 C   0  0  0  0  0  0  0  0  0  0  0  0
  179.6900  178.0120  138.3170 C   0  0  1  0  0  0  0  0  0  0  0  0
  178.9310  180.8150  140.9000 C   0  0  0  0  0  1  0  0  0  0  0  0
  179.7880  174.1930  139.1300 C   0  0  0  0  0  0  0  0  0  0  0  0
  180.0290  173.1280  138.3690 C   0  0  0  0  0  3  0  0  0  0  0  0
  181.1170  180.3250  139.6650 C   0  0  2  0  0  3  0  0  0  0  0  0
  182.3030  181.9610  138.3990 C   0  0  0  0  0  1  0  0  0  0  0  0
  180.2210  182.3610  139.1070 O   0  0  0  0  0  1  0  0  0  0  0  0
  180.9940  181.3610  138.6220 N   0  0  0  0  0  0  0  0  0  0  0  0
  183.6800  178.7670  140.9220 C   0  0  0  0  0  2  0  0  0  0  0  0
  184.4120  179.5080  139.9890 O   0  0  0  0  0  0  0  0  0  0  0  0
  185.6450  178.9490  139.9990 N   0  0  0  0  0  2  0  0  0  0  0  0
  186.0870  178.9370  141.3820 C   0  0  0  0  0  1  0  0  0  0  0  0
  1 16  1  1  0  0  0
  1  4  1  0  0  0  0
  1  5  1  0  0  0  0
  4 19  1  0  0  0  0
  4 10  1  0  0  0  0
  5  9  1  0  0  0  0
  6 27  1  0  0  0  0
  7 12  1  0  0  0  0
  9  6  1  0  0  0  0
 10 23  1  0  0  0  0
 10  6  1  0  0  0  0
 11  2  1  0  0  0  0
 11 15  1  0  0  0  0
 12 20  1  0  0  0  0
 13 16  1  0  0  0  0
 13  2  1  0  0  0  0
 14 21  1  0  0  0  0
 14 18  1  0  0  0  0
 15 22  1  0  0  0  0
 17 19  1  0  0  0  0
 18  8  2  0  0  0  0
 19  7  1  0  0  0  0
 19 18  1  0  0  0  0
 21  3  1  0  0  0  0
 22 21  2  0  0  0  0
 23 12  1  0  0  0  0
 24 26  1  0  0  0  0
 26 25  1  0  0  0  0
 26 23  1  0  0  0  0
 28 29  1  0  0  0  0
 28 27  1  0  0  0  0
 29 30  1  0  0  0  0
M  END
>  <MODEL>
2

>  <REMARK>
 VINA RESULT:      -4.9      2.287      5.709
  Name = 
  4 active torsions:
  status: ('A' for Active; 'I' for Inactive)
    1  A    between atoms: C_6  and  C_8
    2  A    between atoms: C_6  and  O_21
    3  A    between atoms: N_9  and  O_21
    4  A    between atoms: N_27  and  C_30
                            x       y       z     vdW  Elec       q    Type
                         _______ _______ _______ _____ _____    ______ ____

>  <TORSDO>
F 4

$$$$
=
 OpenBabel10262422033D

 30 32  0  0  1  0  0  0  0  0999 V2000
  182.9120  176.5130  138.8930 C   0  0  1  0  0  3  0  0  0  0  0  0
  181.7510  179.4180  139.9540 C   0  0  0  0  0  2  0  0  0  0  0  0
  179.2950  178.6360  135.9560 C   0  0  0  0  0  1  0  0  0  0  0  0
  182.6340  175.1850  138.1260 C   0  0  2  0  0  3  0  0  0  0  0  0
  183.4130  177.6780  138.0180 C   0  0  0  0  0  2  0  0  0  0  0  0
  183.6570  176.1970  135.9740 C   0  0  2  0  0  3  0  0  0  0  0  0
  181.0910  173.5410  136.9030 C   0  0  0  0  0  2  0  0  0  0  0  0
  180.3650  176.0090  135.7980 O   0  0  0  0  0  0  0  0  0  0  0  0
  183.0840  177.5020  136.5400 C   0  0  0  0  0  2  0  0  0  0  0  0
  183.6510  175.0240  136.9720 C   0  0  2  0  0  3  0  0  0  0  0  0
  180.3540  179.8610  140.3810 C   0  0  0  0  0  2  0  0  0  0  0  0
  182.0800  173.5570  135.7450 C   0  0  2  0  0  3  0  0  0  0  0  0
  182.2150  178.1780  140.7110 C   0  0  0  0  0  2  0  0  0  0  0  0
  179.8990  177.0310  137.8490 N   0  0  0  0  0  2  0  0  0  0  0  0
  179.2520  179.0020  139.7720 C   0  0  0  0  0  2  0  0  0  0  0  0
  181.8650  176.9070  139.9430 C   0  0  0  0  0  2  0  0  0  0  0  0
  180.4020  174.4670  139.0270 C   0  0  0  0  0  1  0  0  0  0  0  0
  180.4350  175.9650  137.0570 C   0  0  0  0  0  0  0  0  0  0  0  0
  181.1530  174.8240  137.7510 C   0  0  1  0  0  0  0  0  0  0  0  0
  181.8530  172.3860  134.8070 C   0  0  0  0  0  1  0  0  0  0  0  0
  179.4250  178.3090  137.4030 C   0  0  0  0  0  0  0  0  0  0  0  0
  179.1200  179.2440  138.3000 C   0  0  0  0  0  3  0  0  0  0  0  0
  183.5270  173.6710  136.2540 C   0  0  2  0  0  3  0  0  0  0  0  0
  185.1550  172.9020  137.8170 C   0  0  0  0  0  1  0  0  0  0  0  0
  184.1780  171.4770  136.3990 O   0  0  0  0  0  1  0  0  0  0  0  0
  183.9020  172.5650  137.1550 N   0  0  0  0  0  0  0  0  0  0  0  0
  185.0490  176.4110  135.3880 C   0  0  0  0  0  2  0  0  0  0  0  0
  186.0350  176.1660  136.3490 O   0  0  0  0  0  0  0  0  0  0  0  0
  186.8080  177.2780  136.3370 N   0  0  0  0  0  2  0  0  0  0  0  0
  187.1110  177.5910  137.7220 C   0  0  0  0  0  1  0  0  0  0  0  0
  1  5  1  6  0  0  0
  1 16  1  0  0  0  0
  2 11  1  0  0  0  0
  2 13  1  0  0  0  0
  3 21  1  0  0  0  0
  4  1  1  0  0  0  0
  6  9  1  0  0  0  0
  6 10  1  0  0  0  0
  7 19  1  0  0  0  0
  8 18  2  0  0  0  0
  9  5  1  0  0  0  0
 10  4  1  0  0  0  0
 12 23  1  0  0  0  0
 12  7  1  0  0  0  0
 15 11  1  0  0  0  0
 16 13  1  0  0  0  0
 18 19  1  0  0  0  0
 18 14  1  0  0  0  0
 19  4  1  0  0  0  0
 19 17  1  0  0  0  0
 20 12  1  0  0  0  0
 21 14  1  0  0  0  0
 21 22  2  0  0  0  0
 22 15  1  0  0  0  0
 23 10  1  0  0  0  0
 23 26  1  0  0  0  0
 25 26  1  0  0  0  0
 26 24  1  0  0  0  0
 27  6  1  0  0  0  0
 27 28  1  0  0  0  0
 29 28  1  0  0  0  0
 29 30  1  0  0  0  0
M  END
>  <MODEL>
3

>  <REMARK>
 VINA RESULT:      -4.5      2.307      3.133
  Name = 
  4 active torsions:
  status: ('A' for Active; 'I' for Inactive)
    1  A    between atoms: C_6  and  C_8
    2  A    between atoms: C_6  and  O_21
    3  A    between atoms: N_9  and  O_21
    4  A    between atoms: N_27  and  C_30
                            x       y       z     vdW  Elec       q    Type
                         _______ _______ _______ _____ _____    ______ ____

>  <TORSDO>
F 4

$$$$
=
 OpenBabel10262422033D

 30 32  0  0  1  0  0  0  0  0999 V2000
  183.3730  176.5180  137.9260 C   0  0  1  0  0  3  0  0  0  0  0  0
  184.2260  173.3480  137.5560 C   0  0  0  0  0  2  0  0  0  0  0  0
  179.6630  173.4320  136.2120 C   0  0  0  0  0  1  0  0  0  0  0  0
  182.4860  177.7070  137.4480 C   0  0  2  0  0  3  0  0  0  0  0  0
  182.7390  175.6290  139.0130 C   0  0  0  0  0  2  0  0  0  0  0  0
  180.7660  177.1930  139.3130 C   0  0  2  0  0  3  0  0  0  0  0  0
  180.7900  178.7880  135.8550 C   0  0  0  0  0  2  0  0  0  0  0  0
  179.6660  176.2700  136.3390 O   0  0  0  0  0  0  0  0  0  0  0  0
  181.2200  175.7490  139.0750 C   0  0  0  0  0  2  0  0  0  0  0  0
  181.6550  178.2510  138.6330 C   0  0  2  0  0  3  0  0  0  0  0  0
  184.2690  172.4430  136.3280 C   0  0  0  0  0  2  0  0  0  0  0  0
  179.9590  179.1560  137.0760 C   0  0  2  0  0  3  0  0  0  0  0  0
  185.0120  174.6370  137.3450 C   0  0  0  0  0  2  0  0  0  0  0  0
  181.5570  175.0620  135.6840 N   0  0  0  0  0  2  0  0  0  0  0  0
  183.3290  172.9070  135.2210 C   0  0  0  0  0  2  0  0  0  0  0  0
  184.1080  175.7490  136.8210 C   0  0  0  0  0  2  0  0  0  0  0  0
  182.6850  177.5920  134.9470 C   0  0  0  0  0  1  0  0  0  0  0  0
  180.8900  176.2800  136.0320 C   0  0  0  0  0  0  0  0  0  0  0  0
  181.6930  177.5650  136.1010 C   0  0  1  0  0  0  0  0  0  0  0  0
  178.9310  180.2220  136.7440 C   0  0  0  0  0  1  0  0  0  0  0  0
  181.0690  173.7200  135.8120 C   0  0  0  0  0  0  0  0  0  0  0  0
  181.8950  172.6990  135.5970 C   0  0  0  0  0  3  0  0  0  0  0  0
  180.8570  179.5140  138.2710 C   0  0  2  0  0  3  0  0  0  0  0  0
  182.9790  180.4790  138.7730 C   0  0  0  0  0  1  0  0  0  0  0  0
  181.1890  181.7760  138.4440 O   0  0  0  0  0  1  0  0  0  0  0  0
  181.7650  180.6410  137.9840 N   0  0  0  0  0  0  0  0  0  0  0  0
  180.6050  177.4870  140.8010 C   0  0  0  0  0  2  0  0  0  0  0  0
  181.7060  178.1970  141.2880 O   0  0  0  0  0  0  0  0  0  0  0  0
  181.2450  178.8250  142.3960 N   0  0  0  0  0  2  0  0  0  0  0  0
  180.2070  179.7400  141.9570 C   0  0  0  0  0  1  0  0  0  0  0  0
  1 16  1  6  0  0  0
  1  5  1  0  0  0  0
  4  1  1  0  0  0  0
  4 10  1  0  0  0  0
  5  9  1  0  0  0  0
  6 27  1  0  0  0  0
  7 19  1  0  0  0  0
  7 12  1  0  0  0  0
  9  6  1  0  0  0  0
 10  6  1  0  0  0  0
 11  2  1  0  0  0  0
 12 23  1  0  0  0  0
 13  2  1  0  0  0  0
 14 21  1  0  0  0  0
 14 18  1  0  0  0  0
 15 22  1  0  0  0  0
 15 11  1  0  0  0  0
 16 13  1  0  0  0  0
 17 19  1  0  0  0  0
 18 19  1  0  0  0  0
 18  8  2  0  0  0  0
 19  4  1  0  0  0  0
 20 12  1  0  0  0  0
 21  3  1  0  0  0  0
 22 21  2  0  0  0  0
 23 10  1  0  0  0  0
 26 23  1  0  0  0  0
 26 25  1  0  0  0  0
 26 24  1  0  0  0  0
 27 28  1  0  0  0  0
 28 29  1  0  0  0  0
 30 29  1  0  0  0  0
M  END
>  <MODEL>
4

>  <REMARK>
 VINA RESULT:      -4.5      2.491      6.281
  Name = 
  4 active torsions:
  status: ('A' for Active; 'I' for Inactive)
    1  A    between atoms: C_6  and  C_8
    2  A    between atoms: C_6  and  O_21
    3  A    between atoms: N_9  and  O_21
    4  A    between atoms: N_27  and  C_30
                            x       y       z     vdW  Elec       q    Type
                         _______ _______ _______ _____ _____    ______ ____

>  <TORSDO>
F 4

$$$$
=
 OpenBabel10262422033D

 30 32  0  0  1  0  0  0  0  0999 V2000
  184.4470  177.8120  136.2670 C   0  0  1  0  0  3  0  0  0  0  0  0
  187.2810  176.3120  135.4730 C   0  0  0  0  0  2  0  0  0  0  0  0
  184.9400  173.0080  137.9700 C   0  0  0  0  0  1  0  0  0  0  0  0
  182.9260  177.6730  136.5740 C   0  0  2  0  0  3  0  0  0  0  0  0
  185.3750  177.6680  137.4890 C   0  0  0  0  0  2  0  0  0  0  0  0
  183.4280  177.6330  139.1140 C   0  0  2  0  0  3  0  0  0  0  0  0
  180.7490  176.3270  136.7430 C   0  0  0  0  0  2  0  0  0  0  0  0
  182.6150  174.6420  137.9730 O   0  0  0  0  0  0  0  0  0  0  0  0
  184.7170  176.9410  138.6570 C   0  0  0  0  0  2  0  0  0  0  0  0
  182.6170  178.2670  137.9680 C   0  0  2  0  0  3  0  0  0  0  0  0
  187.5740  175.0620  134.6470 C   0  0  0  0  0  2  0  0  0  0  0  0
  180.6000  176.8470  138.1660 C   0  0  2  0  0  3  0  0  0  0  0  0
  186.4200  177.3130  134.7110 C   0  0  0  0  0  2  0  0  0  0  0  0
  184.0930  174.6020  136.1620 N   0  0  0  0  0  2  0  0  0  0  0  0
  186.3930  174.1000  134.5940 C   0  0  0  0  0  2  0  0  0  0  0  0
  184.9400  177.0940  135.0030 C   0  0  0  0  0  2  0  0  0  0  0  0
  182.1190  176.1350  134.7600 C   0  0  0  0  0  1  0  0  0  0  0  0
  182.9550  175.1230  136.8580 C   0  0  0  0  0  0  0  0  0  0  0  0
  182.2140  176.3080  136.2700 C   0  0  1  0  0  0  0  0  0  0  0  0
  179.1850  176.6560  138.6800 C   0  0  0  0  0  1  0  0  0  0  0  0
  185.0800  173.6820  136.6490 C   0  0  0  0  0  0  0  0  0  0  0  0
  186.1660  173.4400  135.9190 C   0  0  0  0  0  3  0  0  0  0  0  0
  181.1130  178.2920  138.2850 C   0  0  2  0  0  3  0  0  0  0  0  0
  181.1820  180.4500  137.2750 C   0  0  0  0  0  1  0  0  0  0  0  0
  179.2450  179.5870  137.9820 O   0  0  0  0  0  1  0  0  0  0  0  0
  180.4050  179.2230  137.3870 N   0  0  0  0  0  0  0  0  0  0  0  0
  183.7040  178.6480  140.2180 C   0  0  0  0  0  2  0  0  0  0  0  0
  184.8490  179.3960  139.9290 O   0  0  0  0  0  0  0  0  0  0  0  0
  185.5620  179.3890  141.0800 N   0  0  0  0  0  2  0  0  0  0  0  0
  184.6650  178.9260  142.1240 C   0  0  0  0  0  1  0  0  0  0  0  0
  1 16  1  6  0  0  0
  1  4  1  0  0  0  0
  1  5  1  0  0  0  0
  4 10  1  0  0  0  0
  5  9  1  0  0  0  0
  6 27  1  0  0  0  0
  7 12  1  0  0  0  0
  9  6  1  0  0  0  0
 10 23  1  0  0  0  0
 10  6  1  0  0  0  0
 11  2  1  0  0  0  0
 12 23  1  0  0  0  0
 12 20  1  0  0  0  0
 13 16  1  0  0  0  0
 13  2  1  0  0  0  0
 14 21  1  0  0  0  0
 14 18  1  0  0  0  0
 15 11  1  0  0  0  0
 15 22  1  0  0  0  0
 17 19  1  0  0  0  0
 18  8  2  0  0  0  0
 19  4  1  0  0  0  0
 19  7  1  0  0  0  0
 19 18  1  0  0  0  0
 21  3  1  0  0  0  0
 22 21  2  0  0  0  0
 24 26  1  0  0  0  0
 26 25  1  0  0  0  0
 26 23  1  0  0  0  0
 28 27  1  0  0  0  0
 28 29  1  0  0  0  0
 29 30  1  0  0  0  0
M  END
>  <MODEL>
5

>  <REMARK>
 VINA RESULT:      -3.9      2.319      6.458
  Name = 
  4 active torsions:
  status: ('A' for Active; 'I' for Inactive)
    1  A    between atoms: C_6  and  C_8
    2  A    between atoms: C_6  and  O_21
    3  A    between atoms: N_9  and  O_21
    4  A    between atoms: N_27  and  C_30
                            x       y       z     vdW  Elec       q    Type
                         _______ _______ _______ _____ _____    ______ ____

>  <TORSDO>
F 4

$$$$
=
 OpenBabel10262422033D

 30 32  0  0  1  0  0  0  0  0999 V2000
  184.4360  178.1340  137.5530 C   0  0  1  0  0  3  0  0  0  0  0  0
  187.4750  177.0690  138.2860 C   0  0  0  0  0  2  0  0  0  0  0  0
  184.9430  173.0560  137.9630 C   0  0  0  0  0  1  0  0  0  0  0  0
  183.0800  177.8540  136.8370 C   0  0  2  0  0  3  0  0  0  0  0  0
  184.5240  177.6240  139.0050 C   0  0  0  0  0  2  0  0  0  0  0  0
  182.0680  176.9940  139.0600 C   0  0  2  0  0  3  0  0  0  0  0  0
  181.5470  176.4600  135.3250 C   0  0  0  0  0  2  0  0  0  0  0  0
  182.7230  174.5230  136.9690 O   0  0  0  0  0  0  0  0  0  0  0  0
  183.5070  176.5320  139.3180 C   0  0  0  0  0  2  0  0  0  0  0  0
  181.9210  177.9450  137.8570 C   0  0  2  0  0  3  0  0  0  0  0  0
  188.4500  176.1720  137.5270 C   0  0  0  0  0  2  0  0  0  0  0  0
  180.5160  176.4760  136.4450 C   0  0  2  0  0  3  0  0  0  0  0  0
  186.9920  178.2390  137.4350 C   0  0  0  0  0  2  0  0  0  0  0  0
  184.9250  175.1290  136.4720 N   0  0  0  0  0  0  0  0  0  0  0  0
  187.7500  175.2450  136.5400 C   0  0  0  0  0  2  0  0  0  0  0  0
  185.6950  177.8890  136.7120 C   0  0  0  0  0  2  0  0  0  0  0  0
  183.7930  176.9760  134.5950 C   0  0  0  0  0  1  0  0  0  0  0  0
  183.5110  175.3550  136.4430 C   0  0  0  0  0  0  0  0  0  0  0  0
  182.9860  176.6440  135.8420 C   0  0  1  0  0  0  0  0  0  0  0  0
  179.1410  176.0820  135.9370 C   0  0  0  0  0  1  0  0  0  0  0  0
  185.6440  174.1310  137.2090 C   0  0  0  0  0  0  0  0  0  0  0  0
  186.9740  174.1770  137.2480 C   0  0  0  0  0  2  0  0  0  0  0  0
  180.5380  177.8160  137.1990 C   0  0  2  0  0  3  0  0  0  0  0  0
  180.6340  180.1920  137.0210 C   0  0  0  0  0  1  0  0  0  0  0  0
  178.9310  179.0530  136.1280 O   0  0  0  0  0  1  0  0  0  0  0  0
  180.2680  178.9690  136.3190 N   0  0  0  0  0  0  0  0  0  0  0  0
  181.4440  177.5960  140.3140 C   0  0  0  0  0  2  0  0  0  0  0  0
  181.6850  178.9710  140.3770 O   0  0  0  0  0  0  0  0  0  0  0  0
  180.6820  179.4600  141.1440 N   0  0  0  0  0  2  0  0  0  0  0  0
  180.9800  179.0820  142.5130 C   0  0  0  0  0  1  0  0  0  0  0  0
  1 16  1  6  0  0  0
  1  5  1  0  0  0  0
  4  1  1  0  0  0  0
  4 10  1  0  0  0  0
  5  9  1  0  0  0  0
  6  9  1  0  0  0  0
  6 27  1  0  0  0  0
  7 19  1  0  0  0  0
  7 12  1  0  0  0  0
 10  6  1  0  0  0  0
 11  2  1  0  0  0  0
 12 23  1  0  0  0  0
 13  2  1  0  0  0  0
 14 21  2  0  0  0  0
 15 22  1  0  0  0  0
 15 11  1  0  0  0  0
 16 13  1  0  0  0  0
 17 19  1  0  0  0  0
 18 14  1  0  0  0  0
 18  8  2  0  0  0  0
 19 18  1  0  0  0  0
 19  4  1  0  0  0  0
 20 12  1  0  0  0  0
 21 22  1  0  0  0  0
 21  3  1  0  0  0  0
 23 10  1  0  0  0  0
 25 26  1  0  0  0  0
 26 24  1  0  0  0  0
 26 23  1  0  0  0  0
 27 28  1  0  0  0  0
 28 29  1  0  0  0  0
 29 30  1  0  0  0  0
M  END
>  <MODEL>
6

>  <REMARK>
 VINA RESULT:      -3.7      2.138      6.339
  Name = 
  4 active torsions:
  status: ('A' for Active; 'I' for Inactive)
    1  A    between atoms: C_6  and  C_8
    2  A    between atoms: C_6  and  O_21
    3  A    between atoms: N_9  and  O_21
    4  A    between atoms: N_27  and  C_30
                            x       y       z     vdW  Elec       q    Type
                         _______ _______ _______ _____ _____    ______ ____

>  <TORSDO>
F 4

$$$$
=
 OpenBabel10262422033D

 30 32  0  0  1  0  0  0  0  0999 V2000
  183.0240  176.0900  138.1430 C   0  0  1  0  0  3  0  0  0  0  0  0
  183.6630  179.2490  138.8690 C   0  0  0  0  0  2  0  0  0  0  0  0
  180.8610  179.5370  135.0350 C   0  0  0  0  0  1  0  0  0  0  0  0
  182.0270  175.0530  137.5450 C   0  0  2  0  0  3  0  0  0  0  0  0
  183.9960  176.7210  137.1270 C   0  0  0  0  0  2  0  0  0  0  0  0
  183.2590  175.1590  135.2700 C   0  0  2  0  0  3  0  0  0  0  0  0
  179.7580  174.3830  136.5530 C   0  0  0  0  0  2  0  0  0  0  0  0
  180.3640  176.7440  135.1750 O   0  0  0  0  0  0  0  0  0  0  0  0
  183.5090  176.6130  135.6860 C   0  0  0  0  0  2  0  0  0  0  0  0
  182.7110  174.2680  136.4010 C   0  0  2  0  0  3  0  0  0  0  0  0
  182.7500  180.4070  139.2640 C   0  0  0  0  0  2  0  0  0  0  0  0
  180.5120  173.7620  135.3860 C   0  0  2  0  0  3  0  0  0  0  0  0
  183.4580  178.0290  139.7610 C   0  0  0  0  0  2  0  0  0  0  0  0
  180.6700  178.0400  137.0960 N   0  0  0  0  0  2  0  0  0  0  0  0
  181.3160  180.2180  138.7810 C   0  0  0  0  0  2  0  0  0  0  0  0
  182.4300  177.0780  139.1560 C   0  0  0  0  0  2  0  0  0  0  0  0
  179.8320  175.7250  138.5630 C   0  0  0  0  0  1  0  0  0  0  0  0
  180.4980  176.7850  136.4280 C   0  0  0  0  0  0  0  0  0  0  0  0
  180.5550  175.5060  137.2420 C   0  0  1  0  0  0  0  0  0  0  0  0
  179.6270  172.8130  134.5970 C   0  0  0  0  0  1  0  0  0  0  0  0
  180.9120  179.3260  136.5090 C   0  0  0  0  0  0  0  0  0  0  0  0
  181.2180  180.3570  137.2930 C   0  0  0  0  0  3  0  0  0  0  0  0
  181.8350  173.1310  135.8520 C   0  0  2  0  0  3  0  0  0  0  0  0
  182.9330  171.5150  137.2190 C   0  0  0  0  0  1  0  0  0  0  0  0
  180.9390  171.0700  136.3100 O   0  0  0  0  0  1  0  0  0  0  0  0
  181.6370  172.0850  136.8730 N   0  0  0  0  0  0  0  0  0  0  0  0
  184.5030  174.5400  134.6400 C   0  0  0  0  0  2  0  0  0  0  0  0
  185.3400  173.9990  135.6200 O   0  0  0  0  0  0  0  0  0  0  0  0
  186.5610  174.5160  135.3490 N   0  0  0  0  0  2  0  0  0  0  0  0
  187.5220  173.7380  136.1120 C   0  0  0  0  0  1  0  0  0  0  0  0
  1  5  1  6  0  0  0
  1 16  1  0  0  0  0
  2 11  1  0  0  0  0
  2 13  1  0  0  0  0
  3 21  1  0  0  0  0
  4  1  1  0  0  0  0
  6  9  1  0  0  0  0
  6 10  1  0  0  0  0
  7 19  1  0  0  0  0
  8 18  2  0  0  0  0
  9  5  1  0  0  0  0
 10  4  1  0  0  0  0
 12 23  1  0  0  0  0
 12  7  1  0  0  0  0
 15 11  1  0  0  0  0
 16 13  1  0  0  0  0
 18 14  1  0  0  0  0
 18 19  1  0  0  0  0
 19  4  1  0  0  0  0
 19 17  1  0  0  0  0
 20 12  1  0  0  0  0
 21 14  1  0  0  0  0
 21 22  2  0  0  0  0
 22 15  1  0  0  0  0
 23 10  1  0  0  0  0
 23 26  1  0  0  0  0
 25 26  1  0  0  0  0
 26 24  1  0  0  0  0
 27  6  1  0  0  0  0
 27 28  1  0  0  0  0
 29 28  1  0  0  0  0
 29 30  1  0  0  0  0
M  END
>  <MODEL>
7

>  <REMARK>
 VINA RESULT:      -3.7      2.839      4.071
  Name = 
  4 active torsions:
  status: ('A' for Active; 'I' for Inactive)
    1  A    between atoms: C_6  and  C_8
    2  A    between atoms: C_6  and  O_21
    3  A    between atoms: N_9  and  O_21
    4  A    between atoms: N_27  and  C_30
                            x       y       z     vdW  Elec       q    Type
                         _______ _______ _______ _____ _____    ______ ____

>  <TORSDO>
F 4

$$$$
=
 OpenBabel10262422033D

 30 32  0  0  1  0  0  0  0  0999 V2000
  181.6830  178.9730  137.3260 C   0  0  1  0  0  3  0  0  0  0  0  0
  179.5550  180.8110  139.0610 C   0  0  0  0  0  2  0  0  0  0  0  0
  178.9300  176.4370  140.8210 C   0  0  0  0  0  1  0  0  0  0  0  0
  182.6200  177.7290  137.2890 C   0  0  2  0  0  3  0  0  0  0  0  0
  180.2240  178.7020  136.9070 C   0  0  0  0  0  2  0  0  0  0  0  0
  180.7500  176.3340  136.1680 C   0  0  2  0  0  3  0  0  0  0  0  0
  183.7900  175.7230  138.3790 C   0  0  0  0  0  2  0  0  0  0  0  0
  181.1680  175.5080  139.3380 O   0  0  0  0  0  0  0  0  0  0  0  0
  179.8350  177.2310  137.0090 C   0  0  0  0  0  2  0  0  0  0  0  0
  182.2160  176.8030  136.1180 C   0  0  2  0  0  3  0  0  0  0  0  0
  179.4520  181.1120  140.5540 C   0  0  0  0  0  2  0  0  0  0  0  0
  183.2250  174.8550  137.2630 C   0  0  2  0  0  3  0  0  0  0  0  0
  180.9430  181.1220  138.5090 C   0  0  0  0  0  2  0  0  0  0  0  0
  181.0850  177.6700  140.2220 N   0  0  0  0  0  2  0  0  0  0  0  0
  180.1040  180.0380  141.4170 C   0  0  0  0  0  2  0  0  0  0  0  0
  181.8360  179.8860  138.5500 C   0  0  0  0  0  2  0  0  0  0  0  0
  183.8460  177.8770  139.4770 C   0  0  0  0  0  1  0  0  0  0  0  0
  181.6980  176.6490  139.4260 C   0  0  0  0  0  0  0  0  0  0  0  0
  182.9450  176.9850  138.6320 C   0  0  1  0  0  0  0  0  0  0  0  0
  183.9470  173.5230  137.1780 C   0  0  0  0  0  1  0  0  0  0  0  0
  179.7870  177.6550  140.8300 C   0  0  0  0  0  0  0  0  0  0  0  0
  179.3150  178.7650  141.3940 C   0  0  0  0  0  3  0  0  0  0  0  0
  183.1830  175.6230  135.9320 C   0  0  2  0  0  3  0  0  0  0  0  0
  184.3410  177.2200  134.5940 C   0  0  0  0  0  1  0  0  0  0  0  0
  185.0960  175.1240  134.7700 O   0  0  0  0  0  1  0  0  0  0  0  0
  184.5130  176.0980  135.5070 N   0  0  0  0  0  0  0  0  0  0  0  0
  180.1910  176.1330  134.7630 C   0  0  0  0  0  2  0  0  0  0  0  0
  179.3020  175.0550  134.7320 O   0  0  0  0  0  0  0  0  0  0  0  0
  180.0640  173.9740  135.0250 N   0  0  0  0  0  2  0  0  0  0  0  0
  179.1500  172.8900  135.3370 C   0  0  0  0  0  1  0  0  0  0  0  0
  1  5  1  1  0  0  0
  1 16  1  0  0  0  0
  2 11  1  0  0  0  0
  3 21  1  0  0  0  0
  4  1  1  0  0  0  0
  4 19  1  0  0  0  0
  5  9  1  0  0  0  0
  6  9  1  0  0  0  0
  7 19  1  0  0  0  0
  8 18  2  0  0  0  0
 10  6  1  0  0  0  0
 10  4  1  0  0  0  0
 11 15  1  0  0  0  0
 12  7  1  0  0  0  0
 13 16  1  0  0  0  0
 13  2  1  0  0  0  0
 14 21  1  0  0  0  0
 18 14  1  0  0  0  0
 19 18  1  0  0  0  0
 19 17  1  0  0  0  0
 20 12  1  0  0  0  0
 21 22  2  0  0  0  0
 22 15  1  0  0  0  0
 23 10  1  0  0  0  0
 23 12  1  0  0  0  0
 24 26  1  0  0  0  0
 25 26  1  0  0  0  0
 26 23  1  0  0  0  0
 27  6  1  0  0  0  0
 28 27  1  0  0  0  0
 28 29  1  0  0  0  0
 29 30  1  0  0  0  0
M  END
>  <MODEL>
8

>  <REMARK>
 VINA RESULT:      -2.9      2.334      4.879
  Name = 
  4 active torsions:
  status: ('A' for Active; 'I' for Inactive)
    1  A    between atoms: C_6  and  C_8
    2  A    between atoms: C_6  and  O_21
    3  A    between atoms: N_9  and  O_21
    4  A    between atoms: N_27  and  C_30
                            x       y       z     vdW  Elec       q    Type
                         _______ _______ _______ _____ _____    ______ ____

>  <TORSDO>
F 4

$$$$
=
 OpenBabel10262422033D

 30 32  0  0  1  0  0  0  0  0999 V2000
  183.9780  177.8450  136.5610 C   0  0  1  0  0  3  0  0  0  0  0  0
  185.5040  175.0930  135.5560 C   0  0  0  0  0  2  0  0  0  0  0  0
  181.7570  173.4570  137.9860 C   0  0  0  0  0  1  0  0  0  0  0  0
  182.6370  178.5440  136.9340 C   0  0  2  0  0  3  0  0  0  0  0  0
  184.6860  177.1290  137.7280 C   0  0  0  0  0  2  0  0  0  0  0  0
  183.0620  178.0570  139.4410 C   0  0  2  0  0  3  0  0  0  0  0  0
  180.0800  178.6100  137.1360 C   0  0  0  0  0  2  0  0  0  0  0  0
  180.7210  176.0940  138.1860 O   0  0  0  0  0  0  0  0  0  0  0  0
  183.7500  176.8040  138.8870 C   0  0  0  0  0  2  0  0  0  0  0  0
  182.7230  179.1110  138.3700 C   0  0  2  0  0  3  0  0  0  0  0  0
  185.0500  173.9500  134.6520 C   0  0  0  0  0  2  0  0  0  0  0  0
  180.2590  179.0240  138.5900 C   0  0  2  0  0  3  0  0  0  0  0  0
  185.3310  176.4530  134.8890 C   0  0  0  0  0  2  0  0  0  0  0  0
  181.9110  175.3750  136.3070 N   0  0  0  0  0  2  0  0  0  0  0  0
  183.5330  173.8030  134.6060 C   0  0  0  0  0  2  0  0  0  0  0  0
  183.9780  177.0650  135.2400 C   0  0  0  0  0  2  0  0  0  0  0  0
  181.0940  177.8350  135.0830 C   0  0  0  0  0  1  0  0  0  0  0  0
  181.2560  176.3860  137.0820 C   0  0  0  0  0  0  0  0  0  0  0  0
  181.2860  177.8210  136.5930 C   0  0  1  0  0  0  0  0  0  0  0  0
  178.9800  179.6080  139.1610 C   0  0  0  0  0  1  0  0  0  0  0  0
  182.2300  174.0330  136.6970 C   0  0  0  0  0  0  0  0  0  0  0  0
  182.9950  173.2850  135.9040 C   0  0  0  0  0  3  0  0  0  0  0  0
  181.4850  179.9360  138.7600 C   0  0  2  0  0  3  0  0  0  0  0  0
  182.3200  182.1530  138.4890 C   0  0  0  0  0  1  0  0  0  0  0  0
  180.1650  181.6960  138.1120 O   0  0  0  0  0  1  0  0  0  0  0  0
  181.3990  181.1630  137.9470 N   0  0  0  0  0  0  0  0  0  0  0  0
  183.8640  178.6730  140.5820 C   0  0  0  0  0  2  0  0  0  0  0  0
  183.2720  178.3890  141.8150 O   0  0  0  0  0  0  0  0  0  0  0  0
  184.2780  178.5090  142.7140 N   0  0  0  0  0  2  0  0  0  0  0  0
  185.2790  179.3690  142.1080 C   0  0  0  0  0  1  0  0  0  0  0  0
  1 16  1  6  0  0  0
  1  4  1  0  0  0  0
  1  5  1  0  0  0  0
  4 10  1  0  0  0  0
  5  9  1  0  0  0  0
  6 27  1  0  0  0  0
  7 12  1  0  0  0  0
  9  6  1  0  0  0  0
 10 23  1  0  0  0  0
 10  6  1  0  0  0  0
 11  2  1  0  0  0  0
 12 23  1  0  0  0  0
 12 20  1  0  0  0  0
 13 16  1  0  0  0  0
 13  2  1  0  0  0  0
 14 21  1  0  0  0  0
 14 18  1  0  0  0  0
 15 11  1  0  0  0  0
 15 22  1  0  0  0  0
 17 19  1  0  0  0  0
 18  8  2  0  0  0  0
 19  4  1  0  0  0  0
 19 18  1  0  0  0  0
 19  7  1  0  0  0  0
 21  3  1  0  0  0  0
 22 21  2  0  0  0  0
 26 25  1  0  0  0  0
 26 24  1  0  0  0  0
 26 23  1  0  0  0  0
 27 28  1  0  0  0  0
 28 29  1  0  0  0  0
 30 29  1  0  0  0  0
M  END
>  <MODEL>
9

>  <REMARK>
 VINA RESULT:      -2.7      2.379      6.154
  Name = 
  4 active torsions:
  status: ('A' for Active; 'I' for Inactive)
    1  A    between atoms: C_6  and  C_8
    2  A    between atoms: C_6  and  O_21
    3  A    between atoms: N_9  and  O_21
    4  A    between atoms: N_27  and  C_30
                            x       y       z     vdW  Elec       q    Type
                         _______ _______ _______ _____ _____    ______ ____

>  <TORSDO>
F 4

$$$$
