=
 OpenBabel10252415053D

 34 38  0  0  1  0  0  0  0  0999 V2000
  185.4320  178.3930  144.8910 C   0  0  0  0  0  0  0  0  0  0  0  0
  184.3340  178.7970  142.6380 C   0  0  0  0  0  2  0  0  0  0  0  0
  186.8340  178.3480  142.8910 C   0  0  0  0  0  0  0  0  0  0  0  0
  188.5210  178.3350  140.9560 C   0  0  2  0  0  3  0  0  0  0  0  0
  183.0220  178.8030  144.8700 C   0  0  0  0  0  3  0  0  0  0  0  0
  181.9840  179.1690  142.7900 O   0  0  0  0  0  0  0  0  0  0  0  0
  186.1810  178.8120  140.6220 O   0  0  0  0  0  0  0  0  0  0  0  0
  185.5550  178.5060  143.4860 C   0  0  0  0  0  0  0  0  0  0  0  0
  184.1310  178.5520  145.5580 C   0  0  0  0  0  3  0  0  0  0  0  0
  187.9490  178.0480  143.7030 C   0  0  0  0  0  0  0  0  0  0  0  0
  186.5510  178.1360  145.6800 C   0  0  0  0  0  3  0  0  0  0  0  0
  183.0530  178.9340  143.4100 C   0  0  0  0  0  0  0  0  0  0  0  0
  189.1850  177.3800  141.7490 O   0  0  0  0  0  0  0  0  0  0  0  0
  189.3130  177.9200  143.0450 C   0  0  2  0  0  3  0  0  0  0  0  0
  187.0940  178.4920  141.4310 C   0  0  0  0  0  0  0  0  0  0  0  0
  187.8020  177.9720  145.0930 C   0  0  0  0  0  3  0  0  0  0  0  0
  191.4780  176.6670  145.8810 C   0  0  0  0  0  0  0  0  0  0  0  0
  192.0210  175.5140  145.3100 C   0  0  0  0  0  3  0  0  0  0  0  0
  190.2690  177.0830  143.8380 C   0  0  0  0  0  0  0  0  0  0  0  0
  191.6690  175.1700  144.0030 C   0  0  0  0  0  3  0  0  0  0  0  0
  190.5950  177.4580  145.1440 C   0  0  0  0  0  3  0  0  0  0  0  0
  190.8080  175.9540  143.3000 N   0  0  0  0  0  0  0  0  0  0  0  0
  191.8140  177.0240  147.1790 O   0  0  0  0  0  1  0  0  0  0  0  0
  188.5970  177.9020  139.4980 C   0  0  0  0  0  2  0  0  0  0  0  0
  189.0310  179.0140  138.6720 N   0  0  0  0  0  2  0  0  0  0  0  0
  189.1230  178.5110  137.3150 C   0  0  0  0  0  2  0  0  0  0  0  0
  188.7470  177.0350  137.2950 C   0  0  0  0  0  2  0  0  0  0  0  0
  190.9660  175.5330  138.6530 O   0  0  0  0  0  0  0  0  0  0  0  0
  189.8240  176.1670  136.6440 C   0  0  1  0  0  3  0  0  0  0  0  0
  190.3860  175.1520  137.6030 C   0  0  0  0  0  0  0  0  0  0  0  0
  189.7510  173.3250  136.2180 C   0  0  0  0  0  3  0  0  0  0  0  0
  189.2870  174.2400  135.2160 N   0  0  0  0  0  0  0  0  0  0  0  0
  189.3170  175.5290  135.3780 C   0  0  0  0  0  3  0  0  0  0  0  0
  190.2670  173.7530  137.3280 N   0  0  0  0  0  0  0  0  0  0  0  0
  1  9  1  0  0  0  0
  1 11  1  0  0  0  0
  2 12  1  0  0  0  0
  2  8  1  0  0  0  0
  3  8  1  0  0  0  0
  3 10  2  0  0  0  0
  4 24  1  6  0  0  0
  4 15  1  0  0  0  0
  4 13  1  0  0  0  0
  5  9  2  0  0  0  0
  6 12  2  0  0  0  0
  7 15  2  0  0  0  0
  8  1  2  0  0  0  0
 10 16  1  0  0  0  0
 12  5  1  0  0  0  0
 13 14  1  0  0  0  0
 14 10  1  0  0  0  0
 14 19  1  1  0  0  0
 15  3  1  0  0  0  0
 16 11  2  0  0  0  0
 17 23  1  0  0  0  0
 18 17  1  0  0  0  0
 19 21  1  0  0  0  0
 20 18  2  0  0  0  0
 21 17  2  0  0  0  0
 22 19  2  0  0  0  0
 22 20  1  0  0  0  0
 25 24  1  0  0  0  0
 26 25  1  0  0  0  0
 27 26  1  0  0  0  0
 29 27  1  1  0  0  0
 29 30  1  0  0  0  0
 30 28  2  0  0  0  0
 31 34  2  0  0  0  0
 32 33  2  0  0  0  0
 32 31  1  0  0  0  0
 33 29  1  0  0  0  0
 34 30  1  0  0  0  0
M  END
>  <MODEL>
1

>  <REMARK>
 VINA RESULT:     -10.2      0.000      0.000
  Name = 
  6 active torsions:
  status: ('A' for Active; 'I' for Inactive)
    1  A    between atoms: C_3  and  C_13
    2  A    between atoms: C_3  and  C_17
    3  A    between atoms: C_5  and  C_18
    4  A    between atoms: C_12  and  C_28
    5  A    between atoms: C_17  and  N_29
    6  A    between atoms: C_18  and  N_29
                            x       y       z     vdW  Elec       q    Type
                         _______ _______ _______ _____ _____    ______ ____

>  <TORSDO>
F 6

$$$$
=
 OpenBabel10252415053D

 34 38  0  0  1  0  0  0  0  0999 V2000
  185.4820  178.3770  144.9110 C   0  0  0  0  0  0  0  0  0  0  0  0
  184.3860  178.7780  142.6570 C   0  0  0  0  0  2  0  0  0  0  0  0
  186.8830  178.3150  142.9100 C   0  0  0  0  0  0  0  0  0  0  0  0
  188.5690  178.2830  140.9750 C   0  0  2  0  0  3  0  0  0  0  0  0
  183.0740  178.8010  144.8900 C   0  0  0  0  0  3  0  0  0  0  0  0
  182.0380  179.1650  142.8090 O   0  0  0  0  0  0  0  0  0  0  0  0
  186.2320  178.7730  140.6400 O   0  0  0  0  0  0  0  0  0  0  0  0
  185.6050  178.4830  143.5060 C   0  0  0  0  0  0  0  0  0  0  0  0
  184.1830  178.5460  145.5780 C   0  0  0  0  0  3  0  0  0  0  0  0
  187.9960  178.0110  143.7230 C   0  0  0  0  0  0  0  0  0  0  0  0
  186.6000  178.1150  145.7010 C   0  0  0  0  0  3  0  0  0  0  0  0
  183.1060  178.9260  143.4290 C   0  0  0  0  0  0  0  0  0  0  0  0
  189.2270  177.3270  141.7710 O   0  0  0  0  0  0  0  0  0  0  0  0
  189.3590  177.8720  143.0650 C   0  0  2  0  0  3  0  0  0  0  0  0
  187.1430  178.4510  141.4500 C   0  0  0  0  0  0  0  0  0  0  0  0
  187.8500  177.9410  145.1140 C   0  0  0  0  0  3  0  0  0  0  0  0
  191.5170  176.6160  145.9050 C   0  0  0  0  0  0  0  0  0  0  0  0
  192.0530  175.4570  145.3390 C   0  0  0  0  0  3  0  0  0  0  0  0
  190.3110  177.0320  143.8610 C   0  0  0  0  0  0  0  0  0  0  0  0
  191.7000  175.1110  144.0330 C   0  0  0  0  0  3  0  0  0  0  0  0
  190.6390  177.4100  145.1660 C   0  0  0  0  0  3  0  0  0  0  0  0
  190.8430  175.8980  143.3270 N   0  0  0  0  0  0  0  0  0  0  0  0
  191.8550  176.9750  147.2020 O   0  0  0  0  0  1  0  0  0  0  0  0
  188.6420  177.8440  139.5190 C   0  0  0  0  0  2  0  0  0  0  0  0
  190.0240  177.8330  139.0720 N   0  0  0  0  0  2  0  0  0  0  0  0
  190.0720  176.9880  137.8950 C   0  0  0  0  0  2  0  0  0  0  0  0
  191.0420  175.8390  138.1350 C   0  0  0  0  0  2  0  0  0  0  0  0
  193.5820  177.1010  139.1270 O   0  0  0  0  0  0  0  0  0  0  0  0
  192.3570  176.0160  137.3760 C   0  0  1  0  0  3  0  0  0  0  0  0
  193.5330  176.1480  138.3060 C   0  0  0  0  0  0  0  0  0  0  0  0
  194.6240  174.2490  137.3770 C   0  0  0  0  0  3  0  0  0  0  0  0
  193.5860  174.1270  136.3960 N   0  0  0  0  0  0  0  0  0  0  0  0
  192.5550  174.9170  136.3660 C   0  0  0  0  0  3  0  0  0  0  0  0
  194.5990  175.1950  138.2640 N   0  0  0  0  0  0  0  0  0  0  0  0
  1  9  1  0  0  0  0
  1 11  1  0  0  0  0
  2 12  1  0  0  0  0
  2  8  1  0  0  0  0
  3  8  1  0  0  0  0
  3 10  2  0  0  0  0
  4 24  1  6  0  0  0
  4 15  1  0  0  0  0
  4 13  1  0  0  0  0
  5  9  2  0  0  0  0
  6 12  2  0  0  0  0
  7 15  2  0  0  0  0
  8  1  2  0  0  0  0
 10 16  1  0  0  0  0
 12  5  1  0  0  0  0
 13 14  1  0  0  0  0
 14 10  1  0  0  0  0
 14 19  1  1  0  0  0
 15  3  1  0  0  0  0
 16 11  2  0  0  0  0
 17 23  1  0  0  0  0
 18 17  1  0  0  0  0
 19 21  1  0  0  0  0
 20 18  2  0  0  0  0
 21 17  2  0  0  0  0
 22 19  2  0  0  0  0
 22 20  1  0  0  0  0
 25 24  1  0  0  0  0
 26 27  1  0  0  0  0
 26 25  1  0  0  0  0
 29 27  1  1  0  0  0
 29 30  1  0  0  0  0
 30 28  2  0  0  0  0
 31 34  2  0  0  0  0
 32 31  1  0  0  0  0
 33 32  2  0  0  0  0
 33 29  1  0  0  0  0
 34 30  1  0  0  0  0
M  END
>  <MODEL>
2

>  <REMARK>
 VINA RESULT:     -10.0      1.631      1.886
  Name = 
  6 active torsions:
  status: ('A' for Active; 'I' for Inactive)
    1  A    between atoms: C_3  and  C_13
    2  A    between atoms: C_3  and  C_17
    3  A    between atoms: C_5  and  C_18
    4  A    between atoms: C_12  and  C_28
    5  A    between atoms: C_17  and  N_29
    6  A    between atoms: C_18  and  N_29
                            x       y       z     vdW  Elec       q    Type
                         _______ _______ _______ _____ _____    ______ ____

>  <TORSDO>
F 6

$$$$
=
 OpenBabel10252415053D

 34 38  0  0  1  0  0  0  0  0999 V2000
  185.8950  178.2550  144.9290 C   0  0  0  0  0  0  0  0  0  0  0  0
  184.9840  178.5340  142.5760 C   0  0  0  0  0  2  0  0  0  0  0  0
  187.4420  178.0320  143.0510 C   0  0  0  0  0  0  0  0  0  0  0  0
  189.2680  177.8380  141.2580 C   0  0  2  0  0  3  0  0  0  0  0  0
  183.5080  178.7310  144.6940 C   0  0  0  0  0  3  0  0  0  0  0  0
  182.6430  178.9820  142.5200 O   0  0  0  0  0  0  0  0  0  0  0  0
  186.9780  178.3570  140.7130 O   0  0  0  0  0  0  0  0  0  0  0  0
  186.1270  178.2680  143.5340 C   0  0  0  0  0  0  0  0  0  0  0  0
  184.5540  178.4960  145.4810 C   0  0  0  0  0  3  0  0  0  0  0  0
  188.4810  177.7570  143.9650 C   0  0  0  0  0  0  0  0  0  0  0  0
  186.9420  178.0210  145.8180 C   0  0  0  0  0  3  0  0  0  0  0  0
  183.6550  178.7600  143.2350 C   0  0  0  0  0  0  0  0  0  0  0  0
  189.8380  176.9210  142.1620 O   0  0  0  0  0  0  0  0  0  0  0  0
  189.8860  177.5450  143.4250 C   0  0  2  0  0  3  0  0  0  0  0  0
  187.8150  178.0680  141.6100 C   0  0  0  0  0  0  0  0  0  0  0  0
  188.2270  177.7810  145.3420 C   0  0  0  0  0  3  0  0  0  0  0  0
  191.7620  176.4130  146.5070 C   0  0  0  0  0  0  0  0  0  0  0  0
  192.3330  175.2240  146.0480 C   0  0  0  0  0  3  0  0  0  0  0  0
  190.7510  176.7380  144.3440 C   0  0  0  0  0  0  0  0  0  0  0  0
  192.0950  174.8170  144.7330 C   0  0  0  0  0  3  0  0  0  0  0  0
  190.9640  177.1770  145.6540 C   0  0  0  0  0  3  0  0  0  0  0  0
  191.3150  175.5750  143.9160 N   0  0  0  0  0  0  0  0  0  0  0  0
  191.9860  176.8320  147.8110 O   0  0  0  0  0  1  0  0  0  0  0  0
  189.4400  177.3030  139.8430 C   0  0  0  0  0  2  0  0  0  0  0  0
  190.5000  176.3110  139.8120 N   0  0  0  0  0  2  0  0  0  0  0  0
  191.3490  176.6460  138.6850 C   0  0  0  0  0  2  0  0  0  0  0  0
  191.5910  175.3990  137.8440 C   0  0  0  0  0  2  0  0  0  0  0  0
  189.5680  173.2370  137.3310 O   0  0  0  0  0  0  0  0  0  0  0  0
  190.6180  175.2880  136.6700 C   0  0  1  0  0  3  0  0  0  0  0  0
  189.4180  174.4450  137.0090 C   0  0  0  0  0  0  0  0  0  0  0  0
  187.9020  176.2230  136.5610 C   0  0  0  0  0  3  0  0  0  0  0  0
  188.9910  177.0480  136.1270 N   0  0  0  0  0  0  0  0  0  0  0  0
  190.2270  176.6480  136.1570 C   0  0  0  0  0  3  0  0  0  0  0  0
  188.1030  175.0080  136.9670 N   0  0  0  0  0  0  0  0  0  0  0  0
  1  9  1  0  0  0  0
  1 11  1  0  0  0  0
  2 12  1  0  0  0  0
  2  8  1  0  0  0  0
  3  8  1  0  0  0  0
  3 10  2  0  0  0  0
  4 24  1  6  0  0  0
  4 15  1  0  0  0  0
  4 13  1  0  0  0  0
  5  9  2  0  0  0  0
  6 12  2  0  0  0  0
  7 15  2  0  0  0  0
  8  1  2  0  0  0  0
 10 16  1  0  0  0  0
 12  5  1  0  0  0  0
 13 14  1  0  0  0  0
 14 10  1  0  0  0  0
 14 19  1  1  0  0  0
 15  3  1  0  0  0  0
 16 11  2  0  0  0  0
 17 23  1  0  0  0  0
 18 17  1  0  0  0  0
 19 21  1  0  0  0  0
 20 18  2  0  0  0  0
 21 17  2  0  0  0  0
 22 19  2  0  0  0  0
 22 20  1  0  0  0  0
 25 24  1  0  0  0  0
 26 25  1  0  0  0  0
 27 26  1  0  0  0  0
 29 30  1  0  0  0  0
 29 27  1  1  0  0  0
 30 28  2  0  0  0  0
 31 34  2  0  0  0  0
 32 33  2  0  0  0  0
 32 31  1  0  0  0  0
 33 29  1  0  0  0  0
 34 30  1  0  0  0  0
M  END
>  <MODEL>
3

>  <REMARK>
 VINA RESULT:     -10.0      1.310      1.605
  Name = 
  6 active torsions:
  status: ('A' for Active; 'I' for Inactive)
    1  A    between atoms: C_3  and  C_13
    2  A    between atoms: C_3  and  C_17
    3  A    between atoms: C_5  and  C_18
    4  A    between atoms: C_12  and  C_28
    5  A    between atoms: C_17  and  N_29
    6  A    between atoms: C_18  and  N_29
                            x       y       z     vdW  Elec       q    Type
                         _______ _______ _______ _____ _____    ______ ____

>  <TORSDO>
F 6

$$$$
=
 OpenBabel10252415053D

 34 38  0  0  1  0  0  0  0  0999 V2000
  185.8300  178.3270  145.1250 C   0  0  0  0  0  0  0  0  0  0  0  0
  184.7710  178.5430  142.8280 C   0  0  0  0  0  2  0  0  0  0  0  0
  187.2490  178.0260  143.1590 C   0  0  0  0  0  0  0  0  0  0  0  0
  188.9530  177.7520  141.2580 C   0  0  2  0  0  3  0  0  0  0  0  0
  183.4390  178.8250  145.0310 C   0  0  0  0  0  3  0  0  0  0  0  0
  182.4360  179.0180  142.9100 O   0  0  0  0  0  0  0  0  0  0  0  0
  186.6370  178.2820  140.8460 O   0  0  0  0  0  0  0  0  0  0  0  0
  185.9710  178.2930  143.7180 C   0  0  0  0  0  0  0  0  0  0  0  0
  184.5310  178.6030  145.7550 C   0  0  0  0  0  3  0  0  0  0  0  0
  188.3430  177.7670  144.0120 C   0  0  0  0  0  0  0  0  0  0  0  0
  186.9310  178.1080  145.9510 C   0  0  0  0  0  3  0  0  0  0  0  0
  183.4900  178.8060  143.5650 C   0  0  0  0  0  0  0  0  0  0  0  0
  189.5700  176.8570  142.1520 O   0  0  0  0  0  0  0  0  0  0  0  0
  189.7070  177.5200  143.3890 C   0  0  2  0  0  3  0  0  0  0  0  0
  187.5280  178.0110  141.6960 C   0  0  0  0  0  0  0  0  0  0  0  0
  188.1800  177.8370  145.4010 C   0  0  0  0  0  3  0  0  0  0  0  0
  191.6800  176.4020  146.4150 C   0  0  0  0  0  0  0  0  0  0  0  0
  192.2970  175.2520  145.9190 C   0  0  0  0  0  3  0  0  0  0  0  0
  190.6220  176.7320  144.2750 C   0  0  0  0  0  0  0  0  0  0  0  0
  192.0570  174.8650  144.5980 C   0  0  0  0  0  3  0  0  0  0  0  0
  190.8360  177.1490  145.5920 C   0  0  0  0  0  3  0  0  0  0  0  0
  191.2310  175.6060  143.8110 N   0  0  0  0  0  0  0  0  0  0  0  0
  191.9060  176.8010  147.7250 O   0  0  0  0  0  1  0  0  0  0  0  0
  189.0260  177.1710  139.8530 C   0  0  0  0  0  2  0  0  0  0  0  0
  189.8220  178.0340  138.9990 N   0  0  0  0  0  2  0  0  0  0  0  0
  188.9090  179.0030  138.4230 C   0  0  0  0  0  2  0  0  0  0  0  0
  189.0560  178.9970  136.9070 C   0  0  0  0  0  2  0  0  0  0  0  0
  189.4840  176.5950  135.1540 O   0  0  0  0  0  0  0  0  0  0  0  0
  187.9930  178.1380  136.2210 C   0  0  1  0  0  3  0  0  0  0  0  0
  188.4960  176.7520  135.9190 C   0  0  0  0  0  0  0  0  0  0  0  0
  186.7890  175.7270  137.2180 C   0  0  0  0  0  3  0  0  0  0  0  0
  186.1980  177.0100  137.4630 N   0  0  0  0  0  0  0  0  0  0  0  0
  186.7150  178.1150  137.0170 C   0  0  0  0  0  3  0  0  0  0  0  0
  187.8580  175.6090  136.4940 N   0  0  0  0  0  0  0  0  0  0  0  0
  1  9  1  0  0  0  0
  1 11  1  0  0  0  0
  2 12  1  0  0  0  0
  2  8  1  0  0  0  0
  3  8  1  0  0  0  0
  3 10  2  0  0  0  0
  4 24  1  6  0  0  0
  4 15  1  0  0  0  0
  4 13  1  0  0  0  0
  5  9  2  0  0  0  0
  6 12  2  0  0  0  0
  7 15  2  0  0  0  0
  8  1  2  0  0  0  0
 10 16  1  0  0  0  0
 12  5  1  0  0  0  0
 13 14  1  0  0  0  0
 14 10  1  0  0  0  0
 14 19  1  1  0  0  0
 15  3  1  0  0  0  0
 16 11  2  0  0  0  0
 17 23  1  0  0  0  0
 18 17  1  0  0  0  0
 19 21  1  0  0  0  0
 20 18  2  0  0  0  0
 21 17  2  0  0  0  0
 22 19  2  0  0  0  0
 22 20  1  0  0  0  0
 25 24  1  0  0  0  0
 26 25  1  0  0  0  0
 27 26  1  0  0  0  0
 28 30  2  0  0  0  0
 29 27  1  1  0  0  0
 29 33  1  0  0  0  0
 30 29  1  0  0  0  0
 30 34  1  0  0  0  0
 31 32  1  0  0  0  0
 33 32  2  0  0  0  0
 34 31  2  0  0  0  0
M  END
>  <MODEL>
4

>  <REMARK>
 VINA RESULT:      -9.8      1.457      1.821
  Name = 
  6 active torsions:
  status: ('A' for Active; 'I' for Inactive)
    1  A    between atoms: C_3  and  C_13
    2  A    between atoms: C_3  and  C_17
    3  A    between atoms: C_5  and  C_18
    4  A    between atoms: C_12  and  C_28
    5  A    between atoms: C_17  and  N_29
    6  A    between atoms: C_18  and  N_29
                            x       y       z     vdW  Elec       q    Type
                         _______ _______ _______ _____ _____    ______ ____

>  <TORSDO>
F 6

$$$$
=
 OpenBabel10252415053D

 34 38  0  0  1  0  0  0  0  0999 V2000
  188.1440  177.7300  146.7810 C   0  0  0  0  0  0  0  0  0  0  0  0
  190.6300  177.3600  146.4270 C   0  0  0  0  0  2  0  0  0  0  0  0
  188.9450  177.3090  144.5110 C   0  0  0  0  0  0  0  0  0  0  0  0
  189.5280  176.8060  142.0620 C   0  0  2  0  0  3  0  0  0  0  0  0
  189.5870  177.8210  148.7520 C   0  0  0  0  0  3  0  0  0  0  0  0
  191.8970  177.4920  148.4430 O   0  0  0  0  0  0  0  0  0  0  0  0
  191.1870  176.7890  143.8110 O   0  0  0  0  0  0  0  0  0  0  0  0
  189.2160  177.4690  145.8950 C   0  0  0  0  0  0  0  0  0  0  0  0
  188.3700  177.9000  148.2230 C   0  0  0  0  0  3  0  0  0  0  0  0
  187.6210  177.4460  144.0390 C   0  0  0  0  0  0  0  0  0  0  0  0
  186.8380  177.8220  146.3020 C   0  0  0  0  0  3  0  0  0  0  0  0
  190.7590  177.5570  147.9100 C   0  0  0  0  0  0  0  0  0  0  0  0
  188.4510  177.6710  141.7920 O   0  0  0  0  0  0  0  0  0  0  0  0
  187.3520  177.2340  142.5590 C   0  0  2  0  0  3  0  0  0  0  0  0
  189.9830  176.9860  143.4940 C   0  0  0  0  0  0  0  0  0  0  0  0
  186.5760  177.6750  144.9430 C   0  0  0  0  0  3  0  0  0  0  0  0
  184.9290  179.1530  140.3810 C   0  0  0  0  0  0  0  0  0  0  0  0
  183.7990  179.1800  141.2000 C   0  0  0  0  0  3  0  0  0  0  0  0
  186.1110  177.9250  142.0840 C   0  0  0  0  0  0  0  0  0  0  0  0
  183.8540  178.5700  142.4560 C   0  0  0  0  0  3  0  0  0  0  0  0
  186.0940  178.5220  140.8200 C   0  0  0  0  0  3  0  0  0  0  0  0
  184.9980  177.9600  142.8680 N   0  0  0  0  0  0  0  0  0  0  0  0
  184.8930  179.7520  139.1290 O   0  0  0  0  0  1  0  0  0  0  0  0
  190.6440  177.0830  141.0640 C   0  0  0  0  0  2  0  0  0  0  0  0
  190.5430  176.1680  139.9400 N   0  0  0  0  0  2  0  0  0  0  0  0
  191.3100  176.7550  138.8590 C   0  0  0  0  0  2  0  0  0  0  0  0
  190.4330  176.8680  137.6190 C   0  0  0  0  0  2  0  0  0  0  0  0
  189.0550  179.3000  138.7190 O   0  0  0  0  0  0  0  0  0  0  0  0
  188.9520  177.0280  137.9630 C   0  0  1  0  0  3  0  0  0  0  0  0
  188.5190  178.4690  137.9390 C   0  0  0  0  0  0  0  0  0  0  0  0
  186.8700  178.0630  136.2740 C   0  0  0  0  0  3  0  0  0  0  0  0
  187.1630  176.6600  136.3200 N   0  0  0  0  0  0  0  0  0  0  0  0
  188.0920  176.1640  137.0810 C   0  0  0  0  0  3  0  0  0  0  0  0
  187.5010  178.9040  137.0340 N   0  0  0  0  0  0  0  0  0  0  0  0
  1  9  1  0  0  0  0
  2 12  1  0  0  0  0
  3  8  1  0  0  0  0
  4 24  1  6  0  0  0
  4 15  1  0  0  0  0
  8  2  1  0  0  0  0
  8  1  2  0  0  0  0
  9  5  2  0  0  0  0
 10  3  2  0  0  0  0
 10 16  1  0  0  0  0
 11  1  1  0  0  0  0
 12  6  2  0  0  0  0
 12  5  1  0  0  0  0
 13  4  1  0  0  0  0
 13 14  1  0  0  0  0
 14 19  1  6  0  0  0
 14 10  1  0  0  0  0
 15  7  2  0  0  0  0
 15  3  1  0  0  0  0
 16 11  2  0  0  0  0
 17 21  2  0  0  0  0
 17 18  1  0  0  0  0
 18 20  2  0  0  0  0
 19 22  2  0  0  0  0
 20 22  1  0  0  0  0
 21 19  1  0  0  0  0
 23 17  1  0  0  0  0
 25 24  1  0  0  0  0
 26 25  1  0  0  0  0
 27 26  1  0  0  0  0
 29 27  1  6  0  0  0
 30 29  1  0  0  0  0
 30 28  2  0  0  0  0
 31 32  1  0  0  0  0
 31 34  2  0  0  0  0
 32 33  2  0  0  0  0
 33 29  1  0  0  0  0
 34 30  1  0  0  0  0
M  END
>  <MODEL>
5

>  <REMARK>
 VINA RESULT:      -9.7      2.213      5.644
  Name = 
  6 active torsions:
  status: ('A' for Active; 'I' for Inactive)
    1  A    between atoms: C_3  and  C_13
    2  A    between atoms: C_3  and  C_17
    3  A    between atoms: C_5  and  C_18
    4  A    between atoms: C_12  and  C_28
    5  A    between atoms: C_17  and  N_29
    6  A    between atoms: C_18  and  N_29
                            x       y       z     vdW  Elec       q    Type
                         _______ _______ _______ _____ _____    ______ ____

>  <TORSDO>
F 6

$$$$
=
 OpenBabel10252415053D

 34 38  0  0  1  0  0  0  0  0999 V2000
  188.0850  177.1930  146.2010 C   0  0  0  0  0  0  0  0  0  0  0  0
  190.3240  177.3600  145.0170 C   0  0  0  0  0  2  0  0  0  0  0  0
  188.0970  177.5890  143.7900 C   0  0  0  0  0  0  0  0  0  0  0  0
  187.8490  177.9230  141.2570 C   0  0  2  0  0  3  0  0  0  0  0  0
  190.1000  176.9460  147.5630 C   0  0  0  0  0  3  0  0  0  0  0  0
  192.1860  177.1090  146.4840 O   0  0  0  0  0  0  0  0  0  0  0  0
  189.9990  177.6740  142.3190 O   0  0  0  0  0  0  0  0  0  0  0  0
  188.8090  177.3830  145.0010 C   0  0  0  0  0  0  0  0  0  0  0  0
  188.7730  176.9720  147.4810 C   0  0  0  0  0  3  0  0  0  0  0  0
  186.6860  177.6360  143.8110 C   0  0  0  0  0  0  0  0  0  0  0  0
  186.6910  177.2030  146.1950 C   0  0  0  0  0  3  0  0  0  0  0  0
  190.9330  177.1360  146.3700 C   0  0  0  0  0  0  0  0  0  0  0  0
  186.6930  178.6390  141.6230 O   0  0  0  0  0  0  0  0  0  0  0  0
  185.9470  177.8210  142.4960 C   0  0  2  0  0  3  0  0  0  0  0  0
  188.7480  177.7530  142.4610 C   0  0  0  0  0  0  0  0  0  0  0  0
  185.9960  177.4150  145.0090 C   0  0  0  0  0  3  0  0  0  0  0  0
  182.3390  178.7510  141.8520 C   0  0  0  0  0  0  0  0  0  0  0  0
  182.0370  179.4640  143.0140 C   0  0  0  0  0  3  0  0  0  0  0  0
  184.5780  178.4040  142.6710 C   0  0  0  0  0  0  0  0  0  0  0  0
  183.0250  179.6310  143.9870 C   0  0  0  0  0  3  0  0  0  0  0  0
  183.6150  178.2150  141.6760 C   0  0  0  0  0  3  0  0  0  0  0  0
  184.2640  179.1010  143.7980 N   0  0  0  0  0  0  0  0  0  0  0  0
  181.3700  178.5750  140.8740 O   0  0  0  0  0  1  0  0  0  0  0  0
  188.5430  178.6590  140.1200 C   0  0  0  0  0  2  0  0  0  0  0  0
  187.9730  178.2560  138.8460 N   0  0  0  0  0  2  0  0  0  0  0  0
  188.5410  176.9600  138.5290 C   0  0  0  0  0  2  0  0  0  0  0  0
  189.9630  177.1420  138.0140 C   0  0  0  0  0  2  0  0  0  0  0  0
  190.4120  174.2010  137.6020 O   0  0  0  0  0  0  0  0  0  0  0  0
  190.9650  176.2390  138.7340 C   0  0  1  0  0  3  0  0  0  0  0  0
  191.3120  175.0210  137.9220 C   0  0  0  0  0  0  0  0  0  0  0  0
  193.6270  175.5650  137.8870 C   0  0  0  0  0  3  0  0  0  0  0  0
  193.3810  176.6870  138.7450 N   0  0  0  0  0  0  0  0  0  0  0  0
  192.1890  177.0090  139.1510 C   0  0  0  0  0  3  0  0  0  0  0  0
  192.6610  174.7870  137.5080 N   0  0  0  0  0  0  0  0  0  0  0  0
  1  9  1  0  0  0  0
  2 12  1  0  0  0  0
  3 10  2  0  0  0  0
  3  8  1  0  0  0  0
  4 24  1  6  0  0  0
  4 13  1  0  0  0  0
  4 15  1  0  0  0  0
  7 15  2  0  0  0  0
  8  2  1  0  0  0  0
  8  1  2  0  0  0  0
  9  5  2  0  0  0  0
 10 16  1  0  0  0  0
 11  1  1  0  0  0  0
 12  6  2  0  0  0  0
 12  5  1  0  0  0  0
 13 14  1  0  0  0  0
 14 19  1  1  0  0  0
 14 10  1  0  0  0  0
 15  3  1  0  0  0  0
 16 11  2  0  0  0  0
 17 18  1  0  0  0  0
 18 20  2  0  0  0  0
 19 22  2  0  0  0  0
 21 17  2  0  0  0  0
 21 19  1  0  0  0  0
 22 20  1  0  0  0  0
 23 17  1  0  0  0  0
 25 24  1  0  0  0  0
 26 25  1  0  0  0  0
 27 26  1  0  0  0  0
 28 30  2  0  0  0  0
 29 27  1  6  0  0  0
 29 33  1  0  0  0  0
 30 29  1  0  0  0  0
 31 32  1  0  0  0  0
 32 33  2  0  0  0  0
 34 31  2  0  0  0  0
 34 30  1  0  0  0  0
M  END
>  <MODEL>
6

>  <REMARK>
 VINA RESULT:      -9.6      2.079      5.775
  Name = 
  6 active torsions:
  status: ('A' for Active; 'I' for Inactive)
    1  A    between atoms: C_3  and  C_13
    2  A    between atoms: C_3  and  C_17
    3  A    between atoms: C_5  and  C_18
    4  A    between atoms: C_12  and  C_28
    5  A    between atoms: C_17  and  N_29
    6  A    between atoms: C_18  and  N_29
                            x       y       z     vdW  Elec       q    Type
                         _______ _______ _______ _____ _____    ______ ____

>  <TORSDO>
F 6

$$$$
=
 OpenBabel10252415053D

 34 38  0  0  1  0  0  0  0  0999 V2000
  189.9360  177.4960  144.8850 C   0  0  0  0  0  0  0  0  0  0  0  0
  187.7630  177.4180  146.1950 C   0  0  0  0  0  2  0  0  0  0  0  0
  187.8510  177.9840  143.7080 C   0  0  0  0  0  0  0  0  0  0  0  0
  185.8140  178.6130  142.2770 C   0  0  2  0  0  3  0  0  0  0  0  0
  190.0730  176.9320  147.2600 C   0  0  0  0  0  3  0  0  0  0  0  0
  188.0680  176.8430  148.4890 O   0  0  0  0  0  0  0  0  0  0  0  0
  185.6350  178.1350  144.6330 O   0  0  0  0  0  0  0  0  0  0  0  0
  188.5280  177.6360  144.9060 C   0  0  0  0  0  0  0  0  0  0  0  0
  190.6850  177.1410  146.0980 C   0  0  0  0  0  3  0  0  0  0  0  0
  188.5860  178.1510  142.5140 C   0  0  0  0  0  0  0  0  0  0  0  0
  190.6490  177.7040  143.7060 C   0  0  0  0  0  3  0  0  0  0  0  0
  188.6150  177.0510  147.3750 C   0  0  0  0  0  0  0  0  0  0  0  0
  186.5480  178.0010  141.2440 O   0  0  0  0  0  0  0  0  0  0  0  0
  187.8420  178.5600  141.2540 C   0  0  2  0  0  3  0  0  0  0  0  0
  186.3810  178.2040  143.6190 C   0  0  0  0  0  0  0  0  0  0  0  0
  189.9820  178.0360  142.5300 C   0  0  0  0  0  3  0  0  0  0  0  0
  189.9510  176.6210  138.7860 C   0  0  0  0  0  0  0  0  0  0  0  0
  189.8650  177.4430  137.6600 C   0  0  0  0  0  3  0  0  0  0  0  0
  188.5600  178.1710  139.9980 C   0  0  0  0  0  0  0  0  0  0  0  0
  189.1180  178.6210  137.7330 C   0  0  0  0  0  3  0  0  0  0  0  0
  189.2950  176.9830  139.9640 C   0  0  0  0  0  3  0  0  0  0  0  0
  188.4860  178.9580  138.8890 N   0  0  0  0  0  0  0  0  0  0  0  0
  190.6870  175.4460  138.7320 O   0  0  0  0  0  1  0  0  0  0  0  0
  184.3480  178.2300  142.1310 C   0  0  0  0  0  2  0  0  0  0  0  0
  184.0150  178.0640  140.7270 N   0  0  0  0  0  2  0  0  0  0  0  0
  182.8050  178.8280  140.4950 C   0  0  0  0  0  2  0  0  0  0  0  0
  181.6490  177.8750  140.2170 C   0  0  0  0  0  2  0  0  0  0  0  0
  179.3730  176.4700  141.5840 O   0  0  0  0  0  0  0  0  0  0  0  0
  180.2980  178.4620  140.6250 C   0  0  1  0  0  3  0  0  0  0  0  0
  179.6600  177.6850  141.7450 C   0  0  0  0  0  0  0  0  0  0  0  0
  179.5800  179.5880  143.1700 C   0  0  0  0  0  3  0  0  0  0  0  0
  180.0920  180.4080  142.1110 N   0  0  0  0  0  0  0  0  0  0  0  0
  180.4160  179.9270  140.9470 C   0  0  0  0  0  3  0  0  0  0  0  0
  179.3750  178.3200  142.9950 N   0  0  0  0  0  0  0  0  0  0  0  0
  1  8  1  0  0  0  0
  1  9  1  0  0  0  0
  2 12  1  0  0  0  0
  3  8  2  0  0  0  0
  4 24  1  1  0  0  0
  4 15  1  0  0  0  0
  5 12  1  0  0  0  0
  8  2  1  0  0  0  0
  9  5  2  0  0  0  0
 10 16  2  0  0  0  0
 10  3  1  0  0  0  0
 11  1  2  0  0  0  0
 12  6  2  0  0  0  0
 13 14  1  0  0  0  0
 13  4  1  0  0  0  0
 14 19  1  6  0  0  0
 14 10  1  0  0  0  0
 15  3  1  0  0  0  0
 15  7  2  0  0  0  0
 16 11  1  0  0  0  0
 17 21  1  0  0  0  0
 18 20  1  0  0  0  0
 18 17  2  0  0  0  0
 20 22  2  0  0  0  0
 21 19  2  0  0  0  0
 22 19  1  0  0  0  0
 23 17  1  0  0  0  0
 25 24  1  0  0  0  0
 26 25  1  0  0  0  0
 27 26  1  0  0  0  0
 28 30  2  0  0  0  0
 29 27  1  1  0  0  0
 29 33  1  0  0  0  0
 29 30  1  0  0  0  0
 30 34  1  0  0  0  0
 32 31  1  0  0  0  0
 33 32  2  0  0  0  0
 34 31  2  0  0  0  0
M  END
>  <MODEL>
7

>  <REMARK>
 VINA RESULT:      -9.5      3.394      7.524
  Name = 
  6 active torsions:
  status: ('A' for Active; 'I' for Inactive)
    1  A    between atoms: C_3  and  C_13
    2  A    between atoms: C_3  and  C_17
    3  A    between atoms: C_5  and  C_18
    4  A    between atoms: C_12  and  C_28
    5  A    between atoms: C_17  and  N_29
    6  A    between atoms: C_18  and  N_29
                            x       y       z     vdW  Elec       q    Type
                         _______ _______ _______ _____ _____    ______ ____

>  <TORSDO>
F 6

$$$$
=
 OpenBabel10252415053D

 34 38  0  0  1  0  0  0  0  0999 V2000
  190.0140  177.5040  144.7490 C   0  0  0  0  0  0  0  0  0  0  0  0
  187.8370  177.4530  146.0520 C   0  0  0  0  0  2  0  0  0  0  0  0
  187.9370  177.9970  143.5600 C   0  0  0  0  0  0  0  0  0  0  0  0
  185.9100  178.6280  142.1180 C   0  0  2  0  0  3  0  0  0  0  0  0
  190.1390  176.9590  147.1290 C   0  0  0  0  0  3  0  0  0  0  0  0
  188.1300  176.8960  148.3520 O   0  0  0  0  0  0  0  0  0  0  0  0
  185.7200  178.1720  144.4770 O   0  0  0  0  0  0  0  0  0  0  0  0
  188.6080  177.6540  144.7640 C   0  0  0  0  0  0  0  0  0  0  0  0
  190.7580  177.1540  145.9680 C   0  0  0  0  0  3  0  0  0  0  0  0
  188.6780  178.1480  142.3680 C   0  0  0  0  0  0  0  0  0  0  0  0
  190.7330  177.6970  143.5700 C   0  0  0  0  0  3  0  0  0  0  0  0
  188.6830  177.0900  147.2380 C   0  0  0  0  0  0  0  0  0  0  0  0
  186.6430  178.0020  141.0920 O   0  0  0  0  0  0  0  0  0  0  0  0
  187.9410  178.5520  141.1020 C   0  0  2  0  0  3  0  0  0  0  0  0
  186.4690  178.2270  143.4650 C   0  0  0  0  0  0  0  0  0  0  0  0
  190.0720  178.0230  142.3900 C   0  0  0  0  0  3  0  0  0  0  0  0
  189.9350  176.5190  138.6140 C   0  0  0  0  0  0  0  0  0  0  0  0
  189.9660  177.3910  137.5240 C   0  0  0  0  0  3  0  0  0  0  0  0
  188.6600  178.1460  139.8520 C   0  0  0  0  0  0  0  0  0  0  0  0
  189.3360  178.6330  137.6260 C   0  0  0  0  0  3  0  0  0  0  0  0
  189.2780  176.8940  139.7860 C   0  0  0  0  0  3  0  0  0  0  0  0
  188.7000  178.9820  138.7770 N   0  0  0  0  0  0  0  0  0  0  0  0
  190.5550  175.2800  138.5300 O   0  0  0  0  0  1  0  0  0  0  0  0
  184.4410  178.2550  141.9700 C   0  0  0  0  0  2  0  0  0  0  0  0
  183.7580  179.2410  141.1500 N   0  0  0  0  0  2  0  0  0  0  0  0
  182.7900  178.5150  140.3510 C   0  0  0  0  0  2  0  0  0  0  0  0
  183.4430  177.2650  139.7760 C   0  0  0  0  0  2  0  0  0  0  0  0
  185.4500  179.0050  138.3730 O   0  0  0  0  0  0  0  0  0  0  0  0
  183.6950  177.3770  138.2720 C   0  0  1  0  0  3  0  0  0  0  0  0
  185.0830  177.8710  137.9680 C   0  0  0  0  0  0  0  0  0  0  0  0
  185.6230  175.9230  136.7140 C   0  0  0  0  0  3  0  0  0  0  0  0
  184.2840  175.4400  136.8800 N   0  0  0  0  0  0  0  0  0  0  0  0
  183.3890  176.0800  137.5710 C   0  0  0  0  0  3  0  0  0  0  0  0
  185.9920  177.0600  137.2180 N   0  0  0  0  0  0  0  0  0  0  0  0
  1  8  1  0  0  0  0
  1  9  1  0  0  0  0
  2 12  1  0  0  0  0
  3  8  2  0  0  0  0
  4 24  1  1  0  0  0
  4 15  1  0  0  0  0
  5 12  1  0  0  0  0
  8  2  1  0  0  0  0
  9  5  2  0  0  0  0
 10 16  2  0  0  0  0
 10  3  1  0  0  0  0
 11  1  2  0  0  0  0
 12  6  2  0  0  0  0
 13 14  1  0  0  0  0
 13  4  1  0  0  0  0
 14 19  1  6  0  0  0
 14 10  1  0  0  0  0
 15  3  1  0  0  0  0
 15  7  2  0  0  0  0
 16 11  1  0  0  0  0
 17 21  1  0  0  0  0
 18 20  1  0  0  0  0
 18 17  2  0  0  0  0
 20 22  2  0  0  0  0
 21 19  2  0  0  0  0
 22 19  1  0  0  0  0
 23 17  1  0  0  0  0
 25 24  1  0  0  0  0
 26 25  1  0  0  0  0
 27 26  1  0  0  0  0
 29 27  1  1  0  0  0
 30 29  1  0  0  0  0
 30 28  2  0  0  0  0
 31 32  1  0  0  0  0
 31 34  2  0  0  0  0
 32 33  2  0  0  0  0
 33 29  1  0  0  0  0
 34 30  1  0  0  0  0
M  END
>  <MODEL>
8

>  <REMARK>
 VINA RESULT:      -9.4      2.643      5.682
  Name = 
  6 active torsions:
  status: ('A' for Active; 'I' for Inactive)
    1  A    between atoms: C_3  and  C_13
    2  A    between atoms: C_3  and  C_17
    3  A    between atoms: C_5  and  C_18
    4  A    between atoms: C_12  and  C_28
    5  A    between atoms: C_17  and  N_29
    6  A    between atoms: C_18  and  N_29
                            x       y       z     vdW  Elec       q    Type
                         _______ _______ _______ _____ _____    ______ ____

>  <TORSDO>
F 6

$$$$
=
 OpenBabel10252415053D

 34 38  0  0  1  0  0  0  0  0999 V2000
  188.0270  177.2480  146.3070 C   0  0  0  0  0  0  0  0  0  0  0  0
  190.2840  177.4010  145.1550 C   0  0  0  0  0  2  0  0  0  0  0  0
  188.0760  177.6210  143.8920 C   0  0  0  0  0  0  0  0  0  0  0  0
  187.8680  177.9290  141.3530 C   0  0  2  0  0  3  0  0  0  0  0  0
  190.0220  177.0120  147.7010 C   0  0  0  0  0  3  0  0  0  0  0  0
  192.1230  177.1610  146.6530 O   0  0  0  0  0  0  0  0  0  0  0  0
  190.0010  177.6880  142.4500 O   0  0  0  0  0  0  0  0  0  0  0  0
  188.7700  177.4250  145.1160 C   0  0  0  0  0  0  0  0  0  0  0  0
  188.6960  177.0390  147.5990 C   0  0  0  0  0  3  0  0  0  0  0  0
  186.6660  177.6690  143.8910 C   0  0  0  0  0  0  0  0  0  0  0  0
  186.6340  177.2600  146.2790 C   0  0  0  0  0  3  0  0  0  0  0  0
  190.8720  177.1890  146.5200 C   0  0  0  0  0  0  0  0  0  0  0  0
  186.7080  178.6500  141.6940 O   0  0  0  0  0  0  0  0  0  0  0  0
  185.9470  177.8430  142.5640 C   0  0  2  0  0  3  0  0  0  0  0  0
  188.7480  177.7700  142.5720 C   0  0  0  0  0  0  0  0  0  0  0  0
  185.9570  177.4610  145.0810 C   0  0  0  0  0  3  0  0  0  0  0  0
  182.3360  178.7320  141.8790 C   0  0  0  0  0  0  0  0  0  0  0  0
  182.0320  179.4970  143.0060 C   0  0  0  0  0  3  0  0  0  0  0  0
  184.5760  178.4290  142.7120 C   0  0  0  0  0  0  0  0  0  0  0  0
  183.0200  179.7110  143.9700 C   0  0  0  0  0  3  0  0  0  0  0  0
  183.6140  178.1920  141.7270 C   0  0  0  0  0  3  0  0  0  0  0  0
  184.2610  179.1770  143.8050 N   0  0  0  0  0  0  0  0  0  0  0  0
  181.3670  178.5080  140.9110 O   0  0  0  0  0  1  0  0  0  0  0  0
  188.5800  178.6530  140.2190 C   0  0  0  0  0  2  0  0  0  0  0  0
  188.8170  177.7370  139.1170 N   0  0  0  0  0  2  0  0  0  0  0  0
  188.9680  178.5520  137.9260 C   0  0  0  0  0  2  0  0  0  0  0  0
  187.7310  178.4020  137.0510 C   0  0  0  0  0  2  0  0  0  0  0  0
  185.3350  178.9970  138.7630 O   0  0  0  0  0  0  0  0  0  0  0  0
  186.7230  177.4080  137.6280 C   0  0  1  0  0  3  0  0  0  0  0  0
  185.3990  178.0560  137.9290 C   0  0  0  0  0  0  0  0  0  0  0  0
  184.2220  176.5890  136.4720 C   0  0  0  0  0  3  0  0  0  0  0  0
  185.4320  175.8630  136.2190 N   0  0  0  0  0  0  0  0  0  0  0  0
  186.5750  176.2050  136.7350 C   0  0  0  0  0  3  0  0  0  0  0  0
  184.2090  177.6090  137.2740 N   0  0  0  0  0  0  0  0  0  0  0  0
  1  9  1  0  0  0  0
  2 12  1  0  0  0  0
  3  8  1  0  0  0  0
  4 24  1  6  0  0  0
  4 13  1  0  0  0  0
  4 15  1  0  0  0  0
  7 15  2  0  0  0  0
  8  2  1  0  0  0  0
  8  1  2  0  0  0  0
  9  5  2  0  0  0  0
 10  3  2  0  0  0  0
 10 16  1  0  0  0  0
 11  1  1  0  0  0  0
 12  6  2  0  0  0  0
 12  5  1  0  0  0  0
 13 14  1  0  0  0  0
 14 19  1  1  0  0  0
 14 10  1  0  0  0  0
 15  3  1  0  0  0  0
 16 11  2  0  0  0  0
 17 18  1  0  0  0  0
 18 20  2  0  0  0  0
 19 22  2  0  0  0  0
 21 17  2  0  0  0  0
 21 19  1  0  0  0  0
 22 20  1  0  0  0  0
 23 17  1  0  0  0  0
 25 24  1  0  0  0  0
 26 25  1  0  0  0  0
 27 26  1  0  0  0  0
 29 27  1  6  0  0  0
 29 30  1  0  0  0  0
 30 28  2  0  0  0  0
 31 34  2  0  0  0  0
 32 31  1  0  0  0  0
 32 33  2  0  0  0  0
 33 29  1  0  0  0  0
 34 30  1  0  0  0  0
M  END
>  <MODEL>
9

>  <REMARK>
 VINA RESULT:      -9.3      2.346      6.044
  Name = 
  6 active torsions:
  status: ('A' for Active; 'I' for Inactive)
    1  A    between atoms: C_3  and  C_13
    2  A    between atoms: C_3  and  C_17
    3  A    between atoms: C_5  and  C_18
    4  A    between atoms: C_12  and  C_28
    5  A    between atoms: C_17  and  N_29
    6  A    between atoms: C_18  and  N_29
                            x       y       z     vdW  Elec       q    Type
                         _______ _______ _______ _____ _____    ______ ____

>  <TORSDO>
F 6

$$$$
