=
 OpenBabel10262419433D

 25 29  0  0  1  0  0  0  0  0999 V2000
  187.1330  177.9370  145.5880 C   0  0  0  0  0  0  0  0  0  0  0  0
  188.3710  177.1610  145.2620 C   0  0  1  0  0  3  0  0  0  0  0  0
  187.6180  178.1070  147.9610 C   0  0  0  0  0  3  0  0  0  0  0  0
  186.0330  178.1760  144.8950 C   0  0  0  0  0  0  0  0  0  0  0  0
  183.5200  178.8250  143.9220 C   0  0  0  0  0  3  0  0  0  0  0  0
  188.9690  177.5590  147.6800 C   0  0  0  0  0  3  0  0  0  0  0  0
  185.0700  178.7030  145.7510 C   0  0  0  0  0  0  0  0  0  0  0  0
  183.8030  179.0400  145.2810 C   0  0  0  0  0  3  0  0  0  0  0  0
  190.7350  176.7670  146.1600 C   0  0  0  0  0  0  0  0  0  0  0  0
  191.8070  176.2090  147.4330 Cl  0  0  0  0  0  0  0  0  0  0  0  0
  189.0470  177.6100  143.9960 C   0  0  0  0  0  3  0  0  0  0  0  0
  184.4940  178.2730  143.0630 C   0  0  0  0  0  3  0  0  0  0  0  0
  186.7890  178.2980  146.9390 C   0  0  0  0  0  0  0  0  0  0  0  0
  185.4560  178.7980  146.9890 N   0  0  0  0  0  0  0  0  0  0  0  0
  191.2090  176.8960  144.9150 C   0  0  0  0  0  3  0  0  0  0  0  0
  185.7670  177.9360  143.5490 C   0  0  0  0  0  3  0  0  0  0  0  0
  190.3620  177.4240  143.8190 C   0  0  0  0  0  0  0  0  0  0  0  0
  189.3420  177.1680  146.4400 C   0  0  0  0  0  0  0  0  0  0  0  0
  190.9870  177.7860  142.5180 C   0  0  0  0  0  2  0  0  0  0  0  0
  190.3710  176.9680  141.3970 C   0  0  2  0  0  3  0  0  0  0  0  0
  190.5330  177.7230  140.0910 C   0  0  2  0  0  3  0  0  0  0  0  0
  189.1970  177.7220  140.8120 C   0  0  0  0  0  2  0  0  0  0  0  0
  190.4990  176.7630  138.9480 C   0  0  0  0  0  0  0  0  0  0  0  0
  190.0730  177.1840  137.6950 O   0  0  0  0  0  0  0  0  0  0  0  0
  190.8150  175.5580  139.1260 O   0  0  0  0  0  1  0  0  0  0  0  0
  1 13  1  0  0  0  0
  2 11  1  6  0  0  0
  2  1  1  0  0  0  0
  2 18  1  0  0  0  0
  4  1  2  0  0  0  0
  4  7  1  0  0  0  0
  5  8  2  0  0  0  0
  6  3  1  0  0  0  0
  7 14  2  0  0  0  0
  8  7  1  0  0  0  0
  9 18  1  0  0  0  0
  9 10  1  0  0  0  0
 12 16  2  0  0  0  0
 12  5  1  0  0  0  0
 13 14  1  0  0  0  0
 13  3  2  0  0  0  0
 15  9  2  0  0  0  0
 16  4  1  0  0  0  0
 17 11  2  0  0  0  0
 17 15  1  0  0  0  0
 18  6  2  0  0  0  0
 19 17  1  0  0  0  0
 20 19  1  1  0  0  0
 21 23  1  6  0  0  0
 21 22  1  0  0  0  0
 21 20  1  0  0  0  0
 22 20  1  0  0  0  0
 23 25  1  0  0  0  0
 24 23  2  0  0  0  0
M  END
>  <MODEL>
1

>  <REMARK>
 VINA RESULT:     -11.2      0.000      0.000
  Name = 
  3 active torsions:
  status: ('A' for Active; 'I' for Inactive)
    1  A    between atoms: C_2  and  C_21
    2  A    between atoms: C_6  and  C_15
    3  A    between atoms: C_6  and  C_23
                            x       y       z     vdW  Elec       q    Type
                         _______ _______ _______ _____ _____    ______ ____

>  <TORSDO>
F 3

$$$$
=
 OpenBabel10262419433D

 25 29  0  0  1  0  0  0  0  0999 V2000
  187.1630  177.9560  142.4160 C   0  0  0  0  0  0  0  0  0  0  0  0
  186.2690  177.6560  143.5780 C   0  0  1  0  0  3  0  0  0  0  0  0
  185.4710  179.1680  141.1660 C   0  0  0  0  0  3  0  0  0  0  0  0
  188.3440  177.4780  142.0640 C   0  0  0  0  0  0  0  0  0  0  0  0
  190.7080  176.6980  140.8440 C   0  0  0  0  0  3  0  0  0  0  0  0
  184.6070  179.1200  142.3730 C   0  0  0  0  0  3  0  0  0  0  0  0
  188.6150  177.8720  140.7560 C   0  0  0  0  0  0  0  0  0  0  0  0
  189.7990  177.4950  140.1270 C   0  0  0  0  0  3  0  0  0  0  0  0
  184.1720  178.5650  144.7310 C   0  0  0  0  0  0  0  0  0  0  0  0
  182.4670  178.9770  144.6830 Cl  0  0  0  0  0  0  0  0  0  0  0  0
  186.9400  177.8240  144.9140 C   0  0  0  0  0  3  0  0  0  0  0  0
  190.4200  176.2870  142.1620 C   0  0  0  0  0  3  0  0  0  0  0  0
  186.6860  178.6310  141.2370 C   0  0  0  0  0  0  0  0  0  0  0  0
  187.6610  178.5600  140.2020 N   0  0  0  0  0  0  0  0  0  0  0  0
  184.7710  178.3920  145.9150 C   0  0  0  0  0  3  0  0  0  0  0  0
  189.2220  176.6730  142.7860 C   0  0  0  0  0  3  0  0  0  0  0  0
  186.2220  178.1060  146.0090 C   0  0  0  0  0  0  0  0  0  0  0  0
  184.9810  178.4720  143.4990 C   0  0  0  0  0  0  0  0  0  0  0  0
  186.8970  178.1680  147.3340 C   0  0  0  0  0  2  0  0  0  0  0  0
  188.4000  178.2750  147.1500 C   0  0  2  0  0  3  0  0  0  0  0  0
  189.0460  176.9840  147.6190 C   0  0  2  0  0  3  0  0  0  0  0  0
  189.0780  178.2190  148.5010 C   0  0  0  0  0  2  0  0  0  0  0  0
  190.3640  176.8060  146.9400 C   0  0  0  0  0  0  0  0  0  0  0  0
  191.3650  176.0550  147.5430 O   0  0  0  0  0  1  0  0  0  0  0  0
  190.5880  177.3720  145.8380 O   0  0  0  0  0  0  0  0  0  0  0  0
  1  2  1  0  0  0  0
  2 11  1  1  0  0  0
  3 13  2  0  0  0  0
  3  6  1  0  0  0  0
  4  1  2  0  0  0  0
  4 16  1  0  0  0  0
  5 12  1  0  0  0  0
  6 18  2  0  0  0  0
  7  4  1  0  0  0  0
  8  7  1  0  0  0  0
  8  5  2  0  0  0  0
  9 15  2  0  0  0  0
 10  9  1  0  0  0  0
 11 17  2  0  0  0  0
 12 16  2  0  0  0  0
 13  1  1  0  0  0  0
 14  7  2  0  0  0  0
 14 13  1  0  0  0  0
 15 17  1  0  0  0  0
 17 19  1  0  0  0  0
 18  2  1  0  0  0  0
 18  9  1  0  0  0  0
 20 19  1  1  0  0  0
 20 21  1  0  0  0  0
 20 22  1  0  0  0  0
 21 23  1  6  0  0  0
 21 22  1  0  0  0  0
 23 24  1  0  0  0  0
 25 23  2  0  0  0  0
M  END
>  <MODEL>
2

>  <REMARK>
 VINA RESULT:     -10.8      3.485      6.638
  Name = 
  3 active torsions:
  status: ('A' for Active; 'I' for Inactive)
    1  A    between atoms: C_2  and  C_21
    2  A    between atoms: C_6  and  C_15
    3  A    between atoms: C_6  and  C_23
                            x       y       z     vdW  Elec       q    Type
                         _______ _______ _______ _____ _____    ______ ____

>  <TORSDO>
F 3

$$$$
=
 OpenBabel10262419433D

 25 29  0  0  1  0  0  0  0  0999 V2000
  186.9680  177.7660  144.1590 C   0  0  0  0  0  0  0  0  0  0  0  0
  187.9950  176.9350  143.4560 C   0  0  1  0  0  3  0  0  0  0  0  0
  188.1040  177.7170  146.3050 C   0  0  0  0  0  3  0  0  0  0  0  0
  185.7450  178.1320  143.8200 C   0  0  0  0  0  0  0  0  0  0  0  0
  183.1270  179.0240  143.6320 C   0  0  0  0  0  3  0  0  0  0  0  0
  189.2720  177.1030  145.6250 C   0  0  0  0  0  3  0  0  0  0  0  0
  185.1060  178.6560  144.9400 C   0  0  0  0  0  0  0  0  0  0  0  0
  183.7920  179.1140  144.8660 C   0  0  0  0  0  3  0  0  0  0  0  0
  190.4720  176.3130  143.6260 C   0  0  0  0  0  0  0  0  0  0  0  0
  191.8010  175.5850  144.5130 Cl  0  0  0  0  0  0  0  0  0  0  0  0
  188.3310  177.4340  142.0770 C   0  0  0  0  0  3  0  0  0  0  0  0
  183.7730  178.4760  142.5040 C   0  0  0  0  0  3  0  0  0  0  0  0
  187.0440  178.0440  145.5700 C   0  0  0  0  0  0  0  0  0  0  0  0
  185.8260  178.6280  146.0220 N   0  0  0  0  0  0  0  0  0  0  0  0
  190.5920  176.5050  142.3080 C   0  0  0  0  0  3  0  0  0  0  0  0
  185.0970  178.0160  142.5910 C   0  0  0  0  0  3  0  0  0  0  0  0
  189.5240  177.1730  141.5270 C   0  0  0  0  0  0  0  0  0  0  0  0
  189.2520  176.7840  144.3100 C   0  0  0  0  0  0  0  0  0  0  0  0
  189.7940  177.5910  140.1240 C   0  0  0  0  0  2  0  0  0  0  0  0
  188.6240  178.3940  139.5850 C   0  0  2  0  0  3  0  0  0  0  0  0
  188.0160  177.6500  138.4110 C   0  0  2  0  0  3  0  0  0  0  0  0
  188.9280  178.8390  138.1710 C   0  0  0  0  0  2  0  0  0  0  0  0
  186.5890  178.0570  138.2420 C   0  0  0  0  0  0  0  0  0  0  0  0
  185.9230  178.7130  139.2700 O   0  0  0  0  0  1  0  0  0  0  0  0
  185.9720  177.7690  137.1830 O   0  0  0  0  0  0  0  0  0  0  0  0
  1 13  1  0  0  0  0
  2 11  1  6  0  0  0
  2  1  1  0  0  0  0
  2 18  1  0  0  0  0
  4  1  2  0  0  0  0
  4  7  1  0  0  0  0
  5  8  2  0  0  0  0
  6  3  1  0  0  0  0
  7 14  2  0  0  0  0
  8  7  1  0  0  0  0
  9 18  1  0  0  0  0
  9 10  1  0  0  0  0
 12 16  2  0  0  0  0
 12  5  1  0  0  0  0
 13 14  1  0  0  0  0
 13  3  2  0  0  0  0
 15  9  2  0  0  0  0
 16  4  1  0  0  0  0
 17 11  2  0  0  0  0
 17 15  1  0  0  0  0
 18  6  2  0  0  0  0
 19 17  1  0  0  0  0
 20 19  1  6  0  0  0
 21 23  1  1  0  0  0
 21 20  1  0  0  0  0
 22 21  1  0  0  0  0
 22 20  1  0  0  0  0
 23 24  1  0  0  0  0
 25 23  2  0  0  0  0
M  END
>  <MODEL>
3

>  <REMARK>
 VINA RESULT:     -10.6      1.951      2.557
  Name = 
  3 active torsions:
  status: ('A' for Active; 'I' for Inactive)
    1  A    between atoms: C_2  and  C_21
    2  A    between atoms: C_6  and  C_15
    3  A    between atoms: C_6  and  C_23
                            x       y       z     vdW  Elec       q    Type
                         _______ _______ _______ _____ _____    ______ ____

>  <TORSDO>
F 3

$$$$
=
 OpenBabel10262419433D

 25 29  0  0  1  0  0  0  0  0999 V2000
  189.8560  177.1640  143.3100 C   0  0  0  0  0  0  0  0  0  0  0  0
  189.9000  177.6900  144.7110 C   0  0  1  0  0  3  0  0  0  0  0  0
  191.7700  175.6950  143.5860 C   0  0  0  0  0  3  0  0  0  0  0  0
  189.2080  177.5730  142.2330 C   0  0  0  0  0  0  0  0  0  0  0  0
  188.1960  178.1090  139.7090 C   0  0  0  0  0  3  0  0  0  0  0  0
  191.7270  175.9840  145.0410 C   0  0  0  0  0  3  0  0  0  0  0  0
  189.7290  176.9170  141.1210 C   0  0  0  0  0  0  0  0  0  0  0  0
  189.2310  177.1690  139.8450 C   0  0  0  0  0  3  0  0  0  0  0  0
  190.7250  177.0160  147.0380 C   0  0  0  0  0  0  0  0  0  0  0  0
  192.0360  176.5810  148.1210 Cl  0  0  0  0  0  0  0  0  0  0  0  0
  188.5440  177.8150  145.3500 C   0  0  0  0  0  3  0  0  0  0  0  0
  187.6850  178.7840  140.8370 C   0  0  0  0  0  3  0  0  0  0  0  0
  190.8470  176.2500  142.8050 C   0  0  0  0  0  0  0  0  0  0  0  0
  190.7150  176.1150  141.3930 N   0  0  0  0  0  0  0  0  0  0  0  0
  189.5650  177.4410  147.5520 C   0  0  0  0  0  3  0  0  0  0  0  0
  188.1950  178.5230  142.1190 C   0  0  0  0  0  3  0  0  0  0  0  0
  188.4080  177.7600  146.6820 C   0  0  0  0  0  0  0  0  0  0  0  0
  190.8450  176.8590  145.5750 C   0  0  0  0  0  0  0  0  0  0  0  0
  187.0700  177.9860  147.2930 C   0  0  0  0  0  2  0  0  0  0  0  0
  185.9820  177.7940  146.2530 C   0  0  2  0  0  3  0  0  0  0  0  0
  185.4760  179.1550  145.8140 C   0  0  2  0  0  3  0  0  0  0  0  0
  184.6710  178.3210  146.7940 C   0  0  0  0  0  2  0  0  0  0  0  0
  184.8820  179.0540  144.4480 C   0  0  0  0  0  0  0  0  0  0  0  0
  185.2130  177.9890  143.6190 O   0  0  0  0  0  0  0  0  0  0  0  0
  184.1120  179.9560  144.0260 O   0  0  0  0  0  1  0  0  0  0  0  0
  1  2  1  0  0  0  0
  2 11  1  1  0  0  0
  2 18  1  0  0  0  0
  3  6  1  0  0  0  0
  4  1  2  0  0  0  0
  5  8  2  0  0  0  0
  5 12  1  0  0  0  0
  6 18  2  0  0  0  0
  7 14  2  0  0  0  0
  7  4  1  0  0  0  0
  8  7  1  0  0  0  0
  9 15  2  0  0  0  0
  9 10  1  0  0  0  0
 11 17  2  0  0  0  0
 12 16  2  0  0  0  0
 13  1  1  0  0  0  0
 13  3  2  0  0  0  0
 14 13  1  0  0  0  0
 16  4  1  0  0  0  0
 17 19  1  0  0  0  0
 17 15  1  0  0  0  0
 18  9  1  0  0  0  0
 20 22  1  0  0  0  0
 20 19  1  1  0  0  0
 21 23  1  6  0  0  0
 21 20  1  0  0  0  0
 21 22  1  0  0  0  0
 24 23  2  0  0  0  0
 25 23  1  0  0  0  0
M  END
>  <MODEL>
4

>  <REMARK>
 VINA RESULT:     -10.1      3.085      5.698
  Name = 
  3 active torsions:
  status: ('A' for Active; 'I' for Inactive)
    1  A    between atoms: C_2  and  C_21
    2  A    between atoms: C_6  and  C_15
    3  A    between atoms: C_6  and  C_23
                            x       y       z     vdW  Elec       q    Type
                         _______ _______ _______ _____ _____    ______ ____

>  <TORSDO>
F 3

$$$$
=
 OpenBabel10262419433D

 25 29  0  0  1  0  0  0  0  0999 V2000
  186.8320  177.7850  144.0930 C   0  0  0  0  0  0  0  0  0  0  0  0
  187.8110  177.0420  143.2400 C   0  0  0  0  0  0  0  0  0  0  0  0
  188.1120  177.5280  146.1400 C   0  0  0  0  0  3  0  0  0  0  0  0
  185.5870  178.1720  143.8770 C   0  0  0  0  0  0  0  0  0  0  0  0
  182.9590  179.0510  143.9600 C   0  0  0  0  0  3  0  0  0  0  0  0
  189.2320  176.9980  145.3230 C   0  0  0  0  0  3  0  0  0  0  0  0
  185.0250  178.5710  145.0860 C   0  0  0  0  0  0  0  0  0  0  0  0
  183.7080  179.0210  145.1490 C   0  0  0  0  0  3  0  0  0  0  0  0
  190.2960  176.4300  143.1770 C   0  0  0  0  0  0  0  0  0  0  0  0
  191.6850  175.6290  143.8910 Cl  0  0  0  0  0  0  0  0  0  0  0  0
  188.0500  177.6830  141.9000 C   0  0  0  0  0  2  0  0  0  0  0  0
  183.5290  178.6280  142.7410 C   0  0  0  0  0  3  0  0  0  0  0  0
  187.0040  177.9170  145.5170 C   0  0  0  0  0  0  0  0  0  0  0  0
  185.8170  178.4390  146.1080 N   0  0  0  0  0  0  0  0  0  0  0  0
  190.3250  176.7580  141.8800 C   0  0  0  0  0  3  0  0  0  0  0  0
  184.8570  178.1760  142.6900 C   0  0  0  0  0  3  0  0  0  0  0  0
  189.2040  177.4910  141.2460 C   0  0  0  0  0  0  0  0  0  0  0  0
  189.1240  176.8160  143.9870 C   0  0  0  0  0  0  0  0  0  0  0  0
  189.3750  178.0550  139.8790 C   0  0  0  0  0  2  0  0  0  0  0  0
  189.3750  176.9380  138.8510 C   0  0  2  0  0  3  0  0  0  0  0  0
  190.5570  177.1290  137.9190 C   0  0  2  0  0  3  0  0  0  0  0  0
  189.1620  177.5240  137.4730 C   0  0  0  0  0  2  0  0  0  0  0  0
  190.9360  175.8180  137.3130 C   0  0  0  0  0  0  0  0  0  0  0  0
  190.6320  174.6310  137.9680 O   0  0  0  0  0  1  0  0  0  0  0  0
  191.5700  175.7840  136.2260 O   0  0  0  0  0  0  0  0  0  0  0  0
  1 13  1  0  0  0  0
  2 18  1  0  0  0  0
  2  1  2  0  0  0  0
  4  1  1  0  0  0  0
  4  7  1  0  0  0  0
  5  8  1  0  0  0  0
  6  3  2  0  0  0  0
  7  8  2  0  0  0  0
  7 14  1  0  0  0  0
  9 10  1  0  0  0  0
  9 18  2  0  0  0  0
 11  2  1  0  0  0  0
 12  5  2  0  0  0  0
 13 14  2  0  0  0  0
 13  3  1  0  0  0  0
 15  9  1  0  0  0  0
 16 12  1  0  0  0  0
 16  4  2  0  0  0  0
 17 15  2  0  0  0  0
 17 11  1  0  0  0  0
 18  6  1  0  0  0  0
 19 17  1  0  0  0  0
 20 19  1  1  0  0  0
 21 23  1  6  0  0  0
 21 20  1  0  0  0  0
 22 21  1  0  0  0  0
 22 20  1  0  0  0  0
 23 24  1  0  0  0  0
 25 23  2  0  0  0  0
M  END
>  <MODEL>
5

>  <REMARK>
 VINA RESULT:     -10.1      1.423      2.276
  Name = 
  3 active torsions:
  status: ('A' for Active; 'I' for Inactive)
    1  A    between atoms: C_2  and  C_21
    2  A    between atoms: C_6  and  C_15
    3  A    between atoms: C_6  and  C_23
                            x       y       z     vdW  Elec       q    Type
                         _______ _______ _______ _____ _____    ______ ____

>  <TORSDO>
F 3

$$$$
=
 OpenBabel10262419433D

 25 29  0  0  1  0  0  0  0  0999 V2000
  187.4460  178.0140  142.3080 C   0  0  0  0  0  0  0  0  0  0  0  0
  187.1420  177.5100  143.6830 C   0  0  1  0  0  3  0  0  0  0  0  0
  185.3380  179.1920  142.0530 C   0  0  0  0  0  3  0  0  0  0  0  0
  188.3830  177.6880  141.4340 C   0  0  0  0  0  0  0  0  0  0  0  0
  190.0330  177.2650  139.2470 C   0  0  0  0  0  3  0  0  0  0  0  0
  185.0700  178.9350  143.4900 C   0  0  0  0  0  3  0  0  0  0  0  0
  188.0570  178.2430  140.2000 C   0  0  0  0  0  0  0  0  0  0  0  0
  188.8760  178.0460  139.0900 C   0  0  0  0  0  3  0  0  0  0  0  0
  185.6990  178.0930  145.7160 C   0  0  0  0  0  0  0  0  0  0  0  0
  184.1200  178.3490  146.4380 Cl  0  0  0  0  0  0  0  0  0  0  0  0
  188.3090  177.5950  144.6280 C   0  0  0  0  0  3  0  0  0  0  0  0
  190.3480  176.6900  140.4970 C   0  0  0  0  0  3  0  0  0  0  0  0
  186.4880  178.7650  141.5380 C   0  0  0  0  0  0  0  0  0  0  0  0
  186.9330  178.8960  140.1920 N   0  0  0  0  0  0  0  0  0  0  0  0
  186.7500  177.8510  146.5080 C   0  0  0  0  0  3  0  0  0  0  0  0
  189.5150  176.8940  141.6080 C   0  0  0  0  0  3  0  0  0  0  0  0
  188.1140  177.6910  145.9500 C   0  0  0  0  0  0  0  0  0  0  0  0
  185.9120  178.2080  144.2590 C   0  0  0  0  0  0  0  0  0  0  0  0
  189.2850  177.6730  146.8690 C   0  0  0  0  0  2  0  0  0  0  0  0
  190.5740  177.6100  146.0700 C   0  0  2  0  0  3  0  0  0  0  0  0
  190.8310  176.1700  145.6660 C   0  0  2  0  0  3  0  0  0  0  0  0
  191.5930  176.7860  146.8250 C   0  0  0  0  0  2  0  0  0  0  0  0
  191.6940  176.1360  144.4470 C   0  0  0  0  0  0  0  0  0  0  0  0
  191.9360  177.3010  143.7310 O   0  0  0  0  0  0  0  0  0  0  0  0
  192.1690  175.0430  144.0400 O   0  0  0  0  0  1  0  0  0  0  0  0
  1  2  1  0  0  0  0
  2 18  1  0  0  0  0
  2 11  1  1  0  0  0
  3  6  1  0  0  0  0
  4 16  1  0  0  0  0
  4  1  2  0  0  0  0
  5 12  1  0  0  0  0
  6 18  2  0  0  0  0
  7  4  1  0  0  0  0
  8  5  2  0  0  0  0
  8  7  1  0  0  0  0
  9 10  1  0  0  0  0
  9 15  2  0  0  0  0
 11 17  2  0  0  0  0
 12 16  2  0  0  0  0
 13  3  2  0  0  0  0
 13  1  1  0  0  0  0
 14  7  2  0  0  0  0
 14 13  1  0  0  0  0
 17 15  1  0  0  0  0
 17 19  1  0  0  0  0
 18  9  1  0  0  0  0
 20 22  1  0  0  0  0
 20 19  1  1  0  0  0
 21 23  1  6  0  0  0
 21 20  1  0  0  0  0
 21 22  1  0  0  0  0
 24 23  2  0  0  0  0
 25 23  1  0  0  0  0
M  END
>  <MODEL>
6

>  <REMARK>
 VINA RESULT:      -9.8      2.887      5.596
  Name = 
  3 active torsions:
  status: ('A' for Active; 'I' for Inactive)
    1  A    between atoms: C_2  and  C_21
    2  A    between atoms: C_6  and  C_15
    3  A    between atoms: C_6  and  C_23
                            x       y       z     vdW  Elec       q    Type
                         _______ _______ _______ _____ _____    ______ ____

>  <TORSDO>
F 3

$$$$
=
 OpenBabel10262419433D

 25 29  0  0  1  0  0  0  0  0999 V2000
  189.2050  177.4420  143.7560 C   0  0  0  0  0  0  0  0  0  0  0  0
  188.5190  178.2170  144.8380 C   0  0  1  0  0  3  0  0  0  0  0  0
  190.7400  176.3110  145.2600 C   0  0  0  0  0  3  0  0  0  0  0  0
  189.1880  177.5580  142.4400 C   0  0  0  0  0  0  0  0  0  0  0  0
  189.5930  177.4870  139.6980 C   0  0  0  0  0  3  0  0  0  0  0  0
  189.9560  176.8530  146.3980 C   0  0  0  0  0  3  0  0  0  0  0  0
  190.2160  176.7840  141.9080 C   0  0  0  0  0  0  0  0  0  0  0  0
  190.4330  176.7300  140.5330 C   0  0  0  0  0  3  0  0  0  0  0  0
  188.0560  178.0940  147.3520 C   0  0  0  0  0  0  0  0  0  0  0  0
  188.6410  178.0390  149.0060 Cl  0  0  0  0  0  0  0  0  0  0  0  0
  187.0250  178.2780  144.6790 C   0  0  0  0  0  3  0  0  0  0  0  0
  188.5650  178.2840  140.2440 C   0  0  0  0  0  3  0  0  0  0  0  0
  190.3330  176.5890  144.0240 C   0  0  0  0  0  0  0  0  0  0  0  0
  190.9420  176.1810  142.8020 N   0  0  0  0  0  0  0  0  0  0  0  0
  186.7880  178.4500  147.1170 C   0  0  0  0  0  3  0  0  0  0  0  0
  188.3570  178.3310  141.6320 C   0  0  0  0  0  3  0  0  0  0  0  0
  186.2300  178.4510  145.7440 C   0  0  0  0  0  0  0  0  0  0  0  0
  188.9080  177.6880  146.2160 C   0  0  0  0  0  0  0  0  0  0  0  0
  184.7630  178.6080  145.5480 C   0  0  0  0  0  2  0  0  0  0  0  0
  184.3760  178.1890  144.1420 C   0  0  2  0  0  3  0  0  0  0  0  0
  184.4500  179.4000  143.2310 C   0  0  2  0  0  3  0  0  0  0  0  0
  183.1070  178.9050  143.7350 C   0  0  0  0  0  2  0  0  0  0  0  0
  184.6620  178.9560  141.8210 C   0  0  0  0  0  0  0  0  0  0  0  0
  184.1980  177.7160  141.4010 O   0  0  0  0  0  1  0  0  0  0  0  0
  185.3010  179.6870  141.0190 O   0  0  0  0  0  0  0  0  0  0  0  0
  1 13  1  0  0  0  0
  1  2  1  0  0  0  0
  2 11  1  6  0  0  0
  2 18  1  0  0  0  0
  3  6  1  0  0  0  0
  4  1  2  0  0  0  0
  5 12  1  0  0  0  0
  5  8  2  0  0  0  0
  7  4  1  0  0  0  0
  7 14  2  0  0  0  0
  8  7  1  0  0  0  0
  9 10  1  0  0  0  0
 11 17  2  0  0  0  0
 12 16  2  0  0  0  0
 13  3  2  0  0  0  0
 14 13  1  0  0  0  0
 15  9  2  0  0  0  0
 16  4  1  0  0  0  0
 17 15  1  0  0  0  0
 18  6  2  0  0  0  0
 18  9  1  0  0  0  0
 19 17  1  0  0  0  0
 20 19  1  1  0  0  0
 21 23  1  6  0  0  0
 21 22  1  0  0  0  0
 21 20  1  0  0  0  0
 22 20  1  0  0  0  0
 24 23  1  0  0  0  0
 25 23  2  0  0  0  0
M  END
>  <MODEL>
7

>  <REMARK>
 VINA RESULT:      -9.7      2.687      5.488
  Name = 
  3 active torsions:
  status: ('A' for Active; 'I' for Inactive)
    1  A    between atoms: C_2  and  C_21
    2  A    between atoms: C_6  and  C_15
    3  A    between atoms: C_6  and  C_23
                            x       y       z     vdW  Elec       q    Type
                         _______ _______ _______ _____ _____    ______ ____

>  <TORSDO>
F 3

$$$$
=
 OpenBabel10262419433D

 25 29  0  0  1  0  0  0  0  0999 V2000
  186.0000  178.4400  142.4300 C   0  0  0  0  0  0  0  0  0  0  0  0
  187.3070  178.5850  141.7160 C   0  0  0  0  0  0  0  0  0  0  0  0
  184.6480  178.6710  140.4270 C   0  0  0  0  0  3  0  0  0  0  0  0
  185.6860  178.4790  143.7130 C   0  0  0  0  0  0  0  0  0  0  0  0
  184.5190  178.6220  146.2240 C   0  0  0  0  0  3  0  0  0  0  0  0
  185.8950  178.5800  139.6260 C   0  0  0  0  0  3  0  0  0  0  0  0
  184.3020  178.5790  143.8330 C   0  0  1  0  0  3  0  0  0  0  0  0
  183.6960  178.6470  145.0850 C   0  0  0  0  0  3  0  0  0  0  0  0
  188.3230  178.2530  139.3900 C   0  0  0  0  0  0  0  0  0  0  0  0
  188.3750  178.6500  137.6810 Cl  0  0  0  0  0  0  0  0  0  0  0  0
  188.3630  177.6250  142.1910 C   0  0  0  0  0  3  0  0  0  0  0  0
  185.9220  178.5400  146.0960 C   0  0  0  0  0  3  0  0  0  0  0  0
  184.7380  178.5710  141.7500 C   0  0  0  0  0  0  0  0  0  0  0  0
  183.6750  178.6430  142.6960 N   0  0  0  0  0  0  0  0  0  0  0  0
  189.3810  177.6610  139.9570 C   0  0  0  0  0  3  0  0  0  0  0  0
  186.5220  178.4730  144.8280 C   0  0  0  0  0  3  0  0  0  0  0  0
  189.3620  177.2500  141.3800 C   0  0  0  0  0  0  0  0  0  0  0  0
  187.1150  178.4920  140.2040 C   0  0  0  0  0  0  0  0  0  0  0  0
  190.4470  176.3780  141.9070 C   0  0  0  0  0  2  0  0  0  0  0  0
  190.3020  176.2140  143.4090 C   0  0  2  0  0  3  0  0  0  0  0  0
  191.3590  177.0560  144.0990 C   0  0  2  0  0  3  0  0  0  0  0  0
  191.5460  175.5560  143.9650 C   0  0  0  0  0  2  0  0  0  0  0  0
  190.9080  177.3930  145.4820 C   0  0  0  0  0  0  0  0  0  0  0  0
  191.7310  177.1280  146.5700 O   0  0  0  0  0  1  0  0  0  0  0  0
  189.7630  177.8800  145.6720 O   0  0  0  0  0  0  0  0  0  0  0  0
  1  4  2  0  0  0  0
  2 11  1  0  0  0  0
  2  1  1  0  0  0  0
  3 13  1  0  0  0  0
  4  7  1  0  0  0  0
  4 16  1  0  0  0  0
  6 18  1  0  0  0  0
  6  3  2  0  0  0  0
  7  8  1  1  0  0  0
  8  5  2  0  0  0  0
  9 15  2  0  0  0  0
  9 18  1  0  0  0  0
 10  9  1  0  0  0  0
 12  5  1  0  0  0  0
 13  1  1  0  0  0  0
 13 14  2  0  0  0  0
 14  7  1  0  0  0  0
 15 17  1  0  0  0  0
 16 12  2  0  0  0  0
 17 19  1  0  0  0  0
 17 11  2  0  0  0  0
 18  2  2  0  0  0  0
 20 19  1  6  0  0  0
 20 22  1  0  0  0  0
 20 21  1  0  0  0  0
 21 23  1  1  0  0  0
 22 21  1  0  0  0  0
 23 25  2  0  0  0  0
 23 24  1  0  0  0  0
M  END
>  <MODEL>
8

>  <REMARK>
 VINA RESULT:      -9.4      3.423      5.359
  Name = 
  3 active torsions:
  status: ('A' for Active; 'I' for Inactive)
    1  A    between atoms: C_2  and  C_21
    2  A    between atoms: C_6  and  C_15
    3  A    between atoms: C_6  and  C_23
                            x       y       z     vdW  Elec       q    Type
                         _______ _______ _______ _____ _____    ______ ____

>  <TORSDO>
F 3

$$$$
=
 OpenBabel10262419433D

 25 29  0  0  1  0  0  0  0  0999 V2000
  188.3050  177.6060  142.7870 C   0  0  0  0  0  0  0  0  0  0  0  0
  187.1740  178.3830  143.3850 C   0  0  1  0  0  3  0  0  0  0  0  0
  189.1400  176.7930  144.9170 C   0  0  0  0  0  3  0  0  0  0  0  0
  188.8350  177.6080  141.5770 C   0  0  0  0  0  0  0  0  0  0  0  0
  190.3600  177.3540  139.2760 C   0  0  0  0  0  3  0  0  0  0  0  0
  187.9140  177.3340  145.5560 C   0  0  0  0  0  3  0  0  0  0  0  0
  190.0430  176.9170  141.6150 C   0  0  0  0  0  0  0  0  0  0  0  0
  190.8220  176.7740  140.4690 C   0  0  0  0  0  3  0  0  0  0  0  0
  185.7060  178.4190  145.4810 C   0  0  0  0  0  0  0  0  0  0  0  0
  185.5420  178.5730  147.2220 Cl  0  0  0  0  0  0  0  0  0  0  0  0
  185.8850  178.2560  142.6200 C   0  0  0  0  0  3  0  0  0  0  0  0
  189.1450  178.0680  139.2470 C   0  0  0  0  0  3  0  0  0  0  0  0
  189.2730  176.9160  143.5990 C   0  0  0  0  0  0  0  0  0  0  0  0
  190.3670  176.4810  142.7970 N   0  0  0  0  0  0  0  0  0  0  0  0
  184.6330  178.6040  144.7040 C   0  0  0  0  0  3  0  0  0  0  0  0
  188.3680  178.2070  140.4080 C   0  0  0  0  0  3  0  0  0  0  0  0
  184.7060  178.4230  143.2350 C   0  0  0  0  0  0  0  0  0  0  0  0
  186.9830  178.0220  144.8560 C   0  0  0  0  0  0  0  0  0  0  0  0
  183.4510  178.3900  142.4360 C   0  0  0  0  0  2  0  0  0  0  0  0
  183.7640  178.5750  140.9620 C   0  0  2  0  0  3  0  0  0  0  0  0
  182.5030  179.0150  140.2430 C   0  0  2  0  0  3  0  0  0  0  0  0
  182.9720  177.5750  140.1500 C   0  0  0  0  0  2  0  0  0  0  0  0
  182.8670  179.7530  138.9970 C   0  0  0  0  0  0  0  0  0  0  0  0
  184.0690  180.4450  138.9200 O   0  0  0  0  0  1  0  0  0  0  0  0
  182.0660  179.7860  138.0260 O   0  0  0  0  0  0  0  0  0  0  0  0
  1  2  1  0  0  0  0
  1 13  1  0  0  0  0
  2 11  1  6  0  0  0
  2 18  1  0  0  0  0
  3  6  1  0  0  0  0
  4  7  1  0  0  0  0
  4  1  2  0  0  0  0
  5  8  2  0  0  0  0
  7 14  2  0  0  0  0
  8  7  1  0  0  0  0
  9 10  1  0  0  0  0
 11 17  2  0  0  0  0
 12  5  1  0  0  0  0
 12 16  2  0  0  0  0
 13  3  2  0  0  0  0
 14 13  1  0  0  0  0
 15  9  2  0  0  0  0
 16  4  1  0  0  0  0
 17 15  1  0  0  0  0
 18  9  1  0  0  0  0
 18  6  2  0  0  0  0
 19 17  1  0  0  0  0
 20 19  1  1  0  0  0
 21 23  1  6  0  0  0
 21 20  1  0  0  0  0
 22 21  1  0  0  0  0
 22 20  1  0  0  0  0
 24 23  1  0  0  0  0
 25 23  2  0  0  0  0
M  END
>  <MODEL>
9

>  <REMARK>
 VINA RESULT:      -9.3      3.337      6.198
  Name = 
  3 active torsions:
  status: ('A' for Active; 'I' for Inactive)
    1  A    between atoms: C_2  and  C_21
    2  A    between atoms: C_6  and  C_15
    3  A    between atoms: C_6  and  C_23
                            x       y       z     vdW  Elec       q    Type
                         _______ _______ _______ _____ _____    ______ ____

>  <TORSDO>
F 3

$$$$
