=
 OpenBabel10262423233D

 34 37  0  0  0  0  0  0  0  0999 V2000
  187.7520  177.9040  143.5680 C   0  0  0  0  0  0  0  0  0  0  0  0
  184.4540  178.4160  145.2200 C   0  0  0  0  0  3  0  0  0  0  0  0
  186.5520  177.6100  146.1000 C   0  0  0  0  0  3  0  0  0  0  0  0
  189.2210  177.3340  141.7100 C   0  0  0  0  0  0  0  0  0  0  0  0
  188.3500  178.1140  142.2750 N   0  0  0  0  0  0  0  0  0  0  0  0
  190.5140  176.2910  143.5480 C   0  0  0  0  0  2  0  0  0  0  0  0
  190.8140  177.6210  145.6170 C   0  0  0  0  0  1  0  0  0  0  0  0
  189.5980  176.0390  142.3610 C   0  0  0  0  0  2  0  0  0  0  0  0
  189.7470  177.7130  140.4300 N   0  0  0  0  0  2  0  0  0  0  0  0
  187.8970  177.2940  145.9220 C   0  0  0  0  0  3  0  0  0  0  0  0
  188.5120  177.4310  144.6680 C   0  0  0  0  0  0  0  0  0  0  0  0
  189.9270  177.1790  144.5530 N   0  0  0  0  0  0  0  0  0  0  0  0
  183.6940  178.9060  144.1510 C   0  0  0  0  0  0  0  0  0  0  0  0
  184.2810  179.0690  142.8940 C   0  0  0  0  0  3  0  0  0  0  0  0
  185.7990  178.0860  145.0300 C   0  0  0  0  0  0  0  0  0  0  0  0
  185.6250  178.7410  142.6980 C   0  0  0  0  0  3  0  0  0  0  0  0
  186.4000  178.2480  143.7590 C   0  0  0  0  0  0  0  0  0  0  0  0
  193.1210  176.7640  139.1680 C   0  0  0  0  0  3  0  0  0  0  0  0
  190.4560  176.0880  138.6880 C   0  0  0  0  0  3  0  0  0  0  0  0
  192.8160  175.7940  138.2070 C   0  0  0  0  0  0  0  0  0  0  0  0
  191.4700  175.4620  137.9580 C   0  0  0  0  0  0  0  0  0  0  0  0
  190.7610  177.0600  139.6530 C   0  0  0  0  0  0  0  0  0  0  0  0
  192.0990  177.3900  139.8880 C   0  0  0  0  0  3  0  0  0  0  0  0
  191.0940  174.4240  136.9520 C   0  0  0  0  0  2  0  0  0  0  0  0
  190.0770  173.6180  137.4650 O   0  0  0  0  0  1  0  0  0  0  0  0
  193.9330  175.1580  137.4460 C   0  0  0  0  0  2  0  0  0  0  0  0
  194.5380  174.0240  138.2590 C   0  0  0  0  0  2  0  0  0  0  0  0
  195.9130  174.3900  138.7100 C   0  0  0  0  0  0  0  0  0  0  0  0
  197.0870  174.0580  137.8530 C   0  0  0  0  0  1  0  0  0  0  0  0
  196.0790  174.9800  139.7650 O   0  0  0  0  0  0  0  0  0  0  0  0
  182.2600  179.2700  144.3560 C   0  0  0  0  0  2  0  0  0  0  0  0
  180.0990  178.0430  144.1520 C   0  0  0  0  0  1  0  0  0  0  0  0
  180.9640  179.3550  142.2480 C   0  0  0  0  0  1  0  0  0  0  0  0
  181.3540  178.4820  143.4230 C   0  0  0  0  0  3  0  0  0  0  0  0
  1 17  2  0  0  0  0
  1 11  1  0  0  0  0
  4  5  2  0  0  0  0
  4  8  1  0  0  0  0
  5  1  1  0  0  0  0
  6 12  1  0  0  0  0
  8  6  1  0  0  0  0
  9  4  1  0  0  0  0
 10  3  1  0  0  0  0
 11 10  2  0  0  0  0
 12 11  1  0  0  0  0
 12  7  1  0  0  0  0
 13 31  1  0  0  0  0
 13  2  2  0  0  0  0
 14 13  1  0  0  0  0
 15  2  1  0  0  0  0
 15  3  2  0  0  0  0
 16 14  2  0  0  0  0
 16 17  1  0  0  0  0
 17 15  1  0  0  0  0
 18 23  1  0  0  0  0
 19 22  1  0  0  0  0
 20 18  2  0  0  0  0
 21 20  1  0  0  0  0
 21 19  2  0  0  0  0
 22 23  2  0  0  0  0
 22  9  1  0  0  0  0
 24 25  1  0  0  0  0
 24 21  1  0  0  0  0
 26 20  1  0  0  0  0
 26 27  1  0  0  0  0
 27 28  1  0  0  0  0
 28 30  2  0  0  0  0
 29 28  1  0  0  0  0
 33 34  1  0  0  0  0
 34 32  1  0  0  0  0
 34 31  1  0  0  0  0
M  END
>  <MODEL>
1

>  <REMARK>
 VINA RESULT:      -9.2      0.000      0.000
  Name = 
  7 active torsions:
  status: ('A' for Active; 'I' for Inactive)
    1  A    between atoms: C_7  and  C_11
    2  A    between atoms: C_7  and  C_14
    3  A    between atoms: C_14  and  C_16
    4  A    between atoms: N_18  and  C_30
    5  A    between atoms: C_23  and  C_24
    6  A    between atoms: C_23  and  C_25
    7  A    between atoms: C_26  and  C_28
                            x       y       z     vdW  Elec       q    Type
                         _______ _______ _______ _____ _____    ______ ____

>  <TORSDO>
F 7

$$$$
=
 OpenBabel10262423233D

 34 37  0  0  0  0  0  0  0  0999 V2000
  191.6280  176.6400  138.2000 C   0  0  0  0  0  0  0  0  0  0  0  0
  193.4870  174.9800  135.4330 C   0  0  0  0  0  3  0  0  0  0  0  0
  191.3250  176.0530  135.4600 C   0  0  0  0  0  3  0  0  0  0  0  0
  190.9250  176.9410  140.5130 C   0  0  0  0  0  0  0  0  0  0  0  0
  191.8350  176.9700  139.5860 N   0  0  0  0  0  0  0  0  0  0  0  0
  188.7770  177.4600  139.3950 C   0  0  0  0  0  2  0  0  0  0  0  0
  188.8600  178.9630  137.4250 C   0  0  0  0  0  1  0  0  0  0  0  0
  189.5540  176.4300  140.1980 C   0  0  0  0  0  2  0  0  0  0  0  0
  191.2940  177.3400  141.8410 N   0  0  0  0  0  2  0  0  0  0  0  0
  190.3280  176.7470  136.1420 C   0  0  0  0  0  3  0  0  0  0  0  0
  190.4580  177.0460  137.5070 C   0  0  0  0  0  0  0  0  0  0  0  0
  189.4430  177.8440  138.1480 N   0  0  0  0  0  0  0  0  0  0  0  0
  194.6570  174.5910  136.0940 C   0  0  0  0  0  0  0  0  0  0  0  0
  194.8260  174.8880  137.4490 C   0  0  0  0  0  3  0  0  0  0  0  0
  192.4820  175.6610  136.1270 C   0  0  0  0  0  0  0  0  0  0  0  0
  193.8260  175.5690  138.1490 C   0  0  0  0  0  3  0  0  0  0  0  0
  192.6470  175.9640  137.5000 C   0  0  0  0  0  0  0  0  0  0  0  0
  188.2950  178.0500  143.9350 C   0  0  0  0  0  3  0  0  0  0  0  0
  190.8950  177.0950  144.2820 C   0  0  0  0  0  3  0  0  0  0  0  0
  188.7320  177.6840  145.2130 C   0  0  0  0  0  0  0  0  0  0  0  0
  190.0480  177.2120  145.3890 C   0  0  0  0  0  0  0  0  0  0  0  0
  190.4560  177.4600  143.0010 C   0  0  0  0  0  0  0  0  0  0  0  0
  189.1510  177.9350  142.8370 C   0  0  0  0  0  3  0  0  0  0  0  0
  190.5570  176.7970  146.7300 C   0  0  0  0  0  2  0  0  0  0  0  0
  191.9480  176.9110  146.7610 O   0  0  0  0  0  1  0  0  0  0  0  0
  187.7940  177.8350  146.3660 C   0  0  0  0  0  2  0  0  0  0  0  0
  186.3740  177.5150  145.9270 C   0  0  0  0  0  2  0  0  0  0  0  0
  185.4980  178.7100  146.1070 C   0  0  0  0  0  0  0  0  0  0  0  0
  184.5000  179.0620  145.0580 C   0  0  0  0  0  1  0  0  0  0  0  0
  185.5780  179.3860  147.1200 O   0  0  0  0  0  0  0  0  0  0  0  0
  195.7360  173.8740  135.3500 C   0  0  0  0  0  2  0  0  0  0  0  0
  198.1900  173.4310  135.3640 C   0  0  0  0  0  1  0  0  0  0  0  0
  197.3410  175.6950  134.8660 C   0  0  0  0  0  1  0  0  0  0  0  0
  197.1060  174.4430  135.6840 C   0  0  0  0  0  3  0  0  0  0  0  0
  1  5  1  0  0  0  0
  2 13  2  0  0  0  0
  2 15  1  0  0  0  0
  3 15  2  0  0  0  0
  3 10  1  0  0  0  0
  4  9  1  0  0  0  0
  5  4  2  0  0  0  0
  6  8  1  0  0  0  0
  7 12  1  0  0  0  0
  8  4  1  0  0  0  0
  9 22  1  0  0  0  0
 10 11  2  0  0  0  0
 11 12  1  0  0  0  0
 11  1  1  0  0  0  0
 12  6  1  0  0  0  0
 13 14  1  0  0  0  0
 14 16  2  0  0  0  0
 15 17  1  0  0  0  0
 17 16  1  0  0  0  0
 17  1  2  0  0  0  0
 18 20  1  0  0  0  0
 19 21  1  0  0  0  0
 20 21  2  0  0  0  0
 20 26  1  0  0  0  0
 21 24  1  0  0  0  0
 22 19  2  0  0  0  0
 23 22  1  0  0  0  0
 23 18  2  0  0  0  0
 24 25  1  0  0  0  0
 27 28  1  0  0  0  0
 27 26  1  0  0  0  0
 28 30  2  0  0  0  0
 29 28  1  0  0  0  0
 31 34  1  0  0  0  0
 31 13  1  0  0  0  0
 32 34  1  0  0  0  0
 33 34  1  0  0  0  0
M  END
>  <MODEL>
2

>  <REMARK>
 VINA RESULT:      -8.3      3.081     10.923
  Name = 
  7 active torsions:
  status: ('A' for Active; 'I' for Inactive)
    1  A    between atoms: C_7  and  C_11
    2  A    between atoms: C_7  and  C_14
    3  A    between atoms: C_14  and  C_16
    4  A    between atoms: N_18  and  C_30
    5  A    between atoms: C_23  and  C_24
    6  A    between atoms: C_23  and  C_25
    7  A    between atoms: C_26  and  C_28
                            x       y       z     vdW  Elec       q    Type
                         _______ _______ _______ _____ _____    ______ ____

>  <TORSDO>
F 7

$$$$
=
 OpenBabel10262423233D

 34 37  0  0  0  0  0  0  0  0999 V2000
  187.4680  178.1060  142.9200 C   0  0  0  0  0  0  0  0  0  0  0  0
  184.4220  178.4440  145.0350 C   0  0  0  0  0  3  0  0  0  0  0  0
  186.6940  177.8750  145.6200 C   0  0  0  0  0  3  0  0  0  0  0  0
  188.6880  177.5430  140.8880 C   0  0  0  0  0  0  0  0  0  0  0  0
  187.8430  178.2820  141.5410 N   0  0  0  0  0  0  0  0  0  0  0  0
  190.3330  176.7330  142.5540 C   0  0  0  0  0  2  0  0  0  0  0  0
  190.8160  178.2150  144.4810 C   0  0  0  0  0  1  0  0  0  0  0  0
  189.2770  176.3290  141.5380 C   0  0  0  0  0  2  0  0  0  0  0  0
  188.9780  177.8820  139.5240 N   0  0  0  0  0  2  0  0  0  0  0  0
  188.0210  177.6640  145.2510 C   0  0  0  0  0  3  0  0  0  0  0  0
  188.4260  177.7700  143.9120 C   0  0  0  0  0  0  0  0  0  0  0  0
  189.8240  177.6320  143.5910 N   0  0  0  0  0  0  0  0  0  0  0  0
  183.4680  178.7980  144.0740 C   0  0  0  0  0  0  0  0  0  0  0  0
  183.8420  178.9290  142.7340 C   0  0  0  0  0  3  0  0  0  0  0  0
  185.7480  178.2170  144.6570 C   0  0  0  0  0  0  0  0  0  0  0  0
  185.1660  178.7030  142.3490 C   0  0  0  0  0  3  0  0  0  0  0  0
  186.1330  178.3470  143.3010 C   0  0  0  0  0  0  0  0  0  0  0  0
  190.3940  176.3620  136.4320 C   0  0  0  0  0  3  0  0  0  0  0  0
  191.2460  177.0040  139.0110 C   0  0  0  0  0  3  0  0  0  0  0  0
  191.7170  176.1020  136.8080 C   0  0  0  0  0  0  0  0  0  0  0  0
  192.1430  176.4160  138.1130 C   0  0  0  0  0  0  0  0  0  0  0  0
  189.9210  177.2670  138.6330 C   0  0  0  0  0  0  0  0  0  0  0  0
  189.5040  176.9440  137.3380 C   0  0  0  0  0  3  0  0  0  0  0  0
  193.5460  176.1700  138.5590 C   0  0  0  0  0  2  0  0  0  0  0  0
  193.8770  177.0560  139.5850 O   0  0  0  0  0  1  0  0  0  0  0  0
  192.6360  175.4650  135.8170 C   0  0  0  0  0  2  0  0  0  0  0  0
  192.3830  173.9670  135.7610 C   0  0  0  0  0  2  0  0  0  0  0  0
  193.6480  173.2200  136.0280 C   0  0  0  0  0  0  0  0  0  0  0  0
  194.9580  173.9240  135.9300 C   0  0  0  0  0  1  0  0  0  0  0  0
  193.6130  172.0430  136.3480 O   0  0  0  0  0  0  0  0  0  0  0  0
  182.0530  179.0530  144.4800 C   0  0  0  0  0  2  0  0  0  0  0  0
  180.0020  177.7620  143.8930 C   0  0  0  0  0  1  0  0  0  0  0  0
  180.4460  179.9410  142.8210 C   0  0  0  0  0  1  0  0  0  0  0  0
  181.0870  178.6820  143.3660 C   0  0  0  0  0  3  0  0  0  0  0  0
  1 17  2  0  0  0  0
  1 11  1  0  0  0  0
  4  8  1  0  0  0  0
  4  5  2  0  0  0  0
  5  1  1  0  0  0  0
  6 12  1  0  0  0  0
  8  6  1  0  0  0  0
  9  4  1  0  0  0  0
 10  3  1  0  0  0  0
 11 10  2  0  0  0  0
 12 11  1  0  0  0  0
 12  7  1  0  0  0  0
 13 31  1  0  0  0  0
 13  2  2  0  0  0  0
 14 13  1  0  0  0  0
 15  2  1  0  0  0  0
 15  3  2  0  0  0  0
 16 14  2  0  0  0  0
 16 17  1  0  0  0  0
 17 15  1  0  0  0  0
 18 20  2  0  0  0  0
 18 23  1  0  0  0  0
 20 21  1  0  0  0  0
 21 24  1  0  0  0  0
 21 19  2  0  0  0  0
 22 19  1  0  0  0  0
 22  9  1  0  0  0  0
 23 22  2  0  0  0  0
 24 25  1  0  0  0  0
 26 20  1  0  0  0  0
 27 26  1  0  0  0  0
 27 28  1  0  0  0  0
 28 30  2  0  0  0  0
 29 28  1  0  0  0  0
 33 34  1  0  0  0  0
 34 32  1  0  0  0  0
 34 31  1  0  0  0  0
M  END
>  <MODEL>
3

>  <REMARK>
 VINA RESULT:      -8.1      1.469      2.137
  Name = 
  7 active torsions:
  status: ('A' for Active; 'I' for Inactive)
    1  A    between atoms: C_7  and  C_11
    2  A    between atoms: C_7  and  C_14
    3  A    between atoms: C_14  and  C_16
    4  A    between atoms: N_18  and  C_30
    5  A    between atoms: C_23  and  C_24
    6  A    between atoms: C_23  and  C_25
    7  A    between atoms: C_26  and  C_28
                            x       y       z     vdW  Elec       q    Type
                         _______ _______ _______ _____ _____    ______ ____

>  <TORSDO>
F 7

$$$$
=
 OpenBabel10262423233D

 34 37  0  0  0  0  0  0  0  0999 V2000
  191.4920  176.2520  137.2920 C   0  0  0  0  0  0  0  0  0  0  0  0
  194.2640  174.5470  135.4820 C   0  0  0  0  0  3  0  0  0  0  0  0
  192.0920  175.2710  134.7190 C   0  0  0  0  0  3  0  0  0  0  0  0
  190.0990  176.7440  139.2290 C   0  0  0  0  0  0  0  0  0  0  0  0
  191.2360  176.7900  138.6020 N   0  0  0  0  0  0  0  0  0  0  0  0
  188.3430  176.7770  137.4820 C   0  0  0  0  0  2  0  0  0  0  0  0
  188.8510  178.0020  135.3880 C   0  0  0  0  0  1  0  0  0  0  0  0
  188.9480  175.9920  138.6340 C   0  0  0  0  0  2  0  0  0  0  0  0
  190.0060  177.3650  140.5190 N   0  0  0  0  0  2  0  0  0  0  0  0
  190.8670  175.8880  134.9650 C   0  0  0  0  0  3  0  0  0  0  0  0
  190.5480  176.3800  136.2410 C   0  0  0  0  0  0  0  0  0  0  0  0
  189.3070  177.0900  136.4250 N   0  0  0  0  0  0  0  0  0  0  0  0
  195.2160  174.4320  136.5010 C   0  0  0  0  0  0  0  0  0  0  0  0
  194.9370  174.9270  137.7770 C   0  0  0  0  0  3  0  0  0  0  0  0
  193.0300  175.1510  135.7400 C   0  0  0  0  0  0  0  0  0  0  0  0
  193.7060  175.5330  138.0420 C   0  0  0  0  0  3  0  0  0  0  0  0
  192.7400  175.6540  137.0310 C   0  0  0  0  0  0  0  0  0  0  0  0
  187.7050  176.9090  143.4140 C   0  0  0  0  0  3  0  0  0  0  0  0
  187.7860  178.3600  141.0300 C   0  0  0  0  0  3  0  0  0  0  0  0
  186.6450  177.7620  143.0870 C   0  0  0  0  0  0  0  0  0  0  0  0
  186.6810  178.4850  141.8790 C   0  0  0  0  0  0  0  0  0  0  0  0
  188.8500  177.5070  141.3590 C   0  0  0  0  0  0  0  0  0  0  0  0
  188.8020  176.7860  142.5560 C   0  0  0  0  0  3  0  0  0  0  0  0
  185.5800  179.4160  141.4910 C   0  0  0  0  0  2  0  0  0  0  0  0
  185.3830  179.3630  140.1100 O   0  0  0  0  0  1  0  0  0  0  0  0
  185.4820  177.8550  144.0200 C   0  0  0  0  0  2  0  0  0  0  0  0
  185.6930  178.9960  145.0020 C   0  0  0  0  0  2  0  0  0  0  0  0
  185.7540  178.4700  146.3980 C   0  0  0  0  0  0  0  0  0  0  0  0
  187.0320  177.9150  146.9260 C   0  0  0  0  0  1  0  0  0  0  0  0
  184.7690  178.5150  147.1170 O   0  0  0  0  0  0  0  0  0  0  0  0
  196.5390  173.7970  136.2230 C   0  0  0  0  0  2  0  0  0  0  0  0
  198.9530  174.1190  136.7610 C   0  0  0  0  0  1  0  0  0  0  0  0
  197.8850  175.4720  134.9930 C   0  0  0  0  0  1  0  0  0  0  0  0
  197.6690  174.8080  136.3370 C   0  0  0  0  0  3  0  0  0  0  0  0
  1  5  1  0  0  0  0
  2 15  2  0  0  0  0
  2 13  1  0  0  0  0
  3 10  2  0  0  0  0
  3 15  1  0  0  0  0
  4  9  1  0  0  0  0
  5  4  2  0  0  0  0
  6  8  1  0  0  0  0
  7 12  1  0  0  0  0
  8  4  1  0  0  0  0
  9 22  1  0  0  0  0
 10 11  1  0  0  0  0
 11 12  1  0  0  0  0
 11  1  2  0  0  0  0
 12  6  1  0  0  0  0
 13 14  2  0  0  0  0
 14 16  1  0  0  0  0
 15 17  1  0  0  0  0
 17  1  1  0  0  0  0
 17 16  2  0  0  0  0
 19 22  2  0  0  0  0
 19 21  1  0  0  0  0
 20 18  1  0  0  0  0
 20 26  1  0  0  0  0
 21 20  2  0  0  0  0
 22 23  1  0  0  0  0
 23 18  2  0  0  0  0
 24 21  1  0  0  0  0
 25 24  1  0  0  0  0
 26 27  1  0  0  0  0
 27 28  1  0  0  0  0
 28 29  1  0  0  0  0
 28 30  2  0  0  0  0
 31 34  1  0  0  0  0
 31 13  1  0  0  0  0
 33 34  1  0  0  0  0
 34 32  1  0  0  0  0
M  END
>  <MODEL>
4

>  <REMARK>
 VINA RESULT:      -7.7      3.261     11.108
  Name = 
  7 active torsions:
  status: ('A' for Active; 'I' for Inactive)
    1  A    between atoms: C_7  and  C_11
    2  A    between atoms: C_7  and  C_14
    3  A    between atoms: C_14  and  C_16
    4  A    between atoms: N_18  and  C_30
    5  A    between atoms: C_23  and  C_24
    6  A    between atoms: C_23  and  C_25
    7  A    between atoms: C_26  and  C_28
                            x       y       z     vdW  Elec       q    Type
                         _______ _______ _______ _____ _____    ______ ____

>  <TORSDO>
F 7

$$$$
=
 OpenBabel10262423233D

 34 37  0  0  0  0  0  0  0  0999 V2000
  182.1710  179.3660  138.3480 C   0  0  0  0  0  0  0  0  0  0  0  0
  180.0190  181.4560  136.1410 C   0  0  0  0  0  3  0  0  0  0  0  0
  181.0260  179.2940  135.7740 C   0  0  0  0  0  3  0  0  0  0  0  0
  183.8730  178.9880  140.0490 C   0  0  0  0  0  0  0  0  0  0  0  0
  182.6990  179.4100  139.6860 N   0  0  0  0  0  0  0  0  0  0  0  0
  184.4420  177.1220  138.5230 C   0  0  0  0  0  2  0  0  0  0  0  0
  182.5650  175.7580  137.6530 C   0  0  0  0  0  1  0  0  0  0  0  0
  184.8440  178.5020  139.0180 C   0  0  0  0  0  2  0  0  0  0  0  0
  184.2280  179.0710  141.4370 N   0  0  0  0  0  2  0  0  0  0  0  0
  181.7960  178.2250  136.2280 C   0  0  0  0  0  3  0  0  0  0  0  0
  182.3770  178.2440  137.5050 C   0  0  0  0  0  0  0  0  0  0  0  0
  183.0890  177.0780  137.9650 N   0  0  0  0  0  0  0  0  0  0  0  0
  179.7860  182.5620  136.9670 C   0  0  0  0  0  0  0  0  0  0  0  0
  180.3360  182.6040  138.2500 C   0  0  0  0  0  3  0  0  0  0  0  0
  180.8060  180.3950  136.5970 C   0  0  0  0  0  0  0  0  0  0  0  0
  181.1240  181.5470  138.7120 C   0  0  0  0  0  3  0  0  0  0  0  0
  181.3680  180.4320  137.8960 C   0  0  0  0  0  0  0  0  0  0  0  0
  186.4950  177.7730  144.0930 C   0  0  0  0  0  3  0  0  0  0  0  0
  186.6410  178.4790  141.3960 C   0  0  0  0  0  3  0  0  0  0  0  0
  187.7090  177.6430  143.4090 C   0  0  0  0  0  0  0  0  0  0  0  0
  187.7840  178.0100  142.0510 C   0  0  0  0  0  0  0  0  0  0  0  0
  185.4240  178.6070  142.0810 C   0  0  0  0  0  0  0  0  0  0  0  0
  185.3600  178.2490  143.4310 C   0  0  0  0  0  3  0  0  0  0  0  0
  189.0530  177.8780  141.2750 C   0  0  0  0  0  2  0  0  0  0  0  0
  188.8730  178.3910  139.9890 O   0  0  0  0  0  1  0  0  0  0  0  0
  188.9050  177.1470  144.1540 C   0  0  0  0  0  2  0  0  0  0  0  0
  188.7510  177.4340  145.6390 C   0  0  0  0  0  2  0  0  0  0  0  0
  190.0190  177.1160  146.3590 C   0  0  0  0  0  0  0  0  0  0  0  0
  191.2590  176.8300  145.5850 C   0  0  0  0  0  1  0  0  0  0  0  0
  190.0500  177.1130  147.5790 O   0  0  0  0  0  0  0  0  0  0  0  0
  178.9350  183.6910  136.4860 C   0  0  0  0  0  2  0  0  0  0  0  0
  179.6910  185.7490  137.6740 C   0  0  0  0  0  1  0  0  0  0  0  0
  181.1800  184.6370  136.0490 C   0  0  0  0  0  1  0  0  0  0  0  0
  179.7400  184.9760  136.3700 C   0  0  0  0  0  3  0  0  0  0  0  0
  1  5  1  0  0  0  0
  2 15  2  0  0  0  0
  2 13  1  0  0  0  0
  3 10  2  0  0  0  0
  3 15  1  0  0  0  0
  4  9  1  0  0  0  0
  5  4  2  0  0  0  0
  6  8  1  0  0  0  0
  7 12  1  0  0  0  0
  8  4  1  0  0  0  0
  9 22  1  0  0  0  0
 10 11  1  0  0  0  0
 11 12  1  0  0  0  0
 11  1  2  0  0  0  0
 12  6  1  0  0  0  0
 13 14  2  0  0  0  0
 14 16  1  0  0  0  0
 15 17  1  0  0  0  0
 17  1  1  0  0  0  0
 17 16  2  0  0  0  0
 19 21  2  0  0  0  0
 19 22  1  0  0  0  0
 20 18  2  0  0  0  0
 20 26  1  0  0  0  0
 21 20  1  0  0  0  0
 22 23  2  0  0  0  0
 23 18  1  0  0  0  0
 24 21  1  0  0  0  0
 25 24  1  0  0  0  0
 26 27  1  0  0  0  0
 27 28  1  0  0  0  0
 28 30  2  0  0  0  0
 29 28  1  0  0  0  0
 31 13  1  0  0  0  0
 33 34  1  0  0  0  0
 34 31  1  0  0  0  0
 34 32  1  0  0  0  0
M  END
>  <MODEL>
5

>  <REMARK>
 VINA RESULT:      -7.3      5.105      8.562
  Name = 
  7 active torsions:
  status: ('A' for Active; 'I' for Inactive)
    1  A    between atoms: C_7  and  C_11
    2  A    between atoms: C_7  and  C_14
    3  A    between atoms: C_14  and  C_16
    4  A    between atoms: N_18  and  C_30
    5  A    between atoms: C_23  and  C_24
    6  A    between atoms: C_23  and  C_25
    7  A    between atoms: C_26  and  C_28
                            x       y       z     vdW  Elec       q    Type
                         _______ _______ _______ _____ _____    ______ ____

>  <TORSDO>
F 7

$$$$
=
 OpenBabel10262423233D

 34 37  0  0  0  0  0  0  0  0999 V2000
  181.8450  179.3730  138.7570 C   0  0  0  0  0  0  0  0  0  0  0  0
  180.1010  181.4260  136.1860 C   0  0  0  0  0  3  0  0  0  0  0  0
  181.1980  179.2830  136.0160 C   0  0  0  0  0  3  0  0  0  0  0  0
  183.2100  179.0250  140.7450 C   0  0  0  0  0  0  0  0  0  0  0  0
  182.1160  179.4250  140.1700 N   0  0  0  0  0  0  0  0  0  0  0  0
  184.0860  177.1710  139.3540 C   0  0  0  0  0  2  0  0  0  0  0  0
  182.4280  175.7740  138.1550 C   0  0  0  0  0  1  0  0  0  0  0  0
  184.3630  178.5580  139.9120 C   0  0  0  0  0  2  0  0  0  0  0  0
  183.3000  179.1120  142.1740 N   0  0  0  0  0  2  0  0  0  0  0  0
  181.8900  178.2280  136.6070 C   0  0  0  0  0  3  0  0  0  0  0  0
  182.2250  178.2560  137.9690 C   0  0  0  0  0  0  0  0  0  0  0  0
  182.8610  177.1030  138.5560 N   0  0  0  0  0  0  0  0  0  0  0  0
  179.6990  182.5270  136.9520 C   0  0  0  0  0  0  0  0  0  0  0  0
  180.0010  182.5770  138.3150 C   0  0  0  0  0  3  0  0  0  0  0  0
  180.8100  180.3790  136.7810 C   0  0  0  0  0  0  0  0  0  0  0  0
  180.7100  181.5340  138.9160 C   0  0  0  0  0  3  0  0  0  0  0  0
  181.1210  180.4250  138.1620 C   0  0  0  0  0  0  0  0  0  0  0  0
  186.6270  177.8160  143.2370 C   0  0  0  0  0  3  0  0  0  0  0  0
  184.2550  178.6790  144.4280 C   0  0  0  0  0  3  0  0  0  0  0  0
  186.5180  177.8280  144.6320 C   0  0  0  0  0  0  0  0  0  0  0  0
  185.3160  178.2530  145.2320 C   0  0  0  0  0  0  0  0  0  0  0  0
  184.3650  178.6690  143.0290 C   0  0  0  0  0  0  0  0  0  0  0  0
  185.5580  178.2370  142.4420 C   0  0  0  0  0  3  0  0  0  0  0  0
  185.1550  178.2950  146.7150 C   0  0  0  0  0  2  0  0  0  0  0  0
  185.6790  179.4900  147.2120 O   0  0  0  0  0  1  0  0  0  0  0  0
  187.6760  177.3550  145.4490 C   0  0  0  0  0  2  0  0  0  0  0  0
  188.9820  177.7450  144.7760 C   0  0  0  0  0  2  0  0  0  0  0  0
  190.1400  177.1820  145.5320 C   0  0  0  0  0  0  0  0  0  0  0  0
  191.4550  177.0100  144.8530 C   0  0  0  0  0  1  0  0  0  0  0  0
  190.0210  176.8850  146.7090 O   0  0  0  0  0  0  0  0  0  0  0  0
  178.9310  183.6400  136.3190 C   0  0  0  0  0  2  0  0  0  0  0  0
  179.5760  185.6420  137.6580 C   0  0  0  0  0  1  0  0  0  0  0  0
  181.1940  184.6180  136.1000 C   0  0  0  0  0  1  0  0  0  0  0  0
  179.7310  184.9330  136.3260 C   0  0  0  0  0  3  0  0  0  0  0  0
  1  5  1  0  0  0  0
  2 15  2  0  0  0  0
  2 13  1  0  0  0  0
  3 10  2  0  0  0  0
  3 15  1  0  0  0  0
  4  9  1  0  0  0  0
  5  4  2  0  0  0  0
  6  8  1  0  0  0  0
  7 12  1  0  0  0  0
  8  4  1  0  0  0  0
  9 22  1  0  0  0  0
 10 11  1  0  0  0  0
 11 12  1  0  0  0  0
 11  1  2  0  0  0  0
 12  6  1  0  0  0  0
 13 14  2  0  0  0  0
 14 16  1  0  0  0  0
 15 17  1  0  0  0  0
 17  1  1  0  0  0  0
 17 16  2  0  0  0  0
 18 20  1  0  0  0  0
 19 21  1  0  0  0  0
 20 21  2  0  0  0  0
 20 26  1  0  0  0  0
 21 24  1  0  0  0  0
 22 19  2  0  0  0  0
 23 22  1  0  0  0  0
 23 18  2  0  0  0  0
 24 25  1  0  0  0  0
 27 26  1  0  0  0  0
 27 28  1  0  0  0  0
 28 30  2  0  0  0  0
 29 28  1  0  0  0  0
 31 34  1  0  0  0  0
 31 13  1  0  0  0  0
 33 34  1  0  0  0  0
 34 32  1  0  0  0  0
M  END
>  <MODEL>
6

>  <REMARK>
 VINA RESULT:      -7.3      5.308      9.133
  Name = 
  7 active torsions:
  status: ('A' for Active; 'I' for Inactive)
    1  A    between atoms: C_7  and  C_11
    2  A    between atoms: C_7  and  C_14
    3  A    between atoms: C_14  and  C_16
    4  A    between atoms: N_18  and  C_30
    5  A    between atoms: C_23  and  C_24
    6  A    between atoms: C_23  and  C_25
    7  A    between atoms: C_26  and  C_28
                            x       y       z     vdW  Elec       q    Type
                         _______ _______ _______ _____ _____    ______ ____

>  <TORSDO>
F 7

$$$$
=
 OpenBabel10262423233D

 34 37  0  0  0  0  0  0  0  0999 V2000
  186.9810  178.2890  141.2430 C   0  0  0  0  0  0  0  0  0  0  0  0
  188.8350  176.8490  144.1340 C   0  0  0  0  0  3  0  0  0  0  0  0
  189.3750  176.9040  141.7820 C   0  0  0  0  0  3  0  0  0  0  0  0
  184.9820  178.8960  139.9890 C   0  0  0  0  0  0  0  0  0  0  0  0
  185.7760  179.0400  141.0080 N   0  0  0  0  0  0  0  0  0  0  0  0
  186.4060  178.1590  138.1000 C   0  0  0  0  0  2  0  0  0  0  0  0
  188.7500  178.9600  138.0700 C   0  0  0  0  0  1  0  0  0  0  0  0
  185.2320  177.8020  138.9970 C   0  0  0  0  0  2  0  0  0  0  0  0
  183.8400  179.7570  139.8880 N   0  0  0  0  0  2  0  0  0  0  0  0
  189.0650  177.2840  140.4780 C   0  0  0  0  0  3  0  0  0  0  0  0
  187.8750  177.9720  140.1890 C   0  0  0  0  0  0  0  0  0  0  0  0
  187.6410  178.4240  138.8410 N   0  0  0  0  0  0  0  0  0  0  0  0
  187.9760  177.1730  145.1900 C   0  0  0  0  0  0  0  0  0  0  0  0
  186.7930  177.8720  144.9380 C   0  0  0  0  0  3  0  0  0  0  0  0
  188.5100  177.2200  142.8260 C   0  0  0  0  0  0  0  0  0  0  0  0
  186.4610  178.2450  143.6330 C   0  0  0  0  0  3  0  0  0  0  0  0
  187.3120  177.9270  142.5640 C   0  0  0  0  0  0  0  0  0  0  0  0
  181.0900  181.0790  137.7490 C   0  0  0  0  0  3  0  0  0  0  0  0
  182.7610  178.8450  137.8430 C   0  0  0  0  0  3  0  0  0  0  0  0
  180.9810  180.0920  136.7640 C   0  0  0  0  0  0  0  0  0  0  0  0
  181.8160  178.9590  136.8180 C   0  0  0  0  0  0  0  0  0  0  0  0
  182.8730  179.8360  138.8300 C   0  0  0  0  0  0  0  0  0  0  0  0
  182.0330  180.9520  138.7730 C   0  0  0  0  0  3  0  0  0  0  0  0
  181.7460  177.8850  135.7840 C   0  0  0  0  0  2  0  0  0  0  0  0
  182.7280  176.9260  136.0340 O   0  0  0  0  0  1  0  0  0  0  0  0
  179.9500  180.2540  135.6940 C   0  0  0  0  0  2  0  0  0  0  0  0
  180.4090  181.2920  134.6820 C   0  0  0  0  0  2  0  0  0  0  0  0
  180.1120  182.6660  135.1830 C   0  0  0  0  0  0  0  0  0  0  0  0
  181.2050  183.6740  135.2760 C   0  0  0  0  0  1  0  0  0  0  0  0
  178.9730  182.9750  135.4940 O   0  0  0  0  0  0  0  0  0  0  0  0
  188.3290  176.7880  146.5890 C   0  0  0  0  0  2  0  0  0  0  0  0
  189.0930  178.2340  148.4710 C   0  0  0  0  0  1  0  0  0  0  0  0
  190.7050  176.7890  147.2850 C   0  0  0  0  0  1  0  0  0  0  0  0
  189.4660  177.6450  147.1240 C   0  0  0  0  0  3  0  0  0  0  0  0
  1 17  1  0  0  0  0
  2 13  1  0  0  0  0
  3 15  1  0  0  0  0
  4  5  2  0  0  0  0
  5  1  1  0  0  0  0
  6 12  1  0  0  0  0
  6  8  1  0  0  0  0
  7 12  1  0  0  0  0
  8  4  1  0  0  0  0
  9  4  1  0  0  0  0
 10  3  2  0  0  0  0
 11 10  1  0  0  0  0
 11  1  2  0  0  0  0
 12 11  1  0  0  0  0
 13 31  1  0  0  0  0
 14 13  2  0  0  0  0
 15  2  2  0  0  0  0
 16 14  1  0  0  0  0
 17 15  1  0  0  0  0
 17 16  2  0  0  0  0
 18 23  1  0  0  0  0
 19 22  1  0  0  0  0
 20 21  1  0  0  0  0
 20 18  2  0  0  0  0
 21 19  2  0  0  0  0
 22  9  1  0  0  0  0
 23 22  2  0  0  0  0
 24 25  1  0  0  0  0
 24 21  1  0  0  0  0
 26 20  1  0  0  0  0
 27 28  1  0  0  0  0
 27 26  1  0  0  0  0
 28 29  1  0  0  0  0
 28 30  2  0  0  0  0
 31 34  1  0  0  0  0
 34 33  1  0  0  0  0
 34 32  1  0  0  0  0
M  END
>  <MODEL>
7

>  <REMARK>
 VINA RESULT:      -7.2      4.945      9.659
  Name = 
  7 active torsions:
  status: ('A' for Active; 'I' for Inactive)
    1  A    between atoms: C_7  and  C_11
    2  A    between atoms: C_7  and  C_14
    3  A    between atoms: C_14  and  C_16
    4  A    between atoms: N_18  and  C_30
    5  A    between atoms: C_23  and  C_24
    6  A    between atoms: C_23  and  C_25
    7  A    between atoms: C_26  and  C_28
                            x       y       z     vdW  Elec       q    Type
                         _______ _______ _______ _____ _____    ______ ____

>  <TORSDO>
F 7

$$$$
=
 OpenBabel10262423233D

 34 37  0  0  0  0  0  0  0  0999 V2000
  187.4630  178.1210  142.6840 C   0  0  0  0  0  0  0  0  0  0  0  0
  184.3120  178.5160  144.6290 C   0  0  0  0  0  3  0  0  0  0  0  0
  186.5040  177.7740  145.3110 C   0  0  0  0  0  3  0  0  0  0  0  0
  188.7760  177.6100  140.6970 C   0  0  0  0  0  0  0  0  0  0  0  0
  187.9340  178.3580  141.3440 N   0  0  0  0  0  0  0  0  0  0  0  0
  190.2610  176.6000  142.4020 C   0  0  0  0  0  2  0  0  0  0  0  0
  190.7040  177.9280  144.4480 C   0  0  0  0  0  1  0  0  0  0  0  0
  189.2510  176.3250  141.3000 C   0  0  0  0  0  2  0  0  0  0  0  0
  189.1710  178.0140  139.3780 N   0  0  0  0  0  2  0  0  0  0  0  0
  187.8380  177.5040  145.0100 C   0  0  0  0  0  3  0  0  0  0  0  0
  188.3330  177.6670  143.7070 C   0  0  0  0  0  0  0  0  0  0  0  0
  189.7390  177.4630  143.4640 N   0  0  0  0  0  0  0  0  0  0  0  0
  183.4430  178.9860  143.6370 C   0  0  0  0  0  0  0  0  0  0  0  0
  183.9090  179.1760  142.3340 C   0  0  0  0  0  3  0  0  0  0  0  0
  185.6440  178.2310  144.3170 C   0  0  0  0  0  0  0  0  0  0  0  0
  185.2400  178.8930  142.0150 C   0  0  0  0  0  3  0  0  0  0  0  0
  186.1220  178.4200  142.9980 C   0  0  0  0  0  0  0  0  0  0  0  0
  192.3070  176.3530  138.2430 C   0  0  0  0  0  3  0  0  0  0  0  0
  189.8810  177.1880  137.1430 C   0  0  0  0  0  3  0  0  0  0  0  0
  192.0540  176.1410  136.8830 C   0  0  0  0  0  0  0  0  0  0  0  0
  190.8350  176.5730  136.3260 C   0  0  0  0  0  0  0  0  0  0  0  0
  190.1330  177.3980  138.5070 C   0  0  0  0  0  0  0  0  0  0  0  0
  191.3500  176.9740  139.0490 C   0  0  0  0  0  3  0  0  0  0  0  0
  190.5140  176.3590  134.8840 C   0  0  0  0  0  2  0  0  0  0  0  0
  189.2560  175.7670  134.7650 O   0  0  0  0  0  1  0  0  0  0  0  0
  193.1080  175.4880  136.0480 C   0  0  0  0  0  2  0  0  0  0  0  0
  193.2840  174.0390  136.4720 C   0  0  0  0  0  2  0  0  0  0  0  0
  192.0720  173.2450  136.1120 C   0  0  0  0  0  0  0  0  0  0  0  0
  192.0570  172.4460  134.8540 C   0  0  0  0  0  1  0  0  0  0  0  0
  191.1030  173.2290  136.8530 O   0  0  0  0  0  0  0  0  0  0  0  0
  182.0220  179.3020  143.9720 C   0  0  0  0  0  2  0  0  0  0  0  0
  179.6990  178.3980  143.9890 C   0  0  0  0  0  1  0  0  0  0  0  0
  180.9560  178.5470  141.8700 C   0  0  0  0  0  1  0  0  0  0  0  0
  181.0730  178.2870  143.3570 C   0  0  0  0  0  3  0  0  0  0  0  0
  1 17  2  0  0  0  0
  1 11  1  0  0  0  0
  4  8  1  0  0  0  0
  4  5  2  0  0  0  0
  5  1  1  0  0  0  0
  6 12  1  0  0  0  0
  8  6  1  0  0  0  0
  9  4  1  0  0  0  0
 10  3  1  0  0  0  0
 11 10  2  0  0  0  0
 12 11  1  0  0  0  0
 12  7  1  0  0  0  0
 13 31  1  0  0  0  0
 13  2  2  0  0  0  0
 14 13  1  0  0  0  0
 15  2  1  0  0  0  0
 15  3  2  0  0  0  0
 16 14  2  0  0  0  0
 16 17  1  0  0  0  0
 17 15  1  0  0  0  0
 18 23  1  0  0  0  0
 19 22  1  0  0  0  0
 20 18  2  0  0  0  0
 21 20  1  0  0  0  0
 21 19  2  0  0  0  0
 22 23  2  0  0  0  0
 22  9  1  0  0  0  0
 24 21  1  0  0  0  0
 25 24  1  0  0  0  0
 26 27  1  0  0  0  0
 26 20  1  0  0  0  0
 28 27  1  0  0  0  0
 28 30  2  0  0  0  0
 29 28  1  0  0  0  0
 33 34  1  0  0  0  0
 34 31  1  0  0  0  0
 34 32  1  0  0  0  0
M  END
>  <MODEL>
8

>  <REMARK>
 VINA RESULT:      -7.1      1.716      2.153
  Name = 
  7 active torsions:
  status: ('A' for Active; 'I' for Inactive)
    1  A    between atoms: C_7  and  C_11
    2  A    between atoms: C_7  and  C_14
    3  A    between atoms: C_14  and  C_16
    4  A    between atoms: N_18  and  C_30
    5  A    between atoms: C_23  and  C_24
    6  A    between atoms: C_23  and  C_25
    7  A    between atoms: C_26  and  C_28
                            x       y       z     vdW  Elec       q    Type
                         _______ _______ _______ _____ _____    ______ ____

>  <TORSDO>
F 7

$$$$
=
 OpenBabel10262423233D

 34 37  0  0  0  0  0  0  0  0999 V2000
  184.3810  178.2460  143.1820 C   0  0  0  0  0  0  0  0  0  0  0  0
  187.0630  178.2840  145.7650 C   0  0  0  0  0  3  0  0  0  0  0  0
  184.7250  178.8640  145.9100 C   0  0  0  0  0  3  0  0  0  0  0  0
  183.4890  178.4930  140.9280 C   0  0  0  0  0  0  0  0  0  0  0  0
  184.2270  177.8730  141.8000 N   0  0  0  0  0  0  0  0  0  0  0  0
  181.6000  179.4760  142.1930 C   0  0  0  0  0  2  0  0  0  0  0  0
  180.8320  178.2580  144.2110 C   0  0  0  0  0  1  0  0  0  0  0  0
  182.7980  179.7670  141.3050 C   0  0  0  0  0  2  0  0  0  0  0  0
  183.4170  177.9630  139.5970 N   0  0  0  0  0  2  0  0  0  0  0  0
  183.4700  178.9860  145.3160 C   0  0  0  0  0  3  0  0  0  0  0  0
  183.2790  178.6870  143.9590 C   0  0  0  0  0  0  0  0  0  0  0  0
  181.9470  178.7410  143.4120 N   0  0  0  0  0  0  0  0  0  0  0  0
  188.1570  177.8300  145.0200 C   0  0  0  0  0  0  0  0  0  0  0  0
  187.9970  177.5070  143.6710 C   0  0  0  0  0  3  0  0  0  0  0  0
  185.8110  178.4210  145.1600 C   0  0  0  0  0  0  0  0  0  0  0  0
  186.7480  177.6410  143.0590 C   0  0  0  0  0  3  0  0  0  0  0  0
  185.6420  178.0970  143.7920 C   0  0  0  0  0  0  0  0  0  0  0  0
  181.1500  180.1240  137.5790 C   0  0  0  0  0  3  0  0  0  0  0  0
  182.5400  177.7210  137.2840 C   0  0  0  0  0  3  0  0  0  0  0  0
  181.0720  179.4240  136.3700 C   0  0  0  0  0  0  0  0  0  0  0  0
  181.7650  178.2060  136.2260 C   0  0  0  0  0  0  0  0  0  0  0  0
  182.6200  178.4240  138.4950 C   0  0  0  0  0  0  0  0  0  0  0  0
  181.9220  179.6270  138.6330 C   0  0  0  0  0  3  0  0  0  0  0  0
  181.7230  177.4280  134.9520 C   0  0  0  0  0  2  0  0  0  0  0  0
  182.9580  176.8150  134.7340 O   0  0  0  0  0  1  0  0  0  0  0  0
  180.2240  179.9770  135.2710 C   0  0  0  0  0  2  0  0  0  0  0  0
  180.8980  181.1910  134.6540 C   0  0  0  0  0  2  0  0  0  0  0  0
  180.1320  182.4290  134.9820 C   0  0  0  0  0  0  0  0  0  0  0  0
  180.8430  183.6150  135.5380 C   0  0  0  0  0  1  0  0  0  0  0  0
  178.9310  182.4830  134.7760 O   0  0  0  0  0  0  0  0  0  0  0  0
  189.4930  177.6720  145.6700 C   0  0  0  0  0  2  0  0  0  0  0  0
  191.2670  178.5280  144.1410 C   0  0  0  0  0  1  0  0  0  0  0  0
  191.5690  176.3730  145.3080 C   0  0  0  0  0  1  0  0  0  0  0  0
  190.5570  177.2890  144.6530 C   0  0  0  0  0  3  0  0  0  0  0  0
  1 17  2  0  0  0  0
  1 11  1  0  0  0  0
  4  8  1  0  0  0  0
  4  5  2  0  0  0  0
  5  1  1  0  0  0  0
  6 12  1  0  0  0  0
  8  6  1  0  0  0  0
  9  4  1  0  0  0  0
 10  3  1  0  0  0  0
 11 10  2  0  0  0  0
 12 11  1  0  0  0  0
 12  7  1  0  0  0  0
 13 31  1  0  0  0  0
 13  2  2  0  0  0  0
 14 13  1  0  0  0  0
 15  2  1  0  0  0  0
 15  3  2  0  0  0  0
 16 14  2  0  0  0  0
 16 17  1  0  0  0  0
 17 15  1  0  0  0  0
 18 23  1  0  0  0  0
 19 22  1  0  0  0  0
 20 18  2  0  0  0  0
 21 20  1  0  0  0  0
 21 19  2  0  0  0  0
 22 23  2  0  0  0  0
 22  9  1  0  0  0  0
 24 21  1  0  0  0  0
 25 24  1  0  0  0  0
 26 20  1  0  0  0  0
 27 28  1  0  0  0  0
 27 26  1  0  0  0  0
 28 29  1  0  0  0  0
 30 28  2  0  0  0  0
 32 34  1  0  0  0  0
 34 33  1  0  0  0  0
 34 31  1  0  0  0  0
M  END
>  <MODEL>
9

>  <REMARK>
 VINA RESULT:      -7.0      5.240      9.845
  Name = 
  7 active torsions:
  status: ('A' for Active; 'I' for Inactive)
    1  A    between atoms: C_7  and  C_11
    2  A    between atoms: C_7  and  C_14
    3  A    between atoms: C_14  and  C_16
    4  A    between atoms: N_18  and  C_30
    5  A    between atoms: C_23  and  C_24
    6  A    between atoms: C_23  and  C_25
    7  A    between atoms: C_26  and  C_28
                            x       y       z     vdW  Elec       q    Type
                         _______ _______ _______ _____ _____    ______ ____

>  <TORSDO>
F 7

$$$$
