=
 OpenBabel10262420503D

 28 31  0  0  1  0  0  0  0  0999 V2000
  190.8530  176.7310  145.0270 C   0  0  1  0  0  3  0  0  0  0  0  0
  186.1650  177.9620  142.9880 C   0  0  0  0  0  3  0  0  0  0  0  0
  188.6400  179.0540  147.9430 F   0  0  0  0  0  0  0  0  0  0  0  0
  184.8220  178.5120  144.9370 C   0  0  0  0  0  0  0  0  0  0  0  0
  187.1580  177.8510  145.2290 C   0  0  0  0  0  0  0  0  0  0  0  0
  183.8500  178.6200  142.7210 C   0  0  0  0  0  0  0  0  0  0  0  0
  186.0590  178.1050  144.3810 C   0  0  0  0  0  0  0  0  0  0  0  0
  185.7710  178.3990  147.1550 C   0  0  0  0  0  3  0  0  0  0  0  0
  183.7280  178.7670  144.1060 C   0  0  0  0  0  3  0  0  0  0  0  0
  189.2700  176.9570  146.9810 C   0  0  2  0  0  3  0  0  0  0  0  0
  188.4510  177.3240  144.6510 C   0  0  0  0  0  2  0  0  0  0  0  0
  184.6870  178.6550  146.3170 C   0  0  0  0  0  3  0  0  0  0  0  0
  191.2690  175.9890  147.3680 C   0  0  0  0  0  2  0  0  0  0  0  0
  188.1520  177.8100  147.5790 C   0  0  2  0  0  3  0  0  0  0  0  0
  190.3850  176.9720  147.8400 O   0  0  0  0  0  0  0  0  0  0  0  0
  182.7610  178.8760  141.8990 O   0  0  0  0  0  1  0  0  0  0  0  0
  185.0650  178.2180  142.1640 C   0  0  0  0  0  3  0  0  0  0  0  0
  187.0000  177.9890  146.6290 C   0  0  0  0  0  0  0  0  0  0  0  0
  191.9300  176.4750  146.0840 C   0  0  0  0  0  2  0  0  0  0  0  0
  189.6440  177.4960  145.5890 C   0  0  2  0  0  3  0  0  0  0  0  0
  191.4160  177.3680  143.7450 C   0  0  2  0  0  3  0  0  0  0  0  0
  191.1900  178.7460  143.7040 O   0  0  0  0  0  1  0  0  0  0  0  0
  191.0660  176.6820  142.4120 C   0  0  0  0  0  2  0  0  0  0  0  0
  192.4030  177.4480  140.5410 O   0  0  0  0  0  1  0  0  0  0  0  0
  191.1440  177.5350  141.1380 C   0  0  1  0  0  3  0  0  0  0  0  0
  190.0280  177.2790  140.1600 C   0  0  0  0  0  0  0  0  0  0  0  0
  188.8030  177.7230  140.4320 C   0  0  0  0  0  2  0  0  0  0  0  0
  190.2910  176.6690  138.8220 C   0  0  0  0  0  1  0  0  0  0  0  0
  1 21  1  6  0  0  0
  1 20  1  0  0  0  0
  1 19  1  0  0  0  0
  2  7  1  0  0  0  0
  4 12  1  0  0  0  0
  5 18  2  0  0  0  0
  6  9  2  0  0  0  0
  7  4  2  0  0  0  0
  7  5  1  0  0  0  0
  9  4  1  0  0  0  0
 10 14  1  0  0  0  0
 10 15  1  1  0  0  0
 11  5  1  0  0  0  0
 12  8  2  0  0  0  0
 13 15  1  0  0  0  0
 14  3  1  6  0  0  0
 16  6  1  0  0  0  0
 17  6  1  0  0  0  0
 17  2  2  0  0  0  0
 18  8  1  0  0  0  0
 18 14  1  0  0  0  0
 19 13  1  0  0  0  0
 20 11  1  6  0  0  0
 20 10  1  0  0  0  0
 21 22  1  6  0  0  0
 23 21  1  0  0  0  0
 25 24  1  6  0  0  0
 25 23  1  0  0  0  0
 26 27  2  0  0  0  0
 26 25  1  0  0  0  0
 28 26  1  0  0  0  0
M  END
>  <MODEL>
1

>  <REMARK>
 VINA RESULT:     -11.2      0.000      0.000
  Name = 
  4 active torsions:
  status: ('A' for Active; 'I' for Inactive)
    1  A    between atoms: C_1  and  C_2
    2  A    between atoms: C_2  and  C_3
    3  A    between atoms: C_3  and  C_11
    4  A    between atoms: C_6  and  C_11
                            x       y       z     vdW  Elec       q    Type
                         _______ _______ _______ _____ _____    ______ ____

>  <TORSDO>
F 4

$$$$
=
 OpenBabel10262420503D

 28 31  0  0  1  0  0  0  0  0999 V2000
  189.0660  177.1040  145.3020 C   0  0  1  0  0  3  0  0  0  0  0  0
  185.2610  178.0070  141.7870 C   0  0  0  0  0  3  0  0  0  0  0  0
  186.1350  179.7570  147.0830 F   0  0  0  0  0  0  0  0  0  0  0  0
  183.4030  178.7870  143.1450 C   0  0  0  0  0  0  0  0  0  0  0  0
  185.5190  178.1980  144.2200 C   0  0  0  0  0  0  0  0  0  0  0  0
  183.1580  178.5980  140.7420 C   0  0  0  0  0  0  0  0  0  0  0  0
  184.7390  178.3270  143.0500 C   0  0  0  0  0  0  0  0  0  0  0  0
  183.6260  178.9720  145.5430 C   0  0  0  0  0  3  0  0  0  0  0  0
  182.6230  178.9200  141.9930 C   0  0  0  0  0  3  0  0  0  0  0  0
  186.9690  177.5610  146.6320 C   0  0  2  0  0  3  0  0  0  0  0  0
  186.9110  177.6160  144.1370 C   0  0  0  0  0  2  0  0  0  0  0  0
  182.8580  179.1060  144.3870 C   0  0  0  0  0  3  0  0  0  0  0  0
  188.7260  176.6740  147.7320 C   0  0  0  0  0  2  0  0  0  0  0  0
  185.7460  178.4710  146.7470 C   0  0  2  0  0  3  0  0  0  0  0  0
  187.7680  177.6990  147.7820 O   0  0  0  0  0  0  0  0  0  0  0  0
  182.3800  178.7330  139.6010 O   0  0  0  0  0  1  0  0  0  0  0  0
  184.4740  178.1430  140.6400 C   0  0  0  0  0  3  0  0  0  0  0  0
  184.9450  178.5120  145.4750 C   0  0  0  0  0  0  0  0  0  0  0  0
  189.7610  177.0000  146.6620 C   0  0  0  0  0  2  0  0  0  0  0  0
  187.7650  177.9210  145.3660 C   0  0  2  0  0  3  0  0  0  0  0  0
  190.0110  177.5780  144.1860 C   0  0  2  0  0  3  0  0  0  0  0  0
  190.0950  178.9710  144.1280 O   0  0  0  0  0  1  0  0  0  0  0  0
  189.8180  176.9500  142.7930 C   0  0  0  0  0  2  0  0  0  0  0  0
  191.8390  177.4430  141.5500 O   0  0  0  0  0  1  0  0  0  0  0  0
  190.4620  177.6690  141.5990 C   0  0  1  0  0  3  0  0  0  0  0  0
  189.7890  177.3930  140.2810 C   0  0  0  0  0  0  0  0  0  0  0  0
  188.6550  178.0200  139.9780 C   0  0  0  0  0  2  0  0  0  0  0  0
  190.4390  176.5420  139.2390 C   0  0  0  0  0  1  0  0  0  0  0  0
  1 21  1  6  0  0  0
  1 20  1  0  0  0  0
  1 19  1  0  0  0  0
  2  7  1  0  0  0  0
  4 12  1  0  0  0  0
  5 18  2  0  0  0  0
  6  9  2  0  0  0  0
  7  4  2  0  0  0  0
  7  5  1  0  0  0  0
  9  4  1  0  0  0  0
 10 14  1  0  0  0  0
 10 15  1  1  0  0  0
 11  5  1  0  0  0  0
 12  8  2  0  0  0  0
 13 15  1  0  0  0  0
 14  3  1  6  0  0  0
 16  6  1  0  0  0  0
 17  6  1  0  0  0  0
 17  2  2  0  0  0  0
 18  8  1  0  0  0  0
 18 14  1  0  0  0  0
 19 13  1  0  0  0  0
 20 11  1  6  0  0  0
 20 10  1  0  0  0  0
 21 22  1  6  0  0  0
 23 21  1  0  0  0  0
 25 24  1  6  0  0  0
 25 23  1  0  0  0  0
 26 25  1  0  0  0  0
 27 26  2  0  0  0  0
 28 26  1  0  0  0  0
M  END
>  <MODEL>
2

>  <REMARK>
 VINA RESULT:      -9.8      1.320      1.998
  Name = 
  4 active torsions:
  status: ('A' for Active; 'I' for Inactive)
    1  A    between atoms: C_1  and  C_2
    2  A    between atoms: C_2  and  C_3
    3  A    between atoms: C_3  and  C_11
    4  A    between atoms: C_6  and  C_11
                            x       y       z     vdW  Elec       q    Type
                         _______ _______ _______ _____ _____    ______ ____

>  <TORSDO>
F 4

$$$$
=
 OpenBabel10262420503D

 28 31  0  0  1  0  0  0  0  0999 V2000
  190.2090  176.4460  142.5170 C   0  0  1  0  0  3  0  0  0  0  0  0
  185.2270  178.0930  142.8550 C   0  0  0  0  0  3  0  0  0  0  0  0
  189.7580  178.7620  146.1550 F   0  0  0  0  0  0  0  0  0  0  0  0
  184.9620  178.6320  145.2090 C   0  0  0  0  0  0  0  0  0  0  0  0
  187.1140  177.8020  144.3960 C   0  0  0  0  0  0  0  0  0  0  0  0
  183.1060  178.9190  143.6810 C   0  0  0  0  0  0  0  0  0  0  0  0
  185.7750  178.1720  144.1450 C   0  0  0  0  0  0  0  0  0  0  0  0
  186.8000  178.3430  146.7510 C   0  0  0  0  0  3  0  0  0  0  0  0
  183.6360  179.0030  144.9710 C   0  0  0  0  0  3  0  0  0  0  0  0
  189.7070  176.6780  144.9810 C   0  0  2  0  0  3  0  0  0  0  0  0
  187.9560  177.2190  143.2850 C   0  0  0  0  0  2  0  0  0  0  0  0
  185.4800  178.7140  146.5010 C   0  0  0  0  0  3  0  0  0  0  0  0
  191.5760  175.5590  144.4010 C   0  0  0  0  0  2  0  0  0  0  0  0
  189.0560  177.5730  146.0350 C   0  0  2  0  0  3  0  0  0  0  0  0
  191.0870  176.5740  145.2380 O   0  0  0  0  0  0  0  0  0  0  0  0
  181.7880  179.2890  143.4480 O   0  0  0  0  0  1  0  0  0  0  0  0
  183.8990  178.4650  142.6250 C   0  0  0  0  0  3  0  0  0  0  0  0
  187.6180  177.8780  145.7160 C   0  0  0  0  0  0  0  0  0  0  0  0
  191.6220  176.0650  142.9650 C   0  0  0  0  0  2  0  0  0  0  0  0
  189.4540  177.2610  143.5800 C   0  0  2  0  0  3  0  0  0  0  0  0
  190.1820  177.1080  141.1300 C   0  0  2  0  0  3  0  0  0  0  0  0
  191.4350  177.6040  140.7630 O   0  0  0  0  0  1  0  0  0  0  0  0
  189.0550  178.1220  140.8610 C   0  0  0  0  0  2  0  0  0  0  0  0
  186.9580  178.6280  139.7560 O   0  0  0  0  0  1  0  0  0  0  0  0
  188.0940  177.8190  139.7020 C   0  0  1  0  0  3  0  0  0  0  0  0
  188.7460  177.8370  138.3450 C   0  0  0  0  0  0  0  0  0  0  0  0
  189.0560  179.0020  137.7820 C   0  0  0  0  0  2  0  0  0  0  0  0
  189.1900  176.5760  137.6780 C   0  0  0  0  0  1  0  0  0  0  0  0
  1 21  1  6  0  0  0
  1 19  1  0  0  0  0
  1 20  1  0  0  0  0
  2  7  1  0  0  0  0
  4 12  1  0  0  0  0
  5 18  2  0  0  0  0
  6  9  2  0  0  0  0
  7  5  1  0  0  0  0
  7  4  2  0  0  0  0
  9  4  1  0  0  0  0
 10 15  1  1  0  0  0
 10 14  1  0  0  0  0
 11  5  1  0  0  0  0
 12  8  2  0  0  0  0
 13 15  1  0  0  0  0
 14  3  1  6  0  0  0
 16  6  1  0  0  0  0
 17  2  2  0  0  0  0
 17  6  1  0  0  0  0
 18 14  1  0  0  0  0
 18  8  1  0  0  0  0
 19 13  1  0  0  0  0
 20 11  1  6  0  0  0
 20 10  1  0  0  0  0
 21 22  1  1  0  0  0
 23 21  1  0  0  0  0
 25 24  1  6  0  0  0
 25 23  1  0  0  0  0
 26 25  1  0  0  0  0
 27 26  2  0  0  0  0
 28 26  1  0  0  0  0
M  END
>  <MODEL>
3

>  <REMARK>
 VINA RESULT:      -9.6      1.576      2.320
  Name = 
  4 active torsions:
  status: ('A' for Active; 'I' for Inactive)
    1  A    between atoms: C_1  and  C_2
    2  A    between atoms: C_2  and  C_3
    3  A    between atoms: C_3  and  C_11
    4  A    between atoms: C_6  and  C_11
                            x       y       z     vdW  Elec       q    Type
                         _______ _______ _______ _____ _____    ______ ____

>  <TORSDO>
F 4

$$$$
=
 OpenBabel10262420503D

 28 31  0  0  1  0  0  0  0  0999 V2000
  189.8640  176.7040  142.0560 C   0  0  1  0  0  3  0  0  0  0  0  0
  184.8810  178.2590  142.6980 C   0  0  0  0  0  3  0  0  0  0  0  0
  189.5310  178.7530  145.8620 F   0  0  0  0  0  0  0  0  0  0  0  0
  184.7030  178.6290  145.0930 C   0  0  0  0  0  0  0  0  0  0  0  0
  186.8300  177.8850  144.1420 C   0  0  0  0  0  0  0  0  0  0  0  0
  182.7860  178.9980  143.6600 C   0  0  0  0  0  0  0  0  0  0  0  0
  185.4790  178.2550  143.9690 C   0  0  0  0  0  0  0  0  0  0  0  0
  186.6020  178.2560  146.5390 C   0  0  0  0  0  3  0  0  0  0  0  0
  183.3650  178.9980  144.9320 C   0  0  0  0  0  3  0  0  0  0  0  0
  189.4550  176.7570  144.5470 C   0  0  2  0  0  3  0  0  0  0  0  0
  187.6340  177.3920  142.9620 C   0  0  0  0  0  2  0  0  0  0  0  0
  185.2690  178.6270  146.3670 C   0  0  0  0  0  3  0  0  0  0  0  0
  191.3110  175.7050  143.8200 C   0  0  0  0  0  2  0  0  0  0  0  0
  188.8360  177.5680  145.6860 C   0  0  2  0  0  3  0  0  0  0  0  0
  190.8450  176.6530  144.7440 O   0  0  0  0  0  0  0  0  0  0  0  0
  181.4570  179.3660  143.5040 O   0  0  0  0  0  1  0  0  0  0  0  0
  183.5420  178.6290  142.5460 C   0  0  0  0  0  3  0  0  0  0  0  0
  187.3840  177.8750  145.4440 C   0  0  0  0  0  0  0  0  0  0  0  0
  191.2970  176.3110  142.4220 C   0  0  0  0  0  2  0  0  0  0  0  0
  189.1420  177.4330  143.2010 C   0  0  2  0  0  3  0  0  0  0  0  0
  189.7760  177.4610  140.7210 C   0  0  2  0  0  3  0  0  0  0  0  0
  188.5620  177.2310  140.0690 O   0  0  0  0  0  1  0  0  0  0  0  0
  190.9790  177.3390  139.7670 C   0  0  0  0  0  2  0  0  0  0  0  0
  190.2060  177.4970  137.4760 O   0  0  0  0  0  1  0  0  0  0  0  0
  190.7460  176.6290  138.4260 C   0  0  1  0  0  3  0  0  0  0  0  0
  191.9510  175.8900  137.9070 C   0  0  0  0  0  0  0  0  0  0  0  0
  193.1270  176.5110  137.8490 C   0  0  0  0  0  2  0  0  0  0  0  0
  191.8940  174.4310  137.5920 C   0  0  0  0  0  1  0  0  0  0  0  0
  1 21  1  6  0  0  0
  1 19  1  0  0  0  0
  1 20  1  0  0  0  0
  2  7  1  0  0  0  0
  4 12  1  0  0  0  0
  5 18  2  0  0  0  0
  6  9  2  0  0  0  0
  7  5  1  0  0  0  0
  7  4  2  0  0  0  0
  9  4  1  0  0  0  0
 10 15  1  1  0  0  0
 10 14  1  0  0  0  0
 11  5  1  0  0  0  0
 12  8  2  0  0  0  0
 13 15  1  0  0  0  0
 14  3  1  6  0  0  0
 16  6  1  0  0  0  0
 17  2  2  0  0  0  0
 17  6  1  0  0  0  0
 18 14  1  0  0  0  0
 18  8  1  0  0  0  0
 19 13  1  0  0  0  0
 20 11  1  6  0  0  0
 20 10  1  0  0  0  0
 21 22  1  6  0  0  0
 23 21  1  0  0  0  0
 25 24  1  6  0  0  0
 25 23  1  0  0  0  0
 26 25  1  0  0  0  0
 27 26  2  0  0  0  0
 28 26  1  0  0  0  0
M  END
>  <MODEL>
4

>  <REMARK>
 VINA RESULT:      -9.6      1.739      2.664
  Name = 
  4 active torsions:
  status: ('A' for Active; 'I' for Inactive)
    1  A    between atoms: C_1  and  C_2
    2  A    between atoms: C_2  and  C_3
    3  A    between atoms: C_3  and  C_11
    4  A    between atoms: C_6  and  C_11
                            x       y       z     vdW  Elec       q    Type
                         _______ _______ _______ _____ _____    ______ ____

>  <TORSDO>
F 4

$$$$
=
 OpenBabel10262420503D

 28 31  0  0  1  0  0  0  0  0999 V2000
  189.1120  177.4700  139.3370 C   0  0  1  0  0  3  0  0  0  0  0  0
  186.2520  178.0420  143.7120 C   0  0  0  0  0  3  0  0  0  0  0  0
  191.7540  178.6110  142.5800 F   0  0  0  0  0  0  0  0  0  0  0  0
  187.8960  177.8770  145.4950 C   0  0  0  0  0  0  0  0  0  0  0  0
  188.6190  177.6950  143.1650 C   0  0  0  0  0  0  0  0  0  0  0  0
  185.5580  178.2210  146.0260 C   0  0  0  0  0  0  0  0  0  0  0  0
  187.5880  177.8710  144.1120 C   0  0  0  0  0  0  0  0  0  0  0  0
  190.2310  177.5220  144.9840 C   0  0  0  0  0  3  0  0  0  0  0  0
  186.8820  178.0520  146.4400 C   0  0  0  0  0  3  0  0  0  0  0  0
  190.6560  176.9420  141.2640 C   0  0  2  0  0  3  0  0  0  0  0  0
  188.2840  177.5910  141.6960 C   0  0  0  0  0  2  0  0  0  0  0  0
  189.2130  177.7020  145.9190 C   0  0  0  0  0  3  0  0  0  0  0  0
  191.3440  176.3740  139.1940 C   0  0  0  0  0  2  0  0  0  0  0  0
  191.1010  177.3910  142.6560 C   0  0  2  0  0  3  0  0  0  0  0  0
  191.7420  177.0240  140.3730 O   0  0  0  0  0  0  0  0  0  0  0  0
  184.5550  178.3970  146.9680 O   0  0  0  0  0  1  0  0  0  0  0  0
  185.2440  178.2160  144.6650 C   0  0  0  0  0  3  0  0  0  0  0  0
  189.9480  177.5050  143.6150 C   0  0  0  0  0  0  0  0  0  0  0  0
  190.3390  177.2450  138.4500 C   0  0  0  0  0  2  0  0  0  0  0  0
  189.4880  177.8230  140.7850 C   0  0  2  0  0  3  0  0  0  0  0  0
  188.1100  178.4620  138.7250 C   0  0  2  0  0  3  0  0  0  0  0  0
  186.8160  178.2670  139.2150 O   0  0  0  0  0  1  0  0  0  0  0  0
  188.1320  178.6250  137.1940 C   0  0  0  0  0  2  0  0  0  0  0  0
  186.8270  178.3790  135.1670 O   0  0  0  0  0  1  0  0  0  0  0  0
  187.1530  177.7690  136.3790 C   0  0  1  0  0  3  0  0  0  0  0  0
  187.5900  176.3390  136.2000 C   0  0  0  0  0  0  0  0  0  0  0  0
  188.5680  176.0550  135.3420 C   0  0  0  0  0  2  0  0  0  0  0  0
  187.0580  175.2470  137.0690 C   0  0  0  0  0  1  0  0  0  0  0  0
  1 21  1  6  0  0  0
  1 20  1  0  0  0  0
  2  7  2  0  0  0  0
  2 17  1  0  0  0  0
  4 12  1  0  0  0  0
  4  9  2  0  0  0  0
  5 18  2  0  0  0  0
  5  7  1  0  0  0  0
  6  9  1  0  0  0  0
  6 16  1  0  0  0  0
  7  4  1  0  0  0  0
  8 12  2  0  0  0  0
 10 15  1  6  0  0  0
 10 14  1  0  0  0  0
 11  5  1  0  0  0  0
 13 15  1  0  0  0  0
 14  3  1  6  0  0  0
 14 18  1  0  0  0  0
 17  6  2  0  0  0  0
 18  8  1  0  0  0  0
 19 13  1  0  0  0  0
 19  1  1  0  0  0  0
 20 10  1  0  0  0  0
 20 11  1  1  0  0  0
 21 22  1  6  0  0  0
 23 21  1  0  0  0  0
 25 24  1  6  0  0  0
 25 23  1  0  0  0  0
 26 25  1  0  0  0  0
 26 28  1  0  0  0  0
 27 26  2  0  0  0  0
M  END
>  <MODEL>
5

>  <REMARK>
 VINA RESULT:      -8.9      2.970      5.321
  Name = 
  4 active torsions:
  status: ('A' for Active; 'I' for Inactive)
    1  A    between atoms: C_1  and  C_2
    2  A    between atoms: C_2  and  C_3
    3  A    between atoms: C_3  and  C_11
    4  A    between atoms: C_6  and  C_11
                            x       y       z     vdW  Elec       q    Type
                         _______ _______ _______ _____ _____    ______ ____

>  <TORSDO>
F 4

$$$$
=
 OpenBabel10262420503D

 28 31  0  0  1  0  0  0  0  0999 V2000
  187.5710  178.1820  146.8430 C   0  0  1  0  0  3  0  0  0  0  0  0
  188.0820  178.2500  141.6100 C   0  0  0  0  0  3  0  0  0  0  0  0
  190.9250  175.6620  145.7450 F   0  0  0  0  0  0  0  0  0  0  0  0
  190.3670  177.5050  141.2500 C   0  0  0  0  0  0  0  0  0  0  0  0
  189.5000  177.6800  143.5300 C   0  0  0  0  0  0  0  0  0  0  0  0
  188.9600  178.0670  139.3600 C   0  0  0  0  0  0  0  0  0  0  0  0
  189.3080  177.8140  142.1380 C   0  0  0  0  0  0  0  0  0  0  0  0
  191.7890  176.9500  143.1220 C   0  0  0  0  0  3  0  0  0  0  0  0
  190.1870  177.6320  139.8700 C   0  0  0  0  0  3  0  0  0  0  0  0
  190.0200  177.7870  146.3670 C   0  0  2  0  0  3  0  0  0  0  0  0
  188.4080  178.1010  144.4850 C   0  0  0  0  0  2  0  0  0  0  0  0
  191.5970  177.0770  141.7480 C   0  0  0  0  0  3  0  0  0  0  0  0
  189.4400  178.2930  148.4860 C   0  0  0  0  0  2  0  0  0  0  0  0
  191.0040  177.0200  145.4830 C   0  0  2  0  0  3  0  0  0  0  0  0
  190.1820  177.3910  147.7070 O   0  0  0  0  0  0  0  0  0  0  0  0
  188.7850  178.1900  137.9890 O   0  0  0  0  0  1  0  0  0  0  0  0
  187.9110  178.3750  140.2280 C   0  0  0  0  0  3  0  0  0  0  0  0
  190.7600  177.2580  144.0190 C   0  0  0  0  0  0  0  0  0  0  0  0
  187.9540  178.0070  148.3140 C   0  0  0  0  0  2  0  0  0  0  0  0
  188.5810  177.5230  145.8890 C   0  0  2  0  0  3  0  0  0  0  0  0
  186.1200  177.7680  146.5510 C   0  0  2  0  0  3  0  0  0  0  0  0
  186.0530  176.6650  145.6960 O   0  0  0  0  0  1  0  0  0  0  0  0
  185.1440  178.8840  146.1350 C   0  0  0  0  0  2  0  0  0  0  0  0
  182.8830  179.0400  145.2760 O   0  0  0  0  0  1  0  0  0  0  0  0
  184.1690  178.5780  144.9890 C   0  0  1  0  0  3  0  0  0  0  0  0
  184.6510  179.0320  143.6370 C   0  0  0  0  0  0  0  0  0  0  0  0
  185.3990  180.1290  143.5410 C   0  0  0  0  0  2  0  0  0  0  0  0
  184.4360  178.2010  142.4150 C   0  0  0  0  0  1  0  0  0  0  0  0
  1 21  1  1  0  0  0
  1 19  1  0  0  0  0
  2  7  1  0  0  0  0
  4 12  2  0  0  0  0
  4  7  1  0  0  0  0
  5 18  1  0  0  0  0
  5 11  1  0  0  0  0
  6  9  2  0  0  0  0
  6 17  1  0  0  0  0
  7  5  2  0  0  0  0
  8 18  2  0  0  0  0
  9  4  1  0  0  0  0
 10 15  1  1  0  0  0
 12  8  1  0  0  0  0
 14  3  1  6  0  0  0
 14 10  1  0  0  0  0
 15 13  1  0  0  0  0
 16  6  1  0  0  0  0
 17  2  2  0  0  0  0
 18 14  1  0  0  0  0
 19 13  1  0  0  0  0
 20 11  1  6  0  0  0
 20 10  1  0  0  0  0
 20  1  1  0  0  0  0
 21 22  1  6  0  0  0
 23 21  1  0  0  0  0
 25 24  1  1  0  0  0
 25 23  1  0  0  0  0
 26 25  1  0  0  0  0
 27 26  2  0  0  0  0
 28 26  1  0  0  0  0
M  END
>  <MODEL>
6

>  <REMARK>
 VINA RESULT:      -8.7      1.936      5.663
  Name = 
  4 active torsions:
  status: ('A' for Active; 'I' for Inactive)
    1  A    between atoms: C_1  and  C_2
    2  A    between atoms: C_2  and  C_3
    3  A    between atoms: C_3  and  C_11
    4  A    between atoms: C_6  and  C_11
                            x       y       z     vdW  Elec       q    Type
                         _______ _______ _______ _____ _____    ______ ____

>  <TORSDO>
F 4

$$$$
=
 OpenBabel10262420503D

 28 31  0  0  1  0  0  0  0  0999 V2000
  182.5610  178.4920  140.0990 C   0  0  1  0  0  3  0  0  0  0  0  0
  186.8660  177.6700  143.0050 C   0  0  0  0  0  3  0  0  0  0  0  0
  181.3570  177.8960  144.2210 F   0  0  0  0  0  0  0  0  0  0  0  0
  186.1270  178.1530  145.2690 C   0  0  0  0  0  0  0  0  0  0  0  0
  184.5440  178.3490  143.4150 C   0  0  0  0  0  0  0  0  0  0  0  0
  188.4160  177.4800  144.8560 C   0  0  0  0  0  0  0  0  0  0  0  0
  185.8420  178.0560  143.8850 C   0  0  0  0  0  0  0  0  0  0  0  0
  183.8500  178.8360  145.6990 C   0  0  0  0  0  3  0  0  0  0  0  0
  187.4080  177.8650  145.7450 C   0  0  0  0  0  3  0  0  0  0  0  0
  182.0170  179.3250  142.4190 C   0  0  2  0  0  3  0  0  0  0  0  0
  184.2590  178.3420  141.9310 C   0  0  0  0  0  2  0  0  0  0  0  0
  185.1300  178.5420  146.1640 C   0  0  0  0  0  3  0  0  0  0  0  0
  180.6180  179.9070  140.7500 C   0  0  0  0  0  2  0  0  0  0  0  0
  182.1280  179.0050  143.9100 C   0  0  2  0  0  3  0  0  0  0  0  0
  180.6600  179.3730  142.0480 O   0  0  0  0  0  0  0  0  0  0  0  0
  189.6870  177.1920  145.3330 O   0  0  0  0  0  1  0  0  0  0  0  0
  188.1450  177.3830  143.4900 C   0  0  0  0  0  3  0  0  0  0  0  0
  183.5480  178.7560  144.3360 C   0  0  0  0  0  0  0  0  0  0  0  0
  181.1170  178.8650  139.7570 C   0  0  0  0  0  2  0  0  0  0  0  0
  182.7700  178.2590  141.6040 C   0  0  2  0  0  3  0  0  0  0  0  0
  183.0970  177.3360  139.2390 C   0  0  2  0  0  3  0  0  0  0  0  0
  183.0790  177.6460  137.8760 O   0  0  0  0  0  1  0  0  0  0  0  0
  182.5310  175.9320  139.5220 C   0  0  0  0  0  2  0  0  0  0  0  0
  181.8720  174.5140  137.6710 O   0  0  0  0  0  1  0  0  0  0  0  0
  181.4000  175.4310  138.6120 C   0  0  1  0  0  3  0  0  0  0  0  0
  180.1960  174.9190  139.3560 C   0  0  0  0  0  0  0  0  0  0  0  0
  179.6430  173.7630  138.9940 C   0  0  0  0  0  2  0  0  0  0  0  0
  179.6930  175.6010  140.5860 C   0  0  0  0  0  1  0  0  0  0  0  0
  1 21  1  6  0  0  0
  1 20  1  0  0  0  0
  2 17  2  0  0  0  0
  2  7  1  0  0  0  0
  4  9  1  0  0  0  0
  4 12  1  0  0  0  0
  5  7  1  0  0  0  0
  5 18  2  0  0  0  0
  6 16  1  0  0  0  0
  6  9  2  0  0  0  0
  7  4  2  0  0  0  0
  8 12  2  0  0  0  0
 10 15  1  6  0  0  0
 10 14  1  0  0  0  0
 11  5  1  0  0  0  0
 13 15  1  0  0  0  0
 14  3  1  6  0  0  0
 14 18  1  0  0  0  0
 17  6  1  0  0  0  0
 18  8  1  0  0  0  0
 19  1  1  0  0  0  0
 19 13  1  0  0  0  0
 20 11  1  6  0  0  0
 20 10  1  0  0  0  0
 21 22  1  6  0  0  0
 21 23  1  0  0  0  0
 25 24  1  1  0  0  0
 25 26  1  0  0  0  0
 25 23  1  0  0  0  0
 26 28  1  0  0  0  0
 27 26  2  0  0  0  0
M  END
>  <MODEL>
7

>  <REMARK>
 VINA RESULT:      -8.7      3.690      8.097
  Name = 
  4 active torsions:
  status: ('A' for Active; 'I' for Inactive)
    1  A    between atoms: C_1  and  C_2
    2  A    between atoms: C_2  and  C_3
    3  A    between atoms: C_3  and  C_11
    4  A    between atoms: C_6  and  C_11
                            x       y       z     vdW  Elec       q    Type
                         _______ _______ _______ _____ _____    ______ ____

>  <TORSDO>
F 4

$$$$
=
 OpenBabel10262420503D

 28 31  0  0  1  0  0  0  0  0999 V2000
  189.0430  177.2270  139.3220 C   0  0  1  0  0  3  0  0  0  0  0  0
  186.2450  177.9970  143.7070 C   0  0  0  0  0  3  0  0  0  0  0  0
  191.7400  178.4470  142.4910 F   0  0  0  0  0  0  0  0  0  0  0  0
  187.9070  177.8740  145.4750 C   0  0  0  0  0  0  0  0  0  0  0  0
  188.5990  177.5970  143.1450 C   0  0  0  0  0  0  0  0  0  0  0  0
  185.5810  178.2700  146.0200 C   0  0  0  0  0  0  0  0  0  0  0  0
  187.5820  177.8230  144.0970 C   0  0  0  0  0  0  0  0  0  0  0  0
  190.2300  177.4680  144.9510 C   0  0  0  0  0  3  0  0  0  0  0  0
  186.9080  178.0970  146.4250 C   0  0  0  0  0  3  0  0  0  0  0  0
  190.6030  176.7480  141.2490 C   0  0  2  0  0  3  0  0  0  0  0  0
  188.2450  177.4450  141.6840 C   0  0  0  0  0  2  0  0  0  0  0  0
  189.2260  177.6960  145.8900 C   0  0  0  0  0  3  0  0  0  0  0  0
  191.2580  176.0950  139.1940 C   0  0  0  0  0  2  0  0  0  0  0  0
  191.0710  177.2400  142.6190 C   0  0  2  0  0  3  0  0  0  0  0  0
  191.6790  176.7810  140.3440 O   0  0  0  0  0  0  0  0  0  0  0  0
  184.5920  178.4940  146.9670 O   0  0  0  0  0  1  0  0  0  0  0  0
  185.2510  178.2200  144.6640 C   0  0  0  0  0  3  0  0  0  0  0  0
  189.9310  177.4050  143.5860 C   0  0  0  0  0  0  0  0  0  0  0  0
  190.2560  176.9520  138.4300 C   0  0  0  0  0  2  0  0  0  0  0  0
  189.4410  177.6260  140.7520 C   0  0  2  0  0  3  0  0  0  0  0  0
  188.0470  178.2110  138.6860 C   0  0  2  0  0  3  0  0  0  0  0  0
  188.6730  179.3810  138.2510 O   0  0  0  0  0  1  0  0  0  0  0  0
  186.7540  178.5010  139.4710 C   0  0  0  0  0  2  0  0  0  0  0  0
  185.2480  177.4880  137.8650 O   0  0  0  0  0  1  0  0  0  0  0  0
  185.4510  178.6130  138.6670 C   0  0  1  0  0  3  0  0  0  0  0  0
  184.2430  178.9460  139.5010 C   0  0  0  0  0  0  0  0  0  0  0  0
  184.2320  178.6340  140.7950 C   0  0  0  0  0  2  0  0  0  0  0  0
  183.1130  179.7510  138.9480 C   0  0  0  0  0  1  0  0  0  0  0  0
  1 21  1  6  0  0  0
  1 20  1  0  0  0  0
  2  7  2  0  0  0  0
  2 17  1  0  0  0  0
  4 12  1  0  0  0  0
  4  9  2  0  0  0  0
  5 18  2  0  0  0  0
  5  7  1  0  0  0  0
  6  9  1  0  0  0  0
  6 16  1  0  0  0  0
  7  4  1  0  0  0  0
  8 12  2  0  0  0  0
 10 15  1  6  0  0  0
 10 14  1  0  0  0  0
 11  5  1  0  0  0  0
 13 15  1  0  0  0  0
 14  3  1  6  0  0  0
 14 18  1  0  0  0  0
 17  6  2  0  0  0  0
 18  8  1  0  0  0  0
 19 13  1  0  0  0  0
 19  1  1  0  0  0  0
 20 10  1  0  0  0  0
 20 11  1  1  0  0  0
 21 22  1  1  0  0  0
 21 23  1  0  0  0  0
 25 24  1  1  0  0  0
 25 23  1  0  0  0  0
 25 26  1  0  0  0  0
 26 27  2  0  0  0  0
 28 26  1  0  0  0  0
M  END
>  <MODEL>
8

>  <REMARK>
 VINA RESULT:      -8.7      2.555      5.462
  Name = 
  4 active torsions:
  status: ('A' for Active; 'I' for Inactive)
    1  A    between atoms: C_1  and  C_2
    2  A    between atoms: C_2  and  C_3
    3  A    between atoms: C_3  and  C_11
    4  A    between atoms: C_6  and  C_11
                            x       y       z     vdW  Elec       q    Type
                         _______ _______ _______ _____ _____    ______ ____

>  <TORSDO>
F 4

$$$$
=
 OpenBabel10262420503D

 28 31  0  0  1  0  0  0  0  0999 V2000
  188.0090  177.5580  140.1270 C   0  0  1  0  0  3  0  0  0  0  0  0
  187.6140  177.5880  145.3700 C   0  0  0  0  0  3  0  0  0  0  0  0
  191.9440  178.2530  141.8100 F   0  0  0  0  0  0  0  0  0  0  0  0
  189.8910  177.1830  146.1170 C   0  0  0  0  0  0  0  0  0  0  0  0
  189.4080  177.2950  143.7220 C   0  0  0  0  0  0  0  0  0  0  0  0
  188.1140  177.4760  147.7370 C   0  0  0  0  0  0  0  0  0  0  0  0
  188.9640  177.3580  145.0600 C   0  0  0  0  0  0  0  0  0  0  0  0
  191.6730  176.8790  144.5150 C   0  0  0  0  0  3  0  0  0  0  0  0
  189.4610  177.2450  147.4450 C   0  0  0  0  0  3  0  0  0  0  0  0
  190.2420  176.7750  141.0090 C   0  0  2  0  0  3  0  0  0  0  0  0
  188.4090  177.3830  142.5910 C   0  0  0  0  0  2  0  0  0  0  0  0
  191.2350  176.9460  145.8370 C   0  0  0  0  0  3  0  0  0  0  0  0
  189.8260  176.4710  138.8140 C   0  0  0  0  0  2  0  0  0  0  0  0
  191.3240  177.0390  142.0560 C   0  0  2  0  0  3  0  0  0  0  0  0
  190.7790  176.9610  139.7210 O   0  0  0  0  0  0  0  0  0  0  0  0
  187.6920  177.5380  149.0580 O   0  0  0  0  0  1  0  0  0  0  0  0
  187.1930  177.6480  146.7020 C   0  0  0  0  0  3  0  0  0  0  0  0
  190.7740  177.0390  143.4560 C   0  0  0  0  0  0  0  0  0  0  0  0
  188.6500  177.4370  138.7420 C   0  0  0  0  0  2  0  0  0  0  0  0
  189.0500  177.7190  141.2460 C   0  0  2  0  0  3  0  0  0  0  0  0
  186.9070  178.6280  140.1820 C   0  0  2  0  0  3  0  0  0  0  0  0
  186.4100  178.8010  141.4760 O   0  0  0  0  0  1  0  0  0  0  0  0
  185.7800  178.5260  139.1370 C   0  0  0  0  0  2  0  0  0  0  0  0
  184.2220  180.3810  139.0930 O   0  0  0  0  0  1  0  0  0  0  0  0
  184.4000  179.0680  139.5330 C   0  0  1  0  0  3  0  0  0  0  0  0
  183.2540  178.1740  139.1400 C   0  0  0  0  0  0  0  0  0  0  0  0
  182.5300  178.4690  138.0630 C   0  0  0  0  0  2  0  0  0  0  0  0
  183.0000  176.8810  139.8430 C   0  0  0  0  0  1  0  0  0  0  0  0
  1 21  1  6  0  0  0
  1 20  1  0  0  0  0
  2 17  1  0  0  0  0
  4  9  2  0  0  0  0
  5  7  1  0  0  0  0
  6 16  1  0  0  0  0
  7  2  2  0  0  0  0
  7  4  1  0  0  0  0
  8 12  2  0  0  0  0
  9  6  1  0  0  0  0
 10 15  1  6  0  0  0
 10 20  1  0  0  0  0
 10 14  1  0  0  0  0
 11  5  1  0  0  0  0
 12  4  1  0  0  0  0
 13 15  1  0  0  0  0
 14  3  1  6  0  0  0
 14 18  1  0  0  0  0
 17  6  2  0  0  0  0
 18  5  2  0  0  0  0
 18  8  1  0  0  0  0
 19 13  1  0  0  0  0
 19  1  1  0  0  0  0
 20 11  1  1  0  0  0
 21 22  1  1  0  0  0
 23 25  1  0  0  0  0
 23 21  1  0  0  0  0
 25 24  1  6  0  0  0
 26 25  1  0  0  0  0
 26 28  1  0  0  0  0
 27 26  2  0  0  0  0
M  END
>  <MODEL>
9

>  <REMARK>
 VINA RESULT:      -8.5      2.487      6.362
  Name = 
  4 active torsions:
  status: ('A' for Active; 'I' for Inactive)
    1  A    between atoms: C_1  and  C_2
    2  A    between atoms: C_2  and  C_3
    3  A    between atoms: C_3  and  C_11
    4  A    between atoms: C_6  and  C_11
                            x       y       z     vdW  Elec       q    Type
                         _______ _______ _______ _____ _____    ______ ____

>  <TORSDO>
F 4

$$$$
