=
 OpenBabel10262420003D

 27 31  0  0  1  0  0  0  0  0999 V2000
  187.3780  177.7470  143.9380 C   0  0  0  0  0  3  0  0  0  0  0  0
  187.2640  178.1190  141.4720 C   0  0  0  0  0  0  0  0  0  0  0  0
  189.6810  178.1630  141.9930 C   0  0  0  0  0  3  0  0  0  0  0  0
  188.7220  177.3750  137.6370 O   0  0  0  0  0  0  0  0  0  0  0  0
  189.5650  175.3750  137.2940 O   0  0  0  0  0  1  0  0  0  0  0  0
  186.5540  178.6350  140.3230 N   0  0  0  0  0  0  0  0  0  0  0  0
  190.0710  176.4910  139.2080 C   0  0  1  0  0  3  0  0  0  0  0  0
  191.7200  178.3700  144.8220 C   0  0  0  0  0  3  0  0  0  0  0  0
  191.4140  177.0900  139.5800 C   0  0  0  0  0  1  0  0  0  0  0  0
  191.4840  177.0650  145.4650 C   0  0  0  0  0  3  0  0  0  0  0  0
  188.9510  177.2710  139.8230 C   0  0  1  0  0  3  0  0  0  0  0  0
  186.7090  178.2100  142.7020 C   0  0  0  0  0  0  0  0  0  0  0  0
  189.8700  176.6130  137.7520 N   0  0  0  0  0  0  0  0  0  0  0  0
  188.2040  177.7310  138.8590 C   0  0  0  0  0  0  0  0  0  0  0  0
  188.6890  177.7060  144.2200 C   0  0  0  0  0  0  0  0  0  0  0  0
  188.6010  177.4210  141.2800 C   0  0  0  0  0  0  0  0  0  0  0  0
  190.9470  178.9030  143.8710 C   0  0  0  0  0  3  0  0  0  0  0  0
  186.9680  178.4710  139.1030 C   0  0  0  0  0  3  0  0  0  0  0  0
  190.2820  176.5830  145.7860 C   0  0  0  0  0  3  0  0  0  0  0  0
  189.0170  177.3660  145.6390 C   0  0  0  0  0  2  0  0  0  0  0  0
  189.7400  178.2640  143.3210 C   0  0  0  0  0  0  0  0  0  0  0  0
  182.5380  179.0280  143.4770 C   0  0  0  0  0  3  0  0  0  0  0  0
  185.3240  178.7600  142.9100 C   0  0  1  0  0  3  0  0  0  0  0  0
  184.3090  178.1400  141.9450 C   0  0  0  0  0  2  0  0  0  0  0  0
  182.8880  178.5080  142.2890 C   0  0  0  0  0  3  0  0  0  0  0  0
  183.5490  179.3870  144.5350 C   0  0  0  0  0  2  0  0  0  0  0  0
  184.8580  178.6240  144.3580 C   0  0  0  0  0  2  0  0  0  0  0  0
  1 15  1  0  0  0  0
  2 12  1  0  0  0  0
  3 21  1  0  0  0  0
  4 13  1  0  0  0  0
  4 14  1  0  0  0  0
  5 13  1  0  0  0  0
  6  2  2  0  0  0  0
  7  9  1  6  0  0  0
  7 11  1  0  0  0  0
  8 10  1  0  0  0  0
 10 19  2  0  0  0  0
 11 14  1  6  0  0  0
 11 16  1  0  0  0  0
 12  1  2  0  0  0  0
 13  7  1  0  0  0  0
 14 18  2  0  0  0  0
 15 20  1  0  0  0  0
 16  2  1  0  0  0  0
 16  3  2  0  0  0  0
 17  8  2  0  0  0  0
 18  6  1  0  0  0  0
 20 19  1  0  0  0  0
 21 17  1  0  0  0  0
 21 15  2  0  0  0  0
 22 26  1  0  0  0  0
 23 12  1  1  0  0  0
 23 27  1  0  0  0  0
 24 25  1  0  0  0  0
 24 23  1  0  0  0  0
 25 22  2  0  0  0  0
 27 26  1  0  0  0  0
M  END
>  <MODEL>
1

>  <REMARK>
 VINA RESULT:     -10.3      0.000      0.000
  Name = 
  1 active torsions:
  status: ('A' for Active; 'I' for Inactive)
    1  A    between atoms: C_9  and  C_15
                            x       y       z     vdW  Elec       q    Type
                         _______ _______ _______ _____ _____    ______ ____

>  <TORSDO>
F 1

$$$$
=
 OpenBabel10262420003D

 27 31  0  0  1  0  0  0  0  0999 V2000
  188.1090  176.9310  143.4840 C   0  0  0  0  0  3  0  0  0  0  0  0
  185.9070  178.0080  143.9590 C   0  0  0  0  0  0  0  0  0  0  0  0
  186.4700  178.7380  141.6650 C   0  0  0  0  0  3  0  0  0  0  0  0
  182.0800  179.1030  142.7170 O   0  0  0  0  0  0  0  0  0  0  0  0
  181.1080  177.7560  141.2780 O   0  0  0  0  0  1  0  0  0  0  0  0
  184.9790  178.5770  144.9120 N   0  0  0  0  0  0  0  0  0  0  0  0
  183.2960  178.3020  141.0010 C   0  0  1  0  0  3  0  0  0  0  0  0
  189.2530  178.7380  139.5550 C   0  0  0  0  0  3  0  0  0  0  0  0
  183.8800  179.1860  139.9140 C   0  0  0  0  0  1  0  0  0  0  0  0
  189.4180  177.3020  139.2650 C   0  0  0  0  0  3  0  0  0  0  0  0
  184.1100  178.3920  142.2540 C   0  0  0  0  0  0  0  0  0  0  0  0
  187.0820  177.4970  144.3890 C   0  0  0  0  0  0  0  0  0  0  0  0
  181.9610  178.8040  141.3720 N   0  0  0  0  0  0  0  0  0  0  0  0
  183.3370  178.8390  143.2040 C   0  0  0  0  0  0  0  0  0  0  0  0
  188.3920  177.2710  142.2180 C   0  0  0  0  0  0  0  0  0  0  0  0
  185.5250  177.9320  142.4900 C   0  0  2  0  0  3  0  0  0  0  0  0
  188.5170  179.2370  140.5520 C   0  0  0  0  0  3  0  0  0  0  0  0
  183.7850  178.9720  144.5880 C   0  0  0  0  0  3  0  0  0  0  0  0
  189.5300  176.3490  140.1920 C   0  0  0  0  0  3  0  0  0  0  0  0
  189.6230  176.6350  141.6570 C   0  0  0  0  0  2  0  0  0  0  0  0
  187.7570  178.4230  141.5150 C   0  0  0  0  0  0  0  0  0  0  0  0
  188.5550  177.9070  148.4300 C   0  0  0  0  0  3  0  0  0  0  0  0
  187.4290  177.4200  145.8510 C   0  0  1  0  0  3  0  0  0  0  0  0
  188.9190  177.1400  146.0740 C   0  0  0  0  0  2  0  0  0  0  0  0
  189.3220  177.2860  147.5190 C   0  0  0  0  0  3  0  0  0  0  0  0
  187.1750  178.4230  148.1130 C   0  0  0  0  0  2  0  0  0  0  0  0
  186.9840  178.6630  146.6190 C   0  0  0  0  0  2  0  0  0  0  0  0
  1 12  1  0  0  0  0
  2 12  2  0  0  0  0
  2  6  1  0  0  0  0
  4 14  1  0  0  0  0
  5 13  1  0  0  0  0
  7  9  1  6  0  0  0
  7 13  1  0  0  0  0
  7 11  1  0  0  0  0
  8 17  2  0  0  0  0
 10  8  1  0  0  0  0
 10 19  2  0  0  0  0
 11 16  1  0  0  0  0
 11 14  2  0  0  0  0
 13  4  1  0  0  0  0
 14 18  1  0  0  0  0
 15  1  2  0  0  0  0
 16  3  1  6  0  0  0
 16  2  1  0  0  0  0
 17 21  1  0  0  0  0
 18  6  2  0  0  0  0
 19 20  1  0  0  0  0
 20 15  1  0  0  0  0
 21  3  2  0  0  0  0
 21 15  1  0  0  0  0
 23 12  1  6  0  0  0
 23 24  1  0  0  0  0
 23 27  1  0  0  0  0
 24 25  1  0  0  0  0
 25 22  2  0  0  0  0
 26 22  1  0  0  0  0
 27 26  1  0  0  0  0
M  END
>  <MODEL>
2

>  <REMARK>
 VINA RESULT:      -9.3      3.475      5.806
  Name = 
  1 active torsions:
  status: ('A' for Active; 'I' for Inactive)
    1  A    between atoms: C_9  and  C_15
                            x       y       z     vdW  Elec       q    Type
                         _______ _______ _______ _____ _____    ______ ____

>  <TORSDO>
F 1

$$$$
=
 OpenBabel10262420003D

 27 31  0  0  1  0  0  0  0  0999 V2000
  187.2900  178.3980  141.1280 C   0  0  0  0  0  3  0  0  0  0  0  0
  185.5730  178.4370  142.9410 C   0  0  1  0  0  3  0  0  0  0  0  0
  187.4560  177.1540  143.9000 C   0  0  0  0  0  3  0  0  0  0  0  0
  184.5860  178.8410  146.9720 O   0  0  0  0  0  0  0  0  0  0  0  0
  185.8540  180.2000  148.1460 O   0  0  0  0  0  1  0  0  0  0  0  0
  184.1830  178.4810  143.3370 N   0  0  0  0  0  0  0  0  0  0  0  0
  186.8170  178.7520  146.6830 C   0  0  1  0  0  3  0  0  0  0  0  0
  190.3930  175.6300  142.7800 C   0  0  0  0  0  3  0  0  0  0  0  0
  187.6510  177.5320  147.0300 C   0  0  0  0  0  1  0  0  0  0  0  0
  191.2190  176.7930  142.4090 C   0  0  0  0  0  3  0  0  0  0  0  0
  186.0890  178.5490  145.3920 C   0  0  0  0  0  0  0  0  0  0  0  0
  185.8990  178.4780  141.6290 C   0  0  0  0  0  0  0  0  0  0  0  0
  185.7610  178.9250  147.6970 N   0  0  0  0  0  0  0  0  0  0  0  0
  184.8110  178.6370  145.6320 C   0  0  0  0  0  0  0  0  0  0  0  0
  188.3410  177.7580  141.6640 C   0  0  0  0  0  0  0  0  0  0  0  0
  186.6590  178.4110  144.0040 C   0  0  0  0  0  0  0  0  0  0  0  0
  189.0720  175.6640  142.9800 C   0  0  0  0  0  3  0  0  0  0  0  0
  183.8030  178.5710  144.5760 C   0  0  0  0  0  3  0  0  0  0  0  0
  190.8390  177.7560  141.5690 C   0  0  0  0  0  3  0  0  0  0  0  0
  189.5590  177.7160  140.7970 C   0  0  0  0  0  2  0  0  0  0  0  0
  188.2410  176.8730  142.8600 C   0  0  0  0  0  0  0  0  0  0  0  0
  183.1110  178.2320  138.3370 C   0  0  0  0  0  3  0  0  0  0  0  0
  184.8590  178.6540  140.5560 C   0  0  1  0  0  3  0  0  0  0  0  0
  185.4590  178.5420  139.1510 C   0  0  0  0  0  2  0  0  0  0  0  0
  184.4030  178.4890  138.0760 C   0  0  0  0  0  3  0  0  0  0  0  0
  182.5820  178.0770  139.7400 C   0  0  0  0  0  2  0  0  0  0  0  0
  183.6820  177.6970  140.7270 C   0  0  0  0  0  2  0  0  0  0  0  0
  1 12  2  0  0  0  0
  1 15  1  0  0  0  0
  2 12  1  6  0  0  0
  2  6  1  0  0  0  0
  2 16  1  0  0  0  0
  3 16  2  0  0  0  0
  4 13  1  0  0  0  0
  6 18  2  0  0  0  0
  7  9  1  1  0  0  0
  7 13  1  0  0  0  0
  8 17  2  0  0  0  0
 10  8  1  0  0  0  0
 11 14  2  0  0  0  0
 11  7  1  0  0  0  0
 13  5  1  0  0  0  0
 14  4  1  0  0  0  0
 15 21  2  0  0  0  0
 16 11  1  0  0  0  0
 18 14  1  0  0  0  0
 19 10  2  0  0  0  0
 20 19  1  0  0  0  0
 20 15  1  0  0  0  0
 21 17  1  0  0  0  0
 21  3  1  0  0  0  0
 22 26  1  0  0  0  0
 23 27  1  0  0  0  0
 23 12  1  1  0  0  0
 24 23  1  0  0  0  0
 25 22  2  0  0  0  0
 25 24  1  0  0  0  0
 26 27  1  0  0  0  0
M  END
>  <MODEL>
3

>  <REMARK>
 VINA RESULT:      -9.2      3.830      5.806
  Name = 
  1 active torsions:
  status: ('A' for Active; 'I' for Inactive)
    1  A    between atoms: C_9  and  C_15
                            x       y       z     vdW  Elec       q    Type
                         _______ _______ _______ _____ _____    ______ ____

>  <TORSDO>
F 1

$$$$
=
 OpenBabel10262420003D

 27 31  0  0  1  0  0  0  0  0999 V2000
  191.0670  177.5030  140.5960 C   0  0  0  0  0  3  0  0  0  0  0  0
  189.0060  177.3510  139.1960 C   0  0  1  0  0  3  0  0  0  0  0  0
  188.1780  177.2710  141.5240 C   0  0  0  0  0  3  0  0  0  0  0  0
  185.0470  178.4390  138.4680 O   0  0  0  0  0  0  0  0  0  0  0  0
  184.4700  180.4650  139.0930 O   0  0  0  0  0  1  0  0  0  0  0  0
  188.3630  176.9370  137.9680 N   0  0  0  0  0  0  0  0  0  0  0  0
  185.7410  179.1850  140.4750 C   0  0  1  0  0  3  0  0  0  0  0  0
  189.4930  176.8200  144.7290 C   0  0  0  0  0  3  0  0  0  0  0  0
  185.3070  178.5610  141.7880 C   0  0  0  0  0  1  0  0  0  0  0  0
  190.2650  178.0620  144.9200 C   0  0  0  0  0  3  0  0  0  0  0  0
  186.7890  178.3490  139.8080 C   0  0  0  0  0  0  0  0  0  0  0  0
  190.3320  177.1490  139.3610 C   0  0  0  0  0  0  0  0  0  0  0  0
  184.6030  179.1930  139.5380 N   0  0  0  0  0  0  0  0  0  0  0  0
  186.3270  177.9750  138.6480 C   0  0  0  0  0  0  0  0  0  0  0  0
  190.6220  177.5240  141.8620 C   0  0  0  0  0  0  0  0  0  0  0  0
  188.1970  178.0690  140.2640 C   0  0  0  0  0  0  0  0  0  0  0  0
  189.0500  176.3710  143.5510 C   0  0  0  0  0  3  0  0  0  0  0  0
  187.1230  177.2110  137.6910 C   0  0  0  0  0  3  0  0  0  0  0  0
  191.2030  178.5090  144.0850 C   0  0  0  0  0  3  0  0  0  0  0  0
  191.6810  177.7360  142.8970 C   0  0  0  0  0  2  0  0  0  0  0  0
  189.2650  177.0510  142.2640 C   0  0  0  0  0  0  0  0  0  0  0  0
  193.0790  175.0200  136.7940 C   0  0  0  0  0  3  0  0  0  0  0  0
  191.1920  176.5770  138.2660 C   0  0  1  0  0  3  0  0  0  0  0  0
  192.6850  176.7530  138.5580 C   0  0  0  0  0  2  0  0  0  0  0  0
  193.5550  175.9900  137.5910 C   0  0  0  0  0  3  0  0  0  0  0  0
  191.6140  174.6760  136.7190 C   0  0  0  0  0  2  0  0  0  0  0  0
  190.8590  175.1170  137.9690 C   0  0  0  0  0  2  0  0  0  0  0  0
  1 15  1  0  0  0  0
  2  6  1  6  0  0  0
  2 12  1  0  0  0  0
  2 16  1  0  0  0  0
  3 21  1  0  0  0  0
  4 14  1  0  0  0  0
  4 13  1  0  0  0  0
  5 13  1  0  0  0  0
  7  9  1  1  0  0  0
  8 10  1  0  0  0  0
 11 16  1  0  0  0  0
 11  7  1  0  0  0  0
 12  1  2  0  0  0  0
 13  7  1  0  0  0  0
 14 11  2  0  0  0  0
 15 21  2  0  0  0  0
 15 20  1  0  0  0  0
 16  3  2  0  0  0  0
 17  8  2  0  0  0  0
 18  6  2  0  0  0  0
 18 14  1  0  0  0  0
 19 10  2  0  0  0  0
 20 19  1  0  0  0  0
 21 17  1  0  0  0  0
 22 25  2  0  0  0  0
 23 24  1  0  0  0  0
 23 12  1  1  0  0  0
 25 24  1  0  0  0  0
 26 22  1  0  0  0  0
 26 27  1  0  0  0  0
 27 23  1  0  0  0  0
M  END
>  <MODEL>
4

>  <REMARK>
 VINA RESULT:      -9.0      2.131      6.144
  Name = 
  1 active torsions:
  status: ('A' for Active; 'I' for Inactive)
    1  A    between atoms: C_9  and  C_15
                            x       y       z     vdW  Elec       q    Type
                         _______ _______ _______ _____ _____    ______ ____

>  <TORSDO>
F 1

$$$$
=
 OpenBabel10262420003D

 27 31  0  0  1  0  0  0  0  0999 V2000
  183.5910  179.0530  142.6470 C   0  0  0  0  0  3  0  0  0  0  0  0
  185.8360  178.5090  141.6990 C   0  0  0  0  0  0  0  0  0  0  0  0
  184.2330  177.6080  140.0470 C   0  0  0  0  0  3  0  0  0  0  0  0
  188.4130  178.2630  138.4300 O   0  0  0  0  0  0  0  0  0  0  0  0
  188.1060  179.7530  136.8440 O   0  0  0  0  0  1  0  0  0  0  0  0
  187.2310  178.1880  141.9090 N   0  0  0  0  0  0  0  0  0  0  0  0
  186.3080  178.7230  137.7770 C   0  0  1  0  0  3  0  0  0  0  0  0
  180.8120  176.9280  139.8580 C   0  0  0  0  0  3  0  0  0  0  0  0
  185.4030  177.7020  137.1140 C   0  0  0  0  0  1  0  0  0  0  0  0
  180.2300  178.2820  139.8610 C   0  0  0  0  0  3  0  0  0  0  0  0
  186.3850  178.4890  139.2530 C   0  0  0  0  0  0  0  0  0  0  0  0
  185.0370  178.7570  142.7610 C   0  0  0  0  0  0  0  0  0  0  0  0
  187.6870  178.5430  137.2870 N   0  0  0  0  0  0  0  0  0  0  0  0
  187.6300  178.2530  139.5590 C   0  0  0  0  0  0  0  0  0  0  0  0
  182.7160  178.6240  141.7250 C   0  0  0  0  0  0  0  0  0  0  0  0
  185.2950  178.6280  140.2840 C   0  0  2  0  0  3  0  0  0  0  0  0
  182.0650  176.6340  140.2180 C   0  0  0  0  0  3  0  0  0  0  0  0
  188.0820  178.0620  140.9350 C   0  0  0  0  0  3  0  0  0  0  0  0
  180.4750  179.2110  140.7860 C   0  0  0  0  0  3  0  0  0  0  0  0
  181.2860  178.9530  142.0160 C   0  0  0  0  0  2  0  0  0  0  0  0
  183.0560  177.6230  140.6720 C   0  0  0  0  0  0  0  0  0  0  0  0
  186.1090  178.2160  146.9120 C   0  0  0  0  0  3  0  0  0  0  0  0
  185.5720  178.7940  144.1680 C   0  0  1  0  0  3  0  0  0  0  0  0
  184.4590  179.0030  145.1990 C   0  0  0  0  0  2  0  0  0  0  0  0
  184.9440  178.8160  146.6150 C   0  0  0  0  0  3  0  0  0  0  0  0
  187.0840  177.7690  145.8550 C   0  0  0  0  0  2  0  0  0  0  0  0
  186.4070  177.5610  144.5030 C   0  0  0  0  0  2  0  0  0  0  0  0
  1 12  1  0  0  0  0
  2  6  1  0  0  0  0
  2 12  2  0  0  0  0
  3 21  2  0  0  0  0
  4 14  1  0  0  0  0
  5 13  1  0  0  0  0
  7  9  1  6  0  0  0
  7 11  1  0  0  0  0
  8 10  1  0  0  0  0
  8 17  2  0  0  0  0
 10 19  2  0  0  0  0
 11 14  2  0  0  0  0
 11 16  1  0  0  0  0
 13  7  1  0  0  0  0
 13  4  1  0  0  0  0
 14 18  1  0  0  0  0
 15 20  1  0  0  0  0
 15  1  2  0  0  0  0
 16  3  1  6  0  0  0
 16  2  1  0  0  0  0
 17 21  1  0  0  0  0
 18  6  2  0  0  0  0
 19 20  1  0  0  0  0
 21 15  1  0  0  0  0
 23 12  1  6  0  0  0
 23 27  1  0  0  0  0
 23 24  1  0  0  0  0
 24 25  1  0  0  0  0
 25 22  2  0  0  0  0
 26 22  1  0  0  0  0
 27 26  1  0  0  0  0
M  END
>  <MODEL>
5

>  <REMARK>
 VINA RESULT:      -8.5      2.401      5.981
  Name = 
  1 active torsions:
  status: ('A' for Active; 'I' for Inactive)
    1  A    between atoms: C_9  and  C_15
                            x       y       z     vdW  Elec       q    Type
                         _______ _______ _______ _____ _____    ______ ____

>  <TORSDO>
F 1

$$$$
=
 OpenBabel10262420003D

 27 31  0  0  1  0  0  0  0  0999 V2000
  186.3740  178.6440  140.2480 C   0  0  0  0  0  3  0  0  0  0  0  0
  187.3860  178.0410  142.4500 C   0  0  0  0  0  0  0  0  0  0  0  0
  189.0250  177.2480  140.7780 C   0  0  0  0  0  3  0  0  0  0  0  0
  190.7170  177.7880  144.9450 O   0  0  0  0  0  0  0  0  0  0  0  0
  192.2560  179.3310  144.6620 O   0  0  0  0  0  1  0  0  0  0  0  0
  187.2160  177.6620  143.8350 N   0  0  0  0  0  0  0  0  0  0  0  0
  191.3110  178.3450  142.8460 C   0  0  1  0  0  3  0  0  0  0  0  0
  189.1560  176.7030  137.3310 C   0  0  0  0  0  3  0  0  0  0  0  0
  191.9800  177.3780  141.8880 C   0  0  0  0  0  1  0  0  0  0  0  0
  189.1040  178.0780  136.8010 C   0  0  0  0  0  3  0  0  0  0  0  0
  189.8440  178.0680  142.9460 C   0  0  0  0  0  0  0  0  0  0  0  0
  186.3000  178.2900  141.6840 C   0  0  0  0  0  0  0  0  0  0  0  0
  191.8360  178.1260  144.2060 N   0  0  0  0  0  0  0  0  0  0  0  0
  189.5720  177.7760  144.1860 C   0  0  0  0  0  0  0  0  0  0  0  0
  187.2870  178.2730  139.3380 C   0  0  0  0  0  0  0  0  0  0  0  0
  188.7850  178.2190  141.8840 C   0  0  2  0  0  3  0  0  0  0  0  0
  188.8320  176.3530  138.5790 C   0  0  0  0  0  3  0  0  0  0  0  0
  188.2120  177.5300  144.6600 C   0  0  0  0  0  3  0  0  0  0  0  0
  188.1600  178.9720  137.1020 C   0  0  0  0  0  3  0  0  0  0  0  0
  186.9560  178.6490  137.9280 C   0  0  0  0  0  2  0  0  0  0  0  0
  188.3740  177.2910  139.6160 C   0  0  0  0  0  0  0  0  0  0  0  0
  182.3010  179.0160  143.1500 C   0  0  0  0  0  3  0  0  0  0  0  0
  184.9060  178.2680  142.2500 C   0  0  1  0  0  3  0  0  0  0  0  0
  184.7780  179.1500  143.4950 C   0  0  0  0  0  2  0  0  0  0  0  0
  183.3460  179.3180  143.9380 C   0  0  0  0  0  3  0  0  0  0  0  0
  182.4640  178.3840  141.7910 C   0  0  0  0  0  2  0  0  0  0  0  0
  183.8510  178.6340  141.2080 C   0  0  0  0  0  2  0  0  0  0  0  0
  1 12  1  0  0  0  0
  2  6  1  0  0  0  0
  6 18  2  0  0  0  0
  7  9  1  6  0  0  0
  7 11  1  0  0  0  0
  7 13  1  0  0  0  0
  8 17  2  0  0  0  0
 10 19  2  0  0  0  0
 10  8  1  0  0  0  0
 11 14  2  0  0  0  0
 12  2  2  0  0  0  0
 13  5  1  0  0  0  0
 13  4  1  0  0  0  0
 14 18  1  0  0  0  0
 14  4  1  0  0  0  0
 15 21  1  0  0  0  0
 15  1  2  0  0  0  0
 16  3  1  6  0  0  0
 16  2  1  0  0  0  0
 16 11  1  0  0  0  0
 17 21  1  0  0  0  0
 19 20  1  0  0  0  0
 20 15  1  0  0  0  0
 21  3  2  0  0  0  0
 22 25  2  0  0  0  0
 23 12  1  6  0  0  0
 23 24  1  0  0  0  0
 24 25  1  0  0  0  0
 26 22  1  0  0  0  0
 27 26  1  0  0  0  0
 27 23  1  0  0  0  0
M  END
>  <MODEL>
6

>  <REMARK>
 VINA RESULT:      -8.2      2.833      5.182
  Name = 
  1 active torsions:
  status: ('A' for Active; 'I' for Inactive)
    1  A    between atoms: C_9  and  C_15
                            x       y       z     vdW  Elec       q    Type
                         _______ _______ _______ _____ _____    ______ ____

>  <TORSDO>
F 1

$$$$
=
 OpenBabel10262420003D

 27 31  0  0  1  0  0  0  0  0999 V2000
  186.6910  178.4660  142.1450 C   0  0  0  0  0  3  0  0  0  0  0  0
  186.5000  177.8540  144.5570 C   0  0  0  0  0  0  0  0  0  0  0  0
  188.6860  176.9350  143.8570 C   0  0  0  0  0  3  0  0  0  0  0  0
  188.2280  177.4660  148.3320 O   0  0  0  0  0  0  0  0  0  0  0  0
  189.8060  178.9140  148.8270 O   0  0  0  0  0  1  0  0  0  0  0  0
  185.6720  177.5140  145.6930 N   0  0  0  0  0  0  0  0  0  0  0  0
  189.7780  177.9460  146.7720 C   0  0  1  0  0  3  0  0  0  0  0  0
  190.4040  176.3130  140.8810 C   0  0  0  0  0  3  0  0  0  0  0  0
  190.7630  176.9220  146.2380 C   0  0  0  0  0  1  0  0  0  0  0  0
  190.6900  177.6770  140.4010 C   0  0  0  0  0  3  0  0  0  0  0  0
  188.4260  177.7530  146.1600 C   0  0  0  0  0  0  0  0  0  0  0  0
  185.9250  178.1470  143.3700 C   0  0  0  0  0  0  0  0  0  0  0  0
  189.5810  177.7260  148.2160 N   0  0  0  0  0  0  0  0  0  0  0  0
  187.5810  177.5030  147.1210 C   0  0  0  0  0  0  0  0  0  0  0  0
  187.9030  178.0260  141.7730 C   0  0  0  0  0  0  0  0  0  0  0  0
  188.0080  177.9420  144.7250 C   0  0  2  0  0  3  0  0  0  0  0  0
  189.5060  176.0070  141.8220 C   0  0  0  0  0  3  0  0  0  0  0  0
  186.1470  177.3430  146.8900 C   0  0  0  0  0  3  0  0  0  0  0  0
  189.7720  178.6280  140.2250 C   0  0  0  0  0  3  0  0  0  0  0  0
  188.3030  178.3900  140.3790 C   0  0  0  0  0  2  0  0  0  0  0  0
  188.6680  176.9900  142.5260 C   0  0  0  0  0  0  0  0  0  0  0  0
  181.7590  179.1270  142.7740 C   0  0  0  0  0  3  0  0  0  0  0  0
  184.4300  178.2150  143.2060 C   0  0  1  0  0  3  0  0  0  0  0  0
  183.7780  179.1200  144.2550 C   0  0  0  0  0  2  0  0  0  0  0  0
  182.3200  179.3780  143.9680 C   0  0  0  0  0  3  0  0  0  0  0  0
  182.5100  178.4680  141.6460 C   0  0  0  0  0  2  0  0  0  0  0  0
  184.0200  178.6280  141.7940 C   0  0  0  0  0  2  0  0  0  0  0  0
  1 12  1  0  0  0  0
  2 16  1  0  0  0  0
  2  6  1  0  0  0  0
  6 18  2  0  0  0  0
  7  9  1  6  0  0  0
  7 13  1  0  0  0  0
  8 17  2  0  0  0  0
 10  8  1  0  0  0  0
 11  7  1  0  0  0  0
 11 14  2  0  0  0  0
 12  2  2  0  0  0  0
 13  4  1  0  0  0  0
 13  5  1  0  0  0  0
 14  4  1  0  0  0  0
 15  1  2  0  0  0  0
 15 21  1  0  0  0  0
 16  3  1  6  0  0  0
 16 11  1  0  0  0  0
 17 21  1  0  0  0  0
 18 14  1  0  0  0  0
 19 20  1  0  0  0  0
 19 10  2  0  0  0  0
 20 15  1  0  0  0  0
 21  3  2  0  0  0  0
 22 25  2  0  0  0  0
 23 12  1  6  0  0  0
 23 24  1  0  0  0  0
 25 24  1  0  0  0  0
 26 27  1  0  0  0  0
 26 22  1  0  0  0  0
 27 23  1  0  0  0  0
M  END
>  <MODEL>
7

>  <REMARK>
 VINA RESULT:      -8.1      3.837      5.708
  Name = 
  1 active torsions:
  status: ('A' for Active; 'I' for Inactive)
    1  A    between atoms: C_9  and  C_15
                            x       y       z     vdW  Elec       q    Type
                         _______ _______ _______ _____ _____    ______ ____

>  <TORSDO>
F 1

$$$$
=
 OpenBabel10262420003D

 27 31  0  0  1  0  0  0  0  0999 V2000
  189.3230  178.2040  140.2320 C   0  0  0  0  0  3  0  0  0  0  0  0
  186.8550  178.2020  140.6110 C   0  0  1  0  0  3  0  0  0  0  0  0
  187.7860  177.0530  142.5920 C   0  0  0  0  0  3  0  0  0  0  0  0
  183.5940  178.6690  143.1660 O   0  0  0  0  0  0  0  0  0  0  0  0
  183.8390  180.1280  144.7910 O   0  0  0  0  0  1  0  0  0  0  0  0
  185.5140  178.1800  140.0710 N   0  0  0  0  0  0  0  0  0  0  0  0
  185.5340  178.6930  144.3070 C   0  0  1  0  0  3  0  0  0  0  0  0
  190.8300  175.6600  143.5900 C   0  0  0  0  0  3  0  0  0  0  0  0
  186.0100  177.5320  145.1600 C   0  0  0  0  0  1  0  0  0  0  0  0
  191.6800  176.8550  143.7360 C   0  0  0  0  0  3  0  0  0  0  0  0
  185.7560  178.4130  142.8540 C   0  0  0  0  0  0  0  0  0  0  0  0
  187.9160  178.2220  139.7730 C   0  0  0  0  0  0  0  0  0  0  0  0
  184.0740  178.8370  144.4520 N   0  0  0  0  0  0  0  0  0  0  0  0
  184.5980  178.4380  142.2570 C   0  0  0  0  0  0  0  0  0  0  0  0
  189.8410  177.6390  141.3330 C   0  0  0  0  0  0  0  0  0  0  0  0
  187.0610  178.2660  142.1150 C   0  0  0  0  0  0  0  0  0  0  0  0
  189.6640  175.6280  142.9380 C   0  0  0  0  0  3  0  0  0  0  0  0
  184.4510  178.2850  140.8120 C   0  0  0  0  0  3  0  0  0  0  0  0
  191.8710  177.7720  142.7860 C   0  0  0  0  0  3  0  0  0  0  0  0
  191.3350  177.6380  141.3960 C   0  0  0  0  0  2  0  0  0  0  0  0
  189.0510  176.7850  142.2670 C   0  0  0  0  0  0  0  0  0  0  0  0
  187.9780  177.8780  135.4660 C   0  0  0  0  0  3  0  0  0  0  0  0
  187.7480  178.3090  138.2790 C   0  0  1  0  0  3  0  0  0  0  0  0
  189.0550  178.6890  137.5770 C   0  0  0  0  0  2  0  0  0  0  0  0
  188.9620  178.5580  136.0770 C   0  0  0  0  0  3  0  0  0  0  0  0
  186.8210  177.2720  136.2180 C   0  0  0  0  0  2  0  0  0  0  0  0
  187.1570  177.0320  137.6870 C   0  0  0  0  0  2  0  0  0  0  0  0
  1 15  1  0  0  0  0
  2 12  1  6  0  0  0
  2 16  1  0  0  0  0
  4 13  1  0  0  0  0
  6  2  1  0  0  0  0
  6 18  2  0  0  0  0
  7 13  1  0  0  0  0
  7  9  1  1  0  0  0
  8 10  1  0  0  0  0
 11  7  1  0  0  0  0
 12  1  2  0  0  0  0
 13  5  1  0  0  0  0
 14 11  2  0  0  0  0
 14  4  1  0  0  0  0
 15 20  1  0  0  0  0
 15 21  2  0  0  0  0
 16  3  2  0  0  0  0
 16 11  1  0  0  0  0
 17  8  2  0  0  0  0
 18 14  1  0  0  0  0
 19 10  2  0  0  0  0
 20 19  1  0  0  0  0
 21  3  1  0  0  0  0
 21 17  1  0  0  0  0
 22 25  2  0  0  0  0
 22 26  1  0  0  0  0
 23 12  1  1  0  0  0
 24 23  1  0  0  0  0
 25 24  1  0  0  0  0
 26 27  1  0  0  0  0
 27 23  1  0  0  0  0
M  END
>  <MODEL>
8

>  <REMARK>
 VINA RESULT:      -8.0      2.976      5.812
  Name = 
  1 active torsions:
  status: ('A' for Active; 'I' for Inactive)
    1  A    between atoms: C_9  and  C_15
                            x       y       z     vdW  Elec       q    Type
                         _______ _______ _______ _____ _____    ______ ____

>  <TORSDO>
F 1

$$$$
=
 OpenBabel10262420003D

 27 31  0  0  1  0  0  0  0  0999 V2000
  187.0380  177.8400  142.7950 C   0  0  0  0  0  3  0  0  0  0  0  0
  187.6560  178.1500  140.3960 C   0  0  0  0  0  0  0  0  0  0  0  0
  189.8110  178.2340  141.6050 C   0  0  0  0  0  3  0  0  0  0  0  0
  190.1830  177.3280  137.1820 O   0  0  0  0  0  0  0  0  0  0  0  0
  191.0970  175.3290  137.1570 O   0  0  0  0  0  1  0  0  0  0  0  0
  187.3140  178.6290  139.0740 N   0  0  0  0  0  0  0  0  0  0  0  0
  191.0110  176.4980  139.1040 C   0  0  1  0  0  3  0  0  0  0  0  0
  190.9240  178.5340  144.9020 C   0  0  0  0  0  3  0  0  0  0  0  0
  192.1830  177.1210  139.8400 C   0  0  0  0  0  1  0  0  0  0  0  0
  190.5130  177.2430  145.4820 C   0  0  0  0  0  3  0  0  0  0  0  0
  189.7580  177.2810  139.3400 C   0  0  1  0  0  3  0  0  0  0  0  0
  186.7630  178.2640  141.4040 C   0  0  0  0  0  0  0  0  0  0  0  0
  191.2490  176.5820  137.6510 N   0  0  0  0  0  0  0  0  0  0  0  0
  189.3260  177.7070  138.1870 C   0  0  0  0  0  0  0  0  0  0  0  0
  188.2080  177.8210  143.4510 C   0  0  0  0  0  0  0  0  0  0  0  0
  188.9920  177.4620  140.6250 C   0  0  0  0  0  0  0  0  0  0  0  0
  190.4640  179.0350  143.7510 C   0  0  0  0  0  3  0  0  0  0  0  0
  188.0710  178.4400  138.0350 C   0  0  0  0  0  3  0  0  0  0  0  0
  189.2720  176.7550  145.4470 C   0  0  0  0  0  3  0  0  0  0  0  0
  188.1040  177.5200  144.9130 C   0  0  0  0  0  2  0  0  0  0  0  0
  189.4760  178.3690  142.8870 C   0  0  0  0  0  0  0  0  0  0  0  0
  182.5920  179.0490  140.5900 C   0  0  0  0  0  3  0  0  0  0  0  0
  185.3750  178.8040  141.1800 C   0  0  1  0  0  3  0  0  0  0  0  0
  184.9020  178.5900  139.7390 C   0  0  0  0  0  2  0  0  0  0  0  0
  183.4410  178.9160  139.5580 C   0  0  0  0  0  3  0  0  0  0  0  0
  183.0450  178.9870  142.0260 C   0  0  0  0  0  2  0  0  0  0  0  0
  184.3660  178.2410  142.1780 C   0  0  0  0  0  2  0  0  0  0  0  0
  1 15  1  0  0  0  0
  2 16  1  0  0  0  0
  2 12  1  0  0  0  0
  3 21  1  0  0  0  0
  4 13  1  0  0  0  0
  4 14  1  0  0  0  0
  5 13  1  0  0  0  0
  6  2  2  0  0  0  0
  7 11  1  0  0  0  0
  7  9  1  1  0  0  0
  8 10  1  0  0  0  0
 11 14  1  6  0  0  0
 11 16  1  0  0  0  0
 12  1  2  0  0  0  0
 13  7  1  0  0  0  0
 15 20  1  0  0  0  0
 16  3  2  0  0  0  0
 17  8  2  0  0  0  0
 18 14  2  0  0  0  0
 18  6  1  0  0  0  0
 19 10  2  0  0  0  0
 20 19  1  0  0  0  0
 21 15  2  0  0  0  0
 21 17  1  0  0  0  0
 22 26  1  0  0  0  0
 23 12  1  6  0  0  0
 23 27  1  0  0  0  0
 24 23  1  0  0  0  0
 25 24  1  0  0  0  0
 25 22  2  0  0  0  0
 26 27  1  0  0  0  0
M  END
>  <MODEL>
9

>  <REMARK>
 VINA RESULT:      -8.0      1.185      1.522
  Name = 
  1 active torsions:
  status: ('A' for Active; 'I' for Inactive)
    1  A    between atoms: C_9  and  C_15
                            x       y       z     vdW  Elec       q    Type
                         _______ _______ _______ _____ _____    ______ ____

>  <TORSDO>
F 1

$$$$
