=
 OpenBabel10262421153D

 32 37  0  0  1  0  0  0  0  0999 V2000
  186.5300  177.9340  137.4910 C   0  0  1  0  0  0  0  0  0  0  0  0
  188.5560  177.5960  138.8450 C   0  0  1  0  0  3  0  0  0  0  0  0
  185.8140  178.3130  136.2110 C   0  0  0  0  0  2  0  0  0  0  0  0
  188.0240  178.2860  137.5910 C   0  0  1  0  0  3  0  0  0  0  0  0
  190.0910  177.5980  138.8790 C   0  0  1  0  0  3  0  0  0  0  0  0
  188.3310  176.7280  144.5060 C   0  0  0  0  0  1  0  0  0  0  0  0
  187.9010  178.2650  140.0570 C   0  0  1  0  0  3  0  0  0  0  0  0
  190.5170  177.4160  143.0080 S   0  0  0  0  0  0  0  0  0  0  0  0
  189.9550  177.9190  141.3650 C   0  0  1  0  0  3  0  0  0  0  0  0
  188.8900  178.0510  136.3340 C   0  0  0  0  0  2  0  0  0  0  0  0
  190.6490  177.1550  140.2440 C   0  0  0  0  0  2  0  0  0  0  0  0
  189.7440  176.7880  136.4400 C   0  0  0  0  0  2  0  0  0  0  0  0
  184.9430  176.0430  136.7680 C   0  0  0  0  0  1  0  0  0  0  0  0
  186.3920  178.1480  139.9710 C   0  0  0  0  0  3  0  0  0  0  0  0
  185.7310  178.0440  138.7950 C   0  0  0  0  0  0  0  0  0  0  0  0
  188.4700  177.6570  141.3330 C   0  0  1  0  0  3  0  0  0  0  0  0
  190.6550  176.7800  137.6850 C   0  0  2  0  0  3  0  0  0  0  0  0
  186.1910  176.8540  136.4580 C   0  0  2  0  0  3  0  0  0  0  0  0
  188.9010  177.8930  143.7230 C   0  0  1  0  0  3  0  0  0  0  0  0
  187.9390  178.2790  142.6040 C   0  0  0  0  0  2  0  0  0  0  0  0
  182.3740  179.8750  139.3730 N   0  0  0  0  0  0  0  0  0  0  0  0
  180.0640  177.6070  139.0890 O   0  0  0  0  0  0  0  0  0  0  0  0
  181.8680  181.0930  139.0620 O   0  0  0  0  0  1  0  0  0  0  0  0
  182.2210  176.6890  139.2350 C   0  0  0  0  0  2  0  0  0  0  0  0
  184.2210  178.1400  138.7920 C   0  0  1  0  0  3  0  0  0  0  0  0
  181.5720  179.0080  140.2240 C   0  0  0  0  0  2  0  0  0  0  0  0
  183.6080  177.0940  139.7200 C   0  0  0  0  0  2  0  0  0  0  0  0
  183.7270  179.5670  138.9900 C   0  0  0  0  0  0  0  0  0  0  0  0
  184.4940  180.5200  138.6840 O   0  0  0  0  0  0  0  0  0  0  0  0
  181.2050  177.7560  139.4940 C   0  0  0  0  0  0  0  0  0  0  0  0
  191.0470  175.3390  138.0290 C   0  0  0  0  0  2  0  0  0  0  0  0
  190.2500  174.3190  137.2260 C   0  0  0  0  0  1  0  0  0  0  0  0
  1  3  1  6  0  0  0
  1  4  1  0  0  0  0
  1 15  1  0  0  0  0
  2  5  1  0  0  0  0
  2  7  1  0  0  0  0
  3 18  1  0  0  0  0
  4  2  1  0  0  0  0
  5 11  1  0  0  0  0
  7 16  1  0  0  0  0
  8 19  1  0  0  0  0
  9  8  1  0  0  0  0
 10 12  1  0  0  0  0
 10  4  1  0  0  0  0
 11  9  1  0  0  0  0
 12 17  1  0  0  0  0
 14  7  1  0  0  0  0
 15 14  2  0  0  0  0
 16  9  1  0  0  0  0
 16 20  1  0  0  0  0
 17 31  1  0  0  0  0
 17  5  1  0  0  0  0
 18 13  1  0  0  0  0
 18  1  1  0  0  0  0
 19  6  1  0  0  0  0
 20 19  1  0  0  0  0
 21 26  1  0  0  0  0
 22 30  2  0  0  0  0
 23 21  1  0  0  0  0
 24 30  1  0  0  0  0
 24 27  1  0  0  0  0
 25 15  1  0  0  0  0
 25 28  1  0  0  0  0
 25 27  1  0  0  0  0
 28 21  1  0  0  0  0
 29 28  2  0  0  0  0
 30 26  1  0  0  0  0
 32 31  1  0  0  0  0
M  END
>  <MODEL>
1

>  <REMARK>
 VINA RESULT:      -6.7      0.000      0.000
  Name = 
  2 active torsions:
  status: ('A' for Active; 'I' for Inactive)
    1  A    between atoms: C_13  and  C_29
    2  A    between atoms: C_16  and  C_27
                            x       y       z     vdW  Elec       q    Type
                         _______ _______ _______ _____ _____    ______ ____

>  <TORSDO>
F 2

$$$$
=
 OpenBabel10262421153D

 32 37  0  0  1  0  0  0  0  0999 V2000
  184.3930  177.3360  136.6380 C   0  0  1  0  0  0  0  0  0  0  0  0
  186.7990  177.1790  137.1280 C   0  0  1  0  0  3  0  0  0  0  0  0
  183.2210  177.5280  135.6990 C   0  0  0  0  0  2  0  0  0  0  0  0
  185.7910  177.6800  136.0960 C   0  0  1  0  0  3  0  0  0  0  0  0
  188.2250  177.1670  136.5610 C   0  0  1  0  0  3  0  0  0  0  0  0
  188.8250  177.1740  142.4900 C   0  0  0  0  0  1  0  0  0  0  0  0
  186.6330  178.0300  138.3900 C   0  0  1  0  0  3  0  0  0  0  0  0
  190.2240  177.6010  140.1770 S   0  0  0  0  0  0  0  0  0  0  0  0
  189.0480  177.8590  138.8290 C   0  0  1  0  0  3  0  0  0  0  0  0
  186.1130  177.2480  134.6490 C   0  0  0  0  0  2  0  0  0  0  0  0
  189.2890  176.9260  137.6480 C   0  0  0  0  0  2  0  0  0  0  0  0
  186.9990  176.0040  134.5940 C   0  0  0  0  0  2  0  0  0  0  0  0
  182.7410  175.3790  136.8700 C   0  0  0  0  0  1  0  0  0  0  0  0
  185.2160  177.9220  138.9180 C   0  0  0  0  0  3  0  0  0  0  0  0
  184.1570  177.6510  138.1200 C   0  0  0  0  0  0  0  0  0  0  0  0
  187.6800  177.6140  139.4160 C   0  0  1  0  0  3  0  0  0  0  0  0
  188.3210  176.1720  135.3720 C   0  0  2  0  0  3  0  0  0  0  0  0
  183.7310  176.1170  135.9850 C   0  0  2  0  0  3  0  0  0  0  0  0
  188.9910  178.2010  141.3890 C   0  0  1  0  0  3  0  0  0  0  0  0
  187.6540  178.4270  140.6910 C   0  0  0  0  0  2  0  0  0  0  0  0
  181.2580  179.5550  139.8310 N   0  0  0  0  0  0  0  0  0  0  0  0
  179.0450  177.3020  140.5970 O   0  0  0  0  0  0  0  0  0  0  0  0
  180.6560  180.7570  139.6640 O   0  0  0  0  0  1  0  0  0  0  0  0
  181.1040  176.3680  139.9590 C   0  0  0  0  0  2  0  0  0  0  0  0
  182.7610  177.7650  138.6930 C   0  0  1  0  0  3  0  0  0  0  0  0
  180.8560  178.7510  140.9770 C   0  0  0  0  0  2  0  0  0  0  0  0
  182.5660  176.7850  139.8470 C   0  0  0  0  0  2  0  0  0  0  0  0
  182.3630  179.2070  138.9770 C   0  0  0  0  0  0  0  0  0  0  0  0
  182.9410  180.1300  138.3410 O   0  0  0  0  0  0  0  0  0  0  0  0
  180.2520  177.4610  140.5230 C   0  0  0  0  0  0  0  0  0  0  0  0
  188.8820  174.7930  135.7380 C   0  0  0  0  0  2  0  0  0  0  0  0
  187.8170  173.7060  135.6880 C   0  0  0  0  0  1  0  0  0  0  0  0
  1  3  1  6  0  0  0
  1 15  1  0  0  0  0
  2  7  1  0  0  0  0
  3 18  1  0  0  0  0
  4  1  1  0  0  0  0
  4  2  1  0  0  0  0
  5  2  1  0  0  0  0
  5 11  1  0  0  0  0
  7 14  1  0  0  0  0
  7 16  1  0  0  0  0
  8 19  1  0  0  0  0
  9 16  1  0  0  0  0
  9  8  1  0  0  0  0
 10  4  1  0  0  0  0
 11  9  1  0  0  0  0
 12 10  1  0  0  0  0
 12 17  1  0  0  0  0
 15 25  1  0  0  0  0
 15 14  2  0  0  0  0
 16 20  1  0  0  0  0
 17 31  1  0  0  0  0
 17  5  1  0  0  0  0
 18  1  1  0  0  0  0
 18 13  1  0  0  0  0
 19  6  1  0  0  0  0
 20 19  1  0  0  0  0
 21 26  1  0  0  0  0
 23 21  1  0  0  0  0
 24 30  1  0  0  0  0
 25 28  1  0  0  0  0
 25 27  1  0  0  0  0
 27 24  1  0  0  0  0
 28 21  1  0  0  0  0
 29 28  2  0  0  0  0
 30 22  2  0  0  0  0
 30 26  1  0  0  0  0
 32 31  1  0  0  0  0
M  END
>  <MODEL>
2

>  <REMARK>
 VINA RESULT:      -5.7      1.555      2.328
  Name = 
  2 active torsions:
  status: ('A' for Active; 'I' for Inactive)
    1  A    between atoms: C_13  and  C_29
    2  A    between atoms: C_16  and  C_27
                            x       y       z     vdW  Elec       q    Type
                         _______ _______ _______ _____ _____    ______ ____

>  <TORSDO>
F 2

$$$$
=
 OpenBabel10262421153D

 32 37  0  0  1  0  0  0  0  0999 V2000
  189.7460  175.5080  136.0650 C   0  0  1  0  0  0  0  0  0  0  0  0
  191.2220  176.1620  137.9220 C   0  0  1  0  0  3  0  0  0  0  0  0
  189.4220  175.3560  134.5940 C   0  0  0  0  0  2  0  0  0  0  0  0
  190.9720  176.3630  136.4290 C   0  0  1  0  0  3  0  0  0  0  0  0
  192.5990  176.6980  138.3390 C   0  0  1  0  0  3  0  0  0  0  0  0
  189.3730  176.4160  143.3420 C   0  0  0  0  0  1  0  0  0  0  0  0
  190.0490  176.7930  138.6790 C   0  0  1  0  0  3  0  0  0  0  0  0
  191.6640  177.4980  142.3070 S   0  0  0  0  0  0  0  0  0  0  0  0
  191.5670  177.4400  140.5030 C   0  0  1  0  0  3  0  0  0  0  0  0
  192.2350  176.1950  135.5570 C   0  0  0  0  0  2  0  0  0  0  0  0
  192.7700  176.7530  139.8680 C   0  0  0  0  0  2  0  0  0  0  0  0
  193.3090  175.3490  136.2410 C   0  0  0  0  0  2  0  0  0  0  0  0
  189.0540  173.0840  135.5560 C   0  0  0  0  0  1  0  0  0  0  0  0
  188.7430  176.1510  138.2550 C   0  0  0  0  0  3  0  0  0  0  0  0
  188.5610  175.5950  137.0350 C   0  0  0  0  0  0  0  0  0  0  0  0
  190.3030  176.6840  140.1770 C   0  0  1  0  0  3  0  0  0  0  0  0
  193.7230  175.9020  137.6200 C   0  0  2  0  0  3  0  0  0  0  0  0
  190.0700  174.1940  135.3440 C   0  0  2  0  0  3  0  0  0  0  0  0
  189.8380  177.5240  142.4200 C   0  0  1  0  0  3  0  0  0  0  0  0
  189.2350  177.3260  141.0330 C   0  0  0  0  0  2  0  0  0  0  0  0
  184.8100  176.2140  136.3270 N   0  0  0  0  0  0  0  0  0  0  0  0
  183.4800  173.2730  135.9520 O   0  0  0  0  0  0  0  0  0  0  0  0
  184.0930  177.1370  135.6440 O   0  0  0  0  0  1  0  0  0  0  0  0
  185.6530  173.1770  136.8400 C   0  0  0  0  0  2  0  0  0  0  0  0
  187.1710  175.1650  136.6250 C   0  0  1  0  0  3  0  0  0  0  0  0
  184.0750  175.2300  137.1090 C   0  0  0  0  0  2  0  0  0  0  0  0
  186.6350  174.0880  137.5650 C   0  0  0  0  0  2  0  0  0  0  0  0
  186.2430  176.3470  136.3790 C   0  0  0  0  0  0  0  0  0  0  0  0
  186.7510  177.4620  136.0830 O   0  0  0  0  0  0  0  0  0  0  0  0
  184.3390  173.8520  136.5950 C   0  0  0  0  0  0  0  0  0  0  0  0
  194.3480  174.7820  138.4590 C   0  0  0  0  0  2  0  0  0  0  0  0
  194.7290  173.5740  137.6130 C   0  0  0  0  0  1  0  0  0  0  0  0
  1  3  1  6  0  0  0
  1  4  1  0  0  0  0
  1 15  1  0  0  0  0
  2  5  1  0  0  0  0
  2  7  1  0  0  0  0
  3 18  1  0  0  0  0
  4  2  1  0  0  0  0
  5 11  1  0  0  0  0
  7 16  1  0  0  0  0
  8 19  1  0  0  0  0
  9  8  1  0  0  0  0
 10 12  1  0  0  0  0
 10  4  1  0  0  0  0
 11  9  1  0  0  0  0
 12 17  1  0  0  0  0
 14  7  1  0  0  0  0
 15 14  2  0  0  0  0
 16  9  1  0  0  0  0
 16 20  1  0  0  0  0
 17  5  1  0  0  0  0
 17 31  1  0  0  0  0
 18 13  1  0  0  0  0
 18  1  1  0  0  0  0
 19  6  1  0  0  0  0
 20 19  1  0  0  0  0
 21 28  1  0  0  0  0
 21 26  1  0  0  0  0
 22 30  2  0  0  0  0
 23 21  1  0  0  0  0
 24 27  1  0  0  0  0
 25 15  1  0  0  0  0
 25 27  1  0  0  0  0
 28 25  1  0  0  0  0
 29 28  2  0  0  0  0
 30 24  1  0  0  0  0
 30 26  1  0  0  0  0
 32 31  1  0  0  0  0
M  END
>  <MODEL>
3

>  <REMARK>
 VINA RESULT:      -5.5      2.968      4.129
  Name = 
  2 active torsions:
  status: ('A' for Active; 'I' for Inactive)
    1  A    between atoms: C_13  and  C_29
    2  A    between atoms: C_16  and  C_27
                            x       y       z     vdW  Elec       q    Type
                         _______ _______ _______ _____ _____    ______ ____

>  <TORSDO>
F 2

$$$$
=
 OpenBabel10262421153D

 32 37  0  0  1  0  0  0  0  0999 V2000
  186.6680  178.1800  139.2820 C   0  0  1  0  0  0  0  0  0  0  0  0
  187.6060  178.0510  141.5530 C   0  0  1  0  0  3  0  0  0  0  0  0
  186.7780  178.4340  137.7930 C   0  0  0  0  0  2  0  0  0  0  0  0
  187.8490  178.6280  140.1600 C   0  0  1  0  0  3  0  0  0  0  0  0
  188.8620  178.1500  142.4290 C   0  0  1  0  0  3  0  0  0  0  0  0
  184.2880  177.5290  146.1970 C   0  0  0  0  0  1  0  0  0  0  0  0
  186.3770  178.7540  142.1380 C   0  0  1  0  0  3  0  0  0  0  0  0
  186.9260  178.2530  146.1030 S   0  0  0  0  0  0  0  0  0  0  0  0
  187.3640  178.6170  144.3870 C   0  0  1  0  0  3  0  0  0  0  0  0
  189.2710  178.3680  139.6170 C   0  0  0  0  0  2  0  0  0  0  0  0
  188.5760  177.8270  143.9070 C   0  0  0  0  0  2  0  0  0  0  0  0
  189.9420  177.1680  140.2850 C   0  0  0  0  0  2  0  0  0  0  0  0
  185.7810  176.1550  137.9690 C   0  0  0  0  0  1  0  0  0  0  0  0
  185.1720  178.5410  141.2440 C   0  0  0  0  0  3  0  0  0  0  0  0
  185.2780  178.3230  139.9120 C   0  0  0  0  0  0  0  0  0  0  0  0
  186.1510  178.2640  143.5620 C   0  0  1  0  0  3  0  0  0  0  0  0
  190.0080  177.2940  141.8210 C   0  0  2  0  0  3  0  0  0  0  0  0
  186.9770  177.0190  138.3300 C   0  0  2  0  0  3  0  0  0  0  0  0
  185.1780  178.6750  145.7620 C   0  0  1  0  0  3  0  0  0  0  0  0
  184.9930  178.9310  144.2690 C   0  0  0  0  0  2  0  0  0  0  0  0
  182.0740  179.9430  138.4720 N   0  0  0  0  0  0  0  0  0  0  0  0
  180.4410  177.5390  137.0180 O   0  0  0  0  0  0  0  0  0  0  0  0
  181.7620  181.1290  137.8970 O   0  0  0  0  0  1  0  0  0  0  0  0
  182.1970  176.7530  138.3660 C   0  0  0  0  0  2  0  0  0  0  0  0
  184.0230  178.3270  139.0680 C   0  0  1  0  0  3  0  0  0  0  0  0
  180.9820  179.0220  138.7580 C   0  0  0  0  0  2  0  0  0  0  0  0
  183.0550  177.2400  139.5270 C   0  0  0  0  0  2  0  0  0  0  0  0
  183.4250  179.7190  138.9150 C   0  0  0  0  0  0  0  0  0  0  0  0
  184.1800  180.7190  139.0600 O   0  0  0  0  0  0  0  0  0  0  0  0
  181.1520  177.7550  137.9840 C   0  0  0  0  0  0  0  0  0  0  0  0
  190.1650  175.9040  142.4460 C   0  0  0  0  0  2  0  0  0  0  0  0
  191.3070  175.8510  143.4530 C   0  0  0  0  0  1  0  0  0  0  0  0
  1  3  1  6  0  0  0
  1 15  1  0  0  0  0
  1  4  1  0  0  0  0
  2  7  1  0  0  0  0
  2  5  1  0  0  0  0
  3 18  1  0  0  0  0
  4  2  1  0  0  0  0
  5 11  1  0  0  0  0
  7 16  1  0  0  0  0
  9  8  1  0  0  0  0
 10  4  1  0  0  0  0
 10 12  1  0  0  0  0
 11  9  1  0  0  0  0
 12 17  1  0  0  0  0
 13 18  1  0  0  0  0
 14  7  1  0  0  0  0
 15 14  2  0  0  0  0
 16 20  1  0  0  0  0
 16  9  1  0  0  0  0
 17  5  1  0  0  0  0
 17 31  1  0  0  0  0
 18  1  1  0  0  0  0
 19  8  1  0  0  0  0
 19  6  1  0  0  0  0
 20 19  1  0  0  0  0
 21 26  1  0  0  0  0
 21 28  1  0  0  0  0
 22 30  2  0  0  0  0
 23 21  1  0  0  0  0
 24 27  1  0  0  0  0
 25 27  1  0  0  0  0
 25 15  1  0  0  0  0
 28 29  2  0  0  0  0
 28 25  1  0  0  0  0
 30 24  1  0  0  0  0
 30 26  1  0  0  0  0
 31 32  1  0  0  0  0
M  END
>  <MODEL>
4

>  <REMARK>
 VINA RESULT:      -5.4      1.961      3.025
  Name = 
  2 active torsions:
  status: ('A' for Active; 'I' for Inactive)
    1  A    between atoms: C_13  and  C_29
    2  A    between atoms: C_16  and  C_27
                            x       y       z     vdW  Elec       q    Type
                         _______ _______ _______ _____ _____    ______ ____

>  <TORSDO>
F 2

$$$$
=
 OpenBabel10262421153D

 32 37  0  0  1  0  0  0  0  0999 V2000
  182.3490  176.1740  136.6230 C   0  0  1  0  0  0  0  0  0  0  0  0
  184.7030  175.6520  136.1360 C   0  0  1  0  0  3  0  0  0  0  0  0
  180.8600  176.0240  136.3860 C   0  0  0  0  0  2  0  0  0  0  0  0
  183.2920  175.5910  135.5570 C   0  0  1  0  0  3  0  0  0  0  0  0
  185.6870  174.8090  135.3120 C   0  0  1  0  0  3  0  0  0  0  0  0
  189.0230  178.6870  138.3690 C   0  0  0  0  0  1  0  0  0  0  0  0
  185.0920  177.1290  136.2570 C   0  0  1  0  0  3  0  0  0  0  0  0
  189.1210  176.9450  136.2600 S   0  0  0  0  0  0  0  0  0  0  0  0
  187.4310  176.5600  135.7490 C   0  0  1  0  0  3  0  0  0  0  0  0
  182.9210  174.2150  134.9620 C   0  0  0  0  0  2  0  0  0  0  0  0
  187.1530  175.0620  135.7070 C   0  0  0  0  0  2  0  0  0  0  0  0
  183.7670  173.0800  135.5420 C   0  0  0  0  0  2  0  0  0  0  0  0
  181.1580  175.5630  138.8190 C   0  0  0  0  0  1  0  0  0  0  0  0
  184.1070  177.8630  137.1450 C   0  0  0  0  0  3  0  0  0  0  0  0
  182.8200  177.4700  137.2930 C   0  0  0  0  0  0  0  0  0  0  0  0
  186.5280  177.2300  136.7550 C   0  0  1  0  0  3  0  0  0  0  0  0
  185.2820  173.3100  135.3660 C   0  0  2  0  0  3  0  0  0  0  0  0
  181.5510  175.1320  137.4160 C   0  0  2  0  0  3  0  0  0  0  0  0
  188.5690  178.5560  136.9300 C   0  0  1  0  0  3  0  0  0  0  0  0
  187.0470  178.6460  136.8610 C   0  0  0  0  0  2  0  0  0  0  0  0
  180.6610  180.6550  137.6800 N   0  0  0  0  0  0  0  0  0  0  0  0
  179.6570  180.6770  140.7710 O   0  0  0  0  0  0  0  0  0  0  0  0
  179.7810  181.3290  136.9030 O   0  0  0  0  0  1  0  0  0  0  0  0
  181.3540  179.0990  140.3820 C   0  0  0  0  0  2  0  0  0  0  0  0
  181.8590  178.3740  138.0320 C   0  0  1  0  0  3  0  0  0  0  0  0
  181.0330  181.2530  138.9550 C   0  0  0  0  0  2  0  0  0  0  0  0
  182.4540  178.8280  139.3630 C   0  0  0  0  0  2  0  0  0  0  0  0
  181.3020  179.4810  137.1470 C   0  0  0  0  0  0  0  0  0  0  0  0
  181.2850  179.3050  135.8980 O   0  0  0  0  0  0  0  0  0  0  0  0
  180.6190  180.3690  140.0860 C   0  0  0  0  0  0  0  0  0  0  0  0
  186.0530  172.4790  136.3970 C   0  0  0  0  0  2  0  0  0  0  0  0
  185.5120  172.6660  137.8080 C   0  0  0  0  0  1  0  0  0  0  0  0
  1  3  1  6  0  0  0
  1 15  1  0  0  0  0
  1 18  1  0  0  0  0
  2  7  1  0  0  0  0
  3 18  1  0  0  0  0
  4  2  1  0  0  0  0
  4  1  1  0  0  0  0
  5 17  1  0  0  0  0
  5 11  1  0  0  0  0
  5  2  1  0  0  0  0
  7 16  1  0  0  0  0
  7 14  1  0  0  0  0
  8 19  1  0  0  0  0
  9  8  1  0  0  0  0
  9 16  1  0  0  0  0
 10 12  1  0  0  0  0
 10  4  1  0  0  0  0
 11  9  1  0  0  0  0
 14 15  2  0  0  0  0
 15 25  1  0  0  0  0
 16 20  1  0  0  0  0
 17 12  1  0  0  0  0
 17 31  1  0  0  0  0
 18 13  1  0  0  0  0
 19  6  1  0  0  0  0
 20 19  1  0  0  0  0
 21 26  1  0  0  0  0
 23 21  1  0  0  0  0
 25 27  1  0  0  0  0
 26 30  1  0  0  0  0
 27 24  1  0  0  0  0
 28 21  1  0  0  0  0
 28 25  1  0  0  0  0
 29 28  2  0  0  0  0
 30 24  1  0  0  0  0
 30 22  2  0  0  0  0
 31 32  1  0  0  0  0
M  END
>  <MODEL>
5

>  <REMARK>
 VINA RESULT:      -5.3      3.047      5.046
  Name = 
  2 active torsions:
  status: ('A' for Active; 'I' for Inactive)
    1  A    between atoms: C_13  and  C_29
    2  A    between atoms: C_16  and  C_27
                            x       y       z     vdW  Elec       q    Type
                         _______ _______ _______ _____ _____    ______ ____

>  <TORSDO>
F 2

$$$$
=
 OpenBabel10262421153D

 32 37  0  0  1  0  0  0  0  0999 V2000
  181.8450  177.0280  137.6460 C   0  0  1  0  0  0  0  0  0  0  0  0
  181.3410  178.1350  139.7850 C   0  0  1  0  0  3  0  0  0  0  0  0
  181.4470  176.2700  136.3960 C   0  0  0  0  0  2  0  0  0  0  0  0
  180.7930  177.1400  138.7640 C   0  0  1  0  0  3  0  0  0  0  0  0
  180.2540  178.5800  140.7740 C   0  0  1  0  0  3  0  0  0  0  0  0
  185.4600  179.7440  143.4310 C   0  0  0  0  0  1  0  0  0  0  0  0
  182.5660  177.4960  140.4450 C   0  0  1  0  0  3  0  0  0  0  0  0
  182.7820  179.4970  143.9410 S   0  0  0  0  0  0  0  0  0  0  0  0
  182.0120  178.6120  142.5660 C   0  0  1  0  0  3  0  0  0  0  0  0
  179.3370  177.4220  138.3370 C   0  0  0  0  0  2  0  0  0  0  0  0
  180.8310  179.3660  141.9660 C   0  0  0  0  0  2  0  0  0  0  0  0
  178.9320  178.8790  138.5630 C   0  0  0  0  0  2  0  0  0  0  0  0
  182.7090  178.2500  135.5550 C   0  0  0  0  0  1  0  0  0  0  0  0
  183.6120  177.1590  139.4000 C   0  0  0  0  0  3  0  0  0  0  0  0
  183.2990  176.8900  138.1110 C   0  0  0  0  0  0  0  0  0  0  0  0
  183.0930  178.4270  141.5300 C   0  0  1  0  0  3  0  0  0  0  0  0
  179.1240  179.3360  140.0240 C   0  0  2  0  0  3  0  0  0  0  0  0
  181.5060  177.7960  136.3640 C   0  0  2  0  0  3  0  0  0  0  0  0
  184.3850  178.6880  143.5830 C   0  0  1  0  0  3  0  0  0  0  0  0
  184.2740  177.8770  142.2960 C   0  0  0  0  0  2  0  0  0  0  0  0
  185.8500  174.2370  136.9210 N   0  0  0  0  0  0  0  0  0  0  0  0
  187.6720  175.7060  134.6670 O   0  0  0  0  0  0  0  0  0  0  0  0
  185.8260  172.9010  136.6990 O   0  0  0  0  0  1  0  0  0  0  0  0
  186.3430  177.2160  135.8800 C   0  0  0  0  0  2  0  0  0  0  0  0
  184.3780  176.3640  137.1910 C   0  0  1  0  0  3  0  0  0  0  0  0
  187.1330  174.9170  136.8140 C   0  0  0  0  0  2  0  0  0  0  0  0
  185.6020  177.2760  137.2100 C   0  0  0  0  0  2  0  0  0  0  0  0
  184.6570  174.8830  137.4050 C   0  0  0  0  0  0  0  0  0  0  0  0
  183.7530  174.1650  137.9120 O   0  0  0  0  0  0  0  0  0  0  0  0
  187.0950  175.9320  135.7170 C   0  0  0  0  0  0  0  0  0  0  0  0
  179.2350  180.8640  140.0760 C   0  0  0  0  0  2  0  0  0  0  0  0
  180.0360  181.4220  138.9070 C   0  0  0  0  0  1  0  0  0  0  0  0
  1  3  1  6  0  0  0
  1 15  1  0  0  0  0
  1  4  1  0  0  0  0
  2  7  1  0  0  0  0
  2  5  1  0  0  0  0
  4  2  1  0  0  0  0
  5 11  1  0  0  0  0
  6 19  1  0  0  0  0
  7 16  1  0  0  0  0
  9  8  1  0  0  0  0
 10 12  1  0  0  0  0
 10  4  1  0  0  0  0
 11  9  1  0  0  0  0
 12 17  1  0  0  0  0
 13 18  1  0  0  0  0
 14  7  1  0  0  0  0
 15 14  2  0  0  0  0
 16 20  1  0  0  0  0
 16  9  1  0  0  0  0
 17 31  1  0  0  0  0
 17  5  1  0  0  0  0
 18  3  1  0  0  0  0
 18  1  1  0  0  0  0
 19  8  1  0  0  0  0
 20 19  1  0  0  0  0
 21 28  1  0  0  0  0
 22 30  2  0  0  0  0
 23 21  1  0  0  0  0
 24 27  1  0  0  0  0
 25 27  1  0  0  0  0
 25 28  1  0  0  0  0
 25 15  1  0  0  0  0
 26 21  1  0  0  0  0
 28 29  2  0  0  0  0
 30 24  1  0  0  0  0
 30 26  1  0  0  0  0
 32 31  1  0  0  0  0
M  END
>  <MODEL>
6

>  <REMARK>
 VINA RESULT:      -4.8      3.927      7.486
  Name = 
  2 active torsions:
  status: ('A' for Active; 'I' for Inactive)
    1  A    between atoms: C_13  and  C_29
    2  A    between atoms: C_16  and  C_27
                            x       y       z     vdW  Elec       q    Type
                         _______ _______ _______ _____ _____    ______ ____

>  <TORSDO>
F 2

$$$$
=
 OpenBabel10262421153D

 32 37  0  0  1  0  0  0  0  0999 V2000
  186.8010  178.3330  142.2870 C   0  0  1  0  0  0  0  0  0  0  0  0
  186.1970  178.1530  139.9090 C   0  0  1  0  0  3  0  0  0  0  0  0
  186.5900  178.8560  143.6930 C   0  0  0  0  0  2  0  0  0  0  0  0
  185.9940  179.0030  141.1610 C   0  0  1  0  0  3  0  0  0  0  0  0
  185.1930  178.5250  138.8080 C   0  0  1  0  0  3  0  0  0  0  0  0
  189.6940  175.7610  136.0480 C   0  0  0  0  0  1  0  0  0  0  0  0
  187.6640  178.2860  139.4900 C   0  0  1  0  0  3  0  0  0  0  0  0
  187.5130  177.3450  135.5700 S   0  0  0  0  0  0  0  0  0  0  0  0
  187.0100  178.1180  137.1240 C   0  0  1  0  0  3  0  0  0  0  0  0
  184.5160  179.3380  141.4550 C   0  0  0  0  0  2  0  0  0  0  0  0
  185.5400  177.8810  137.4540 C   0  0  0  0  0  2  0  0  0  0  0  0
  183.5510  178.3440  140.8080 C   0  0  0  0  0  2  0  0  0  0  0  0
  186.7040  176.3780  143.9540 C   0  0  0  0  0  1  0  0  0  0  0  0
  188.5760  177.8290  140.6110 C   0  0  0  0  0  3  0  0  0  0  0  0
  188.2200  177.8870  141.9150 C   0  0  0  0  0  0  0  0  0  0  0  0
  187.8870  177.5170  138.1940 C   0  0  1  0  0  3  0  0  0  0  0  0
  183.7440  178.2250  139.2820 C   0  0  2  0  0  3  0  0  0  0  0  0
  185.9650  177.5240  143.2840 C   0  0  2  0  0  3  0  0  0  0  0  0
  189.2310  177.1970  136.1830 C   0  0  1  0  0  3  0  0  0  0  0  0
  189.2920  177.6210  137.6470 C   0  0  0  0  0  2  0  0  0  0  0  0
  191.4920  178.6270  143.8390 N   0  0  0  0  0  0  0  0  0  0  0  0
  192.0550  176.0050  145.6740 O   0  0  0  0  0  0  0  0  0  0  0  0
  192.0550  179.7190  144.4080 O   0  0  0  0  0  1  0  0  0  0  0  0
  190.3820  175.6410  144.0650 C   0  0  0  0  0  2  0  0  0  0  0  0
  189.2640  177.6050  142.9730 C   0  0  1  0  0  3  0  0  0  0  0  0
  192.2800  177.4030  143.7990 C   0  0  0  0  0  2  0  0  0  0  0  0
  189.9120  176.2410  142.7460 C   0  0  0  0  0  2  0  0  0  0  0  0
  190.2260  178.7680  143.1680 C   0  0  0  0  0  0  0  0  0  0  0  0
  189.8470  179.9260  142.8440 O   0  0  0  0  0  0  0  0  0  0  0  0
  191.6090  176.3240  144.5850 C   0  0  0  0  0  0  0  0  0  0  0  0
  183.1780  176.8870  138.7930 C   0  0  0  0  0  2  0  0  0  0  0  0
  182.3060  176.2130  139.8440 C   0  0  0  0  0  1  0  0  0  0  0  0
  1 18  1  0  0  0  0
  1  3  1  1  0  0  0
  2  4  1  0  0  0  0
  4 10  1  0  0  0  0
  4  1  1  0  0  0  0
  5 17  1  0  0  0  0
  5  2  1  0  0  0  0
  6 19  1  0  0  0  0
  7  2  1  0  0  0  0
  7 14  1  0  0  0  0
  8 19  1  0  0  0  0
  8  9  1  0  0  0  0
  9 11  1  0  0  0  0
  9 16  1  0  0  0  0
 11  5  1  0  0  0  0
 12 10  1  0  0  0  0
 14 15  2  0  0  0  0
 15  1  1  0  0  0  0
 15 25  1  0  0  0  0
 16  7  1  0  0  0  0
 17 12  1  0  0  0  0
 18  3  1  0  0  0  0
 18 13  1  0  0  0  0
 19 20  1  0  0  0  0
 20 16  1  0  0  0  0
 21 23  1  0  0  0  0
 24 30  1  0  0  0  0
 25 28  1  0  0  0  0
 26 21  1  0  0  0  0
 26 30  1  0  0  0  0
 27 25  1  0  0  0  0
 27 24  1  0  0  0  0
 28 21  1  0  0  0  0
 29 28  2  0  0  0  0
 30 22  2  0  0  0  0
 31 17  1  0  0  0  0
 31 32  1  0  0  0  0
M  END
>  <MODEL>
7

>  <REMARK>
 VINA RESULT:      -4.7      3.964      7.563
  Name = 
  2 active torsions:
  status: ('A' for Active; 'I' for Inactive)
    1  A    between atoms: C_13  and  C_29
    2  A    between atoms: C_16  and  C_27
                            x       y       z     vdW  Elec       q    Type
                         _______ _______ _______ _____ _____    ______ ____

>  <TORSDO>
F 2

$$$$
=
 OpenBabel10262421153D

 32 37  0  0  1  0  0  0  0  0999 V2000
  186.2020  178.7770  144.1990 C   0  0  1  0  0  0  0  0  0  0  0  0
  185.4560  178.5890  141.8620 C   0  0  1  0  0  3  0  0  0  0  0  0
  186.0550  179.2730  145.6230 C   0  0  0  0  0  2  0  0  0  0  0  0
  185.2890  179.4140  143.1360 C   0  0  1  0  0  3  0  0  0  0  0  0
  184.3640  178.9180  140.8340 C   0  0  1  0  0  3  0  0  0  0  0  0
  188.8170  176.4290  137.7530 C   0  0  0  0  0  1  0  0  0  0  0  0
  186.8830  178.8060  141.3520 C   0  0  1  0  0  3  0  0  0  0  0  0
  186.5280  177.8970  137.4380 S   0  0  0  0  0  0  0  0  0  0  0  0
  186.0870  178.6270  139.0310 C   0  0  1  0  0  3  0  0  0  0  0  0
  183.8170  179.6660  143.5290 C   0  0  0  0  0  2  0  0  0  0  0  0
  184.6560  178.3070  139.4510 C   0  0  0  0  0  2  0  0  0  0  0  0
  182.8670  178.6280  142.9320 C   0  0  0  0  0  2  0  0  0  0  0  0
  186.3180  176.8020  145.8420 C   0  0  0  0  0  1  0  0  0  0  0  0
  187.8890  178.3870  142.4050 C   0  0  0  0  0  3  0  0  0  0  0  0
  187.6150  178.4120  143.7310 C   0  0  0  0  0  0  0  0  0  0  0  0
  187.0620  178.0630  140.0340 C   0  0  1  0  0  3  0  0  0  0  0  0
  182.9670  178.5350  141.3950 C   0  0  2  0  0  3  0  0  0  0  0  0
  185.4760  177.9140  145.2370 C   0  0  2  0  0  3  0  0  0  0  0  0
  188.2880  177.8360  137.9370 C   0  0  1  0  0  3  0  0  0  0  0  0
  188.4220  178.2480  139.3990 C   0  0  0  0  0  2  0  0  0  0  0  0
  191.3390  178.2010  144.7550 N   0  0  0  0  0  0  0  0  0  0  0  0
  191.3710  176.8690  147.7190 O   0  0  0  0  0  0  0  0  0  0  0  0
  192.4360  178.9770  144.5840 O   0  0  0  0  0  1  0  0  0  0  0  0
  189.2750  176.6960  146.6710 C   0  0  0  0  0  2  0  0  0  0  0  0
  188.7390  178.1750  144.7150 C   0  0  1  0  0  3  0  0  0  0  0  0
  191.5230  176.8960  145.3740 C   0  0  0  0  0  2  0  0  0  0  0  0
  188.6890  176.7520  145.2660 C   0  0  0  0  0  2  0  0  0  0  0  0
  190.0900  178.6270  144.1790 C   0  0  0  0  0  0  0  0  0  0  0  0
  190.1180  179.5090  143.2770 O   0  0  0  0  0  0  0  0  0  0  0  0
  190.7670  176.8170  146.6600 C   0  0  0  0  0  0  0  0  0  0  0  0
  182.4420  177.1740  140.9250 C   0  0  0  0  0  2  0  0  0  0  0  0
  181.0970  177.2890  140.2190 C   0  0  0  0  0  1  0  0  0  0  0  0
  1 18  1  0  0  0  0
  1  3  1  1  0  0  0
  2  4  1  0  0  0  0
  4 10  1  0  0  0  0
  4  1  1  0  0  0  0
  5 17  1  0  0  0  0
  5  2  1  0  0  0  0
  6 19  1  0  0  0  0
  7  2  1  0  0  0  0
  7 14  1  0  0  0  0
  8 19  1  0  0  0  0
  8  9  1  0  0  0  0
  9 11  1  0  0  0  0
  9 16  1  0  0  0  0
 11  5  1  0  0  0  0
 12 10  1  0  0  0  0
 14 15  2  0  0  0  0
 15  1  1  0  0  0  0
 15 25  1  0  0  0  0
 16  7  1  0  0  0  0
 17 12  1  0  0  0  0
 18  3  1  0  0  0  0
 18 13  1  0  0  0  0
 19 20  1  0  0  0  0
 20 16  1  0  0  0  0
 21 26  1  0  0  0  0
 23 21  1  0  0  0  0
 25 27  1  0  0  0  0
 26 30  1  0  0  0  0
 27 24  1  0  0  0  0
 28 25  1  0  0  0  0
 28 21  1  0  0  0  0
 29 28  2  0  0  0  0
 30 24  1  0  0  0  0
 30 22  2  0  0  0  0
 31 17  1  0  0  0  0
 32 31  1  0  0  0  0
M  END
>  <MODEL>
8

>  <REMARK>
 VINA RESULT:      -4.7      4.259      8.190
  Name = 
  2 active torsions:
  status: ('A' for Active; 'I' for Inactive)
    1  A    between atoms: C_13  and  C_29
    2  A    between atoms: C_16  and  C_27
                            x       y       z     vdW  Elec       q    Type
                         _______ _______ _______ _____ _____    ______ ____

>  <TORSDO>
F 2

$$$$
=
 OpenBabel10262421153D

 32 37  0  0  1  0  0  0  0  0999 V2000
  186.3710  178.3940  144.3380 C   0  0  1  0  0  0  0  0  0  0  0  0
  184.6650  178.6890  142.5900 C   0  0  1  0  0  3  0  0  0  0  0  0
  186.9640  178.6820  145.7010 C   0  0  0  0  0  2  0  0  0  0  0  0
  185.2460  179.3240  143.8510 C   0  0  1  0  0  3  0  0  0  0  0  0
  183.3330  179.3420  142.1940 C   0  0  1  0  0  3  0  0  0  0  0  0
  185.3690  176.6720  137.2710 C   0  0  0  0  0  1  0  0  0  0  0  0
  185.7400  178.7490  141.5010 C   0  0  1  0  0  3  0  0  0  0  0  0
  183.5410  178.5210  138.1270 S   0  0  0  0  0  0  0  0  0  0  0  0
  183.9990  179.0580  139.7910 C   0  0  1  0  0  3  0  0  0  0  0  0
  184.1810  179.7460  144.8850 C   0  0  0  0  0  2  0  0  0  0  0  0
  182.8610  178.9120  140.7930 C   0  0  0  0  0  2  0  0  0  0  0  0
  182.8690  178.9790  144.7200 C   0  0  0  0  0  2  0  0  0  0  0  0
  186.7640  176.1970  145.6170 C   0  0  0  0  0  1  0  0  0  0  0  0
  186.9880  178.0160  141.9520 C   0  0  0  0  0  3  0  0  0  0  0  0
  187.3280  177.8820  143.2560 C   0  0  0  0  0  0  0  0  0  0  0  0
  185.1680  178.1980  140.2010 C   0  0  1  0  0  3  0  0  0  0  0  0
  182.2710  179.1080  143.3040 C   0  0  2  0  0  3  0  0  0  0  0  0
  186.0010  177.5090  145.5340 C   0  0  2  0  0  3  0  0  0  0  0  0
  185.2860  178.1010  137.7660 C   0  0  1  0  0  3  0  0  0  0  0  0
  186.1240  178.2570  139.0310 C   0  0  0  0  0  2  0  0  0  0  0  0
  191.1830  178.0460  143.5130 N   0  0  0  0  0  0  0  0  0  0  0  0
  192.1540  175.0310  144.2410 O   0  0  0  0  0  0  0  0  0  0  0  0
  192.0870  178.9460  143.9700 O   0  0  0  0  0  1  0  0  0  0  0  0
  189.9010  175.1220  143.5800 C   0  0  0  0  0  2  0  0  0  0  0  0
  188.6880  177.3190  143.6040 C   0  0  1  0  0  3  0  0  0  0  0  0
  191.6930  176.8600  142.8390 C   0  0  0  0  0  2  0  0  0  0  0  0
  188.9710  176.0480  142.8070 C   0  0  0  0  0  2  0  0  0  0  0  0
  189.7830  178.3770  143.5690 C   0  0  0  0  0  0  0  0  0  0  0  0
  189.4600  179.5860  143.7240 O   0  0  0  0  0  0  0  0  0  0  0  0
  191.3100  175.6270  143.5920 C   0  0  0  0  0  0  0  0  0  0  0  0
  181.3180  177.9380  143.0370 C   0  0  0  0  0  2  0  0  0  0  0  0
  180.0550  178.0200  143.8840 C   0  0  0  0  0  1  0  0  0  0  0  0
  1 18  1  0  0  0  0
  1  3  1  1  0  0  0
  2  4  1  0  0  0  0
  4  1  1  0  0  0  0
  4 10  1  0  0  0  0
  5  2  1  0  0  0  0
  5 17  1  0  0  0  0
  6 19  1  0  0  0  0
  7 14  1  0  0  0  0
  7  2  1  0  0  0  0
  8  9  1  0  0  0  0
  9 16  1  0  0  0  0
  9 11  1  0  0  0  0
 11  5  1  0  0  0  0
 12 10  1  0  0  0  0
 14 15  2  0  0  0  0
 15 25  1  0  0  0  0
 15  1  1  0  0  0  0
 16  7  1  0  0  0  0
 17 12  1  0  0  0  0
 18 13  1  0  0  0  0
 18  3  1  0  0  0  0
 19  8  1  0  0  0  0
 19 20  1  0  0  0  0
 20 16  1  0  0  0  0
 21 28  1  0  0  0  0
 21 23  1  0  0  0  0
 24 30  1  0  0  0  0
 26 21  1  0  0  0  0
 26 30  1  0  0  0  0
 27 24  1  0  0  0  0
 27 25  1  0  0  0  0
 28 25  1  0  0  0  0
 28 29  2  0  0  0  0
 30 22  2  0  0  0  0
 31 17  1  0  0  0  0
 31 32  1  0  0  0  0
M  END
>  <MODEL>
9

>  <REMARK>
 VINA RESULT:      -4.7      4.379      8.526
  Name = 
  2 active torsions:
  status: ('A' for Active; 'I' for Inactive)
    1  A    between atoms: C_13  and  C_29
    2  A    between atoms: C_16  and  C_27
                            x       y       z     vdW  Elec       q    Type
                         _______ _______ _______ _____ _____    ______ ____

>  <TORSDO>
F 2

$$$$
