=
 OpenBabel10262422023D

 30 32  0  0  1  0  0  0  0  0999 V2000
  190.5950  176.3800  141.6840 C   0  0  0  0  0  2  0  0  0  0  0  0
  189.1390  176.8660  141.5020 C   0  0  2  0  0  3  0  0  0  0  0  0
  192.0960  178.7800  144.2940 C   0  0  0  0  0  1  0  0  0  0  0  0
  185.6190  178.4540  139.3880 C   0  0  0  0  0  2  0  0  0  0  0  0
  186.9080  177.4210  142.6130 C   0  0  0  0  0  2  0  0  0  0  0  0
  188.7310  178.7830  144.2210 O   0  0  0  0  0  0  0  0  0  0  0  0
  189.0130  178.1690  140.6490 C   0  0  2  0  0  3  0  0  0  0  0  0
  186.9030  178.7710  141.9000 C   0  0  2  0  0  3  0  0  0  0  0  0
  184.7330  178.5230  140.6300 C   0  0  0  0  0  2  0  0  0  0  0  0
  191.5050  177.4520  142.2940 C   0  0  0  0  0  2  0  0  0  0  0  0
  190.2810  177.0200  144.5110 C   0  0  2  0  0  3  0  0  0  0  0  0
  191.5970  177.4240  143.8250 C   0  0  2  0  0  3  0  0  0  0  0  0
  188.1830  175.5520  143.2530 O   0  0  0  0  0  1  0  0  0  0  0  0
  189.0530  177.6440  143.9140 C   0  0  0  0  0  0  0  0  0  0  0  0
  188.3260  176.8770  142.8300 C   0  0  1  0  0  0  0  0  0  0  0  0
  185.4720  179.2830  141.7340 C   0  0  0  0  0  2  0  0  0  0  0  0
  186.8160  177.7830  139.6930 O   0  0  0  0  0  0  0  0  0  0  0  0
  187.5630  178.6470  140.5210 C   0  0  2  0  0  3  0  0  0  0  0  0
  189.6220  178.1150  139.3060 N   0  0  0  0  0  0  0  0  0  0  0  0
  189.5110  176.7650  138.7760 C   0  0  0  0  0  1  0  0  0  0  0  0
  188.9970  179.0380  138.3630 C   0  0  0  0  0  2  0  0  0  0  0  0
  189.0920  178.5030  137.0180 N   0  0  0  0  0  2  0  0  0  0  0  0
  187.9350  178.3340  136.2490 C   0  0  0  0  0  0  0  0  0  0  0  0
  186.9390  178.1880  135.5850 C   0  0  0  0  0  3  0  0  0  0  0  0
  190.2710  176.8760  146.0430 C   0  0  1  0  0  3  0  0  0  0  0  0
  191.6660  177.0830  148.0140 C   0  0  0  0  0  1  0  0  0  0  0  0
  191.6330  176.7750  146.5880 N   0  0  0  0  0  0  0  0  0  0  0  0
  192.0910  175.4050  146.4270 C   0  0  0  0  0  1  0  0  0  0  0  0
  188.2070  177.1330  147.4220 C   0  0  0  0  0  1  0  0  0  0  0  0
  189.3610  177.8710  146.7750 C   0  0  0  0  0  2  0  0  0  0  0  0
  1 10  1  0  0  0  0
  2  1  1  1  0  0  0
  2 15  1  0  0  0  0
  4 17  1  0  0  0  0
  4  9  1  0  0  0  0
  5 15  1  0  0  0  0
  7 19  1  6  0  0  0
  7  2  1  0  0  0  0
  8 16  1  6  0  0  0
  8  5  1  0  0  0  0
  9 16  1  0  0  0  0
 10 12  1  0  0  0  0
 11 25  1  1  0  0  0
 12  3  1  1  0  0  0
 12 11  1  0  0  0  0
 14  6  2  0  0  0  0
 14 11  1  0  0  0  0
 15 13  1  1  0  0  0
 15 14  1  0  0  0  0
 18 17  1  6  0  0  0
 18  7  1  0  0  0  0
 18  8  1  0  0  0  0
 20 19  1  0  0  0  0
 21 19  1  0  0  0  0
 22 21  1  0  0  0  0
 23 22  1  0  0  0  0
 24 23  3  0  0  0  0
 25 27  1  0  0  0  0
 25 30  1  1  0  0  0
 27 26  1  0  0  0  0
 28 27  1  0  0  0  0
 30 29  1  0  0  0  0
M  END
>  <MODEL>
1

>  <REMARK>
 VINA RESULT:      -6.5      0.000      0.000
  Name = 
  7 active torsions:
  status: ('A' for Active; 'I' for Inactive)
    1  A    between atoms: C_6  and  N_8
    2  A    between atoms: C_6  and  N_21
    3  A    between atoms: N_8  and  C_13
    4  A    between atoms: C_9  and  N_21
    5  A    between atoms: N_14  and  C_28
    6  A    between atoms: C_19  and  C_28
    7  A    between atoms: C_28  and  C_29
                            x       y       z     vdW  Elec       q    Type
                         _______ _______ _______ _____ _____    ______ ____

>  <TORSDO>
F 7

$$$$
=
 OpenBabel10262422023D

 30 32  0  0  1  0  0  0  0  0999 V2000
  186.7570  176.8510  143.2750 C   0  0  0  0  0  2  0  0  0  0  0  0
  187.9880  176.6730  144.1940 C   0  0  2  0  0  3  0  0  0  0  0  0
  187.6740  179.8150  140.9960 C   0  0  0  0  0  1  0  0  0  0  0  0
  190.2550  176.5120  147.9650 C   0  0  0  0  0  2  0  0  0  0  0  0
  190.5100  176.3150  144.3550 C   0  0  0  0  0  2  0  0  0  0  0  0
  190.3200  178.4100  142.5290 O   0  0  0  0  0  0  0  0  0  0  0  0
  188.0900  177.7480  145.3230 C   0  0  2  0  0  3  0  0  0  0  0  0
  190.6030  177.4920  145.3220 C   0  0  2  0  0  3  0  0  0  0  0  0
  191.6100  176.2820  147.2990 C   0  0  0  0  0  2  0  0  0  0  0  0
  186.6950  178.2410  142.6310 C   0  0  0  0  0  2  0  0  0  0  0  0
  188.6450  177.4760  141.1430 C   0  0  2  0  0  3  0  0  0  0  0  0
  187.3850  178.3490  141.2650 C   0  0  2  0  0  3  0  0  0  0  0  0
  189.1960  175.1920  142.7610 O   0  0  0  0  0  1  0  0  0  0  0  0
  189.5310  177.4930  142.3560 C   0  0  0  0  0  0  0  0  0  0  0  0
  189.3090  176.4260  143.4080 C   0  0  1  0  0  0  0  0  0  0  0  0
  191.8300  177.3480  146.2240 C   0  0  0  0  0  2  0  0  0  0  0  0
  189.2310  176.4230  147.0040 O   0  0  0  0  0  0  0  0  0  0  0  0
  189.3410  177.5690  146.1900 C   0  0  2  0  0  3  0  0  0  0  0  0
  186.9100  177.8700  146.1990 N   0  0  0  0  0  0  0  0  0  0  0  0
  187.3440  178.0560  147.5750 C   0  0  0  0  0  1  0  0  0  0  0  0
  186.0420  178.9840  145.8290 C   0  0  0  0  0  2  0  0  0  0  0  0
  184.6580  178.6330  146.0870 N   0  0  0  0  0  2  0  0  0  0  0  0
  183.6960  178.7970  145.0840 C   0  0  0  0  0  0  0  0  0  0  0  0
  182.8680  178.9370  144.2190 C   0  0  0  0  0  3  0  0  0  0  0  0
  189.3790  177.4360  139.7910 C   0  0  1  0  0  3  0  0  0  0  0  0
  190.4550  175.6350  138.5790 C   0  0  0  0  0  1  0  0  0  0  0  0
  190.4650  176.4440  139.7920 N   0  0  0  0  0  0  0  0  0  0  0  0
  191.7340  177.1550  139.8320 C   0  0  0  0  0  1  0  0  0  0  0  0
  188.7180  178.5720  137.6690 C   0  0  0  0  0  1  0  0  0  0  0  0
  188.4600  177.3770  138.5640 C   0  0  0  0  0  2  0  0  0  0  0  0
  2  1  1  6  0  0  0
  2  7  1  0  0  0  0
  7 18  1  0  0  0  0
  7 19  1  1  0  0  0
  8  5  1  6  0  0  0
  8 18  1  0  0  0  0
  8 16  1  0  0  0  0
  9  4  1  0  0  0  0
 10  1  1  0  0  0  0
 11 25  1  6  0  0  0
 11 12  1  0  0  0  0
 11 14  1  0  0  0  0
 12  3  1  1  0  0  0
 12 10  1  0  0  0  0
 14  6  2  0  0  0  0
 14 15  1  0  0  0  0
 15 13  1  6  0  0  0
 15  2  1  0  0  0  0
 15  5  1  0  0  0  0
 16  9  1  0  0  0  0
 17  4  1  0  0  0  0
 18 17  1  6  0  0  0
 19 20  1  0  0  0  0
 21 22  1  0  0  0  0
 21 19  1  0  0  0  0
 23 22  1  0  0  0  0
 24 23  3  0  0  0  0
 25 30  1  6  0  0  0
 25 27  1  0  0  0  0
 26 27  1  0  0  0  0
 27 28  1  0  0  0  0
 29 30  1  0  0  0  0
M  END
>  <MODEL>
2

>  <REMARK>
 VINA RESULT:      -6.3      2.393      6.935
  Name = 
  7 active torsions:
  status: ('A' for Active; 'I' for Inactive)
    1  A    between atoms: C_6  and  N_8
    2  A    between atoms: C_6  and  N_21
    3  A    between atoms: N_8  and  C_13
    4  A    between atoms: C_9  and  N_21
    5  A    between atoms: N_14  and  C_28
    6  A    between atoms: C_19  and  C_28
    7  A    between atoms: C_28  and  C_29
                            x       y       z     vdW  Elec       q    Type
                         _______ _______ _______ _____ _____    ______ ____

>  <TORSDO>
F 7

$$$$
=
 OpenBabel10262422023D

 30 32  0  0  1  0  0  0  0  0999 V2000
  187.6740  179.2340  141.9220 C   0  0  0  0  0  2  0  0  0  0  0  0
  188.6010  178.5990  140.8610 C   0  0  2  0  0  3  0  0  0  0  0  0
  186.7470  176.3220  144.2640 C   0  0  0  0  0  1  0  0  0  0  0  0
  189.9390  177.3530  136.8560 C   0  0  0  0  0  2  0  0  0  0  0  0
  190.7160  177.2470  140.3940 C   0  0  0  0  0  2  0  0  0  0  0  0
  189.4550  175.7240  142.3570 O   0  0  0  0  0  0  0  0  0  0  0  0
  187.8440  177.7410  139.7970 C   0  0  2  0  0  3  0  0  0  0  0  0
  189.9060  176.3140  139.4980 C   0  0  2  0  0  3  0  0  0  0  0  0
  191.1950  176.6370  137.3480 C   0  0  0  0  0  2  0  0  0  0  0  0
  186.8140  178.1970  142.6550 C   0  0  0  0  0  2  0  0  0  0  0  0
  188.9670  177.4830  143.8620 C   0  0  2  0  0  3  0  0  0  0  0  0
  187.4380  177.6340  143.9380 C   0  0  2  0  0  3  0  0  0  0  0  0
  190.6470  178.9120  142.0530 O   0  0  0  0  0  1  0  0  0  0  0  0
  189.4710  176.9300  142.5600 C   0  0  0  0  0  0  0  0  0  0  0  0
  189.8570  177.9140  141.4760 C   0  0  1  0  0  0  0  0  0  0  0  0
  190.8110  175.6540  138.4570 C   0  0  0  0  0  2  0  0  0  0  0  0
  189.3450  178.0580  137.9180 O   0  0  0  0  0  0  0  0  0  0  0  0
  188.7940  177.0920  138.7850 C   0  0  2  0  0  3  0  0  0  0  0  0
  186.7640  178.4320  139.0690 N   0  0  0  0  0  0  0  0  0  0  0  0
  186.4970  177.7350  137.8210 C   0  0  0  0  0  1  0  0  0  0  0  0
  185.5230  178.5090  139.8350 C   0  0  0  0  0  2  0  0  0  0  0  0
  184.8200  179.7350  139.5060 N   0  0  0  0  0  2  0  0  0  0  0  0
  183.4970  179.6840  139.0560 C   0  0  0  0  0  0  0  0  0  0  0  0
  182.3560  179.6400  138.6670 C   0  0  0  0  0  3  0  0  0  0  0  0
  189.7170  177.0060  145.1170 C   0  0  1  0  0  3  0  0  0  0  0  0
  191.8320  178.1450  144.7920 C   0  0  0  0  0  1  0  0  0  0  0  0
  191.1580  176.8530  144.8630 N   0  0  0  0  0  0  0  0  0  0  0  0
  191.7430  176.1170  145.9720 C   0  0  0  0  0  1  0  0  0  0  0  0
  188.6570  176.8530  147.3720 C   0  0  0  0  0  1  0  0  0  0  0  0
  189.3720  177.7710  146.4020 C   0  0  0  0  0  2  0  0  0  0  0  0
  1 10  1  0  0  0  0
  2 15  1  0  0  0  0
  2  1  1  1  0  0  0
  4  9  1  0  0  0  0
  4 17  1  0  0  0  0
  5 15  1  0  0  0  0
  6 14  2  0  0  0  0
  7 19  1  6  0  0  0
  7  2  1  0  0  0  0
  8 16  1  6  0  0  0
  8  5  1  0  0  0  0
  9 16  1  0  0  0  0
 10 12  1  0  0  0  0
 11 12  1  0  0  0  0
 11 25  1  1  0  0  0
 12  3  1  6  0  0  0
 14 11  1  0  0  0  0
 15 13  1  1  0  0  0
 15 14  1  0  0  0  0
 18 17  1  1  0  0  0
 18  8  1  0  0  0  0
 18  7  1  0  0  0  0
 19 21  1  0  0  0  0
 20 19  1  0  0  0  0
 22 21  1  0  0  0  0
 23 22  1  0  0  0  0
 24 23  3  0  0  0  0
 25 30  1  1  0  0  0
 26 27  1  0  0  0  0
 27 25  1  0  0  0  0
 27 28  1  0  0  0  0
 30 29  1  0  0  0  0
M  END
>  <MODEL>
3

>  <REMARK>
 VINA RESULT:      -6.2      1.902      3.959
  Name = 
  7 active torsions:
  status: ('A' for Active; 'I' for Inactive)
    1  A    between atoms: C_6  and  N_8
    2  A    between atoms: C_6  and  N_21
    3  A    between atoms: N_8  and  C_13
    4  A    between atoms: C_9  and  N_21
    5  A    between atoms: N_14  and  C_28
    6  A    between atoms: C_19  and  C_28
    7  A    between atoms: C_28  and  C_29
                            x       y       z     vdW  Elec       q    Type
                         _______ _______ _______ _____ _____    ______ ____

>  <TORSDO>
F 7

$$$$
=
 OpenBabel10262422023D

 30 32  0  0  1  0  0  0  0  0999 V2000
  190.3020  176.1020  142.0820 C   0  0  0  0  0  2  0  0  0  0  0  0
  188.8970  176.7150  141.8820 C   0  0  2  0  0  3  0  0  0  0  0  0
  192.1280  178.5970  144.3750 C   0  0  0  0  0  1  0  0  0  0  0  0
  185.4840  178.4270  139.6890 C   0  0  0  0  0  2  0  0  0  0  0  0
  186.7740  177.6160  142.9770 C   0  0  0  0  0  2  0  0  0  0  0  0
  188.7800  178.9440  144.3820 O   0  0  0  0  0  0  0  0  0  0  0  0
  188.8740  177.9250  140.8930 C   0  0  2  0  0  3  0  0  0  0  0  0
  186.8810  178.8750  142.1200 C   0  0  2  0  0  3  0  0  0  0  0  0
  184.6540  178.7200  140.9370 C   0  0  0  0  0  2  0  0  0  0  0  0
  191.3370  177.1320  142.5490 C   0  0  0  0  0  2  0  0  0  0  0  0
  190.1530  177.0700  144.8280 C   0  0  2  0  0  3  0  0  0  0  0  0
  191.4790  177.2590  144.0700 C   0  0  2  0  0  3  0  0  0  0  0  0
  187.8750  175.7030  143.7880 O   0  0  0  0  0  1  0  0  0  0  0  0
  188.9740  177.7520  144.1950 C   0  0  0  0  0  0  0  0  0  0  0  0
  188.1360  176.9520  143.2190 C   0  0  1  0  0  0  0  0  0  0  0  0
  185.5040  179.5120  141.9320 C   0  0  0  0  0  2  0  0  0  0  0  0
  186.6180  177.6710  140.0380 O   0  0  0  0  0  0  0  0  0  0  0  0
  187.4760  178.5360  140.7480 C   0  0  2  0  0  3  0  0  0  0  0  0
  189.4270  177.6650  139.5510 N   0  0  0  0  0  0  0  0  0  0  0  0
  189.1240  178.7860  138.6750 C   0  0  0  0  0  1  0  0  0  0  0  0
  190.8730  177.4610  139.5640 C   0  0  0  0  0  2  0  0  0  0  0  0
  191.2150  176.3320  138.7190 N   0  0  0  0  0  2  0  0  0  0  0  0
  192.3580  176.3810  137.9140 C   0  0  0  0  0  0  0  0  0  0  0  0
  193.3440  176.4230  137.2200 C   0  0  0  0  0  3  0  0  0  0  0  0
  190.1810  177.0930  146.3660 C   0  0  1  0  0  3  0  0  0  0  0  0
  188.1150  176.4180  147.4400 C   0  0  0  0  0  1  0  0  0  0  0  0
  188.8960  177.5390  146.9260 N   0  0  0  0  0  0  0  0  0  0  0  0
  189.1670  178.4300  148.0420 C   0  0  0  0  0  1  0  0  0  0  0  0
  192.0900  176.1440  147.6640 C   0  0  0  0  0  1  0  0  0  0  0  0
  190.7570  175.8280  147.0160 C   0  0  0  0  0  2  0  0  0  0  0  0
  1 10  1  0  0  0  0
  2  1  1  1  0  0  0
  2 15  1  0  0  0  0
  4 17  1  0  0  0  0
  4  9  1  0  0  0  0
  5 15  1  0  0  0  0
  7 19  1  6  0  0  0
  7  2  1  0  0  0  0
  8 16  1  6  0  0  0
  8  5  1  0  0  0  0
  9 16  1  0  0  0  0
 10 12  1  0  0  0  0
 11 25  1  1  0  0  0
 12  3  1  6  0  0  0
 12 11  1  0  0  0  0
 14  6  2  0  0  0  0
 14 11  1  0  0  0  0
 15 13  1  1  0  0  0
 15 14  1  0  0  0  0
 18 17  1  1  0  0  0
 18  7  1  0  0  0  0
 18  8  1  0  0  0  0
 19 21  1  0  0  0  0
 20 19  1  0  0  0  0
 22 21  1  0  0  0  0
 23 22  1  0  0  0  0
 24 23  3  0  0  0  0
 25 27  1  0  0  0  0
 25 30  1  1  0  0  0
 27 26  1  0  0  0  0
 27 28  1  0  0  0  0
 30 29  1  0  0  0  0
M  END
>  <MODEL>
4

>  <REMARK>
 VINA RESULT:      -6.0      1.326      2.339
  Name = 
  7 active torsions:
  status: ('A' for Active; 'I' for Inactive)
    1  A    between atoms: C_6  and  N_8
    2  A    between atoms: C_6  and  N_21
    3  A    between atoms: N_8  and  C_13
    4  A    between atoms: C_9  and  N_21
    5  A    between atoms: N_14  and  C_28
    6  A    between atoms: C_19  and  C_28
    7  A    between atoms: C_28  and  C_29
                            x       y       z     vdW  Elec       q    Type
                         _______ _______ _______ _____ _____    ______ ____

>  <TORSDO>
F 7

$$$$
=
 OpenBabel10262422023D

 30 32  0  0  1  0  0  0  0  0999 V2000
  188.5190  176.5770  142.7160 C   0  0  0  0  0  2  0  0  0  0  0  0
  187.1090  177.1290  143.0230 C   0  0  2  0  0  3  0  0  0  0  0  0
  190.9200  179.0560  144.4220 C   0  0  0  0  0  1  0  0  0  0  0  0
  183.1110  178.7660  142.1720 C   0  0  0  0  0  2  0  0  0  0  0  0
  185.4390  177.8770  144.8030 C   0  0  0  0  0  2  0  0  0  0  0  0
  187.7530  179.2390  145.5450 O   0  0  0  0  0  0  0  0  0  0  0  0
  186.7220  178.3780  142.1670 C   0  0  2  0  0  3  0  0  0  0  0  0
  185.2170  179.1750  144.0320 C   0  0  2  0  0  3  0  0  0  0  0  0
  182.7300  178.9640  143.6380 C   0  0  0  0  0  2  0  0  0  0  0  0
  189.6170  177.6350  142.8750 C   0  0  0  0  0  2  0  0  0  0  0  0
  189.2550  177.4160  145.4090 C   0  0  2  0  0  3  0  0  0  0  0  0
  190.2490  177.7030  144.2710 C   0  0  2  0  0  3  0  0  0  0  0  0
  186.8060  175.9870  145.0980 O   0  0  0  0  0  1  0  0  0  0  0  0
  187.9120  178.0670  145.2370 C   0  0  0  0  0  0  0  0  0  0  0  0
  186.8240  177.2710  144.5470 C   0  0  1  0  0  0  0  0  0  0  0  0
  183.8350  179.7530  144.3430 C   0  0  0  0  0  2  0  0  0  0  0  0
  184.3190  178.0520  142.0860 O   0  0  0  0  0  0  0  0  0  0  0  0
  185.3360  178.9260  142.5240 C   0  0  2  0  0  3  0  0  0  0  0  0
  186.8090  178.2040  140.7050 N   0  0  0  0  0  0  0  0  0  0  0  0
  185.7560  178.9720  140.0610 C   0  0  0  0  0  1  0  0  0  0  0  0
  188.0950  178.6270  140.1590 C   0  0  0  0  0  2  0  0  0  0  0  0
  188.5320  177.6850  139.1470 N   0  0  0  0  0  2  0  0  0  0  0  0
  189.8180  177.1370  139.2090 C   0  0  0  0  0  0  0  0  0  0  0  0
  190.9260  176.6650  139.2620 C   0  0  0  0  0  3  0  0  0  0  0  0
  189.7880  177.3730  146.8510 C   0  0  1  0  0  3  0  0  0  0  0  0
  188.0800  176.7880  148.4690 C   0  0  0  0  0  1  0  0  0  0  0  0
  188.7950  177.8780  147.8130 N   0  0  0  0  0  0  0  0  0  0  0  0
  189.4950  178.6240  148.8460 C   0  0  0  0  0  1  0  0  0  0  0  0
  191.9570  176.1810  147.1720 C   0  0  0  0  0  1  0  0  0  0  0  0
  190.4500  176.0490  147.2520 C   0  0  0  0  0  2  0  0  0  0  0  0
  1 10  1  0  0  0  0
  2  1  1  1  0  0  0
  2 15  1  0  0  0  0
  4  9  1  0  0  0  0
  7 19  1  6  0  0  0
  7 18  1  0  0  0  0
  7  2  1  0  0  0  0
  8 16  1  6  0  0  0
  8  5  1  0  0  0  0
  9 16  1  0  0  0  0
 10 12  1  0  0  0  0
 11 25  1  1  0  0  0
 12  3  1  1  0  0  0
 12 11  1  0  0  0  0
 14 11  1  0  0  0  0
 14  6  2  0  0  0  0
 15  5  1  0  0  0  0
 15 13  1  1  0  0  0
 15 14  1  0  0  0  0
 17  4  1  0  0  0  0
 18 17  1  1  0  0  0
 18  8  1  0  0  0  0
 20 19  1  0  0  0  0
 21 19  1  0  0  0  0
 22 23  1  0  0  0  0
 22 21  1  0  0  0  0
 23 24  3  0  0  0  0
 25 30  1  1  0  0  0
 25 27  1  0  0  0  0
 27 26  1  0  0  0  0
 27 28  1  0  0  0  0
 29 30  1  0  0  0  0
M  END
>  <MODEL>
5

>  <REMARK>
 VINA RESULT:      -5.8      1.900      3.013
  Name = 
  7 active torsions:
  status: ('A' for Active; 'I' for Inactive)
    1  A    between atoms: C_6  and  N_8
    2  A    between atoms: C_6  and  N_21
    3  A    between atoms: N_8  and  C_13
    4  A    between atoms: C_9  and  N_21
    5  A    between atoms: N_14  and  C_28
    6  A    between atoms: C_19  and  C_28
    7  A    between atoms: C_28  and  C_29
                            x       y       z     vdW  Elec       q    Type
                         _______ _______ _______ _____ _____    ______ ____

>  <TORSDO>
F 7

$$$$
=
 OpenBabel10262422023D

 30 32  0  0  1  0  0  0  0  0999 V2000
  185.3310  178.6540  137.9390 C   0  0  0  0  0  2  0  0  0  0  0  0
  184.8550  178.9000  139.3890 C   0  0  2  0  0  3  0  0  0  0  0  0
  184.3760  174.9950  137.2170 C   0  0  0  0  0  1  0  0  0  0  0  0
  185.1970  179.8770  143.6690 C   0  0  0  0  0  2  0  0  0  0  0  0
  182.9180  178.8370  141.0510 C   0  0  0  0  0  2  0  0  0  0  0  0
  182.7550  176.3300  139.8470 O   0  0  0  0  0  0  0  0  0  0  0  0
  185.7760  178.2520  140.4720 C   0  0  2  0  0  3  0  0  0  0  0  0
  183.7900  178.0440  142.0190 C   0  0  2  0  0  3  0  0  0  0  0  0
  183.7220  179.6330  143.9820 C   0  0  0  0  0  2  0  0  0  0  0  0
  185.4920  177.1650  137.6140 C   0  0  0  0  0  2  0  0  0  0  0  0
  182.9260  177.0430  137.5980 C   0  0  2  0  0  3  0  0  0  0  0  0
  184.2450  176.4960  137.0240 C   0  0  2  0  0  3  0  0  0  0  0  0
  182.6360  179.5940  138.8420 O   0  0  0  0  0  1  0  0  0  0  0  0
  182.9420  177.2660  139.0830 C   0  0  0  0  0  0  0  0  0  0  0  0
  183.3330  178.6390  139.5870 C   0  0  1  0  0  0  0  0  0  0  0  0
  183.3180  178.2530  143.4580 C   0  0  0  0  0  2  0  0  0  0  0  0
  185.4030  179.8290  142.2780 O   0  0  0  0  0  0  0  0  0  0  0  0
  185.2550  178.4790  141.8950 C   0  0  2  0  0  3  0  0  0  0  0  0
  187.1990  178.6350  140.4140 N   0  0  0  0  0  0  0  0  0  0  0  0
  187.8070  178.4450  141.7220 C   0  0  0  0  0  1  0  0  0  0  0  0
  187.9540  177.8610  139.4320 C   0  0  0  0  0  2  0  0  0  0  0  0
  188.7660  178.7530  138.6260 N   0  0  0  0  0  2  0  0  0  0  0  0
  188.9610  178.4850  137.2660 C   0  0  0  0  0  0  0  0  0  0  0  0
  189.1280  178.2540  136.0950 C   0  0  0  0  0  3  0  0  0  0  0  0
  181.6020  176.5080  137.0240 C   0  0  1  0  0  3  0  0  0  0  0  0
  179.7000  177.9950  136.8080 C   0  0  0  0  0  1  0  0  0  0  0  0
  180.4380  177.1050  137.6980 N   0  0  0  0  0  0  0  0  0  0  0  0
  179.5370  176.0340  138.0890 C   0  0  0  0  0  1  0  0  0  0  0  0
  181.3350  175.0870  134.9890 C   0  0  0  0  0  1  0  0  0  0  0  0
  181.5220  176.5040  135.4920 C   0  0  0  0  0  2  0  0  0  0  0  0
  2  1  1  6  0  0  0
  2 15  1  0  0  0  0
  2  7  1  0  0  0  0
  4  9  1  0  0  0  0
  7 19  1  1  0  0  0
  7 18  1  0  0  0  0
  8  5  1  6  0  0  0
  8 16  1  0  0  0  0
 10  1  1  0  0  0  0
 11 25  1  1  0  0  0
 11 14  1  0  0  0  0
 12  3  1  1  0  0  0
 12 11  1  0  0  0  0
 12 10  1  0  0  0  0
 14 15  1  0  0  0  0
 14  6  2  0  0  0  0
 15 13  1  6  0  0  0
 15  5  1  0  0  0  0
 16  9  1  0  0  0  0
 17  4  1  0  0  0  0
 18  8  1  0  0  0  0
 18 17  1  6  0  0  0
 19 20  1  0  0  0  0
 21 19  1  0  0  0  0
 22 21  1  0  0  0  0
 23 22  1  0  0  0  0
 24 23  3  0  0  0  0
 25 30  1  6  0  0  0
 25 27  1  0  0  0  0
 26 27  1  0  0  0  0
 27 28  1  0  0  0  0
 29 30  1  0  0  0  0
M  END
>  <MODEL>
6

>  <REMARK>
 VINA RESULT:      -5.7      3.827      8.326
  Name = 
  7 active torsions:
  status: ('A' for Active; 'I' for Inactive)
    1  A    between atoms: C_6  and  N_8
    2  A    between atoms: C_6  and  N_21
    3  A    between atoms: N_8  and  C_13
    4  A    between atoms: C_9  and  N_21
    5  A    between atoms: N_14  and  C_28
    6  A    between atoms: C_19  and  C_28
    7  A    between atoms: C_28  and  C_29
                            x       y       z     vdW  Elec       q    Type
                         _______ _______ _______ _____ _____    ______ ____

>  <TORSDO>
F 7

$$$$
=
 OpenBabel10262422023D

 30 32  0  0  1  0  0  0  0  0999 V2000
  188.9420  178.8480  137.5640 C   0  0  0  0  0  2  0  0  0  0  0  0
  187.8290  178.0450  136.8530 C   0  0  2  0  0  3  0  0  0  0  0  0
  190.9500  176.2020  139.5120 C   0  0  0  0  0  1  0  0  0  0  0  0
  183.7280  176.8190  135.8240 C   0  0  0  0  0  2  0  0  0  0  0  0
  187.2420  176.1150  135.2890 C   0  0  0  0  0  2  0  0  0  0  0  0
  189.0180  174.9190  137.0720 O   0  0  0  0  0  0  0  0  0  0  0  0
  186.6720  177.5980  137.8030 C   0  0  2  0  0  3  0  0  0  0  0  0
  186.2430  175.5990  136.3210 C   0  0  2  0  0  3  0  0  0  0  0  0
  184.1540  175.6790  134.9010 C   0  0  0  0  0  2  0  0  0  0  0  0
  189.5510  178.0930  138.7520 C   0  0  0  0  0  2  0  0  0  0  0  0
  190.6970  176.5850  137.0160 C   0  0  2  0  0  3  0  0  0  0  0  0
  190.7730  177.2320  138.4100 C   0  0  2  0  0  3  0  0  0  0  0  0
  189.0680  177.5370  134.8760 O   0  0  0  0  0  1  0  0  0  0  0  0
  189.3490  176.0240  136.6660 C   0  0  0  0  0  0  0  0  0  0  0  0
  188.3800  176.9230  135.9260 C   0  0  1  0  0  0  0  0  0  0  0  0
  185.1470  174.7780  135.6400 C   0  0  0  0  0  2  0  0  0  0  0  0
  184.8530  177.5750  136.1980 O   0  0  0  0  0  0  0  0  0  0  0  0
  185.6060  176.7700  137.0780 C   0  0  2  0  0  3  0  0  0  0  0  0
  186.0100  178.6790  138.5580 N   0  0  0  0  0  0  0  0  0  0  0  0
  184.5690  178.5690  138.4010 C   0  0  0  0  0  1  0  0  0  0  0  0
  186.3270  178.6510  139.9830 C   0  0  0  0  0  2  0  0  0  0  0  0
  185.2840  179.3280  140.7300 N   0  0  0  0  0  2  0  0  0  0  0  0
  185.0690  179.0130  142.0760 C   0  0  0  0  0  0  0  0  0  0  0  0
  184.8850  178.7410  143.2360 C   0  0  0  0  0  3  0  0  0  0  0  0
  191.9020  175.7640  136.5250 C   0  0  1  0  0  3  0  0  0  0  0  0
  193.2600  176.3140  134.5940 C   0  0  0  0  0  1  0  0  0  0  0  0
  191.9930  175.7580  135.0570 N   0  0  0  0  0  0  0  0  0  0  0  0
  191.9290  174.3790  134.6000 C   0  0  0  0  0  1  0  0  0  0  0  0
  193.8100  174.7880  137.8040 C   0  0  0  0  0  1  0  0  0  0  0  0
  193.2220  176.0680  137.2460 C   0  0  0  0  0  2  0  0  0  0  0  0
  1 10  1  0  0  0  0
  2  1  1  1  0  0  0
  2  7  1  0  0  0  0
  4 17  1  0  0  0  0
  5 15  1  0  0  0  0
  7 19  1  6  0  0  0
  8  5  1  6  0  0  0
  8 18  1  0  0  0  0
  9 16  1  0  0  0  0
  9  4  1  0  0  0  0
 11 25  1  1  0  0  0
 11 12  1  0  0  0  0
 12 10  1  0  0  0  0
 12  3  1  1  0  0  0
 14 11  1  0  0  0  0
 14  6  2  0  0  0  0
 15 13  1  6  0  0  0
 15 14  1  0  0  0  0
 15  2  1  0  0  0  0
 16  8  1  0  0  0  0
 18 17  1  6  0  0  0
 18  7  1  0  0  0  0
 19 21  1  0  0  0  0
 20 19  1  0  0  0  0
 21 22  1  0  0  0  0
 22 23  1  0  0  0  0
 23 24  3  0  0  0  0
 25 30  1  1  0  0  0
 26 27  1  0  0  0  0
 27 25  1  0  0  0  0
 28 27  1  0  0  0  0
 30 29  1  0  0  0  0
M  END
>  <MODEL>
7

>  <REMARK>
 VINA RESULT:      -5.6      4.520      7.461
  Name = 
  7 active torsions:
  status: ('A' for Active; 'I' for Inactive)
    1  A    between atoms: C_6  and  N_8
    2  A    between atoms: C_6  and  N_21
    3  A    between atoms: N_8  and  C_13
    4  A    between atoms: C_9  and  N_21
    5  A    between atoms: N_14  and  C_28
    6  A    between atoms: C_19  and  C_28
    7  A    between atoms: C_28  and  C_29
                            x       y       z     vdW  Elec       q    Type
                         _______ _______ _______ _____ _____    ______ ____

>  <TORSDO>
F 7

$$$$
=
 OpenBabel10262422023D

 30 32  0  0  1  0  0  0  0  0999 V2000
  186.1980  179.2880  142.1890 C   0  0  0  0  0  2  0  0  0  0  0  0
  186.8570  179.0110  140.8180 C   0  0  2  0  0  3  0  0  0  0  0  0
  186.7950  176.0700  144.2170 C   0  0  0  0  0  1  0  0  0  0  0  0
  187.0900  178.4770  136.4540 C   0  0  0  0  0  2  0  0  0  0  0  0
  188.9660  178.3300  139.5510 C   0  0  0  0  0  2  0  0  0  0  0  0
  188.8050  176.3800  141.5350 O   0  0  0  0  0  0  0  0  0  0  0  0
  186.0250  178.0590  139.9010 C   0  0  2  0  0  3  0  0  0  0  0  0
  188.1580  177.2780  138.7960 C   0  0  2  0  0  3  0  0  0  0  0  0
  188.5700  178.0990  136.4420 C   0  0  0  0  0  2  0  0  0  0  0  0
  185.8930  178.0040  142.9690 C   0  0  0  0  0  2  0  0  0  0  0  0
  188.4240  177.8230  143.3710 C   0  0  2  0  0  3  0  0  0  0  0  0
  187.0110  177.5420  143.9120 C   0  0  2  0  0  3  0  0  0  0  0  0
  189.0410  179.7860  141.3960 O   0  0  0  0  0  1  0  0  0  0  0  0
  188.5980  177.5250  141.9090 C   0  0  0  0  0  0  0  0  0  0  0  0
  188.3690  178.6550  140.9260 C   0  0  1  0  0  0  0  0  0  0  0  0
  188.8080  176.9700  137.4470 C   0  0  0  0  0  2  0  0  0  0  0  0
  186.7200  178.9120  137.7400 O   0  0  0  0  0  0  0  0  0  0  0  0
  186.7240  177.7710  138.5680 C   0  0  2  0  0  3  0  0  0  0  0  0
  184.6360  178.4780  139.6360 N   0  0  0  0  0  0  0  0  0  0  0  0
  184.2760  178.1290  138.2710 C   0  0  0  0  0  1  0  0  0  0  0  0
  183.6740  177.8600  140.5440 C   0  0  0  0  0  2  0  0  0  0  0  0
  182.7480  178.8650  141.0330 N   0  0  0  0  0  2  0  0  0  0  0  0
  182.4550  178.9400  142.3990 C   0  0  0  0  0  0  0  0  0  0  0  0
  182.2020  179.0060  143.5760 C   0  0  0  0  0  3  0  0  0  0  0  0
  189.6290  177.4790  144.2630 C   0  0  1  0  0  3  0  0  0  0  0  0
  191.6850  178.7280  143.9630 C   0  0  0  0  0  1  0  0  0  0  0  0
  190.8980  177.5800  143.5250 N   0  0  0  0  0  0  0  0  0  0  0  0
  191.6810  176.3860  143.7940 C   0  0  0  0  0  1  0  0  0  0  0  0
  189.6520  177.1260  146.7340 C   0  0  0  0  0  1  0  0  0  0  0  0
  189.6300  178.1680  145.6340 C   0  0  0  0  0  2  0  0  0  0  0  0
  1 10  1  0  0  0  0
  2 15  1  0  0  0  0
  2  1  1  1  0  0  0
  4 17  1  0  0  0  0
  5 15  1  0  0  0  0
  6 14  2  0  0  0  0
  7 19  1  6  0  0  0
  7  2  1  0  0  0  0
  8 16  1  6  0  0  0
  8  5  1  0  0  0  0
  9  4  1  0  0  0  0
  9 16  1  0  0  0  0
 10 12  1  0  0  0  0
 11 12  1  0  0  0  0
 11 25  1  1  0  0  0
 12  3  1  6  0  0  0
 14 11  1  0  0  0  0
 15 13  1  1  0  0  0
 15 14  1  0  0  0  0
 18 17  1  6  0  0  0
 18  8  1  0  0  0  0
 18  7  1  0  0  0  0
 19 21  1  0  0  0  0
 20 19  1  0  0  0  0
 21 22  1  0  0  0  0
 22 23  1  0  0  0  0
 23 24  3  0  0  0  0
 25 30  1  1  0  0  0
 27 28  1  0  0  0  0
 27 26  1  0  0  0  0
 27 25  1  0  0  0  0
 30 29  1  0  0  0  0
M  END
>  <MODEL>
8

>  <REMARK>
 VINA RESULT:      -5.5      2.290      4.658
  Name = 
  7 active torsions:
  status: ('A' for Active; 'I' for Inactive)
    1  A    between atoms: C_6  and  N_8
    2  A    between atoms: C_6  and  N_21
    3  A    between atoms: N_8  and  C_13
    4  A    between atoms: C_9  and  N_21
    5  A    between atoms: N_14  and  C_28
    6  A    between atoms: C_19  and  C_28
    7  A    between atoms: C_28  and  C_29
                            x       y       z     vdW  Elec       q    Type
                         _______ _______ _______ _____ _____    ______ ____

>  <TORSDO>
F 7

$$$$
=
 OpenBabel10262422023D

 30 32  0  0  1  0  0  0  0  0999 V2000
  188.2470  179.1510  141.0630 C   0  0  0  0  0  2  0  0  0  0  0  0
  189.1950  178.3500  140.1420 C   0  0  2  0  0  3  0  0  0  0  0  0
  186.9380  176.5570  143.5900 C   0  0  0  0  0  1  0  0  0  0  0  0
  190.7120  176.6230  136.3870 C   0  0  0  0  0  2  0  0  0  0  0  0
  191.2280  176.8150  139.9680 C   0  0  0  0  0  2  0  0  0  0  0  0
  189.7200  175.5860  141.9630 O   0  0  0  0  0  0  0  0  0  0  0  0
  188.4520  177.4450  139.1080 C   0  0  2  0  0  3  0  0  0  0  0  0
  190.4140  175.8560  139.1040 C   0  0  2  0  0  3  0  0  0  0  0  0
  191.8720  175.8730  137.0400 C   0  0  0  0  0  2  0  0  0  0  0  0
  187.2610  178.2540  141.8210 C   0  0  0  0  0  2  0  0  0  0  0  0
  189.2630  177.5160  143.2530 C   0  0  2  0  0  3  0  0  0  0  0  0
  187.7480  177.7790  143.1960 C   0  0  2  0  0  3  0  0  0  0  0  0
  191.1700  178.6380  141.4530 O   0  0  0  0  0  1  0  0  0  0  0  0
  189.8130  176.8020  142.0520 C   0  0  0  0  0  0  0  0  0  0  0  0
  190.3490  177.6450  140.9130 C   0  0  1  0  0  0  0  0  0  0  0  0
  191.3370  175.0340  138.2030 C   0  0  0  0  0  2  0  0  0  0  0  0
  190.1010  177.4690  137.3290 O   0  0  0  0  0  0  0  0  0  0  0  0
  189.4180  176.6340  138.2370 C   0  0  2  0  0  3  0  0  0  0  0  0
  187.4810  178.1340  138.2360 N   0  0  0  0  0  0  0  0  0  0  0  0
  188.1860  179.0450  137.3490 C   0  0  0  0  0  1  0  0  0  0  0  0
  186.6920  177.2100  137.4250 C   0  0  0  0  0  2  0  0  0  0  0  0
  185.2800  177.5010  137.5870 N   0  0  0  0  0  2  0  0  0  0  0  0
  184.3580  177.0370  136.6420 C   0  0  0  0  0  0  0  0  0  0  0  0
  183.5630  176.6380  135.8280 C   0  0  0  0  0  3  0  0  0  0  0  0
  189.8840  177.1150  144.6020 C   0  0  1  0  0  3  0  0  0  0  0  0
  192.0570  178.1890  144.5520 C   0  0  0  0  0  1  0  0  0  0  0  0
  191.3390  176.9210  144.4930 N   0  0  0  0  0  0  0  0  0  0  0  0
  191.7790  176.1180  145.6230 C   0  0  0  0  0  1  0  0  0  0  0  0
  188.6510  177.1290  146.7720 C   0  0  0  0  0  1  0  0  0  0  0  0
  189.4420  177.9740  145.7940 C   0  0  0  0  0  2  0  0  0  0  0  0
  1 10  1  0  0  0  0
  2 15  1  0  0  0  0
  2  1  1  1  0  0  0
  4  9  1  0  0  0  0
  4 17  1  0  0  0  0
  5 15  1  0  0  0  0
  6 14  2  0  0  0  0
  7 19  1  6  0  0  0
  7  2  1  0  0  0  0
  8 16  1  6  0  0  0
  8  5  1  0  0  0  0
  9 16  1  0  0  0  0
 10 12  1  0  0  0  0
 11 25  1  1  0  0  0
 12 11  1  0  0  0  0
 12  3  1  6  0  0  0
 14 11  1  0  0  0  0
 15 13  1  1  0  0  0
 15 14  1  0  0  0  0
 18 17  1  6  0  0  0
 18  8  1  0  0  0  0
 18  7  1  0  0  0  0
 20 19  1  0  0  0  0
 21 22  1  0  0  0  0
 21 19  1  0  0  0  0
 23 22  1  0  0  0  0
 24 23  3  0  0  0  0
 25 30  1  1  0  0  0
 27 26  1  0  0  0  0
 27 25  1  0  0  0  0
 27 28  1  0  0  0  0
 30 29  1  0  0  0  0
M  END
>  <MODEL>
9

>  <REMARK>
 VINA RESULT:      -5.4      2.078      4.044
  Name = 
  7 active torsions:
  status: ('A' for Active; 'I' for Inactive)
    1  A    between atoms: C_6  and  N_8
    2  A    between atoms: C_6  and  N_21
    3  A    between atoms: N_8  and  C_13
    4  A    between atoms: C_9  and  N_21
    5  A    between atoms: N_14  and  C_28
    6  A    between atoms: C_19  and  C_28
    7  A    between atoms: C_28  and  C_29
                            x       y       z     vdW  Elec       q    Type
                         _______ _______ _______ _____ _____    ______ ____

>  <TORSDO>
F 7

$$$$
