=
 OpenBabel10262420003D

 27 31  0  0  1  0  0  0  0  0999 V2000
  187.8890  176.4890  143.6160 N   0  0  0  0  0  0  0  0  0  0  0  0
  186.5810  178.4560  143.5620 C   0  0  1  0  0  3  0  0  0  0  0  0
  186.8940  178.4410  141.1700 N   0  0  0  0  0  2  0  0  0  0  0  0
  182.1880  179.2670  143.4430 C   0  0  0  0  0  3  0  0  0  0  0  0
  181.3220  177.7720  141.7090 F   0  0  0  0  0  0  0  0  0  0  0  0
  185.5820  179.1260  144.4000 C   0  0  0  0  0  3  0  0  0  0  0  0
  183.6230  178.2310  141.7170 C   0  0  0  0  0  0  0  0  0  0  0  0
  189.9780  178.2770  139.3520 N   0  0  0  0  0  0  0  0  0  0  0  0
  183.8270  177.2210  140.2910 Cl  0  0  0  0  0  0  0  0  0  0  0  0
  190.6180  177.2070  139.8820 C   0  0  0  0  0  3  0  0  0  0  0  0
  184.7770  179.0760  142.2050 C   0  0  2  0  0  3  0  0  0  0  0  0
  187.6380  177.7260  144.0980 C   0  0  0  0  0  0  0  0  0  0  0  0
  182.3940  178.4090  142.2440 C   0  0  0  0  0  0  0  0  0  0  0  0
  183.2270  179.7630  144.1260 C   0  0  0  0  0  3  0  0  0  0  0  0
  188.3590  176.1350  142.4480 O   0  0  0  0  0  0  0  0  0  0  0  0
  186.1030  178.3900  142.2620 C   0  0  2  0  0  3  0  0  0  0  0  0
  188.7770  178.6860  139.8310 C   0  0  0  0  0  3  0  0  0  0  0  0
  184.5690  179.4650  143.6270 C   0  0  0  0  0  0  0  0  0  0  0  0
  190.0430  176.5150  140.9430 C   0  0  0  0  0  3  0  0  0  0  0  0
  188.8270  176.9300  141.5000 C   0  0  0  0  0  0  0  0  0  0  0  0
  188.1680  178.0530  140.9230 C   0  0  0  0  0  0  0  0  0  0  0  0
  188.5190  177.5210  148.3130 C   0  0  0  0  0  3  0  0  0  0  0  0
  187.9630  177.9620  145.5480 C   0  0  2  0  0  3  0  0  0  0  0  0
  189.2490  177.2300  145.9380 C   0  0  0  0  0  2  0  0  0  0  0  0
  189.4900  177.2530  147.4270 C   0  0  0  0  0  3  0  0  0  0  0  0
  187.1280  177.9290  147.8930 C   0  0  0  0  0  2  0  0  0  0  0  0
  186.8180  177.5160  146.4560 C   0  0  0  0  0  2  0  0  0  0  0  0
  1 12  2  0  0  0  0
  2 12  1  0  0  0  0
  2  6  1  1  0  0  0
  4 14  2  0  0  0  0
  5 13  1  0  0  0  0
  7 13  2  0  0  0  0
  8 17  2  0  0  0  0
  8 10  1  0  0  0  0
  9  7  1  0  0  0  0
 10 19  2  0  0  0  0
 11  7  1  1  0  0  0
 11 16  1  0  0  0  0
 11 18  1  0  0  0  0
 13  4  1  0  0  0  0
 15  1  1  0  0  0  0
 16  3  1  6  0  0  0
 16  2  1  0  0  0  0
 17 21  1  0  0  0  0
 18 14  1  0  0  0  0
 18  6  2  0  0  0  0
 19 20  1  0  0  0  0
 20 15  1  0  0  0  0
 21  3  1  0  0  0  0
 21 20  2  0  0  0  0
 23 12  1  6  0  0  0
 23 24  1  0  0  0  0
 23 27  1  0  0  0  0
 24 25  1  0  0  0  0
 25 22  2  0  0  0  0
 26 22  1  0  0  0  0
 27 26  1  0  0  0  0
M  END
>  <MODEL>
1

>  <REMARK>
 VINA RESULT:      -9.3      0.000      0.000
  Name = 
  1 active torsions:
  status: ('A' for Active; 'I' for Inactive)
    1  A    between atoms: C_9  and  C_15
                            x       y       z     vdW  Elec       q    Type
                         _______ _______ _______ _____ _____    ______ ____

>  <TORSDO>
F 1

$$$$
=
 OpenBabel10262420003D

 27 31  0  0  1  0  0  0  0  0999 V2000
  186.7650  179.2980  141.7670 N   0  0  0  0  0  0  0  0  0  0  0  0
  186.9150  177.5820  143.3840 C   0  0  1  0  0  3  0  0  0  0  0  0
  189.1430  177.1760  142.5550 N   0  0  0  0  0  2  0  0  0  0  0  0
  188.0120  177.4790  147.7140 C   0  0  0  0  0  3  0  0  0  0  0  0
  190.0620  178.8060  147.8730 F   0  0  0  0  0  0  0  0  0  0  0  0
  186.2770  177.2190  144.6530 C   0  0  0  0  0  3  0  0  0  0  0  0
  189.4410  177.9900  145.7630 C   0  0  0  0  0  0  0  0  0  0  0  0
  190.1590  176.5590  139.1740 N   0  0  0  0  0  0  0  0  0  0  0  0
  190.8780  178.7220  145.0600 Cl  0  0  0  0  0  0  0  0  0  0  0  0
  189.6130  177.5810  138.4730 C   0  0  0  0  0  3  0  0  0  0  0  0
  188.5930  177.0570  144.9290 C   0  0  2  0  0  3  0  0  0  0  0  0
  186.2220  178.2060  142.3510 C   0  0  0  0  0  0  0  0  0  0  0  0
  189.2130  178.0960  147.0890 C   0  0  0  0  0  0  0  0  0  0  0  0
  187.0450  176.9330  146.9670 C   0  0  0  0  0  3  0  0  0  0  0  0
  187.8140  179.3870  140.9920 O   0  0  0  0  0  0  0  0  0  0  0  0
  188.2910  177.5220  143.5420 C   0  0  2  0  0  3  0  0  0  0  0  0
  189.9450  176.4270  140.5070 C   0  0  0  0  0  3  0  0  0  0  0  0
  187.2310  176.9310  145.5170 C   0  0  0  0  0  0  0  0  0  0  0  0
  188.8090  178.5120  139.1230 C   0  0  0  0  0  3  0  0  0  0  0  0
  188.5230  178.3890  140.4890 C   0  0  0  0  0  0  0  0  0  0  0  0
  189.1140  177.3110  141.2080 C   0  0  0  0  0  0  0  0  0  0  0  0
  181.9650  178.8470  142.1450 C   0  0  0  0  0  3  0  0  0  0  0  0
  184.7200  178.1490  142.4050 C   0  0  2  0  0  3  0  0  0  0  0  0
  184.1240  178.3050  141.0040 C   0  0  0  0  0  2  0  0  0  0  0  0
  182.6260  178.4790  141.0370 C   0  0  0  0  0  3  0  0  0  0  0  0
  182.6480  179.0140  143.4790 C   0  0  0  0  0  2  0  0  0  0  0  0
  184.1530  179.2240  143.3310 C   0  0  0  0  0  2  0  0  0  0  0  0
  1 12  2  0  0  0  0
  2 16  1  0  0  0  0
  2  6  1  1  0  0  0
  6 18  2  0  0  0  0
  7 13  2  0  0  0  0
  8 17  1  0  0  0  0
  9  7  1  0  0  0  0
 10 19  1  0  0  0  0
 10  8  2  0  0  0  0
 11 18  1  1  0  0  0
 11  7  1  0  0  0  0
 12  2  1  0  0  0  0
 13  4  1  0  0  0  0
 13  5  1  0  0  0  0
 14  4  2  0  0  0  0
 15  1  1  0  0  0  0
 16  3  1  6  0  0  0
 16 11  1  0  0  0  0
 17 21  2  0  0  0  0
 18 14  1  0  0  0  0
 19 20  2  0  0  0  0
 20 15  1  0  0  0  0
 20 21  1  0  0  0  0
 21  3  1  0  0  0  0
 22 26  1  0  0  0  0
 23 12  1  6  0  0  0
 23 27  1  0  0  0  0
 24 25  1  0  0  0  0
 24 23  1  0  0  0  0
 25 22  2  0  0  0  0
 27 26  1  0  0  0  0
M  END
>  <MODEL>
2

>  <REMARK>
 VINA RESULT:      -8.8      2.913      5.521
  Name = 
  1 active torsions:
  status: ('A' for Active; 'I' for Inactive)
    1  A    between atoms: C_9  and  C_15
                            x       y       z     vdW  Elec       q    Type
                         _______ _______ _______ _____ _____    ______ ____

>  <TORSDO>
F 1

$$$$
=
 OpenBabel10262420003D

 27 31  0  0  1  0  0  0  0  0999 V2000
  187.2070  176.8290  143.3230 N   0  0  0  0  0  0  0  0  0  0  0  0
  187.3360  178.2620  141.4500 C   0  0  0  0  0  0  0  0  0  0  0  0
  189.7190  177.8950  141.4980 N   0  0  0  0  0  2  0  0  0  0  0  0
  186.8710  177.6740  137.0450 C   0  0  0  0  0  3  0  0  0  0  0  0
  188.2100  175.6900  136.5340 F   0  0  0  0  0  0  0  0  0  0  0  0
  186.4560  178.7450  140.3810 C   0  0  0  0  0  3  0  0  0  0  0  0
  188.6350  176.8140  138.5480 C   0  0  0  0  0  0  0  0  0  0  0  0
  191.9620  178.3290  144.2600 N   0  0  0  0  0  0  0  0  0  0  0  0
  189.9130  175.6630  138.9180 Cl  0  0  0  0  0  0  0  0  0  0  0  0
  191.3910  177.6220  145.2640 C   0  0  0  0  0  3  0  0  0  0  0  0
  188.4640  178.0440  139.4110 C   0  0  2  0  0  3  0  0  0  0  0  0
  186.8750  178.0000  142.7360 C   0  0  0  0  0  0  0  0  0  0  0  0
  187.9510  176.7090  137.3900 C   0  0  0  0  0  0  0  0  0  0  0  0
  186.4420  178.5790  137.9320 C   0  0  0  0  0  3  0  0  0  0  0  0
  188.3700  176.4200  143.7570 O   0  0  0  0  0  0  0  0  0  0  0  0
  188.5200  177.8130  140.8850 C   0  0  2  0  0  3  0  0  0  0  0  0
  191.3620  178.4400  143.0480 C   0  0  0  0  0  3  0  0  0  0  0  0
  187.0990  178.6120  139.2380 C   0  0  1  0  0  3  0  0  0  0  0  0
  190.1630  177.0010  145.0590 C   0  0  0  0  0  3  0  0  0  0  0  0
  189.4860  177.1270  143.8400 C   0  0  0  0  0  0  0  0  0  0  0  0
  190.1070  177.8690  142.7950 C   0  0  0  0  0  0  0  0  0  0  0  0
  182.8960  178.8820  144.1390 C   0  0  0  0  0  3  0  0  0  0  0  0
  185.5450  178.5910  143.1170 C   0  0  2  0  0  3  0  0  0  0  0  0
  185.3150  178.4730  144.6260 C   0  0  0  0  0  2  0  0  0  0  0  0
  183.9070  178.8440  145.0200 C   0  0  0  0  0  3  0  0  0  0  0  0
  183.0990  178.6610  142.6610 C   0  0  0  0  0  2  0  0  0  0  0  0
  184.3980  177.9170  142.3650 C   0  0  0  0  0  2  0  0  0  0  0  0
  1 15  1  0  0  0  0
  2 12  1  0  0  0  0
  3 21  1  0  0  0  0
  4 13  1  0  0  0  0
  4 14  2  0  0  0  0
  5 13  1  0  0  0  0
  6  2  2  0  0  0  0
  7  9  1  0  0  0  0
  8 10  1  0  0  0  0
 11  7  1  6  0  0  0
 11 16  1  0  0  0  0
 12  1  2  0  0  0  0
 13  7  2  0  0  0  0
 15 20  1  0  0  0  0
 16  2  1  1  0  0  0
 16  3  1  0  0  0  0
 17  8  2  0  0  0  0
 18 14  1  6  0  0  0
 18 11  1  0  0  0  0
 18  6  1  0  0  0  0
 19 10  2  0  0  0  0
 20 19  1  0  0  0  0
 21 17  1  0  0  0  0
 21 20  2  0  0  0  0
 22 25  2  0  0  0  0
 23 12  1  1  0  0  0
 23 24  1  0  0  0  0
 24 25  1  0  0  0  0
 26 22  1  0  0  0  0
 27 26  1  0  0  0  0
 27 23  1  0  0  0  0
M  END
>  <MODEL>
3

>  <REMARK>
 VINA RESULT:      -8.5      2.892      5.149
  Name = 
  1 active torsions:
  status: ('A' for Active; 'I' for Inactive)
    1  A    between atoms: C_9  and  C_15
                            x       y       z     vdW  Elec       q    Type
                         _______ _______ _______ _____ _____    ______ ____

>  <TORSDO>
F 1

$$$$
=
 OpenBabel10262420003D

 27 31  0  0  1  0  0  0  0  0999 V2000
  186.8040  179.1700  141.1250 N   0  0  0  0  0  0  0  0  0  0  0  0
  187.4300  177.4420  142.6100 C   0  0  1  0  0  3  0  0  0  0  0  0
  189.1230  176.8490  140.9980 N   0  0  0  0  0  2  0  0  0  0  0  0
  190.1030  177.2280  146.1830 C   0  0  0  0  0  3  0  0  0  0  0  0
  192.1540  178.3750  145.5000 F   0  0  0  0  0  0  0  0  0  0  0  0
  187.3040  177.1300  144.0370 C   0  0  0  0  0  3  0  0  0  0  0  0
  190.7020  177.6230  143.8180 C   0  0  0  0  0  0  0  0  0  0  0  0
  188.7010  176.1610  137.5070 N   0  0  0  0  0  0  0  0  0  0  0  0
  191.8090  178.2320  142.5940 Cl  0  0  0  0  0  0  0  0  0  0  0  0
  188.0100  177.2280  137.0410 C   0  0  0  0  0  3  0  0  0  0  0  0
  189.5260  176.7690  143.4040 C   0  0  2  0  0  3  0  0  0  0  0  0
  186.4440  178.1270  141.9050 C   0  0  0  0  0  0  0  0  0  0  0  0
  191.0140  177.7430  145.1250 C   0  0  0  0  0  0  0  0  0  0  0  0
  188.8820  176.7710  145.8830 C   0  0  0  0  0  3  0  0  0  0  0  0
  187.4760  179.1720  140.0030 O   0  0  0  0  0  0  0  0  0  0  0  0
  188.7500  177.2630  142.2270 C   0  0  2  0  0  3  0  0  0  0  0  0
  189.0080  176.0420  138.8220 C   0  0  0  0  0  3  0  0  0  0  0  0
  188.4920  176.7580  144.4740 C   0  0  0  0  0  0  0  0  0  0  0  0
  187.5980  178.2220  137.9220 C   0  0  0  0  0  3  0  0  0  0  0  0
  187.8530  178.1190  139.2950 C   0  0  0  0  0  0  0  0  0  0  0  0
  188.5870  176.9920  139.7630 C   0  0  0  0  0  0  0  0  0  0  0  0
  182.4520  179.0680  143.2320 C   0  0  0  0  0  3  0  0  0  0  0  0
  185.0800  178.1980  142.5360 C   0  0  2  0  0  3  0  0  0  0  0  0
  183.9890  178.1940  141.4620 C   0  0  0  0  0  2  0  0  0  0  0  0
  182.6250  178.4900  142.0340 C   0  0  0  0  0  3  0  0  0  0  0  0
  183.6030  179.3740  144.1580 C   0  0  0  0  0  2  0  0  0  0  0  0
  184.9360  179.4390  143.4160 C   0  0  0  0  0  2  0  0  0  0  0  0
  1 12  2  0  0  0  0
  2  6  1  1  0  0  0
  6 18  2  0  0  0  0
  7 13  2  0  0  0  0
  8 17  1  0  0  0  0
  9  7  1  0  0  0  0
 10  8  2  0  0  0  0
 10 19  1  0  0  0  0
 11  7  1  1  0  0  0
 11 18  1  0  0  0  0
 12  2  1  0  0  0  0
 13  5  1  0  0  0  0
 13  4  1  0  0  0  0
 14  4  2  0  0  0  0
 15  1  1  0  0  0  0
 16  3  1  6  0  0  0
 16  2  1  0  0  0  0
 16 11  1  0  0  0  0
 17 21  2  0  0  0  0
 18 14  1  0  0  0  0
 19 20  2  0  0  0  0
 20 21  1  0  0  0  0
 20 15  1  0  0  0  0
 21  3  1  0  0  0  0
 22 26  1  0  0  0  0
 23 12  1  6  0  0  0
 23 27  1  0  0  0  0
 24 25  1  0  0  0  0
 24 23  1  0  0  0  0
 25 22  2  0  0  0  0
 27 26  1  0  0  0  0
M  END
>  <MODEL>
4

>  <REMARK>
 VINA RESULT:      -8.3      3.233      5.734
  Name = 
  1 active torsions:
  status: ('A' for Active; 'I' for Inactive)
    1  A    between atoms: C_9  and  C_15
                            x       y       z     vdW  Elec       q    Type
                         _______ _______ _______ _____ _____    ______ ____

>  <TORSDO>
F 1

$$$$
=
 OpenBabel10262420003D

 27 31  0  0  1  0  0  0  0  0999 V2000
  184.5560  176.9320  137.9540 N   0  0  0  0  0  0  0  0  0  0  0  0
  186.1210  178.2610  139.1240 C   0  0  1  0  0  3  0  0  0  0  0  0
  184.2380  179.5360  139.9290 N   0  0  0  0  0  2  0  0  0  0  0  0
  188.1590  177.9050  143.0840 C   0  0  0  0  0  3  0  0  0  0  0  0
  186.3750  177.3320  144.6570 F   0  0  0  0  0  0  0  0  0  0  0  0
  187.4930  178.1450  139.6270 C   0  0  0  0  0  3  0  0  0  0  0  0
  185.7640  178.2770  142.5990 C   0  0  0  0  0  0  0  0  0  0  0  0
  181.6380  181.0820  138.0070 N   0  0  0  0  0  0  0  0  0  0  0  0
  184.0720  178.2130  143.0740 Cl  0  0  0  0  0  0  0  0  0  0  0  0
  181.1830  180.0880  137.2070 C   0  0  0  0  0  3  0  0  0  0  0  0
  186.1600  179.0140  141.3390 C   0  0  2  0  0  3  0  0  0  0  0  0
  185.7020  177.6480  137.9460 C   0  0  0  0  0  0  0  0  0  0  0  0
  186.7190  177.8530  143.4530 C   0  0  0  0  0  0  0  0  0  0  0  0
  188.5450  178.2280  141.8430 C   0  0  0  0  0  3  0  0  0  0  0  0
  183.3210  177.3460  138.0690 O   0  0  0  0  0  0  0  0  0  0  0  0
  185.3110  178.7460  140.1400 C   0  0  2  0  0  3  0  0  0  0  0  0
  182.6770  180.8810  138.8550 C   0  0  0  0  0  3  0  0  0  0  0  0
  187.5010  178.5650  140.8760 C   0  0  0  0  0  0  0  0  0  0  0  0
  181.7900  178.8370  137.2460 C   0  0  0  0  0  3  0  0  0  0  0  0
  182.8950  178.5980  138.0730 C   0  0  0  0  0  0  0  0  0  0  0  0
  183.3540  179.6550  138.9100 C   0  0  0  0  0  0  0  0  0  0  0  0
  188.0970  176.0790  134.7240 C   0  0  0  0  0  3  0  0  0  0  0  0
  186.7750  177.1910  136.9970 C   0  0  2  0  0  3  0  0  0  0  0  0
  186.6260  177.8830  135.6400 C   0  0  0  0  0  2  0  0  0  0  0  0
  187.5370  177.2910  134.5940 C   0  0  0  0  0  3  0  0  0  0  0  0
  187.9520  175.2490  135.9760 C   0  0  0  0  0  2  0  0  0  0  0  0
  186.7460  175.6740  136.8100 C   0  0  0  0  0  2  0  0  0  0  0  0
  1 15  1  0  0  0  0
  2  6  1  1  0  0  0
  2 16  1  0  0  0  0
  4 13  1  0  0  0  0
  6 18  2  0  0  0  0
  7  9  1  0  0  0  0
  7 13  2  0  0  0  0
  8 17  1  0  0  0  0
 10 19  1  0  0  0  0
 10  8  2  0  0  0  0
 11 18  1  6  0  0  0
 11  7  1  0  0  0  0
 12  1  2  0  0  0  0
 12  2  1  0  0  0  0
 13  5  1  0  0  0  0
 14  4  2  0  0  0  0
 15 20  1  0  0  0  0
 16  3  1  6  0  0  0
 16 11  1  0  0  0  0
 17 21  2  0  0  0  0
 18 14  1  0  0  0  0
 19 20  2  0  0  0  0
 20 21  1  0  0  0  0
 21  3  1  0  0  0  0
 22 26  1  0  0  0  0
 23 12  1  1  0  0  0
 24 23  1  0  0  0  0
 25 22  2  0  0  0  0
 25 24  1  0  0  0  0
 26 27  1  0  0  0  0
 27 23  1  0  0  0  0
M  END
>  <MODEL>
5

>  <REMARK>
 VINA RESULT:      -7.5      4.028      7.550
  Name = 
  1 active torsions:
  status: ('A' for Active; 'I' for Inactive)
    1  A    between atoms: C_9  and  C_15
                            x       y       z     vdW  Elec       q    Type
                         _______ _______ _______ _____ _____    ______ ____

>  <TORSDO>
F 1

$$$$
=
 OpenBabel10262420003D

 27 31  0  0  1  0  0  0  0  0999 V2000
  187.3080  176.5560  143.1970 N   0  0  0  0  0  0  0  0  0  0  0  0
  186.7390  178.3040  141.7130 C   0  0  1  0  0  3  0  0  0  0  0  0
  188.7570  177.7610  140.5090 N   0  0  0  0  0  2  0  0  0  0  0  0
  184.1170  178.5910  138.1070 C   0  0  0  0  0  3  0  0  0  0  0  0
  184.7110  176.6480  136.7440 F   0  0  0  0  0  0  0  0  0  0  0  0
  185.5410  179.0420  141.3040 C   0  0  0  0  0  3  0  0  0  0  0  0
  186.2280  177.3380  138.3950 C   0  0  0  0  0  0  0  0  0  0  0  0
  192.0910  177.5030  141.7970 N   0  0  0  0  0  0  0  0  0  0  0  0
  187.3270  176.0480  137.9220 Cl  0  0  0  0  0  0  0  0  0  0  0  0
  191.9740  176.6630  142.8520 C   0  0  0  0  0  3  0  0  0  0  0  0
  186.6910  178.3920  139.3750 C   0  0  2  0  0  3  0  0  0  0  0  0
  186.9230  177.8380  143.0120 C   0  0  0  0  0  0  0  0  0  0  0  0
  185.0620  177.5030  137.7360 C   0  0  0  0  0  0  0  0  0  0  0  0
  184.3180  179.3420  139.1960 C   0  0  0  0  0  3  0  0  0  0  0  0
  188.4560  175.9890  142.9310 O   0  0  0  0  0  0  0  0  0  0  0  0
  187.4150  177.8830  140.5780 C   0  0  2  0  0  3  0  0  0  0  0  0
  191.0070  177.8830  141.0770 C   0  0  0  0  0  3  0  0  0  0  0  0
  185.5210  179.0800  139.9860 C   0  0  0  0  0  0  0  0  0  0  0  0
  190.7200  176.1820  143.2160 C   0  0  0  0  0  3  0  0  0  0  0  0
  189.5680  176.5850  142.5300 C   0  0  0  0  0  0  0  0  0  0  0  0
  189.7140  177.4640  141.4190 C   0  0  0  0  0  0  0  0  0  0  0  0
  184.1830  178.7300  146.2180 C   0  0  0  0  0  3  0  0  0  0  0  0
  186.0540  178.4410  144.0810 C   0  0  2  0  0  3  0  0  0  0  0  0
  186.3940  177.8470  145.4500 C   0  0  0  0  0  2  0  0  0  0  0  0
  185.4020  178.2530  146.5110 C   0  0  0  0  0  3  0  0  0  0  0  0
  183.7390  179.0030  144.8020 C   0  0  0  0  0  2  0  0  0  0  0  0
  184.5710  178.2320  143.7800 C   0  0  0  0  0  2  0  0  0  0  0  0
  2  6  1  6  0  0  0
  2 12  1  0  0  0  0
  3 21  1  0  0  0  0
  4 14  2  0  0  0  0
  5 13  1  0  0  0  0
  8 10  1  0  0  0  0
  9  7  1  0  0  0  0
 10 19  2  0  0  0  0
 11  7  1  6  0  0  0
 11 18  1  0  0  0  0
 11 16  1  0  0  0  0
 12  1  2  0  0  0  0
 13  4  1  0  0  0  0
 13  7  2  0  0  0  0
 14 18  1  0  0  0  0
 15  1  1  0  0  0  0
 16  3  1  1  0  0  0
 16  2  1  0  0  0  0
 17 21  1  0  0  0  0
 17  8  2  0  0  0  0
 18  6  2  0  0  0  0
 20 15  1  0  0  0  0
 20 19  1  0  0  0  0
 21 20  2  0  0  0  0
 22 25  2  0  0  0  0
 23 12  1  6  0  0  0
 23 24  1  0  0  0  0
 24 25  1  0  0  0  0
 26 22  1  0  0  0  0
 27 23  1  0  0  0  0
 27 26  1  0  0  0  0
M  END
>  <MODEL>
6

>  <REMARK>
 VINA RESULT:      -7.4      2.481      3.577
  Name = 
  1 active torsions:
  status: ('A' for Active; 'I' for Inactive)
    1  A    between atoms: C_9  and  C_15
                            x       y       z     vdW  Elec       q    Type
                         _______ _______ _______ _____ _____    ______ ____

>  <TORSDO>
F 1

$$$$
=
 OpenBabel10262420003D

 27 31  0  0  1  0  0  0  0  0999 V2000
  186.1160  176.8690  144.4490 N   0  0  0  0  0  0  0  0  0  0  0  0
  187.3360  178.2950  143.0130 C   0  0  1  0  0  3  0  0  0  0  0  0
  189.2320  177.9030  144.4500 N   0  0  0  0  0  2  0  0  0  0  0  0
  189.5400  177.6950  139.1730 C   0  0  0  0  0  3  0  0  0  0  0  0
  190.9030  175.6960  139.5390 F   0  0  0  0  0  0  0  0  0  0  0  0
  187.2560  178.7830  141.6330 C   0  0  0  0  0  3  0  0  0  0  0  0
  190.0750  176.8230  141.4230 C   0  0  0  0  0  0  0  0  0  0  0  0
  189.4300  178.3230  148.0040 N   0  0  0  0  0  0  0  0  0  0  0  0
  190.8810  175.6600  142.4690 Cl  0  0  0  0  0  0  0  0  0  0  0  0
  188.3710  177.6260  148.4790 C   0  0  0  0  0  3  0  0  0  0  0  0
  189.4440  178.0580  142.0240 C   0  0  2  0  0  3  0  0  0  0  0  0
  186.2040  178.0420  143.7830 C   0  0  0  0  0  0  0  0  0  0  0  0
  190.2000  176.7200  140.0830 C   0  0  0  0  0  0  0  0  0  0  0  0
  188.6810  178.6090  139.6410 C   0  0  0  0  0  3  0  0  0  0  0  0
  186.7980  176.4500  145.4820 O   0  0  0  0  0  0  0  0  0  0  0  0
  188.6200  177.8310  143.2500 C   0  0  2  0  0  3  0  0  0  0  0  0
  189.6570  178.4360  146.6720 C   0  0  0  0  0  3  0  0  0  0  0  0
  188.4460  178.6390  141.0840 C   0  0  0  0  0  0  0  0  0  0  0  0
  187.4910  177.0170  147.5900 C   0  0  0  0  0  3  0  0  0  0  0  0
  187.6600  177.1460  146.2060 C   0  0  0  0  0  0  0  0  0  0  0  0
  188.7840  177.8780  145.7280 C   0  0  0  0  0  0  0  0  0  0  0  0
  182.1490  179.0030  142.6810 C   0  0  0  0  0  3  0  0  0  0  0  0
  184.9100  178.6480  143.3120 C   0  0  2  0  0  3  0  0  0  0  0  0
  183.8880  178.6880  144.4510 C   0  0  0  0  0  2  0  0  0  0  0  0
  182.5120  179.0760  143.9700 C   0  0  0  0  0  3  0  0  0  0  0  0
  183.1170  178.6280  141.5860 C   0  0  0  0  0  2  0  0  0  0  0  0
  184.3320  177.8780  142.1250 C   0  0  0  0  0  2  0  0  0  0  0  0
  1 15  1  0  0  0  0
  2  6  1  6  0  0  0
  2 16  1  0  0  0  0
  2 12  1  0  0  0  0
  3 21  1  0  0  0  0
  4 14  2  0  0  0  0
  4 13  1  0  0  0  0
  5 13  1  0  0  0  0
  7 11  1  0  0  0  0
  7  9  1  0  0  0  0
  8 10  1  0  0  0  0
 11 18  1  6  0  0  0
 11 16  1  0  0  0  0
 12  1  2  0  0  0  0
 13  7  2  0  0  0  0
 14 18  1  0  0  0  0
 15 20  1  0  0  0  0
 16  3  1  1  0  0  0
 17  8  2  0  0  0  0
 18  6  2  0  0  0  0
 19 10  2  0  0  0  0
 20 19  1  0  0  0  0
 21 20  2  0  0  0  0
 21 17  1  0  0  0  0
 22 25  2  0  0  0  0
 23 12  1  1  0  0  0
 23 24  1  0  0  0  0
 25 24  1  0  0  0  0
 26 27  1  0  0  0  0
 26 22  1  0  0  0  0
 27 23  1  0  0  0  0
M  END
>  <MODEL>
7

>  <REMARK>
 VINA RESULT:      -7.4      2.936      6.272
  Name = 
  1 active torsions:
  status: ('A' for Active; 'I' for Inactive)
    1  A    between atoms: C_9  and  C_15
                            x       y       z     vdW  Elec       q    Type
                         _______ _______ _______ _____ _____    ______ ____

>  <TORSDO>
F 1

$$$$
=
 OpenBabel10262420003D

 27 31  0  0  1  0  0  0  0  0999 V2000
  189.8590  178.6870  143.0520 N   0  0  0  0  0  0  0  0  0  0  0  0
  187.7780  177.5720  142.9600 C   0  0  0  0  0  0  0  0  0  0  0  0
  187.9050  177.4130  145.3630 N   0  0  0  0  0  2  0  0  0  0  0  0
  183.5250  178.9330  142.8150 C   0  0  0  0  0  3  0  0  0  0  0  0
  183.3550  180.6430  144.5580 F   0  0  0  0  0  0  0  0  0  0  0  0
  186.6380  177.4610  142.0450 C   0  0  0  0  0  3  0  0  0  0  0  0
  185.1630  179.1510  144.6540 C   0  0  0  0  0  0  0  0  0  0  0  0
  190.5770  176.0830  147.3470 N   0  0  0  0  0  0  0  0  0  0  0  0
  185.7250  179.9310  146.1260 Cl  0  0  0  0  0  0  0  0  0  0  0  0
  191.6780  176.7280  146.8930 C   0  0  0  0  0  3  0  0  0  0  0  0
  185.8120  177.8650  144.1940 C   0  0  2  0  0  3  0  0  0  0  0  0
  189.0870  177.7200  142.5080 C   0  0  0  0  0  0  0  0  0  0  0  0
  184.0320  179.5800  144.0560 C   0  0  0  0  0  0  0  0  0  0  0  0
  184.2490  178.0110  142.1690 C   0  0  0  0  0  3  0  0  0  0  0  0
  190.3640  178.7650  144.2550 O   0  0  0  0  0  0  0  0  0  0  0  0
  187.3050  177.8440  144.2340 C   0  0  2  0  0  3  0  0  0  0  0  0
  189.3590  176.2940  146.7890 C   0  0  0  0  0  3  0  0  0  0  0  0
  185.5370  177.6340  142.7490 C   0  0  1  0  0  3  0  0  0  0  0  0
  191.5680  177.6200  145.8310 C   0  0  0  0  0  3  0  0  0  0  0  0
  190.3390  177.8340  145.1950 C   0  0  0  0  0  0  0  0  0  0  0  0
  189.1920  177.1510  145.6920 C   0  0  0  0  0  0  0  0  0  0  0  0
  190.4350  177.3920  138.4280 C   0  0  0  0  0  3  0  0  0  0  0  0
  189.3550  177.3720  141.0700 C   0  0  2  0  0  3  0  0  0  0  0  0
  190.8290  177.0130  140.8680 C   0  0  0  0  0  2  0  0  0  0  0  0
  191.1900  176.8780  139.4100 C   0  0  0  0  0  3  0  0  0  0  0  0
  189.1050  178.0540  138.6890 C   0  0  0  0  0  2  0  0  0  0  0  0
  188.9710  178.5200  140.1370 C   0  0  0  0  0  2  0  0  0  0  0  0
  1 15  1  0  0  0  0
  3 21  1  0  0  0  0
  4 13  1  0  0  0  0
  6  2  2  0  0  0  0
  7  9  1  0  0  0  0
 10  8  1  0  0  0  0
 11 16  1  0  0  0  0
 11  7  1  6  0  0  0
 12  2  1  0  0  0  0
 12  1  2  0  0  0  0
 13  5  1  0  0  0  0
 13  7  2  0  0  0  0
 14 18  1  0  0  0  0
 14  4  2  0  0  0  0
 15 20  1  0  0  0  0
 16  2  1  6  0  0  0
 16  3  1  0  0  0  0
 17  8  2  0  0  0  0
 18  6  1  6  0  0  0
 18 11  1  0  0  0  0
 19 10  2  0  0  0  0
 20 21  2  0  0  0  0
 20 19  1  0  0  0  0
 21 17  1  0  0  0  0
 22 26  1  0  0  0  0
 22 25  2  0  0  0  0
 23 12  1  1  0  0  0
 24 23  1  0  0  0  0
 25 24  1  0  0  0  0
 26 27  1  0  0  0  0
 27 23  1  0  0  0  0
M  END
>  <MODEL>
8

>  <REMARK>
 VINA RESULT:      -7.2      2.327      5.333
  Name = 
  1 active torsions:
  status: ('A' for Active; 'I' for Inactive)
    1  A    between atoms: C_9  and  C_15
                            x       y       z     vdW  Elec       q    Type
                         _______ _______ _______ _____ _____    ______ ____

>  <TORSDO>
F 1

$$$$
=
 OpenBabel10262420003D

 27 31  0  0  1  0  0  0  0  0999 V2000
  188.6810  176.5460  141.3620 N   0  0  0  0  0  0  0  0  0  0  0  0
  187.3370  178.4380  141.8020 C   0  0  0  0  0  0  0  0  0  0  0  0
  186.9570  178.5590  139.4230 N   0  0  0  0  0  2  0  0  0  0  0  0
  183.0650  179.0140  142.9770 C   0  0  0  0  0  3  0  0  0  0  0  0
  181.7990  177.5610  141.4680 F   0  0  0  0  0  0  0  0  0  0  0  0
  186.5930  179.0120  142.9280 C   0  0  0  0  0  3  0  0  0  0  0  0
  183.9870  178.1440  140.8550 C   0  0  0  0  0  0  0  0  0  0  0  0
  189.4000  178.6510  136.8030 N   0  0  0  0  0  0  0  0  0  0  0  0
  183.8150  177.2170  139.3700 Cl  0  0  0  0  0  0  0  0  0  0  0  0
  190.2040  177.5940  137.0630 C   0  0  0  0  0  3  0  0  0  0  0  0
  185.2000  179.0260  141.0500 C   0  0  2  0  0  3  0  0  0  0  0  0
  188.5300  177.7420  141.9720 C   0  0  0  0  0  0  0  0  0  0  0  0
  182.9530  178.2280  141.7180 C   0  0  0  0  0  0  0  0  0  0  0  0
  184.2350  179.5320  143.3690 C   0  0  0  0  0  3  0  0  0  0  0  0
  188.8120  176.2750  140.0890 O   0  0  0  0  0  0  0  0  0  0  0  0
  186.5120  178.4110  140.6880 C   0  0  2  0  0  3  0  0  0  0  0  0
  188.3700  178.9710  137.6250 C   0  0  0  0  0  3  0  0  0  0  0  0
  185.3890  179.3330  142.4940 C   0  0  1  0  0  3  0  0  0  0  0  0
  189.9820  176.8200  138.1980 C   0  0  0  0  0  3  0  0  0  0  0  0
  188.9600  177.1410  139.1000 C   0  0  0  0  0  0  0  0  0  0  0  0
  188.1210  178.2530  138.8030 C   0  0  0  0  0  0  0  0  0  0  0  0
  190.9740  177.5020  145.5150 C   0  0  0  0  0  3  0  0  0  0  0  0
  189.2440  177.9240  143.2830 C   0  0  2  0  0  3  0  0  0  0  0  0
  190.7590  177.9790  143.0680 C   0  0  0  0  0  2  0  0  0  0  0  0
  191.5220  177.9330  144.3690 C   0  0  0  0  0  3  0  0  0  0  0  0
  189.5170  177.1280  145.6250 C   0  0  0  0  0  2  0  0  0  0  0  0
  188.9010  176.8060  144.2660 C   0  0  0  0  0  2  0  0  0  0  0  0
  1 12  2  0  0  0  0
  2 12  1  0  0  0  0
  2  6  2  0  0  0  0
  4 14  2  0  0  0  0
  5 13  1  0  0  0  0
  7 13  2  0  0  0  0
  8 10  2  0  0  0  0
  8 17  1  0  0  0  0
  9  7  1  0  0  0  0
 10 19  1  0  0  0  0
 11  7  1  1  0  0  0
 11 18  1  0  0  0  0
 13  4  1  0  0  0  0
 15  1  1  0  0  0  0
 16  3  1  6  0  0  0
 16 11  1  0  0  0  0
 16  2  1  0  0  0  0
 17 21  2  0  0  0  0
 18  6  1  1  0  0  0
 18 14  1  0  0  0  0
 19 20  2  0  0  0  0
 20 15  1  0  0  0  0
 21 20  1  0  0  0  0
 21  3  1  0  0  0  0
 22 26  1  0  0  0  0
 23 12  1  6  0  0  0
 23 27  1  0  0  0  0
 24 23  1  0  0  0  0
 24 25  1  0  0  0  0
 25 22  2  0  0  0  0
 27 26  1  0  0  0  0
M  END
>  <MODEL>
9

>  <REMARK>
 VINA RESULT:      -7.1      1.734      2.305
  Name = 
  1 active torsions:
  status: ('A' for Active; 'I' for Inactive)
    1  A    between atoms: C_9  and  C_15
                            x       y       z     vdW  Elec       q    Type
                         _______ _______ _______ _____ _____    ______ ____

>  <TORSDO>
F 1

$$$$
