=
 OpenBabel10262420423D

 55 57  0  0  1  0  0  0  0  0999 V2000
  184.3160  179.7080  139.1270 O   0  0  0  0  0  0  0  0  0  0  0  0
  183.0860  178.6810  140.8350 N   0  0  0  0  0  0  0  0  0  0  0  0
  183.2040  179.2590  139.5160 C   0  0  0  0  0  0  0  0  0  0  0  0
  184.3010  178.2980  141.5780 C   0  0  2  0  0  3  0  0  0  0  0  0
  184.0950  178.4190  143.0880 C   0  0  0  0  0  1  0  0  0  0  0  0
  186.0900  178.4140  139.8220 C   0  0  0  0  0  1  0  0  0  0  0  0
  185.5700  179.0330  141.1080 C   0  0  2  0  0  3  0  0  0  0  0  0
  186.6660  179.0420  142.1730 C   0  0  0  0  0  2  0  0  0  0  0  0
  187.6930  177.9440  141.9280 C   0  0  0  0  0  2  0  0  0  0  0  0
  189.0930  178.5270  141.7910 C   0  0  0  0  0  2  0  0  0  0  0  0
  190.1320  177.4250  141.6170 C   0  0  1  0  0  3  0  0  0  0  0  0
  189.8530  176.4090  139.3340 C   0  0  0  0  0  3  0  0  0  0  0  0
  191.7360  176.2890  137.7690 C   0  0  0  0  0  0  0  0  0  0  0  0
  192.1550  177.0880  140.0780 C   0  0  0  0  0  2  0  0  0  0  0  0
  192.5650  176.8720  138.6480 C   0  0  0  0  0  3  0  0  0  0  0  0
  190.3600  175.9360  138.1910 C   0  0  0  0  0  3  0  0  0  0  0  0
  190.6480  177.3750  140.1720 C   0  0  2  0  0  3  0  0  0  0  0  0
  192.1870  176.0190  136.3900 C   0  0  0  0  0  0  0  0  0  0  0  0
  193.4120  176.0550  136.1040 O   0  0  0  0  0  0  0  0  0  0  0  0
  191.0110  175.6350  135.0940 S   0  0  0  0  0  1  0  0  0  0  0  0
  191.2450  177.6100  142.6390 C   0  0  0  0  0  2  0  0  0  0  0  0
  190.8350  178.6340  143.6820 C   0  0  0  0  0  2  0  0  0  0  0  0
  189.1150  177.8220  145.3050 C   0  0  0  0  0  3  0  0  0  0  0  0
  191.1050  176.8150  146.9930 C   0  0  0  0  0  0  0  0  0  0  0  0
  191.4580  177.4500  145.7970 C   0  0  0  0  0  3  0  0  0  0  0  0
  188.7630  177.1900  146.5010 C   0  0  0  0  0  3  0  0  0  0  0  0
  190.4630  177.9490  144.9490 C   0  0  0  0  0  0  0  0  0  0  0  0
  192.0680  176.3370  147.8160 F   0  0  0  0  0  0  0  0  0  0  0  0
  189.7570  176.6860  147.3450 C   0  0  0  0  0  3  0  0  0  0  0  0
  181.7740  178.6180  141.4790 C   0  0  0  0  0  2  0  0  0  0  0  0
  181.2510  179.1380  143.5610 C   0  0  0  0  0  1  0  0  0  0  0  0
  181.6220  179.7050  142.3420 O   0  0  0  0  0  0  0  0  0  0  0  0
  182.0370  179.3570  138.5690 C   0  0  2  0  0  3  0  0  0  0  0  0
  179.2550  181.9570  137.7870 C   0  0  0  0  0  1  0  0  0  0  0  0
  181.7750  181.8020  138.1330 C   0  0  0  0  0  2  0  0  0  0  0  0
  180.5230  181.1470  137.6090 C   0  0  1  0  0  0  0  0  0  0  0  0
  181.1900  180.5920  138.8570 C   0  0  1  0  0  3  0  0  0  0  0  0
  180.7110  180.4640  136.4050 O   0  0  0  0  0  1  0  0  0  0  0  0
  181.1660  178.0960  138.5670 C   0  0  0  0  0  2  0  0  0  0  0  0
  181.7850  176.9050  137.8230 C   0  0  2  0  0  0  0  0  0  0  0  0
  179.3570  177.1480  136.9040 C   0  0  0  0  0  1  0  0  0  0  0  0
  180.7200  176.4710  136.7710 C   0  0  2  0  0  3  0  0  0  0  0  0
  180.5910  174.9440  136.6380 C   0  0  1  0  0  3  0  0  0  0  0  0
  179.3550  174.5800  136.0930 O   0  0  0  0  0  1  0  0  0  0  0  0
  182.3050  173.3360  136.2360 O   0  0  0  0  0  1  0  0  0  0  0  0
  181.7050  174.3640  135.8280 C   0  0  0  0  0  0  0  0  0  0  0  0
  182.0880  174.9550  134.6290 O   0  0  0  0  0  0  0  0  0  0  0  0
  182.0200  175.8240  138.9010 C   0  0  0  0  0  2  0  0  0  0  0  0
  181.1230  175.9090  139.9670 O   0  0  0  0  0  0  0  0  0  0  0  0
  180.4130  174.7120  139.9230 C   0  0  0  0  0  2  0  0  0  0  0  0
  178.9310  174.9970  140.0370 C   0  0  0  0  0  1  0  0  0  0  0  0
  182.9970  177.3560  137.2310 O   0  0  0  0  0  0  0  0  0  0  0  0
  184.0190  176.5770  137.6720 N   0  0  0  0  0  2  0  0  0  0  0  0
  185.0380  176.5870  136.6350 C   0  0  0  0  0  2  0  0  0  0  0  0
  184.5300  177.3290  135.4150 C   0  0  0  0  0  1  0  0  0  0  0  0
  1  3  2  0  0  0  0
  2 30  1  0  0  0  0
  2  4  1  0  0  0  0
  3  2  1  0  0  0  0
  4  5  1  1  0  0  0
  7  6  1  6  0  0  0
  7  4  1  0  0  0  0
  7  8  1  0  0  0  0
  9  8  1  0  0  0  0
 10  9  1  0  0  0  0
 11 10  1  6  0  0  0
 11 21  1  0  0  0  0
 12 17  1  0  0  0  0
 13 16  1  0  0  0  0
 13 15  2  0  0  0  0
 14 17  1  0  0  0  0
 15 14  1  0  0  0  0
 16 12  2  0  0  0  0
 17 11  1  1  0  0  0
 18 13  1  0  0  0  0
 19 18  2  0  0  0  0
 20 18  1  0  0  0  0
 21 22  1  0  0  0  0
 22 27  1  0  0  0  0
 23 26  1  0  0  0  0
 24 29  1  0  0  0  0
 24 28  1  0  0  0  0
 25 24  2  0  0  0  0
 26 29  2  0  0  0  0
 27 23  2  0  0  0  0
 27 25  1  0  0  0  0
 30 32  1  0  0  0  0
 32 31  1  0  0  0  0
 33 39  1  1  0  0  0
 33  3  1  0  0  0  0
 35 37  1  0  0  0  0
 36 34  1  1  0  0  0
 36 35  1  0  0  0  0
 36 37  1  0  0  0  0
 37 33  1  6  0  0  0
 38 36  1  0  0  0  0
 40 39  1  1  0  0  0
 40 48  1  0  0  0  0
 42 41  1  1  0  0  0
 42 40  1  0  0  0  0
 43 44  1  6  0  0  0
 43 42  1  0  0  0  0
 46 45  1  0  0  0  0
 46 43  1  0  0  0  0
 47 46  2  0  0  0  0
 48 49  1  0  0  0  0
 50 49  1  0  0  0  0
 50 51  1  0  0  0  0
 52 53  1  0  0  0  0
 52 40  1  0  0  0  0
 54 53  1  0  0  0  0
 55 54  1  0  0  0  0
M  END
>  <MODEL>
1

>  <REMARK>
 VINA RESULT:      -5.8      0.000      0.000
  Name = 
  26 active torsions:
  status: ('A' for Active; 'I' for Inactive)
    1  A    between atoms: C_1  and  N_30
    2  A    between atoms: C_2  and  C_28
    3  A    between atoms: C_2  and  C_44
    4  A    between atoms: C_6  and  C_8
    5  A    between atoms: C_6  and  O_20
    6  A    between atoms: C_6  and  C_38
    7  A    between atoms: C_6  and  C_46
    8  A    between atoms: C_7  and  C_8
    9  A    between atoms: C_7  and  C_23
   10  A    between atoms: C_7  and  C_43
   11  A    between atoms: C_10  and  C_32
   12  A    between atoms: C_11  and  C_29
   13  A    between atoms: C_11  and  C_38
   14  A    between atoms: C_12  and  O_14
   15  A    between atoms: O_14  and  C_46
   16  A    between atoms: C_16  and  N_17
   17  A    between atoms: C_16  and  C_26
   18  A    between atoms: N_17  and  C_37
   19  A    between atoms: C_19  and  C_45
   20  A    between atoms: C_19  and  C_49
   21  A    between atoms: O_20  and  N_30
   22  A    between atoms: C_26  and  C_45
   23  A    between atoms: C_28  and  C_33
   24  A    between atoms: C_33  and  C_49
   25  A    between atoms: C_33  and  C_52
   26  A    between atoms: C_37  and  O_40
                            x       y       z     vdW  Elec       q    Type
                         _______ _______ _______ _____ _____    ______ ____

>  <TORSDO>
F 26

$$$$
=
 OpenBabel10262420423D

 55 57  0  0  1  0  0  0  0  0999 V2000
  185.7230  178.2960  136.8930 O   0  0  0  0  0  0  0  0  0  0  0  0
  185.6020  176.0350  136.2940 N   0  0  0  0  0  0  0  0  0  0  0  0
  185.0050  177.2700  136.7480 C   0  0  0  0  0  0  0  0  0  0  0  0
  186.9420  176.0530  135.6780 C   0  0  2  0  0  3  0  0  0  0  0  0
  187.4590  174.6370  135.4230 C   0  0  0  0  0  1  0  0  0  0  0  0
  189.2760  176.9740  135.6840 C   0  0  0  0  0  1  0  0  0  0  0  0
  187.9640  176.9120  136.4460 C   0  0  2  0  0  3  0  0  0  0  0  0
  188.2010  176.4020  137.8680 C   0  0  0  0  0  2  0  0  0  0  0  0
  188.5840  177.5340  138.8110 C   0  0  0  0  0  2  0  0  0  0  0  0
  189.0650  176.9900  140.1490 C   0  0  0  0  0  2  0  0  0  0  0  0
  190.5060  177.4040  140.4250 C   0  0  1  0  0  3  0  0  0  0  0  0
  191.5000  176.4300  142.5200 C   0  0  0  0  0  3  0  0  0  0  0  0
  190.6510  177.0640  144.7300 C   0  0  0  0  0  0  0  0  0  0  0  0
  189.4610  177.8860  142.7170 C   0  0  0  0  0  2  0  0  0  0  0  0
  189.7340  177.8830  144.1950 C   0  0  0  0  0  3  0  0  0  0  0  0
  191.4760  176.2150  143.8390 C   0  0  0  0  0  3  0  0  0  0  0  0
  190.7490  177.5930  141.9280 C   0  0  2  0  0  3  0  0  0  0  0  0
  190.8490  177.0230  146.1920 C   0  0  0  0  0  0  0  0  0  0  0  0
  192.0110  176.9820  146.6750 O   0  0  0  0  0  0  0  0  0  0  0  0
  189.4510  177.0310  147.3120 S   0  0  0  0  0  1  0  0  0  0  0  0
  191.4550  176.3950  139.7930 C   0  0  0  0  0  2  0  0  0  0  0  0
  192.1640  177.0170  138.6030 C   0  0  0  0  0  2  0  0  0  0  0  0
  192.3010  175.9010  136.3690 C   0  0  0  0  0  3  0  0  0  0  0  0
  194.0530  173.9690  137.3810 C   0  0  0  0  0  0  0  0  0  0  0  0
  193.5650  174.9780  138.2190 C   0  0  0  0  0  3  0  0  0  0  0  0
  192.7860  174.8910  135.5330 C   0  0  0  0  0  3  0  0  0  0  0  0
  192.6940  175.9490  137.7120 C   0  0  0  0  0  0  0  0  0  0  0  0
  194.8930  173.0280  137.8730 F   0  0  0  0  0  0  0  0  0  0  0  0
  193.6620  173.9260  136.0390 C   0  0  0  0  0  3  0  0  0  0  0  0
  184.9380  174.7650  136.5860 C   0  0  0  0  0  2  0  0  0  0  0  0
  185.0540  172.8610  137.6990 C   0  0  0  0  0  1  0  0  0  0  0  0
  185.5250  174.1730  137.7060 O   0  0  0  0  0  0  0  0  0  0  0  0
  183.5370  177.3900  137.0640 C   0  0  2  0  0  3  0  0  0  0  0  0
  180.5790  176.8640  134.5960 C   0  0  0  0  0  1  0  0  0  0  0  0
  183.1230  176.7390  134.6880 C   0  0  0  0  0  2  0  0  0  0  0  0
  181.8150  176.5410  135.4110 C   0  0  1  0  0  0  0  0  0  0  0  0
  182.7220  177.6930  135.8110 C   0  0  1  0  0  3  0  0  0  0  0  0
  181.7930  175.4080  136.2280 O   0  0  0  0  0  1  0  0  0  0  0  0
  183.2470  178.4240  138.1570 C   0  0  0  0  0  2  0  0  0  0  0  0
  182.1090  178.0300  139.1090 C   0  0  2  0  0  0  0  0  0  0  0  0
  180.1220  179.3880  140.1090 C   0  0  0  0  0  1  0  0  0  0  0  0
  180.9930  179.0960  138.8900 C   0  0  2  0  0  3  0  0  0  0  0  0
  180.1500  178.8370  137.6300 C   0  0  1  0  0  3  0  0  0  0  0  0
  178.9310  178.2270  137.9470 O   0  0  0  0  0  1  0  0  0  0  0  0
  178.9530  180.8450  137.1600 O   0  0  0  0  0  1  0  0  0  0  0  0
  179.9150  180.0920  136.8540 C   0  0  0  0  0  0  0  0  0  0  0  0
  180.7470  180.4330  135.7930 O   0  0  0  0  0  0  0  0  0  0  0  0
  182.7180  178.1010  140.5270 C   0  0  0  0  0  2  0  0  0  0  0  0
  184.0650  177.7360  140.5640 O   0  0  0  0  0  0  0  0  0  0  0  0
  184.5560  178.3330  141.7230 C   0  0  0  0  0  2  0  0  0  0  0  0
  183.4030  178.7020  142.6310 C   0  0  0  0  0  1  0  0  0  0  0  0
  181.6970  176.7160  138.7590 O   0  0  0  0  0  0  0  0  0  0  0  0
  181.1100  176.1350  139.8380 N   0  0  0  0  0  2  0  0  0  0  0  0
  180.1670  175.1520  139.3320 C   0  0  0  0  0  2  0  0  0  0  0  0
  179.1960  174.7540  140.4270 C   0  0  0  0  0  1  0  0  0  0  0  0
  2 30  1  0  0  0  0
  2  3  1  0  0  0  0
  3  1  2  0  0  0  0
  3 33  1  0  0  0  0
  4  5  1  1  0  0  0
  4  2  1  0  0  0  0
  4  7  1  0  0  0  0
  7  6  1  6  0  0  0
  7  8  1  0  0  0  0
  8  9  1  0  0  0  0
  9 10  1  0  0  0  0
 10 11  1  0  0  0  0
 11 21  1  1  0  0  0
 12 16  2  0  0  0  0
 13 18  1  0  0  0  0
 14 15  1  0  0  0  0
 15 13  2  0  0  0  0
 16 13  1  0  0  0  0
 17 11  1  6  0  0  0
 17 12  1  0  0  0  0
 17 14  1  0  0  0  0
 18 19  2  0  0  0  0
 18 20  1  0  0  0  0
 22 21  1  0  0  0  0
 23 27  1  0  0  0  0
 24 28  1  0  0  0  0
 24 25  1  0  0  0  0
 26 29  1  0  0  0  0
 26 23  2  0  0  0  0
 27 25  2  0  0  0  0
 27 22  1  0  0  0  0
 29 24  2  0  0  0  0
 30 32  1  0  0  0  0
 31 32  1  0  0  0  0
 33 39  1  1  0  0  0
 35 36  1  0  0  0  0
 35 37  1  0  0  0  0
 36 34  1  6  0  0  0
 36 37  1  0  0  0  0
 36 38  1  0  0  0  0
 37 33  1  1  0  0  0
 40 39  1  6  0  0  0
 40 48  1  0  0  0  0
 42 40  1  0  0  0  0
 42 41  1  1  0  0  0
 43 44  1  1  0  0  0
 43 42  1  0  0  0  0
 46 45  1  0  0  0  0
 46 43  1  0  0  0  0
 47 46  2  0  0  0  0
 48 49  1  0  0  0  0
 49 50  1  0  0  0  0
 50 51  1  0  0  0  0
 52 40  1  0  0  0  0
 52 53  1  0  0  0  0
 54 53  1  0  0  0  0
 54 55  1  0  0  0  0
M  END
>  <MODEL>
2

>  <REMARK>
 VINA RESULT:      -5.8      3.249      6.573
  Name = 
  26 active torsions:
  status: ('A' for Active; 'I' for Inactive)
    1  A    between atoms: C_1  and  N_30
    2  A    between atoms: C_2  and  C_28
    3  A    between atoms: C_2  and  C_44
    4  A    between atoms: C_6  and  C_8
    5  A    between atoms: C_6  and  O_20
    6  A    between atoms: C_6  and  C_38
    7  A    between atoms: C_6  and  C_46
    8  A    between atoms: C_7  and  C_8
    9  A    between atoms: C_7  and  C_23
   10  A    between atoms: C_7  and  C_43
   11  A    between atoms: C_10  and  C_32
   12  A    between atoms: C_11  and  C_29
   13  A    between atoms: C_11  and  C_38
   14  A    between atoms: C_12  and  O_14
   15  A    between atoms: O_14  and  C_46
   16  A    between atoms: C_16  and  N_17
   17  A    between atoms: C_16  and  C_26
   18  A    between atoms: N_17  and  C_37
   19  A    between atoms: C_19  and  C_45
   20  A    between atoms: C_19  and  C_49
   21  A    between atoms: O_20  and  N_30
   22  A    between atoms: C_26  and  C_45
   23  A    between atoms: C_28  and  C_33
   24  A    between atoms: C_33  and  C_49
   25  A    between atoms: C_33  and  C_52
   26  A    between atoms: C_37  and  O_40
                            x       y       z     vdW  Elec       q    Type
                         _______ _______ _______ _____ _____    ______ ____

>  <TORSDO>
F 26

$$$$
=
 OpenBabel10262420423D

 55 57  0  0  1  0  0  0  0  0999 V2000
  190.8890  176.3590  138.3960 O   0  0  0  0  0  0  0  0  0  0  0  0
  189.2350  177.4570  139.6390 N   0  0  0  0  0  0  0  0  0  0  0  0
  189.6940  176.7550  138.4620 C   0  0  0  0  0  0  0  0  0  0  0  0
  190.0330  177.4070  140.8790 C   0  0  2  0  0  3  0  0  0  0  0  0
  190.4460  175.9750  141.2200 C   0  0  0  0  0  1  0  0  0  0  0  0
  190.3820  178.9710  142.8090 C   0  0  0  0  0  1  0  0  0  0  0  0
  189.3670  178.1150  142.0720 C   0  0  2  0  0  3  0  0  0  0  0  0
  188.7040  177.1320  143.0370 C   0  0  0  0  0  2  0  0  0  0  0  0
  187.1850  177.2190  142.9690 C   0  0  0  0  0  2  0  0  0  0  0  0
  186.7190  178.6680  143.0260 C   0  0  0  0  0  2  0  0  0  0  0  0
  185.7430  178.8870  144.1770 C   0  0  1  0  0  3  0  0  0  0  0  0
  183.2960  179.0840  144.7190 C   0  0  0  0  0  3  0  0  0  0  0  0
  181.6000  178.9550  142.9550 C   0  0  0  0  0  0  0  0  0  0  0  0
  183.9670  178.5140  142.3650 C   0  0  0  0  0  2  0  0  0  0  0  0
  182.5310  178.7800  142.0060 C   0  0  0  0  0  3  0  0  0  0  0  0
  182.0080  178.9800  144.3790 C   0  0  0  0  0  3  0  0  0  0  0  0
  184.3480  179.2580  143.6570 C   0  0  2  0  0  3  0  0  0  0  0  0
  180.1840  179.1390  142.5810 C   0  0  0  0  0  0  0  0  0  0  0  0
  179.5280  180.1120  143.0370 O   0  0  0  0  0  0  0  0  0  0  0  0
  179.3660  177.9910  141.4760 S   0  0  0  0  0  1  0  0  0  0  0  0
  185.7350  177.6580  145.0760 C   0  0  0  0  0  2  0  0  0  0  0  0
  185.8250  178.0750  146.5340 C   0  0  0  0  0  2  0  0  0  0  0  0
  187.6160  178.5140  148.2230 C   0  0  0  0  0  3  0  0  0  0  0  0
  189.4600  177.0270  146.7340 C   0  0  0  0  0  0  0  0  0  0  0  0
  188.1460  177.1710  146.2760 C   0  0  0  0  0  3  0  0  0  0  0  0
  188.9300  178.3710  148.6790 C   0  0  0  0  0  3  0  0  0  0  0  0
  187.2210  177.9100  147.0240 C   0  0  0  0  0  0  0  0  0  0  0  0
  190.3550  176.3160  146.0090 F   0  0  0  0  0  0  0  0  0  0  0  0
  189.8510  177.6280  147.9350 C   0  0  0  0  0  3  0  0  0  0  0  0
  188.0650  178.3290  139.5470 C   0  0  0  0  0  2  0  0  0  0  0  0
  185.8650  178.4480  139.4010 C   0  0  0  0  0  1  0  0  0  0  0  0
  186.9030  177.5790  139.7350 O   0  0  0  0  0  0  0  0  0  0  0  0
  188.7940  176.4720  137.2880 C   0  0  2  0  0  3  0  0  0  0  0  0
  187.0740  178.8120  134.7030 C   0  0  0  0  0  1  0  0  0  0  0  0
  189.0120  178.7800  136.3580 C   0  0  0  0  0  2  0  0  0  0  0  0
  188.1710  178.0090  135.3730 C   0  0  1  0  0  0  0  0  0  0  0  0
  188.0320  177.7210  136.8590 C   0  0  1  0  0  3  0  0  0  0  0  0
  188.9030  177.1080  134.5950 O   0  0  0  0  0  1  0  0  0  0  0  0
  187.8240  175.3140  137.5480 C   0  0  0  0  0  2  0  0  0  0  0  0
  187.6060  174.3930  136.3400 C   0  0  2  0  0  0  0  0  0  0  0  0
  187.9280  172.2670  137.8130 C   0  0  0  0  0  1  0  0  0  0  0  0
  186.9950  173.0810  136.9190 C   0  0  2  0  0  3  0  0  0  0  0  0
  186.3170  172.2080  135.8490 C   0  0  1  0  0  3  0  0  0  0  0  0
  187.0790  171.0710  135.5590 O   0  0  0  0  0  1  0  0  0  0  0  0
  184.4410  172.2690  137.3170 O   0  0  0  0  0  1  0  0  0  0  0  0
  184.9330  171.8150  136.2520 C   0  0  0  0  0  0  0  0  0  0  0  0
  184.1870  170.9470  135.4620 O   0  0  0  0  0  0  0  0  0  0  0  0
  189.0110  174.1690  135.7360 C   0  0  0  0  0  2  0  0  0  0  0  0
  189.7410  173.1810  136.3990 O   0  0  0  0  0  0  0  0  0  0  0  0
  191.0550  173.3800  135.9840 C   0  0  0  0  0  2  0  0  0  0  0  0
  191.1400  174.6490  135.1610 C   0  0  0  0  0  1  0  0  0  0  0  0
  186.7300  175.0660  135.4440 O   0  0  0  0  0  0  0  0  0  0  0  0
  185.6080  175.4320  136.1170 N   0  0  0  0  0  2  0  0  0  0  0  0
  184.5620  175.6230  135.1270 C   0  0  0  0  0  2  0  0  0  0  0  0
  183.6960  176.8080  135.5090 C   0  0  0  0  0  1  0  0  0  0  0  0
  1  3  2  0  0  0  0
  2  4  1  0  0  0  0
  3  2  1  0  0  0  0
  4  5  1  1  0  0  0
  4  7  1  0  0  0  0
  7  6  1  1  0  0  0
  7  8  1  0  0  0  0
  9 10  1  0  0  0  0
  9  8  1  0  0  0  0
 11 10  1  6  0  0  0
 11 21  1  0  0  0  0
 13 16  1  0  0  0  0
 14 17  1  0  0  0  0
 15 14  1  0  0  0  0
 15 13  2  0  0  0  0
 16 12  2  0  0  0  0
 17 11  1  1  0  0  0
 17 12  1  0  0  0  0
 18 13  1  0  0  0  0
 18 19  2  0  0  0  0
 20 18  1  0  0  0  0
 21 22  1  0  0  0  0
 22 27  1  0  0  0  0
 23 26  1  0  0  0  0
 24 29  1  0  0  0  0
 25 24  2  0  0  0  0
 25 27  1  0  0  0  0
 27 23  2  0  0  0  0
 28 24  1  0  0  0  0
 29 26  2  0  0  0  0
 30  2  1  0  0  0  0
 30 32  1  0  0  0  0
 31 32  1  0  0  0  0
 33 39  1  1  0  0  0
 33  3  1  0  0  0  0
 35 37  1  0  0  0  0
 36 34  1  6  0  0  0
 36 35  1  0  0  0  0
 36 37  1  0  0  0  0
 37 33  1  6  0  0  0
 38 36  1  0  0  0  0
 40 48  1  6  0  0  0
 40 42  1  0  0  0  0
 40 39  1  0  0  0  0
 42 41  1  6  0  0  0
 43 44  1  1  0  0  0
 43 46  1  0  0  0  0
 43 42  1  0  0  0  0
 46 45  1  0  0  0  0
 47 46  2  0  0  0  0
 48 49  1  0  0  0  0
 50 49  1  0  0  0  0
 51 50  1  0  0  0  0
 52 53  1  0  0  0  0
 52 40  1  0  0  0  0
 54 55  1  0  0  0  0
 54 53  1  0  0  0  0
M  END
>  <MODEL>
3

>  <REMARK>
 VINA RESULT:      -5.8      3.674      7.488
  Name = 
  26 active torsions:
  status: ('A' for Active; 'I' for Inactive)
    1  A    between atoms: C_1  and  N_30
    2  A    between atoms: C_2  and  C_28
    3  A    between atoms: C_2  and  C_44
    4  A    between atoms: C_6  and  C_8
    5  A    between atoms: C_6  and  O_20
    6  A    between atoms: C_6  and  C_38
    7  A    between atoms: C_6  and  C_46
    8  A    between atoms: C_7  and  C_8
    9  A    between atoms: C_7  and  C_23
   10  A    between atoms: C_7  and  C_43
   11  A    between atoms: C_10  and  C_32
   12  A    between atoms: C_11  and  C_29
   13  A    between atoms: C_11  and  C_38
   14  A    between atoms: C_12  and  O_14
   15  A    between atoms: O_14  and  C_46
   16  A    between atoms: C_16  and  N_17
   17  A    between atoms: C_16  and  C_26
   18  A    between atoms: N_17  and  C_37
   19  A    between atoms: C_19  and  C_45
   20  A    between atoms: C_19  and  C_49
   21  A    between atoms: O_20  and  N_30
   22  A    between atoms: C_26  and  C_45
   23  A    between atoms: C_28  and  C_33
   24  A    between atoms: C_33  and  C_49
   25  A    between atoms: C_33  and  C_52
   26  A    between atoms: C_37  and  O_40
                            x       y       z     vdW  Elec       q    Type
                         _______ _______ _______ _____ _____    ______ ____

>  <TORSDO>
F 26

$$$$
=
 OpenBabel10262420423D

 55 57  0  0  1  0  0  0  0  0999 V2000
  185.6240  177.4590  138.9810 O   0  0  0  0  0  0  0  0  0  0  0  0
  185.4220  177.5820  136.6510 N   0  0  0  0  0  0  0  0  0  0  0  0
  184.8600  177.4790  137.9780 C   0  0  0  0  0  0  0  0  0  0  0  0
  186.8240  178.0090  136.4810 C   0  0  2  0  0  3  0  0  0  0  0  0
  187.1140  178.4140  135.0350 C   0  0  0  0  0  1  0  0  0  0  0  0
  187.5790  175.6170  136.4210 C   0  0  0  0  0  1  0  0  0  0  0  0
  187.8490  176.9900  137.0120 C   0  0  2  0  0  3  0  0  0  0  0  0
  187.8600  176.9170  138.5390 C   0  0  0  0  0  2  0  0  0  0  0  0
  189.2600  177.1290  139.0990 C   0  0  0  0  0  2  0  0  0  0  0  0
  189.3380  176.6850  140.5530 C   0  0  0  0  0  2  0  0  0  0  0  0
  189.6120  177.8670  141.4750 C   0  0  1  0  0  3  0  0  0  0  0  0
  187.6930  177.2270  142.9680 C   0  0  0  0  0  3  0  0  0  0  0  0
  185.5640  178.4380  142.8730 C   0  0  0  0  0  0  0  0  0  0  0  0
  187.3170  178.9790  141.2060 C   0  0  0  0  0  2  0  0  0  0  0  0
  186.0150  179.2510  141.9070 C   0  0  0  0  0  3  0  0  0  0  0  0
  186.4060  177.3050  143.3220 C   0  0  0  0  0  3  0  0  0  0  0  0
  188.3270  178.3360  142.1710 C   0  0  2  0  0  3  0  0  0  0  0  0
  184.2480  178.6820  143.4950 C   0  0  0  0  0  0  0  0  0  0  0  0
  183.2270  178.8460  142.7760 O   0  0  0  0  0  0  0  0  0  0  0  0
  184.0680  178.7540  145.2750 S   0  0  0  0  0  1  0  0  0  0  0  0
  190.7190  177.5030  142.4550 C   0  0  0  0  0  2  0  0  0  0  0  0
  190.8150  178.5500  143.5510 C   0  0  0  0  0  2  0  0  0  0  0  0
  189.4800  178.1720  145.6310 C   0  0  0  0  0  3  0  0  0  0  0  0
  191.4540  176.4760  146.6550 C   0  0  0  0  0  0  0  0  0  0  0  0
  191.6240  177.0670  145.3980 C   0  0  0  0  0  3  0  0  0  0  0  0
  189.3120  177.5840  146.8870 C   0  0  0  0  0  3  0  0  0  0  0  0
  190.6330  177.9110  144.8820 C   0  0  0  0  0  0  0  0  0  0  0  0
  192.4140  175.6630  147.1560 F   0  0  0  0  0  0  0  0  0  0  0  0
  190.2990  176.7350  147.3990 C   0  0  0  0  0  3  0  0  0  0  0  0
  184.6450  177.1210  135.5010 C   0  0  0  0  0  2  0  0  0  0  0  0
  185.0420  175.1250  134.6430 C   0  0  0  0  0  1  0  0  0  0  0  0
  184.3330  175.7690  135.6570 O   0  0  0  0  0  0  0  0  0  0  0  0
  183.3770  177.3890  138.2230 C   0  0  2  0  0  3  0  0  0  0  0  0
  181.1290  180.4190  139.1610 C   0  0  0  0  0  1  0  0  0  0  0  0
  183.5720  179.8240  138.7430 C   0  0  0  0  0  2  0  0  0  0  0  0
  182.1280  179.5870  138.3820 C   0  0  1  0  0  0  0  0  0  0  0  0
  182.8950  178.5120  139.1340 C   0  0  1  0  0  3  0  0  0  0  0  0
  181.9150  179.4060  137.0120 O   0  0  0  0  0  1  0  0  0  0  0  0
  182.9480  176.0260  138.7770 C   0  0  0  0  0  2  0  0  0  0  0  0
  181.8150  175.3550  137.9880 C   0  0  2  0  0  0  0  0  0  0  0  0
  179.5090  174.3000  138.5920 C   0  0  0  0  0  1  0  0  0  0  0  0
  180.6020  175.3000  138.9650 C   0  0  2  0  0  3  0  0  0  0  0  0
  180.0240  176.6890  139.2880 C   0  0  1  0  0  3  0  0  0  0  0  0
  178.9340  176.9930  138.4650 O   0  0  0  0  0  1  0  0  0  0  0  0
  179.1970  175.7970  141.3380 O   0  0  0  0  0  0  0  0  0  0  0  0
  179.6360  176.8050  140.7260 C   0  0  0  0  0  0  0  0  0  0  0  0
  179.7510  178.0200  141.3930 O   0  0  0  0  0  1  0  0  0  0  0  0
  182.3420  173.9480  137.6280 C   0  0  0  0  0  2  0  0  0  0  0  0
  182.0780  173.5850  136.3060 O   0  0  0  0  0  0  0  0  0  0  0  0
  182.4090  172.2340  136.2420 C   0  0  0  0  0  2  0  0  0  0  0  0
  181.2150  171.4430  135.7530 C   0  0  0  0  0  1  0  0  0  0  0  0
  181.5660  176.1530  136.8380 O   0  0  0  0  0  0  0  0  0  0  0  0
  180.7990  175.4460  135.9670 N   0  0  0  0  0  2  0  0  0  0  0  0
  180.2360  176.3980  135.0250 C   0  0  0  0  0  2  0  0  0  0  0  0
  181.1620  177.5890  134.8760 C   0  0  0  0  0  1  0  0  0  0  0  0
  2  3  1  0  0  0  0
  3 33  1  0  0  0  0
  3  1  2  0  0  0  0
  4  5  1  6  0  0  0
  4  2  1  0  0  0  0
  4  7  1  0  0  0  0
  7  6  1  6  0  0  0
  7  8  1  0  0  0  0
  8  9  1  0  0  0  0
  9 10  1  0  0  0  0
 11 10  1  1  0  0  0
 11 21  1  0  0  0  0
 12 16  2  0  0  0  0
 13 16  1  0  0  0  0
 13 18  1  0  0  0  0
 14 15  1  0  0  0  0
 14 17  1  0  0  0  0
 15 13  2  0  0  0  0
 17 11  1  6  0  0  0
 17 12  1  0  0  0  0
 18 20  1  0  0  0  0
 19 18  2  0  0  0  0
 21 22  1  0  0  0  0
 22 27  1  0  0  0  0
 23 26  1  0  0  0  0
 24 28  1  0  0  0  0
 24 29  1  0  0  0  0
 25 24  2  0  0  0  0
 26 29  2  0  0  0  0
 27 25  1  0  0  0  0
 27 23  2  0  0  0  0
 30 32  1  0  0  0  0
 30  2  1  0  0  0  0
 31 32  1  0  0  0  0
 33 39  1  1  0  0  0
 35 37  1  0  0  0  0
 36 35  1  0  0  0  0
 36 37  1  0  0  0  0
 36 34  1  1  0  0  0
 37 33  1  6  0  0  0
 38 36  1  0  0  0  0
 40 48  1  6  0  0  0
 40 39  1  0  0  0  0
 40 42  1  0  0  0  0
 42 41  1  6  0  0  0
 42 43  1  0  0  0  0
 43 44  1  6  0  0  0
 43 46  1  0  0  0  0
 46 45  2  0  0  0  0
 46 47  1  0  0  0  0
 49 48  1  0  0  0  0
 50 49  1  0  0  0  0
 51 50  1  0  0  0  0
 52 40  1  0  0  0  0
 53 52  1  0  0  0  0
 54 53  1  0  0  0  0
 55 54  1  0  0  0  0
M  END
>  <MODEL>
4

>  <REMARK>
 VINA RESULT:      -5.6      2.766      5.199
  Name = 
  26 active torsions:
  status: ('A' for Active; 'I' for Inactive)
    1  A    between atoms: C_1  and  N_30
    2  A    between atoms: C_2  and  C_28
    3  A    between atoms: C_2  and  C_44
    4  A    between atoms: C_6  and  C_8
    5  A    between atoms: C_6  and  O_20
    6  A    between atoms: C_6  and  C_38
    7  A    between atoms: C_6  and  C_46
    8  A    between atoms: C_7  and  C_8
    9  A    between atoms: C_7  and  C_23
   10  A    between atoms: C_7  and  C_43
   11  A    between atoms: C_10  and  C_32
   12  A    between atoms: C_11  and  C_29
   13  A    between atoms: C_11  and  C_38
   14  A    between atoms: C_12  and  O_14
   15  A    between atoms: O_14  and  C_46
   16  A    between atoms: C_16  and  N_17
   17  A    between atoms: C_16  and  C_26
   18  A    between atoms: N_17  and  C_37
   19  A    between atoms: C_19  and  C_45
   20  A    between atoms: C_19  and  C_49
   21  A    between atoms: O_20  and  N_30
   22  A    between atoms: C_26  and  C_45
   23  A    between atoms: C_28  and  C_33
   24  A    between atoms: C_33  and  C_49
   25  A    between atoms: C_33  and  C_52
   26  A    between atoms: C_37  and  O_40
                            x       y       z     vdW  Elec       q    Type
                         _______ _______ _______ _____ _____    ______ ____

>  <TORSDO>
F 26

$$$$
=
 OpenBabel10262420423D

 55 57  0  0  1  0  0  0  0  0999 V2000
  185.2090  177.7410  139.2200 O   0  0  0  0  0  0  0  0  0  0  0  0
  185.9410  177.8320  136.9970 N   0  0  0  0  0  0  0  0  0  0  0  0
  184.9050  177.7090  137.9970 C   0  0  0  0  0  0  0  0  0  0  0  0
  187.2730  178.3360  137.3810 C   0  0  2  0  0  3  0  0  0  0  0  0
  187.5900  179.6620  136.6900 C   0  0  0  0  0  1  0  0  0  0  0  0
  188.0970  176.0470  137.9930 C   0  0  0  0  0  1  0  0  0  0  0  0
  188.4010  177.3050  137.1970 C   0  0  2  0  0  3  0  0  0  0  0  0
  189.7700  177.8620  137.5900 C   0  0  0  0  0  2  0  0  0  0  0  0
  190.4730  176.9600  138.5970 C   0  0  0  0  0  2  0  0  0  0  0  0
  190.8100  177.7240  139.8690 C   0  0  0  0  0  2  0  0  0  0  0  0
  189.9020  177.3050  141.0190 C   0  0  1  0  0  3  0  0  0  0  0  0
  190.1060  175.7520  142.9870 C   0  0  0  0  0  3  0  0  0  0  0  0
  191.3270  176.4250  145.0020 C   0  0  0  0  0  0  0  0  0  0  0  0
  190.9730  178.1000  143.2090 C   0  0  0  0  0  2  0  0  0  0  0  0
  191.6180  177.6270  144.4820 C   0  0  0  0  0  3  0  0  0  0  0  0
  190.4280  175.5110  144.2620 C   0  0  0  0  0  3  0  0  0  0  0  0
  190.7200  176.9180  142.2590 C   0  0  2  0  0  3  0  0  0  0  0  0
  191.9150  176.0130  146.2920 C   0  0  0  0  0  0  0  0  0  0  0  0
  192.6900  175.0220  146.3480 O   0  0  0  0  0  0  0  0  0  0  0  0
  191.5430  176.9020  147.8010 S   0  0  0  0  0  1  0  0  0  0  0  0
  188.8890  178.4080  141.2960 C   0  0  0  0  0  2  0  0  0  0  0  0
  187.4830  177.8360  141.3160 C   0  0  0  0  0  2  0  0  0  0  0  0
  185.5400  178.5810  142.7020 C   0  0  0  0  0  3  0  0  0  0  0  0
  186.9730  178.1120  145.0590 C   0  0  0  0  0  0  0  0  0  0  0  0
  187.5680  177.8620  143.8180 C   0  0  0  0  0  3  0  0  0  0  0  0
  184.9470  178.8340  143.9420 C   0  0  0  0  0  3  0  0  0  0  0  0
  186.8490  178.0900  142.6380 C   0  0  0  0  0  0  0  0  0  0  0  0
  187.6690  177.8950  146.2000 F   0  0  0  0  0  0  0  0  0  0  0  0
  185.6630  178.5990  145.1210 C   0  0  0  0  0  3  0  0  0  0  0  0
  185.7060  177.3170  135.6480 C   0  0  0  0  0  2  0  0  0  0  0  0
  186.6050  175.5490  134.6770 C   0  0  0  0  0  1  0  0  0  0  0  0
  185.7020  175.9210  135.6720 O   0  0  0  0  0  0  0  0  0  0  0  0
  183.4520  177.5370  137.6380 C   0  0  2  0  0  3  0  0  0  0  0  0
  181.6720  179.4310  140.5280 C   0  0  0  0  0  1  0  0  0  0  0  0
  181.1530  178.1830  138.3680 C   0  0  0  0  0  2  0  0  0  0  0  0
  182.0280  178.2960  139.5900 C   0  0  1  0  0  0  0  0  0  0  0  0
  182.5980  178.6540  138.2280 C   0  0  1  0  0  3  0  0  0  0  0  0
  182.3770  177.0620  140.1450 O   0  0  0  0  0  1  0  0  0  0  0  0
  182.8990  176.1660  138.0410 C   0  0  0  0  0  2  0  0  0  0  0  0
  182.1640  175.4280  136.9140 C   0  0  2  0  0  0  0  0  0  0  0  0
  184.1380  173.8350  137.5150 C   0  0  0  0  0  1  0  0  0  0  0  0
  182.7390  173.9800  136.9190 C   0  0  2  0  0  3  0  0  0  0  0  0
  182.6210  173.2790  135.5550 C   0  0  1  0  0  3  0  0  0  0  0  0
  183.7260  173.5540  134.7410 O   0  0  0  0  0  1  0  0  0  0  0  0
  182.2020  171.3150  136.8390 O   0  0  0  0  0  1  0  0  0  0  0  0
  182.4430  171.8030  135.7050 C   0  0  0  0  0  0  0  0  0  0  0  0
  182.5460  170.9630  134.6010 O   0  0  0  0  0  0  0  0  0  0  0  0
  182.5190  176.1960  135.6210 C   0  0  0  0  0  2  0  0  0  0  0  0
  181.4140  176.8110  135.0290 O   0  0  0  0  0  0  0  0  0  0  0  0
  181.8920  178.0450  134.5960 C   0  0  0  0  0  2  0  0  0  0  0  0
  180.8730  179.1200  134.9080 C   0  0  0  0  0  1  0  0  0  0  0  0
  180.7740  175.4740  137.2100 O   0  0  0  0  0  0  0  0  0  0  0  0
  180.1860  174.3420  136.7440 N   0  0  0  0  0  2  0  0  0  0  0  0
  178.9320  174.1870  137.4620 C   0  0  0  0  0  2  0  0  0  0  0  0
  179.1960  173.6570  138.8580 C   0  0  0  0  0  1  0  0  0  0  0  0
  2  4  1  0  0  0  0
  2  3  1  0  0  0  0
  3  1  2  0  0  0  0
  4  5  1  6  0  0  0
  7  4  1  0  0  0  0
  7  8  1  0  0  0  0
  7  6  1  1  0  0  0
  8  9  1  0  0  0  0
  9 10  1  0  0  0  0
 11 10  1  6  0  0  0
 11 21  1  0  0  0  0
 12 16  2  0  0  0  0
 13 18  1  0  0  0  0
 14 15  1  0  0  0  0
 15 13  2  0  0  0  0
 16 13  1  0  0  0  0
 17 11  1  6  0  0  0
 17 12  1  0  0  0  0
 17 14  1  0  0  0  0
 18 19  2  0  0  0  0
 18 20  1  0  0  0  0
 21 22  1  0  0  0  0
 22 27  1  0  0  0  0
 23 26  1  0  0  0  0
 24 29  1  0  0  0  0
 24 28  1  0  0  0  0
 25 24  2  0  0  0  0
 26 29  2  0  0  0  0
 27 23  2  0  0  0  0
 27 25  1  0  0  0  0
 30 32  1  0  0  0  0
 30  2  1  0  0  0  0
 31 32  1  0  0  0  0
 33  3  1  0  0  0  0
 33 39  1  1  0  0  0
 35 36  1  0  0  0  0
 36 38  1  0  0  0  0
 36 34  1  1  0  0  0
 37 33  1  6  0  0  0
 37 35  1  0  0  0  0
 37 36  1  0  0  0  0
 40 48  1  6  0  0  0
 40 42  1  0  0  0  0
 40 52  1  0  0  0  0
 40 39  1  0  0  0  0
 42 41  1  6  0  0  0
 43 44  1  6  0  0  0
 43 46  1  0  0  0  0
 43 42  1  0  0  0  0
 46 45  1  0  0  0  0
 47 46  2  0  0  0  0
 49 48  1  0  0  0  0
 50 51  1  0  0  0  0
 50 49  1  0  0  0  0
 53 52  1  0  0  0  0
 53 54  1  0  0  0  0
 54 55  1  0  0  0  0
M  END
>  <MODEL>
5

>  <REMARK>
 VINA RESULT:      -5.5      3.063      5.424
  Name = 
  26 active torsions:
  status: ('A' for Active; 'I' for Inactive)
    1  A    between atoms: C_1  and  N_30
    2  A    between atoms: C_2  and  C_28
    3  A    between atoms: C_2  and  C_44
    4  A    between atoms: C_6  and  C_8
    5  A    between atoms: C_6  and  O_20
    6  A    between atoms: C_6  and  C_38
    7  A    between atoms: C_6  and  C_46
    8  A    between atoms: C_7  and  C_8
    9  A    between atoms: C_7  and  C_23
   10  A    between atoms: C_7  and  C_43
   11  A    between atoms: C_10  and  C_32
   12  A    between atoms: C_11  and  C_29
   13  A    between atoms: C_11  and  C_38
   14  A    between atoms: C_12  and  O_14
   15  A    between atoms: O_14  and  C_46
   16  A    between atoms: C_16  and  N_17
   17  A    between atoms: C_16  and  C_26
   18  A    between atoms: N_17  and  C_37
   19  A    between atoms: C_19  and  C_45
   20  A    between atoms: C_19  and  C_49
   21  A    between atoms: O_20  and  N_30
   22  A    between atoms: C_26  and  C_45
   23  A    between atoms: C_28  and  C_33
   24  A    between atoms: C_33  and  C_49
   25  A    between atoms: C_33  and  C_52
   26  A    between atoms: C_37  and  O_40
                            x       y       z     vdW  Elec       q    Type
                         _______ _______ _______ _____ _____    ______ ____

>  <TORSDO>
F 26

$$$$
=
 OpenBabel10262420423D

 55 57  0  0  1  0  0  0  0  0999 V2000
  182.6580  176.9980  139.3090 O   0  0  0  0  0  0  0  0  0  0  0  0
  180.9010  178.5230  139.0350 N   0  0  0  0  0  0  0  0  0  0  0  0
  181.5230  177.2370  138.8160 C   0  0  0  0  0  0  0  0  0  0  0  0
  181.4110  179.4100  140.0990 C   0  0  2  0  0  3  0  0  0  0  0  0
  182.8200  179.9100  139.7820 C   0  0  0  0  0  1  0  0  0  0  0  0
  180.0690  179.2960  142.2160 C   0  0  0  0  0  1  0  0  0  0  0  0
  181.3180  178.7990  141.5090 C   0  0  2  0  0  3  0  0  0  0  0  0
  182.5580  179.0950  142.3540 C   0  0  0  0  0  2  0  0  0  0  0  0
  182.3070  178.8180  143.8310 C   0  0  0  0  0  2  0  0  0  0  0  0
  183.5730  178.3190  144.5140 C   0  0  0  0  0  2  0  0  0  0  0  0
  184.8110  179.0030  143.9440 C   0  0  1  0  0  3  0  0  0  0  0  0
  186.8040  177.6940  144.7420 C   0  0  0  0  0  3  0  0  0  0  0  0
  187.6510  177.9570  147.0270 C   0  0  0  0  0  0  0  0  0  0  0  0
  185.5450  179.1040  146.3990 C   0  0  0  0  0  2  0  0  0  0  0  0
  186.7020  178.8560  147.3260 C   0  0  0  0  0  3  0  0  0  0  0  0
  187.6090  177.2640  145.7180 C   0  0  0  0  0  3  0  0  0  0  0  0
  185.9820  178.9410  144.9330 C   0  0  2  0  0  3  0  0  0  0  0  0
  188.7360  177.6760  147.9870 C   0  0  0  0  0  0  0  0  0  0  0  0
  188.6160  178.0070  149.1960 O   0  0  0  0  0  0  0  0  0  0  0  0
  190.2430  176.8630  147.4630 S   0  0  0  0  0  1  0  0  0  0  0  0
  185.1460  178.3980  142.5880 C   0  0  0  0  0  2  0  0  0  0  0  0
  186.0090  179.3560  141.7850 C   0  0  0  0  0  2  0  0  0  0  0  0
  187.0980  178.3180  139.7880 C   0  0  0  0  0  3  0  0  0  0  0  0
  189.2800  177.4990  141.3370 C   0  0  0  0  0  0  0  0  0  0  0  0
  188.2260  178.2020  141.9300 C   0  0  0  0  0  3  0  0  0  0  0  0
  188.1500  177.6140  139.1960 C   0  0  0  0  0  3  0  0  0  0  0  0
  187.1370  178.6180  141.1550 C   0  0  0  0  0  0  0  0  0  0  0  0
  190.3310  177.0930  142.0870 F   0  0  0  0  0  0  0  0  0  0  0  0
  189.2410  177.2040  139.9700 C   0  0  0  0  0  3  0  0  0  0  0  0
  179.8740  178.9940  138.1080 C   0  0  0  0  0  2  0  0  0  0  0  0
  179.8080  179.9890  136.1370 C   0  0  0  0  0  1  0  0  0  0  0  0
  180.3390  180.1160  137.4210 O   0  0  0  0  0  0  0  0  0  0  0  0
  180.8670  176.1500  138.0050 C   0  0  2  0  0  3  0  0  0  0  0  0
  178.9310  174.7240  141.0600 C   0  0  0  0  0  1  0  0  0  0  0  0
  179.6860  174.0670  138.7160 C   0  0  0  0  0  2  0  0  0  0  0  0
  179.9890  174.8290  139.9810 C   0  0  1  0  0  0  0  0  0  0  0  0
  179.6370  175.5930  138.7150 C   0  0  1  0  0  3  0  0  0  0  0  0
  181.3330  174.7710  140.3610 O   0  0  0  0  0  1  0  0  0  0  0  0
  181.8320  175.0190  137.6350 C   0  0  0  0  0  2  0  0  0  0  0  0
  181.9770  174.7860  136.1250 C   0  0  2  0  0  0  0  0  0  0  0  0
  183.3770  173.1330  134.6740 C   0  0  0  0  0  1  0  0  0  0  0  0
  183.2890  173.9610  135.9540 C   0  0  2  0  0  3  0  0  0  0  0  0
  183.6480  173.1330  137.2000 C   0  0  1  0  0  3  0  0  0  0  0  0
  183.3380  171.7810  137.0220 O   0  0  0  0  0  1  0  0  0  0  0  0
  185.5720  172.5920  138.4990 O   0  0  0  0  0  1  0  0  0  0  0  0
  185.0870  173.2900  137.5720 C   0  0  0  0  0  0  0  0  0  0  0  0
  185.8930  174.2070  136.9060 O   0  0  0  0  0  0  0  0  0  0  0  0
  182.0850  176.1950  135.5000 C   0  0  0  0  0  2  0  0  0  0  0  0
  183.3920  176.5430  135.1570 O   0  0  0  0  0  0  0  0  0  0  0  0
  183.7260  177.5650  136.0430 C   0  0  0  0  0  2  0  0  0  0  0  0
  184.9130  177.1390  136.8820 C   0  0  0  0  0  1  0  0  0  0  0  0
  180.8200  174.0840  135.6890 O   0  0  0  0  0  0  0  0  0  0  0  0
  180.7510  172.8960  136.3460 N   0  0  0  0  0  2  0  0  0  0  0  0
  179.8560  172.0420  135.5850 C   0  0  0  0  0  2  0  0  0  0  0  0
  180.6190  170.8570  135.0260 C   0  0  0  0  0  1  0  0  0  0  0  0
  2  4  1  0  0  0  0
  3  2  1  0  0  0  0
  3  1  2  0  0  0  0
  4  5  1  6  0  0  0
  4  7  1  0  0  0  0
  7  6  1  1  0  0  0
  7  8  1  0  0  0  0
  8  9  1  0  0  0  0
  9 10  1  0  0  0  0
 11 21  1  6  0  0  0
 11 10  1  0  0  0  0
 12 17  1  0  0  0  0
 12 16  2  0  0  0  0
 13 15  2  0  0  0  0
 13 18  1  0  0  0  0
 14 15  1  0  0  0  0
 16 13  1  0  0  0  0
 17 11  1  6  0  0  0
 17 14  1  0  0  0  0
 18 19  2  0  0  0  0
 20 18  1  0  0  0  0
 22 21  1  0  0  0  0
 23 27  1  0  0  0  0
 24 25  1  0  0  0  0
 24 28  1  0  0  0  0
 26 23  2  0  0  0  0
 26 29  1  0  0  0  0
 27 22  1  0  0  0  0
 27 25  2  0  0  0  0
 29 24  2  0  0  0  0
 30  2  1  0  0  0  0
 31 32  1  0  0  0  0
 32 30  1  0  0  0  0
 33 39  1  1  0  0  0
 33  3  1  0  0  0  0
 35 36  1  0  0  0  0
 36 38  1  0  0  0  0
 36 34  1  1  0  0  0
 37 33  1  6  0  0  0
 37 35  1  0  0  0  0
 37 36  1  0  0  0  0
 40 48  1  6  0  0  0
 40 39  1  0  0  0  0
 42 41  1  6  0  0  0
 42 40  1  0  0  0  0
 42 43  1  0  0  0  0
 43 44  1  6  0  0  0
 43 46  1  0  0  0  0
 46 45  1  0  0  0  0
 47 46  2  0  0  0  0
 49 48  1  0  0  0  0
 49 50  1  0  0  0  0
 50 51  1  0  0  0  0
 52 40  1  0  0  0  0
 52 53  1  0  0  0  0
 54 53  1  0  0  0  0
 55 54  1  0  0  0  0
M  END
>  <MODEL>
6

>  <REMARK>
 VINA RESULT:      -5.4      3.050      6.504
  Name = 
  26 active torsions:
  status: ('A' for Active; 'I' for Inactive)
    1  A    between atoms: C_1  and  N_30
    2  A    between atoms: C_2  and  C_28
    3  A    between atoms: C_2  and  C_44
    4  A    between atoms: C_6  and  C_8
    5  A    between atoms: C_6  and  O_20
    6  A    between atoms: C_6  and  C_38
    7  A    between atoms: C_6  and  C_46
    8  A    between atoms: C_7  and  C_8
    9  A    between atoms: C_7  and  C_23
   10  A    between atoms: C_7  and  C_43
   11  A    between atoms: C_10  and  C_32
   12  A    between atoms: C_11  and  C_29
   13  A    between atoms: C_11  and  C_38
   14  A    between atoms: C_12  and  O_14
   15  A    between atoms: O_14  and  C_46
   16  A    between atoms: C_16  and  N_17
   17  A    between atoms: C_16  and  C_26
   18  A    between atoms: N_17  and  C_37
   19  A    between atoms: C_19  and  C_45
   20  A    between atoms: C_19  and  C_49
   21  A    between atoms: O_20  and  N_30
   22  A    between atoms: C_26  and  C_45
   23  A    between atoms: C_28  and  C_33
   24  A    between atoms: C_33  and  C_49
   25  A    between atoms: C_33  and  C_52
   26  A    between atoms: C_37  and  O_40
                            x       y       z     vdW  Elec       q    Type
                         _______ _______ _______ _____ _____    ______ ____

>  <TORSDO>
F 26

$$$$
=
 OpenBabel10262420423D

 55 57  0  0  1  0  0  0  0  0999 V2000
  186.7430  179.0660  140.0380 O   0  0  0  0  0  0  0  0  0  0  0  0
  186.3720  178.4040  142.2540 N   0  0  0  0  0  0  0  0  0  0  0  0
  187.1600  178.4290  141.0420 C   0  0  0  0  0  0  0  0  0  0  0  0
  185.2830  179.3820  142.4390 C   0  0  2  0  0  3  0  0  0  0  0  0
  185.2680  179.9400  143.8620 C   0  0  0  0  0  1  0  0  0  0  0  0
  183.0240  178.6280  143.2310 C   0  0  0  0  0  1  0  0  0  0  0  0
  183.9000  178.8550  142.0110 C   0  0  2  0  0  3  0  0  0  0  0  0
  183.9960  177.5740  141.1820 C   0  0  0  0  0  2  0  0  0  0  0  0
  182.7670  177.3840  140.3020 C   0  0  0  0  0  2  0  0  0  0  0  0
  183.1050  177.6180  138.8360 C   0  0  0  0  0  2  0  0  0  0  0  0
  181.8410  177.7850  138.0010 C   0  0  1  0  0  3  0  0  0  0  0  0
  181.7950  180.2740  138.3490 C   0  0  0  0  0  3  0  0  0  0  0  0
  180.8480  181.7670  136.6520 C   0  0  0  0  0  0  0  0  0  0  0  0
  180.6390  179.3170  136.3330 C   0  0  0  0  0  2  0  0  0  0  0  0
  180.5410  180.7370  135.8490 C   0  0  0  0  0  3  0  0  0  0  0  0
  181.3810  181.4990  138.0070 C   0  0  0  0  0  3  0  0  0  0  0  0
  181.7990  179.1650  137.3310 C   0  0  2  0  0  3  0  0  0  0  0  0
  180.6720  183.1540  136.1800 C   0  0  0  0  0  0  0  0  0  0  0  0
  180.2440  183.3800  135.0170 O   0  0  0  0  0  0  0  0  0  0  0  0
  181.0610  184.5450  137.2380 S   0  0  0  0  0  1  0  0  0  0  0  0
  181.7340  176.6380  137.0050 C   0  0  0  0  0  2  0  0  0  0  0  0
  181.0800  175.4340  137.6590 C   0  0  0  0  0  2  0  0  0  0  0  0
  181.1740  173.0930  136.7870 C   0  0  0  0  0  3  0  0  0  0  0  0
  183.9270  172.9660  137.2730 C   0  0  0  0  0  0  0  0  0  0  0  0
  183.2160  174.1320  137.5760 C   0  0  0  0  0  3  0  0  0  0  0  0
  181.8840  171.9260  136.4870 C   0  0  0  0  0  3  0  0  0  0  0  0
  181.8400  174.1990  137.3270 C   0  0  0  0  0  0  0  0  0  0  0  0
  185.2560  172.9000  137.5180 F   0  0  0  0  0  0  0  0  0  0  0  0
  183.2600  171.8630  136.7290 C   0  0  0  0  0  3  0  0  0  0  0  0
  186.5630  177.3180  143.2150 C   0  0  0  0  0  2  0  0  0  0  0  0
  187.1040  177.5030  145.3490 C   0  0  0  0  0  1  0  0  0  0  0  0
  186.0480  177.6940  144.4570 O   0  0  0  0  0  0  0  0  0  0  0  0
  188.4790  177.7120  140.9220 C   0  0  2  0  0  3  0  0  0  0  0  0
  191.6410  177.1990  143.1240 C   0  0  0  0  0  1  0  0  0  0  0  0
  189.1870  176.5230  143.0010 C   0  0  0  0  0  2  0  0  0  0  0  0
  190.4540  176.8460  142.2510 C   0  0  1  0  0  0  0  0  0  0  0  0
  189.2910  177.8230  142.2080 C   0  0  1  0  0  3  0  0  0  0  0  0
  190.6690  176.0310  141.1370 O   0  0  0  0  0  1  0  0  0  0  0  0
  189.3050  178.1860  139.7220 C   0  0  0  0  0  2  0  0  0  0  0  0
  189.1060  177.3490  138.4510 C   0  0  2  0  0  0  0  0  0  0  0  0
  190.5480  176.9620  136.3140 C   0  0  0  0  0  1  0  0  0  0  0  0
  190.5250  177.2000  137.8220 C   0  0  2  0  0  3  0  0  0  0  0  0
  191.4180  176.1990  138.5750 C   0  0  1  0  0  3  0  0  0  0  0  0
  191.3760  174.9320  137.9840 O   0  0  0  0  0  1  0  0  0  0  0  0
  193.6930  176.2470  137.8650 O   0  0  0  0  0  0  0  0  0  0  0  0
  192.8290  176.6810  138.6710 C   0  0  0  0  0  0  0  0  0  0  0  0
  193.1970  177.6010  139.6470 O   0  0  0  0  0  1  0  0  0  0  0  0
  188.1530  178.1750  137.5600 C   0  0  0  0  0  2  0  0  0  0  0  0
  188.2360  177.8370  136.2080 O   0  0  0  0  0  0  0  0  0  0  0  0
  187.0770  178.3640  135.6440 C   0  0  0  0  0  2  0  0  0  0  0  0
  185.8850  177.5340  136.0700 C   0  0  0  0  0  1  0  0  0  0  0  0
  188.5410  176.1050  138.8450 O   0  0  0  0  0  0  0  0  0  0  0  0
  187.6070  175.7350  137.9310 N   0  0  0  0  0  2  0  0  0  0  0  0
  188.0030  174.4330  137.4210 C   0  0  0  0  0  2  0  0  0  0  0  0
  187.9010  174.4150  135.9080 C   0  0  0  0  0  1  0  0  0  0  0  0
  1  3  2  0  0  0  0
  2  4  1  0  0  0  0
  2 30  1  0  0  0  0
  3  2  1  0  0  0  0
  4  5  1  1  0  0  0
  7  4  1  0  0  0  0
  7  6  1  1  0  0  0
  8  7  1  0  0  0  0
  9  8  1  0  0  0  0
 10  9  1  0  0  0  0
 11 21  1  6  0  0  0
 11 10  1  0  0  0  0
 13 16  1  0  0  0  0
 14 17  1  0  0  0  0
 15 14  1  0  0  0  0
 15 13  2  0  0  0  0
 16 12  2  0  0  0  0
 17 11  1  1  0  0  0
 17 12  1  0  0  0  0
 18 13  1  0  0  0  0
 18 20  1  0  0  0  0
 19 18  2  0  0  0  0
 21 22  1  0  0  0  0
 23 27  1  0  0  0  0
 24 28  1  0  0  0  0
 24 25  1  0  0  0  0
 26 29  1  0  0  0  0
 26 23  2  0  0  0  0
 27 25  2  0  0  0  0
 27 22  1  0  0  0  0
 29 24  2  0  0  0  0
 30 32  1  0  0  0  0
 32 31  1  0  0  0  0
 33 39  1  6  0  0  0
 33  3  1  0  0  0  0
 36 35  1  0  0  0  0
 36 34  1  1  0  0  0
 37 33  1  6  0  0  0
 37 36  1  0  0  0  0
 37 35  1  0  0  0  0
 38 36  1  0  0  0  0
 40 48  1  6  0  0  0
 40 52  1  0  0  0  0
 40 39  1  0  0  0  0
 42 41  1  6  0  0  0
 42 40  1  0  0  0  0
 42 43  1  0  0  0  0
 43 44  1  6  0  0  0
 43 46  1  0  0  0  0
 45 46  2  0  0  0  0
 46 47  1  0  0  0  0
 49 48  1  0  0  0  0
 50 51  1  0  0  0  0
 50 49  1  0  0  0  0
 53 52  1  0  0  0  0
 54 53  1  0  0  0  0
 55 54  1  0  0  0  0
M  END
>  <MODEL>
7

>  <REMARK>
 VINA RESULT:      -5.1      3.814      9.713
  Name = 
  26 active torsions:
  status: ('A' for Active; 'I' for Inactive)
    1  A    between atoms: C_1  and  N_30
    2  A    between atoms: C_2  and  C_28
    3  A    between atoms: C_2  and  C_44
    4  A    between atoms: C_6  and  C_8
    5  A    between atoms: C_6  and  O_20
    6  A    between atoms: C_6  and  C_38
    7  A    between atoms: C_6  and  C_46
    8  A    between atoms: C_7  and  C_8
    9  A    between atoms: C_7  and  C_23
   10  A    between atoms: C_7  and  C_43
   11  A    between atoms: C_10  and  C_32
   12  A    between atoms: C_11  and  C_29
   13  A    between atoms: C_11  and  C_38
   14  A    between atoms: C_12  and  O_14
   15  A    between atoms: O_14  and  C_46
   16  A    between atoms: C_16  and  N_17
   17  A    between atoms: C_16  and  C_26
   18  A    between atoms: N_17  and  C_37
   19  A    between atoms: C_19  and  C_45
   20  A    between atoms: C_19  and  C_49
   21  A    between atoms: O_20  and  N_30
   22  A    between atoms: C_26  and  C_45
   23  A    between atoms: C_28  and  C_33
   24  A    between atoms: C_33  and  C_49
   25  A    between atoms: C_33  and  C_52
   26  A    between atoms: C_37  and  O_40
                            x       y       z     vdW  Elec       q    Type
                         _______ _______ _______ _____ _____    ______ ____

>  <TORSDO>
F 26

$$$$
=
 OpenBabel10262420423D

 55 57  0  0  1  0  0  0  0  0999 V2000
  184.8050  177.5140  143.0760 O   0  0  0  0  0  0  0  0  0  0  0  0
  185.6520  178.6940  141.2380 N   0  0  0  0  0  0  0  0  0  0  0  0
  184.5610  178.1650  142.0250 C   0  0  0  0  0  0  0  0  0  0  0  0
  187.0020  178.7800  141.8250 C   0  0  2  0  0  3  0  0  0  0  0  0
  187.7610  180.0010  141.3060 C   0  0  0  0  0  1  0  0  0  0  0  0
  188.1440  176.9090  143.0480 C   0  0  0  0  0  1  0  0  0  0  0  0
  187.8240  177.4860  141.6790 C   0  0  2  0  0  3  0  0  0  0  0  0
  189.1100  177.6990  140.8810 C   0  0  0  0  0  2  0  0  0  0  0  0
  189.1810  176.7680  139.6770 C   0  0  0  0  0  2  0  0  0  0  0  0
  190.1300  177.3170  138.6200 C   0  0  0  0  0  2  0  0  0  0  0  0
  190.0540  176.4980  137.3360 C   0  0  1  0  0  3  0  0  0  0  0  0
  191.3670  174.3690  137.0870 C   0  0  0  0  0  3  0  0  0  0  0  0
  193.8050  174.3540  137.3420 C   0  0  0  0  0  0  0  0  0  0  0  0
  192.5690  176.4450  137.8360 C   0  0  0  0  0  2  0  0  0  0  0  0
  193.8340  175.6710  137.5920 C   0  0  0  0  0  3  0  0  0  0  0  0
  192.4990  173.6670  137.2110 C   0  0  0  0  0  3  0  0  0  0  0  0
  191.4130  175.8710  136.9990 C   0  0  2  0  0  3  0  0  0  0  0  0
  195.0630  173.6000  137.1800 C   0  0  0  0  0  0  0  0  0  0  0  0
  195.0750  172.3480  137.3070 O   0  0  0  0  0  0  0  0  0  0  0  0
  196.5990  174.4410  136.8030 S   0  0  0  0  0  1  0  0  0  0  0  0
  188.9380  175.4700  137.4530 C   0  0  0  0  0  2  0  0  0  0  0  0
  188.2230  175.3170  136.1220 C   0  0  0  0  0  2  0  0  0  0  0  0
  186.1950  174.3830  137.2480 C   0  0  0  0  0  3  0  0  0  0  0  0
  186.1230  172.2360  135.4560 C   0  0  0  0  0  0  0  0  0  0  0  0
  187.1220  173.2090  135.3420 C   0  0  0  0  0  3  0  0  0  0  0  0
  185.1990  173.4100  137.3640 C   0  0  0  0  0  3  0  0  0  0  0  0
  187.1560  174.2870  136.2340 C   0  0  0  0  0  0  0  0  0  0  0  0
  186.0940  171.1910  134.5960 F   0  0  0  0  0  0  0  0  0  0  0  0
  185.1620  172.3370  136.4680 C   0  0  0  0  0  3  0  0  0  0  0  0
  185.4390  178.9970  139.8230 C   0  0  0  0  0  2  0  0  0  0  0  0
  186.0310  178.0440  137.9210 C   0  0  0  0  0  1  0  0  0  0  0  0
  186.5570  178.6040  139.0850 O   0  0  0  0  0  0  0  0  0  0  0  0
  183.1180  178.3570  141.6360 C   0  0  2  0  0  3  0  0  0  0  0  0
  179.8420  178.6990  143.7020 C   0  0  0  0  0  1  0  0  0  0  0  0
  182.3570  179.0510  143.9120 C   0  0  0  0  0  2  0  0  0  0  0  0
  181.1370  179.1040  143.0280 C   0  0  1  0  0  0  0  0  0  0  0  0
  182.1820  178.0260  142.7940 C   0  0  1  0  0  3  0  0  0  0  0  0
  181.1200  180.2010  142.1620 O   0  0  0  0  0  1  0  0  0  0  0  0
  182.7280  177.5610  140.3860 C   0  0  0  0  0  2  0  0  0  0  0  0
  181.8790  178.3480  139.3790 C   0  0  2  0  0  0  0  0  0  0  0  0
  179.3390  178.5790  139.9210 C   0  0  0  0  0  1  0  0  0  0  0  0
  180.4680  177.6850  139.4140 C   0  0  2  0  0  3  0  0  0  0  0  0
  180.4650  176.3090  140.1030 C   0  0  1  0  0  3  0  0  0  0  0  0
  179.5180  176.2540  141.1310 O   0  0  0  0  0  1  0  0  0  0  0  0
  181.2130  174.5540  138.6740 O   0  0  0  0  0  0  0  0  0  0  0  0
  180.2340  175.2020  139.1260 C   0  0  0  0  0  0  0  0  0  0  0  0
  178.9460  174.8870  138.7080 O   0  0  0  0  0  1  0  0  0  0  0  0
  182.5800  178.1630  138.0160 C   0  0  0  0  0  2  0  0  0  0  0  0
  181.8010  177.4700  137.0880 O   0  0  0  0  0  0  0  0  0  0  0  0
  181.5070  178.4120  136.1050 C   0  0  0  0  0  2  0  0  0  0  0  0
  182.1980  178.0280  134.8140 C   0  0  0  0  0  1  0  0  0  0  0  0
  181.8640  179.7050  139.8030 O   0  0  0  0  0  0  0  0  0  0  0  0
  182.1110  180.5050  138.7330 N   0  0  0  0  0  2  0  0  0  0  0  0
  181.1090  181.5570  138.7480 C   0  0  0  0  0  2  0  0  0  0  0  0
  181.0410  182.2270  137.3890 C   0  0  0  0  0  1  0  0  0  0  0  0
  2  4  1  0  0  0  0
  2  3  1  0  0  0  0
  3  1  2  0  0  0  0
  4  5  1  6  0  0  0
  7  4  1  0  0  0  0
  7  6  1  1  0  0  0
  8  7  1  0  0  0  0
  9  8  1  0  0  0  0
 10  9  1  0  0  0  0
 11 21  1  1  0  0  0
 11 10  1  0  0  0  0
 12 16  2  0  0  0  0
 13 15  2  0  0  0  0
 15 14  1  0  0  0  0
 16 13  1  0  0  0  0
 17 12  1  0  0  0  0
 17 11  1  1  0  0  0
 17 14  1  0  0  0  0
 18 19  2  0  0  0  0
 18 13  1  0  0  0  0
 20 18  1  0  0  0  0
 22 27  1  0  0  0  0
 22 21  1  0  0  0  0
 23 26  1  0  0  0  0
 24 29  1  0  0  0  0
 25 24  2  0  0  0  0
 25 27  1  0  0  0  0
 27 23  2  0  0  0  0
 28 24  1  0  0  0  0
 29 26  2  0  0  0  0
 30  2  1  0  0  0  0
 31 32  1  0  0  0  0
 32 30  1  0  0  0  0
 33 39  1  6  0  0  0
 33  3  1  0  0  0  0
 36 34  1  1  0  0  0
 36 35  1  0  0  0  0
 37 33  1  6  0  0  0
 37 36  1  0  0  0  0
 37 35  1  0  0  0  0
 38 36  1  0  0  0  0
 40 48  1  6  0  0  0
 40 42  1  0  0  0  0
 40 52  1  0  0  0  0
 40 39  1  0  0  0  0
 42 41  1  1  0  0  0
 42 43  1  0  0  0  0
 43 44  1  1  0  0  0
 45 46  2  0  0  0  0
 46 43  1  0  0  0  0
 47 46  1  0  0  0  0
 49 48  1  0  0  0  0
 50 49  1  0  0  0  0
 51 50  1  0  0  0  0
 53 54  1  0  0  0  0
 53 52  1  0  0  0  0
 55 54  1  0  0  0  0
M  END
>  <MODEL>
8

>  <REMARK>
 VINA RESULT:      -4.9      3.210      6.059
  Name = 
  26 active torsions:
  status: ('A' for Active; 'I' for Inactive)
    1  A    between atoms: C_1  and  N_30
    2  A    between atoms: C_2  and  C_28
    3  A    between atoms: C_2  and  C_44
    4  A    between atoms: C_6  and  C_8
    5  A    between atoms: C_6  and  O_20
    6  A    between atoms: C_6  and  C_38
    7  A    between atoms: C_6  and  C_46
    8  A    between atoms: C_7  and  C_8
    9  A    between atoms: C_7  and  C_23
   10  A    between atoms: C_7  and  C_43
   11  A    between atoms: C_10  and  C_32
   12  A    between atoms: C_11  and  C_29
   13  A    between atoms: C_11  and  C_38
   14  A    between atoms: C_12  and  O_14
   15  A    between atoms: O_14  and  C_46
   16  A    between atoms: C_16  and  N_17
   17  A    between atoms: C_16  and  C_26
   18  A    between atoms: N_17  and  C_37
   19  A    between atoms: C_19  and  C_45
   20  A    between atoms: C_19  and  C_49
   21  A    between atoms: O_20  and  N_30
   22  A    between atoms: C_26  and  C_45
   23  A    between atoms: C_28  and  C_33
   24  A    between atoms: C_33  and  C_49
   25  A    between atoms: C_33  and  C_52
   26  A    between atoms: C_37  and  O_40
                            x       y       z     vdW  Elec       q    Type
                         _______ _______ _______ _____ _____    ______ ____

>  <TORSDO>
F 26

$$$$
=
 OpenBabel10262420423D

 55 57  0  0  1  0  0  0  0  0999 V2000
  185.7200  177.5640  139.0450 O   0  0  0  0  0  0  0  0  0  0  0  0
  185.9500  177.7760  136.7230 N   0  0  0  0  0  0  0  0  0  0  0  0
  185.1540  177.6220  137.9200 C   0  0  0  0  0  0  0  0  0  0  0  0
  187.3570  178.2080  136.8310 C   0  0  2  0  0  3  0  0  0  0  0  0
  188.2360  177.5150  135.7910 C   0  0  0  0  0  1  0  0  0  0  0  0
  188.7460  179.3180  138.6010 C   0  0  0  0  0  1  0  0  0  0  0  0
  187.9350  178.0820  138.2520 C   0  0  2  0  0  3  0  0  0  0  0  0
  188.7860  176.8240  138.4250 C   0  0  0  0  0  2  0  0  0  0  0  0
  189.0790  176.5440  139.8930 C   0  0  0  0  0  2  0  0  0  0  0  0
  189.7750  177.7300  140.5460 C   0  0  0  0  0  2  0  0  0  0  0  0
  189.6990  177.6440  142.0660 C   0  0  1  0  0  3  0  0  0  0  0  0
  187.5310  177.0010  143.1650 C   0  0  0  0  0  3  0  0  0  0  0  0
  185.5030  178.3350  142.8290 C   0  0  0  0  0  0  0  0  0  0  0  0
  187.5330  178.9030  141.5230 C   0  0  0  0  0  2  0  0  0  0  0  0
  186.1450  179.1940  142.0230 C   0  0  0  0  0  3  0  0  0  0  0  0
  186.2080  177.1250  143.3100 C   0  0  0  0  0  3  0  0  0  0  0  0
  188.3380  178.1300  142.5800 C   0  0  2  0  0  3  0  0  0  0  0  0
  184.1140  178.6060  143.2460 C   0  0  0  0  0  0  0  0  0  0  0  0
  183.1590  178.3780  142.4590 O   0  0  0  0  0  0  0  0  0  0  0  0
  183.7510  179.2630  144.8720 S   0  0  0  0  0  1  0  0  0  0  0  0
  190.0310  176.2260  142.5120 C   0  0  0  0  0  2  0  0  0  0  0  0
  191.3680  176.2030  143.2330 C   0  0  0  0  0  2  0  0  0  0  0  0
  190.0840  177.2400  145.1120 C   0  0  0  0  0  3  0  0  0  0  0  0
  191.8840  176.2020  146.9850 C   0  0  0  0  0  0  0  0  0  0  0  0
  192.0700  175.9480  145.6220 C   0  0  0  0  0  3  0  0  0  0  0  0
  189.9010  177.4960  146.4740 C   0  0  0  0  0  3  0  0  0  0  0  0
  191.1670  176.4620  144.6840 C   0  0  0  0  0  0  0  0  0  0  0  0
  192.7600  175.7090  147.8920 F   0  0  0  0  0  0  0  0  0  0  0  0
  190.8000  176.9770  147.4110 C   0  0  0  0  0  3  0  0  0  0  0  0
  185.4010  177.3580  135.4340 C   0  0  0  0  0  2  0  0  0  0  0  0
  185.4540  175.2010  134.9620 C   0  0  0  0  0  1  0  0  0  0  0  0
  186.2120  176.3690  134.8760 O   0  0  0  0  0  0  0  0  0  0  0  0
  183.6520  177.5230  137.8830 C   0  0  2  0  0  3  0  0  0  0  0  0
  181.0460  179.8730  139.5580 C   0  0  0  0  0  1  0  0  0  0  0  0
  183.5520  179.6830  139.1340 C   0  0  0  0  0  2  0  0  0  0  0  0
  182.1560  179.4280  138.6270 C   0  0  1  0  0  0  0  0  0  0  0  0
  183.0180  178.2540  139.0620 C   0  0  1  0  0  3  0  0  0  0  0  0
  182.0060  179.6610  137.2570 O   0  0  0  0  0  1  0  0  0  0  0  0
  183.1530  176.0750  137.8170 C   0  0  0  0  0  2  0  0  0  0  0  0
  181.9530  175.8660  136.8840 C   0  0  2  0  0  0  0  0  0  0  0  0
  181.2960  174.1970  134.9930 C   0  0  0  0  0  1  0  0  0  0  0  0
  182.2030  174.4950  136.1840 C   0  0  2  0  0  3  0  0  0  0  0  0
  182.2620  173.3160  137.1700 C   0  0  1  0  0  3  0  0  0  0  0  0
  181.0570  172.6060  137.1910 O   0  0  0  0  0  1  0  0  0  0  0  0
  184.5310  172.6140  137.3710 O   0  0  0  0  0  1  0  0  0  0  0  0
  183.4000  172.3970  136.8650 C   0  0  0  0  0  0  0  0  0  0  0  0
  183.2210  171.3070  136.0200 O   0  0  0  0  0  0  0  0  0  0  0  0
  181.9940  177.0480  135.8900 C   0  0  0  0  0  2  0  0  0  0  0  0
  180.9480  177.0230  134.9670 O   0  0  0  0  0  0  0  0  0  0  0  0
  180.3550  178.2790  135.0770 C   0  0  0  0  0  2  0  0  0  0  0  0
  178.9610  178.1320  135.6480 C   0  0  0  0  0  1  0  0  0  0  0  0
  180.7810  175.8720  137.6890 O   0  0  0  0  0  0  0  0  0  0  0  0
  181.0610  175.2830  138.8810 N   0  0  0  0  0  2  0  0  0  0  0  0
  180.5340  176.1520  139.9190 C   0  0  0  0  0  2  0  0  0  0  0  0
  179.0380  175.9470  140.0570 C   0  0  0  0  0  1  0  0  0  0  0  0
  2  4  1  0  0  0  0
  2  3  1  0  0  0  0
  3  1  2  0  0  0  0
  4  5  1  6  0  0  0
  4  7  1  0  0  0  0
  7  8  1  0  0  0  0
  7  6  1  6  0  0  0
  8  9  1  0  0  0  0
  9 10  1  0  0  0  0
 11 10  1  6  0  0  0
 11 21  1  0  0  0  0
 12 16  2  0  0  0  0
 13 18  1  0  0  0  0
 13 16  1  0  0  0  0
 14 15  1  0  0  0  0
 14 17  1  0  0  0  0
 15 13  2  0  0  0  0
 17 11  1  6  0  0  0
 17 12  1  0  0  0  0
 18 20  1  0  0  0  0
 19 18  2  0  0  0  0
 21 22  1  0  0  0  0
 22 27  1  0  0  0  0
 23 26  1  0  0  0  0
 24 29  1  0  0  0  0
 24 28  1  0  0  0  0
 25 24  2  0  0  0  0
 26 29  2  0  0  0  0
 27 23  2  0  0  0  0
 27 25  1  0  0  0  0
 30  2  1  0  0  0  0
 32 31  1  0  0  0  0
 32 30  1  0  0  0  0
 33 39  1  1  0  0  0
 33  3  1  0  0  0  0
 36 37  1  0  0  0  0
 36 35  1  0  0  0  0
 36 34  1  1  0  0  0
 37 33  1  6  0  0  0
 37 35  1  0  0  0  0
 38 36  1  0  0  0  0
 40 48  1  6  0  0  0
 40 52  1  0  0  0  0
 40 39  1  0  0  0  0
 42 41  1  6  0  0  0
 42 40  1  0  0  0  0
 42 43  1  0  0  0  0
 43 44  1  6  0  0  0
 46 43  1  0  0  0  0
 46 45  1  0  0  0  0
 47 46  2  0  0  0  0
 49 50  1  0  0  0  0
 49 48  1  0  0  0  0
 50 51  1  0  0  0  0
 52 53  1  0  0  0  0
 53 54  1  0  0  0  0
 54 55  1  0  0  0  0
M  END
>  <MODEL>
9

>  <REMARK>
 VINA RESULT:      -4.6      2.752      5.154
  Name = 
  26 active torsions:
  status: ('A' for Active; 'I' for Inactive)
    1  A    between atoms: C_1  and  N_30
    2  A    between atoms: C_2  and  C_28
    3  A    between atoms: C_2  and  C_44
    4  A    between atoms: C_6  and  C_8
    5  A    between atoms: C_6  and  O_20
    6  A    between atoms: C_6  and  C_38
    7  A    between atoms: C_6  and  C_46
    8  A    between atoms: C_7  and  C_8
    9  A    between atoms: C_7  and  C_23
   10  A    between atoms: C_7  and  C_43
   11  A    between atoms: C_10  and  C_32
   12  A    between atoms: C_11  and  C_29
   13  A    between atoms: C_11  and  C_38
   14  A    between atoms: C_12  and  O_14
   15  A    between atoms: O_14  and  C_46
   16  A    between atoms: C_16  and  N_17
   17  A    between atoms: C_16  and  C_26
   18  A    between atoms: N_17  and  C_37
   19  A    between atoms: C_19  and  C_45
   20  A    between atoms: C_19  and  C_49
   21  A    between atoms: O_20  and  N_30
   22  A    between atoms: C_26  and  C_45
   23  A    between atoms: C_28  and  C_33
   24  A    between atoms: C_33  and  C_49
   25  A    between atoms: C_33  and  C_52
   26  A    between atoms: C_37  and  O_40
                            x       y       z     vdW  Elec       q    Type
                         _______ _______ _______ _____ _____    ______ ____

>  <TORSDO>
F 26

$$$$
