=
 OpenBabel10262423383D

 34 37  0  0  1  0  0  0  0  0999 V2000
  184.4330  176.7430  137.5940 C   0  0  2  0  0  3  0  0  0  0  0  0
  180.4280  179.2030  135.4060 C   0  0  0  0  0  1  0  0  0  0  0  0
  182.2800  177.1610  136.2690 C   0  0  0  0  0  2  0  0  0  0  0  0
  183.1200  176.6870  139.7090 C   0  0  0  0  0  2  0  0  0  0  0  0
  182.0040  175.9240  138.9850 C   0  0  0  0  0  2  0  0  0  0  0  0
  183.2220  176.1100  136.8890 C   0  0  2  0  0  3  0  0  0  0  0  0
  183.8720  177.6030  138.7370 C   0  0  2  0  0  3  0  0  0  0  0  0
  182.5140  175.2050  137.8090 N   0  0  0  0  0  2  0  0  0  0  0  0
  181.2440  179.4450  136.6410 C   0  0  0  0  0  0  0  0  0  0  0  0
  181.1420  180.6640  137.3640 C   0  0  0  0  0  0  0  0  0  0  0  0
  181.9570  180.8590  138.4860 C   0  0  0  0  0  3  0  0  0  0  0  0
  182.1420  178.4440  137.0720 C   0  0  0  0  0  0  0  0  0  0  0  0
  182.8490  179.8780  138.9070 C   0  0  0  0  0  3  0  0  0  0  0  0
  182.9530  178.6740  138.2080 C   0  0  0  0  0  0  0  0  0  0  0  0
  186.3390  178.2160  137.4720 C   0  0  1  0  0  3  0  0  0  0  0  0
  187.4260  175.9530  137.5340 O   0  0  0  0  0  0  0  0  0  0  0  0
  185.9930  176.6880  135.6660 C   0  0  2  0  0  3  0  0  0  0  0  0
  185.3040  177.5220  136.6770 N   0  0  1  0  0  0  0  0  0  0  0  0
  185.0730  176.1520  134.6740 N   0  0  0  0  0  1  0  0  0  0  0  0
  186.9050  174.4640  135.8580 O   0  0  0  0  0  0  0  0  0  0  0  0
  187.4730  177.3020  138.0110 C   0  0  2  0  0  3  0  0  0  0  0  0
  186.8040  175.6260  136.3340 C   0  0  0  0  0  0  0  0  0  0  0  0
  186.8900  179.2600  136.7290 O   0  0  0  0  0  1  0  0  0  0  0  0
  187.4810  177.3090  139.4170 O   0  0  0  0  0  0  0  0  0  0  0  0
  188.4420  178.2450  139.8630 C   0  0  2  0  0  3  0  0  0  0  0  0
  189.7550  177.5720  140.2400 C   0  0  0  0  0  1  0  0  0  0  0  0
  187.9570  179.0450  140.9410 O   0  0  0  0  0  0  0  0  0  0  0  0
  186.6780  178.8770  141.4740 C   0  0  0  0  0  0  0  0  0  0  0  0
  185.6880  179.4820  140.9750 O   0  0  0  0  0  0  0  0  0  0  0  0
  186.5010  177.9790  142.6180 C   0  0  0  0  0  3  0  0  0  0  0  0
  187.5210  177.4960  143.2510 N   0  0  0  0  0  2  0  0  0  0  0  0
  180.2010  181.7550  137.0070 C   0  0  0  0  0  0  0  0  0  0  0  0
  179.0290  181.7860  137.4670 O   0  0  0  0  0  1  0  0  0  0  0  0
  180.6180  182.7880  136.1710 O   0  0  0  0  0  0  0  0  0  0  0  0
  1 18  1  6  0  0  0
  1  7  1  0  0  0  0
  2  9  1  0  0  0  0
  3 12  1  0  0  0  0
  5  4  1  0  0  0  0
  6  3  1  1  0  0  0
  6  1  1  0  0  0  0
  6  8  1  0  0  0  0
  7  4  1  1  0  0  0
  8  5  1  0  0  0  0
  9 12  2  0  0  0  0
  9 10  1  0  0  0  0
 10 11  2  0  0  0  0
 11 13  1  0  0  0  0
 12 14  1  0  0  0  0
 14  7  1  0  0  0  0
 14 13  2  0  0  0  0
 15 23  1  6  0  0  0
 15 21  1  0  0  0  0
 16 21  1  0  0  0  0
 17 19  1  6  0  0  0
 17 22  1  0  0  0  0
 17 18  1  0  0  0  0
 18 15  1  0  0  0  0
 20 22  2  0  0  0  0
 21 24  1  0  0  0  0
 22 16  1  0  0  0  0
 24 25  1  0  0  0  0
 25 26  1  0  0  0  0
 25 27  1  0  0  0  0
 27 28  1  0  0  0  0
 28 30  1  0  0  0  0
 29 28  2  0  0  0  0
 30 31  2  0  0  0  0
 32 10  1  0  0  0  0
 32 33  1  0  0  0  0
 34 32  2  0  0  0  0
M  END
>  <MODEL>
1

>  <REMARK>
 VINA RESULT:      -5.7      0.000      0.000
  Name = 
  7 active torsions:
  status: ('A' for Active; 'I' for Inactive)
    1  A    between atoms: C_1  and  N_9
    2  A    between atoms: C_3  and  C_25
    3  A    between atoms: C_7  and  O_16
    4  A    between atoms: C_7  and  O_21
    5  A    between atoms: C_11  and  O_21
    6  A    between atoms: C_11  and  C_26
    7  A    between atoms: O_16  and  C_28
                            x       y       z     vdW  Elec       q    Type
                         _______ _______ _______ _____ _____    ______ ____

>  <TORSDO>
F 7

$$$$
=
 OpenBabel10262423383D

 34 37  0  0  1  0  0  0  0  0999 V2000
  184.5880  176.9110  137.9830 C   0  0  2  0  0  3  0  0  0  0  0  0
  180.4450  178.8910  135.5760 C   0  0  0  0  0  1  0  0  0  0  0  0
  182.3950  177.0600  136.6670 C   0  0  0  0  0  2  0  0  0  0  0  0
  183.3200  177.1010  140.1170 C   0  0  0  0  0  2  0  0  0  0  0  0
  182.2220  176.2020  139.5340 C   0  0  0  0  0  2  0  0  0  0  0  0
  183.3910  176.1410  137.4020 C   0  0  2  0  0  3  0  0  0  0  0  0
  184.0150  177.9000  139.0100 C   0  0  2  0  0  3  0  0  0  0  0  0
  182.7380  175.3460  138.4560 N   0  0  0  0  0  2  0  0  0  0  0  0
  181.2740  179.3320  136.7450 C   0  0  0  0  0  0  0  0  0  0  0  0
  181.1370  180.6350  137.2950 C   0  0  0  0  0  0  0  0  0  0  0  0
  181.9640  181.0150  138.3580 C   0  0  0  0  0  3  0  0  0  0  0  0
  182.2200  178.4350  137.2880 C   0  0  0  0  0  0  0  0  0  0  0  0
  182.9030  180.1360  138.8890 C   0  0  0  0  0  3  0  0  0  0  0  0
  183.0430  178.8520  138.3610 C   0  0  0  0  0  0  0  0  0  0  0  0
  186.3740  178.4880  137.6100 C   0  0  1  0  0  3  0  0  0  0  0  0
  187.6340  176.3640  138.0640 O   0  0  0  0  0  0  0  0  0  0  0  0
  186.1760  176.6490  136.0960 C   0  0  2  0  0  3  0  0  0  0  0  0
  185.4080  177.5870  136.9460 N   0  0  1  0  0  0  0  0  0  0  0  0
  185.3160  175.8780  135.2100 N   0  0  0  0  0  1  0  0  0  0  0  0
  187.2570  174.5710  136.6700 O   0  0  0  0  0  0  0  0  0  0  0  0
  187.5690  177.7740  138.2990 C   0  0  2  0  0  3  0  0  0  0  0  0
  187.0570  175.7860  136.9380 C   0  0  0  0  0  0  0  0  0  0  0  0
  186.8530  179.4280  136.6980 O   0  0  0  0  0  1  0  0  0  0  0  0
  187.5560  178.0240  139.6830 O   0  0  0  0  0  0  0  0  0  0  0  0
  188.7430  177.5060  140.2510 C   0  0  2  0  0  3  0  0  0  0  0  0
  188.7870  177.7170  141.7580 C   0  0  0  0  0  1  0  0  0  0  0  0
  189.9140  178.0390  139.6320 O   0  0  0  0  0  0  0  0  0  0  0  0
  191.0700  177.2770  139.4530 C   0  0  0  0  0  0  0  0  0  0  0  0
  192.0170  177.3380  140.2850 O   0  0  0  0  0  0  0  0  0  0  0  0
  191.1630  176.3980  138.2830 C   0  0  0  0  0  3  0  0  0  0  0  0
  190.8870  175.1370  138.3730 N   0  0  0  0  0  2  0  0  0  0  0  0
  180.1450  181.6300  136.8140 C   0  0  0  0  0  0  0  0  0  0  0  0
  178.9790  181.6720  137.2860 O   0  0  0  0  0  1  0  0  0  0  0  0
  180.5070  182.5600  135.8430 O   0  0  0  0  0  0  0  0  0  0  0  0
  1 18  1  6  0  0  0
  1  7  1  0  0  0  0
  2  9  1  0  0  0  0
  3 12  1  0  0  0  0
  5  4  1  0  0  0  0
  6  3  1  1  0  0  0
  6  1  1  0  0  0  0
  6  8  1  0  0  0  0
  7  4  1  1  0  0  0
  8  5  1  0  0  0  0
  9 12  2  0  0  0  0
  9 10  1  0  0  0  0
 10 11  2  0  0  0  0
 11 13  1  0  0  0  0
 12 14  1  0  0  0  0
 14 13  2  0  0  0  0
 14  7  1  0  0  0  0
 15 23  1  6  0  0  0
 15 21  1  0  0  0  0
 16 21  1  0  0  0  0
 17 19  1  1  0  0  0
 17 22  1  0  0  0  0
 17 18  1  0  0  0  0
 18 15  1  0  0  0  0
 20 22  2  0  0  0  0
 21 24  1  0  0  0  0
 22 16  1  0  0  0  0
 24 25  1  0  0  0  0
 25 26  1  0  0  0  0
 27 25  1  0  0  0  0
 28 27  1  0  0  0  0
 28 29  2  0  0  0  0
 30 31  2  0  0  0  0
 30 28  1  0  0  0  0
 32 33  1  0  0  0  0
 32 10  1  0  0  0  0
 34 32  2  0  0  0  0
M  END
>  <MODEL>
2

>  <REMARK>
 VINA RESULT:      -5.7      1.591      2.247
  Name = 
  7 active torsions:
  status: ('A' for Active; 'I' for Inactive)
    1  A    between atoms: C_1  and  N_9
    2  A    between atoms: C_3  and  C_25
    3  A    between atoms: C_7  and  O_16
    4  A    between atoms: C_7  and  O_21
    5  A    between atoms: C_11  and  O_21
    6  A    between atoms: C_11  and  C_26
    7  A    between atoms: O_16  and  C_28
                            x       y       z     vdW  Elec       q    Type
                         _______ _______ _______ _____ _____    ______ ____

>  <TORSDO>
F 7

$$$$
=
 OpenBabel10262423383D

 34 37  0  0  1  0  0  0  0  0999 V2000
  183.3710  177.8230  137.1810 C   0  0  2  0  0  3  0  0  0  0  0  0
  181.2710  173.3130  135.7230 C   0  0  0  0  0  1  0  0  0  0  0  0
  181.9840  176.1070  135.8780 C   0  0  0  0  0  2  0  0  0  0  0  0
  185.3820  177.2080  135.8470 C   0  0  0  0  0  2  0  0  0  0  0  0
  184.5060  177.0960  134.5940 C   0  0  0  0  0  2  0  0  0  0  0  0
  182.5230  177.5510  135.9280 C   0  0  2  0  0  3  0  0  0  0  0  0
  184.5770  176.8730  137.1070 C   0  0  2  0  0  3  0  0  0  0  0  0
  183.2820  177.9010  134.7150 N   0  0  0  0  0  2  0  0  0  0  0  0
  182.5720  173.6900  136.3660 C   0  0  0  0  0  0  0  0  0  0  0  0
  183.4330  172.7060  136.9210 C   0  0  0  0  0  0  0  0  0  0  0  0
  184.6160  173.1120  137.5490 C   0  0  0  0  0  3  0  0  0  0  0  0
  182.9290  175.0550  136.4330 C   0  0  0  0  0  0  0  0  0  0  0  0
  184.9650  174.4570  137.6240 C   0  0  0  0  0  3  0  0  0  0  0  0
  184.1310  175.4330  137.0760 C   0  0  0  0  0  0  0  0  0  0  0  0
  183.5570  177.7050  139.5830 C   0  0  1  0  0  3  0  0  0  0  0  0
  183.5370  180.1830  139.1780 O   0  0  0  0  0  0  0  0  0  0  0  0
  181.6070  178.7370  138.6650 C   0  0  2  0  0  3  0  0  0  0  0  0
  182.6110  177.6710  138.4480 N   0  0  1  0  0  0  0  0  0  0  0  0
  180.4890  178.6380  137.7380 N   0  0  0  0  0  1  0  0  0  0  0  0
  181.7010  181.0850  138.1230 O   0  0  0  0  0  0  0  0  0  0  0  0
  184.1260  179.1090  139.9210 C   0  0  2  0  0  3  0  0  0  0  0  0
  182.2600  180.0800  138.6380 C   0  0  0  0  0  0  0  0  0  0  0  0
  182.9590  177.1550  140.7170 O   0  0  0  0  0  1  0  0  0  0  0  0
  185.5220  179.1260  139.7530 O   0  0  0  0  0  0  0  0  0  0  0  0
  186.1310  178.7080  140.9580 C   0  0  2  0  0  3  0  0  0  0  0  0
  185.4150  179.2690  142.1790 C   0  0  0  0  0  1  0  0  0  0  0  0
  187.5230  179.0250  140.9980 O   0  0  0  0  0  0  0  0  0  0  0  0
  188.5090  178.0770  140.7230 C   0  0  0  0  0  0  0  0  0  0  0  0
  188.9200  177.2950  141.6250 O   0  0  0  0  0  0  0  0  0  0  0  0
  189.0560  178.0000  139.3660 C   0  0  0  0  0  3  0  0  0  0  0  0
  189.0170  179.0210  138.5710 N   0  0  0  0  0  2  0  0  0  0  0  0
  183.1580  171.2470  136.8640 C   0  0  0  0  0  0  0  0  0  0  0  0
  182.1570  170.7470  137.4390 O   0  0  0  0  0  1  0  0  0  0  0  0
  184.0000  170.4100  136.1370 O   0  0  0  0  0  0  0  0  0  0  0  0
  1 18  1  1  0  0  0
  2  9  1  0  0  0  0
  3 12  1  0  0  0  0
  5  8  1  0  0  0  0
  5  4  1  0  0  0  0
  6  3  1  6  0  0  0
  6  1  1  0  0  0  0
  7  4  1  6  0  0  0
  7  1  1  0  0  0  0
  8  6  1  0  0  0  0
  9 12  2  0  0  0  0
  9 10  1  0  0  0  0
 10 11  2  0  0  0  0
 11 13  1  0  0  0  0
 12 14  1  0  0  0  0
 14  7  1  0  0  0  0
 14 13  2  0  0  0  0
 15 21  1  0  0  0  0
 15 23  1  1  0  0  0
 16 21  1  0  0  0  0
 17 19  1  6  0  0  0
 18 17  1  0  0  0  0
 18 15  1  0  0  0  0
 20 22  2  0  0  0  0
 22 17  1  0  0  0  0
 22 16  1  0  0  0  0
 24 21  1  0  0  0  0
 24 25  1  0  0  0  0
 25 27  1  0  0  0  0
 25 26  1  0  0  0  0
 28 27  1  0  0  0  0
 28 29  2  0  0  0  0
 30 28  1  0  0  0  0
 31 30  2  0  0  0  0
 32 10  1  0  0  0  0
 32 33  1  0  0  0  0
 34 32  2  0  0  0  0
M  END
>  <MODEL>
3

>  <REMARK>
 VINA RESULT:      -5.2      2.662      5.857
  Name = 
  7 active torsions:
  status: ('A' for Active; 'I' for Inactive)
    1  A    between atoms: C_1  and  N_9
    2  A    between atoms: C_3  and  C_25
    3  A    between atoms: C_7  and  O_16
    4  A    between atoms: C_7  and  O_21
    5  A    between atoms: C_11  and  O_21
    6  A    between atoms: C_11  and  C_26
    7  A    between atoms: O_16  and  C_28
                            x       y       z     vdW  Elec       q    Type
                         _______ _______ _______ _____ _____    ______ ____

>  <TORSDO>
F 7

$$$$
=
 OpenBabel10262423383D

 34 37  0  0  1  0  0  0  0  0999 V2000
  182.5320  175.8420  137.2700 C   0  0  2  0  0  3  0  0  0  0  0  0
  178.9310  179.5650  137.0580 C   0  0  0  0  0  1  0  0  0  0  0  0
  180.2460  176.9970  137.2010 C   0  0  0  0  0  2  0  0  0  0  0  0
  182.6550  176.2340  139.7260 C   0  0  0  0  0  2  0  0  0  0  0  0
  181.1600  175.9150  139.8430 C   0  0  0  0  0  2  0  0  0  0  0  0
  181.0110  175.6780  137.4270 C   0  0  2  0  0  3  0  0  0  0  0  0
  182.9790  176.8350  138.3540 C   0  0  2  0  0  3  0  0  0  0  0  0
  180.6970  175.0710  138.7320 N   0  0  0  0  0  2  0  0  0  0  0  0
  180.3180  179.4970  137.6200 C   0  0  0  0  0  0  0  0  0  0  0  0
  180.9980  180.6690  138.0480 C   0  0  0  0  0  0  0  0  0  0  0  0
  182.3100  180.5580  138.5260 C   0  0  0  0  0  3  0  0  0  0  0  0
  180.9600  178.2410  137.7030 C   0  0  0  0  0  0  0  0  0  0  0  0
  182.9470  179.3230  138.6000 C   0  0  0  0  0  3  0  0  0  0  0  0
  182.2870  178.1650  138.1880 C   0  0  0  0  0  0  0  0  0  0  0  0
  184.3530  176.6970  135.9400 C   0  0  1  0  0  3  0  0  0  0  0  0
  184.8130  174.2290  135.9370 O   0  0  0  0  0  0  0  0  0  0  0  0
  182.8080  175.2080  134.8880 C   0  0  2  0  0  3  0  0  0  0  0  0
  182.9380  176.2730  135.9080 N   0  0  1  0  0  0  0  0  0  0  0  0
  181.4180  174.8880  134.5990 N   0  0  0  0  0  1  0  0  0  0  0  0
  183.1990  172.8360  135.0710 O   0  0  0  0  0  0  0  0  0  0  0  0
  185.3820  175.5390  136.0400 C   0  0  2  0  0  3  0  0  0  0  0  0
  183.6050  174.0080  135.2850 C   0  0  0  0  0  0  0  0  0  0  0  0
  184.6390  177.4850  134.8260 O   0  0  0  0  0  1  0  0  0  0  0  0
  186.1230  175.6420  137.2310 O   0  0  0  0  0  0  0  0  0  0  0  0
  187.3130  176.3570  136.9670 C   0  0  2  0  0  3  0  0  0  0  0  0
  188.2230  175.6060  136.0040 C   0  0  0  0  0  1  0  0  0  0  0  0
  188.0150  176.6990  138.1630 O   0  0  0  0  0  0  0  0  0  0  0  0
  188.1720  178.0220  138.5790 C   0  0  0  0  0  0  0  0  0  0  0  0
  188.0840  178.9720  137.7530 O   0  0  0  0  0  0  0  0  0  0  0  0
  188.4320  178.2900  139.9970 C   0  0  0  0  0  3  0  0  0  0  0  0
  187.4610  178.4810  140.8290 N   0  0  0  0  0  2  0  0  0  0  0  0
  180.3900  182.0230  138.0340 C   0  0  0  0  0  0  0  0  0  0  0  0
  180.5900  182.8200  137.0810 O   0  0  0  0  0  0  0  0  0  0  0  0
  179.5550  182.4210  139.0750 O   0  0  0  0  0  1  0  0  0  0  0  0
  1 18  1  6  0  0  0
  1  6  1  0  0  0  0
  1  7  1  0  0  0  0
  2  9  1  0  0  0  0
  3 12  1  0  0  0  0
  4  5  1  0  0  0  0
  6  3  1  1  0  0  0
  6  8  1  0  0  0  0
  7  4  1  1  0  0  0
  8  5  1  0  0  0  0
  9 12  2  0  0  0  0
  9 10  1  0  0  0  0
 10 11  2  0  0  0  0
 11 13  1  0  0  0  0
 12 14  1  0  0  0  0
 14  7  1  0  0  0  0
 14 13  2  0  0  0  0
 15 23  1  6  0  0  0
 15 21  1  0  0  0  0
 16 21  1  0  0  0  0
 17 19  1  1  0  0  0
 17 22  1  0  0  0  0
 17 18  1  0  0  0  0
 18 15  1  0  0  0  0
 20 22  2  0  0  0  0
 21 24  1  0  0  0  0
 22 16  1  0  0  0  0
 25 24  1  0  0  0  0
 25 27  1  0  0  0  0
 26 25  1  0  0  0  0
 27 28  1  0  0  0  0
 28 30  1  0  0  0  0
 29 28  2  0  0  0  0
 30 31  2  0  0  0  0
 32 10  1  0  0  0  0
 32 34  1  0  0  0  0
 33 32  2  0  0  0  0
M  END
>  <MODEL>
4

>  <REMARK>
 VINA RESULT:      -4.6      1.848      2.785
  Name = 
  7 active torsions:
  status: ('A' for Active; 'I' for Inactive)
    1  A    between atoms: C_1  and  N_9
    2  A    between atoms: C_3  and  C_25
    3  A    between atoms: C_7  and  O_16
    4  A    between atoms: C_7  and  O_21
    5  A    between atoms: C_11  and  O_21
    6  A    between atoms: C_11  and  C_26
    7  A    between atoms: O_16  and  C_28
                            x       y       z     vdW  Elec       q    Type
                         _______ _______ _______ _____ _____    ______ ____

>  <TORSDO>
F 7

$$$$
=
 OpenBabel10262423383D

 34 37  0  0  1  0  0  0  0  0999 V2000
  187.7670  176.6040  136.7790 C   0  0  2  0  0  3  0  0  0  0  0  0
  188.0980  178.0020  141.7600 C   0  0  0  0  0  1  0  0  0  0  0  0
  188.7570  177.3040  139.0360 C   0  0  0  0  0  2  0  0  0  0  0  0
  187.3130  178.9910  136.2380 C   0  0  0  0  0  2  0  0  0  0  0  0
  188.6510  179.3810  136.8770 C   0  0  0  0  0  2  0  0  0  0  0  0
  189.0220  177.0690  137.5350 C   0  0  2  0  0  3  0  0  0  0  0  0
  186.7360  177.7370  136.9020 C   0  0  2  0  0  3  0  0  0  0  0  0
  189.5980  178.2560  136.8810 N   0  0  0  0  0  2  0  0  0  0  0  0
  187.0640  178.2030  140.6940 C   0  0  0  0  0  0  0  0  0  0  0  0
  185.7680  178.6960  141.0080 C   0  0  0  0  0  0  0  0  0  0  0  0
  184.8230  178.8260  139.9830 C   0  0  0  0  0  3  0  0  0  0  0  0
  187.3870  177.8740  139.3590 C   0  0  0  0  0  0  0  0  0  0  0  0
  185.1370  178.4930  138.6690 C   0  0  0  0  0  3  0  0  0  0  0  0
  186.4070  178.0140  138.3480 C   0  0  0  0  0  0  0  0  0  0  0  0
  185.8300  175.1670  136.8350 C   0  0  1  0  0  3  0  0  0  0  0  0
  186.8480  174.5910  134.6130 O   0  0  0  0  0  0  0  0  0  0  0  0
  187.9830  174.1330  136.7540 C   0  0  2  0  0  3  0  0  0  0  0  0
  187.2370  175.3050  137.2660 N   0  0  1  0  0  0  0  0  0  0  0  0
  189.3200  174.0390  137.3220 N   0  0  0  0  0  1  0  0  0  0  0  0
  188.9970  173.7680  134.5970 O   0  0  0  0  0  0  0  0  0  0  0  0
  185.6340  174.8490  135.3280 C   0  0  2  0  0  3  0  0  0  0  0  0
  187.9910  174.1340  135.2600 C   0  0  0  0  0  0  0  0  0  0  0  0
  185.1880  174.1990  137.6070 O   0  0  0  0  0  1  0  0  0  0  0  0
  184.9230  175.8850  134.6970 O   0  0  0  0  0  0  0  0  0  0  0  0
  183.7010  176.0820  135.3800 C   0  0  2  0  0  3  0  0  0  0  0  0
  182.6380  175.0870  134.9360 C   0  0  0  0  0  1  0  0  0  0  0  0
  183.2230  177.4210  135.2570 O   0  0  0  0  0  0  0  0  0  0  0  0
  182.1630  177.9050  136.0260 C   0  0  0  0  0  0  0  0  0  0  0  0
  182.0580  177.5960  137.2450 O   0  0  0  0  0  0  0  0  0  0  0  0
  181.1780  178.7880  135.3950 C   0  0  0  0  0  3  0  0  0  0  0  0
  180.3970  179.5340  136.1080 N   0  0  0  0  0  2  0  0  0  0  0  0
  185.3530  179.1030  142.3740 C   0  0  0  0  0  0  0  0  0  0  0  0
  185.6360  180.2410  142.8330 O   0  0  0  0  0  0  0  0  0  0  0  0
  184.6100  178.2300  143.1640 O   0  0  0  0  0  1  0  0  0  0  0  0
  1  7  1  0  0  0  0
  1 18  1  1  0  0  0
  1  6  1  0  0  0  0
  3 12  1  0  0  0  0
  4  5  1  0  0  0  0
  5  8  1  0  0  0  0
  6  3  1  1  0  0  0
  7  4  1  1  0  0  0
  7 14  1  0  0  0  0
  8  6  1  0  0  0  0
  9 10  1  0  0  0  0
  9  2  1  0  0  0  0
 10 32  1  0  0  0  0
 11 10  2  0  0  0  0
 12  9  2  0  0  0  0
 13 11  1  0  0  0  0
 14 13  2  0  0  0  0
 14 12  1  0  0  0  0
 15 18  1  0  0  0  0
 15 23  1  1  0  0  0
 16 22  1  0  0  0  0
 16 21  1  0  0  0  0
 17 18  1  0  0  0  0
 17 19  1  1  0  0  0
 20 22  2  0  0  0  0
 21 15  1  0  0  0  0
 22 17  1  0  0  0  0
 24 21  1  0  0  0  0
 24 25  1  0  0  0  0
 26 25  1  0  0  0  0
 27 25  1  0  0  0  0
 27 28  1  0  0  0  0
 28 29  2  0  0  0  0
 30 28  1  0  0  0  0
 30 31  2  0  0  0  0
 32 33  2  0  0  0  0
 32 34  1  0  0  0  0
M  END
>  <MODEL>
5

>  <REMARK>
 VINA RESULT:      -4.5      2.958      6.329
  Name = 
  7 active torsions:
  status: ('A' for Active; 'I' for Inactive)
    1  A    between atoms: C_1  and  N_9
    2  A    between atoms: C_3  and  C_25
    3  A    between atoms: C_7  and  O_16
    4  A    between atoms: C_7  and  O_21
    5  A    between atoms: C_11  and  O_21
    6  A    between atoms: C_11  and  C_26
    7  A    between atoms: O_16  and  C_28
                            x       y       z     vdW  Elec       q    Type
                         _______ _______ _______ _____ _____    ______ ____

>  <TORSDO>
F 7

$$$$
=
 OpenBabel10262423383D

 34 37  0  0  1  0  0  0  0  0999 V2000
  188.0780  176.5530  136.7900 C   0  0  2  0  0  3  0  0  0  0  0  0
  188.4000  178.0000  141.7570 C   0  0  0  0  0  1  0  0  0  0  0  0
  189.0590  177.3260  139.0270 C   0  0  0  0  0  2  0  0  0  0  0  0
  187.4730  178.9050  136.2420 C   0  0  0  0  0  2  0  0  0  0  0  0
  188.7950  179.3780  136.8580 C   0  0  0  0  0  2  0  0  0  0  0  0
  189.3140  177.0970  137.5230 C   0  0  2  0  0  3  0  0  0  0  0  0
  186.9840  177.6230  136.9230 C   0  0  2  0  0  3  0  0  0  0  0  0
  189.8080  178.3130  136.8540 N   0  0  0  0  0  2  0  0  0  0  0  0
  187.3390  178.1320  140.7060 C   0  0  0  0  0  0  0  0  0  0  0  0
  186.0220  178.5480  141.0370 C   0  0  0  0  0  0  0  0  0  0  0  0
  185.0550  178.6140  140.0270 C   0  0  0  0  0  3  0  0  0  0  0  0
  187.6620  177.8140  139.3680 C   0  0  0  0  0  0  0  0  0  0  0  0
  185.3680  178.2920  138.7100 C   0  0  0  0  0  3  0  0  0  0  0  0
  186.6600  177.8880  138.3710 C   0  0  0  0  0  0  0  0  0  0  0  0
  186.2450  174.9870  136.8530 C   0  0  1  0  0  3  0  0  0  0  0  0
  187.3180  174.4510  134.6470 O   0  0  0  0  0  0  0  0  0  0  0  0
  188.4650  174.1030  136.8020 C   0  0  2  0  0  3  0  0  0  0  0  0
  187.6350  175.2270  137.2920 N   0  0  1  0  0  0  0  0  0  0  0  0
  189.8000  174.1090  137.3820 N   0  0  0  0  0  1  0  0  0  0  0  0
  189.5190  173.7770  134.6580 O   0  0  0  0  0  0  0  0  0  0  0  0
  186.0840  174.6350  135.3490 C   0  0  2  0  0  3  0  0  0  0  0  0
  188.4850  174.0830  135.3090 C   0  0  0  0  0  0  0  0  0  0  0  0
  185.6650  173.9870  137.6340 O   0  0  0  0  0  1  0  0  0  0  0  0
  185.3080  175.6100  134.6970 O   0  0  0  0  0  0  0  0  0  0  0  0
  183.9480  175.2320  134.7670 C   0  0  2  0  0  3  0  0  0  0  0  0
  183.1530  176.1500  135.6860 C   0  0  0  0  0  1  0  0  0  0  0  0
  183.7850  173.8670  135.1520 O   0  0  0  0  0  0  0  0  0  0  0  0
  182.5320  173.3170  135.4250 C   0  0  0  0  0  0  0  0  0  0  0  0
  181.5880  173.4200  134.5940 O   0  0  0  0  0  0  0  0  0  0  0  0
  182.3320  172.6080  136.6930 C   0  0  0  0  0  3  0  0  0  0  0  0
  183.0580  171.5830  137.0060 N   0  0  0  0  0  2  0  0  0  0  0  0
  185.6030  178.9380  142.4070 C   0  0  0  0  0  0  0  0  0  0  0  0
  185.3080  180.1290  142.6880 O   0  0  0  0  0  0  0  0  0  0  0  0
  185.5030  177.9720  143.4050 O   0  0  0  0  0  1  0  0  0  0  0  0
  1  7  1  0  0  0  0
  1 18  1  1  0  0  0
  1  6  1  0  0  0  0
  3 12  1  0  0  0  0
  4  5  1  0  0  0  0
  6  3  1  1  0  0  0
  7  4  1  1  0  0  0
  7 14  1  0  0  0  0
  8  5  1  0  0  0  0
  8  6  1  0  0  0  0
  9 10  1  0  0  0  0
  9  2  1  0  0  0  0
 10 32  1  0  0  0  0
 11 10  2  0  0  0  0
 12  9  2  0  0  0  0
 13 11  1  0  0  0  0
 14 13  2  0  0  0  0
 14 12  1  0  0  0  0
 15 18  1  0  0  0  0
 15 23  1  1  0  0  0
 16 22  1  0  0  0  0
 16 21  1  0  0  0  0
 17 18  1  0  0  0  0
 17 19  1  1  0  0  0
 20 22  2  0  0  0  0
 21 15  1  0  0  0  0
 22 17  1  0  0  0  0
 24 25  1  0  0  0  0
 24 21  1  0  0  0  0
 25 27  1  0  0  0  0
 25 26  1  0  0  0  0
 27 28  1  0  0  0  0
 28 30  1  0  0  0  0
 29 28  2  0  0  0  0
 30 31  2  0  0  0  0
 32 33  2  0  0  0  0
 32 34  1  0  0  0  0
M  END
>  <MODEL>
6

>  <REMARK>
 VINA RESULT:      -4.5      3.690      6.687
  Name = 
  7 active torsions:
  status: ('A' for Active; 'I' for Inactive)
    1  A    between atoms: C_1  and  N_9
    2  A    between atoms: C_3  and  C_25
    3  A    between atoms: C_7  and  O_16
    4  A    between atoms: C_7  and  O_21
    5  A    between atoms: C_11  and  O_21
    6  A    between atoms: C_11  and  C_26
    7  A    between atoms: O_16  and  C_28
                            x       y       z     vdW  Elec       q    Type
                         _______ _______ _______ _____ _____    ______ ____

>  <TORSDO>
F 7

$$$$
=
 OpenBabel10262423383D

 34 37  0  0  1  0  0  0  0  0999 V2000
  181.7040  177.8300  137.1760 C   0  0  2  0  0  3  0  0  0  0  0  0
  178.9310  174.0090  135.0330 C   0  0  0  0  0  1  0  0  0  0  0  0
  180.1830  176.5600  135.5510 C   0  0  0  0  0  2  0  0  0  0  0  0
  183.7080  176.8830  136.0400 C   0  0  0  0  0  2  0  0  0  0  0  0
  183.0100  177.0570  134.6860 C   0  0  0  0  0  2  0  0  0  0  0  0
  181.0010  177.8420  135.8090 C   0  0  2  0  0  3  0  0  0  0  0  0
  182.6830  176.6450  137.1540 C   0  0  2  0  0  3  0  0  0  0  0  0
  181.9770  178.1020  134.7380 N   0  0  0  0  0  2  0  0  0  0  0  0
  180.1790  174.0440  135.8630 C   0  0  0  0  0  0  0  0  0  0  0  0
  180.7290  172.8570  136.4170 C   0  0  0  0  0  0  0  0  0  0  0  0
  181.8720  172.9470  137.2200 C   0  0  0  0  0  3  0  0  0  0  0  0
  180.8010  175.2890  136.1080 C   0  0  0  0  0  0  0  0  0  0  0  0
  182.4800  174.1730  137.4710 C   0  0  0  0  0  3  0  0  0  0  0  0
  181.9540  175.3450  136.9260 C   0  0  0  0  0  0  0  0  0  0  0  0
  181.4970  177.3270  139.5260 C   0  0  1  0  0  3  0  0  0  0  0  0
  182.2930  179.7080  139.5650 O   0  0  0  0  0  0  0  0  0  0  0  0
  180.1080  179.0530  138.6280 C   0  0  2  0  0  3  0  0  0  0  0  0
  180.7600  177.7600  138.3200 N   0  0  1  0  0  0  0  0  0  0  0  0
  179.1590  179.4510  137.5990 N   0  0  0  0  0  1  0  0  0  0  0  0
  180.9920  181.2940  138.5220 O   0  0  0  0  0  0  0  0  0  0  0  0
  182.4130  178.4100  140.1580 C   0  0  2  0  0  3  0  0  0  0  0  0
  181.1370  180.1010  138.9000 C   0  0  0  0  0  0  0  0  0  0  0  0
  180.6030  176.8500  140.4850 O   0  0  0  0  0  1  0  0  0  0  0  0
  183.7560  177.9960  140.1260 O   0  0  0  0  0  0  0  0  0  0  0  0
  184.5530  179.0680  139.6640 C   0  0  2  0  0  3  0  0  0  0  0  0
  185.4790  178.6390  138.5340 C   0  0  0  0  0  1  0  0  0  0  0  0
  185.2940  179.6840  140.7180 O   0  0  0  0  0  0  0  0  0  0  0  0
  185.6220  179.0030  141.8910 C   0  0  0  0  0  0  0  0  0  0  0  0
  186.5300  178.1250  141.8940 O   0  0  0  0  0  0  0  0  0  0  0  0
  184.9010  179.3300  143.1240 C   0  0  0  0  0  3  0  0  0  0  0  0
  184.4750  178.3990  143.9150 N   0  0  0  0  0  2  0  0  0  0  0  0
  180.1660  171.5030  136.1820 C   0  0  0  0  0  0  0  0  0  0  0  0
  179.1830  171.0790  136.8440 O   0  0  0  0  0  1  0  0  0  0  0  0
  180.7070  170.6880  135.1910 O   0  0  0  0  0  0  0  0  0  0  0  0
  1 18  1  1  0  0  0
  2  9  1  0  0  0  0
  3 12  1  0  0  0  0
  5  8  1  0  0  0  0
  5  4  1  0  0  0  0
  6  3  1  6  0  0  0
  6  1  1  0  0  0  0
  7  4  1  6  0  0  0
  7  1  1  0  0  0  0
  8  6  1  0  0  0  0
  9 12  2  0  0  0  0
  9 10  1  0  0  0  0
 10 11  2  0  0  0  0
 11 13  1  0  0  0  0
 12 14  1  0  0  0  0
 14  7  1  0  0  0  0
 14 13  2  0  0  0  0
 15 21  1  0  0  0  0
 15 23  1  1  0  0  0
 16 21  1  0  0  0  0
 17 19  1  6  0  0  0
 17 22  1  0  0  0  0
 18 17  1  0  0  0  0
 18 15  1  0  0  0  0
 20 22  2  0  0  0  0
 22 16  1  0  0  0  0
 24 21  1  0  0  0  0
 25 24  1  0  0  0  0
 25 27  1  0  0  0  0
 26 25  1  0  0  0  0
 27 28  1  0  0  0  0
 28 29  2  0  0  0  0
 28 30  1  0  0  0  0
 30 31  2  0  0  0  0
 32 10  1  0  0  0  0
 32 33  1  0  0  0  0
 34 32  2  0  0  0  0
M  END
>  <MODEL>
7

>  <REMARK>
 VINA RESULT:      -4.4      3.419      5.978
  Name = 
  7 active torsions:
  status: ('A' for Active; 'I' for Inactive)
    1  A    between atoms: C_1  and  N_9
    2  A    between atoms: C_3  and  C_25
    3  A    between atoms: C_7  and  O_16
    4  A    between atoms: C_7  and  O_21
    5  A    between atoms: C_11  and  O_21
    6  A    between atoms: C_11  and  C_26
    7  A    between atoms: O_16  and  C_28
                            x       y       z     vdW  Elec       q    Type
                         _______ _______ _______ _____ _____    ______ ____

>  <TORSDO>
F 7

$$$$
=
 OpenBabel10262423383D

 34 37  0  0  1  0  0  0  0  0999 V2000
  186.6380  175.9180  136.5810 C   0  0  2  0  0  3  0  0  0  0  0  0
  181.8560  176.1420  134.5940 C   0  0  0  0  0  1  0  0  0  0  0  0
  184.7110  175.8270  134.8960 C   0  0  0  0  0  2  0  0  0  0  0  0
  186.1330  173.5830  137.2850 C   0  0  0  0  0  2  0  0  0  0  0  0
  185.8510  173.2140  135.8230 C   0  0  0  0  0  2  0  0  0  0  0  0
  186.2000  175.5280  135.1600 C   0  0  2  0  0  3  0  0  0  0  0  0
  185.8080  175.0580  137.5470 C   0  0  2  0  0  3  0  0  0  0  0  0
  186.5390  174.1200  134.8930 N   0  0  0  0  0  2  0  0  0  0  0  0
  182.4020  175.7760  135.9410 C   0  0  0  0  0  0  0  0  0  0  0  0
  181.5460  175.6160  137.0640 C   0  0  0  0  0  0  0  0  0  0  0  0
  182.1090  175.3170  138.3110 C   0  0  0  0  0  3  0  0  0  0  0  0
  183.7960  175.6090  136.0890 C   0  0  0  0  0  0  0  0  0  0  0  0
  183.4830  175.1610  138.4610 C   0  0  0  0  0  3  0  0  0  0  0  0
  184.3330  175.3090  137.3640 C   0  0  0  0  0  0  0  0  0  0  0  0
  186.9350  177.6380  138.2460 C   0  0  1  0  0  3  0  0  0  0  0  0
  189.2420  177.4420  137.2760 O   0  0  0  0  0  0  0  0  0  0  0  0
  187.3090  178.2230  135.9590 C   0  0  2  0  0  3  0  0  0  0  0  0
  186.5000  177.3700  136.8590 N   0  0  1  0  0  0  0  0  0  0  0  0
  186.8010  178.2230  134.5950 N   0  0  0  0  0  1  0  0  0  0  0  0
  189.4990  177.8440  135.0240 O   0  0  0  0  0  0  0  0  0  0  0  0
  188.4700  177.5910  138.4720 C   0  0  2  0  0  3  0  0  0  0  0  0
  188.7510  177.8410  136.0380 C   0  0  0  0  0  0  0  0  0  0  0  0
  186.4340  178.8680  138.6730 O   0  0  0  0  0  1  0  0  0  0  0  0
  188.8010  176.5700  139.3800 O   0  0  0  0  0  0  0  0  0  0  0  0
  189.6690  177.0970  140.3640 C   0  0  2  0  0  3  0  0  0  0  0  0
  191.1310  176.8410  140.0250 C   0  0  0  0  0  1  0  0  0  0  0  0
  189.3610  176.6130  141.6720 O   0  0  0  0  0  0  0  0  0  0  0  0
  188.3960  177.2170  142.4790 C   0  0  0  0  0  0  0  0  0  0  0  0
  187.6930  178.1690  142.0400 O   0  0  0  0  0  0  0  0  0  0  0  0
  188.2080  176.7210  143.8460 C   0  0  0  0  0  3  0  0  0  0  0  0
  188.4580  177.4730  144.8690 N   0  0  0  0  0  2  0  0  0  0  0  0
  180.0670  175.7350  136.9940 C   0  0  0  0  0  0  0  0  0  0  0  0
  179.4850  176.8210  137.2490 O   0  0  0  0  0  1  0  0  0  0  0  0
  179.3000  174.6380  136.6110 O   0  0  0  0  0  0  0  0  0  0  0  0
  1 18  1  1  0  0  0
  1  7  1  0  0  0  0
  2  9  1  0  0  0  0
  3 12  1  0  0  0  0
  5  4  1  0  0  0  0
  6  3  1  1  0  0  0
  6  1  1  0  0  0  0
  7  4  1  6  0  0  0
  8  6  1  0  0  0  0
  8  5  1  0  0  0  0
  9 12  2  0  0  0  0
  9 10  1  0  0  0  0
 10 11  2  0  0  0  0
 11 13  1  0  0  0  0
 12 14  1  0  0  0  0
 14  7  1  0  0  0  0
 14 13  2  0  0  0  0
 15 21  1  0  0  0  0
 15 23  1  6  0  0  0
 16 21  1  0  0  0  0
 17 19  1  6  0  0  0
 17 22  1  0  0  0  0
 17 18  1  0  0  0  0
 18 15  1  0  0  0  0
 20 22  2  0  0  0  0
 21 24  1  0  0  0  0
 22 16  1  0  0  0  0
 24 25  1  0  0  0  0
 25 27  1  0  0  0  0
 26 25  1  0  0  0  0
 27 28  1  0  0  0  0
 28 30  1  0  0  0  0
 29 28  2  0  0  0  0
 30 31  2  0  0  0  0
 32 10  1  0  0  0  0
 32 33  1  0  0  0  0
 34 32  2  0  0  0  0
M  END
>  <MODEL>
8

>  <REMARK>
 VINA RESULT:      -4.4      3.099      3.744
  Name = 
  7 active torsions:
  status: ('A' for Active; 'I' for Inactive)
    1  A    between atoms: C_1  and  N_9
    2  A    between atoms: C_3  and  C_25
    3  A    between atoms: C_7  and  O_16
    4  A    between atoms: C_7  and  O_21
    5  A    between atoms: C_11  and  O_21
    6  A    between atoms: C_11  and  C_26
    7  A    between atoms: O_16  and  C_28
                            x       y       z     vdW  Elec       q    Type
                         _______ _______ _______ _____ _____    ______ ____

>  <TORSDO>
F 7

$$$$
=
 OpenBabel10262423383D

 34 37  0  0  1  0  0  0  0  0999 V2000
  189.7590  177.0460  137.4400 C   0  0  2  0  0  3  0  0  0  0  0  0
  184.9670  175.0970  137.7670 C   0  0  0  0  0  1  0  0  0  0  0  0
  187.3020  176.7630  138.1060 C   0  0  0  0  0  2  0  0  0  0  0  0
  189.0580  178.1620  135.3280 C   0  0  0  0  0  2  0  0  0  0  0  0
  187.9450  178.8880  136.0920 C   0  0  0  0  0  2  0  0  0  0  0  0
  188.5380  177.6850  138.1210 C   0  0  2  0  0  3  0  0  0  0  0  0
  189.3690  176.8080  135.9730 C   0  0  2  0  0  3  0  0  0  0  0  0
  188.2550  179.0010  137.5250 N   0  0  0  0  0  2  0  0  0  0  0  0
  186.0150  175.0950  136.6960 C   0  0  0  0  0  0  0  0  0  0  0  0
  185.8920  174.2700  135.5450 C   0  0  0  0  0  0  0  0  0  0  0  0
  186.9190  174.2710  134.5940 C   0  0  0  0  0  3  0  0  0  0  0  0
  187.1530  175.9180  136.8530 C   0  0  0  0  0  0  0  0  0  0  0  0
  188.0440  175.0740  134.7510 C   0  0  0  0  0  3  0  0  0  0  0  0
  188.1730  175.8940  135.8730 C   0  0  0  0  0  0  0  0  0  0  0  0
  191.0790  175.0440  137.1770 C   0  0  1  0  0  3  0  0  0  0  0  0
  192.8160  176.7380  137.8220 O   0  0  0  0  0  0  0  0  0  0  0  0
  191.0010  176.0510  139.3430 C   0  0  2  0  0  3  0  0  0  0  0  0
  190.2200  175.8030  138.1100 N   0  0  1  0  0  0  0  0  0  0  0  0
  190.1770  176.5750  140.4220 N   0  0  0  0  0  1  0  0  0  0  0  0
  192.5790  177.8040  139.8480 O   0  0  0  0  0  0  0  0  0  0  0  0
  192.5000  175.6330  136.9680 C   0  0  2  0  0  3  0  0  0  0  0  0
  192.1810  176.9180  139.0450 C   0  0  0  0  0  0  0  0  0  0  0  0
  191.1770  173.7160  137.5930 O   0  0  0  0  0  1  0  0  0  0  0  0
  192.6840  176.0050  135.6240 O   0  0  0  0  0  0  0  0  0  0  0  0
  193.7990  175.3060  135.1070 C   0  0  2  0  0  3  0  0  0  0  0  0
  193.4730  173.8450  134.8290 C   0  0  0  0  0  1  0  0  0  0  0  0
  194.9460  175.4170  135.9510 O   0  0  0  0  0  0  0  0  0  0  0  0
  196.0020  176.2810  135.6610 C   0  0  0  0  0  0  0  0  0  0  0  0
  197.1640  176.0470  136.0940 O   0  0  0  0  0  0  0  0  0  0  0  0
  195.7410  177.4640  134.8350 C   0  0  0  0  0  3  0  0  0  0  0  0
  195.8140  178.6560  135.3340 N   0  0  0  0  0  2  0  0  0  0  0  0
  184.7160  173.4030  135.2790 C   0  0  0  0  0  0  0  0  0  0  0  0
  183.6560  173.8710  134.7870 O   0  0  0  0  0  0  0  0  0  0  0  0
  184.7840  172.0380  135.5450 O   0  0  0  0  0  1  0  0  0  0  0  0
  1 18  1  1  0  0  0
  1  6  1  0  0  0  0
  4  5  1  0  0  0  0
  5  8  1  0  0  0  0
  6  3  1  6  0  0  0
  7  4  1  1  0  0  0
  7  1  1  0  0  0  0
  8  6  1  0  0  0  0
  9 12  1  0  0  0  0
  9  2  1  0  0  0  0
 10  9  2  0  0  0  0
 11 13  2  0  0  0  0
 11 10  1  0  0  0  0
 12  3  1  0  0  0  0
 13 14  1  0  0  0  0
 14  7  1  0  0  0  0
 14 12  2  0  0  0  0
 15 23  1  1  0  0  0
 15 18  1  0  0  0  0
 16 22  1  0  0  0  0
 17 19  1  1  0  0  0
 18 17  1  0  0  0  0
 21 15  1  0  0  0  0
 21 16  1  0  0  0  0
 22 17  1  0  0  0  0
 22 20  2  0  0  0  0
 24 21  1  0  0  0  0
 25 24  1  0  0  0  0
 25 27  1  0  0  0  0
 26 25  1  0  0  0  0
 28 27  1  0  0  0  0
 28 29  2  0  0  0  0
 30 31  2  0  0  0  0
 30 28  1  0  0  0  0
 32 34  1  0  0  0  0
 32 10  1  0  0  0  0
 33 32  2  0  0  0  0
M  END
>  <MODEL>
9

>  <REMARK>
 VINA RESULT:      -4.3      5.033      7.976
  Name = 
  7 active torsions:
  status: ('A' for Active; 'I' for Inactive)
    1  A    between atoms: C_1  and  N_9
    2  A    between atoms: C_3  and  C_25
    3  A    between atoms: C_7  and  O_16
    4  A    between atoms: C_7  and  O_21
    5  A    between atoms: C_11  and  O_21
    6  A    between atoms: C_11  and  C_26
    7  A    between atoms: O_16  and  C_28
                            x       y       z     vdW  Elec       q    Type
                         _______ _______ _______ _____ _____    ______ ____

>  <TORSDO>
F 7

$$$$
