=
 OpenBabel10252414563D

 34 37  0  0  1  0  0  0  0  0999 V2000
  182.7030  177.0760  136.1720 C   0  0  1  0  0  3  0  0  0  0  0  0
  184.5050  175.3010  136.7770 C   0  0  2  0  0  3  0  0  0  0  0  0
  188.6230  174.9090  135.2880 C   0  0  0  0  0  2  0  0  0  0  0  0
  184.9710  177.7930  137.0150 C   0  0  1  0  0  3  0  0  0  0  0  0
  186.8010  177.1090  134.8900 O   0  0  0  0  0  1  0  0  0  0  0  0
  180.6340  177.5230  137.5070 C   0  0  0  0  0  1  0  0  0  0  0  0
  183.9340  174.2340  135.8520 C   0  0  0  0  0  1  0  0  0  0  0  0
  186.6170  176.0860  137.7010 O   0  0  0  0  0  0  0  0  0  0  0  0
  190.0070  173.5620  136.6080 C   0  0  0  0  0  1  0  0  0  0  0  0
  188.7420  174.2730  136.5930 N   0  0  0  0  0  0  0  0  0  0  0  0
  184.1990  176.7120  136.2260 C   0  0  2  0  0  3  0  0  0  0  0  0
  189.3250  176.2650  135.2380 C   0  0  0  0  0  2  0  0  0  0  0  0
  187.3080  177.6950  136.0060 N   0  0  0  0  0  0  0  0  0  0  0  0
  181.9820  176.1820  135.3780 O   0  0  0  0  0  1  0  0  0  0  0  0
  186.4420  173.7520  137.3490 C   0  0  0  0  0  2  0  0  0  0  0  0
  184.3350  178.0310  138.4090 C   0  0  2  0  0  3  0  0  0  0  0  0
  182.1110  177.1790  137.5740 C   0  0  2  0  0  3  0  0  0  0  0  0
  186.0280  175.1320  136.8530 C   0  0  1  0  0  3  0  0  0  0  0  0
  188.7500  177.3560  136.1730 C   0  0  1  0  0  3  0  0  0  0  0  0
  186.4460  177.3820  137.1680 C   0  0  1  0  0  3  0  0  0  0  0  0
  182.8320  178.2900  138.3250 C   0  0  0  0  0  2  0  0  0  0  0  0
  187.6990  173.2560  136.6370 C   0  0  0  0  0  2  0  0  0  0  0  0
  189.2800  177.3130  137.6220 C   0  0  0  0  0  3  0  0  0  0  0  0
  189.1550  178.6690  138.2890 C   0  0  0  0  0  1  0  0  0  0  0  0
  190.7390  176.8860  137.6860 C   0  0  0  0  0  1  0  0  0  0  0  0
  184.2070  180.3210  139.1480 O   0  0  0  0  0  1  0  0  0  0  0  0
  184.9870  179.1660  139.2120 C   0  0  1  0  0  3  0  0  0  0  0  0
  187.0210  178.1620  142.2640 C   0  0  0  0  0  0  0  0  0  0  0  0
  186.0300  178.0440  143.2420 C   0  0  0  0  0  3  0  0  0  0  0  0
  185.3410  178.7990  140.6290 C   0  0  0  0  0  0  0  0  0  0  0  0
  184.6950  178.3100  142.9230 C   0  0  0  0  0  3  0  0  0  0  0  0
  186.6780  178.5440  140.9640 C   0  0  0  0  0  3  0  0  0  0  0  0
  184.3510  178.6790  141.6190 C   0  0  0  0  0  3  0  0  0  0  0  0
  188.4400  177.8830  142.6050 C   0  0  0  0  0  1  0  0  0  0  0  0
  1 14  1  6  0  0  0
  1 11  1  0  0  0  0
  1 17  1  0  0  0  0
  2  7  1  6  0  0  0
  2 18  1  0  0  0  0
  3 10  1  0  0  0  0
  4 20  1  0  0  0  0
  4 16  1  0  0  0  0
  5 13  1  0  0  0  0
  6 17  1  0  0  0  0
 10  9  1  0  0  0  0
 10 22  1  0  0  0  0
 11  2  1  0  0  0  0
 11  4  1  0  0  0  0
 12  3  1  0  0  0  0
 12 19  1  0  0  0  0
 13 19  1  0  0  0  0
 13 20  1  0  0  0  0
 16 27  1  0  0  0  0
 17 21  1  0  0  0  0
 18 15  1  0  0  0  0
 18  8  1  0  0  0  0
 19 23  1  0  0  0  0
 20  8  1  0  0  0  0
 21 16  1  0  0  0  0
 22 15  1  0  0  0  0
 23 25  1  0  0  0  0
 23 24  1  0  0  0  0
 26 27  1  0  0  0  0
 27 30  1  0  0  0  0
 28 34  1  0  0  0  0
 28 29  1  0  0  0  0
 30 32  1  0  0  0  0
 30 33  2  0  0  0  0
 31 29  2  0  0  0  0
 32 28  2  0  0  0  0
 33 31  1  0  0  0  0
M  END
>  <MODEL>
1

>  <REMARK>
 VINA RESULT:      -7.3      0.000      0.000
  Name = 
  3 active torsions:
  status: ('A' for Active; 'I' for Inactive)
    1  A    between atoms: C_12  and  C_28
    2  A    between atoms: C_13  and  C_29
    3  A    between atoms: C_21  and  C_28
                            x       y       z     vdW  Elec       q    Type
                         _______ _______ _______ _____ _____    ______ ____

>  <TORSDO>
F 3

$$$$
=
 OpenBabel10252414563D

 34 37  0  0  1  0  0  0  0  0999 V2000
  180.7460  179.1160  141.4700 C   0  0  1  0  0  3  0  0  0  0  0  0
  180.9450  176.8450  140.2180 C   0  0  2  0  0  3  0  0  0  0  0  0
  181.8690  176.0810  135.9880 C   0  0  0  0  0  2  0  0  0  0  0  0
  182.8420  178.5440  140.1870 C   0  0  1  0  0  3  0  0  0  0  0  0
  182.0450  178.5830  137.4120 O   0  0  0  0  0  1  0  0  0  0  0  0
  180.7940  179.3840  143.9580 C   0  0  0  0  0  1  0  0  0  0  0  0
  179.4420  176.6700  140.0520 C   0  0  0  0  0  1  0  0  0  0  0  0
  183.0540  176.3310  139.1130 O   0  0  0  0  0  0  0  0  0  0  0  0
  182.5570  173.8940  135.5250 C   0  0  0  0  0  1  0  0  0  0  0  0
  182.3430  174.8470  136.5990 N   0  0  0  0  0  0  0  0  0  0  0  0
  181.3110  178.3460  140.2620 C   0  0  2  0  0  3  0  0  0  0  0  0
  183.0170  176.9670  135.5040 C   0  0  0  0  0  2  0  0  0  0  0  0
  183.3410  178.2960  137.7000 N   0  0  0  0  0  0  0  0  0  0  0  0
  179.3520  179.0520  141.5170 O   0  0  0  0  0  1  0  0  0  0  0  0
  181.3310  174.7300  138.8560 C   0  0  0  0  0  2  0  0  0  0  0  0
  183.5210  178.1800  141.5330 C   0  0  2  0  0  3  0  0  0  0  0  0
  181.3700  178.6280  142.7740 C   0  0  2  0  0  3  0  0  0  0  0  0
  181.6570  176.2090  139.0170 C   0  0  1  0  0  3  0  0  0  0  0  0
  183.9650  177.5030  136.6040 C   0  0  1  0  0  3  0  0  0  0  0  0
  183.4300  177.6900  139.0480 C   0  0  1  0  0  3  0  0  0  0  0  0
  182.8690  178.8860  142.7210 C   0  0  0  0  0  2  0  0  0  0  0  0
  181.2260  174.3370  137.3840 C   0  0  0  0  0  2  0  0  0  0  0  0
  185.0940  176.5340  137.0150 C   0  0  0  0  0  3  0  0  0  0  0  0
  186.2760  177.2890  137.5940 C   0  0  0  0  0  1  0  0  0  0  0  0
  185.5920  175.7020  135.8420 C   0  0  0  0  0  1  0  0  0  0  0  0
  185.3070  179.7530  141.1470 O   0  0  0  0  0  1  0  0  0  0  0  0
  185.0320  178.4500  141.5670 C   0  0  1  0  0  3  0  0  0  0  0  0
  185.6660  178.2350  145.3100 C   0  0  0  0  0  0  0  0  0  0  0  0
  186.9160  177.6120  145.3530 C   0  0  0  0  0  3  0  0  0  0  0  0
  185.6900  178.1300  142.8830 C   0  0  0  0  0  0  0  0  0  0  0  0
  187.5540  177.2380  144.1660 C   0  0  0  0  0  3  0  0  0  0  0  0
  185.0530  178.4870  144.0800 C   0  0  0  0  0  3  0  0  0  0  0  0
  186.9460  177.5030  142.9350 C   0  0  0  0  0  3  0  0  0  0  0  0
  184.9860  178.6280  146.5720 C   0  0  0  0  0  1  0  0  0  0  0  0
  1 14  1  1  0  0  0
  1 17  1  0  0  0  0
  2  7  1  6  0  0  0
  2 11  1  0  0  0  0
  3 10  1  0  0  0  0
  4 11  1  0  0  0  0
  4 16  1  0  0  0  0
  5 13  1  0  0  0  0
  9 10  1  0  0  0  0
 10 22  1  0  0  0  0
 11  1  1  0  0  0  0
 12  3  1  0  0  0  0
 12 19  1  0  0  0  0
 13 20  1  0  0  0  0
 15 18  1  0  0  0  0
 16 27  1  0  0  0  0
 16 21  1  0  0  0  0
 17  6  1  0  0  0  0
 18  8  1  0  0  0  0
 18  2  1  0  0  0  0
 19 23  1  0  0  0  0
 19 13  1  0  0  0  0
 20  8  1  0  0  0  0
 20  4  1  0  0  0  0
 21 17  1  0  0  0  0
 22 15  1  0  0  0  0
 23 24  1  0  0  0  0
 25 23  1  0  0  0  0
 26 27  1  0  0  0  0
 27 30  1  0  0  0  0
 28 29  1  0  0  0  0
 28 34  1  0  0  0  0
 30 33  2  0  0  0  0
 30 32  1  0  0  0  0
 31 29  2  0  0  0  0
 32 28  2  0  0  0  0
 33 31  1  0  0  0  0
M  END
>  <MODEL>
2

>  <REMARK>
 VINA RESULT:      -7.0      2.818      4.991
  Name = 
  3 active torsions:
  status: ('A' for Active; 'I' for Inactive)
    1  A    between atoms: C_12  and  C_28
    2  A    between atoms: C_13  and  C_29
    3  A    between atoms: C_21  and  C_28
                            x       y       z     vdW  Elec       q    Type
                         _______ _______ _______ _____ _____    ______ ____

>  <TORSDO>
F 3

$$$$
=
 OpenBabel10252414563D

 34 37  0  0  1  0  0  0  0  0999 V2000
  186.0320  177.5870  136.6010 C   0  0  1  0  0  3  0  0  0  0  0  0
  187.1810  175.2540  136.5810 C   0  0  2  0  0  3  0  0  0  0  0  0
  190.9020  174.0120  134.5960 C   0  0  0  0  0  2  0  0  0  0  0  0
  188.4350  177.3400  137.3300 C   0  0  1  0  0  3  0  0  0  0  0  0
  189.8780  176.6890  134.9160 O   0  0  0  0  0  1  0  0  0  0  0  0
  184.2610  178.2930  138.2230 C   0  0  0  0  0  1  0  0  0  0  0  0
  186.2670  174.6830  135.5050 C   0  0  0  0  0  1  0  0  0  0  0  0
  189.4620  175.0970  137.4210 O   0  0  0  0  0  0  0  0  0  0  0  0
  191.8170  172.0200  135.4110 C   0  0  0  0  0  1  0  0  0  0  0  0
  190.8500  173.0630  135.7000 N   0  0  0  0  0  0  0  0  0  0  0  0
  187.3300  176.7830  136.4040 C   0  0  2  0  0  3  0  0  0  0  0  0
  192.0030  175.0560  134.7800 C   0  0  0  0  0  2  0  0  0  0  0  0
  190.5820  176.7910  136.0730 N   0  0  0  0  0  0  0  0  0  0  0  0
  185.0350  177.1870  135.7080 O   0  0  0  0  0  1  0  0  0  0  0  0
  188.5310  173.0960  136.5660 C   0  0  0  0  0  2  0  0  0  0  0  0
  187.9540  177.4010  138.8030 C   0  0  2  0  0  3  0  0  0  0  0  0
  185.5500  177.5090  138.0460 C   0  0  2  0  0  3  0  0  0  0  0  0
  188.5690  174.6150  136.4470 C   0  0  1  0  0  3  0  0  0  0  0  0
  191.8420  175.9980  135.9980 C   0  0  1  0  0  3  0  0  0  0  0  0
  189.7020  176.4730  137.2210 C   0  0  1  0  0  3  0  0  0  0  0  0
  186.6130  178.1190  138.9470 C   0  0  0  0  0  2  0  0  0  0  0  0
  189.5360  172.4360  135.6250 C   0  0  0  0  0  2  0  0  0  0  0  0
  192.3750  175.4300  137.3310 C   0  0  0  0  0  3  0  0  0  0  0  0
  192.6610  176.5430  138.3210 C   0  0  0  0  0  1  0  0  0  0  0  0
  193.6510  174.6240  137.1410 C   0  0  0  0  0  1  0  0  0  0  0  0
  188.7220  179.4110  139.8900 O   0  0  0  0  0  1  0  0  0  0  0  0
  188.9630  178.0410  139.7670 C   0  0  1  0  0  3  0  0  0  0  0  0
  188.1430  176.9810  143.3260 C   0  0  0  0  0  0  0  0  0  0  0  0
  189.2350  176.1680  143.6410 C   0  0  0  0  0  3  0  0  0  0  0  0
  189.0570  177.3610  141.1080 C   0  0  0  0  0  0  0  0  0  0  0  0
  190.2360  175.9400  142.6920 C   0  0  0  0  0  3  0  0  0  0  0  0
  188.0520  177.5710  142.0620 C   0  0  0  0  0  3  0  0  0  0  0  0
  190.1510  176.5410  141.4320 C   0  0  0  0  0  3  0  0  0  0  0  0
  187.0760  177.2190  144.3330 C   0  0  0  0  0  1  0  0  0  0  0  0
  1 14  1  6  0  0  0
  1 17  1  0  0  0  0
  2  7  1  6  0  0  0
  3 12  1  0  0  0  0
  3 10  1  0  0  0  0
  4 16  1  0  0  0  0
  5 13  1  0  0  0  0
  9 10  1  0  0  0  0
 11  2  1  0  0  0  0
 11  1  1  0  0  0  0
 11  4  1  0  0  0  0
 12 19  1  0  0  0  0
 13 20  1  0  0  0  0
 16 21  1  0  0  0  0
 16 27  1  0  0  0  0
 17  6  1  0  0  0  0
 17 21  1  0  0  0  0
 18 15  1  0  0  0  0
 18  2  1  0  0  0  0
 18  8  1  0  0  0  0
 19 13  1  0  0  0  0
 19 23  1  0  0  0  0
 20  4  1  0  0  0  0
 20  8  1  0  0  0  0
 22 10  1  0  0  0  0
 22 15  1  0  0  0  0
 23 24  1  0  0  0  0
 25 23  1  0  0  0  0
 27 26  1  0  0  0  0
 27 30  1  0  0  0  0
 28 29  1  0  0  0  0
 28 34  1  0  0  0  0
 30 33  2  0  0  0  0
 30 32  1  0  0  0  0
 31 29  2  0  0  0  0
 32 28  2  0  0  0  0
 33 31  1  0  0  0  0
M  END
>  <MODEL>
3

>  <REMARK>
 VINA RESULT:      -6.6      2.212      3.483
  Name = 
  3 active torsions:
  status: ('A' for Active; 'I' for Inactive)
    1  A    between atoms: C_12  and  C_28
    2  A    between atoms: C_13  and  C_29
    3  A    between atoms: C_21  and  C_28
                            x       y       z     vdW  Elec       q    Type
                         _______ _______ _______ _____ _____    ______ ____

>  <TORSDO>
F 3

$$$$
=
 OpenBabel10252414563D

 34 37  0  0  1  0  0  0  0  0999 V2000
  181.1870  177.3180  138.4130 C   0  0  1  0  0  3  0  0  0  0  0  0
  182.7680  175.3010  137.9710 C   0  0  2  0  0  3  0  0  0  0  0  0
  185.7640  174.7670  134.7980 C   0  0  0  0  0  2  0  0  0  0  0  0
  183.6810  177.6610  138.2510 C   0  0  1  0  0  3  0  0  0  0  0  0
  184.3190  177.1680  135.4790 O   0  0  0  0  0  1  0  0  0  0  0  0
  179.9670  177.7340  140.5580 C   0  0  0  0  0  1  0  0  0  0  0  0
  181.7000  174.4640  137.2790 C   0  0  0  0  0  1  0  0  0  0  0  0
  185.1690  175.7130  137.9570 O   0  0  0  0  0  0  0  0  0  0  0  0
  187.3390  173.0910  135.2240 C   0  0  0  0  0  1  0  0  0  0  0  0
  186.3150  173.9140  135.8420 N   0  0  0  0  0  0  0  0  0  0  0  0
  182.4880  176.8080  137.7660 C   0  0  2  0  0  3  0  0  0  0  0  0
  186.5860  176.0390  134.5940 C   0  0  0  0  0  2  0  0  0  0  0  0
  185.3330  177.5080  136.3170 N   0  0  0  0  0  0  0  0  0  0  0  0
  180.0670  176.6430  137.9220 O   0  0  0  0  0  1  0  0  0  0  0  0
  184.4930  173.4990  137.4660 C   0  0  0  0  0  2  0  0  0  0  0  0
  183.7340  177.7230  139.8000 C   0  0  2  0  0  3  0  0  0  0  0  0
  181.2610  177.2420  139.9340 C   0  0  2  0  0  3  0  0  0  0  0  0
  184.1350  174.9750  137.3540 C   0  0  1  0  0  3  0  0  0  0  0  0
  186.6380  177.0090  135.7990 C   0  0  1  0  0  3  0  0  0  0  0  0
  184.9990  177.0900  137.6980 C   0  0  1  0  0  3  0  0  0  0  0  0
  182.3960  178.1370  140.4100 C   0  0  0  0  0  2  0  0  0  0  0  0
  185.2400  173.0090  136.2270 C   0  0  0  0  0  2  0  0  0  0  0  0
  187.7120  176.6730  136.8550 C   0  0  0  0  0  3  0  0  0  0  0  0
  188.0470  177.8890  137.6980 C   0  0  0  0  0  1  0  0  0  0  0  0
  188.9990  176.1650  136.2230 C   0  0  0  0  0  1  0  0  0  0  0  0
  184.6500  179.9510  139.9110 O   0  0  0  0  0  1  0  0  0  0  0  0
  184.8340  178.6400  140.3540 C   0  0  1  0  0  3  0  0  0  0  0  0
  186.3420  177.9060  143.7670 C   0  0  0  0  0  0  0  0  0  0  0  0
  185.3340  178.3500  144.6270 C   0  0  0  0  0  3  0  0  0  0  0  0
  185.0070  178.5670  141.8490 C   0  0  0  0  0  0  0  0  0  0  0  0
  184.1650  178.9110  144.1050 C   0  0  0  0  0  3  0  0  0  0  0  0
  186.1810  178.0200  142.3830 C   0  0  0  0  0  3  0  0  0  0  0  0
  183.9990  179.0120  142.7200 C   0  0  0  0  0  3  0  0  0  0  0  0
  187.5870  177.3140  144.3230 C   0  0  0  0  0  1  0  0  0  0  0  0
  1 14  1  6  0  0  0
  1 17  1  0  0  0  0
  2  7  1  6  0  0  0
  3 10  1  0  0  0  0
  4 16  1  0  0  0  0
  5 13  1  0  0  0  0
  9 10  1  0  0  0  0
 10 22  1  0  0  0  0
 11  2  1  0  0  0  0
 11  4  1  0  0  0  0
 11  1  1  0  0  0  0
 12  3  1  0  0  0  0
 12 19  1  0  0  0  0
 13 20  1  0  0  0  0
 16 27  1  0  0  0  0
 16 21  1  0  0  0  0
 17 21  1  0  0  0  0
 17  6  1  0  0  0  0
 18 15  1  0  0  0  0
 18  8  1  0  0  0  0
 18  2  1  0  0  0  0
 19 13  1  0  0  0  0
 19 23  1  0  0  0  0
 20  8  1  0  0  0  0
 20  4  1  0  0  0  0
 22 15  1  0  0  0  0
 23 24  1  0  0  0  0
 25 23  1  0  0  0  0
 26 27  1  0  0  0  0
 27 30  1  0  0  0  0
 28 34  1  0  0  0  0
 28 29  1  0  0  0  0
 30 32  1  0  0  0  0
 30 33  2  0  0  0  0
 31 29  2  0  0  0  0
 32 28  2  0  0  0  0
 33 31  1  0  0  0  0
M  END
>  <MODEL>
4

>  <REMARK>
 VINA RESULT:      -6.6      1.767      2.155
  Name = 
  3 active torsions:
  status: ('A' for Active; 'I' for Inactive)
    1  A    between atoms: C_12  and  C_28
    2  A    between atoms: C_13  and  C_29
    3  A    between atoms: C_21  and  C_28
                            x       y       z     vdW  Elec       q    Type
                         _______ _______ _______ _____ _____    ______ ____

>  <TORSDO>
F 3

$$$$
=
 OpenBabel10252414563D

 34 37  0  0  1  0  0  0  0  0999 V2000
  189.4810  177.7200  137.1160 C   0  0  1  0  0  3  0  0  0  0  0  0
  190.1530  175.2460  136.6770 C   0  0  2  0  0  3  0  0  0  0  0  0
  193.9040  173.6390  135.0410 C   0  0  0  0  0  2  0  0  0  0  0  0
  191.5920  176.7720  138.1200 C   0  0  1  0  0  3  0  0  0  0  0  0
  193.3540  176.3450  135.8740 O   0  0  0  0  0  1  0  0  0  0  0  0
  187.5780  178.4470  138.5700 C   0  0  0  0  0  1  0  0  0  0  0  0
  189.3900  175.1490  135.3620 C   0  0  0  0  0  1  0  0  0  0  0  0
  192.1410  174.3880  137.7910 O   0  0  0  0  0  0  0  0  0  0  0  0
  194.2430  171.3610  135.4510 C   0  0  0  0  0  1  0  0  0  0  0  0
  193.4490  172.5110  135.8430 N   0  0  0  0  0  0  0  0  0  0  0  0
  190.6180  176.7000  136.9230 C   0  0  2  0  0  3  0  0  0  0  0  0
  195.1180  174.3350  135.6550 C   0  0  0  0  0  2  0  0  0  0  0  0
  193.8110  176.0280  137.1130 N   0  0  0  0  0  0  0  0  0  0  0  0
  188.6320  177.7640  136.0070 O   0  0  0  0  0  1  0  0  0  0  0  0
  191.0490  172.8910  136.3190 C   0  0  0  0  0  2  0  0  0  0  0  0
  190.8380  176.6220  139.4670 C   0  0  2  0  0  3  0  0  0  0  0  0
  188.7050  177.4430  138.4000 C   0  0  2  0  0  3  0  0  0  0  0  0
  191.3940  174.3480  136.6010 C   0  0  1  0  0  3  0  0  0  0  0  0
  194.8880  175.0010  137.0330 C   0  0  1  0  0  3  0  0  0  0  0  0
  192.6700  175.6810  137.9910 C   0  0  1  0  0  3  0  0  0  0  0  0
  189.6550  177.5810  139.5800 C   0  0  0  0  0  2  0  0  0  0  0  0
  192.0850  172.2370  135.4080 C   0  0  0  0  0  2  0  0  0  0  0  0
  195.0200  174.0500  138.2420 C   0  0  0  0  0  3  0  0  0  0  0  0
  195.5000  174.7960  139.4720 C   0  0  0  0  0  1  0  0  0  0  0  0
  195.9880  172.9080  137.9710 C   0  0  0  0  0  1  0  0  0  0  0  0
  192.7910  177.6510  140.4360 O   0  0  0  0  0  1  0  0  0  0  0  0
  191.7290  176.7870  140.7070 C   0  0  1  0  0  3  0  0  0  0  0  0
  189.0110  176.9880  143.3590 C   0  0  0  0  0  0  0  0  0  0  0  0
  189.5380  177.9380  144.2380 C   0  0  0  0  0  3  0  0  0  0  0  0
  190.9850  177.1790  141.9560 C   0  0  0  0  0  0  0  0  0  0  0  0
  190.7910  178.5060  143.9860 C   0  0  0  0  0  3  0  0  0  0  0  0
  189.7350  176.6060  142.2260 C   0  0  0  0  0  3  0  0  0  0  0  0
  191.5080  178.1330  142.8450 C   0  0  0  0  0  3  0  0  0  0  0  0
  187.6810  176.3810  143.6290 C   0  0  0  0  0  1  0  0  0  0  0  0
  1 14  1  6  0  0  0
  1 17  1  0  0  0  0
  2  7  1  6  0  0  0
  2 11  1  0  0  0  0
  3 12  1  0  0  0  0
  3 10  1  0  0  0  0
  4 16  1  0  0  0  0
  5 13  1  0  0  0  0
  8 20  1  0  0  0  0
  9 10  1  0  0  0  0
 11  1  1  0  0  0  0
 11  4  1  0  0  0  0
 12 19  1  0  0  0  0
 13 20  1  0  0  0  0
 15 18  1  0  0  0  0
 16 21  1  0  0  0  0
 16 27  1  0  0  0  0
 17  6  1  0  0  0  0
 17 21  1  0  0  0  0
 18  2  1  0  0  0  0
 18  8  1  0  0  0  0
 19 13  1  0  0  0  0
 19 23  1  0  0  0  0
 20  4  1  0  0  0  0
 22 10  1  0  0  0  0
 22 15  1  0  0  0  0
 23 24  1  0  0  0  0
 25 23  1  0  0  0  0
 26 27  1  0  0  0  0
 27 30  1  0  0  0  0
 28 34  1  0  0  0  0
 28 29  1  0  0  0  0
 30 32  1  0  0  0  0
 30 33  2  0  0  0  0
 31 29  2  0  0  0  0
 32 28  2  0  0  0  0
 33 31  1  0  0  0  0
M  END
>  <MODEL>
5

>  <REMARK>
 VINA RESULT:      -6.5      3.904      6.138
  Name = 
  3 active torsions:
  status: ('A' for Active; 'I' for Inactive)
    1  A    between atoms: C_12  and  C_28
    2  A    between atoms: C_13  and  C_29
    3  A    between atoms: C_21  and  C_28
                            x       y       z     vdW  Elec       q    Type
                         _______ _______ _______ _____ _____    ______ ____

>  <TORSDO>
F 3

$$$$
=
 OpenBabel10252414563D

 34 37  0  0  1  0  0  0  0  0999 V2000
  183.7580  179.2170  139.0960 C   0  0  1  0  0  3  0  0  0  0  0  0
  184.7360  177.1660  137.8310 C   0  0  2  0  0  3  0  0  0  0  0  0
  188.0800  177.0010  134.9810 C   0  0  0  0  0  2  0  0  0  0  0  0
  186.2120  178.6590  139.2710 C   0  0  1  0  0  3  0  0  0  0  0  0
  187.2870  179.2160  136.6500 O   0  0  0  0  0  1  0  0  0  0  0  0
  182.2610  179.0790  141.0980 C   0  0  0  0  0  1  0  0  0  0  0  0
  183.6550  177.1640  136.7570 C   0  0  0  0  0  1  0  0  0  0  0  0
  187.0900  176.6360  138.1620 O   0  0  0  0  0  0  0  0  0  0  0  0
  188.9570  174.8600  134.6380 C   0  0  0  0  0  1  0  0  0  0  0  0
  188.1070  175.6460  135.5140 N   0  0  0  0  0  0  0  0  0  0  0  0
  184.9630  178.5990  138.3630 C   0  0  2  0  0  3  0  0  0  0  0  0
  189.2620  177.8390  135.4670 C   0  0  0  0  0  2  0  0  0  0  0  0
  188.1380  178.7640  137.6070 N   0  0  0  0  0  0  0  0  0  0  0  0
  182.6300  179.2800  138.2740 O   0  0  0  0  0  1  0  0  0  0  0  0
  185.9250  175.2680  136.6220 C   0  0  0  0  0  2  0  0  0  0  0  0
  185.9290  178.0230  140.6570 C   0  0  2  0  0  3  0  0  0  0  0  0
  183.4600  178.4700  140.3930 C   0  0  2  0  0  3  0  0  0  0  0  0
  186.0490  176.6650  137.2170 C   0  0  1  0  0  3  0  0  0  0  0  0
  189.3220  178.1000  136.9920 C   0  0  1  0  0  3  0  0  0  0  0  0
  187.3940  177.9460  138.5910 C   0  0  1  0  0  3  0  0  0  0  0  0
  184.6690  178.5880  141.3090 C   0  0  0  0  0  2  0  0  0  0  0  0
  186.7550  175.1260  135.3480 C   0  0  0  0  0  2  0  0  0  0  0  0
  189.9830  176.9750  137.8170 C   0  0  0  0  0  3  0  0  0  0  0  0
  190.4080  177.4790  139.1820 C   0  0  0  0  0  1  0  0  0  0  0  0
  191.2070  176.3980  137.1220 C   0  0  0  0  0  1  0  0  0  0  0  0
  187.8290  179.3000  141.4100 O   0  0  0  0  0  1  0  0  0  0  0  0
  187.0940  178.1380  141.6500 C   0  0  1  0  0  3  0  0  0  0  0  0
  185.0770  178.4410  144.8590 C   0  0  0  0  0  0  0  0  0  0  0  0
  185.9350  177.8570  145.7940 C   0  0  0  0  0  3  0  0  0  0  0  0
  186.6910  178.0120  143.0960 C   0  0  0  0  0  0  0  0  0  0  0  0
  187.1690  177.3410  145.3850 C   0  0  0  0  0  3  0  0  0  0  0  0
  185.4510  178.5130  143.5140 C   0  0  0  0  0  3  0  0  0  0  0  0
  187.5490  177.4250  144.0420 C   0  0  0  0  0  3  0  0  0  0  0  0
  183.7630  178.9860  145.2930 C   0  0  0  0  0  1  0  0  0  0  0  0
  1 14  1  6  0  0  0
  1 17  1  0  0  0  0
  2  7  1  6  0  0  0
  2 11  1  0  0  0  0
  3 12  1  0  0  0  0
  3 10  1  0  0  0  0
  4 16  1  0  0  0  0
  5 13  1  0  0  0  0
  8 20  1  0  0  0  0
  9 10  1  0  0  0  0
 11  1  1  0  0  0  0
 11  4  1  0  0  0  0
 12 19  1  0  0  0  0
 13 20  1  0  0  0  0
 15 18  1  0  0  0  0
 16 21  1  0  0  0  0
 16 27  1  0  0  0  0
 17  6  1  0  0  0  0
 17 21  1  0  0  0  0
 18  2  1  0  0  0  0
 18  8  1  0  0  0  0
 19 13  1  0  0  0  0
 19 23  1  0  0  0  0
 20  4  1  0  0  0  0
 22 10  1  0  0  0  0
 22 15  1  0  0  0  0
 23 24  1  0  0  0  0
 25 23  1  0  0  0  0
 26 27  1  0  0  0  0
 27 30  1  0  0  0  0
 28 34  1  0  0  0  0
 28 29  1  0  0  0  0
 30 32  1  0  0  0  0
 30 33  2  0  0  0  0
 31 29  2  0  0  0  0
 32 28  2  0  0  0  0
 33 31  1  0  0  0  0
M  END
>  <MODEL>
6

>  <REMARK>
 VINA RESULT:      -6.4      1.695      2.919
  Name = 
  3 active torsions:
  status: ('A' for Active; 'I' for Inactive)
    1  A    between atoms: C_12  and  C_28
    2  A    between atoms: C_13  and  C_29
    3  A    between atoms: C_21  and  C_28
                            x       y       z     vdW  Elec       q    Type
                         _______ _______ _______ _____ _____    ______ ____

>  <TORSDO>
F 3

$$$$
=
 OpenBabel10252414563D

 34 37  0  0  1  0  0  0  0  0999 V2000
  183.0750  178.2890  138.2230 C   0  0  1  0  0  3  0  0  0  0  0  0
  184.5560  176.2110  137.7180 C   0  0  2  0  0  3  0  0  0  0  0  0
  188.0090  175.8540  135.0210 C   0  0  0  0  0  2  0  0  0  0  0  0
  185.5780  178.4010  138.5200 C   0  0  1  0  0  3  0  0  0  0  0  0
  186.6490  178.2610  135.8430 O   0  0  0  0  0  1  0  0  0  0  0  0
  181.5350  178.5040  140.1840 C   0  0  0  0  0  1  0  0  0  0  0  0
  183.5660  175.5970  136.7380 C   0  0  0  0  0  1  0  0  0  0  0  0
  186.9460  176.3790  138.1550 O   0  0  0  0  0  0  0  0  0  0  0  0
  189.3590  173.9850  135.4150 C   0  0  0  0  0  1  0  0  0  0  0  0
  188.3070  174.8060  135.9870 N   0  0  0  0  0  0  0  0  0  0  0  0
  184.4280  177.7520  137.7190 C   0  0  2  0  0  3  0  0  0  0  0  0
  188.9460  177.0540  135.1590 C   0  0  0  0  0  2  0  0  0  0  0  0
  187.5240  178.3700  136.8750 N   0  0  0  0  0  0  0  0  0  0  0  0
  182.0100  177.8080  137.4570 O   0  0  0  0  0  1  0  0  0  0  0  0
  186.2050  174.3400  137.2100 C   0  0  0  0  0  2  0  0  0  0  0  0
  185.3660  178.2290  140.0460 C   0  0  2  0  0  3  0  0  0  0  0  0
  182.8790  177.9820  139.7040 C   0  0  2  0  0  3  0  0  0  0  0  0
  185.9810  175.8450  137.2830 C   0  0  1  0  0  3  0  0  0  0  0  0
  188.8590  177.8250  136.4980 C   0  0  1  0  0  3  0  0  0  0  0  0
  186.9260  177.7890  138.0990 C   0  0  1  0  0  3  0  0  0  0  0  0
  183.9770  178.6790  140.4940 C   0  0  0  0  0  2  0  0  0  0  0  0
  187.1170  173.9660  136.0430 C   0  0  0  0  0  2  0  0  0  0  0  0
  189.7060  177.2320  137.6440 C   0  0  0  0  0  3  0  0  0  0  0  0
  189.9260  178.2530  138.7440 C   0  0  0  0  0  1  0  0  0  0  0  0
  191.0670  176.7530  137.1630 C   0  0  0  0  0  1  0  0  0  0  0  0
  185.9030  180.1280  141.4300 O   0  0  0  0  0  1  0  0  0  0  0  0
  186.4180  178.9390  140.9100 C   0  0  1  0  0  3  0  0  0  0  0  0
  188.8450  176.6380  142.7200 C   0  0  0  0  0  0  0  0  0  0  0  0
  188.1700  176.3950  143.9190 C   0  0  0  0  0  3  0  0  0  0  0  0
  187.0300  178.0720  141.9790 C   0  0  0  0  0  0  0  0  0  0  0  0
  186.9280  176.9930  144.1570 C   0  0  0  0  0  3  0  0  0  0  0  0
  188.2800  177.4790  141.7570 C   0  0  0  0  0  3  0  0  0  0  0  0
  186.3570  177.8230  143.1880 C   0  0  0  0  0  3  0  0  0  0  0  0
  190.1660  176.0060  142.4680 C   0  0  0  0  0  1  0  0  0  0  0  0
  1 14  1  6  0  0  0
  1 17  1  0  0  0  0
  2  7  1  6  0  0  0
  2 11  1  0  0  0  0
  3 12  1  0  0  0  0
  3 10  1  0  0  0  0
  4 16  1  0  0  0  0
  5 13  1  0  0  0  0
  9 10  1  0  0  0  0
 10 22  1  0  0  0  0
 11  1  1  0  0  0  0
 11  4  1  0  0  0  0
 12 19  1  0  0  0  0
 13 20  1  0  0  0  0
 15 18  1  0  0  0  0
 16 21  1  0  0  0  0
 16 27  1  0  0  0  0
 17  6  1  0  0  0  0
 17 21  1  0  0  0  0
 18  2  1  0  0  0  0
 18  8  1  0  0  0  0
 19 13  1  0  0  0  0
 19 23  1  0  0  0  0
 20  8  1  0  0  0  0
 20  4  1  0  0  0  0
 22 15  1  0  0  0  0
 23 24  1  0  0  0  0
 25 23  1  0  0  0  0
 27 26  1  0  0  0  0
 27 30  1  0  0  0  0
 28 29  1  0  0  0  0
 29 31  2  0  0  0  0
 30 33  2  0  0  0  0
 32 30  1  0  0  0  0
 32 28  2  0  0  0  0
 33 31  1  0  0  0  0
 34 28  1  0  0  0  0
M  END
>  <MODEL>
7

>  <REMARK>
 VINA RESULT:      -6.4      1.320      1.886
  Name = 
  3 active torsions:
  status: ('A' for Active; 'I' for Inactive)
    1  A    between atoms: C_12  and  C_28
    2  A    between atoms: C_13  and  C_29
    3  A    between atoms: C_21  and  C_28
                            x       y       z     vdW  Elec       q    Type
                         _______ _______ _______ _____ _____    ______ ____

>  <TORSDO>
F 3

$$$$
=
 OpenBabel10252414563D

 34 37  0  0  1  0  0  0  0  0999 V2000
  184.0800  179.2620  139.7480 C   0  0  1  0  0  3  0  0  0  0  0  0
  184.8880  177.2780  138.2730 C   0  0  2  0  0  3  0  0  0  0  0  0
  187.9810  177.2220  135.1490 C   0  0  0  0  0  2  0  0  0  0  0  0
  186.5230  178.6310  139.6800 C   0  0  1  0  0  3  0  0  0  0  0  0
  187.3960  179.3370  137.0200 O   0  0  0  0  0  1  0  0  0  0  0  0
  182.7490  179.0270  141.8540 C   0  0  0  0  0  1  0  0  0  0  0  0
  183.7240  177.3760  137.2960 C   0  0  0  0  0  1  0  0  0  0  0  0
  187.2440  176.6670  138.3700 O   0  0  0  0  0  0  0  0  0  0  0  0
  188.7600  175.0880  134.5940 C   0  0  0  0  0  1  0  0  0  0  0  0
  188.0090  175.8330  135.5870 N   0  0  0  0  0  0  0  0  0  0  0  0
  185.2020  178.6650  138.8770 C   0  0  2  0  0  3  0  0  0  0  0  0
  189.2250  177.9940  135.5880 C   0  0  0  0  0  2  0  0  0  0  0  0
  188.3090  178.8000  137.8710 N   0  0  0  0  0  0  0  0  0  0  0  0
  182.8920  179.4100  139.0280 O   0  0  0  0  0  1  0  0  0  0  0  0
  185.9150  175.4360  136.8470 C   0  0  0  0  0  2  0  0  0  0  0  0
  186.3340  177.9100  141.0390 C   0  0  2  0  0  3  0  0  0  0  0  0
  183.8670  178.4360  141.0130 C   0  0  2  0  0  3  0  0  0  0  0  0
  186.1310  176.7860  137.5200 C   0  0  1  0  0  3  0  0  0  0  0  0
  189.4170  178.1490  137.1160 C   0  0  1  0  0  3  0  0  0  0  0  0
  187.6220  177.9360  138.8570 C   0  0  1  0  0  3  0  0  0  0  0  0
  185.1500  178.4620  141.8300 C   0  0  0  0  0  2  0  0  0  0  0  0
  186.6330  175.3610  135.5010 C   0  0  0  0  0  2  0  0  0  0  0  0
  190.1080  176.9540  137.8070 C   0  0  0  0  0  3  0  0  0  0  0  0
  190.6870  177.3610  139.1480 C   0  0  0  0  0  1  0  0  0  0  0  0
  191.2310  176.3730  136.9620 C   0  0  0  0  0  1  0  0  0  0  0  0
  188.3950  179.0160  141.6230 O   0  0  0  0  0  1  0  0  0  0  0  0
  187.5800  177.9270  141.9370 C   0  0  1  0  0  3  0  0  0  0  0  0
  188.0580  177.4720  145.6820 C   0  0  0  0  0  0  0  0  0  0  0  0
  186.7540  177.6310  146.1590 C   0  0  0  0  0  3  0  0  0  0  0  0
  187.2820  177.8510  143.4120 C   0  0  0  0  0  0  0  0  0  0  0  0
  185.7110  177.9080  145.2690 C   0  0  0  0  0  3  0  0  0  0  0  0
  188.3220  177.5880  144.3140 C   0  0  0  0  0  3  0  0  0  0  0  0
  185.9740  178.0100  143.8990 C   0  0  0  0  0  3  0  0  0  0  0  0
  189.1670  177.1820  146.6290 C   0  0  0  0  0  1  0  0  0  0  0  0
  1 14  1  6  0  0  0
  1 17  1  0  0  0  0
  2  7  1  6  0  0  0
  2 11  1  0  0  0  0
  3 10  1  0  0  0  0
  3 12  1  0  0  0  0
  4 16  1  0  0  0  0
  5 13  1  0  0  0  0
  8 20  1  0  0  0  0
  9 10  1  0  0  0  0
 11  4  1  0  0  0  0
 11  1  1  0  0  0  0
 12 19  1  0  0  0  0
 13 20  1  0  0  0  0
 15 18  1  0  0  0  0
 16 21  1  0  0  0  0
 16 27  1  0  0  0  0
 17 21  1  0  0  0  0
 17  6  1  0  0  0  0
 18  2  1  0  0  0  0
 18  8  1  0  0  0  0
 19 23  1  0  0  0  0
 19 13  1  0  0  0  0
 20  4  1  0  0  0  0
 22 10  1  0  0  0  0
 22 15  1  0  0  0  0
 23 24  1  0  0  0  0
 25 23  1  0  0  0  0
 26 27  1  0  0  0  0
 27 30  1  0  0  0  0
 28 29  1  0  0  0  0
 28 34  1  0  0  0  0
 30 33  2  0  0  0  0
 30 32  1  0  0  0  0
 31 29  2  0  0  0  0
 32 28  2  0  0  0  0
 33 31  1  0  0  0  0
M  END
>  <MODEL>
8

>  <REMARK>
 VINA RESULT:      -6.2      1.872      3.173
  Name = 
  3 active torsions:
  status: ('A' for Active; 'I' for Inactive)
    1  A    between atoms: C_12  and  C_28
    2  A    between atoms: C_13  and  C_29
    3  A    between atoms: C_21  and  C_28
                            x       y       z     vdW  Elec       q    Type
                         _______ _______ _______ _____ _____    ______ ____

>  <TORSDO>
F 3

$$$$
=
 OpenBabel10252414563D

 34 37  0  0  1  0  0  0  0  0999 V2000
  181.9460  179.3550  142.6680 C   0  0  1  0  0  3  0  0  0  0  0  0
  181.3930  177.2790  141.2020 C   0  0  2  0  0  3  0  0  0  0  0  0
  180.9710  176.9990  136.8350 C   0  0  0  0  0  2  0  0  0  0  0  0
  183.4750  178.6820  140.7770 C   0  0  1  0  0  3  0  0  0  0  0  0
  181.9660  179.2240  138.3760 O   0  0  0  0  0  1  0  0  0  0  0  0
  182.7210  179.2600  145.0460 C   0  0  0  0  0  1  0  0  0  0  0  0
  179.8950  177.3420  141.4700 C   0  0  0  0  0  1  0  0  0  0  0  0
  182.9930  176.6360  139.4820 O   0  0  0  0  0  0  0  0  0  0  0  0
  181.1120  174.8240  135.9850 C   0  0  0  0  0  1  0  0  0  0  0  0
  181.3710  175.6370  137.1600 N   0  0  0  0  0  0  0  0  0  0  0  0
  182.0140  178.6930  141.2790 C   0  0  2  0  0  3  0  0  0  0  0  0
  182.0780  177.7740  136.1210 C   0  0  0  0  0  2  0  0  0  0  0  0
  183.2210  178.7210  138.2420 N   0  0  0  0  0  0  0  0  0  0  0  0
  180.6290  179.4820  143.1160 O   0  0  0  0  0  1  0  0  0  0  0  0
  181.0140  175.3440  139.5920 C   0  0  0  0  0  2  0  0  0  0  0  0
  184.4230  178.0410  141.8230 C   0  0  2  0  0  3  0  0  0  0  0  0
  182.8090  178.6050  143.6780 C   0  0  2  0  0  3  0  0  0  0  0  0
  181.6250  176.7260  139.7900 C   0  0  1  0  0  3  0  0  0  0  0  0
  183.3700  178.0110  136.9400 C   0  0  1  0  0  3  0  0  0  0  0  0
  183.5680  177.9240  139.4400 C   0  0  1  0  0  3  0  0  0  0  0  0
  184.2560  178.6550  143.2110 C   0  0  0  0  0  2  0  0  0  0  0  0
  180.4410  175.1820  138.1860 C   0  0  0  0  0  2  0  0  0  0  0  0
  184.3820  176.8460  136.9070 C   0  0  0  0  0  3  0  0  0  0  0  0
  185.7690  177.3170  137.2980 C   0  0  0  0  0  1  0  0  0  0  0  0
  184.4700  176.2010  135.5310 C   0  0  0  0  0  1  0  0  0  0  0  0
  186.1930  179.2580  140.7290 O   0  0  0  0  0  1  0  0  0  0  0  0
  185.9080  178.0890  141.4370 C   0  0  1  0  0  3  0  0  0  0  0  0
  189.1110  177.9860  143.4830 C   0  0  0  0  0  0  0  0  0  0  0  0
  188.6640  177.4390  144.6890 C   0  0  0  0  0  3  0  0  0  0  0  0
  186.8550  177.8800  142.5890 C   0  0  0  0  0  0  0  0  0  0  0  0
  187.3120  177.1190  144.8540 C   0  0  0  0  0  3  0  0  0  0  0  0
  188.2090  178.2110  142.4400 C   0  0  0  0  0  3  0  0  0  0  0  0
  186.4130  177.3320  143.8040 C   0  0  0  0  0  3  0  0  0  0  0  0
  190.5470  178.3310  143.3100 C   0  0  0  0  0  1  0  0  0  0  0  0
  1 14  1  1  0  0  0
  1 17  1  0  0  0  0
  2 11  1  0  0  0  0
  2  7  1  6  0  0  0
  3 10  1  0  0  0  0
  4 11  1  0  0  0  0
  4 16  1  0  0  0  0
  8 18  1  0  0  0  0
  9 10  1  0  0  0  0
 10 22  1  0  0  0  0
 11  1  1  0  0  0  0
 12  3  1  0  0  0  0
 12 19  1  0  0  0  0
 13  5  1  0  0  0  0
 13 20  1  0  0  0  0
 15 18  1  0  0  0  0
 16 21  1  0  0  0  0
 17  6  1  0  0  0  0
 18  2  1  0  0  0  0
 19 13  1  0  0  0  0
 20  8  1  0  0  0  0
 20  4  1  0  0  0  0
 21 17  1  0  0  0  0
 22 15  1  0  0  0  0
 23 19  1  0  0  0  0
 23 24  1  0  0  0  0
 25 23  1  0  0  0  0
 26 27  1  0  0  0  0
 27 16  1  0  0  0  0
 27 30  1  0  0  0  0
 28 29  1  0  0  0  0
 29 31  2  0  0  0  0
 30 33  2  0  0  0  0
 32 30  1  0  0  0  0
 32 28  2  0  0  0  0
 33 31  1  0  0  0  0
 34 28  1  0  0  0  0
M  END
>  <MODEL>
9

>  <REMARK>
 VINA RESULT:      -5.7      3.190      5.597
  Name = 
  3 active torsions:
  status: ('A' for Active; 'I' for Inactive)
    1  A    between atoms: C_12  and  C_28
    2  A    between atoms: C_13  and  C_29
    3  A    between atoms: C_21  and  C_28
                            x       y       z     vdW  Elec       q    Type
                         _______ _______ _______ _____ _____    ______ ____

>  <TORSDO>
F 3

$$$$
