=
 OpenBabel10262423213D

 34 38  0  0  1  0  0  0  0  0999 V2000
  187.1370  178.0470  144.4180 C   0  0  0  0  0  0  0  0  0  0  0  0
  188.6310  177.7190  147.7300 C   0  0  0  0  0  2  0  0  0  0  0  0
  186.6420  178.2430  146.9990 N   0  0  0  0  0  0  0  0  0  0  0  0
  186.3210  178.3300  142.1370 C   0  0  0  0  0  0  0  0  0  0  0  0
  187.3680  178.0950  143.0980 C   0  0  0  0  0  3  0  0  0  0  0  0
  184.7560  178.4380  143.9360 C   0  0  0  0  0  0  0  0  0  0  0  0
  183.3770  178.4760  144.3540 N   0  0  0  0  0  1  0  0  0  0  0  0
  184.9960  178.4110  142.6080 C   0  0  0  0  0  3  0  0  0  0  0  0
  185.6130  178.3700  146.1720 C   0  0  0  0  0  0  0  0  0  0  0  0
  185.7990  178.2860  144.8510 C   0  0  0  0  0  0  0  0  0  0  0  0
  184.4810  178.5000  146.6730 O   0  0  0  0  0  0  0  0  0  0  0  0
  190.0850  177.6220  147.9070 C   0  0  0  0  0  2  0  0  0  0  0  0
  190.8010  176.6810  146.8550 C   0  0  1  0  0  3  0  0  0  0  0  0
  190.5370  176.8290  145.5470 C   0  0  0  0  0  2  0  0  0  0  0  0
  187.9130  178.0010  146.6720 C   0  0  0  0  0  0  0  0  0  0  0  0
  189.2970  177.3040  144.9030 C   0  0  0  0  0  3  0  0  0  0  0  0
  188.2070  177.8840  145.3520 C   0  0  0  0  0  0  0  0  0  0  0  0
  191.9850  175.8980  147.2940 N   0  0  0  0  0  0  0  0  0  0  0  0
  192.4000  174.9980  146.5740 O   0  0  0  0  0  0  0  0  0  0  0  0
  192.7040  176.2940  148.4470 O   0  0  0  0  0  0  0  0  0  0  0  0
  186.4230  178.6810  140.7700 O   0  0  0  0  0  0  0  0  0  0  0  0
  188.2910  177.3490  137.8700 C   0  0  0  0  0  3  0  0  0  0  0  0
  188.7280  178.1680  140.5090 C   0  0  0  0  0  3  0  0  0  0  0  0
  191.8490  176.5510  138.2610 C   0  0  0  0  0  0  0  0  0  0  0  0
  190.6060  176.7460  137.6890 C   0  0  0  0  0  3  0  0  0  0  0  0
  189.5720  177.3050  138.4140 C   0  0  0  0  0  0  0  0  0  0  0  0
  190.9720  177.4240  140.4310 C   0  0  0  0  0  3  0  0  0  0  0  0
  189.7650  177.6290  139.7640 C   0  0  0  0  0  0  0  0  0  0  0  0
  192.0570  176.9210  139.6560 C   0  0  0  0  0  3  0  0  0  0  0  0
  187.5020  178.3870  139.8980 C   0  0  0  0  0  0  0  0  0  0  0  0
  187.2460  177.9480  138.6210 C   0  0  0  0  0  3  0  0  0  0  0  0
  193.0290  175.9730  137.5260 C   0  0  0  0  0  0  0  0  0  0  0  0
  193.8350  176.7640  137.0350 O   0  0  0  0  0  0  0  0  0  0  0  0
  193.1650  174.4980  137.4480 O   0  0  0  0  0  1  0  0  0  0  0  0
  1 10  1  0  0  0  0
  1 17  1  0  0  0  0
  2 12  1  0  0  0  0
  4  8  2  0  0  0  0
  4  5  1  0  0  0  0
  5  1  2  0  0  0  0
  6  7  1  0  0  0  0
  6 10  2  0  0  0  0
  8  6  1  0  0  0  0
  9 11  2  0  0  0  0
  9  3  1  0  0  0  0
 10  9  1  0  0  0  0
 13 18  1  6  0  0  0
 13 12  1  0  0  0  0
 14 13  1  0  0  0  0
 15  3  2  0  0  0  0
 15  2  1  0  0  0  0
 16 17  2  0  0  0  0
 16 14  1  0  0  0  0
 17 15  1  0  0  0  0
 18 20  2  0  0  0  0
 19 18  2  0  0  0  0
 21  4  1  0  0  0  0
 22 26  2  0  0  0  0
 22 31  1  0  0  0  0
 24 29  1  0  0  0  0
 25 24  2  0  0  0  0
 25 26  1  0  0  0  0
 26 28  1  0  0  0  0
 28 27  1  0  0  0  0
 28 23  2  0  0  0  0
 29 27  2  0  0  0  0
 30 23  1  0  0  0  0
 30 21  1  0  0  0  0
 31 30  2  0  0  0  0
 32 24  1  0  0  0  0
 33 32  2  0  0  0  0
 34 32  1  0  0  0  0
M  END
>  <MODEL>
1

>  <REMARK>
 VINA RESULT:     -11.7      0.000      0.000
  Name = 
  4 active torsions:
  status: ('A' for Active; 'I' for Inactive)
    1  A    between atoms: N_3  and  C_25
    2  A    between atoms: C_7  and  C_11
    3  A    between atoms: C_8  and  O_18
    4  A    between atoms: O_18  and  C_30
                            x       y       z     vdW  Elec       q    Type
                         _______ _______ _______ _____ _____    ______ ____

>  <TORSDO>
F 4

$$$$
=
 OpenBabel10262423213D

 34 38  0  0  1  0  0  0  0  0999 V2000
  189.0670  177.5780  144.0910 C   0  0  0  0  0  0  0  0  0  0  0  0
  191.9460  177.2470  141.8740 C   0  0  0  0  0  2  0  0  0  0  0  0
  191.6940  177.3690  144.0390 N   0  0  0  0  0  0  0  0  0  0  0  0
  187.0540  177.9110  145.4270 C   0  0  0  0  0  0  0  0  0  0  0  0
  187.7510  177.8230  144.1700 C   0  0  0  0  0  3  0  0  0  0  0  0
  189.1100  177.4530  146.5480 C   0  0  0  0  0  0  0  0  0  0  0  0
  189.7820  177.1230  147.7800 N   0  0  0  0  0  1  0  0  0  0  0  0
  187.7730  177.6280  146.6040 C   0  0  0  0  0  3  0  0  0  0  0  0
  191.1060  177.3430  145.2280 C   0  0  0  0  0  0  0  0  0  0  0  0
  189.7770  177.4500  145.3220 C   0  0  0  0  0  0  0  0  0  0  0  0
  191.8260  177.1500  146.2240 O   0  0  0  0  0  0  0  0  0  0  0  0
  191.8280  177.4730  140.4290 C   0  0  0  0  0  2  0  0  0  0  0  0
  190.5260  176.8460  139.7820 C   0  0  1  0  0  3  0  0  0  0  0  0
  189.3310  177.0700  140.3510 C   0  0  0  0  0  2  0  0  0  0  0  0
  191.0990  177.4680  142.8480 C   0  0  0  0  0  0  0  0  0  0  0  0
  189.0150  177.3110  141.7720 C   0  0  0  0  0  3  0  0  0  0  0  0
  189.7460  177.5680  142.8320 C   0  0  0  0  0  0  0  0  0  0  0  0
  190.6070  176.3170  138.3960 N   0  0  0  0  0  0  0  0  0  0  0  0
  190.5150  177.0990  137.4580 O   0  0  0  0  0  0  0  0  0  0  0  0
  190.9380  174.9580  138.1790 O   0  0  0  0  0  0  0  0  0  0  0  0
  185.7630  178.4230  145.7000 O   0  0  0  0  0  0  0  0  0  0  0  0
  182.4190  178.8780  144.1890 C   0  0  0  0  0  3  0  0  0  0  0  0
  185.0830  178.4950  143.4250 C   0  0  0  0  0  3  0  0  0  0  0  0
  182.0640  178.6300  140.5470 C   0  0  0  0  0  0  0  0  0  0  0  0
  181.7660  178.8370  141.8810 C   0  0  0  0  0  3  0  0  0  0  0  0
  182.7600  178.8220  142.8410 C   0  0  0  0  0  0  0  0  0  0  0  0
  184.4610  178.2720  141.1540 C   0  0  0  0  0  3  0  0  0  0  0  0
  184.0810  178.5380  142.4680 C   0  0  0  0  0  0  0  0  0  0  0  0
  183.4450  178.3680  140.1590 C   0  0  0  0  0  3  0  0  0  0  0  0
  184.7600  178.7450  144.7510 C   0  0  0  0  0  0  0  0  0  0  0  0
  183.4550  178.8850  145.1600 C   0  0  0  0  0  3  0  0  0  0  0  0
  181.0400  178.6580  139.4450 C   0  0  0  0  0  0  0  0  0  0  0  0
  179.8530  178.6150  139.7730 O   0  0  0  0  0  1  0  0  0  0  0  0
  181.5080  178.7520  138.0410 O   0  0  0  0  0  0  0  0  0  0  0  0
  1  5  2  0  0  0  0
  1 10  1  0  0  0  0
  2 15  1  0  0  0  0
  3  9  1  0  0  0  0
  4 21  1  0  0  0  0
  4  8  2  0  0  0  0
  5  4  1  0  0  0  0
  6  8  1  0  0  0  0
  6  7  1  0  0  0  0
  9 10  1  0  0  0  0
  9 11  2  0  0  0  0
 10  6  2  0  0  0  0
 12  2  1  0  0  0  0
 13 18  1  6  0  0  0
 13 14  1  0  0  0  0
 13 12  1  0  0  0  0
 14 16  1  0  0  0  0
 15  3  2  0  0  0  0
 16 17  2  0  0  0  0
 17 15  1  0  0  0  0
 17  1  1  0  0  0  0
 19 18  2  0  0  0  0
 20 18  2  0  0  0  0
 22 31  1  0  0  0  0
 23 30  1  0  0  0  0
 24 25  2  0  0  0  0
 25 26  1  0  0  0  0
 26 22  2  0  0  0  0
 27 28  1  0  0  0  0
 28 26  1  0  0  0  0
 28 23  2  0  0  0  0
 29 24  1  0  0  0  0
 29 27  2  0  0  0  0
 30 31  2  0  0  0  0
 30 21  1  0  0  0  0
 32 33  1  0  0  0  0
 32 24  1  0  0  0  0
 34 32  2  0  0  0  0
M  END
>  <MODEL>
2

>  <REMARK>
 VINA RESULT:     -11.4      2.979      7.543
  Name = 
  4 active torsions:
  status: ('A' for Active; 'I' for Inactive)
    1  A    between atoms: N_3  and  C_25
    2  A    between atoms: C_7  and  C_11
    3  A    between atoms: C_8  and  O_18
    4  A    between atoms: O_18  and  C_30
                            x       y       z     vdW  Elec       q    Type
                         _______ _______ _______ _____ _____    ______ ____

>  <TORSDO>
F 4

$$$$
=
 OpenBabel10262423213D

 34 38  0  0  1  0  0  0  0  0999 V2000
  183.4020  178.5850  141.6360 C   0  0  0  0  0  0  0  0  0  0  0  0
  183.6880  177.6760  138.1140 C   0  0  0  0  0  2  0  0  0  0  0  0
  182.0170  177.8980  139.5020 N   0  0  0  0  0  0  0  0  0  0  0  0
  183.3920  179.1010  144.0200 C   0  0  0  0  0  0  0  0  0  0  0  0
  184.0640  178.8050  142.7810 C   0  0  0  0  0  3  0  0  0  0  0  0
  181.3070  178.9730  142.8660 C   0  0  0  0  0  0  0  0  0  0  0  0
  179.8830  179.2010  142.8860 N   0  0  0  0  0  1  0  0  0  0  0  0
  181.9930  179.2630  143.9920 C   0  0  0  0  0  3  0  0  0  0  0  0
  181.3330  178.2570  140.5800 C   0  0  0  0  0  0  0  0  0  0  0  0
  181.9770  178.6110  141.6960 C   0  0  0  0  0  0  0  0  0  0  0  0
  180.0940  178.3130  140.4850 O   0  0  0  0  0  0  0  0  0  0  0  0
  184.9840  177.3370  137.5150 C   0  0  0  0  0  2  0  0  0  0  0  0
  186.1710  178.2830  137.9650 C   0  0  1  0  0  3  0  0  0  0  0  0
  186.3550  178.5370  139.2700 C   0  0  0  0  0  2  0  0  0  0  0  0
  183.3450  177.8660  139.3640 C   0  0  0  0  0  0  0  0  0  0  0  0
  185.3530  178.5830  140.3530 C   0  0  0  0  0  3  0  0  0  0  0  0
  184.0930  178.2220  140.4380 C   0  0  0  0  0  0  0  0  0  0  0  0
  187.2450  178.5890  136.9860 N   0  0  0  0  0  0  0  0  0  0  0  0
  187.0850  178.2730  135.8130 O   0  0  0  0  0  0  0  0  0  0  0  0
  188.3580  179.3700  137.3810 O   0  0  0  0  0  0  0  0  0  0  0  0
  183.9000  179.0850  145.3400 O   0  0  0  0  0  0  0  0  0  0  0  0
  186.8710  178.3550  147.4180 C   0  0  0  0  0  3  0  0  0  0  0  0
  185.9910  178.1110  144.7730 C   0  0  0  0  0  3  0  0  0  0  0  0
  189.8940  177.0500  145.8020 C   0  0  0  0  0  0  0  0  0  0  0  0
  189.0040  177.4660  146.7750 C   0  0  0  0  0  3  0  0  0  0  0  0
  187.7010  177.7940  146.4520 C   0  0  0  0  0  0  0  0  0  0  0  0
  188.1320  177.3980  144.0650 C   0  0  0  0  0  3  0  0  0  0  0  0
  187.2880  177.7600  145.1130 C   0  0  0  0  0  0  0  0  0  0  0  0
  189.4500  176.9840  144.4150 C   0  0  0  0  0  3  0  0  0  0  0  0
  185.1100  178.4870  145.7760 C   0  0  0  0  0  0  0  0  0  0  0  0
  185.5290  178.6650  147.0740 C   0  0  0  0  0  3  0  0  0  0  0  0
  191.3180  176.6530  146.0830 C   0  0  0  0  0  0  0  0  0  0  0  0
  191.9630  176.1630  145.1540 O   0  0  0  0  0  0  0  0  0  0  0  0
  191.8670  176.8860  147.4410 O   0  0  0  0  0  1  0  0  0  0  0  0
  1 10  2  0  0  0  0
  1  5  1  0  0  0  0
  2 15  1  0  0  0  0
  3  9  1  0  0  0  0
  4 21  1  0  0  0  0
  5  4  2  0  0  0  0
  6  7  1  0  0  0  0
  6  8  2  0  0  0  0
  8  4  1  0  0  0  0
  9 10  1  0  0  0  0
 10  6  1  0  0  0  0
 11  9  2  0  0  0  0
 12 13  1  0  0  0  0
 12  2  1  0  0  0  0
 13 18  1  1  0  0  0
 13 14  1  0  0  0  0
 14 16  1  0  0  0  0
 15  3  2  0  0  0  0
 15 17  1  0  0  0  0
 16 17  2  0  0  0  0
 17  1  1  0  0  0  0
 18 20  2  0  0  0  0
 19 18  2  0  0  0  0
 21 30  1  0  0  0  0
 23 28  2  0  0  0  0
 23 30  1  0  0  0  0
 24 32  1  0  0  0  0
 24 25  2  0  0  0  0
 26 25  1  0  0  0  0
 26 22  2  0  0  0  0
 27 29  2  0  0  0  0
 27 28  1  0  0  0  0
 28 26  1  0  0  0  0
 29 24  1  0  0  0  0
 30 31  2  0  0  0  0
 31 22  1  0  0  0  0
 32 34  1  0  0  0  0
 33 32  2  0  0  0  0
M  END
>  <MODEL>
3

>  <REMARK>
 VINA RESULT:     -11.3      3.976      7.898
  Name = 
  4 active torsions:
  status: ('A' for Active; 'I' for Inactive)
    1  A    between atoms: N_3  and  C_25
    2  A    between atoms: C_7  and  C_11
    3  A    between atoms: C_8  and  O_18
    4  A    between atoms: O_18  and  C_30
                            x       y       z     vdW  Elec       q    Type
                         _______ _______ _______ _____ _____    ______ ____

>  <TORSDO>
F 4

$$$$
=
 OpenBabel10262423213D

 34 38  0  0  1  0  0  0  0  0999 V2000
  187.6470  177.9620  140.3900 C   0  0  0  0  0  0  0  0  0  0  0  0
  189.5090  177.0700  137.3820 C   0  0  0  0  0  2  0  0  0  0  0  0
  187.4950  177.8210  137.7630 N   0  0  0  0  0  0  0  0  0  0  0  0
  186.5040  178.4100  142.4970 C   0  0  0  0  0  0  0  0  0  0  0  0
  187.6220  177.9250  141.7300 C   0  0  0  0  0  3  0  0  0  0  0  0
  185.4240  179.0160  140.4580 C   0  0  0  0  0  0  0  0  0  0  0  0
  184.3410  179.7120  139.8090 N   0  0  0  0  0  1  0  0  0  0  0  0
  185.4490  179.0360  141.8070 C   0  0  0  0  0  3  0  0  0  0  0  0
  186.4710  178.3720  138.4010 C   0  0  0  0  0  0  0  0  0  0  0  0
  186.4850  178.4680  139.7340 C   0  0  0  0  0  0  0  0  0  0  0  0
  185.5490  178.8470  137.7140 O   0  0  0  0  0  0  0  0  0  0  0  0
  190.7700  176.3220  137.4580 C   0  0  0  0  0  2  0  0  0  0  0  0
  191.7370  176.8020  138.6150 C   0  0  1  0  0  3  0  0  0  0  0  0
  191.2560  176.9570  139.8580 C   0  0  0  0  0  2  0  0  0  0  0  0
  188.6190  177.3430  138.3030 C   0  0  0  0  0  0  0  0  0  0  0  0
  189.8890  177.3210  140.2810 C   0  0  0  0  0  3  0  0  0  0  0  0
  188.7390  177.4070  139.6530 C   0  0  0  0  0  0  0  0  0  0  0  0
  193.2030  176.7440  138.3840 N   0  0  0  0  0  0  0  0  0  0  0  0
  193.9590  176.8550  139.3410 O   0  0  0  0  0  0  0  0  0  0  0  0
  193.7020  176.4090  137.1010 O   0  0  0  0  0  0  0  0  0  0  0  0
  186.1970  178.2000  143.8630 O   0  0  0  0  0  0  0  0  0  0  0  0
  187.8260  177.7970  147.1580 C   0  0  0  0  0  3  0  0  0  0  0  0
  188.3580  177.4000  144.4400 C   0  0  0  0  0  3  0  0  0  0  0  0
  191.3300  176.7210  147.2900 C   0  0  0  0  0  0  0  0  0  0  0  0
  190.0550  177.0830  147.6840 C   0  0  0  0  0  3  0  0  0  0  0  0
  189.0550  177.2850  146.7530 C   0  0  0  0  0  0  0  0  0  0  0  0
  190.6150  176.8610  144.9010 C   0  0  0  0  0  3  0  0  0  0  0  0
  189.3470  177.1770  145.3860 C   0  0  0  0  0  0  0  0  0  0  0  0
  191.6210  176.5770  145.8690 C   0  0  0  0  0  3  0  0  0  0  0  0
  187.0790  177.7250  144.8670 C   0  0  0  0  0  0  0  0  0  0  0  0
  186.8030  177.9760  146.1900 C   0  0  0  0  0  3  0  0  0  0  0  0
  192.4610  176.4600  148.2480 C   0  0  0  0  0  0  0  0  0  0  0  0
  193.0650  175.3930  148.1340 O   0  0  0  0  0  0  0  0  0  0  0  0
  192.7950  177.4980  149.2550 O   0  0  0  0  0  1  0  0  0  0  0  0
  1  5  1  0  0  0  0
  2 12  1  0  0  0  0
  2 15  1  0  0  0  0
  3 15  2  0  0  0  0
  3  9  1  0  0  0  0
  4 21  1  0  0  0  0
  5  4  2  0  0  0  0
  6  8  2  0  0  0  0
  7  6  1  0  0  0  0
  8  4  1  0  0  0  0
  9 10  1  0  0  0  0
 10  1  2  0  0  0  0
 10  6  1  0  0  0  0
 11  9  2  0  0  0  0
 12 13  1  0  0  0  0
 13 18  1  1  0  0  0
 13 14  1  0  0  0  0
 14 16  1  0  0  0  0
 15 17  1  0  0  0  0
 17 16  2  0  0  0  0
 17  1  1  0  0  0  0
 18 19  2  0  0  0  0
 20 18  2  0  0  0  0
 21 30  1  0  0  0  0
 23 30  2  0  0  0  0
 23 28  1  0  0  0  0
 24 25  1  0  0  0  0
 24 32  1  0  0  0  0
 26 22  1  0  0  0  0
 26 25  2  0  0  0  0
 27 28  2  0  0  0  0
 27 29  1  0  0  0  0
 28 26  1  0  0  0  0
 29 24  2  0  0  0  0
 30 31  1  0  0  0  0
 31 22  2  0  0  0  0
 32 34  1  0  0  0  0
 33 32  2  0  0  0  0
M  END
>  <MODEL>
4

>  <REMARK>
 VINA RESULT:     -11.0      2.544      7.586
  Name = 
  4 active torsions:
  status: ('A' for Active; 'I' for Inactive)
    1  A    between atoms: N_3  and  C_25
    2  A    between atoms: C_7  and  C_11
    3  A    between atoms: C_8  and  O_18
    4  A    between atoms: O_18  and  C_30
                            x       y       z     vdW  Elec       q    Type
                         _______ _______ _______ _____ _____    ______ ____

>  <TORSDO>
F 4

$$$$
=
 OpenBabel10262423213D

 34 38  0  0  1  0  0  0  0  0999 V2000
  184.9140  178.6000  142.9230 C   0  0  0  0  0  0  0  0  0  0  0  0
  185.0010  178.6170  146.5710 C   0  0  0  0  0  2  0  0  0  0  0  0
  183.4180  178.8230  145.0820 N   0  0  0  0  0  0  0  0  0  0  0  0
  185.0410  178.6760  140.4890 C   0  0  0  0  0  0  0  0  0  0  0  0
  185.6410  178.6290  141.7970 C   0  0  0  0  0  3  0  0  0  0  0  0
  182.8910  178.6290  141.5230 C   0  0  0  0  0  0  0  0  0  0  0  0
  181.4640  178.4860  141.3700 N   0  0  0  0  0  1  0  0  0  0  0  0
  183.6380  178.5850  140.4000 C   0  0  0  0  0  3  0  0  0  0  0  0
  182.7940  178.7700  143.9130 C   0  0  0  0  0  0  0  0  0  0  0  0
  183.4960  178.6630  142.7810 C   0  0  0  0  0  0  0  0  0  0  0  0
  181.5490  178.7570  143.9230 O   0  0  0  0  0  0  0  0  0  0  0  0
  186.2670  178.7340  147.3040 C   0  0  0  0  0  2  0  0  0  0  0  0
  187.4450  177.8650  146.7030 C   0  0  1  0  0  3  0  0  0  0  0  0
  187.7050  177.9230  145.3870 C   0  0  0  0  0  2  0  0  0  0  0  0
  184.7340  178.7520  145.2960 C   0  0  0  0  0  0  0  0  0  0  0  0
  186.7750  178.1920  144.2730 C   0  0  0  0  0  3  0  0  0  0  0  0
  185.5380  178.6280  144.2100 C   0  0  0  0  0  0  0  0  0  0  0  0
  188.4400  177.2760  147.6350 N   0  0  0  0  0  0  0  0  0  0  0  0
  188.3070  177.4610  148.8380 O   0  0  0  0  0  0  0  0  0  0  0  0
  189.4300  176.3910  147.1430 O   0  0  0  0  0  0  0  0  0  0  0  0
  185.6350  178.9840  139.2420 O   0  0  0  0  0  0  0  0  0  0  0  0
  187.3620  176.4050  137.2330 C   0  0  0  0  0  3  0  0  0  0  0  0
  187.8950  178.2530  139.2650 C   0  0  0  0  0  3  0  0  0  0  0  0
  190.8640  175.6140  137.9860 C   0  0  0  0  0  0  0  0  0  0  0  0
  189.6270  175.6260  137.3670 C   0  0  0  0  0  3  0  0  0  0  0  0
  188.6450  176.5130  137.7630 C   0  0  0  0  0  0  0  0  0  0  0  0
  190.0810  177.3970  139.5510 C   0  0  0  0  0  3  0  0  0  0  0  0
  188.8810  177.3760  138.8420 C   0  0  0  0  0  0  0  0  0  0  0  0
  191.1170  176.5360  139.0870 C   0  0  0  0  0  3  0  0  0  0  0  0
  186.6780  178.2690  138.5990 C   0  0  0  0  0  0  0  0  0  0  0  0
  186.3720  177.3390  137.6350 C   0  0  0  0  0  3  0  0  0  0  0  0
  191.9890  174.6950  137.5930 C   0  0  0  0  0  0  0  0  0  0  0  0
  193.1270  175.0100  137.9450 O   0  0  0  0  0  1  0  0  0  0  0  0
  191.6690  173.4660  136.8270 O   0  0  0  0  0  0  0  0  0  0  0  0
  1 17  1  0  0  0  0
  2 12  1  0  0  0  0
  3 15  2  0  0  0  0
  4  5  1  0  0  0  0
  5  1  2  0  0  0  0
  6 10  2  0  0  0  0
  7  6  1  0  0  0  0
  8  4  2  0  0  0  0
  8  6  1  0  0  0  0
  9 11  2  0  0  0  0
  9  3  1  0  0  0  0
 10  1  1  0  0  0  0
 10  9  1  0  0  0  0
 13 12  1  0  0  0  0
 13 18  1  1  0  0  0
 14 13  1  0  0  0  0
 15  2  1  0  0  0  0
 16 14  1  0  0  0  0
 17 16  2  0  0  0  0
 17 15  1  0  0  0  0
 18 19  2  0  0  0  0
 20 18  2  0  0  0  0
 21  4  1  0  0  0  0
 22 31  2  0  0  0  0
 22 26  1  0  0  0  0
 24 29  1  0  0  0  0
 25 26  1  0  0  0  0
 25 24  2  0  0  0  0
 26 28  2  0  0  0  0
 28 23  1  0  0  0  0
 28 27  1  0  0  0  0
 29 27  2  0  0  0  0
 30 21  1  0  0  0  0
 30 23  2  0  0  0  0
 31 30  1  0  0  0  0
 32 33  1  0  0  0  0
 32 24  1  0  0  0  0
 34 32  2  0  0  0  0
M  END
>  <MODEL>
5

>  <REMARK>
 VINA RESULT:     -10.9      1.894      2.819
  Name = 
  4 active torsions:
  status: ('A' for Active; 'I' for Inactive)
    1  A    between atoms: N_3  and  C_25
    2  A    between atoms: C_7  and  C_11
    3  A    between atoms: C_8  and  O_18
    4  A    between atoms: O_18  and  C_30
                            x       y       z     vdW  Elec       q    Type
                         _______ _______ _______ _____ _____    ______ ____

>  <TORSDO>
F 4

$$$$
=
 OpenBabel10262423213D

 34 38  0  0  1  0  0  0  0  0999 V2000
  187.7100  177.9460  143.9230 C   0  0  0  0  0  0  0  0  0  0  0  0
  188.8650  177.4600  147.3500 C   0  0  0  0  0  2  0  0  0  0  0  0
  186.9520  178.0020  146.4470 N   0  0  0  0  0  0  0  0  0  0  0  0
  187.1260  178.3410  141.5890 C   0  0  0  0  0  0  0  0  0  0  0  0
  188.0730  178.0650  142.6380 C   0  0  0  0  0  3  0  0  0  0  0  0
  185.3850  178.3400  143.2210 C   0  0  0  0  0  0  0  0  0  0  0  0
  183.9700  178.3440  143.4980 N   0  0  0  0  0  1  0  0  0  0  0  0
  185.7590  178.3850  141.9250 C   0  0  0  0  0  3  0  0  0  0  0  0
  186.0110  178.1630  145.5260 C   0  0  0  0  0  0  0  0  0  0  0  0
  186.3320  178.1500  144.2290 C   0  0  0  0  0  0  0  0  0  0  0  0
  184.8330  178.2560  145.9150 O   0  0  0  0  0  0  0  0  0  0  0  0
  190.2940  177.3670  147.6690 C   0  0  0  0  0  2  0  0  0  0  0  0
  191.1270  176.4880  146.6490 C   0  0  1  0  0  3  0  0  0  0  0  0
  190.9950  176.7020  145.3300 C   0  0  0  0  0  2  0  0  0  0  0  0
  188.2540  177.7900  146.2390 C   0  0  0  0  0  0  0  0  0  0  0  0
  189.8200  177.2000  144.5880 C   0  0  0  0  0  3  0  0  0  0  0  0
  188.6820  177.7450  144.9530 C   0  0  0  0  0  0  0  0  0  0  0  0
  192.2710  175.6950  147.1650 N   0  0  0  0  0  0  0  0  0  0  0  0
  192.7260  174.7910  146.4750 O   0  0  0  0  0  0  0  0  0  0  0  0
  192.9150  176.0850  148.3650 O   0  0  0  0  0  0  0  0  0  0  0  0
  187.3610  178.7630  140.2580 O   0  0  0  0  0  0  0  0  0  0  0  0
  188.1870  176.3640  137.5680 C   0  0  0  0  0  3  0  0  0  0  0  0
  189.4510  177.8860  139.5470 C   0  0  0  0  0  3  0  0  0  0  0  0
  191.6590  175.2470  137.1860 C   0  0  0  0  0  0  0  0  0  0  0  0
  190.3070  175.4240  136.9570 C   0  0  0  0  0  3  0  0  0  0  0  0
  189.5700  176.3150  137.7130 C   0  0  0  0  0  0  0  0  0  0  0  0
  191.5310  176.8540  139.0940 C   0  0  0  0  0  3  0  0  0  0  0  0
  190.1850  177.0080  138.7650 C   0  0  0  0  0  0  0  0  0  0  0  0
  192.3020  175.9940  138.2600 C   0  0  0  0  0  3  0  0  0  0  0  0
  188.1050  178.0720  139.2680 C   0  0  0  0  0  0  0  0  0  0  0  0
  187.4490  177.3010  138.3380 C   0  0  0  0  0  3  0  0  0  0  0  0
  192.5300  174.3150  136.3870 C   0  0  0  0  0  0  0  0  0  0  0  0
  193.5420  174.7900  135.8690 O   0  0  0  0  0  0  0  0  0  0  0  0
  192.1370  172.8890  136.2820 O   0  0  0  0  0  1  0  0  0  0  0  0
  1 10  1  0  0  0  0
  1 17  1  0  0  0  0
  2 12  1  0  0  0  0
  4  8  2  0  0  0  0
  4  5  1  0  0  0  0
  5  1  2  0  0  0  0
  6  7  1  0  0  0  0
  6 10  2  0  0  0  0
  8  6  1  0  0  0  0
  9 11  2  0  0  0  0
  9  3  1  0  0  0  0
 10  9  1  0  0  0  0
 13 18  1  1  0  0  0
 13 12  1  0  0  0  0
 14 13  1  0  0  0  0
 15  3  2  0  0  0  0
 15  2  1  0  0  0  0
 16 17  2  0  0  0  0
 16 14  1  0  0  0  0
 17 15  1  0  0  0  0
 18 20  2  0  0  0  0
 19 18  2  0  0  0  0
 21  4  1  0  0  0  0
 22 26  2  0  0  0  0
 22 31  1  0  0  0  0
 24 29  1  0  0  0  0
 25 24  2  0  0  0  0
 25 26  1  0  0  0  0
 26 28  1  0  0  0  0
 28 27  1  0  0  0  0
 28 23  2  0  0  0  0
 29 27  2  0  0  0  0
 30 23  1  0  0  0  0
 30 21  1  0  0  0  0
 31 30  2  0  0  0  0
 32 24  1  0  0  0  0
 33 32  2  0  0  0  0
 34 32  1  0  0  0  0
M  END
>  <MODEL>
6

>  <REMARK>
 VINA RESULT:     -10.7      0.982      1.133
  Name = 
  4 active torsions:
  status: ('A' for Active; 'I' for Inactive)
    1  A    between atoms: N_3  and  C_25
    2  A    between atoms: C_7  and  C_11
    3  A    between atoms: C_8  and  O_18
    4  A    between atoms: O_18  and  C_30
                            x       y       z     vdW  Elec       q    Type
                         _______ _______ _______ _____ _____    ______ ____

>  <TORSDO>
F 4

$$$$
=
 OpenBabel10262423213D

 34 38  0  0  1  0  0  0  0  0999 V2000
  188.7420  177.5440  141.4670 C   0  0  0  0  0  0  0  0  0  0  0  0
  188.3290  177.2310  145.0790 C   0  0  0  0  0  2  0  0  0  0  0  0
  190.0070  176.9680  143.7070 N   0  0  0  0  0  0  0  0  0  0  0  0
  188.8260  177.6880  139.0340 C   0  0  0  0  0  0  0  0  0  0  0  0
  188.1200  177.6940  140.2890 C   0  0  0  0  0  3  0  0  0  0  0  0
  190.8670  177.3980  140.2350 C   0  0  0  0  0  0  0  0  0  0  0  0
  192.3090  177.3860  140.2090 N   0  0  0  0  0  1  0  0  0  0  0  0
  190.2320  177.6230  139.0650 C   0  0  0  0  0  3  0  0  0  0  0  0
  190.7350  177.0460  142.6010 C   0  0  0  0  0  0  0  0  0  0  0  0
  190.1520  177.3290  141.4320 C   0  0  0  0  0  0  0  0  0  0  0  0
  191.9670  176.9140  142.7100 O   0  0  0  0  0  0  0  0  0  0  0  0
  186.9980  177.2000  145.6950 C   0  0  0  0  0  2  0  0  0  0  0  0
  185.9790  178.2480  145.0870 C   0  0  1  0  0  3  0  0  0  0  0  0
  185.8330  178.3310  143.7550 C   0  0  0  0  0  2  0  0  0  0  0  0
  188.6920  177.1730  143.8220 C   0  0  0  0  0  0  0  0  0  0  0  0
  186.8230  178.0500  142.6970 C   0  0  0  0  0  3  0  0  0  0  0  0
  188.0070  177.4810  142.6920 C   0  0  0  0  0  0  0  0  0  0  0  0
  184.9750  178.8680  145.9880 N   0  0  0  0  0  0  0  0  0  0  0  0
  185.3420  179.3120  147.0690 O   0  0  0  0  0  0  0  0  0  0  0  0
  183.6510  179.0750  145.5310 O   0  0  0  0  0  0  0  0  0  0  0  0
  188.3150  177.5570  137.7210 O   0  0  0  0  0  0  0  0  0  0  0  0
  184.7720  176.5860  137.3000 C   0  0  0  0  0  3  0  0  0  0  0  0
  187.3240  175.4380  137.3070 C   0  0  0  0  0  3  0  0  0  0  0  0
  183.9330  173.0350  136.9310 C   0  0  0  0  0  0  0  0  0  0  0  0
  183.8100  174.4100  136.9900 C   0  0  0  0  0  3  0  0  0  0  0  0
  184.9260  175.2190  137.0870 C   0  0  0  0  0  0  0  0  0  0  0  0
  186.4090  173.2610  137.1790 C   0  0  0  0  0  3  0  0  0  0  0  0
  186.1980  174.6380  137.1840 C   0  0  0  0  0  0  0  0  0  0  0  0
  185.2610  172.4360  136.9980 C   0  0  0  0  0  3  0  0  0  0  0  0
  187.1720  176.8170  137.3250 C   0  0  0  0  0  0  0  0  0  0  0  0
  185.9300  177.4040  137.3750 C   0  0  0  0  0  3  0  0  0  0  0  0
  182.7660  172.0930  136.7980 C   0  0  0  0  0  0  0  0  0  0  0  0
  183.0100  170.8860  136.7990 O   0  0  0  0  0  1  0  0  0  0  0  0
  181.4010  172.6630  136.6930 O   0  0  0  0  0  0  0  0  0  0  0  0
  1 17  1  0  0  0  0
  2 12  1  0  0  0  0
  3 15  2  0  0  0  0
  4  8  2  0  0  0  0
  4  5  1  0  0  0  0
  5  1  2  0  0  0  0
  6 10  2  0  0  0  0
  7  6  1  0  0  0  0
  8  6  1  0  0  0  0
  9 11  2  0  0  0  0
  9  3  1  0  0  0  0
 10  1  1  0  0  0  0
 10  9  1  0  0  0  0
 13 12  1  0  0  0  0
 13 18  1  1  0  0  0
 14 13  1  0  0  0  0
 15  2  1  0  0  0  0
 16 14  1  0  0  0  0
 17 16  2  0  0  0  0
 17 15  1  0  0  0  0
 18 19  2  0  0  0  0
 20 18  2  0  0  0  0
 21  4  1  0  0  0  0
 22 31  1  0  0  0  0
 23 30  1  0  0  0  0
 24 25  2  0  0  0  0
 24 29  1  0  0  0  0
 25 26  1  0  0  0  0
 26 28  1  0  0  0  0
 26 22  2  0  0  0  0
 27 28  1  0  0  0  0
 28 23  2  0  0  0  0
 29 27  2  0  0  0  0
 30 31  2  0  0  0  0
 30 21  1  0  0  0  0
 32 33  1  0  0  0  0
 32 24  1  0  0  0  0
 34 32  2  0  0  0  0
M  END
>  <MODEL>
7

>  <REMARK>
 VINA RESULT:     -10.2      3.910      6.670
  Name = 
  4 active torsions:
  status: ('A' for Active; 'I' for Inactive)
    1  A    between atoms: N_3  and  C_25
    2  A    between atoms: C_7  and  C_11
    3  A    between atoms: C_8  and  O_18
    4  A    between atoms: O_18  and  C_30
                            x       y       z     vdW  Elec       q    Type
                         _______ _______ _______ _____ _____    ______ ____

>  <TORSDO>
F 4

$$$$
=
 OpenBabel10262423213D

 34 38  0  0  1  0  0  0  0  0999 V2000
  180.5340  179.3150  139.8110 C   0  0  0  0  0  0  0  0  0  0  0  0
  180.1790  179.9490  136.2350 C   0  0  0  0  0  2  0  0  0  0  0  0
  179.7630  178.2420  137.5310 N   0  0  0  0  0  0  0  0  0  0  0  0
  180.9360  179.0130  142.1970 C   0  0  0  0  0  0  0  0  0  0  0  0
  181.0370  179.7620  140.9710 C   0  0  0  0  0  3  0  0  0  0  0  0
  179.7430  177.3200  141.0130 C   0  0  0  0  0  0  0  0  0  0  0  0
  178.9490  176.1180  141.0710 N   0  0  0  0  0  1  0  0  0  0  0  0
  180.1920  177.8180  142.1840 C   0  0  0  0  0  3  0  0  0  0  0  0
  179.5490  177.5400  138.6350 C   0  0  0  0  0  0  0  0  0  0  0  0
  179.9220  178.0270  139.8230 C   0  0  0  0  0  0  0  0  0  0  0  0
  178.9370  176.4620  138.5260 O   0  0  0  0  0  0  0  0  0  0  0  0
  180.8080  181.1130  135.5990 C   0  0  0  0  0  2  0  0  0  0  0  0
  180.6880  182.4500  136.4370 C   0  0  1  0  0  3  0  0  0  0  0  0
  181.0120  182.4460  137.7390 C   0  0  0  0  0  2  0  0  0  0  0  0
  180.3120  179.4560  137.4410 C   0  0  0  0  0  0  0  0  0  0  0  0
  180.9240  181.3380  138.7100 C   0  0  0  0  0  3  0  0  0  0  0  0
  180.7130  180.0460  138.5940 C   0  0  0  0  0  0  0  0  0  0  0  0
  180.5500  183.7360  135.7060 N   0  0  0  0  0  0  0  0  0  0  0  0
  179.7720  183.8010  134.7620 O   0  0  0  0  0  0  0  0  0  0  0  0
  181.1940  184.8980  136.1960 O   0  0  0  0  0  0  0  0  0  0  0  0
  181.6310  179.1960  143.4160 O   0  0  0  0  0  0  0  0  0  0  0  0
  185.1480  178.1770  142.8950 C   0  0  0  0  0  3  0  0  0  0  0  0
  183.4370  179.0050  144.9490 C   0  0  0  0  0  3  0  0  0  0  0  0
  187.3580  177.8630  145.8050 C   0  0  0  0  0  0  0  0  0  0  0  0
  186.9110  177.8960  144.4970 C   0  0  0  0  0  3  0  0  0  0  0  0
  185.6240  178.2980  144.1980 C   0  0  0  0  0  0  0  0  0  0  0  0
  185.0920  178.5730  146.5820 C   0  0  0  0  0  3  0  0  0  0  0  0
  184.7390  178.6240  145.2350 C   0  0  0  0  0  0  0  0  0  0  0  0
  186.4440  178.2350  146.8790 C   0  0  0  0  0  3  0  0  0  0  0  0
  183.0290  179.0650  143.6240 C   0  0  0  0  0  0  0  0  0  0  0  0
  183.8300  178.6160  142.6020 C   0  0  0  0  0  3  0  0  0  0  0  0
  188.7530  177.4620  146.2050 C   0  0  0  0  0  0  0  0  0  0  0  0
  189.4790  176.9890  145.3290 O   0  0  0  0  0  0  0  0  0  0  0  0
  189.1780  177.6710  147.6100 O   0  0  0  0  0  1  0  0  0  0  0  0
  1 10  2  0  0  0  0
  1  5  1  0  0  0  0
  2 15  1  0  0  0  0
  3  9  1  0  0  0  0
  4 21  1  0  0  0  0
  5  4  2  0  0  0  0
  6  7  1  0  0  0  0
  6  8  2  0  0  0  0
  8  4  1  0  0  0  0
  9 10  1  0  0  0  0
 10  6  1  0  0  0  0
 11  9  2  0  0  0  0
 12  2  1  0  0  0  0
 12 13  1  0  0  0  0
 13 18  1  6  0  0  0
 13 14  1  0  0  0  0
 14 16  1  0  0  0  0
 15  3  2  0  0  0  0
 15 17  1  0  0  0  0
 17 16  2  0  0  0  0
 17  1  1  0  0  0  0
 18 20  2  0  0  0  0
 19 18  2  0  0  0  0
 21 30  1  0  0  0  0
 22 26  1  0  0  0  0
 23 28  1  0  0  0  0
 24 32  1  0  0  0  0
 24 29  1  0  0  0  0
 25 24  2  0  0  0  0
 26 25  1  0  0  0  0
 26 28  2  0  0  0  0
 27 29  2  0  0  0  0
 28 27  1  0  0  0  0
 30 23  2  0  0  0  0
 31 22  2  0  0  0  0
 31 30  1  0  0  0  0
 32 34  1  0  0  0  0
 33 32  2  0  0  0  0
M  END
>  <MODEL>
8

>  <REMARK>
 VINA RESULT:     -10.1      5.687     10.637
  Name = 
  4 active torsions:
  status: ('A' for Active; 'I' for Inactive)
    1  A    between atoms: N_3  and  C_25
    2  A    between atoms: C_7  and  C_11
    3  A    between atoms: C_8  and  O_18
    4  A    between atoms: O_18  and  C_30
                            x       y       z     vdW  Elec       q    Type
                         _______ _______ _______ _____ _____    ______ ____

>  <TORSDO>
F 4

$$$$
=
 OpenBabel10262423213D

 34 38  0  0  1  0  0  0  0  0999 V2000
  186.0810  178.2940  143.4730 C   0  0  0  0  0  0  0  0  0  0  0  0
  188.2070  177.8290  146.4020 C   0  0  0  0  0  2  0  0  0  0  0  0
  186.1110  178.3650  146.1070 N   0  0  0  0  0  0  0  0  0  0  0  0
  184.8260  178.6740  141.4170 C   0  0  0  0  0  0  0  0  0  0  0  0
  186.0440  178.4050  142.1370 C   0  0  0  0  0  3  0  0  0  0  0  0
  183.6520  178.6820  143.4940 C   0  0  0  0  0  0  0  0  0  0  0  0
  182.3840  178.6870  144.1810 N   0  0  0  0  0  1  0  0  0  0  0  0
  183.6220  178.7190  142.1450 C   0  0  0  0  0  3  0  0  0  0  0  0
  184.9380  178.5200  145.5090 C   0  0  0  0  0  0  0  0  0  0  0  0
  184.8570  178.4990  144.1750 C   0  0  0  0  0  0  0  0  0  0  0  0
  183.9290  178.6150  146.2310 O   0  0  0  0  0  0  0  0  0  0  0  0
  189.6670  177.7390  146.2800 C   0  0  0  0  0  2  0  0  0  0  0  0
  190.1600  176.8540  145.0630 C   0  0  1  0  0  3  0  0  0  0  0  0
  189.6390  177.0600  143.8430 C   0  0  0  0  0  2  0  0  0  0  0  0
  187.2920  178.1520  145.5220 C   0  0  0  0  0  0  0  0  0  0  0  0
  188.2950  177.5520  143.4820 C   0  0  0  0  0  3  0  0  0  0  0  0
  187.3170  178.0990  144.1670 C   0  0  0  0  0  0  0  0  0  0  0  0
  191.4080  176.0640  145.2190 N   0  0  0  0  0  0  0  0  0  0  0  0
  191.9260  175.5720  144.2250 O   0  0  0  0  0  0  0  0  0  0  0  0
  192.0600  176.0190  146.4760 O   0  0  0  0  0  0  0  0  0  0  0  0
  184.6530  179.0880  140.0750 O   0  0  0  0  0  0  0  0  0  0  0  0
  185.4170  177.0260  137.1020 C   0  0  0  0  0  3  0  0  0  0  0  0
  186.7220  178.5950  139.0160 C   0  0  0  0  0  3  0  0  0  0  0  0
  188.9220  176.4920  136.1610 C   0  0  0  0  0  0  0  0  0  0  0  0
  187.5390  176.4710  136.1320 C   0  0  0  0  0  3  0  0  0  0  0  0
  186.7990  177.1840  137.0540 C   0  0  0  0  0  0  0  0  0  0  0  0
  188.8410  177.9320  138.2010 C   0  0  0  0  0  3  0  0  0  0  0  0
  187.4540  177.8950  138.0690 C   0  0  0  0  0  0  0  0  0  0  0  0
  189.5990  177.2590  137.1990 C   0  0  0  0  0  3  0  0  0  0  0  0
  185.3370  178.5870  138.9380 C   0  0  0  0  0  0  0  0  0  0  0  0
  184.6710  177.7850  138.0410 C   0  0  0  0  0  3  0  0  0  0  0  0
  189.7930  175.7610  135.1750 C   0  0  0  0  0  0  0  0  0  0  0  0
  190.7640  176.3660  134.7210 O   0  0  0  0  0  0  0  0  0  0  0  0
  189.4480  174.3630  134.8210 O   0  0  0  0  0  1  0  0  0  0  0  0
  1 17  1  0  0  0  0
  1 10  1  0  0  0  0
  4  5  1  0  0  0  0
  4  8  2  0  0  0  0
  5  1  2  0  0  0  0
  6 10  2  0  0  0  0
  6  7  1  0  0  0  0
  8  6  1  0  0  0  0
  9  3  1  0  0  0  0
  9 11  2  0  0  0  0
 10  9  1  0  0  0  0
 12  2  1  0  0  0  0
 13 18  1  6  0  0  0
 13 12  1  0  0  0  0
 14 13  1  0  0  0  0
 15  3  2  0  0  0  0
 15  2  1  0  0  0  0
 16 14  1  0  0  0  0
 16 17  2  0  0  0  0
 17 15  1  0  0  0  0
 18 20  2  0  0  0  0
 19 18  2  0  0  0  0
 21  4  1  0  0  0  0
 22 31  1  0  0  0  0
 24 29  1  0  0  0  0
 25 24  2  0  0  0  0
 25 26  1  0  0  0  0
 26 22  2  0  0  0  0
 26 28  1  0  0  0  0
 28 27  1  0  0  0  0
 28 23  2  0  0  0  0
 29 27  2  0  0  0  0
 30 23  1  0  0  0  0
 30 21  1  0  0  0  0
 31 30  2  0  0  0  0
 32 24  1  0  0  0  0
 33 32  2  0  0  0  0
 34 32  1  0  0  0  0
M  END
>  <MODEL>
9

>  <REMARK>
 VINA RESULT:     -10.0      1.872      2.419
  Name = 
  4 active torsions:
  status: ('A' for Active; 'I' for Inactive)
    1  A    between atoms: N_3  and  C_25
    2  A    between atoms: C_7  and  C_11
    3  A    between atoms: C_8  and  O_18
    4  A    between atoms: O_18  and  C_30
                            x       y       z     vdW  Elec       q    Type
                         _______ _______ _______ _____ _____    ______ ____

>  <TORSDO>
F 4

$$$$
