=
 OpenBabel10262421143D

 32 37  0  0  1  0  0  0  0  0999 V2000
  184.5320  178.7380  141.6540 C   0  0  0  0  0  0  0  0  0  0  0  0
  186.9480  178.5260  141.6360 C   0  0  0  0  0  0  0  0  0  0  0  0
  183.2300  178.7300  142.4160 C   0  0  0  0  0  2  0  0  0  0  0  0
  185.7530  178.5910  142.3480 C   0  0  0  0  0  0  0  0  0  0  0  0
  188.2460  178.4460  142.3990 C   0  0  2  0  0  3  0  0  0  0  0  0
  189.0200  176.3490  138.0140 C   0  0  0  0  0  2  0  0  0  0  0  0
  186.9220  178.4240  140.2470 C   0  0  0  0  0  0  0  0  0  0  0  0
  190.5420  177.2210  139.8090 C   0  0  0  0  0  2  0  0  0  0  0  0
  189.2050  177.5030  140.4980 C   0  0  1  0  0  3  0  0  0  0  0  0
  185.8340  178.5110  143.8590 C   0  0  2  0  0  3  0  0  0  0  0  0
  189.4200  178.3500  141.6050 O   0  0  0  0  0  0  0  0  0  0  0  0
  186.8240  177.4150  144.2970 C   0  0  0  0  0  2  0  0  0  0  0  0
  184.4770  178.2530  144.5100 C   0  0  0  0  0  2  0  0  0  0  0  0
  185.7420  178.5580  139.5860 N   0  0  0  0  0  0  0  0  0  0  0  0
  184.5550  178.7400  140.2350 C   0  0  0  0  0  0  0  0  0  0  0  0
  188.1980  178.1410  139.5130 C   0  0  1  0  0  3  0  0  0  0  0  0
  188.1730  177.4120  143.5340 C   0  0  2  0  0  3  0  0  0  0  0  0
  183.4130  179.1350  143.8750 C   0  0  0  0  0  2  0  0  0  0  0  0
  190.3920  176.9480  138.3120 C   0  0  0  0  0  2  0  0  0  0  0  0
  187.9310  177.2810  138.3440 N   0  0  0  0  0  2  0  0  0  0  0  0
  182.0580  177.5500  137.7160 C   0  0  0  0  0  0  0  0  0  0  0  0
  180.1700  180.2540  136.5830 O   0  0  0  0  0  1  0  0  0  0  0  0
  181.3740  176.2940  137.2790 C   0  0  0  0  0  1  0  0  0  0  0  0
  181.7050  180.5020  138.3430 C   0  0  0  0  0  3  0  0  0  0  0  0
  183.3300  178.8870  139.4090 C   0  0  0  0  0  0  0  0  0  0  0  0
  182.0830  178.6750  136.7370 C   0  0  0  0  0  2  0  0  0  0  0  0
  182.8670  180.1280  139.1720 C   0  0  0  0  0  3  0  0  0  0  0  0
  182.6510  177.6460  138.9240 C   0  0  0  0  0  0  0  0  0  0  0  0
  182.6470  176.4610  139.8430 C   0  0  0  0  0  1  0  0  0  0  0  0
  181.3080  179.8370  137.2600 C   0  0  0  0  0  0  0  0  0  0  0  0
  189.3520  177.5370  144.4970 C   0  0  0  0  0  2  0  0  0  0  0  0
  188.9100  177.5030  145.9520 C   0  0  0  0  0  1  0  0  0  0  0  0
  1  4  1  0  0  0  0
  1  3  1  0  0  0  0
  2  4  2  0  0  0  0
  2  5  1  0  0  0  0
  3 18  1  0  0  0  0
  4 10  1  0  0  0  0
  5 11  1  6  0  0  0
  5 17  1  0  0  0  0
  6 19  1  0  0  0  0
  6 20  1  0  0  0  0
  7  2  1  0  0  0  0
  9  8  1  6  0  0  0
  9 11  1  0  0  0  0
 10 12  1  6  0  0  0
 10 13  1  0  0  0  0
 14 15  1  0  0  0  0
 14  7  2  0  0  0  0
 15  1  2  0  0  0  0
 16 20  1  6  0  0  0
 16  7  1  0  0  0  0
 16  9  1  0  0  0  0
 17 12  1  0  0  0  0
 17 31  1  1  0  0  0
 18 13  1  0  0  0  0
 19  8  1  0  0  0  0
 21 28  2  0  0  0  0
 22 30  1  0  0  0  0
 23 21  1  0  0  0  0
 24 27  1  0  0  0  0
 25 15  1  0  0  0  0
 26 30  1  0  0  0  0
 26 21  1  0  0  0  0
 27 25  2  0  0  0  0
 28 25  1  0  0  0  0
 28 29  1  0  0  0  0
 30 24  2  0  0  0  0
 31 32  1  0  0  0  0
M  END
>  <MODEL>
1

>  <REMARK>
 VINA RESULT:      -9.7      0.000      0.000
  Name = 
  2 active torsions:
  status: ('A' for Active; 'I' for Inactive)
    1  A    between atoms: C_13  and  C_29
    2  A    between atoms: C_16  and  C_27
                            x       y       z     vdW  Elec       q    Type
                         _______ _______ _______ _____ _____    ______ ____

>  <TORSDO>
F 2

$$$$
=
 OpenBabel10262421143D

 32 37  0  0  1  0  0  0  0  0999 V2000
  189.3280  177.5800  141.7290 C   0  0  0  0  0  0  0  0  0  0  0  0
  187.9950  177.4140  143.7480 C   0  0  0  0  0  0  0  0  0  0  0  0
  190.6810  177.6460  141.0640 C   0  0  0  0  0  2  0  0  0  0  0  0
  189.2410  177.4030  143.1270 C   0  0  0  0  0  0  0  0  0  0  0  0
  187.9170  177.1460  145.2290 C   0  0  2  0  0  3  0  0  0  0  0  0
  184.0020  179.8880  144.0540 C   0  0  0  0  0  2  0  0  0  0  0  0
  186.8630  177.7790  143.0230 C   0  0  0  0  0  0  0  0  0  0  0  0
  184.5880  178.4670  146.0390 C   0  0  0  0  0  2  0  0  0  0  0  0
  185.8780  178.2720  145.2390 C   0  0  1  0  0  3  0  0  0  0  0  0
  190.4570  177.1820  144.0040 C   0  0  2  0  0  3  0  0  0  0  0  0
  186.6170  177.2070  145.7980 O   0  0  0  0  0  0  0  0  0  0  0  0
  190.3540  178.0090  145.3000 C   0  0  0  0  0  2  0  0  0  0  0  0
  191.7660  177.5200  143.2940 C   0  0  0  0  0  2  0  0  0  0  0  0
  186.9560  177.9570  141.6780 N   0  0  0  0  0  0  0  0  0  0  0  0
  188.1370  177.8420  141.0030 C   0  0  0  0  0  0  0  0  0  0  0  0
  185.5690  177.9950  143.7490 C   0  0  1  0  0  3  0  0  0  0  0  0
  188.9760  177.9460  146.0060 C   0  0  2  0  0  3  0  0  0  0  0  0
  191.7620  176.9490  141.8840 C   0  0  0  0  0  2  0  0  0  0  0  0
  183.4480  179.0380  145.1950 C   0  0  0  0  0  2  0  0  0  0  0  0
  184.8090  179.0910  143.1180 N   0  0  0  0  0  2  0  0  0  0  0  0
  186.6230  177.4950  137.6000 C   0  0  0  0  0  0  0  0  0  0  0  0
  189.0460  178.1480  135.1780 O   0  0  0  0  0  1  0  0  0  0  0  0
  185.2870  177.5020  136.9290 C   0  0  0  0  0  1  0  0  0  0  0  0
  189.4970  178.4740  137.4590 C   0  0  0  0  0  3  0  0  0  0  0  0
  188.1160  178.0460  139.5330 C   0  0  0  0  0  0  0  0  0  0  0  0
  187.7440  176.8540  136.8540 C   0  0  0  0  0  2  0  0  0  0  0  0
  189.2830  178.2920  138.9090 C   0  0  0  0  0  3  0  0  0  0  0  0
  186.7960  178.0160  138.8320 C   0  0  0  0  0  0  0  0  0  0  0  0
  185.6180  178.5930  139.5610 C   0  0  0  0  0  1  0  0  0  0  0  0
  188.7870  177.8640  136.5120 C   0  0  0  0  0  0  0  0  0  0  0  0
  189.1150  177.4600  147.4470 C   0  0  0  0  0  2  0  0  0  0  0  0
  188.3630  178.3480  148.4260 C   0  0  0  0  0  1  0  0  0  0  0  0
  1  4  1  0  0  0  0
  3  1  1  0  0  0  0
  3 18  1  0  0  0  0
  4  2  2  0  0  0  0
  4 10  1  0  0  0  0
  5  2  1  6  0  0  0
  5 11  1  0  0  0  0
  5 17  1  0  0  0  0
  6 19  1  0  0  0  0
  7  2  1  0  0  0  0
  9 11  1  0  0  0  0
  9  8  1  1  0  0  0
 10 13  1  6  0  0  0
 10 12  1  0  0  0  0
 12 17  1  0  0  0  0
 14  7  2  0  0  0  0
 15 14  1  0  0  0  0
 15  1  2  0  0  0  0
 16  7  1  6  0  0  0
 16  9  1  0  0  0  0
 17 31  1  1  0  0  0
 18 13  1  0  0  0  0
 19  8  1  0  0  0  0
 20 16  1  0  0  0  0
 20  6  1  0  0  0  0
 21 28  2  0  0  0  0
 22 30  1  0  0  0  0
 23 21  1  0  0  0  0
 24 27  1  0  0  0  0
 25 15  1  0  0  0  0
 26 21  1  0  0  0  0
 27 25  2  0  0  0  0
 28 25  1  0  0  0  0
 28 29  1  0  0  0  0
 30 26  1  0  0  0  0
 30 24  2  0  0  0  0
 31 32  1  0  0  0  0
M  END
>  <MODEL>
2

>  <REMARK>
 VINA RESULT:      -9.2      3.003      5.838
  Name = 
  2 active torsions:
  status: ('A' for Active; 'I' for Inactive)
    1  A    between atoms: C_13  and  C_29
    2  A    between atoms: C_16  and  C_27
                            x       y       z     vdW  Elec       q    Type
                         _______ _______ _______ _____ _____    ______ ____

>  <TORSDO>
F 2

$$$$
=
 OpenBabel10262421143D

 32 37  0  0  1  0  0  0  0  0999 V2000
  189.7890  176.9230  142.9080 C   0  0  0  0  0  0  0  0  0  0  0  0
  187.8650  177.1570  144.3650 C   0  0  0  0  0  0  0  0  0  0  0  0
  191.2830  176.7970  142.7340 C   0  0  0  0  0  2  0  0  0  0  0  0
  189.2350  176.9690  144.2060 C   0  0  0  0  0  0  0  0  0  0  0  0
  187.2820  177.1260  145.7550 C   0  0  2  0  0  3  0  0  0  0  0  0
  184.2950  179.9070  143.0040 C   0  0  0  0  0  2  0  0  0  0  0  0
  187.0780  177.4810  143.2620 C   0  0  0  0  0  0  0  0  0  0  0  0
  184.0430  178.7720  145.2290 C   0  0  0  0  0  2  0  0  0  0  0  0
  185.4910  178.3710  144.9400 C   0  0  1  0  0  3  0  0  0  0  0  0
  190.0690  176.8050  145.4610 C   0  0  2  0  0  3  0  0  0  0  0  0
  185.8840  177.3590  145.8410 O   0  0  0  0  0  0  0  0  0  0  0  0
  189.6460  177.8260  146.5350 C   0  0  0  0  0  2  0  0  0  0  0  0
  191.5660  176.9430  145.1970 C   0  0  0  0  0  2  0  0  0  0  0  0
  187.6210  177.4440  142.0160 N   0  0  0  0  0  0  0  0  0  0  0  0
  188.9350  177.1500  141.7980 C   0  0  0  0  0  0  0  0  0  0  0  0
  185.6520  177.8910  143.4790 C   0  0  1  0  0  3  0  0  0  0  0  0
  188.1160  177.9630  146.7380 C   0  0  2  0  0  3  0  0  0  0  0  0
  191.9540  176.1650  143.9490 C   0  0  0  0  0  2  0  0  0  0  0  0
  183.3090  179.2810  143.9870 C   0  0  0  0  0  2  0  0  0  0  0  0
  185.2660  178.9250  142.4990 N   0  0  0  0  0  2  0  0  0  0  0  0
  188.4530  176.7930  138.1050 C   0  0  0  0  0  0  0  0  0  0  0  0
  191.5440  176.2740  136.5750 O   0  0  0  0  0  1  0  0  0  0  0  0
  187.4590  177.1210  137.0370 C   0  0  0  0  0  1  0  0  0  0  0  0
  191.3960  176.7790  138.8630 C   0  0  0  0  0  3  0  0  0  0  0  0
  189.4150  177.1270  140.3930 C   0  0  0  0  0  0  0  0  0  0  0  0
  189.4470  175.7250  137.7900 C   0  0  0  0  0  2  0  0  0  0  0  0
  190.7210  176.8940  140.1710 C   0  0  0  0  0  3  0  0  0  0  0  0
  188.4300  177.4100  139.3040 C   0  0  0  0  0  0  0  0  0  0  0  0
  187.3700  178.4320  139.5860 C   0  0  0  0  0  1  0  0  0  0  0  0
  190.8270  176.2910  137.7630 C   0  0  0  0  0  0  0  0  0  0  0  0
  187.7260  177.6960  148.1900 C   0  0  0  0  0  2  0  0  0  0  0  0
  188.7400  178.2660  149.1700 C   0  0  0  0  0  1  0  0  0  0  0  0
  1  4  1  0  0  0  0
  3  1  1  0  0  0  0
  3 18  1  0  0  0  0
  4  2  2  0  0  0  0
  4 10  1  0  0  0  0
  5  2  1  6  0  0  0
  5 11  1  0  0  0  0
  5 17  1  0  0  0  0
  6 19  1  0  0  0  0
  7 16  1  0  0  0  0
  7  2  1  0  0  0  0
  9  8  1  1  0  0  0
  9 11  1  0  0  0  0
 10 13  1  6  0  0  0
 10 12  1  0  0  0  0
 12 17  1  0  0  0  0
 14  7  2  0  0  0  0
 15 14  1  0  0  0  0
 15  1  2  0  0  0  0
 16 20  1  6  0  0  0
 16  9  1  0  0  0  0
 17 31  1  1  0  0  0
 18 13  1  0  0  0  0
 19  8  1  0  0  0  0
 20  6  1  0  0  0  0
 21 28  2  0  0  0  0
 22 30  1  0  0  0  0
 23 21  1  0  0  0  0
 24 27  1  0  0  0  0
 25 15  1  0  0  0  0
 26 21  1  0  0  0  0
 27 25  2  0  0  0  0
 28 29  1  0  0  0  0
 28 25  1  0  0  0  0
 30 26  1  0  0  0  0
 30 24  2  0  0  0  0
 31 32  1  0  0  0  0
M  END
>  <MODEL>
3

>  <REMARK>
 VINA RESULT:      -8.6      3.793      6.633
  Name = 
  2 active torsions:
  status: ('A' for Active; 'I' for Inactive)
    1  A    between atoms: C_13  and  C_29
    2  A    between atoms: C_16  and  C_27
                            x       y       z     vdW  Elec       q    Type
                         _______ _______ _______ _____ _____    ______ ____

>  <TORSDO>
F 2

$$$$
=
 OpenBabel10262421143D

 32 37  0  0  1  0  0  0  0  0999 V2000
  185.4300  178.2510  142.7840 C   0  0  0  0  0  0  0  0  0  0  0  0
  187.1750  178.4490  141.1130 C   0  0  0  0  0  0  0  0  0  0  0  0
  185.0070  177.9030  144.1900 C   0  0  0  0  0  2  0  0  0  0  0  0
  186.7950  178.1970  142.4280 C   0  0  0  0  0  0  0  0  0  0  0  0
  188.6440  178.4620  140.7690 C   0  0  2  0  0  3  0  0  0  0  0  0
  186.2140  177.2660  136.6600 C   0  0  0  0  0  2  0  0  0  0  0  0
  186.2040  178.5720  140.1220 C   0  0  0  0  0  0  0  0  0  0  0  0
  188.5450  178.0740  137.1190 C   0  0  0  0  0  2  0  0  0  0  0  0
  188.0440  178.0140  138.5640 C   0  0  1  0  0  3  0  0  0  0  0  0
  187.8930  177.8870  143.4260 C   0  0  2  0  0  3  0  0  0  0  0  0
  188.9530  178.6930  139.4020 O   0  0  0  0  0  0  0  0  0  0  0  0
  188.9220  176.9140  142.8210 C   0  0  0  0  0  2  0  0  0  0  0  0
  187.3560  177.3040  144.7320 C   0  0  0  0  0  2  0  0  0  0  0  0
  184.8910  178.6140  140.4720 N   0  0  0  0  0  0  0  0  0  0  0  0
  184.4720  178.4880  141.7650 C   0  0  0  0  0  0  0  0  0  0  0  0
  186.6300  178.6270  138.6860 C   0  0  1  0  0  3  0  0  0  0  0  0
  189.3790  177.2600  141.3810 C   0  0  2  0  0  3  0  0  0  0  0  0
  186.1380  178.0890  145.1960 C   0  0  0  0  0  2  0  0  0  0  0  0
  187.4100  178.0280  136.0950 C   0  0  0  0  0  2  0  0  0  0  0  0
  185.6400  177.9380  137.8360 N   0  0  0  0  0  2  0  0  0  0  0  0
  180.8870  178.6670  140.7110 C   0  0  0  0  0  0  0  0  0  0  0  0
  178.9310  179.6850  143.4140 O   0  0  0  0  0  1  0  0  0  0  0  0
  179.9720  178.1440  139.6510 C   0  0  0  0  0  1  0  0  0  0  0  0
  181.2160  179.2160  143.6820 C   0  0  0  0  0  3  0  0  0  0  0  0
  183.0140  178.5620  142.0300 C   0  0  0  0  0  0  0  0  0  0  0  0
  180.4350  179.8850  141.4460 C   0  0  0  0  0  2  0  0  0  0  0  0
  182.6070  179.0160  143.2300 C   0  0  0  0  0  3  0  0  0  0  0  0
  182.0750  178.0840  140.9670 C   0  0  0  0  0  0  0  0  0  0  0  0
  182.5050  176.8980  140.1560 C   0  0  0  0  0  1  0  0  0  0  0  0
  180.2100  179.5700  142.8850 C   0  0  0  0  0  0  0  0  0  0  0  0
  190.8960  177.4200  141.3070 C   0  0  0  0  0  2  0  0  0  0  0  0
  191.5450  177.3800  142.6820 C   0  0  0  0  0  1  0  0  0  0  0  0
  1  3  1  0  0  0  0
  2  4  2  0  0  0  0
  3 18  1  0  0  0  0
  4  1  1  0  0  0  0
  4 10  1  0  0  0  0
  5 11  1  6  0  0  0
  5  2  1  0  0  0  0
  5 17  1  0  0  0  0
  6 20  1  0  0  0  0
  7 14  2  0  0  0  0
  7  2  1  0  0  0  0
  9  8  1  6  0  0  0
  9 16  1  0  0  0  0
  9 11  1  0  0  0  0
 10 12  1  6  0  0  0
 10 13  1  0  0  0  0
 13 18  1  0  0  0  0
 14 15  1  0  0  0  0
 15 25  1  0  0  0  0
 15  1  2  0  0  0  0
 16 20  1  6  0  0  0
 16  7  1  0  0  0  0
 17 31  1  1  0  0  0
 17 12  1  0  0  0  0
 19  6  1  0  0  0  0
 19  8  1  0  0  0  0
 21 28  2  0  0  0  0
 21 26  1  0  0  0  0
 23 21  1  0  0  0  0
 25 27  2  0  0  0  0
 26 30  1  0  0  0  0
 27 24  1  0  0  0  0
 28 25  1  0  0  0  0
 29 28  1  0  0  0  0
 30 22  1  0  0  0  0
 30 24  2  0  0  0  0
 31 32  1  0  0  0  0
M  END
>  <MODEL>
4

>  <REMARK>
 VINA RESULT:      -8.5      2.213      3.229
  Name = 
  2 active torsions:
  status: ('A' for Active; 'I' for Inactive)
    1  A    between atoms: C_13  and  C_29
    2  A    between atoms: C_16  and  C_27
                            x       y       z     vdW  Elec       q    Type
                         _______ _______ _______ _____ _____    ______ ____

>  <TORSDO>
F 2

$$$$
=
 OpenBabel10262421143D

 32 37  0  0  1  0  0  0  0  0999 V2000
  184.1710  178.6840  141.3970 C   0  0  0  0  0  0  0  0  0  0  0  0
  186.5930  178.6050  141.3200 C   0  0  0  0  0  0  0  0  0  0  0  0
  182.8900  178.6240  142.1930 C   0  0  0  0  0  2  0  0  0  0  0  0
  185.4140  178.6220  142.0610 C   0  0  0  0  0  0  0  0  0  0  0  0
  187.9120  178.6160  142.0500 C   0  0  2  0  0  3  0  0  0  0  0  0
  188.6910  176.4540  137.6980 C   0  0  0  0  0  2  0  0  0  0  0  0
  186.5380  178.4660  139.9350 C   0  0  0  0  0  0  0  0  0  0  0  0
  190.2070  177.4530  139.4300 C   0  0  0  0  0  2  0  0  0  0  0  0
  188.8740  177.6780  140.1470 C   0  0  1  0  0  3  0  0  0  0  0  0
  185.5370  178.5850  143.5710 C   0  0  2  0  0  3  0  0  0  0  0  0
  189.0690  178.5640  141.2280 O   0  0  0  0  0  0  0  0  0  0  0  0
  186.5980  177.5560  144.0090 C   0  0  0  0  0  2  0  0  0  0  0  0
  184.2140  178.2690  144.2640 C   0  0  0  0  0  2  0  0  0  0  0  0
  185.3350  178.5180  139.3020 N   0  0  0  0  0  0  0  0  0  0  0  0
  184.1570  178.6510  139.9780 C   0  0  0  0  0  0  0  0  0  0  0  0
  187.8090  178.2350  139.1740 C   0  0  1  0  0  3  0  0  0  0  0  0
  187.9260  177.6090  143.2110 C   0  0  2  0  0  3  0  0  0  0  0  0
  183.0870  179.0750  143.6370 C   0  0  0  0  0  2  0  0  0  0  0  0
  190.0350  177.1340  137.9440 C   0  0  0  0  0  2  0  0  0  0  0  0
  187.5600  177.3320  138.0330 N   0  0  0  0  0  2  0  0  0  0  0  0
  180.9550  180.2520  138.8920 C   0  0  0  0  0  0  0  0  0  0  0  0
  178.9670  177.8910  137.2700 O   0  0  0  0  0  1  0  0  0  0  0  0
  180.3800  181.6050  138.6190 C   0  0  0  0  0  1  0  0  0  0  0  0
  181.1650  177.3810  137.9180 C   0  0  0  0  0  3  0  0  0  0  0  0
  182.9060  178.7090  139.1820 C   0  0  0  0  0  0  0  0  0  0  0  0
  179.9830  179.1510  139.1550 C   0  0  0  0  0  2  0  0  0  0  0  0
  182.4120  177.5580  138.6880 C   0  0  0  0  0  3  0  0  0  0  0  0
  182.2870  180.0470  138.9300 C   0  0  0  0  0  0  0  0  0  0  0  0
  183.2180  181.2040  138.7190 C   0  0  0  0  0  1  0  0  0  0  0  0
  180.0680  178.1170  138.0850 C   0  0  0  0  0  0  0  0  0  0  0  0
  189.1190  177.8220  144.1390 C   0  0  0  0  0  2  0  0  0  0  0  0
  188.7820  177.5100  145.5880 C   0  0  0  0  0  1  0  0  0  0  0  0
  1  4  1  0  0  0  0
  1  3  1  0  0  0  0
  2  5  1  0  0  0  0
  2  4  2  0  0  0  0
  3 18  1  0  0  0  0
  4 10  1  0  0  0  0
  5 11  1  6  0  0  0
  5 17  1  0  0  0  0
  6 19  1  0  0  0  0
  6 20  1  0  0  0  0
  7  2  1  0  0  0  0
  9  8  1  6  0  0  0
  9 11  1  0  0  0  0
 10 12  1  6  0  0  0
 10 13  1  0  0  0  0
 14  7  2  0  0  0  0
 14 15  1  0  0  0  0
 15  1  2  0  0  0  0
 16 20  1  6  0  0  0
 16  7  1  0  0  0  0
 16  9  1  0  0  0  0
 17 12  1  0  0  0  0
 17 31  1  1  0  0  0
 18 13  1  0  0  0  0
 19  8  1  0  0  0  0
 21 28  2  0  0  0  0
 21 26  1  0  0  0  0
 22 30  1  0  0  0  0
 23 21  1  0  0  0  0
 24 30  2  0  0  0  0
 24 27  1  0  0  0  0
 25 15  1  0  0  0  0
 27 25  2  0  0  0  0
 28 25  1  0  0  0  0
 29 28  1  0  0  0  0
 30 26  1  0  0  0  0
 31 32  1  0  0  0  0
M  END
>  <MODEL>
5

>  <REMARK>
 VINA RESULT:      -8.5      0.959      1.908
  Name = 
  2 active torsions:
  status: ('A' for Active; 'I' for Inactive)
    1  A    between atoms: C_13  and  C_29
    2  A    between atoms: C_16  and  C_27
                            x       y       z     vdW  Elec       q    Type
                         _______ _______ _______ _____ _____    ______ ____

>  <TORSDO>
F 2

$$$$
=
 OpenBabel10262421143D

 32 37  0  0  1  0  0  0  0  0999 V2000
  186.7370  178.1400  141.5900 C   0  0  0  0  0  0  0  0  0  0  0  0
  187.8900  177.4720  143.6150 C   0  0  0  0  0  0  0  0  0  0  0  0
  186.7810  178.5040  140.1260 C   0  0  0  0  0  2  0  0  0  0  0  0
  187.9190  177.7380  142.2490 C   0  0  0  0  0  0  0  0  0  0  0  0
  189.1440  176.9700  144.2860 C   0  0  2  0  0  3  0  0  0  0  0  0
  186.4870  179.2630  147.7350 C   0  0  0  0  0  2  0  0  0  0  0  0
  186.7520  177.7770  144.3570 C   0  0  0  0  0  0  0  0  0  0  0  0
  188.4100  177.6530  147.8180 C   0  0  0  0  0  2  0  0  0  0  0  0
  188.2870  177.7720  146.2970 C   0  0  1  0  0  3  0  0  0  0  0  0
  189.2420  177.5630  141.5300 C   0  0  2  0  0  3  0  0  0  0  0  0
  189.0480  176.7530  145.6860 O   0  0  0  0  0  0  0  0  0  0  0  0
  190.3970  178.1550  142.3590 C   0  0  0  0  0  2  0  0  0  0  0  0
  189.2450  178.1920  140.1390 C   0  0  0  0  0  2  0  0  0  0  0  0
  185.6200  178.1730  143.7160 N   0  0  0  0  0  0  0  0  0  0  0  0
  185.5630  178.3360  142.3620 C   0  0  0  0  0  0  0  0  0  0  0  0
  186.8090  177.6880  145.8520 C   0  0  1  0  0  3  0  0  0  0  0  0
  190.3770  177.7840  143.8640 C   0  0  2  0  0  3  0  0  0  0  0  0
  187.9570  177.8530  139.4040 C   0  0  0  0  0  2  0  0  0  0  0  0
  187.1770  178.1760  148.5550 C   0  0  0  0  0  2  0  0  0  0  0  0
  185.9770  178.7470  146.4570 N   0  0  0  0  0  2  0  0  0  0  0  0
  181.8340  178.6280  142.3350 C   0  0  0  0  0  0  0  0  0  0  0  0
  180.7550  179.4420  139.1200 O   0  0  0  0  0  1  0  0  0  0  0  0
  180.6890  178.8420  143.2730 C   0  0  0  0  0  1  0  0  0  0  0  0
  183.0420  179.3840  139.6500 C   0  0  0  0  0  3  0  0  0  0  0  0
  184.2700  178.7600  141.7700 C   0  0  0  0  0  0  0  0  0  0  0  0
  181.5100  178.0190  141.0120 C   0  0  0  0  0  2  0  0  0  0  0  0
  184.2250  179.0030  140.4470 C   0  0  0  0  0  3  0  0  0  0  0  0
  183.0980  178.9410  142.6820 C   0  0  0  0  0  0  0  0  0  0  0  0
  183.3720  179.4940  144.0490 C   0  0  0  0  0  1  0  0  0  0  0  0
  181.7990  178.9820  139.9110 C   0  0  0  0  0  0  0  0  0  0  0  0
  191.6810  177.1070  144.2820 C   0  0  0  0  0  2  0  0  0  0  0  0
  191.6810  175.6200  143.9640 C   0  0  0  0  0  1  0  0  0  0  0  0
  1  4  2  0  0  0  0
  1 15  1  0  0  0  0
  2  7  2  0  0  0  0
  3  1  1  0  0  0  0
  4  2  1  0  0  0  0
  5  2  1  1  0  0  0
  5 11  1  0  0  0  0
  6 19  1  0  0  0  0
  8 19  1  0  0  0  0
  9  8  1  1  0  0  0
 10 13  1  6  0  0  0
 10  4  1  0  0  0  0
 10 12  1  0  0  0  0
 11  9  1  0  0  0  0
 12 17  1  0  0  0  0
 14  7  1  0  0  0  0
 15 14  2  0  0  0  0
 16  7  1  6  0  0  0
 16  9  1  0  0  0  0
 16 20  1  0  0  0  0
 17 31  1  6  0  0  0
 17  5  1  0  0  0  0
 18  3  1  0  0  0  0
 18 13  1  0  0  0  0
 20  6  1  0  0  0  0
 21 28  2  0  0  0  0
 21 23  1  0  0  0  0
 22 30  1  0  0  0  0
 24 30  2  0  0  0  0
 24 27  1  0  0  0  0
 25 15  1  0  0  0  0
 25 28  1  0  0  0  0
 26 21  1  0  0  0  0
 27 25  2  0  0  0  0
 28 29  1  0  0  0  0
 30 26  1  0  0  0  0
 32 31  1  0  0  0  0
M  END
>  <MODEL>
6

>  <REMARK>
 VINA RESULT:      -8.3      2.257      5.150
  Name = 
  2 active torsions:
  status: ('A' for Active; 'I' for Inactive)
    1  A    between atoms: C_13  and  C_29
    2  A    between atoms: C_16  and  C_27
                            x       y       z     vdW  Elec       q    Type
                         _______ _______ _______ _____ _____    ______ ____

>  <TORSDO>
F 2

$$$$
=
 OpenBabel10262421143D

 32 37  0  0  1  0  0  0  0  0999 V2000
  189.4460  177.1870  140.5370 C   0  0  0  0  0  0  0  0  0  0  0  0
  187.5770  178.1780  139.3530 C   0  0  0  0  0  0  0  0  0  0  0  0
  190.7320  176.3960  140.5130 C   0  0  0  0  0  2  0  0  0  0  0  0
  188.7990  177.5110  139.3250 C   0  0  0  0  0  0  0  0  0  0  0  0
  186.9400  178.5830  138.0480 C   0  0  2  0  0  3  0  0  0  0  0  0
  183.3050  178.0580  141.3240 C   0  0  0  0  0  2  0  0  0  0  0  0
  186.9140  178.3590  140.5640 C   0  0  0  0  0  0  0  0  0  0  0  0
  183.4660  179.1740  139.0820 C   0  0  0  0  0  2  0  0  0  0  0  0
  184.8940  178.6280  139.1600 C   0  0  1  0  0  3  0  0  0  0  0  0
  189.3830  177.1770  137.9670 C   0  0  2  0  0  3  0  0  0  0  0  0
  185.6790  179.2290  138.1540 O   0  0  0  0  0  0  0  0  0  0  0  0
  188.2940  176.6330  137.0230 C   0  0  0  0  0  2  0  0  0  0  0  0
  190.5280  176.1690  138.0490 C   0  0  0  0  0  2  0  0  0  0  0  0
  187.5400  178.0360  141.7270 N   0  0  0  0  0  0  0  0  0  0  0  0
  188.7890  177.4860  141.7590 C   0  0  0  0  0  0  0  0  0  0  0  0
  185.5090  178.8830  140.5550 C   0  0  1  0  0  3  0  0  0  0  0  0
  186.9690  177.4380  137.0230 C   0  0  2  0  0  3  0  0  0  0  0  0
  191.4700  176.5340  139.1860 C   0  0  0  0  0  2  0  0  0  0  0  0
  182.7560  179.1710  140.4360 C   0  0  0  0  0  2  0  0  0  0  0  0
  184.7280  178.2580  141.6400 N   0  0  0  0  0  2  0  0  0  0  0  0
  188.8860  177.6730  145.4930 C   0  0  0  0  0  0  0  0  0  0  0  0
  192.0560  176.7530  146.6210 O   0  0  0  0  0  1  0  0  0  0  0  0
  187.9630  177.6810  146.6700 C   0  0  0  0  0  1  0  0  0  0  0  0
  191.4740  176.5600  144.3540 C   0  0  0  0  0  3  0  0  0  0  0  0
  189.3790  177.1860  143.0870 C   0  0  0  0  0  0  0  0  0  0  0  0
  190.2590  178.2120  145.7160 C   0  0  0  0  0  2  0  0  0  0  0  0
  190.6800  176.8480  143.1440 C   0  0  0  0  0  3  0  0  0  0  0  0
  188.4850  177.2290  144.2850 C   0  0  0  0  0  0  0  0  0  0  0  0
  187.0730  176.7550  144.1050 C   0  0  0  0  0  1  0  0  0  0  0  0
  191.2760  177.1360  145.5380 C   0  0  0  0  0  0  0  0  0  0  0  0
  186.6160  177.9190  135.6170 C   0  0  0  0  0  2  0  0  0  0  0  0
  187.6690  177.5240  134.5940 C   0  0  0  0  0  1  0  0  0  0  0  0
  1 15  1  0  0  0  0
  2  7  2  0  0  0  0
  3  1  1  0  0  0  0
  4  2  1  0  0  0  0
  4  1  2  0  0  0  0
  5 11  1  1  0  0  0
  5  2  1  0  0  0  0
  6 20  1  0  0  0  0
  7 14  1  0  0  0  0
  8 19  1  0  0  0  0
  9  8  1  1  0  0  0
  9 16  1  0  0  0  0
 10 12  1  6  0  0  0
 10 13  1  0  0  0  0
 10  4  1  0  0  0  0
 11  9  1  0  0  0  0
 13 18  1  0  0  0  0
 14 15  2  0  0  0  0
 15 25  1  0  0  0  0
 16  7  1  6  0  0  0
 16 20  1  0  0  0  0
 17 31  1  6  0  0  0
 17 12  1  0  0  0  0
 17  5  1  0  0  0  0
 18  3  1  0  0  0  0
 19  6  1  0  0  0  0
 21 26  1  0  0  0  0
 21 23  1  0  0  0  0
 24 30  2  0  0  0  0
 25 27  2  0  0  0  0
 25 28  1  0  0  0  0
 27 24  1  0  0  0  0
 28 21  2  0  0  0  0
 29 28  1  0  0  0  0
 30 26  1  0  0  0  0
 30 22  1  0  0  0  0
 32 31  1  0  0  0  0
M  END
>  <MODEL>
7

>  <REMARK>
 VINA RESULT:      -8.2      2.304      8.226
  Name = 
  2 active torsions:
  status: ('A' for Active; 'I' for Inactive)
    1  A    between atoms: C_13  and  C_29
    2  A    between atoms: C_16  and  C_27
                            x       y       z     vdW  Elec       q    Type
                         _______ _______ _______ _____ _____    ______ ____

>  <TORSDO>
F 2

$$$$
=
 OpenBabel10262421143D

 32 37  0  0  1  0  0  0  0  0999 V2000
  188.8850  177.5950  141.4790 C   0  0  0  0  0  0  0  0  0  0  0  0
  187.2800  178.2810  139.7950 C   0  0  0  0  0  0  0  0  0  0  0  0
  190.1700  176.8940  141.8430 C   0  0  0  0  0  2  0  0  0  0  0  0
  188.5010  177.6980  140.1240 C   0  0  0  0  0  0  0  0  0  0  0  0
  186.9240  178.4510  138.3400 C   0  0  2  0  0  3  0  0  0  0  0  0
  182.6920  178.1700  140.8370 C   0  0  0  0  0  2  0  0  0  0  0  0
  186.3680  178.5920  140.8000 C   0  0  0  0  0  0  0  0  0  0  0  0
  183.2920  178.9580  138.5310 C   0  0  0  0  0  2  0  0  0  0  0  0
  184.6870  178.5230  138.9860 C   0  0  1  0  0  3  0  0  0  0  0  0
  189.3730  177.2090  138.9840 C   0  0  2  0  0  3  0  0  0  0  0  0
  185.6490  179.0220  138.0830 O   0  0  0  0  0  0  0  0  0  0  0  0
  188.5300  176.4660  137.9310 C   0  0  0  0  0  2  0  0  0  0  0  0
  190.5060  176.3010  139.4550 C   0  0  0  0  0  2  0  0  0  0  0  0
  186.7410  178.4810  142.1030 N   0  0  0  0  0  0  0  0  0  0  0  0
  187.9720  178.0240  142.4770 C   0  0  0  0  0  0  0  0  0  0  0  0
  184.9810  179.0170  140.4210 C   0  0  1  0  0  3  0  0  0  0  0  0
  187.2090  177.1740  137.5340 C   0  0  2  0  0  3  0  0  0  0  0  0
  191.1700  176.8860  140.6920 C   0  0  0  0  0  2  0  0  0  0  0  0
  182.3090  179.1050  139.6930 C   0  0  0  0  0  2  0  0  0  0  0  0
  184.0060  178.5050  141.4050 N   0  0  0  0  0  2  0  0  0  0  0  0
  190.2490  177.5010  145.3980 C   0  0  0  0  0  0  0  0  0  0  0  0
  188.3470  177.0130  148.2810 O   0  0  0  0  0  1  0  0  0  0  0  0
  191.6620  177.7540  145.8160 C   0  0  0  0  0  1  0  0  0  0  0  0
  187.3330  177.6080  146.2480 C   0  0  0  0  0  3  0  0  0  0  0  0
  188.2730  177.9580  143.9280 C   0  0  0  0  0  0  0  0  0  0  0  0
  189.5040  176.4520  146.1550 C   0  0  0  0  0  2  0  0  0  0  0  0
  187.2530  177.7550  144.7820 C   0  0  0  0  0  3  0  0  0  0  0  0
  189.6870  178.1660  144.3690 C   0  0  0  0  0  0  0  0  0  0  0  0
  190.5030  179.1670  143.6050 C   0  0  0  0  0  1  0  0  0  0  0  0
  188.3590  177.0570  146.8940 C   0  0  0  0  0  0  0  0  0  0  0  0
  187.1490  177.4230  136.0280 C   0  0  0  0  0  2  0  0  0  0  0  0
  188.5330  177.5690  135.4150 C   0  0  0  0  0  1  0  0  0  0  0  0
  1  3  1  0  0  0  0
  1 15  1  0  0  0  0
  2  4  1  0  0  0  0
  2  7  2  0  0  0  0
  4  1  2  0  0  0  0
  5 11  1  1  0  0  0
  5  2  1  0  0  0  0
  6 20  1  0  0  0  0
  7 14  1  0  0  0  0
  8 19  1  0  0  0  0
  9  8  1  6  0  0  0
  9 16  1  0  0  0  0
 10 12  1  6  0  0  0
 10 13  1  0  0  0  0
 10  4  1  0  0  0  0
 11  9  1  0  0  0  0
 13 18  1  0  0  0  0
 14 15  2  0  0  0  0
 15 25  1  0  0  0  0
 16  7  1  1  0  0  0
 16 20  1  0  0  0  0
 17 31  1  6  0  0  0
 17 12  1  0  0  0  0
 17  5  1  0  0  0  0
 18  3  1  0  0  0  0
 19  6  1  0  0  0  0
 21 23  1  0  0  0  0
 21 26  1  0  0  0  0
 24 30  2  0  0  0  0
 25 28  1  0  0  0  0
 25 27  2  0  0  0  0
 26 30  1  0  0  0  0
 27 24  1  0  0  0  0
 28 21  2  0  0  0  0
 29 28  1  0  0  0  0
 30 22  1  0  0  0  0
 32 31  1  0  0  0  0
M  END
>  <MODEL>
8

>  <REMARK>
 VINA RESULT:      -7.8      2.259      7.979
  Name = 
  2 active torsions:
  status: ('A' for Active; 'I' for Inactive)
    1  A    between atoms: C_13  and  C_29
    2  A    between atoms: C_16  and  C_27
                            x       y       z     vdW  Elec       q    Type
                         _______ _______ _______ _____ _____    ______ ____

>  <TORSDO>
F 2

$$$$
=
 OpenBabel10262421143D

 32 37  0  0  1  0  0  0  0  0999 V2000
  188.7050  177.6820  142.1700 C   0  0  0  0  0  0  0  0  0  0  0  0
  188.9010  177.9310  139.7660 C   0  0  0  0  0  0  0  0  0  0  0  0
  189.3170  177.2930  143.4930 C   0  0  0  0  0  2  0  0  0  0  0  0
  189.4870  177.6410  140.9950 C   0  0  0  0  0  0  0  0  0  0  0  0
  189.7700  177.9570  138.5340 C   0  0  2  0  0  3  0  0  0  0  0  0
  185.2030  176.8740  137.0530 C   0  0  0  0  0  2  0  0  0  0  0  0
  187.5200  178.0800  139.6750 C   0  0  0  0  0  0  0  0  0  0  0  0
  187.2640  177.6730  135.8650 C   0  0  0  0  0  2  0  0  0  0  0  0
  187.8490  177.5700  137.2760 C   0  0  1  0  0  3  0  0  0  0  0  0
  190.9650  177.3040  141.0040 C   0  0  2  0  0  3  0  0  0  0  0  0
  189.0970  178.2270  137.3130 O   0  0  0  0  0  0  0  0  0  0  0  0
  191.3150  176.3500  139.8460 C   0  0  0  0  0  2  0  0  0  0  0  0
  191.4210  176.6830  142.3220 C   0  0  0  0  0  2  0  0  0  0  0  0
  186.7720  178.1100  140.8100 N   0  0  0  0  0  0  0  0  0  0  0  0
  187.3160  177.9460  142.0510 C   0  0  0  0  0  0  0  0  0  0  0  0
  186.8840  178.1780  138.3200 C   0  0  1  0  0  3  0  0  0  0  0  0
  190.7050  176.7380  138.4740 C   0  0  2  0  0  3  0  0  0  0  0  0
  190.8340  177.4520  143.4960 C   0  0  0  0  0  2  0  0  0  0  0  0
  185.7350  177.6540  135.8540 C   0  0  0  0  0  2  0  0  0  0  0  0
  185.5670  177.5110  138.3280 N   0  0  0  0  0  2  0  0  0  0  0  0
  184.2490  179.1260  143.8390 C   0  0  0  0  0  0  0  0  0  0  0  0
  184.5940  178.5250  147.2570 O   0  0  0  0  0  1  0  0  0  0  0  0
  182.8150  179.4530  143.5710 C   0  0  0  0  0  1  0  0  0  0  0  0
  186.1860  177.7350  145.7230 C   0  0  0  0  0  3  0  0  0  0  0  0
  186.4040  178.0100  143.2190 C   0  0  0  0  0  0  0  0  0  0  0  0
  184.8460  179.6980  145.0810 C   0  0  0  0  0  2  0  0  0  0  0  0
  186.8980  177.6920  144.4300 C   0  0  0  0  0  3  0  0  0  0  0  0
  184.9730  178.3760  142.9830 C   0  0  0  0  0  0  0  0  0  0  0  0
  184.3370  177.8780  141.7190 C   0  0  0  0  0  1  0  0  0  0  0  0
  185.2270  178.6080  146.0250 C   0  0  0  0  0  0  0  0  0  0  0  0
  191.7920  176.9030  137.4140 C   0  0  0  0  0  2  0  0  0  0  0  0
  193.1290  176.3410  137.8710 C   0  0  0  0  0  1  0  0  0  0  0  0
  1  3  1  0  0  0  0
  2  4  1  0  0  0  0
  3 18  1  0  0  0  0
  4 10  1  0  0  0  0
  4  1  2  0  0  0  0
  5 11  1  6  0  0  0
  5  2  1  0  0  0  0
  6 20  1  0  0  0  0
  7  2  2  0  0  0  0
  7 14  1  0  0  0  0
  9  8  1  6  0  0  0
  9 11  1  0  0  0  0
  9 16  1  0  0  0  0
 10 12  1  6  0  0  0
 10 13  1  0  0  0  0
 13 18  1  0  0  0  0
 14 15  2  0  0  0  0
 15  1  1  0  0  0  0
 15 25  1  0  0  0  0
 16 20  1  1  0  0  0
 16  7  1  0  0  0  0
 17 31  1  6  0  0  0
 17  5  1  0  0  0  0
 17 12  1  0  0  0  0
 19  8  1  0  0  0  0
 19  6  1  0  0  0  0
 21 26  1  0  0  0  0
 23 21  1  0  0  0  0
 24 30  2  0  0  0  0
 25 27  2  0  0  0  0
 26 30  1  0  0  0  0
 27 24  1  0  0  0  0
 28 25  1  0  0  0  0
 28 21  2  0  0  0  0
 29 28  1  0  0  0  0
 30 22  1  0  0  0  0
 31 32  1  0  0  0  0
M  END
>  <MODEL>
9

>  <REMARK>
 VINA RESULT:      -7.6      2.881      6.079
  Name = 
  2 active torsions:
  status: ('A' for Active; 'I' for Inactive)
    1  A    between atoms: C_13  and  C_29
    2  A    between atoms: C_16  and  C_27
                            x       y       z     vdW  Elec       q    Type
                         _______ _______ _______ _____ _____    ______ ____

>  <TORSDO>
F 2

$$$$
