=
 OpenBabel10252414573D

 34 39  0  0  1  0  0  0  0  0999 V2000
  186.0740  178.0330  143.3890 C   0  0  0  0  0  0  0  0  0  0  0  0
  186.7600  178.3600  140.9190 C   0  0  0  0  0  0  0  0  0  0  0  0
  190.3210  176.9990  138.0810 C   0  0  1  0  0  3  0  0  0  0  0  0
  188.3880  177.7660  142.7010 C   0  0  0  0  0  0  0  0  0  0  0  0
  191.2710  176.9530  140.5760 C   0  0  0  0  0  2  0  0  0  0  0  0
  185.6990  178.9310  140.5530 O   0  0  0  0  0  0  0  0  0  0  0  0
  188.8550  177.1590  140.4200 C   0  0  2  0  0  3  0  0  0  0  0  0
  187.0540  178.0990  142.3730 C   0  0  0  0  0  0  0  0  0  0  0  0
  190.1030  177.0380  139.5990 C   0  0  1  0  0  0  0  0  0  0  0  0
  190.7680  177.4010  141.8860 N   0  0  2  0  0  0  0  0  0  0  0  0
  188.7250  177.2310  143.9460 C   0  0  0  0  0  0  0  0  0  0  0  0
  186.4330  177.5640  144.6640 C   0  0  0  0  0  3  0  0  0  0  0  0
  187.7340  177.9570  139.9300 N   0  0  0  0  0  2  0  0  0  0  0  0
  190.7560  176.2700  142.8220 C   0  0  0  0  0  2  0  0  0  0  0  0
  190.1150  176.6820  144.1650 C   0  0  1  0  0  3  0  0  0  0  0  0
  190.0070  175.7280  138.8450 C   0  0  0  0  0  2  0  0  0  0  0  0
  189.4030  177.8710  141.6120 C   0  0  2  0  0  3  0  0  0  0  0  0
  187.7420  177.1480  144.9360 C   0  0  0  0  0  3  0  0  0  0  0  0
  186.7160  176.9880  136.8900 C   0  0  0  0  0  2  0  0  0  0  0  0
  189.1440  177.5550  137.3260 C   0  0  0  0  0  0  0  0  0  0  0  0
  188.1670  176.5520  136.7520 C   0  0  0  0  0  2  0  0  0  0  0  0
  187.3190  178.9320  135.3350 C   0  0  0  0  0  2  0  0  0  0  0  0
  187.8510  179.6310  136.5770 C   0  0  0  0  0  2  0  0  0  0  0  0
  189.0070  178.8950  137.2050 C   0  0  0  0  0  3  0  0  0  0  0  0
  186.2910  177.8600  135.7050 C   0  0  0  0  0  2  0  0  0  0  0  0
  184.0240  178.9970  144.3740 C   0  0  0  0  0  1  0  0  0  0  0  0
  184.6410  178.3690  143.1380 C   0  0  0  0  0  2  0  0  0  0  0  0
  191.0350  177.6250  144.9550 C   0  0  1  0  0  3  0  0  0  0  0  0
  191.4830  176.4620  147.1590 C   0  0  0  0  0  0  0  0  0  0  0  0
  190.3150  176.7010  147.5650 O   0  0  0  0  0  0  0  0  0  0  0  0
  191.9050  176.8840  145.8620 N   0  0  0  0  0  2  0  0  0  0  0  0
  192.4320  175.7300  148.0360 C   0  0  0  0  0  1  0  0  0  0  0  0
  191.0130  180.1290  144.1480 C   0  0  0  0  0  1  0  0  0  0  0  0
  192.0300  178.6590  143.8330 S   0  0  0  0  0  0  0  0  0  0  0  0
  1 12  1  0  0  0  0
  2  8  1  0  0  0  0
  3 20  1  6  0  0  0
  3 16  1  0  0  0  0
  3  9  1  0  0  0  0
  4 11  2  0  0  0  0
  6  2  2  0  0  0  0
  7 13  1  6  0  0  0
  7 17  1  0  0  0  0
  8  4  1  0  0  0  0
  8  1  2  0  0  0  0
  9 16  1  1  0  0  0
  9  7  1  0  0  0  0
  9  5  1  0  0  0  0
 10  5  1  6  0  0  0
 10 14  1  0  0  0  0
 11 15  1  0  0  0  0
 11 18  1  0  0  0  0
 12 18  2  0  0  0  0
 13  2  1  0  0  0  0
 14 15  1  0  0  0  0
 15 28  1  6  0  0  0
 17 10  1  0  0  0  0
 17  4  1  1  0  0  0
 21 19  1  0  0  0  0
 21 20  1  0  0  0  0
 22 25  1  0  0  0  0
 22 23  1  0  0  0  0
 23 24  1  0  0  0  0
 24 20  2  0  0  0  0
 25 19  1  0  0  0  0
 27  1  1  0  0  0  0
 27 26  1  0  0  0  0
 28 34  1  6  0  0  0
 28 31  1  0  0  0  0
 29 30  2  0  0  0  0
 29 32  1  0  0  0  0
 31 29  1  0  0  0  0
 34 33  1  0  0  0  0
M  END
>  <MODEL>
1

>  <REMARK>
 VINA RESULT:      -8.4      0.000      0.000
  Name = 
  5 active torsions:
  status: ('A' for Active; 'I' for Inactive)
    1  A    between atoms: C_1  and  C_19
    2  A    between atoms: C_3  and  C_13
    3  A    between atoms: C_12  and  N_23
    4  A    between atoms: C_12  and  S_27
    5  A    between atoms: C_12  and  C_28
                            x       y       z     vdW  Elec       q    Type
                         _______ _______ _______ _____ _____    ______ ____

>  <TORSDO>
F 5

$$$$
=
 OpenBabel10252414573D

 34 39  0  0  1  0  0  0  0  0999 V2000
  190.8570  177.4820  141.7710 C   0  0  0  0  0  0  0  0  0  0  0  0
  188.4010  177.4510  140.9670 C   0  0  0  0  0  0  0  0  0  0  0  0
  184.1410  178.6020  142.7320 C   0  0  1  0  0  3  0  0  0  0  0  0
  189.0310  177.4400  143.3710 C   0  0  0  0  0  0  0  0  0  0  0  0
  185.7140  178.0630  144.8210 C   0  0  0  0  0  2  0  0  0  0  0  0
  188.6480  177.1490  139.7700 O   0  0  0  0  0  0  0  0  0  0  0  0
  186.8920  178.3230  142.7110 C   0  0  2  0  0  3  0  0  0  0  0  0
  189.4700  177.4110  142.0280 C   0  0  0  0  0  0  0  0  0  0  0  0
  185.5300  178.3520  143.3350 C   0  0  1  0  0  0  0  0  0  0  0  0
  187.0660  177.5020  144.9840 N   0  0  2  0  0  0  0  0  0  0  0  0
  189.9120  177.6930  144.4240 C   0  0  0  0  0  0  0  0  0  0  0  0
  191.7480  177.6610  142.8410 C   0  0  0  0  0  3  0  0  0  0  0  0
  187.0580  177.8310  141.3460 N   0  0  0  0  0  2  0  0  0  0  0  0
  187.9050  178.4450  145.7330 C   0  0  0  0  0  2  0  0  0  0  0  0
  189.3600  177.9390  145.8090 C   0  0  1  0  0  3  0  0  0  0  0  0
  185.0050  179.7640  143.1780 C   0  0  0  0  0  2  0  0  0  0  0  0
  187.5610  177.3360  143.6100 C   0  0  2  0  0  3  0  0  0  0  0  0
  191.2800  177.7850  144.1560 C   0  0  0  0  0  3  0  0  0  0  0  0
  182.6750  177.3040  139.4780 C   0  0  0  0  0  2  0  0  0  0  0  0
  184.1260  178.3990  141.2410 C   0  0  0  0  0  0  0  0  0  0  0  0
  183.5110  177.1120  140.7350 C   0  0  0  0  0  2  0  0  0  0  0  0
  184.8560  177.9950  138.3270 C   0  0  0  0  0  2  0  0  0  0  0  0
  184.6230  179.3720  138.9280 C   0  0  0  0  0  2  0  0  0  0  0  0
  184.6400  179.3550  140.4360 C   0  0  0  0  0  3  0  0  0  0  0  0
  183.5450  177.2110  138.2230 C   0  0  0  0  0  2  0  0  0  0  0  0
  192.9300  177.4230  140.4290 C   0  0  0  0  0  1  0  0  0  0  0  0
  191.4130  177.4550  140.3850 C   0  0  0  0  0  2  0  0  0  0  0  0
  189.4820  176.7290  146.7470 C   0  0  1  0  0  3  0  0  0  0  0  0
  191.8130  175.8990  147.2860 C   0  0  0  0  0  0  0  0  0  0  0  0
  191.7630  175.0460  146.3610 O   0  0  0  0  0  0  0  0  0  0  0  0
  190.7150  176.7800  147.5260 N   0  0  0  0  0  2  0  0  0  0  0  0
  193.0280  175.9960  148.1340 C   0  0  0  0  0  1  0  0  0  0  0  0
  188.5820  178.0380  148.8440 C   0  0  0  0  0  1  0  0  0  0  0  0
  188.0410  176.6160  147.8560 S   0  0  0  0  0  0  0  0  0  0  0  0
  1  8  2  0  0  0  0
  1 12  1  0  0  0  0
  2 13  1  0  0  0  0
  2  8  1  0  0  0  0
  3 20  1  6  0  0  0
  3 16  1  0  0  0  0
  3  9  1  0  0  0  0
  4 11  2  0  0  0  0
  6  2  2  0  0  0  0
  7 13  1  6  0  0  0
  7  9  1  0  0  0  0
  7 17  1  0  0  0  0
  8  4  1  0  0  0  0
  9 16  1  1  0  0  0
  9  5  1  0  0  0  0
 10  5  1  6  0  0  0
 10 14  1  0  0  0  0
 11 15  1  0  0  0  0
 12 18  2  0  0  0  0
 14 15  1  0  0  0  0
 15 28  1  1  0  0  0
 17  4  1  1  0  0  0
 17 10  1  0  0  0  0
 18 11  1  0  0  0  0
 19 21  1  0  0  0  0
 21 20  1  0  0  0  0
 22 23  1  0  0  0  0
 23 24  1  0  0  0  0
 24 20  2  0  0  0  0
 25 22  1  0  0  0  0
 25 19  1  0  0  0  0
 27 26  1  0  0  0  0
 27  1  1  0  0  0  0
 28 31  1  1  0  0  0
 28 34  1  0  0  0  0
 29 31  1  0  0  0  0
 29 32  1  0  0  0  0
 30 29  2  0  0  0  0
 34 33  1  0  0  0  0
M  END
>  <MODEL>
2

>  <REMARK>
 VINA RESULT:      -8.4      2.473      4.825
  Name = 
  5 active torsions:
  status: ('A' for Active; 'I' for Inactive)
    1  A    between atoms: C_1  and  C_19
    2  A    between atoms: C_3  and  C_13
    3  A    between atoms: C_12  and  N_23
    4  A    between atoms: C_12  and  S_27
    5  A    between atoms: C_12  and  C_28
                            x       y       z     vdW  Elec       q    Type
                         _______ _______ _______ _____ _____    ______ ____

>  <TORSDO>
F 5

$$$$
=
 OpenBabel10252414573D

 34 39  0  0  1  0  0  0  0  0999 V2000
  185.1380  178.4700  143.0030 C   0  0  0  0  0  0  0  0  0  0  0  0
  187.2330  177.5120  144.1750 C   0  0  0  0  0  0  0  0  0  0  0  0
  191.8750  177.1100  143.2350 C   0  0  1  0  0  3  0  0  0  0  0  0
  187.0960  177.8370  141.7140 C   0  0  0  0  0  0  0  0  0  0  0  0
  190.6280  177.2720  140.8790 C   0  0  0  0  0  2  0  0  0  0  0  0
  186.6770  177.2680  145.2790 O   0  0  0  0  0  0  0  0  0  0  0  0
  189.2470  177.8500  142.7930 C   0  0  2  0  0  3  0  0  0  0  0  0
  186.4340  177.9100  142.9610 C   0  0  0  0  0  0  0  0  0  0  0  0
  190.6230  177.4090  142.3980 C   0  0  1  0  0  0  0  0  0  0  0  0
  189.2200  177.2500  140.4470 N   0  0  2  0  0  0  0  0  0  0  0  0
  186.5710  178.4390  140.5700 C   0  0  0  0  0  0  0  0  0  0  0  0
  184.5810  179.0090  141.8320 C   0  0  0  0  0  3  0  0  0  0  0  0
  188.6690  177.3940  144.0540 N   0  0  0  0  0  2  0  0  0  0  0  0
  188.9210  178.4660  139.6810 C   0  0  0  0  0  2  0  0  0  0  0  0
  187.4200  178.5280  139.3230 C   0  0  1  0  0  3  0  0  0  0  0  0
  191.5710  178.5250  142.7870 C   0  0  0  0  0  2  0  0  0  0  0  0
  188.4530  177.2160  141.7000 C   0  0  2  0  0  3  0  0  0  0  0  0
  185.2970  179.0110  140.6280 C   0  0  0  0  0  3  0  0  0  0  0  0
  192.3270  175.3810  146.5860 C   0  0  0  0  0  2  0  0  0  0  0  0
  191.5400  176.8490  144.6790 C   0  0  0  0  0  0  0  0  0  0  0  0
  191.7430  175.4360  145.1820 C   0  0  0  0  0  2  0  0  0  0  0  0
  190.1610  176.5090  147.3570 C   0  0  0  0  0  2  0  0  0  0  0  0
  190.8060  177.8180  146.9300 C   0  0  0  0  0  2  0  0  0  0  0  0
  191.0940  177.8660  145.4510 C   0  0  0  0  0  3  0  0  0  0  0  0
  191.2200  175.4410  147.6410 C   0  0  0  0  0  2  0  0  0  0  0  0
  182.9290  178.9910  143.9770 C   0  0  0  0  0  1  0  0  0  0  0  0
  184.3610  178.5860  144.2730 C   0  0  0  0  0  2  0  0  0  0  0  0
  187.0590  177.4880  138.2530 C   0  0  1  0  0  3  0  0  0  0  0  0
  184.8930  176.7440  137.1720 C   0  0  0  0  0  0  0  0  0  0  0  0
  185.2150  175.5310  137.2760 O   0  0  0  0  0  0  0  0  0  0  0  0
  185.7610  177.7720  137.6510 N   0  0  0  0  0  2  0  0  0  0  0  0
  183.5950  177.1100  136.5510 C   0  0  0  0  0  1  0  0  0  0  0  0
  188.6500  175.6390  137.2670 C   0  0  0  0  0  1  0  0  0  0  0  0
  188.3450  177.4020  136.9650 S   0  0  0  0  0  0  0  0  0  0  0  0
  1 27  1  0  0  0  0
  2  6  2  0  0  0  0
  3 20  1  1  0  0  0
  4  8  2  0  0  0  0
  7 13  1  1  0  0  0
  8  1  1  0  0  0  0
  8  2  1  0  0  0  0
  9  5  1  6  0  0  0
  9 16  1  0  0  0  0
  9  7  1  0  0  0  0
  9  3  1  0  0  0  0
 10 14  1  1  0  0  0
 10  5  1  0  0  0  0
 10 17  1  0  0  0  0
 11 18  2  0  0  0  0
 11  4  1  0  0  0  0
 12  1  2  0  0  0  0
 13  2  1  0  0  0  0
 15 28  1  6  0  0  0
 15 14  1  0  0  0  0
 15 11  1  0  0  0  0
 16  3  1  0  0  0  0
 17  4  1  6  0  0  0
 17  7  1  0  0  0  0
 18 12  1  0  0  0  0
 19 25  1  0  0  0  0
 20 21  1  0  0  0  0
 20 24  2  0  0  0  0
 21 19  1  0  0  0  0
 22 25  1  0  0  0  0
 23 22  1  0  0  0  0
 24 23  1  0  0  0  0
 26 27  1  0  0  0  0
 28 34  1  6  0  0  0
 29 30  2  0  0  0  0
 29 31  1  0  0  0  0
 31 28  1  0  0  0  0
 32 29  1  0  0  0  0
 34 33  1  0  0  0  0
M  END
>  <MODEL>
3

>  <REMARK>
 VINA RESULT:      -8.3      2.403      7.352
  Name = 
  5 active torsions:
  status: ('A' for Active; 'I' for Inactive)
    1  A    between atoms: C_1  and  C_19
    2  A    between atoms: C_3  and  C_13
    3  A    between atoms: C_12  and  N_23
    4  A    between atoms: C_12  and  S_27
    5  A    between atoms: C_12  and  C_28
                            x       y       z     vdW  Elec       q    Type
                         _______ _______ _______ _____ _____    ______ ____

>  <TORSDO>
F 5

$$$$
=
 OpenBabel10252414573D

 34 39  0  0  1  0  0  0  0  0999 V2000
  184.9370  178.5680  142.8890 C   0  0  0  0  0  0  0  0  0  0  0  0
  185.9370  178.7250  140.5110 C   0  0  0  0  0  0  0  0  0  0  0  0
  189.8150  177.1630  138.2500 C   0  0  1  0  0  3  0  0  0  0  0  0
  187.3160  178.2470  142.5230 C   0  0  0  0  0  0  0  0  0  0  0  0
  190.4380  177.2830  140.8440 C   0  0  0  0  0  2  0  0  0  0  0  0
  184.9380  179.2730  139.9750 O   0  0  0  0  0  0  0  0  0  0  0  0
  188.0640  177.4860  140.3660 C   0  0  2  0  0  3  0  0  0  0  0  0
  186.0390  178.5610  142.0050 C   0  0  0  0  0  0  0  0  0  0  0  0
  189.4050  177.3060  139.7220 C   0  0  1  0  0  0  0  0  0  0  0  0
  189.7770  177.8200  142.0450 N   0  0  2  0  0  0  0  0  0  0  0  0
  187.4850  177.7960  143.8330 C   0  0  0  0  0  0  0  0  0  0  0  0
  185.1250  178.1850  144.2270 C   0  0  0  0  0  3  0  0  0  0  0  0
  187.0240  178.2530  139.6840 N   0  0  0  0  0  2  0  0  0  0  0  0
  189.6320  176.7550  143.0450 C   0  0  0  0  0  2  0  0  0  0  0  0
  188.8300  177.2580  144.2640 C   0  0  1  0  0  3  0  0  0  0  0  0
  189.3900  175.9480  139.0500 C   0  0  0  0  0  2  0  0  0  0  0  0
  188.4630  178.2750  141.5680 C   0  0  2  0  0  3  0  0  0  0  0  0
  186.3830  177.7840  144.6930 C   0  0  0  0  0  3  0  0  0  0  0  0
  186.4130  177.0510  136.5660 C   0  0  0  0  0  2  0  0  0  0  0  0
  188.7510  177.6720  137.3150 C   0  0  0  0  0  0  0  0  0  0  0  0
  187.8740  176.6320  136.6510 C   0  0  0  0  0  2  0  0  0  0  0  0
  187.2110  178.9410  135.0330 C   0  0  0  0  0  2  0  0  0  0  0  0
  187.5560  179.6960  136.3070 C   0  0  0  0  0  2  0  0  0  0  0  0
  188.6190  179.0030  137.1210 C   0  0  0  0  0  3  0  0  0  0  0  0
  186.1510  177.8690  135.2980 C   0  0  0  0  0  2  0  0  0  0  0  0
  182.6200  179.0020  143.6270 C   0  0  0  0  0  1  0  0  0  0  0  0
  183.5520  178.8910  142.4340 C   0  0  0  0  0  2  0  0  0  0  0  0
  189.6520  178.2490  145.1020 C   0  0  1  0  0  3  0  0  0  0  0  0
  188.9690  177.5140  147.4270 C   0  0  0  0  0  0  0  0  0  0  0  0
  189.4860  176.3780  147.2590 O   0  0  0  0  0  0  0  0  0  0  0  0
  189.0260  178.5000  146.3960 N   0  0  0  0  0  2  0  0  0  0  0  0
  188.2960  177.8350  148.7110 C   0  0  0  0  0  1  0  0  0  0  0  0
  192.0560  179.0020  144.3430 C   0  0  0  0  0  1  0  0  0  0  0  0
  191.3570  177.6510  145.3330 S   0  0  0  0  0  0  0  0  0  0  0  0
  1 12  1  0  0  0  0
  2  8  1  0  0  0  0
  3 20  1  6  0  0  0
  3 16  1  0  0  0  0
  3  9  1  0  0  0  0
  4 11  2  0  0  0  0
  6  2  2  0  0  0  0
  7 13  1  6  0  0  0
  7 17  1  0  0  0  0
  8  4  1  0  0  0  0
  8  1  2  0  0  0  0
  9 16  1  1  0  0  0
  9  7  1  0  0  0  0
  9  5  1  0  0  0  0
 10  5  1  6  0  0  0
 10 14  1  0  0  0  0
 11 15  1  0  0  0  0
 11 18  1  0  0  0  0
 12 18  2  0  0  0  0
 13  2  1  0  0  0  0
 14 15  1  0  0  0  0
 15 28  1  6  0  0  0
 17 10  1  0  0  0  0
 17  4  1  1  0  0  0
 19 21  1  0  0  0  0
 21 20  1  0  0  0  0
 22 25  1  0  0  0  0
 22 23  1  0  0  0  0
 23 24  1  0  0  0  0
 24 20  2  0  0  0  0
 25 19  1  0  0  0  0
 27  1  1  0  0  0  0
 27 26  1  0  0  0  0
 28 34  1  1  0  0  0
 28 31  1  0  0  0  0
 29 32  1  0  0  0  0
 30 29  2  0  0  0  0
 31 29  1  0  0  0  0
 33 34  1  0  0  0  0
M  END
>  <MODEL>
4

>  <REMARK>
 VINA RESULT:      -8.2      1.357      1.515
  Name = 
  5 active torsions:
  status: ('A' for Active; 'I' for Inactive)
    1  A    between atoms: C_1  and  C_19
    2  A    between atoms: C_3  and  C_13
    3  A    between atoms: C_12  and  N_23
    4  A    between atoms: C_12  and  S_27
    5  A    between atoms: C_12  and  C_28
                            x       y       z     vdW  Elec       q    Type
                         _______ _______ _______ _____ _____    ______ ____

>  <TORSDO>
F 5

$$$$
=
 OpenBabel10252414573D

 34 39  0  0  1  0  0  0  0  0999 V2000
  185.2020  178.4190  145.1150 C   0  0  0  0  0  0  0  0  0  0  0  0
  187.5010  177.2600  145.3430 C   0  0  0  0  0  0  0  0  0  0  0  0
  191.5340  176.9950  142.8410 C   0  0  1  0  0  3  0  0  0  0  0  0
  186.5780  178.0030  143.1580 C   0  0  0  0  0  0  0  0  0  0  0  0
  189.5900  177.5660  141.1010 C   0  0  0  0  0  2  0  0  0  0  0  0
  187.3290  176.8350  146.5160 O   0  0  0  0  0  0  0  0  0  0  0  0
  188.9620  177.8170  143.4350 C   0  0  2  0  0  3  0  0  0  0  0  0
  186.3730  177.8660  144.5500 C   0  0  0  0  0  0  0  0  0  0  0  0
  190.0980  177.4410  142.5340 C   0  0  1  0  0  0  0  0  0  0  0  0
  188.1200  177.6280  141.1720 N   0  0  2  0  0  0  0  0  0  0  0  0
  185.7430  178.7950  142.3690 C   0  0  0  0  0  0  0  0  0  0  0  0
  184.3240  179.1530  144.3020 C   0  0  0  0  0  3  0  0  0  0  0  0
  188.8060  177.1550  144.7280 N   0  0  0  0  0  2  0  0  0  0  0  0
  187.6620  178.9590  140.7560 C   0  0  0  0  0  2  0  0  0  0  0  0
  186.1350  179.0910  140.9400 C   0  0  1  0  0  3  0  0  0  0  0  0
  191.1900  178.4680  142.7530 C   0  0  0  0  0  2  0  0  0  0  0  0
  187.8110  177.3840  142.5880 C   0  0  2  0  0  3  0  0  0  0  0  0
  184.6000  179.3570  142.9440 C   0  0  0  0  0  3  0  0  0  0  0  0
  190.9050  177.1020  146.5840 C   0  0  0  0  0  2  0  0  0  0  0  0
  191.6810  176.4930  144.2520 C   0  0  0  0  0  0  0  0  0  0  0  0
  191.6810  177.5360  145.3490 C   0  0  0  0  0  2  0  0  0  0  0  0
  192.6580  175.2530  146.8400 C   0  0  0  0  0  2  0  0  0  0  0  0
  191.8450  174.4760  145.8160 C   0  0  0  0  0  2  0  0  0  0  0  0
  191.7910  175.1640  144.4760 C   0  0  0  0  0  3  0  0  0  0  0  0
  191.7980  176.3070  147.5410 C   0  0  0  0  0  2  0  0  0  0  0  0
  185.6800  179.3690  147.3440 C   0  0  0  0  0  1  0  0  0  0  0  0
  184.8990  178.3210  146.5740 C   0  0  0  0  0  2  0  0  0  0  0  0
  185.3740  178.2520  139.9030 C   0  0  1  0  0  3  0  0  0  0  0  0
  182.8660  177.9410  140.0610 C   0  0  0  0  0  0  0  0  0  0  0  0
  183.0030  176.7860  140.5450 O   0  0  0  0  0  0  0  0  0  0  0  0
  184.0070  178.7320  139.7290 N   0  0  0  0  0  2  0  0  0  0  0  0
  181.5040  178.4880  139.8360 C   0  0  0  0  0  1  0  0  0  0  0  0
  185.0280  177.1280  137.5500 C   0  0  0  0  0  1  0  0  0  0  0  0
  186.2460  178.2420  138.3030 S   0  0  0  0  0  0  0  0  0  0  0  0
  1 27  1  0  0  0  0
  2  6  2  0  0  0  0
  3 20  1  1  0  0  0
  4  8  2  0  0  0  0
  5 10  1  0  0  0  0
  7 13  1  1  0  0  0
  8  1  1  0  0  0  0
  8  2  1  0  0  0  0
  9  5  1  6  0  0  0
  9 16  1  0  0  0  0
  9  3  1  0  0  0  0
  9  7  1  0  0  0  0
 10 14  1  1  0  0  0
 10 17  1  0  0  0  0
 11 18  2  0  0  0  0
 11  4  1  0  0  0  0
 12  1  2  0  0  0  0
 13  2  1  0  0  0  0
 14 15  1  0  0  0  0
 15 28  1  6  0  0  0
 15 11  1  0  0  0  0
 16  3  1  0  0  0  0
 17  4  1  1  0  0  0
 17  7  1  0  0  0  0
 18 12  1  0  0  0  0
 19 25  1  0  0  0  0
 20 24  2  0  0  0  0
 20 21  1  0  0  0  0
 21 19  1  0  0  0  0
 22 25  1  0  0  0  0
 23 22  1  0  0  0  0
 24 23  1  0  0  0  0
 27 26  1  0  0  0  0
 28 34  1  6  0  0  0
 29 30  2  0  0  0  0
 31 28  1  0  0  0  0
 31 29  1  0  0  0  0
 32 29  1  0  0  0  0
 33 34  1  0  0  0  0
M  END
>  <MODEL>
5

>  <REMARK>
 VINA RESULT:      -8.0      2.572      7.358
  Name = 
  5 active torsions:
  status: ('A' for Active; 'I' for Inactive)
    1  A    between atoms: C_1  and  C_19
    2  A    between atoms: C_3  and  C_13
    3  A    between atoms: C_12  and  N_23
    4  A    between atoms: C_12  and  S_27
    5  A    between atoms: C_12  and  C_28
                            x       y       z     vdW  Elec       q    Type
                         _______ _______ _______ _____ _____    ______ ____

>  <TORSDO>
F 5

$$$$
=
 OpenBabel10252414573D

 34 39  0  0  1  0  0  0  0  0999 V2000
  185.6730  178.1690  144.6710 C   0  0  0  0  0  0  0  0  0  0  0  0
  184.0880  179.0610  142.8350 C   0  0  0  0  0  0  0  0  0  0  0  0
  183.6890  178.7280  138.1100 C   0  0  1  0  0  3  0  0  0  0  0  0
  186.4140  178.3220  142.3630 C   0  0  0  0  0  0  0  0  0  0  0  0
  186.2590  178.3000  138.6940 C   0  0  0  0  0  2  0  0  0  0  0  0
  183.2360  179.5630  143.6160 O   0  0  0  0  0  0  0  0  0  0  0  0
  184.7670  178.2420  140.6100 C   0  0  2  0  0  3  0  0  0  0  0  0
  185.4140  178.5520  143.3360 C   0  0  0  0  0  0  0  0  0  0  0  0
  184.8030  178.4370  139.1250 C   0  0  1  0  0  0  0  0  0  0  0  0
  187.0790  178.4140  139.9110 N   0  0  2  0  0  0  0  0  0  0  0  0
  187.5670  177.5930  142.6570 C   0  0  0  0  0  0  0  0  0  0  0  0
  186.8700  177.5010  144.9770 C   0  0  0  0  0  3  0  0  0  0  0  0
  183.8020  178.9820  141.4200 N   0  0  0  0  0  2  0  0  0  0  0  0
  187.7250  177.1260  140.1930 C   0  0  0  0  0  2  0  0  0  0  0  0
  188.4900  177.1820  141.5330 C   0  0  1  0  0  3  0  0  0  0  0  0
  184.0070  177.3020  138.5140 C   0  0  0  0  0  2  0  0  0  0  0  0
  186.1190  178.7630  140.9680 C   0  0  2  0  0  3  0  0  0  0  0  0
  187.8020  177.1990  143.9760 C   0  0  0  0  0  3  0  0  0  0  0  0
  180.8950  181.2630  138.5470 C   0  0  0  0  0  2  0  0  0  0  0  0
  182.4530  179.2800  138.7700 C   0  0  0  0  0  0  0  0  0  0  0  0
  182.3160  180.7860  138.8070 C   0  0  0  0  0  2  0  0  0  0  0  0
  180.2640  180.0580  140.7170 C   0  0  0  0  0  2  0  0  0  0  0  0
  180.2010  178.7900  139.8790 C   0  0  0  0  0  2  0  0  0  0  0  0
  181.5350  178.4270  139.2780 C   0  0  0  0  0  3  0  0  0  0  0  0
  180.0840  181.3030  139.8450 C   0  0  0  0  0  2  0  0  0  0  0  0
  185.3920  178.6280  147.0810 C   0  0  0  0  0  1  0  0  0  0  0  0
  184.6790  178.3750  145.7660 C   0  0  0  0  0  2  0  0  0  0  0  0
  189.7510  178.0510  141.4190 C   0  0  1  0  0  3  0  0  0  0  0  0
  191.0450  178.6300  143.5170 C   0  0  0  0  0  0  0  0  0  0  0  0
  190.4820  179.7530  143.5980 O   0  0  0  0  0  0  0  0  0  0  0  0
  190.7180  177.7250  142.4620 N   0  0  0  0  0  2  0  0  0  0  0  0
  192.0560  178.2380  144.5320 C   0  0  0  0  0  1  0  0  0  0  0  0
  192.1470  177.5030  140.4790 C   0  0  0  0  0  1  0  0  0  0  0  0
  190.5170  177.8780  139.7750 S   0  0  0  0  0  0  0  0  0  0  0  0
  1 12  1  0  0  0  0
  1 27  1  0  0  0  0
  2  8  1  0  0  0  0
  2  6  2  0  0  0  0
  3 16  1  0  0  0  0
  3 20  1  1  0  0  0
  3  9  1  0  0  0  0
  4 11  2  0  0  0  0
  4  8  1  0  0  0  0
  5  9  1  0  0  0  0
  7 17  1  0  0  0  0
  7 13  1  1  0  0  0
  8  1  2  0  0  0  0
  9 16  1  6  0  0  0
  9  7  1  0  0  0  0
 10  5  1  6  0  0  0
 10 14  1  0  0  0  0
 10 17  1  0  0  0  0
 11 18  1  0  0  0  0
 13  2  1  0  0  0  0
 14 15  1  0  0  0  0
 15 28  1  6  0  0  0
 15 11  1  0  0  0  0
 17  4  1  1  0  0  0
 18 12  2  0  0  0  0
 19 21  1  0  0  0  0
 19 25  1  0  0  0  0
 20 21  1  0  0  0  0
 20 24  2  0  0  0  0
 23 22  1  0  0  0  0
 24 23  1  0  0  0  0
 25 22  1  0  0  0  0
 27 26  1  0  0  0  0
 28 34  1  6  0  0  0
 28 31  1  0  0  0  0
 29 30  2  0  0  0  0
 29 32  1  0  0  0  0
 31 29  1  0  0  0  0
 34 33  1  0  0  0  0
M  END
>  <MODEL>
6

>  <REMARK>
 VINA RESULT:      -7.8      3.275      5.052
  Name = 
  5 active torsions:
  status: ('A' for Active; 'I' for Inactive)
    1  A    between atoms: C_1  and  C_19
    2  A    between atoms: C_3  and  C_13
    3  A    between atoms: C_12  and  N_23
    4  A    between atoms: C_12  and  S_27
    5  A    between atoms: C_12  and  C_28
                            x       y       z     vdW  Elec       q    Type
                         _______ _______ _______ _____ _____    ______ ____

>  <TORSDO>
F 5

$$$$
=
 OpenBabel10252414573D

 34 39  0  0  1  0  0  0  0  0999 V2000
  186.6030  178.0440  137.9680 C   0  0  0  0  0  0  0  0  0  0  0  0
  188.0950  178.2500  140.0690 C   0  0  0  0  0  0  0  0  0  0  0  0
  187.5770  177.7870  144.7710 C   0  0  1  0  0  3  0  0  0  0  0  0
  185.6200  178.4720  140.1470 C   0  0  0  0  0  0  0  0  0  0  0  0
  185.1670  178.3900  143.7910 C   0  0  0  0  0  2  0  0  0  0  0  0
  189.1860  178.3820  139.4540 O   0  0  0  0  0  0  0  0  0  0  0  0
  186.8090  177.7580  142.1140 C   0  0  2  0  0  3  0  0  0  0  0  0
  186.7730  178.2960  139.3480 C   0  0  0  0  0  0  0  0  0  0  0  0
  186.6140  177.9520  143.5880 C   0  0  1  0  0  0  0  0  0  0  0  0
  184.6590  178.8140  142.4760 N   0  0  2  0  0  0  0  0  0  0  0  0
  184.3380  178.2480  139.6430 C   0  0  0  0  0  0  0  0  0  0  0  0
  185.3070  177.8940  137.4490 C   0  0  0  0  0  3  0  0  0  0  0  0
  188.0990  178.0660  141.5030 N   0  0  0  0  0  2  0  0  0  0  0  0
  183.6230  177.8780  142.0230 C   0  0  0  0  0  2  0  0  0  0  0  0
  183.1620  178.2270  140.5920 C   0  0  1  0  0  3  0  0  0  0  0  0
  186.8050  176.5970  144.2370 C   0  0  0  0  0  2  0  0  0  0  0  0
  185.8340  178.7630  141.5950 C   0  0  2  0  0  3  0  0  0  0  0  0
  184.1830  177.9760  138.2810 C   0  0  0  0  0  3  0  0  0  0  0  0
  190.5730  176.5370  142.8010 C   0  0  0  0  0  2  0  0  0  0  0  0
  189.0180  177.8160  144.3350 C   0  0  0  0  0  0  0  0  0  0  0  0
  189.6600  176.4830  144.0160 C   0  0  0  0  0  2  0  0  0  0  0  0
  192.0260  178.1470  144.1640 C   0  0  0  0  0  2  0  0  0  0  0  0
  191.0570  179.2350  143.7280 C   0  0  0  0  0  2  0  0  0  0  0  0
  189.6570  179.0030  144.2390 C   0  0  0  0  0  3  0  0  0  0  0  0
  191.9900  176.9590  143.1990 C   0  0  0  0  0  2  0  0  0  0  0  0
  187.9220  176.3780  136.7100 C   0  0  0  0  0  1  0  0  0  0  0  0
  187.7610  177.8490  137.0460 C   0  0  0  0  0  2  0  0  0  0  0  0
  182.3290  179.5170  140.5730 C   0  0  1  0  0  3  0  0  0  0  0  0
  181.8500  180.7820  138.4320 C   0  0  0  0  0  0  0  0  0  0  0  0
  182.7040  181.6620  138.7190 O   0  0  0  0  0  0  0  0  0  0  0  0
  181.6220  179.6770  139.3070 N   0  0  0  0  0  2  0  0  0  0  0  0
  181.0770  180.8890  137.1690 C   0  0  0  0  0  1  0  0  0  0  0  0
  179.9650  178.4860  141.0940 C   0  0  0  0  0  1  0  0  0  0  0  0
  181.1500  179.5530  141.9610 S   0  0  0  0  0  0  0  0  0  0  0  0
  1  8  1  0  0  0  0
  2 13  1  0  0  0  0
  3 20  1  6  0  0  0
  6  2  2  0  0  0  0
  7 13  1  1  0  0  0
  7  9  1  0  0  0  0
  8  2  1  0  0  0  0
  8  4  2  0  0  0  0
  9  5  1  1  0  0  0
  9 16  1  0  0  0  0
  9  3  1  0  0  0  0
 10 14  1  6  0  0  0
 10  5  1  0  0  0  0
 11  4  1  0  0  0  0
 11 15  1  0  0  0  0
 12  1  2  0  0  0  0
 12 18  1  0  0  0  0
 15 28  1  1  0  0  0
 15 14  1  0  0  0  0
 16  3  1  0  0  0  0
 17  4  1  6  0  0  0
 17  7  1  0  0  0  0
 17 10  1  0  0  0  0
 18 11  2  0  0  0  0
 19 25  1  0  0  0  0
 19 21  1  0  0  0  0
 21 20  1  0  0  0  0
 23 22  1  0  0  0  0
 23 24  1  0  0  0  0
 24 20  2  0  0  0  0
 25 22  1  0  0  0  0
 26 27  1  0  0  0  0
 27  1  1  0  0  0  0
 28 31  1  6  0  0  0
 28 34  1  0  0  0  0
 29 30  2  0  0  0  0
 29 31  1  0  0  0  0
 32 29  1  0  0  0  0
 33 34  1  0  0  0  0
M  END
>  <MODEL>
7

>  <REMARK>
 VINA RESULT:      -7.7      3.364      8.206
  Name = 
  5 active torsions:
  status: ('A' for Active; 'I' for Inactive)
    1  A    between atoms: C_1  and  C_19
    2  A    between atoms: C_3  and  C_13
    3  A    between atoms: C_12  and  N_23
    4  A    between atoms: C_12  and  S_27
    5  A    between atoms: C_12  and  C_28
                            x       y       z     vdW  Elec       q    Type
                         _______ _______ _______ _____ _____    ______ ____

>  <TORSDO>
F 5

$$$$
=
 OpenBabel10252414573D

 34 39  0  0  1  0  0  0  0  0999 V2000
  187.6890  178.2240  138.9310 C   0  0  0  0  0  0  0  0  0  0  0  0
  185.3460  177.8610  137.9030 C   0  0  0  0  0  0  0  0  0  0  0  0
  180.8420  178.8460  139.0590 C   0  0  1  0  0  3  0  0  0  0  0  0
  185.7070  178.2320  140.3340 C   0  0  0  0  0  0  0  0  0  0  0  0
  182.2140  178.7380  141.3470 C   0  0  0  0  0  2  0  0  0  0  0  0
  185.7460  177.4240  136.7910 O   0  0  0  0  0  0  0  0  0  0  0  0
  183.5920  178.8190  139.3480 C   0  0  2  0  0  3  0  0  0  0  0  0
  186.2920  178.0620  139.0580 C   0  0  0  0  0  0  0  0  0  0  0  0
  182.1710  178.8070  139.8240 C   0  0  1  0  0  0  0  0  0  0  0  0
  183.5790  178.3310  141.7200 N   0  0  2  0  0  0  0  0  0  0  0  0
  186.4460  178.7030  141.4210 C   0  0  0  0  0  0  0  0  0  0  0  0
  188.4410  178.6270  140.0460 C   0  0  0  0  0  3  0  0  0  0  0  0
  183.9450  178.1650  138.0900 N   0  0  0  0  0  2  0  0  0  0  0  0
  184.2550  179.4390  142.4050 C   0  0  0  0  0  2  0  0  0  0  0  0
  185.7280  179.0830  142.6950 C   0  0  1  0  0  3  0  0  0  0  0  0
  181.5610  180.1310  139.4160 C   0  0  0  0  0  2  0  0  0  0  0  0
  184.2330  178.0270  140.4400 C   0  0  2  0  0  3  0  0  0  0  0  0
  187.8240  178.8830  141.2770 C   0  0  0  0  0  3  0  0  0  0  0  0
  180.2690  176.5900  136.0590 C   0  0  0  0  0  2  0  0  0  0  0  0
  181.0070  178.4430  137.6180 C   0  0  0  0  0  0  0  0  0  0  0  0
  181.0290  176.9580  137.3240 C   0  0  0  0  0  2  0  0  0  0  0  0
  182.0170  177.9740  134.7990 C   0  0  0  0  0  2  0  0  0  0  0  0
  181.1850  179.1890  135.1780 C   0  0  0  0  0  2  0  0  0  0  0  0
  181.1150  179.4000  136.6690 C   0  0  0  0  0  3  0  0  0  0  0  0
  181.1720  176.6980  134.8270 C   0  0  0  0  0  2  0  0  0  0  0  0
  189.0550  179.3660  137.2180 C   0  0  0  0  0  1  0  0  0  0  0  0
  188.3950  178.0620  137.6240 C   0  0  0  0  0  2  0  0  0  0  0  0
  185.8380  178.0260  143.8050 C   0  0  1  0  0  3  0  0  0  0  0  0
  188.1380  177.0470  144.2100 C   0  0  0  0  0  0  0  0  0  0  0  0
  187.9110  176.0930  143.4200 O   0  0  0  0  0  0  0  0  0  0  0  0
  187.1520  178.0540  144.4380 N   0  0  0  0  0  2  0  0  0  0  0  0
  189.4470  177.1300  144.9070 C   0  0  0  0  0  1  0  0  0  0  0  0
  185.6810  179.0020  146.2430 C   0  0  0  0  0  1  0  0  0  0  0  0
  184.5320  178.2530  145.0540 S   0  0  0  0  0  0  0  0  0  0  0  0
  1  8  2  0  0  0  0
  1 12  1  0  0  0  0
  2 13  1  0  0  0  0
  2  8  1  0  0  0  0
  3 20  1  6  0  0  0
  3 16  1  0  0  0  0
  3  9  1  0  0  0  0
  4 11  2  0  0  0  0
  6  2  2  0  0  0  0
  7 13  1  6  0  0  0
  7  9  1  0  0  0  0
  7 17  1  0  0  0  0
  8  4  1  0  0  0  0
  9 16  1  1  0  0  0
  9  5  1  0  0  0  0
 10  5  1  6  0  0  0
 10 14  1  0  0  0  0
 11 15  1  0  0  0  0
 12 18  2  0  0  0  0
 14 15  1  0  0  0  0
 15 28  1  1  0  0  0
 17  4  1  1  0  0  0
 17 10  1  0  0  0  0
 18 11  1  0  0  0  0
 19 21  1  0  0  0  0
 21 20  1  0  0  0  0
 22 25  1  0  0  0  0
 22 23  1  0  0  0  0
 23 24  1  0  0  0  0
 24 20  2  0  0  0  0
 25 19  1  0  0  0  0
 26 27  1  0  0  0  0
 27  1  1  0  0  0  0
 28 31  1  1  0  0  0
 28 34  1  0  0  0  0
 29 31  1  0  0  0  0
 29 32  1  0  0  0  0
 30 29  2  0  0  0  0
 34 33  1  0  0  0  0
M  END
>  <MODEL>
8

>  <REMARK>
 VINA RESULT:      -6.9      3.812      6.274
  Name = 
  5 active torsions:
  status: ('A' for Active; 'I' for Inactive)
    1  A    between atoms: C_1  and  C_19
    2  A    between atoms: C_3  and  C_13
    3  A    between atoms: C_12  and  N_23
    4  A    between atoms: C_12  and  S_27
    5  A    between atoms: C_12  and  C_28
                            x       y       z     vdW  Elec       q    Type
                         _______ _______ _______ _____ _____    ______ ____

>  <TORSDO>
F 5

$$$$
=
 OpenBabel10252414573D

 34 39  0  0  1  0  0  0  0  0999 V2000
  186.7810  177.8970  143.7670 C   0  0  0  0  0  0  0  0  0  0  0  0
  184.6110  178.6940  142.6110 C   0  0  0  0  0  0  0  0  0  0  0  0
  182.6860  178.4630  138.2710 C   0  0  1  0  0  3  0  0  0  0  0  0
  186.6960  178.1850  141.3570 C   0  0  0  0  0  0  0  0  0  0  0  0
  185.3290  178.2550  137.9490 C   0  0  0  0  0  2  0  0  0  0  0  0
  184.0330  179.0920  143.6570 O   0  0  0  0  0  0  0  0  0  0  0  0
  184.5700  178.0050  140.2440 C   0  0  2  0  0  3  0  0  0  0  0  0
  186.0630  178.2940  142.6170 C   0  0  0  0  0  0  0  0  0  0  0  0
  184.0940  178.2460  138.8440 C   0  0  1  0  0  0  0  0  0  0  0  0
  186.4970  178.4080  138.8330 N   0  0  2  0  0  0  0  0  0  0  0  0
  187.9330  177.5560  141.2110 C   0  0  0  0  0  0  0  0  0  0  0  0
  188.0590  177.3330  143.6220 C   0  0  0  0  0  3  0  0  0  0  0  0
  183.8770  178.6300  141.3670 N   0  0  0  0  0  2  0  0  0  0  0  0
  187.2960  177.1770  138.8110 C   0  0  0  0  0  2  0  0  0  0  0  0
  188.4570  177.2640  139.8240 C   0  0  1  0  0  3  0  0  0  0  0  0
  183.2290  177.0620  138.4640 C   0  0  0  0  0  2  0  0  0  0  0  0
  185.9200  178.6370  140.1650 C   0  0  2  0  0  3  0  0  0  0  0  0
  188.6240  177.1460  142.3550 C   0  0  0  0  0  3  0  0  0  0  0  0
  180.0170  180.7220  139.7530 C   0  0  0  0  0  2  0  0  0  0  0  0
  181.7030  178.8800  139.3320 C   0  0  0  0  0  0  0  0  0  0  0  0
  181.4750  180.3660  139.5030 C   0  0  0  0  0  2  0  0  0  0  0  0
  180.2340  179.3950  141.9330 C   0  0  0  0  0  2  0  0  0  0  0  0
  179.9900  178.1550  141.0880 C   0  0  0  0  0  2  0  0  0  0  0  0
  181.0710  177.9330  140.0600 C   0  0  0  0  0  3  0  0  0  0  0  0
  179.6830  180.6470  141.2450 C   0  0  0  0  0  2  0  0  0  0  0  0
  187.2580  177.6820  146.1810 C   0  0  0  0  0  1  0  0  0  0  0  0
  186.1960  177.9800  145.1390 C   0  0  0  0  0  2  0  0  0  0  0  0
  189.5380  178.2470  139.3520 C   0  0  1  0  0  3  0  0  0  0  0  0
  191.7820  177.5030  140.2580 C   0  0  0  0  0  0  0  0  0  0  0  0
  191.5260  177.9880  141.3920 O   0  0  0  0  0  0  0  0  0  0  0  0
  190.8290  177.5860  139.1980 N   0  0  0  0  0  2  0  0  0  0  0  0
  193.0860  176.8330  140.0210 C   0  0  0  0  0  1  0  0  0  0  0  0
  189.8050  177.7410  136.7840 C   0  0  0  0  0  1  0  0  0  0  0  0
  189.0520  179.0500  137.7900 S   0  0  0  0  0  0  0  0  0  0  0  0
  1 27  1  0  0  0  0
  2  8  1  0  0  0  0
  2  6  2  0  0  0  0
  3 16  1  0  0  0  0
  3  9  1  0  0  0  0
  3 20  1  1  0  0  0
  4  8  1  0  0  0  0
  7 13  1  1  0  0  0
  8  1  2  0  0  0  0
  9  5  1  6  0  0  0
  9  7  1  0  0  0  0
 10  5  1  6  0  0  0
 10 17  1  0  0  0  0
 11  4  2  0  0  0  0
 11 18  1  0  0  0  0
 12  1  1  0  0  0  0
 13  2  1  0  0  0  0
 14 10  1  0  0  0  0
 14 15  1  0  0  0  0
 15 28  1  6  0  0  0
 15 11  1  0  0  0  0
 16  9  1  0  0  0  0
 17  7  1  0  0  0  0
 17  4  1  1  0  0  0
 18 12  2  0  0  0  0
 19 25  1  0  0  0  0
 20 21  1  0  0  0  0
 20 24  2  0  0  0  0
 21 19  1  0  0  0  0
 23 22  1  0  0  0  0
 24 23  1  0  0  0  0
 25 22  1  0  0  0  0
 27 26  1  0  0  0  0
 28 34  1  6  0  0  0
 29 30  2  0  0  0  0
 31 28  1  0  0  0  0
 31 29  1  0  0  0  0
 32 29  1  0  0  0  0
 33 34  1  0  0  0  0
M  END
>  <MODEL>
9

>  <REMARK>
 VINA RESULT:      -6.9      3.371      6.087
  Name = 
  5 active torsions:
  status: ('A' for Active; 'I' for Inactive)
    1  A    between atoms: C_1  and  C_19
    2  A    between atoms: C_3  and  C_13
    3  A    between atoms: C_12  and  N_23
    4  A    between atoms: C_12  and  S_27
    5  A    between atoms: C_12  and  C_28
                            x       y       z     vdW  Elec       q    Type
                         _______ _______ _______ _____ _____    ______ ____

>  <TORSDO>
F 5

$$$$
