=
 OpenBabel10262420043D

 27 31  0  0  0  0  0  0  0  0999 V2000
  188.2340  176.9070  144.1100 N   0  0  0  0  0  0  0  0  0  0  0  0
  186.1700  178.1100  144.7240 C   0  0  0  0  0  0  0  0  0  0  0  0
  186.2530  178.1830  142.2910 N   0  0  0  0  0  0  0  0  0  0  0  0
  182.2010  179.0330  144.1320 N   0  0  0  0  0  0  0  0  0  0  0  0
  180.9180  179.2460  142.0580 C   0  0  0  0  0  1  0  0  0  0  0  0
  185.3210  178.4130  145.8320 C   0  0  0  0  0  3  0  0  0  0  0  0
  183.3380  178.6480  142.2860 C   0  0  0  0  0  0  0  0  0  0  0  0
  189.5050  178.4740  140.4320 C   0  0  0  0  0  3  0  0  0  0  0  0
  183.6320  178.5120  140.8290 C   0  0  0  0  0  1  0  0  0  0  0  0
  190.3300  177.4340  140.5300 C   0  0  0  0  0  3  0  0  0  0  0  0
  184.2200  178.4780  143.3360 C   0  0  0  0  0  0  0  0  0  0  0  0
  187.4450  177.7050  145.0050 C   0  0  0  0  0  0  0  0  0  0  0  0
  182.1320  178.9740  142.8080 N   0  0  0  0  0  0  0  0  0  0  0  0
  183.4720  178.7280  144.4470 C   0  0  0  0  0  0  0  0  0  0  0  0
  188.3800  176.9910  142.8290 C   0  0  0  0  0  0  0  0  0  0  0  0
  185.5900  178.1940  143.4110 C   0  0  0  0  0  0  0  0  0  0  0  0
  188.1520  178.6010  140.9880 C   0  0  0  0  0  3  0  0  0  0  0  0
  184.0010  178.7200  145.6870 N   0  0  0  0  0  0  0  0  0  0  0  0
  190.0640  176.2050  141.2180 N   0  0  0  0  0  0  0  0  0  0  0  0
  189.2480  175.9890  142.2020 C   0  0  0  0  0  3  0  0  0  0  0  0
  187.6370  177.9700  142.0410 C   0  0  0  0  0  0  0  0  0  0  0  0
  189.1300  178.1650  148.9300 C   0  0  0  0  0  3  0  0  0  0  0  0
  188.0130  177.8330  146.3750 C   0  0  0  0  0  0  0  0  0  0  0  0
  187.2200  178.2700  147.4490 C   0  0  0  0  0  3  0  0  0  0  0  0
  187.7750  178.4290  148.7220 C   0  0  0  0  0  3  0  0  0  0  0  0
  189.9330  177.7470  147.8650 C   0  0  0  0  0  3  0  0  0  0  0  0
  189.3780  177.5890  146.5920 C   0  0  0  0  0  3  0  0  0  0  0  0
  1 12  1  0  0  0  0
  2 12  2  0  0  0  0
  2  6  1  0  0  0  0
  3 16  2  0  0  0  0
  4 14  2  0  0  0  0
  5 13  1  0  0  0  0
  7 13  1  0  0  0  0
  7 11  2  0  0  0  0
  8 10  2  0  0  0  0
  8 17  1  0  0  0  0
  9  7  1  0  0  0  0
 10 19  1  0  0  0  0
 11 16  1  0  0  0  0
 11 14  1  0  0  0  0
 12 23  1  0  0  0  0
 13  4  1  0  0  0  0
 14 18  1  0  0  0  0
 15  1  2  0  0  0  0
 16  2  1  0  0  0  0
 17 21  2  0  0  0  0
 18  6  2  0  0  0  0
 19 20  2  0  0  0  0
 20 15  1  0  0  0  0
 21  3  1  0  0  0  0
 21 15  1  0  0  0  0
 23 27  2  0  0  0  0
 23 24  1  0  0  0  0
 24 25  2  0  0  0  0
 25 22  1  0  0  0  0
 26 22  2  0  0  0  0
 27 26  1  0  0  0  0
M  END
>  <MODEL>
1

>  <REMARK>
 VINA RESULT:     -10.3      0.000      0.000
  Name = 
  1 active torsions:
  status: ('A' for Active; 'I' for Inactive)
    1  A    between atoms: C_9  and  C_15
                            x       y       z     vdW  Elec       q    Type
                         _______ _______ _______ _____ _____    ______ ____

>  <TORSDO>
F 1

$$$$
=
 OpenBabel10262420043D

 27 31  0  0  0  0  0  0  0  0999 V2000
  187.1620  178.7750  141.4410 N   0  0  0  0  0  0  0  0  0  0  0  0
  187.2350  177.8220  143.7150 C   0  0  0  0  0  0  0  0  0  0  0  0
  189.3700  177.2290  142.7050 N   0  0  0  0  0  0  0  0  0  0  0  0
  189.2120  176.9710  147.2260 N   0  0  0  0  0  0  0  0  0  0  0  0
  191.5550  176.3780  147.6180 C   0  0  0  0  0  1  0  0  0  0  0  0
  186.5320  177.8010  144.9590 C   0  0  0  0  0  3  0  0  0  0  0  0
  190.4750  176.9030  145.4230 C   0  0  0  0  0  0  0  0  0  0  0  0
  189.6670  176.4040  139.0510 C   0  0  0  0  0  3  0  0  0  0  0  0
  191.6860  176.7120  144.5720 C   0  0  0  0  0  1  0  0  0  0  0  0
  189.4290  177.4040  138.2040 C   0  0  0  0  0  3  0  0  0  0  0  0
  189.2050  177.2540  145.0030 C   0  0  0  0  0  0  0  0  0  0  0  0
  186.5380  178.2210  142.6090 C   0  0  0  0  0  0  0  0  0  0  0  0
  190.4380  176.7490  146.7670 N   0  0  0  0  0  0  0  0  0  0  0  0
  188.4680  177.2790  146.1490 C   0  0  0  0  0  0  0  0  0  0  0  0
  188.2360  178.4130  140.8210 C   0  0  0  0  0  0  0  0  0  0  0  0
  188.6340  177.4860  143.7460 C   0  0  0  0  0  0  0  0  0  0  0  0
  189.6940  176.4590  140.5180 C   0  0  0  0  0  3  0  0  0  0  0  0
  187.1440  177.5290  146.1460 N   0  0  0  0  0  0  0  0  0  0  0  0
  189.1380  178.7630  138.5590 N   0  0  0  0  0  0  0  0  0  0  0  0
  188.6240  179.2190  139.6590 C   0  0  0  0  0  3  0  0  0  0  0  0
  189.0710  177.3220  141.3170 C   0  0  0  0  0  0  0  0  0  0  0  0
  182.2730  178.7370  142.6880 C   0  0  0  0  0  3  0  0  0  0  0  0
  185.0570  178.3630  142.6380 C   0  0  0  0  0  0  0  0  0  0  0  0
  184.2830  178.1150  141.4920 C   0  0  0  0  0  3  0  0  0  0  0  0
  182.8980  178.2950  141.5190 C   0  0  0  0  0  3  0  0  0  0  0  0
  183.0350  179.0040  143.8280 C   0  0  0  0  0  3  0  0  0  0  0  0
  184.4210  178.8240  143.8010 C   0  0  0  0  0  3  0  0  0  0  0  0
  1 12  1  0  0  0  0
  2 16  1  0  0  0  0
  2  6  1  0  0  0  0
  3 16  2  0  0  0  0
  6 18  2  0  0  0  0
  7 13  1  0  0  0  0
  8 17  1  0  0  0  0
  9  7  1  0  0  0  0
 10 19  1  0  0  0  0
 10  8  2  0  0  0  0
 11  7  2  0  0  0  0
 11 14  1  0  0  0  0
 12 23  1  0  0  0  0
 12  2  2  0  0  0  0
 13  4  1  0  0  0  0
 13  5  1  0  0  0  0
 14  4  2  0  0  0  0
 15 21  1  0  0  0  0
 15  1  2  0  0  0  0
 16 11  1  0  0  0  0
 17 21  2  0  0  0  0
 18 14  1  0  0  0  0
 19 20  2  0  0  0  0
 20 15  1  0  0  0  0
 21  3  1  0  0  0  0
 22 26  1  0  0  0  0
 23 27  1  0  0  0  0
 24 25  1  0  0  0  0
 24 23  2  0  0  0  0
 25 22  2  0  0  0  0
 27 26  2  0  0  0  0
M  END
>  <MODEL>
2

>  <REMARK>
 VINA RESULT:      -9.7      2.151      5.946
  Name = 
  1 active torsions:
  status: ('A' for Active; 'I' for Inactive)
    1  A    between atoms: C_9  and  C_15
                            x       y       z     vdW  Elec       q    Type
                         _______ _______ _______ _____ _____    ______ ____

>  <TORSDO>
F 1

$$$$
=
 OpenBabel10262420043D

 27 31  0  0  0  0  0  0  0  0999 V2000
  187.7170  177.3340  143.7140 N   0  0  0  0  0  0  0  0  0  0  0  0
  186.8560  178.2610  141.5970 C   0  0  0  0  0  0  0  0  0  0  0  0
  189.2630  178.0710  141.2790 N   0  0  0  0  0  0  0  0  0  0  0  0
  186.8210  178.4790  137.4840 N   0  0  0  0  0  0  0  0  0  0  0  0
  188.6500  178.2530  135.8720 C   0  0  0  0  0  1  0  0  0  0  0  0
  185.6460  178.5490  140.8940 C   0  0  0  0  0  3  0  0  0  0  0  0
  188.7990  178.0710  138.3640 C   0  0  0  0  0  0  0  0  0  0  0  0
  191.6800  178.6560  144.0950 C   0  0  0  0  0  3  0  0  0  0  0  0
  190.2670  177.8190  138.4430 C   0  0  0  0  0  1  0  0  0  0  0  0
  191.6400  177.7750  145.0940 C   0  0  0  0  0  3  0  0  0  0  0  0
  187.9080  178.1600  139.4180 C   0  0  0  0  0  0  0  0  0  0  0  0
  186.7700  178.0950  142.9500 C   0  0  0  0  0  0  0  0  0  0  0  0
  188.1030  178.2600  137.2180 N   0  0  0  0  0  0  0  0  0  0  0  0
  186.7090  178.4140  138.8230 C   0  0  0  0  0  0  0  0  0  0  0  0
  189.0070  177.2950  143.6390 C   0  0  0  0  0  0  0  0  0  0  0  0
  188.0510  178.1040  140.8100 C   0  0  0  0  0  0  0  0  0  0  0  0
  190.9090  178.6310  142.8470 C   0  0  0  0  0  3  0  0  0  0  0  0
  185.5840  178.6280  139.5350 N   0  0  0  0  0  0  0  0  0  0  0  0
  190.8150  176.6050  145.1570 N   0  0  0  0  0  0  0  0  0  0  0  0
  189.6880  176.3770  144.5570 C   0  0  0  0  0  3  0  0  0  0  0  0
  189.7330  178.0500  142.6220 C   0  0  0  0  0  0  0  0  0  0  0  0
  183.1730  179.0590  145.0940 C   0  0  0  0  0  3  0  0  0  0  0  0
  185.5360  178.4630  143.6970 C   0  0  0  0  0  0  0  0  0  0  0  0
  185.5430  178.5720  145.0970 C   0  0  0  0  0  3  0  0  0  0  0  0
  184.3680  178.8750  145.7920 C   0  0  0  0  0  3  0  0  0  0  0  0
  183.1500  178.9350  143.7020 C   0  0  0  0  0  3  0  0  0  0  0  0
  184.3250  178.6320  143.0080 C   0  0  0  0  0  3  0  0  0  0  0  0
  2 12  1  0  0  0  0
  3 21  2  0  0  0  0
  4 14  2  0  0  0  0
  5 13  1  0  0  0  0
  6  2  1  0  0  0  0
  7  9  1  0  0  0  0
  7 11  2  0  0  0  0
  8 10  1  0  0  0  0
 10 19  2  0  0  0  0
 11 16  1  0  0  0  0
 12 23  1  0  0  0  0
 12  1  2  0  0  0  0
 13  4  1  0  0  0  0
 13  7  1  0  0  0  0
 14 11  1  0  0  0  0
 14 18  1  0  0  0  0
 15  1  1  0  0  0  0
 15 20  2  0  0  0  0
 16  3  1  0  0  0  0
 16  2  2  0  0  0  0
 17  8  2  0  0  0  0
 18  6  2  0  0  0  0
 20 19  1  0  0  0  0
 21 17  1  0  0  0  0
 21 15  1  0  0  0  0
 22 25  1  0  0  0  0
 23 24  1  0  0  0  0
 24 25  2  0  0  0  0
 26 22  2  0  0  0  0
 27 23  2  0  0  0  0
 27 26  1  0  0  0  0
M  END
>  <MODEL>
3

>  <REMARK>
 VINA RESULT:      -9.2      2.653      5.376
  Name = 
  1 active torsions:
  status: ('A' for Active; 'I' for Inactive)
    1  A    between atoms: C_9  and  C_15
                            x       y       z     vdW  Elec       q    Type
                         _______ _______ _______ _____ _____    ______ ____

>  <TORSDO>
F 1

$$$$
=
 OpenBabel10262420043D

 27 31  0  0  0  0  0  0  0  0999 V2000
  189.8030  178.4500  142.0250 N   0  0  0  0  0  0  0  0  0  0  0  0
  187.4470  178.1620  141.3590 C   0  0  0  0  0  0  0  0  0  0  0  0
  187.4520  177.9730  143.7870 N   0  0  0  0  0  0  0  0  0  0  0  0
  183.4190  178.8240  141.9060 N   0  0  0  0  0  0  0  0  0  0  0  0
  182.1180  179.0460  143.9680 C   0  0  0  0  0  1  0  0  0  0  0  0
  186.5650  178.2530  140.2380 C   0  0  0  0  0  3  0  0  0  0  0  0
  184.5840  178.6700  143.7690 C   0  0  0  0  0  0  0  0  0  0  0  0
  190.3060  176.3780  145.6380 C   0  0  0  0  0  3  0  0  0  0  0  0
  184.8820  178.6280  145.2300 C   0  0  0  0  0  1  0  0  0  0  0  0
  191.4710  177.0210  145.5840 C   0  0  0  0  0  3  0  0  0  0  0  0
  185.4820  178.5250  142.7280 C   0  0  0  0  0  0  0  0  0  0  0  0
  188.7830  178.0520  141.0980 C   0  0  0  0  0  0  0  0  0  0  0  0
  183.3550  178.8550  143.2320 N   0  0  0  0  0  0  0  0  0  0  0  0
  184.7140  178.6250  141.6060 C   0  0  0  0  0  0  0  0  0  0  0  0
  189.8840  178.2680  143.3020 C   0  0  0  0  0  0  0  0  0  0  0  0
  186.8560  178.2600  142.6670 C   0  0  0  0  0  0  0  0  0  0  0  0
  189.0200  176.8050  145.0750 C   0  0  0  0  0  3  0  0  0  0  0  0
  185.2270  178.4740  140.3690 N   0  0  0  0  0  0  0  0  0  0  0  0
  191.7130  178.2820  144.9470 N   0  0  0  0  0  0  0  0  0  0  0  0
  191.0600  178.8330  143.9710 C   0  0  0  0  0  3  0  0  0  0  0  0
  188.8060  177.6240  144.0480 C   0  0  0  0  0  0  0  0  0  0  0  0
  190.1440  177.1540  137.1220 C   0  0  0  0  0  3  0  0  0  0  0  0
  189.2820  177.7660  139.7240 C   0  0  0  0  0  0  0  0  0  0  0  0
  188.9960  178.6320  138.6560 C   0  0  0  0  0  3  0  0  0  0  0  0
  189.4300  178.3300  137.3620 C   0  0  0  0  0  3  0  0  0  0  0  0
  190.4190  176.2770  138.1750 C   0  0  0  0  0  3  0  0  0  0  0  0
  189.9840  176.5780  139.4680 C   0  0  0  0  0  3  0  0  0  0  0  0
  1 15  1  0  0  0  0
  2 16  2  0  0  0  0
  3 21  2  0  0  0  0
  4 13  1  0  0  0  0
  6 18  2  0  0  0  0
  6  2  1  0  0  0  0
  7  9  1  0  0  0  0
 10  8  1  0  0  0  0
 11  7  2  0  0  0  0
 12  2  1  0  0  0  0
 12  1  2  0  0  0  0
 13  7  1  0  0  0  0
 13  5  1  0  0  0  0
 14  4  2  0  0  0  0
 14 11  1  0  0  0  0
 15 20  2  0  0  0  0
 15 21  1  0  0  0  0
 16 11  1  0  0  0  0
 16  3  1  0  0  0  0
 17  8  2  0  0  0  0
 18 14  1  0  0  0  0
 19 10  2  0  0  0  0
 20 19  1  0  0  0  0
 21 17  1  0  0  0  0
 22 25  2  0  0  0  0
 22 26  1  0  0  0  0
 23 12  1  0  0  0  0
 24 23  2  0  0  0  0
 25 24  1  0  0  0  0
 26 27  2  0  0  0  0
 27 23  1  0  0  0  0
M  END
>  <MODEL>
4

>  <REMARK>
 VINA RESULT:      -9.1      2.002      5.546
  Name = 
  1 active torsions:
  status: ('A' for Active; 'I' for Inactive)
    1  A    between atoms: C_9  and  C_15
                            x       y       z     vdW  Elec       q    Type
                         _______ _______ _______ _____ _____    ______ ____

>  <TORSDO>
F 1

$$$$
=
 OpenBabel10262420043D

 27 31  0  0  0  0  0  0  0  0999 V2000
  187.0670  178.8310  140.0610 N   0  0  0  0  0  0  0  0  0  0  0  0
  186.3460  178.2170  142.3380 C   0  0  0  0  0  0  0  0  0  0  0  0
  188.6570  177.4660  142.1750 N   0  0  0  0  0  0  0  0  0  0  0  0
  187.0280  177.8660  146.3850 N   0  0  0  0  0  0  0  0  0  0  0  0
  189.0800  177.3160  147.6010 C   0  0  0  0  0  1  0  0  0  0  0  0
  185.2780  178.3820  143.2730 C   0  0  0  0  0  3  0  0  0  0  0  0
  188.8010  177.5260  145.1230 C   0  0  0  0  0  0  0  0  0  0  0  0
  190.0760  176.1180  138.9680 C   0  0  0  0  0  3  0  0  0  0  0  0
  190.2100  177.2040  144.7520 C   0  0  0  0  0  1  0  0  0  0  0  0
  190.1810  176.9870  137.9640 C   0  0  0  0  0  3  0  0  0  0  0  0
  187.7580  177.8240  144.2660 C   0  0  0  0  0  0  0  0  0  0  0  0
  186.0690  178.4570  141.0220 C   0  0  0  0  0  0  0  0  0  0  0  0
  188.3220  177.5700  146.3880 N   0  0  0  0  0  0  0  0  0  0  0  0
  186.6920  178.0220  145.0920 C   0  0  0  0  0  0  0  0  0  0  0  0
  188.2630  178.3730  139.8830 C   0  0  0  0  0  0  0  0  0  0  0  0
  187.6380  177.8770  142.8720 C   0  0  0  0  0  0  0  0  0  0  0  0
  189.6290  176.3840  140.3400 C   0  0  0  0  0  3  0  0  0  0  0  0
  185.4560  178.2790  144.6200 N   0  0  0  0  0  0  0  0  0  0  0  0
  189.8660  178.3840  138.0180 N   0  0  0  0  0  0  0  0  0  0  0  0
  189.0510  178.9990  138.8160 C   0  0  0  0  0  3  0  0  0  0  0  0
  188.8290  177.3590  140.7670 C   0  0  0  0  0  0  0  0  0  0  0  0
  182.0540  178.8660  139.5480 C   0  0  0  0  0  3  0  0  0  0  0  0
  184.6680  178.6150  140.5430 C   0  0  0  0  0  0  0  0  0  0  0  0
  183.6520  177.7500  140.9820 C   0  0  0  0  0  3  0  0  0  0  0  0
  182.3490  177.8800  140.4920 C   0  0  0  0  0  3  0  0  0  0  0  0
  183.0610  179.7200  139.0910 C   0  0  0  0  0  3  0  0  0  0  0  0
  184.3630  179.5900  139.5810 C   0  0  0  0  0  3  0  0  0  0  0  0
  1 12  1  0  0  0  0
  2 16  1  0  0  0  0
  2  6  1  0  0  0  0
  3 16  2  0  0  0  0
  4 13  1  0  0  0  0
  6 18  2  0  0  0  0
  7 13  1  0  0  0  0
  8 17  1  0  0  0  0
  9  7  1  0  0  0  0
 10 19  1  0  0  0  0
 10  8  2  0  0  0  0
 11 14  1  0  0  0  0
 11  7  2  0  0  0  0
 12  2  2  0  0  0  0
 13  5  1  0  0  0  0
 14  4  2  0  0  0  0
 15  1  2  0  0  0  0
 15 21  1  0  0  0  0
 16 11  1  0  0  0  0
 17 21  2  0  0  0  0
 18 14  1  0  0  0  0
 19 20  2  0  0  0  0
 20 15  1  0  0  0  0
 21  3  1  0  0  0  0
 22 25  1  0  0  0  0
 23 24  1  0  0  0  0
 23 12  1  0  0  0  0
 25 24  2  0  0  0  0
 26 22  2  0  0  0  0
 26 27  1  0  0  0  0
 27 23  2  0  0  0  0
M  END
>  <MODEL>
5

>  <REMARK>
 VINA RESULT:      -9.0      1.841      6.055
  Name = 
  1 active torsions:
  status: ('A' for Active; 'I' for Inactive)
    1  A    between atoms: C_9  and  C_15
                            x       y       z     vdW  Elec       q    Type
                         _______ _______ _______ _____ _____    ______ ____

>  <TORSDO>
F 1

$$$$
=
 OpenBabel10262420043D

 27 31  0  0  0  0  0  0  0  0999 V2000
  185.0410  179.4350  140.7410 N   0  0  0  0  0  0  0  0  0  0  0  0
  187.1730  178.2110  140.9340 C   0  0  0  0  0  0  0  0  0  0  0  0
  186.5090  177.9740  138.6030 N   0  0  0  0  0  0  0  0  0  0  0  0
  190.8710  177.1230  139.4850 N   0  0  0  0  0  0  0  0  0  0  0  0
  191.6150  176.7270  137.1870 C   0  0  0  0  0  1  0  0  0  0  0  0
  188.2590  177.9590  141.8280 C   0  0  0  0  0  3  0  0  0  0  0  0
  189.3300  177.4160  137.9390 C   0  0  0  0  0  0  0  0  0  0  0  0
  182.9020  177.6600  137.5980 C   0  0  0  0  0  3  0  0  0  0  0  0
  188.6980  177.4610  136.5880 C   0  0  0  0  0  1  0  0  0  0  0  0
  182.1400  178.7300  137.8120 C   0  0  0  0  0  3  0  0  0  0  0  0
  188.7280  177.6870  139.1540 C   0  0  0  0  0  0  0  0  0  0  0  0
  186.0090  178.6750  141.4790 C   0  0  0  0  0  0  0  0  0  0  0  0
  190.6210  177.0880  138.1820 N   0  0  0  0  0  0  0  0  0  0  0  0
  189.7170  177.4890  140.0700 C   0  0  0  0  0  0  0  0  0  0  0  0
  184.5900  179.2670  139.5420 C   0  0  0  0  0  0  0  0  0  0  0  0
  187.4200  178.0190  139.5300 C   0  0  0  0  0  0  0  0  0  0  0  0
  184.3460  177.5280  137.8240 C   0  0  0  0  0  3  0  0  0  0  0  0
  189.5010  177.6000  141.3960 N   0  0  0  0  0  0  0  0  0  0  0  0
  182.5810  179.9950  138.3240 N   0  0  0  0  0  0  0  0  0  0  0  0
  183.6120  180.2510  139.0670 C   0  0  0  0  0  3  0  0  0  0  0  0
  185.1080  178.2130  138.6750 C   0  0  0  0  0  0  0  0  0  0  0  0
  185.2730  178.5730  145.7110 C   0  0  0  0  0  3  0  0  0  0  0  0
  185.7840  178.6600  142.9510 C   0  0  0  0  0  0  0  0  0  0  0  0
  186.5380  177.8230  143.7890 C   0  0  0  0  0  3  0  0  0  0  0  0
  186.2880  177.7840  145.1640 C   0  0  0  0  0  3  0  0  0  0  0  0
  184.5050  179.3960  144.8840 C   0  0  0  0  0  3  0  0  0  0  0  0
  184.7550  179.4350  143.5090 C   0  0  0  0  0  3  0  0  0  0  0  0
  1 12  1  0  0  0  0
  2 12  2  0  0  0  0
  2  6  1  0  0  0  0
  3 21  1  0  0  0  0
  3 16  2  0  0  0  0
  4 14  2  0  0  0  0
  5 13  1  0  0  0  0
  7 13  1  0  0  0  0
  7 11  2  0  0  0  0
  8 10  2  0  0  0  0
  8 17  1  0  0  0  0
  9  7  1  0  0  0  0
 10 19  1  0  0  0  0
 11 16  1  0  0  0  0
 11 14  1  0  0  0  0
 12 23  1  0  0  0  0
 13  4  1  0  0  0  0
 14 18  1  0  0  0  0
 15  1  2  0  0  0  0
 16  2  1  0  0  0  0
 17 21  2  0  0  0  0
 18  6  2  0  0  0  0
 19 20  2  0  0  0  0
 20 15  1  0  0  0  0
 21 15  1  0  0  0  0
 23 27  2  0  0  0  0
 23 24  1  0  0  0  0
 24 25  2  0  0  0  0
 25 22  1  0  0  0  0
 26 22  2  0  0  0  0
 27 26  1  0  0  0  0
M  END
>  <MODEL>
6

>  <REMARK>
 VINA RESULT:      -8.9      2.695      6.653
  Name = 
  1 active torsions:
  status: ('A' for Active; 'I' for Inactive)
    1  A    between atoms: C_9  and  C_15
                            x       y       z     vdW  Elec       q    Type
                         _______ _______ _______ _____ _____    ______ ____

>  <TORSDO>
F 1

$$$$
=
 OpenBabel10262420043D

 27 31  0  0  0  0  0  0  0  0999 V2000
  191.1500  177.5470  141.0620 N   0  0  0  0  0  0  0  0  0  0  0  0
  189.1880  177.3810  139.5780 C   0  0  0  0  0  0  0  0  0  0  0  0
  188.2770  177.8050  141.7970 N   0  0  0  0  0  0  0  0  0  0  0  0
  185.4620  178.6280  138.3440 N   0  0  0  0  0  0  0  0  0  0  0  0
  183.5800  179.5100  139.6370 C   0  0  0  0  0  1  0  0  0  0  0  0
  188.8090  177.2920  138.2040 C   0  0  0  0  0  3  0  0  0  0  0  0
  185.8180  178.8080  140.5100 C   0  0  0  0  0  0  0  0  0  0  0  0
  189.8780  176.3990  144.8920 C   0  0  0  0  0  3  0  0  0  0  0  0
  185.5530  179.0980  141.9490 C   0  0  0  0  0  1  0  0  0  0  0  0
  191.0890  176.8660  145.1880 C   0  0  0  0  0  3  0  0  0  0  0  0
  186.9810  178.3030  139.9590 C   0  0  0  0  0  0  0  0  0  0  0  0
  190.4760  177.0530  139.8960 C   0  0  0  0  0  0  0  0  0  0  0  0
  184.9320  178.9970  139.5040 N   0  0  0  0  0  0  0  0  0  0  0  0
  186.7080  178.2090  138.6270 C   0  0  0  0  0  0  0  0  0  0  0  0
  190.7250  177.6820  142.2750 C   0  0  0  0  0  0  0  0  0  0  0  0
  188.1980  177.8720  140.5010 C   0  0  0  0  0  0  0  0  0  0  0  0
  188.9990  176.8200  143.7950 C   0  0  0  0  0  3  0  0  0  0  0  0
  187.5900  177.6950  137.7470 N   0  0  0  0  0  0  0  0  0  0  0  0
  191.7980  177.8910  144.4790 N   0  0  0  0  0  0  0  0  0  0  0  0
  191.6700  178.2530  143.2400 C   0  0  0  0  0  3  0  0  0  0  0  0
  189.3430  177.3760  142.6350 C   0  0  0  0  0  0  0  0  0  0  0  0
  193.0970  175.0530  137.1410 C   0  0  0  0  0  3  0  0  0  0  0  0
  191.3660  176.3760  138.9130 C   0  0  0  0  0  0  0  0  0  0  0  0
  190.9300  175.2460  138.2010 C   0  0  0  0  0  3  0  0  0  0  0  0
  191.7900  174.5920  137.3140 C   0  0  0  0  0  3  0  0  0  0  0  0
  193.5460  176.1650  137.8580 C   0  0  0  0  0  3  0  0  0  0  0  0
  192.6870  176.8200  138.7450 C   0  0  0  0  0  3  0  0  0  0  0  0
  1 15  1  0  0  0  0
  2 12  1  0  0  0  0
  2 16  2  0  0  0  0
  3 21  2  0  0  0  0
  4 14  2  0  0  0  0
  4 13  1  0  0  0  0
  6  2  1  0  0  0  0
  7  9  1  0  0  0  0
  8 10  1  0  0  0  0
 11 16  1  0  0  0  0
 11  7  2  0  0  0  0
 12  1  2  0  0  0  0
 13  5  1  0  0  0  0
 13  7  1  0  0  0  0
 14 11  1  0  0  0  0
 15 21  1  0  0  0  0
 15 20  2  0  0  0  0
 16  3  1  0  0  0  0
 17  8  2  0  0  0  0
 18  6  2  0  0  0  0
 18 14  1  0  0  0  0
 19 10  2  0  0  0  0
 20 19  1  0  0  0  0
 21 17  1  0  0  0  0
 22 25  2  0  0  0  0
 22 26  1  0  0  0  0
 23 12  1  0  0  0  0
 24 23  2  0  0  0  0
 25 24  1  0  0  0  0
 26 27  2  0  0  0  0
 27 23  1  0  0  0  0
M  END
>  <MODEL>
7

>  <REMARK>
 VINA RESULT:      -8.7      3.067      6.671
  Name = 
  1 active torsions:
  status: ('A' for Active; 'I' for Inactive)
    1  A    between atoms: C_9  and  C_15
                            x       y       z     vdW  Elec       q    Type
                         _______ _______ _______ _____ _____    ______ ____

>  <TORSDO>
F 1

$$$$
=
 OpenBabel10262420043D

 27 31  0  0  0  0  0  0  0  0999 V2000
  183.7160  178.7720  142.1770 N   0  0  0  0  0  0  0  0  0  0  0  0
  186.0430  178.3230  141.4980 C   0  0  0  0  0  0  0  0  0  0  0  0
  184.6940  177.8020  139.5390 N   0  0  0  0  0  0  0  0  0  0  0  0
  189.1080  178.4600  138.7500 N   0  0  0  0  0  0  0  0  0  0  0  0
  189.0550  178.2520  136.3110 C   0  0  0  0  0  1  0  0  0  0  0  0
  187.3990  178.4710  141.9260 C   0  0  0  0  0  3  0  0  0  0  0  0
  187.1050  178.1780  137.8770 C   0  0  0  0  0  0  0  0  0  0  0  0
  181.2700  176.2870  139.8440 C   0  0  0  0  0  3  0  0  0  0  0  0
  186.0480  177.9670  136.8450 C   0  0  0  0  0  1  0  0  0  0  0  0
  180.3380  177.0550  140.4070 C   0  0  0  0  0  3  0  0  0  0  0  0
  186.9300  178.2780  139.2450 C   0  0  0  0  0  0  0  0  0  0  0  0
  185.0720  178.3970  142.4570 C   0  0  0  0  0  0  0  0  0  0  0  0
  188.4280  178.3010  137.6200 N   0  0  0  0  0  0  0  0  0  0  0  0
  188.1910  178.4470  139.7330 C   0  0  0  0  0  0  0  0  0  0  0  0
  182.9400  178.4250  141.2040 C   0  0  0  0  0  0  0  0  0  0  0  0
  185.8140  178.1750  140.0860 C   0  0  0  0  0  0  0  0  0  0  0  0
  182.6590  176.6450  139.5350 C   0  0  0  0  0  3  0  0  0  0  0  0
  188.4450  178.5260  141.0550 N   0  0  0  0  0  0  0  0  0  0  0  0
  180.5080  178.4110  140.8400 N   0  0  0  0  0  0  0  0  0  0  0  0
  181.5990  179.0160  141.1920 C   0  0  0  0  0  3  0  0  0  0  0  0
  183.4170  177.5700  140.1190 C   0  0  0  0  0  0  0  0  0  0  0  0
  185.9690  178.2240  146.6550 C   0  0  0  0  0  3  0  0  0  0  0  0
  185.4120  178.3590  143.9060 C   0  0  0  0  0  0  0  0  0  0  0  0
  186.4680  177.5650  144.3810 C   0  0  0  0  0  3  0  0  0  0  0  0
  186.7500  177.5030  145.7490 C   0  0  0  0  0  3  0  0  0  0  0  0
  184.9050  179.0030  146.1950 C   0  0  0  0  0  3  0  0  0  0  0  0
  184.6230  179.0650  144.8280 C   0  0  0  0  0  3  0  0  0  0  0  0
  1 12  1  0  0  0  0
  2  6  1  0  0  0  0
  2 12  2  0  0  0  0
  3 16  2  0  0  0  0
  3 21  1  0  0  0  0
  4 14  2  0  0  0  0
  5 13  1  0  0  0  0
  7 11  2  0  0  0  0
  8 10  2  0  0  0  0
  9  7  1  0  0  0  0
 10 19  1  0  0  0  0
 11 14  1  0  0  0  0
 11 16  1  0  0  0  0
 12 23  1  0  0  0  0
 13  7  1  0  0  0  0
 13  4  1  0  0  0  0
 14 18  1  0  0  0  0
 15  1  2  0  0  0  0
 16  2  1  0  0  0  0
 17  8  1  0  0  0  0
 17 21  2  0  0  0  0
 18  6  2  0  0  0  0
 19 20  2  0  0  0  0
 20 15  1  0  0  0  0
 21 15  1  0  0  0  0
 23 24  2  0  0  0  0
 23 27  1  0  0  0  0
 24 25  1  0  0  0  0
 25 22  2  0  0  0  0
 26 22  1  0  0  0  0
 27 26  2  0  0  0  0
M  END
>  <MODEL>
8

>  <REMARK>
 VINA RESULT:      -8.6      2.426      6.202
  Name = 
  1 active torsions:
  status: ('A' for Active; 'I' for Inactive)
    1  A    between atoms: C_9  and  C_15
                            x       y       z     vdW  Elec       q    Type
                         _______ _______ _______ _____ _____    ______ ____

>  <TORSDO>
F 1

$$$$
=
 OpenBabel10262420043D

 27 31  0  0  0  0  0  0  0  0999 V2000
  189.1040  176.9700  140.6790 N   0  0  0  0  0  0  0  0  0  0  0  0
  187.3870  177.9810  142.1340 C   0  0  0  0  0  0  0  0  0  0  0  0
  186.5720  178.3050  139.8620 N   0  0  0  0  0  0  0  0  0  0  0  0
  183.4610  178.7230  143.1310 N   0  0  0  0  0  0  0  0  0  0  0  0
  181.5040  179.0700  141.7000 C   0  0  0  0  0  1  0  0  0  0  0  0
  186.9970  178.1180  143.5010 C   0  0  0  0  0  3  0  0  0  0  0  0
  183.8490  178.5960  140.9660 C   0  0  0  0  0  0  0  0  0  0  0  0
  188.9100  178.9760  136.9990 C   0  0  0  0  0  3  0  0  0  0  0  0
  183.5920  178.6260  139.4970 C   0  0  0  0  0  1  0  0  0  0  0  0
  189.7330  177.9820  136.6700 C   0  0  0  0  0  3  0  0  0  0  0  0
  185.0580  178.3720  141.5990 C   0  0  0  0  0  0  0  0  0  0  0  0
  188.6830  177.6260  141.8850 C   0  0  0  0  0  0  0  0  0  0  0  0
  182.9130  178.7950  141.9230 N   0  0  0  0  0  0  0  0  0  0  0  0
  184.7640  178.4630  142.9260 C   0  0  0  0  0  0  0  0  0  0  0  0
  188.7690  177.1930  139.4510 C   0  0  0  0  0  0  0  0  0  0  0  0
  186.3650  178.1630  141.1380 C   0  0  0  0  0  0  0  0  0  0  0  0
  187.8540  178.9650  138.0180 C   0  0  0  0  0  3  0  0  0  0  0  0
  185.7110  178.3600  143.8800 N   0  0  0  0  0  0  0  0  0  0  0  0
  189.7600  176.6750  137.2600 N   0  0  0  0  0  0  0  0  0  0  0  0
  189.3650  176.3130  138.4410 C   0  0  0  0  0  3  0  0  0  0  0  0
  187.7710  178.2010  139.1050 C   0  0  0  0  0  0  0  0  0  0  0  0
  191.7200  177.6430  144.9250 C   0  0  0  0  0  3  0  0  0  0  0  0
  189.7110  177.6470  142.9610 C   0  0  0  0  0  0  0  0  0  0  0  0
  190.3780  178.8350  143.3020 C   0  0  0  0  0  3  0  0  0  0  0  0
  191.3730  178.8340  144.2840 C   0  0  0  0  0  3  0  0  0  0  0  0
  191.0760  176.4510  144.5800 C   0  0  0  0  0  3  0  0  0  0  0  0
  190.0810  176.4520  143.5990 C   0  0  0  0  0  3  0  0  0  0  0  0
  1 12  1  0  0  0  0
  2  6  1  0  0  0  0
  3 16  2  0  0  0  0
  5 13  1  0  0  0  0
  6 18  2  0  0  0  0
  7 11  2  0  0  0  0
  7 13  1  0  0  0  0
  8 17  1  0  0  0  0
  9  7  1  0  0  0  0
 10  8  2  0  0  0  0
 10 19  1  0  0  0  0
 11 14  1  0  0  0  0
 12  2  2  0  0  0  0
 12 23  1  0  0  0  0
 13  4  1  0  0  0  0
 14  4  2  0  0  0  0
 14 18  1  0  0  0  0
 15  1  2  0  0  0  0
 16 11  1  0  0  0  0
 16  2  1  0  0  0  0
 17 21  2  0  0  0  0
 19 20  2  0  0  0  0
 20 15  1  0  0  0  0
 21 15  1  0  0  0  0
 21  3  1  0  0  0  0
 23 24  2  0  0  0  0
 23 27  1  0  0  0  0
 24 25  1  0  0  0  0
 25 22  2  0  0  0  0
 26 22  1  0  0  0  0
 27 26  2  0  0  0  0
M  END
>  <MODEL>
9

>  <REMARK>
 VINA RESULT:      -8.4      2.389      3.247
  Name = 
  1 active torsions:
  status: ('A' for Active; 'I' for Inactive)
    1  A    between atoms: C_9  and  C_15
                            x       y       z     vdW  Elec       q    Type
                         _______ _______ _______ _____ _____    ______ ____

>  <TORSDO>
F 1

$$$$
