=
 OpenBabel10262419453D

 25 27  0  0  1  0  0  0  0  0999 V2000
  186.1020  177.4010  145.0090 C   0  0  1  0  0  3  0  0  0  0  0  0
  187.5650  177.3430  145.3870 C   0  0  0  0  0  0  0  0  0  0  0  0
  185.7950  178.9480  146.9840 C   0  0  0  0  0  2  0  0  0  0  0  0
  187.0620  178.4070  147.6360 C   0  0  0  0  0  2  0  0  0  0  0  0
  189.3970  177.8130  146.9220 C   0  0  0  0  0  0  0  0  0  0  0  0
  189.8740  178.3120  148.1280 O   0  0  0  0  0  1  0  0  0  0  0  0
  188.4780  176.7740  144.4900 C   0  0  0  0  0  3  0  0  0  0  0  0
  185.1590  177.8630  146.1260 C   0  0  0  0  0  2  0  0  0  0  0  0
  190.2970  177.2500  146.0120 C   0  0  0  0  0  3  0  0  0  0  0  0
  189.8390  176.7260  144.8010 C   0  0  0  0  0  0  0  0  0  0  0  0
  188.0270  177.8680  146.6160 C   0  0  0  0  0  0  0  0  0  0  0  0
  185.8140  178.0630  143.6870 C   0  0  0  0  0  0  0  0  0  0  0  0
  185.4510  179.2360  141.1590 C   0  0  0  0  0  3  0  0  0  0  0  0
  184.5590  178.6130  143.3280 C   0  0  0  0  0  0  0  0  0  0  0  0
  184.3930  179.1950  142.0680 C   0  0  0  0  0  3  0  0  0  0  0  0
  186.6880  178.6920  141.5070 C   0  0  0  0  0  3  0  0  0  0  0  0
  183.1710  178.6200  144.4060 Cl  0  0  0  0  0  0  0  0  0  0  0  0
  186.8660  178.1090  142.7620 C   0  0  0  0  0  3  0  0  0  0  0  0
  190.8040  176.1460  143.8270 C   0  0  0  0  0  2  0  0  0  0  0  0
  190.1770  176.0900  142.4440 C   0  0  0  0  0  2  0  0  0  0  0  0
  190.6140  177.2850  141.6130 C   0  0  1  0  0  3  0  0  0  0  0  0
  191.9910  177.4630  141.7410 O   0  0  0  0  0  1  0  0  0  0  0  0
  190.2600  177.0940  140.1730 C   0  0  0  0  0  0  0  0  0  0  0  0
  190.5620  176.0260  139.5770 O   0  0  0  0  0  1  0  0  0  0  0  0
  189.5790  178.0950  139.4940 O   0  0  0  0  0  0  0  0  0  0  0  0
  1 12  1  6  0  0  0
  1  2  1  0  0  0  0
  1  8  1  0  0  0  0
  2 11  1  0  0  0  0
  3  4  1  0  0  0  0
  5  6  1  0  0  0  0
  7 10  1  0  0  0  0
  7  2  2  0  0  0  0
  8  3  1  0  0  0  0
  9  5  1  0  0  0  0
 10  9  2  0  0  0  0
 11  5  2  0  0  0  0
 11  4  1  0  0  0  0
 13 16  2  0  0  0  0
 13 15  1  0  0  0  0
 14 12  1  0  0  0  0
 14 17  1  0  0  0  0
 15 14  2  0  0  0  0
 16 18  1  0  0  0  0
 18 12  2  0  0  0  0
 19 10  1  0  0  0  0
 20 19  1  0  0  0  0
 21 22  1  6  0  0  0
 21 20  1  0  0  0  0
 23 21  1  0  0  0  0
 24 23  1  0  0  0  0
 25 23  2  0  0  0  0
M  END
>  <MODEL>
1

>  <REMARK>
 VINA RESULT:      -9.2      0.000      0.000
  Name = 
  5 active torsions:
  status: ('A' for Active; 'I' for Inactive)
    1  A    between atoms: C_1  and  C_5
    2  A    between atoms: C_2  and  C_21
    3  A    between atoms: C_6  and  C_15
    4  A    between atoms: C_6  and  C_23
    5  A    between atoms: C_15  and  C_21
                            x       y       z     vdW  Elec       q    Type
                         _______ _______ _______ _____ _____    ______ ____

>  <TORSDO>
F 5

$$$$
=
 OpenBabel10262419453D

 25 27  0  0  1  0  0  0  0  0999 V2000
  188.8390  176.7280  144.3920 C   0  0  1  0  0  3  0  0  0  0  0  0
  188.1090  177.3810  143.2390 C   0  0  0  0  0  0  0  0  0  0  0  0
  190.9690  177.6260  143.3700 C   0  0  0  0  0  2  0  0  0  0  0  0
  190.2990  177.7320  142.0060 C   0  0  0  0  0  2  0  0  0  0  0  0
  188.0970  178.5190  141.0850 C   0  0  0  0  0  0  0  0  0  0  0  0
  188.7620  179.0300  139.9780 O   0  0  0  0  0  1  0  0  0  0  0  0
  186.7130  177.4830  143.2870 C   0  0  0  0  0  3  0  0  0  0  0  0
  190.3360  176.4910  144.1630 C   0  0  0  0  0  2  0  0  0  0  0  0
  186.7040  178.6220  141.1540 C   0  0  0  0  0  3  0  0  0  0  0  0
  186.0130  178.1000  142.2490 C   0  0  0  0  0  0  0  0  0  0  0  0
  188.8100  177.9030  142.1270 C   0  0  0  0  0  0  0  0  0  0  0  0
  188.5380  177.3140  145.7470 C   0  0  0  0  0  0  0  0  0  0  0  0
  187.7920  178.4300  148.2150 C   0  0  0  0  0  3  0  0  0  0  0  0
  189.4450  177.3110  146.8340 C   0  0  0  0  0  0  0  0  0  0  0  0
  189.0610  177.8710  148.0570 C   0  0  0  0  0  3  0  0  0  0  0  0
  186.8940  178.4320  147.1470 C   0  0  0  0  0  3  0  0  0  0  0  0
  191.0660  176.6420  146.7300 Cl  0  0  0  0  0  0  0  0  0  0  0  0
  187.2670  177.8760  145.9220 C   0  0  0  0  0  3  0  0  0  0  0  0
  184.5320  178.2300  142.3260 C   0  0  0  0  0  2  0  0  0  0  0  0
  184.1530  179.2430  143.3940 C   0  0  0  0  0  2  0  0  0  0  0  0
  183.1450  178.6440  144.3610 C   0  0  1  0  0  3  0  0  0  0  0  0
  183.3440  179.1800  145.6330 O   0  0  0  0  0  1  0  0  0  0  0  0
  181.7460  178.9140  143.9110 C   0  0  0  0  0  0  0  0  0  0  0  0
  180.7820  178.2590  144.3890 O   0  0  0  0  0  1  0  0  0  0  0  0
  181.5060  179.9070  142.9720 O   0  0  0  0  0  0  0  0  0  0  0  0
  1 12  1  1  0  0  0
  2  7  1  0  0  0  0
  2  1  1  0  0  0  0
  3  8  1  0  0  0  0
  4 11  1  0  0  0  0
  4  3  1  0  0  0  0
  5  9  2  0  0  0  0
  5 11  1  0  0  0  0
  6  5  1  0  0  0  0
  8  1  1  0  0  0  0
  9 10  1  0  0  0  0
 10 19  1  0  0  0  0
 10  7  2  0  0  0  0
 11  2  2  0  0  0  0
 12 18  2  0  0  0  0
 12 14  1  0  0  0  0
 14 15  2  0  0  0  0
 15 13  1  0  0  0  0
 16 13  2  0  0  0  0
 17 14  1  0  0  0  0
 18 16  1  0  0  0  0
 19 20  1  0  0  0  0
 20 21  1  0  0  0  0
 21 22  1  1  0  0  0
 23 21  1  0  0  0  0
 23 24  1  0  0  0  0
 25 23  2  0  0  0  0
M  END
>  <MODEL>
2

>  <REMARK>
 VINA RESULT:      -9.0      3.640      6.771
  Name = 
  5 active torsions:
  status: ('A' for Active; 'I' for Inactive)
    1  A    between atoms: C_1  and  C_5
    2  A    between atoms: C_2  and  C_21
    3  A    between atoms: C_6  and  C_15
    4  A    between atoms: C_6  and  C_23
    5  A    between atoms: C_15  and  C_21
                            x       y       z     vdW  Elec       q    Type
                         _______ _______ _______ _____ _____    ______ ____

>  <TORSDO>
F 5

$$$$
=
 OpenBabel10262419453D

 25 27  0  0  1  0  0  0  0  0999 V2000
  187.0000  177.1290  144.8880 C   0  0  1  0  0  3  0  0  0  0  0  0
  188.2410  177.3610  144.0560 C   0  0  0  0  0  0  0  0  0  0  0  0
  188.2810  178.1280  146.8240 C   0  0  0  0  0  2  0  0  0  0  0  0
  189.6060  177.7990  146.1490 C   0  0  0  0  0  2  0  0  0  0  0  0
  190.5940  177.9540  143.8430 C   0  0  0  0  0  0  0  0  0  0  0  0
  191.8130  178.3070  144.4070 O   0  0  0  0  0  1  0  0  0  0  0  0
  188.1620  177.2240  142.6640 C   0  0  0  0  0  3  0  0  0  0  0  0
  187.2280  177.1130  146.4040 C   0  0  0  0  0  2  0  0  0  0  0  0
  190.4960  177.8240  142.4550 C   0  0  0  0  0  3  0  0  0  0  0  0
  189.2850  177.4530  141.8660 C   0  0  0  0  0  0  0  0  0  0  0  0
  189.4680  177.7290  144.6530 C   0  0  0  0  0  0  0  0  0  0  0  0
  185.8020  177.9480  144.4840 C   0  0  0  0  0  0  0  0  0  0  0  0
  183.6130  179.4370  143.5430 C   0  0  0  0  0  3  0  0  0  0  0  0
  184.8300  178.4390  145.3900 C   0  0  0  0  0  0  0  0  0  0  0  0
  183.7470  179.1800  144.9080 C   0  0  0  0  0  3  0  0  0  0  0  0
  184.5650  178.9510  142.6460 C   0  0  0  0  0  3  0  0  0  0  0  0
  184.9190  178.1780  147.1250 Cl  0  0  0  0  0  0  0  0  0  0  0  0
  185.6510  178.2110  143.1160 C   0  0  0  0  0  3  0  0  0  0  0  0
  189.1810  177.3350  140.3850 C   0  0  0  0  0  2  0  0  0  0  0  0
  188.0820  178.2460  139.8660 C   0  0  0  0  0  2  0  0  0  0  0  0
  187.7950  177.9530  138.4020 C   0  0  1  0  0  3  0  0  0  0  0  0
  186.5750  178.5250  138.0420 O   0  0  0  0  0  1  0  0  0  0  0  0
  188.8830  178.4880  137.5270 C   0  0  0  0  0  0  0  0  0  0  0  0
  189.0270  179.7300  137.3720 O   0  0  0  0  0  1  0  0  0  0  0  0
  189.7490  177.6080  136.8930 O   0  0  0  0  0  0  0  0  0  0  0  0
  1 12  1  1  0  0  0
  1  8  1  0  0  0  0
  2 11  1  0  0  0  0
  2  1  1  0  0  0  0
  4  3  1  0  0  0  0
  5  6  1  0  0  0  0
  5 11  2  0  0  0  0
  7  2  2  0  0  0  0
  8  3  1  0  0  0  0
  9  5  1  0  0  0  0
 10  9  2  0  0  0  0
 10  7  1  0  0  0  0
 11  4  1  0  0  0  0
 12 14  1  0  0  0  0
 13 15  1  0  0  0  0
 14 17  1  0  0  0  0
 15 14  2  0  0  0  0
 16 18  1  0  0  0  0
 16 13  2  0  0  0  0
 18 12  2  0  0  0  0
 19 10  1  0  0  0  0
 20 19  1  0  0  0  0
 21 22  1  6  0  0  0
 21 20  1  0  0  0  0
 23 21  1  0  0  0  0
 24 23  1  0  0  0  0
 25 23  2  0  0  0  0
M  END
>  <MODEL>
3

>  <REMARK>
 VINA RESULT:      -9.0      1.913      3.216
  Name = 
  5 active torsions:
  status: ('A' for Active; 'I' for Inactive)
    1  A    between atoms: C_1  and  C_5
    2  A    between atoms: C_2  and  C_21
    3  A    between atoms: C_6  and  C_15
    4  A    between atoms: C_6  and  C_23
    5  A    between atoms: C_15  and  C_21
                            x       y       z     vdW  Elec       q    Type
                         _______ _______ _______ _____ _____    ______ ____

>  <TORSDO>
F 5

$$$$
=
 OpenBabel10262419453D

 25 27  0  0  1  0  0  0  0  0999 V2000
  187.5880  176.9310  144.3530 C   0  0  1  0  0  3  0  0  0  0  0  0
  186.4660  177.7080  143.7020 C   0  0  0  0  0  0  0  0  0  0  0  0
  189.0860  177.8340  142.5290 C   0  0  0  0  0  2  0  0  0  0  0  0
  187.8820  178.0830  141.6300 C   0  0  0  0  0  2  0  0  0  0  0  0
  185.5640  179.0290  141.8640 C   0  0  0  0  0  0  0  0  0  0  0  0
  185.6930  179.6090  140.6080 O   0  0  0  0  0  1  0  0  0  0  0  0
  185.2540  177.8580  144.3880 C   0  0  0  0  0  3  0  0  0  0  0  0
  188.7990  176.6590  143.4530 C   0  0  0  0  0  2  0  0  0  0  0  0
  184.3650  179.1770  142.5660 C   0  0  0  0  0  3  0  0  0  0  0  0
  184.2060  178.5870  143.8220 C   0  0  0  0  0  0  0  0  0  0  0  0
  186.6250  178.2980  142.4270 C   0  0  0  0  0  0  0  0  0  0  0  0
  187.9750  177.4090  145.7290 C   0  0  0  0  0  0  0  0  0  0  0  0
  188.5070  178.3250  148.3310 C   0  0  0  0  0  3  0  0  0  0  0  0
  189.2850  177.3250  146.2610 C   0  0  0  0  0  0  0  0  0  0  0  0
  189.5360  177.7860  147.5580 C   0  0  0  0  0  3  0  0  0  0  0  0
  187.2140  178.4050  147.8120 C   0  0  0  0  0  3  0  0  0  0  0  0
  190.6470  176.6750  145.3620 Cl  0  0  0  0  0  0  0  0  0  0  0  0
  186.9520  177.9490  146.5200 C   0  0  0  0  0  3  0  0  0  0  0  0
  182.9330  178.7660  144.5740 C   0  0  0  0  0  2  0  0  0  0  0  0
  181.8610  179.3290  143.6560 C   0  0  0  0  0  2  0  0  0  0  0  0
  180.6540  178.4060  143.6200 C   0  0  1  0  0  3  0  0  0  0  0  0
  179.6500  178.9190  144.4420 O   0  0  0  0  0  1  0  0  0  0  0  0
  180.1380  178.2530  142.2250 C   0  0  0  0  0  0  0  0  0  0  0  0
  180.5290  179.0260  141.3100 O   0  0  0  0  0  0  0  0  0  0  0  0
  179.2330  177.2420  141.9340 O   0  0  0  0  0  1  0  0  0  0  0  0
  1 12  1  1  0  0  0
  2  1  1  0  0  0  0
  2  7  1  0  0  0  0
  3  8  1  0  0  0  0
  4 11  1  0  0  0  0
  4  3  1  0  0  0  0
  5 11  1  0  0  0  0
  5  9  2  0  0  0  0
  6  5  1  0  0  0  0
  8  1  1  0  0  0  0
  9 10  1  0  0  0  0
 10  7  2  0  0  0  0
 10 19  1  0  0  0  0
 11  2  2  0  0  0  0
 12 14  2  0  0  0  0
 12 18  1  0  0  0  0
 14 15  1  0  0  0  0
 15 13  2  0  0  0  0
 16 13  1  0  0  0  0
 17 14  1  0  0  0  0
 18 16  2  0  0  0  0
 20 19  1  0  0  0  0
 21 20  1  0  0  0  0
 21 22  1  1  0  0  0
 23 21  1  0  0  0  0
 24 23  2  0  0  0  0
 25 23  1  0  0  0  0
M  END
>  <MODEL>
4

>  <REMARK>
 VINA RESULT:      -8.9      4.286      7.379
  Name = 
  5 active torsions:
  status: ('A' for Active; 'I' for Inactive)
    1  A    between atoms: C_1  and  C_5
    2  A    between atoms: C_2  and  C_21
    3  A    between atoms: C_6  and  C_15
    4  A    between atoms: C_6  and  C_23
    5  A    between atoms: C_15  and  C_21
                            x       y       z     vdW  Elec       q    Type
                         _______ _______ _______ _____ _____    ______ ____

>  <TORSDO>
F 5

$$$$
=
 OpenBabel10262419453D

 25 27  0  0  1  0  0  0  0  0999 V2000
  189.4080  176.3790  143.8550 C   0  0  1  0  0  3  0  0  0  0  0  0
  188.5150  177.1550  142.9130 C   0  0  0  0  0  0  0  0  0  0  0  0
  191.3570  177.2420  142.4970 C   0  0  0  0  0  2  0  0  0  0  0  0
  190.4460  177.4870  141.3010 C   0  0  0  0  0  2  0  0  0  0  0  0
  188.1640  178.4550  140.8830 C   0  0  0  0  0  0  0  0  0  0  0  0
  188.6370  179.0150  139.7030 O   0  0  0  0  0  1  0  0  0  0  0  0
  187.1640  177.3250  143.2410 C   0  0  0  0  0  3  0  0  0  0  0  0
  190.8150  176.0840  143.3230 C   0  0  0  0  0  2  0  0  0  0  0  0
  186.8210  178.6230  141.2300 C   0  0  0  0  0  3  0  0  0  0  0  0
  186.3190  178.0540  142.4020 C   0  0  0  0  0  0  0  0  0  0  0  0
  189.0220  177.7250  141.7230 C   0  0  0  0  0  0  0  0  0  0  0  0
  189.4120  176.8740  145.2790 C   0  0  0  0  0  0  0  0  0  0  0  0
  189.2260  177.8320  147.9130 C   0  0  0  0  0  3  0  0  0  0  0  0
  190.5110  176.7490  146.1620 C   0  0  0  0  0  0  0  0  0  0  0  0
  190.4060  177.2310  147.4710 C   0  0  0  0  0  3  0  0  0  0  0  0
  188.1390  177.9530  147.0470 C   0  0  0  0  0  3  0  0  0  0  0  0
  192.0400  176.0200  145.6950 Cl  0  0  0  0  0  0  0  0  0  0  0  0
  188.2330  177.4760  145.7390 C   0  0  0  0  0  3  0  0  0  0  0  0
  184.8920  178.2540  142.7760 C   0  0  0  0  0  2  0  0  0  0  0  0
  184.7160  179.6020  143.4580 C   0  0  0  0  0  2  0  0  0  0  0  0
  183.8570  179.4590  144.7030 C   0  0  1  0  0  3  0  0  0  0  0  0
  182.8630  178.5060  144.4770 O   0  0  0  0  0  1  0  0  0  0  0  0
  184.6840  179.0570  145.8810 C   0  0  0  0  0  0  0  0  0  0  0  0
  185.6740  179.7530  146.2350 O   0  0  0  0  0  0  0  0  0  0  0  0
  184.3500  177.9180  146.6000 O   0  0  0  0  0  1  0  0  0  0  0  0
  1 12  1  1  0  0  0
  2  7  1  0  0  0  0
  2  1  1  0  0  0  0
  3  8  1  0  0  0  0
  4 11  1  0  0  0  0
  4  3  1  0  0  0  0
  5  9  2  0  0  0  0
  5 11  1  0  0  0  0
  6  5  1  0  0  0  0
  8  1  1  0  0  0  0
  9 10  1  0  0  0  0
 10 19  1  0  0  0  0
 10  7  2  0  0  0  0
 11  2  2  0  0  0  0
 12 18  2  0  0  0  0
 12 14  1  0  0  0  0
 14 15  2  0  0  0  0
 15 13  1  0  0  0  0
 16 13  2  0  0  0  0
 17 14  1  0  0  0  0
 18 16  1  0  0  0  0
 19 20  1  0  0  0  0
 20 21  1  0  0  0  0
 21 22  1  6  0  0  0
 21 23  1  0  0  0  0
 23 24  2  0  0  0  0
 23 25  1  0  0  0  0
M  END
>  <MODEL>
5

>  <REMARK>
 VINA RESULT:      -8.7      3.038      6.800
  Name = 
  5 active torsions:
  status: ('A' for Active; 'I' for Inactive)
    1  A    between atoms: C_1  and  C_5
    2  A    between atoms: C_2  and  C_21
    3  A    between atoms: C_6  and  C_15
    4  A    between atoms: C_6  and  C_23
    5  A    between atoms: C_15  and  C_21
                            x       y       z     vdW  Elec       q    Type
                         _______ _______ _______ _____ _____    ______ ____

>  <TORSDO>
F 5

$$$$
=
 OpenBabel10262419453D

 25 27  0  0  1  0  0  0  0  0999 V2000
  186.2670  177.5070  143.3790 C   0  0  1  0  0  3  0  0  0  0  0  0
  186.6460  177.7330  144.8250 C   0  0  0  0  0  0  0  0  0  0  0  0
  184.8100  179.5620  143.5850 C   0  0  0  0  0  2  0  0  0  0  0  0
  184.7510  179.3980  145.0980 C   0  0  0  0  0  2  0  0  0  0  0  0
  186.3510  178.8640  146.9620 C   0  0  0  0  0  0  0  0  0  0  0  0
  185.6800  179.7710  147.7740 O   0  0  0  0  0  1  0  0  0  0  0  0
  187.7150  177.0090  145.3700 C   0  0  0  0  0  3  0  0  0  0  0  0
  184.9740  178.1970  142.9300 C   0  0  0  0  0  2  0  0  0  0  0  0
  187.4250  178.1410  147.4880 C   0  0  0  0  0  3  0  0  0  0  0  0
  188.1020  177.2110  146.6960 C   0  0  0  0  0  0  0  0  0  0  0  0
  185.9560  178.6700  145.6280 C   0  0  0  0  0  0  0  0  0  0  0  0
  187.3950  177.6760  142.3930 C   0  0  0  0  0  0  0  0  0  0  0  0
  189.6060  177.8770  140.6720 C   0  0  0  0  0  3  0  0  0  0  0  0
  187.2600  178.2990  141.1290 C   0  0  0  0  0  0  0  0  0  0  0  0
  188.3700  178.3940  140.2820 C   0  0  0  0  0  3  0  0  0  0  0  0
  189.7420  177.2580  141.9150 C   0  0  0  0  0  3  0  0  0  0  0  0
  185.7500  178.9900  140.5550 Cl  0  0  0  0  0  0  0  0  0  0  0  0
  188.6420  177.1590  142.7690 C   0  0  0  0  0  3  0  0  0  0  0  0
  189.2590  176.4590  147.2560 C   0  0  0  0  0  2  0  0  0  0  0  0
  190.4560  177.3820  147.4080 C   0  0  0  0  0  2  0  0  0  0  0  0
  191.6950  176.7520  146.7920 C   0  0  1  0  0  3  0  0  0  0  0  0
  191.7630  175.4070  147.1560 O   0  0  0  0  0  1  0  0  0  0  0  0
  191.6720  176.8730  145.3020 C   0  0  0  0  0  0  0  0  0  0  0  0
  191.6810  175.8430  144.5760 O   0  0  0  0  0  0  0  0  0  0  0  0
  191.6250  178.1300  144.7160 O   0  0  0  0  0  1  0  0  0  0  0  0
  1 12  1  6  0  0  0
  1  2  1  0  0  0  0
  2  7  2  0  0  0  0
  2 11  1  0  0  0  0
  3  4  1  0  0  0  0
  4 11  1  0  0  0  0
  5  9  1  0  0  0  0
  5  6  1  0  0  0  0
  7 10  1  0  0  0  0
  8  1  1  0  0  0  0
  8  3  1  0  0  0  0
 10 19  1  0  0  0  0
 10  9  2  0  0  0  0
 11  5  2  0  0  0  0
 12 18  1  0  0  0  0
 13 16  1  0  0  0  0
 14 12  2  0  0  0  0
 15 13  2  0  0  0  0
 15 14  1  0  0  0  0
 16 18  2  0  0  0  0
 17 14  1  0  0  0  0
 19 20  1  0  0  0  0
 21 22  1  6  0  0  0
 21 20  1  0  0  0  0
 23 21  1  0  0  0  0
 24 23  2  0  0  0  0
 25 23  1  0  0  0  0
M  END
>  <MODEL>
6

>  <REMARK>
 VINA RESULT:      -8.6      2.275      3.883
  Name = 
  5 active torsions:
  status: ('A' for Active; 'I' for Inactive)
    1  A    between atoms: C_1  and  C_5
    2  A    between atoms: C_2  and  C_21
    3  A    between atoms: C_6  and  C_15
    4  A    between atoms: C_6  and  C_23
    5  A    between atoms: C_15  and  C_21
                            x       y       z     vdW  Elec       q    Type
                         _______ _______ _______ _____ _____    ______ ____

>  <TORSDO>
F 5

$$$$
=
 OpenBabel10262419453D

 25 27  0  0  1  0  0  0  0  0999 V2000
  189.1290  176.7530  144.6640 C   0  0  1  0  0  3  0  0  0  0  0  0
  188.3390  177.3370  143.5140 C   0  0  0  0  0  0  0  0  0  0  0  0
  191.1700  177.8130  143.6170 C   0  0  0  0  0  2  0  0  0  0  0  0
  190.4820  177.8550  142.2590 C   0  0  0  0  0  2  0  0  0  0  0  0
  188.2150  178.4560  141.3550 C   0  0  0  0  0  0  0  0  0  0  0  0
  188.8270  179.0110  140.2380 O   0  0  0  0  0  1  0  0  0  0  0  0
  186.9390  177.3270  143.5760 C   0  0  0  0  0  3  0  0  0  0  0  0
  190.6380  176.6360  144.4230 C   0  0  0  0  0  2  0  0  0  0  0  0
  186.8200  178.4460  141.4350 C   0  0  0  0  0  3  0  0  0  0  0  0
  186.1820  177.8770  142.5400 C   0  0  0  0  0  0  0  0  0  0  0  0
  188.9850  177.9060  142.3940 C   0  0  0  0  0  0  0  0  0  0  0  0
  188.7940  177.3220  146.0190 C   0  0  0  0  0  0  0  0  0  0  0  0
  187.9840  178.4050  148.4820 C   0  0  0  0  0  3  0  0  0  0  0  0
  189.6780  177.3190  147.1240 C   0  0  0  0  0  0  0  0  0  0  0  0
  189.2630  177.8630  148.3440 C   0  0  0  0  0  3  0  0  0  0  0  0
  187.1080  178.4050  147.3960 C   0  0  0  0  0  3  0  0  0  0  0  0
  191.3090  176.6720  147.0470 Cl  0  0  0  0  0  0  0  0  0  0  0  0
  187.5120  177.8670  146.1730 C   0  0  0  0  0  3  0  0  0  0  0  0
  184.6960  177.8880  142.6300 C   0  0  0  0  0  2  0  0  0  0  0  0
  184.1370  179.0740  141.8610 C   0  0  0  0  0  2  0  0  0  0  0  0
  183.2540  178.5970  140.7180 C   0  0  1  0  0  3  0  0  0  0  0  0
  181.9130  178.7690  141.0620 O   0  0  0  0  0  1  0  0  0  0  0  0
  183.5550  179.3490  139.4610 C   0  0  0  0  0  0  0  0  0  0  0  0
  184.5480  180.1230  139.4000 O   0  0  0  0  0  1  0  0  0  0  0  0
  182.7430  179.1800  138.3490 O   0  0  0  0  0  0  0  0  0  0  0  0
  1 12  1  1  0  0  0
  2  7  1  0  0  0  0
  2  1  1  0  0  0  0
  3  8  1  0  0  0  0
  4 11  1  0  0  0  0
  4  3  1  0  0  0  0
  5  9  2  0  0  0  0
  5 11  1  0  0  0  0
  6  5  1  0  0  0  0
  8  1  1  0  0  0  0
  9 10  1  0  0  0  0
 10 19  1  0  0  0  0
 10  7  2  0  0  0  0
 11  2  2  0  0  0  0
 12 18  2  0  0  0  0
 12 14  1  0  0  0  0
 14 15  2  0  0  0  0
 15 13  1  0  0  0  0
 16 13  2  0  0  0  0
 17 14  1  0  0  0  0
 18 16  1  0  0  0  0
 20 19  1  0  0  0  0
 21 22  1  1  0  0  0
 21 20  1  0  0  0  0
 23 21  1  0  0  0  0
 24 23  1  0  0  0  0
 25 23  2  0  0  0  0
M  END
>  <MODEL>
7

>  <REMARK>
 VINA RESULT:      -8.5      3.164      6.360
  Name = 
  5 active torsions:
  status: ('A' for Active; 'I' for Inactive)
    1  A    between atoms: C_1  and  C_5
    2  A    between atoms: C_2  and  C_21
    3  A    between atoms: C_6  and  C_15
    4  A    between atoms: C_6  and  C_23
    5  A    between atoms: C_15  and  C_21
                            x       y       z     vdW  Elec       q    Type
                         _______ _______ _______ _____ _____    ______ ____

>  <TORSDO>
F 5

$$$$
=
 OpenBabel10262419453D

 25 27  0  0  1  0  0  0  0  0999 V2000
  187.1490  177.1090  144.8710 C   0  0  1  0  0  3  0  0  0  0  0  0
  188.4360  177.3050  144.1020 C   0  0  0  0  0  0  0  0  0  0  0  0
  188.3300  178.1600  146.8420 C   0  0  0  0  0  2  0  0  0  0  0  0
  189.6870  177.8000  146.2530 C   0  0  0  0  0  2  0  0  0  0  0  0
  190.8020  177.8740  144.0010 C   0  0  0  0  0  0  0  0  0  0  0  0
  191.9920  178.2350  144.6220 O   0  0  0  0  0  1  0  0  0  0  0  0
  188.4330  177.1250  142.7120 C   0  0  0  0  0  3  0  0  0  0  0  0
  187.2920  177.1390  146.3970 C   0  0  0  0  0  2  0  0  0  0  0  0
  190.7800  177.7000  142.6150 C   0  0  0  0  0  3  0  0  0  0  0  0
  189.6010  177.3200  141.9710 C   0  0  0  0  0  0  0  0  0  0  0  0
  189.6320  177.6830  144.7540 C   0  0  0  0  0  0  0  0  0  0  0  0
  185.9820  177.9230  144.3750 C   0  0  0  0  0  0  0  0  0  0  0  0
  183.8630  179.3980  143.2680 C   0  0  0  0  0  3  0  0  0  0  0  0
  184.9690  178.4520  145.2100 C   0  0  0  0  0  0  0  0  0  0  0  0
  183.9200  179.1860  144.6460 C   0  0  0  0  0  3  0  0  0  0  0  0
  184.8570  178.8740  142.4400 C   0  0  0  0  0  3  0  0  0  0  0  0
  184.9600  178.2500  146.9550 Cl  0  0  0  0  0  0  0  0  0  0  0  0
  185.9090  178.1420  142.9930 C   0  0  0  0  0  3  0  0  0  0  0  0
  189.5780  177.1560  140.4920 C   0  0  0  0  0  2  0  0  0  0  0  0
  190.9810  177.3170  139.9290 C   0  0  0  0  0  2  0  0  0  0  0  0
  191.1270  176.5330  138.6350 C   0  0  1  0  0  3  0  0  0  0  0  0
  190.3710  177.1410  137.6330 O   0  0  0  0  0  1  0  0  0  0  0  0
  192.5600  176.4580  138.2140 C   0  0  0  0  0  0  0  0  0  0  0  0
  193.4700  176.9030  138.9620 O   0  0  0  0  0  1  0  0  0  0  0  0
  192.8890  175.8800  136.9960 O   0  0  0  0  0  0  0  0  0  0  0  0
  1 12  1  6  0  0  0
  1  8  1  0  0  0  0
  2 11  1  0  0  0  0
  2  1  1  0  0  0  0
  4  3  1  0  0  0  0
  5  6  1  0  0  0  0
  5 11  2  0  0  0  0
  7  2  2  0  0  0  0
  8  3  1  0  0  0  0
  9  5  1  0  0  0  0
 10  9  2  0  0  0  0
 10  7  1  0  0  0  0
 11  4  1  0  0  0  0
 12 14  1  0  0  0  0
 13 15  1  0  0  0  0
 14 17  1  0  0  0  0
 15 14  2  0  0  0  0
 16 18  1  0  0  0  0
 16 13  2  0  0  0  0
 18 12  2  0  0  0  0
 19 10  1  0  0  0  0
 20 19  1  0  0  0  0
 21 22  1  6  0  0  0
 21 20  1  0  0  0  0
 23 21  1  0  0  0  0
 23 24  1  0  0  0  0
 25 23  2  0  0  0  0
M  END
>  <MODEL>
8

>  <REMARK>
 VINA RESULT:      -8.3      1.768      2.884
  Name = 
  5 active torsions:
  status: ('A' for Active; 'I' for Inactive)
    1  A    between atoms: C_1  and  C_5
    2  A    between atoms: C_2  and  C_21
    3  A    between atoms: C_6  and  C_15
    4  A    between atoms: C_6  and  C_23
    5  A    between atoms: C_15  and  C_21
                            x       y       z     vdW  Elec       q    Type
                         _______ _______ _______ _____ _____    ______ ____

>  <TORSDO>
F 5

$$$$
=
 OpenBabel10262419453D

 25 27  0  0  1  0  0  0  0  0999 V2000
  189.4320  178.2620  146.7270 C   0  0  1  0  0  3  0  0  0  0  0  0
  188.1230  178.1600  145.9760 C   0  0  0  0  0  0  0  0  0  0  0  0
  188.0790  177.9820  148.8430 C   0  0  0  0  0  2  0  0  0  0  0  0
  186.8220  178.4650  148.1320 C   0  0  0  0  0  2  0  0  0  0  0  0
  185.6890  178.0880  145.9200 C   0  0  0  0  0  0  0  0  0  0  0  0
  184.4580  178.1420  146.5610 O   0  0  0  0  0  1  0  0  0  0  0  0
  188.1480  177.9970  144.5850 C   0  0  0  0  0  3  0  0  0  0  0  0
  189.3040  178.6280  148.2100 C   0  0  0  0  0  2  0  0  0  0  0  0
  185.7310  177.9170  144.5340 C   0  0  0  0  0  3  0  0  0  0  0  0
  186.9570  177.8780  143.8660 C   0  0  0  0  0  0  0  0  0  0  0  0
  186.8830  178.2060  146.6520 C   0  0  0  0  0  0  0  0  0  0  0  0
  190.3940  177.1280  146.4840 C   0  0  0  0  0  0  0  0  0  0  0  0
  192.1110  174.9240  146.1870 C   0  0  0  0  0  3  0  0  0  0  0  0
  191.2040  177.0050  145.3290 C   0  0  0  0  0  0  0  0  0  0  0  0
  192.0560  175.9040  145.1940 C   0  0  0  0  0  3  0  0  0  0  0  0
  191.3110  175.0390  147.3250 C   0  0  0  0  0  3  0  0  0  0  0  0
  191.2130  178.1910  144.0320 Cl  0  0  0  0  0  0  0  0  0  0  0  0
  190.4590  176.1340  147.4700 C   0  0  0  0  0  3  0  0  0  0  0  0
  186.9950  177.6750  142.3910 C   0  0  0  0  0  2  0  0  0  0  0  0
  188.1760  178.4220  141.7940 C   0  0  0  0  0  2  0  0  0  0  0  0
  188.6810  177.7100  140.5490 C   0  0  1  0  0  3  0  0  0  0  0  0
  188.7670  178.6190  139.4950 O   0  0  0  0  0  1  0  0  0  0  0  0
  190.0190  177.0900  140.7940 C   0  0  0  0  0  0  0  0  0  0  0  0
  191.0380  177.5030  140.1780 O   0  0  0  0  0  0  0  0  0  0  0  0
  190.1420  176.0620  141.7180 O   0  0  0  0  0  1  0  0  0  0  0  0
  1 12  1  1  0  0  0
  1  8  1  0  0  0  0
  2 11  1  0  0  0  0
  2  1  1  0  0  0  0
  4  3  1  0  0  0  0
  5  6  1  0  0  0  0
  5 11  2  0  0  0  0
  7  2  2  0  0  0  0
  8  3  1  0  0  0  0
  9  5  1  0  0  0  0
 10  9  2  0  0  0  0
 10  7  1  0  0  0  0
 11  4  1  0  0  0  0
 12 18  1  0  0  0  0
 13 16  1  0  0  0  0
 14 12  2  0  0  0  0
 15 14  1  0  0  0  0
 15 13  2  0  0  0  0
 16 18  2  0  0  0  0
 17 14  1  0  0  0  0
 19 10  1  0  0  0  0
 20 19  1  0  0  0  0
 21 22  1  6  0  0  0
 21 23  1  0  0  0  0
 21 20  1  0  0  0  0
 23 25  1  0  0  0  0
 24 23  2  0  0  0  0
M  END
>  <MODEL>
9

>  <REMARK>
 VINA RESULT:      -8.2      2.426      4.962
  Name = 
  5 active torsions:
  status: ('A' for Active; 'I' for Inactive)
    1  A    between atoms: C_1  and  C_5
    2  A    between atoms: C_2  and  C_21
    3  A    between atoms: C_6  and  C_15
    4  A    between atoms: C_6  and  C_23
    5  A    between atoms: C_15  and  C_21
                            x       y       z     vdW  Elec       q    Type
                         _______ _______ _______ _____ _____    ______ ____

>  <TORSDO>
F 5

$$$$
