=
 OpenBabel10262419183D

 31 35  0  0  0  0  0  0  0  0999 V2000
  190.9120  177.2410  142.1370 C   0  0  0  0  0  0  0  0  0  0  0  0
  187.5220  178.0600  143.5780 C   0  0  0  0  0  0  0  0  0  0  0  0
  187.6470  177.9780  145.0100 C   0  0  0  0  0  0  0  0  0  0  0  0
  185.3550  178.8340  138.8310 O   0  0  0  0  0  0  0  0  0  0  0  0
  184.4670  179.0010  139.7090 C   0  0  0  0  0  0  0  0  0  0  0  0
  189.0050  176.8100  146.8020 C   0  0  0  0  0  2  0  0  0  0  0  0
  188.5970  177.8320  142.6590 C   0  0  0  0  0  0  0  0  0  0  0  0
  190.6590  177.3880  140.7750 C   0  0  0  0  0  3  0  0  0  0  0  0
  189.0050  177.8040  145.6530 C   0  0  0  0  0  2  0  0  0  0  0  0
  186.0760  178.5050  141.6380 C   0  0  0  0  0  0  0  0  0  0  0  0
  192.1490  176.8870  142.5620 F   0  0  0  0  0  0  0  0  0  0  0  0
  185.2710  178.4910  145.2340 C   0  0  0  0  0  3  0  0  0  0  0  0
  188.7640  177.5260  148.1300 C   0  0  0  0  0  2  0  0  0  0  0  0
  187.1280  178.2940  140.8090 N   0  0  0  0  0  0  0  0  0  0  0  0
  186.2480  178.3880  143.0280 C   0  0  0  0  0  0  0  0  0  0  0  0
  184.7900  178.8460  141.0980 N   0  0  0  0  0  2  0  0  0  0  0  0
  189.8910  177.4590  143.0630 C   0  0  0  0  0  3  0  0  0  0  0  0
  187.6570  178.5760  148.0460 C   0  0  0  0  0  2  0  0  0  0  0  0
  188.3580  177.9650  141.2670 C   0  0  0  0  0  0  0  0  0  0  0  0
  189.3830  177.7480  140.3420 C   0  0  0  0  0  3  0  0  0  0  0  0
  185.1500  178.5960  143.8610 C   0  0  0  0  0  3  0  0  0  0  0  0
  186.4940  178.1990  145.8250 C   0  0  0  0  0  0  0  0  0  0  0  0
  186.4430  178.0190  147.3220 C   0  0  0  0  0  2  0  0  0  0  0  0
  180.4880  180.1250  138.5450 C   0  0  0  0  0  0  0  0  0  0  0  0
  182.8380  180.6340  138.7880 C   0  0  0  0  0  3  0  0  0  0  0  0
  182.1770  177.1820  139.9740 O   0  0  0  0  0  1  0  0  0  0  0  0
  179.1180  180.5300  138.1370 C   0  0  0  0  0  1  0  0  0  0  0  0
  181.5510  181.0160  138.4040 C   0  0  0  0  0  3  0  0  0  0  0  0
  181.9990  178.4590  139.4560 C   0  0  0  0  0  0  0  0  0  0  0  0
  183.0830  179.3560  139.3180 C   0  0  0  0  0  0  0  0  0  0  0  0
  180.7120  178.8500  139.0690 C   0  0  0  0  0  3  0  0  0  0  0  0
  1 11  1  0  0  0  0
  1 17  1  0  0  0  0
  2  3  1  0  0  0  0
  3  9  1  0  0  0  0
  3 22  2  0  0  0  0
  4  5  2  0  0  0  0
  5 16  1  0  0  0  0
  6 13  1  0  0  0  0
  7 17  2  0  0  0  0
  7  2  1  0  0  0  0
  8  1  2  0  0  0  0
  9  6  1  0  0  0  0
 10 15  1  0  0  0  0
 12 22  1  0  0  0  0
 14 19  1  0  0  0  0
 14 10  2  0  0  0  0
 15  2  2  0  0  0  0
 15 21  1  0  0  0  0
 16 10  1  0  0  0  0
 18 13  1  0  0  0  0
 19  7  1  0  0  0  0
 20  8  1  0  0  0  0
 20 19  2  0  0  0  0
 21 12  2  0  0  0  0
 22 23  1  0  0  0  0
 23 18  1  0  0  0  0
 24 31  1  0  0  0  0
 25 30  2  0  0  0  0
 27 24  1  0  0  0  0
 28 24  2  0  0  0  0
 28 25  1  0  0  0  0
 29 26  1  0  0  0  0
 30 29  1  0  0  0  0
 30  5  1  0  0  0  0
 31 29  2  0  0  0  0
M  END
>  <MODEL>
1

>  <REMARK>
 VINA RESULT:     -11.5      0.000      0.000
  Name = 
  1 active torsions:
  status: ('A' for Active; 'I' for Inactive)
    1  A    between atoms: C_9  and  C_22
                            x       y       z     vdW  Elec       q    Type
                         _______ _______ _______ _____ _____    ______ ____

>  <TORSDO>
F 1

$$$$
=
 OpenBabel10262419183D

 31 35  0  0  0  0  0  0  0  0999 V2000
  191.6060  177.3340  141.1300 C   0  0  0  0  0  0  0  0  0  0  0  0
  189.0230  177.4540  143.8800 C   0  0  0  0  0  0  0  0  0  0  0  0
  189.7170  177.1990  145.1150 C   0  0  0  0  0  0  0  0  0  0  0  0
  185.0830  178.5380  140.5440 O   0  0  0  0  0  0  0  0  0  0  0  0
  184.6100  178.4560  141.7090 C   0  0  0  0  0  0  0  0  0  0  0  0
  191.7680  176.0090  146.0100 C   0  0  0  0  0  2  0  0  0  0  0  0
  189.6540  177.5090  142.5950 C   0  0  0  0  0  0  0  0  0  0  0  0
  190.8180  177.6250  140.0190 C   0  0  0  0  0  3  0  0  0  0  0  0
  191.2290  177.1370  145.1480 C   0  0  0  0  0  2  0  0  0  0  0  0
  186.8910  177.9430  142.7530 C   0  0  0  0  0  0  0  0  0  0  0  0
  192.9330  177.1080  140.9790 F   0  0  0  0  0  0  0  0  0  0  0  0
  187.5970  177.3280  146.3180 C   0  0  0  0  0  3  0  0  0  0  0  0
  192.0230  176.4970  147.4340 C   0  0  0  0  0  2  0  0  0  0  0  0
  187.5360  177.9990  141.5630 N   0  0  0  0  0  0  0  0  0  0  0  0
  187.6140  177.6650  143.9260 C   0  0  0  0  0  0  0  0  0  0  0  0
  185.4740  178.1640  142.8180 N   0  0  0  0  0  2  0  0  0  0  0  0
  191.0270  177.2760  142.3990 C   0  0  0  0  0  3  0  0  0  0  0  0
  190.8950  177.3780  147.9700 C   0  0  0  0  0  2  0  0  0  0  0  0
  188.8680  177.7920  141.4480 C   0  0  0  0  0  0  0  0  0  0  0  0
  189.4510  177.8520  140.1790 C   0  0  0  0  0  3  0  0  0  0  0  0
  186.9290  177.5990  145.1390 C   0  0  0  0  0  3  0  0  0  0  0  0
  188.9740  177.1390  146.3330 C   0  0  0  0  0  0  0  0  0  0  0  0
  189.5410  176.7540  147.6770 C   0  0  0  0  0  2  0  0  0  0  0  0
  180.3930  179.0140  142.3010 C   0  0  0  0  0  0  0  0  0  0  0  0
  182.2680  178.4570  140.8820 C   0  0  0  0  0  3  0  0  0  0  0  0
  183.4770  179.2550  144.2970 O   0  0  0  0  0  1  0  0  0  0  0  0
  178.9310  179.2010  142.4880 C   0  0  0  0  0  1  0  0  0  0  0  0
  180.8940  178.6330  141.0560 C   0  0  0  0  0  3  0  0  0  0  0  0
  182.6440  179.0420  143.2050 C   0  0  0  0  0  0  0  0  0  0  0  0
  183.1620  178.6570  141.9470 C   0  0  0  0  0  0  0  0  0  0  0  0
  181.2660  179.2170  143.3720 C   0  0  0  0  0  3  0  0  0  0  0  0
  1 17  1  0  0  0  0
  2 15  2  0  0  0  0
  2  3  1  0  0  0  0
  3  9  1  0  0  0  0
  3 22  2  0  0  0  0
  4  5  2  0  0  0  0
  5 30  1  0  0  0  0
  5 16  1  0  0  0  0
  6 13  1  0  0  0  0
  7  2  1  0  0  0  0
  8 20  1  0  0  0  0
  8  1  2  0  0  0  0
  9  6  1  0  0  0  0
 10 16  1  0  0  0  0
 10 15  1  0  0  0  0
 11  1  1  0  0  0  0
 12 22  1  0  0  0  0
 13 18  1  0  0  0  0
 14 10  2  0  0  0  0
 15 21  1  0  0  0  0
 17  7  2  0  0  0  0
 19 14  1  0  0  0  0
 19  7  1  0  0  0  0
 20 19  2  0  0  0  0
 21 12  2  0  0  0  0
 22 23  1  0  0  0  0
 23 18  1  0  0  0  0
 24 27  1  0  0  0  0
 24 31  1  0  0  0  0
 25 28  1  0  0  0  0
 25 30  2  0  0  0  0
 28 24  2  0  0  0  0
 29 31  2  0  0  0  0
 29 26  1  0  0  0  0
 30 29  1  0  0  0  0
M  END
>  <MODEL>
2

>  <REMARK>
 VINA RESULT:     -11.5      2.107      2.721
  Name = 
  1 active torsions:
  status: ('A' for Active; 'I' for Inactive)
    1  A    between atoms: C_9  and  C_22
                            x       y       z     vdW  Elec       q    Type
                         _______ _______ _______ _____ _____    ______ ____

>  <TORSDO>
F 1

$$$$
=
 OpenBabel10262419183D

 31 35  0  0  0  0  0  0  0  0999 V2000
  184.0270  178.9810  143.7700 C   0  0  0  0  0  0  0  0  0  0  0  0
  187.6100  177.8410  144.0950 C   0  0  0  0  0  0  0  0  0  0  0  0
  187.8940  177.7550  145.5030 C   0  0  0  0  0  0  0  0  0  0  0  0
  188.3060  177.5500  138.8740 O   0  0  0  0  0  0  0  0  0  0  0  0
  189.3880  177.2380  139.4400 C   0  0  0  0  0  0  0  0  0  0  0  0
  187.1820  178.7570  147.7190 C   0  0  0  0  0  2  0  0  0  0  0  0
  186.3430  178.2270  143.5480 C   0  0  0  0  0  0  0  0  0  0  0  0
  183.8800  178.9890  142.3860 C   0  0  0  0  0  3  0  0  0  0  0  0
  186.7860  177.9110  146.5210 C   0  0  0  0  0  2  0  0  0  0  0  0
  188.4210  177.5690  141.7880 C   0  0  0  0  0  0  0  0  0  0  0  0
  182.9880  179.3370  144.5640 F   0  0  0  0  0  0  0  0  0  0  0  0
  190.1920  177.1110  144.9880 C   0  0  0  0  0  3  0  0  0  0  0  0
  187.7250  177.8760  148.8420 C   0  0  0  0  0  2  0  0  0  0  0  0
  187.2000  177.9260  141.3200 N   0  0  0  0  0  0  0  0  0  0  0  0
  188.6510  177.5250  143.1730 C   0  0  0  0  0  0  0  0  0  0  0  0
  189.4770  177.2370  140.8720 N   0  0  0  0  0  2  0  0  0  0  0  0
  185.2450  178.6070  144.3400 C   0  0  0  0  0  3  0  0  0  0  0  0
  188.6800  176.7950  148.3380 C   0  0  0  0  0  2  0  0  0  0  0  0
  186.1750  178.2530  142.1400 C   0  0  0  0  0  0  0  0  0  0  0  0
  184.9530  178.6260  141.5730 C   0  0  0  0  0  3  0  0  0  0  0  0
  189.9170  177.1670  143.6340 C   0  0  0  0  0  3  0  0  0  0  0  0
  189.2070  177.3850  145.9290 C   0  0  0  0  0  0  0  0  0  0  0  0
  189.6850  177.3790  147.3590 C   0  0  0  0  0  2  0  0  0  0  0  0
  192.7720  176.1430  137.0330 C   0  0  0  0  0  0  0  0  0  0  0  0
  190.3850  176.3630  137.3400 C   0  0  0  0  0  3  0  0  0  0  0  0
  192.1510  177.5030  140.3970 O   0  0  0  0  0  1  0  0  0  0  0  0
  193.9320  175.7610  136.1860 C   0  0  0  0  0  1  0  0  0  0  0  0
  191.4740  176.0030  136.5430 C   0  0  0  0  0  3  0  0  0  0  0  0
  191.8970  177.0090  139.1230 C   0  0  0  0  0  0  0  0  0  0  0  0
  190.5770  176.8700  138.6360 C   0  0  0  0  0  0  0  0  0  0  0  0
  192.9820  176.6450  138.3190 C   0  0  0  0  0  3  0  0  0  0  0  0
  1 17  1  0  0  0  0
  1 11  1  0  0  0  0
  2  3  1  0  0  0  0
  3 22  2  0  0  0  0
  3  9  1  0  0  0  0
  4  5  2  0  0  0  0
  5 16  1  0  0  0  0
  6 13  1  0  0  0  0
  7  2  1  0  0  0  0
  7 17  2  0  0  0  0
  8  1  2  0  0  0  0
  9  6  1  0  0  0  0
 10 15  1  0  0  0  0
 12 22  1  0  0  0  0
 14 10  2  0  0  0  0
 14 19  1  0  0  0  0
 15 21  1  0  0  0  0
 15  2  2  0  0  0  0
 16 10  1  0  0  0  0
 18 13  1  0  0  0  0
 19  7  1  0  0  0  0
 20 19  2  0  0  0  0
 20  8  1  0  0  0  0
 21 12  2  0  0  0  0
 22 23  1  0  0  0  0
 23 18  1  0  0  0  0
 24 31  1  0  0  0  0
 25 30  2  0  0  0  0
 27 24  1  0  0  0  0
 28 24  2  0  0  0  0
 28 25  1  0  0  0  0
 29 26  1  0  0  0  0
 30 29  1  0  0  0  0
 30  5  1  0  0  0  0
 31 29  2  0  0  0  0
M  END
>  <MODEL>
3

>  <REMARK>
 VINA RESULT:     -11.3      3.233      6.863
  Name = 
  1 active torsions:
  status: ('A' for Active; 'I' for Inactive)
    1  A    between atoms: C_9  and  C_22
                            x       y       z     vdW  Elec       q    Type
                         _______ _______ _______ _____ _____    ______ ____

>  <TORSDO>
F 1

$$$$
=
 OpenBabel10262419183D

 31 35  0  0  0  0  0  0  0  0999 V2000
  186.1410  178.2620  146.8040 C   0  0  0  0  0  0  0  0  0  0  0  0
  187.0620  178.1410  143.1460 C   0  0  0  0  0  0  0  0  0  0  0  0
  188.4720  177.8610  143.0800 C   0  0  0  0  0  0  0  0  0  0  0  0
  182.1230  179.1010  141.5620 O   0  0  0  0  0  0  0  0  0  0  0  0
  182.8580  179.0020  140.5430 C   0  0  0  0  0  0  0  0  0  0  0  0
  190.6020  178.1600  144.4200 C   0  0  0  0  0  2  0  0  0  0  0  0
  186.3160  178.2540  144.3640 C   0  0  0  0  0  0  0  0  0  0  0  0
  184.7720  178.5030  146.7210 C   0  0  0  0  0  3  0  0  0  0  0  0
  189.2410  177.4920  144.3300 C   0  0  0  0  0  2  0  0  0  0  0  0
  184.9670  178.5730  141.9300 C   0  0  0  0  0  0  0  0  0  0  0  0
  186.7370  178.1450  148.0160 F   0  0  0  0  0  0  0  0  0  0  0  0
  188.3750  178.0090  140.6460 C   0  0  0  0  0  3  0  0  0  0  0  0
  191.6810  177.2640  143.8140 C   0  0  0  0  0  2  0  0  0  0  0  0
  184.3030  178.6560  143.1090 N   0  0  0  0  0  0  0  0  0  0  0  0
  186.3500  178.3220  141.9240 C   0  0  0  0  0  0  0  0  0  0  0  0
  184.2610  178.7420  140.6910 N   0  0  0  0  0  2  0  0  0  0  0  0
  186.9000  178.1430  145.6390 C   0  0  0  0  0  3  0  0  0  0  0  0
  191.2460  176.6190  142.4990 C   0  0  0  0  0  2  0  0  0  0  0  0
  184.9230  178.5100  144.3030 C   0  0  0  0  0  0  0  0  0  0  0  0
  184.1660  178.6280  145.4720 C   0  0  0  0  0  3  0  0  0  0  0  0
  187.0160  178.2530  140.7020 C   0  0  0  0  0  3  0  0  0  0  0  0
  189.1130  177.8000  141.8040 C   0  0  0  0  0  0  0  0  0  0  0  0
  190.5970  177.6460  141.5860 C   0  0  0  0  0  2  0  0  0  0  0  0
  181.1740  179.5380  136.6290 C   0  0  0  0  0  0  0  0  0  0  0  0
  181.7720  180.4040  138.8040 C   0  0  0  0  0  3  0  0  0  0  0  0
  182.7200  176.8250  138.5780 O   0  0  0  0  0  1  0  0  0  0  0  0
  180.5890  179.7410  135.2780 C   0  0  0  0  0  1  0  0  0  0  0  0
  181.2220  180.5970  137.5350 C   0  0  0  0  0  3  0  0  0  0  0  0
  182.2310  178.0860  138.2590 C   0  0  0  0  0  0  0  0  0  0  0  0
  182.2840  179.1520  139.1860 C   0  0  0  0  0  0  0  0  0  0  0  0
  181.6780  178.2870  136.9900 C   0  0  0  0  0  3  0  0  0  0  0  0
  1 11  1  0  0  0  0
  2  7  1  0  0  0  0
  3  2  1  0  0  0  0
  3  9  1  0  0  0  0
  5 16  1  0  0  0  0
  5  4  2  0  0  0  0
  7 17  1  0  0  0  0
  8  1  1  0  0  0  0
  9  6  1  0  0  0  0
 10 14  2  0  0  0  0
 12 21  2  0  0  0  0
 12 22  1  0  0  0  0
 13  6  1  0  0  0  0
 14 19  1  0  0  0  0
 15 10  1  0  0  0  0
 15  2  2  0  0  0  0
 16 10  1  0  0  0  0
 17  1  2  0  0  0  0
 18 13  1  0  0  0  0
 19  7  2  0  0  0  0
 19 20  1  0  0  0  0
 20  8  2  0  0  0  0
 21 15  1  0  0  0  0
 22  3  2  0  0  0  0
 23 22  1  0  0  0  0
 23 18  1  0  0  0  0
 24 31  2  0  0  0  0
 24 28  1  0  0  0  0
 25 30  1  0  0  0  0
 27 24  1  0  0  0  0
 28 25  2  0  0  0  0
 29 26  1  0  0  0  0
 29 30  2  0  0  0  0
 30  5  1  0  0  0  0
 31 29  1  0  0  0  0
M  END
>  <MODEL>
4

>  <REMARK>
 VINA RESULT:     -10.4      2.043      4.222
  Name = 
  1 active torsions:
  status: ('A' for Active; 'I' for Inactive)
    1  A    between atoms: C_9  and  C_22
                            x       y       z     vdW  Elec       q    Type
                         _______ _______ _______ _____ _____    ______ ____

>  <TORSDO>
F 1

$$$$
=
 OpenBabel10262419183D

 31 35  0  0  0  0  0  0  0  0999 V2000
  188.9560  177.5830  147.5800 C   0  0  0  0  0  0  0  0  0  0  0  0
  187.5190  177.8760  144.1030 C   0  0  0  0  0  0  0  0  0  0  0  0
  186.1360  178.2490  144.2530 C   0  0  0  0  0  0  0  0  0  0  0  0
  192.0930  176.6430  141.7820 O   0  0  0  0  0  0  0  0  0  0  0  0
  191.2240  176.8210  140.8870 C   0  0  0  0  0  0  0  0  0  0  0  0
  184.2110  178.0490  145.8890 C   0  0  0  0  0  2  0  0  0  0  0  0
  188.4250  177.6770  145.1940 C   0  0  0  0  0  0  0  0  0  0  0  0
  190.2780  177.2560  147.2890 C   0  0  0  0  0  3  0  0  0  0  0  0
  185.5870  178.6290  145.6110 C   0  0  0  0  0  2  0  0  0  0  0  0
  189.3770  177.3450  142.5810 C   0  0  0  0  0  0  0  0  0  0  0  0
  188.5550  177.7020  148.8690 F   0  0  0  0  0  0  0  0  0  0  0  0
  185.8640  178.1690  141.8290 C   0  0  0  0  0  3  0  0  0  0  0  0
  183.1200  179.0320  145.4680 C   0  0  0  0  0  2  0  0  0  0  0  0
  190.1990  177.1830  143.6460 N   0  0  0  0  0  0  0  0  0  0  0  0
  188.0290  177.6860  142.7850 C   0  0  0  0  0  0  0  0  0  0  0  0
  189.8790  177.1670  141.2470 N   0  0  0  0  0  2  0  0  0  0  0  0
  188.0440  177.7870  146.5440 C   0  0  0  0  0  3  0  0  0  0  0  0
  183.4000  179.6870  144.1170 C   0  0  0  0  0  2  0  0  0  0  0  0
  189.7740  177.3320  144.9210 C   0  0  0  0  0  0  0  0  0  0  0  0
  190.6840  177.1300  145.9620 C   0  0  0  0  0  3  0  0  0  0  0  0
  187.1970  177.8350  141.6770 C   0  0  0  0  0  3  0  0  0  0  0  0
  185.3210  178.3900  143.0890 C   0  0  0  0  0  0  0  0  0  0  0  0
  183.8350  178.6470  143.0970 C   0  0  0  0  0  2  0  0  0  0  0  0
  192.1580  176.3780  136.7180 C   0  0  0  0  0  0  0  0  0  0  0  0
  190.5640  176.3720  138.5350 C   0  0  0  0  0  3  0  0  0  0  0  0
  193.9520  177.1280  139.8430 O   0  0  0  0  0  1  0  0  0  0  0  0
  192.4620  176.2220  135.2720 C   0  0  0  0  0  1  0  0  0  0  0  0
  190.8490  176.2250  137.1760 C   0  0  0  0  0  3  0  0  0  0  0  0
  192.9030  176.8290  138.9820 C   0  0  0  0  0  0  0  0  0  0  0  0
  191.5810  176.6750  139.4560 C   0  0  0  0  0  0  0  0  0  0  0  0
  193.1810  176.6790  137.6190 C   0  0  0  0  0  3  0  0  0  0  0  0
  1 11  1  0  0  0  0
  2  3  1  0  0  0  0
  2  7  1  0  0  0  0
  3  9  1  0  0  0  0
  5 16  1  0  0  0  0
  5  4  2  0  0  0  0
  7 17  1  0  0  0  0
  8  1  1  0  0  0  0
  9  6  1  0  0  0  0
 10 15  1  0  0  0  0
 10 14  2  0  0  0  0
 12 22  1  0  0  0  0
 13  6  1  0  0  0  0
 14 19  1  0  0  0  0
 15  2  2  0  0  0  0
 16 10  1  0  0  0  0
 17  1  2  0  0  0  0
 18 13  1  0  0  0  0
 19  7  2  0  0  0  0
 19 20  1  0  0  0  0
 20  8  2  0  0  0  0
 21 12  2  0  0  0  0
 21 15  1  0  0  0  0
 22 23  1  0  0  0  0
 22  3  2  0  0  0  0
 23 18  1  0  0  0  0
 24 28  2  0  0  0  0
 24 31  1  0  0  0  0
 25 30  2  0  0  0  0
 27 24  1  0  0  0  0
 28 25  1  0  0  0  0
 29 30  1  0  0  0  0
 29 26  1  0  0  0  0
 30  5  1  0  0  0  0
 31 29  2  0  0  0  0
M  END
>  <MODEL>
5

>  <REMARK>
 VINA RESULT:     -10.2      3.933      7.180
  Name = 
  1 active torsions:
  status: ('A' for Active; 'I' for Inactive)
    1  A    between atoms: C_9  and  C_22
                            x       y       z     vdW  Elec       q    Type
                         _______ _______ _______ _____ _____    ______ ____

>  <TORSDO>
F 1

$$$$
=
 OpenBabel10262419183D

 31 35  0  0  0  0  0  0  0  0999 V2000
  186.4090  178.2640  146.9670 C   0  0  0  0  0  0  0  0  0  0  0  0
  187.0030  178.1490  143.2420 C   0  0  0  0  0  0  0  0  0  0  0  0
  188.4080  177.8990  143.0500 C   0  0  0  0  0  0  0  0  0  0  0  0
  181.9230  179.0010  142.1010 O   0  0  0  0  0  0  0  0  0  0  0  0
  182.5670  178.9140  141.0220 C   0  0  0  0  0  0  0  0  0  0  0  0
  190.6420  178.2480  144.1950 C   0  0  0  0  0  2  0  0  0  0  0  0
  186.3670  178.2510  144.5210 C   0  0  0  0  0  0  0  0  0  0  0  0
  185.0330  178.4750  147.0050 C   0  0  0  0  0  3  0  0  0  0  0  0
  189.2920  177.5510  144.2280 C   0  0  0  0  0  2  0  0  0  0  0  0
  184.8000  178.5330  142.2160 C   0  0  0  0  0  0  0  0  0  0  0  0
  187.1120  178.1640  148.1200 F   0  0  0  0  0  0  0  0  0  0  0  0
  188.0910  178.0370  140.6340 C   0  0  0  0  0  3  0  0  0  0  0  0
  191.6800  177.3720  143.4970 C   0  0  0  0  0  2  0  0  0  0  0  0
  184.2420  178.6060  143.4490 N   0  0  0  0  0  0  0  0  0  0  0  0
  186.1810  178.3110  142.0870 C   0  0  0  0  0  0  0  0  0  0  0  0
  183.9830  178.6840  141.0440 N   0  0  0  0  0  2  0  0  0  0  0  0
  187.0640  178.1560  145.7390 C   0  0  0  0  0  3  0  0  0  0  0  0
  191.1440  176.7140  142.2260 C   0  0  0  0  0  2  0  0  0  0  0  0
  184.9680  178.4780  144.5830 C   0  0  0  0  0  0  0  0  0  0  0  0
  184.3150  178.5840  145.8150 C   0  0  0  0  0  3  0  0  0  0  0  0
  186.7370  178.2520  140.8100 C   0  0  0  0  0  3  0  0  0  0  0  0
  188.9330  177.8480  141.7230 C   0  0  0  0  0  0  0  0  0  0  0  0
  190.3950  177.7240  141.3730 C   0  0  0  0  0  2  0  0  0  0  0  0
  180.4870  179.2250  137.2760 C   0  0  0  0  0  0  0  0  0  0  0  0
  180.7930  178.1910  139.4400 C   0  0  0  0  0  3  0  0  0  0  0  0
  183.3080  180.8770  138.9680 O   0  0  0  0  0  1  0  0  0  0  0  0
  179.7560  179.3190  135.9870 C   0  0  0  0  0  1  0  0  0  0  0  0
  180.1050  178.2790  138.2280 C   0  0  0  0  0  3  0  0  0  0  0  0
  182.2500  180.0030  138.7500 C   0  0  0  0  0  0  0  0  0  0  0  0
  181.8710  179.0470  139.7200 C   0  0  0  0  0  0  0  0  0  0  0  0
  181.5560  180.0840  137.5380 C   0  0  0  0  0  3  0  0  0  0  0  0
  1  8  1  0  0  0  0
  1 11  1  0  0  0  0
  2  7  1  0  0  0  0
  3  2  1  0  0  0  0
  3  9  1  0  0  0  0
  5 16  1  0  0  0  0
  5  4  2  0  0  0  0
  6  9  1  0  0  0  0
  7 19  2  0  0  0  0
  7 17  1  0  0  0  0
 10 14  2  0  0  0  0
 12 21  2  0  0  0  0
 12 22  1  0  0  0  0
 13  6  1  0  0  0  0
 14 19  1  0  0  0  0
 15 10  1  0  0  0  0
 15  2  2  0  0  0  0
 16 10  1  0  0  0  0
 17  1  2  0  0  0  0
 18 13  1  0  0  0  0
 19 20  1  0  0  0  0
 20  8  2  0  0  0  0
 21 15  1  0  0  0  0
 22  3  2  0  0  0  0
 23 22  1  0  0  0  0
 23 18  1  0  0  0  0
 24 31  2  0  0  0  0
 24 28  1  0  0  0  0
 25 30  1  0  0  0  0
 27 24  1  0  0  0  0
 28 25  2  0  0  0  0
 29 26  1  0  0  0  0
 29 30  2  0  0  0  0
 30  5  1  0  0  0  0
 31 29  1  0  0  0  0
M  END
>  <MODEL>
6

>  <REMARK>
 VINA RESULT:     -10.0      2.045      4.370
  Name = 
  1 active torsions:
  status: ('A' for Active; 'I' for Inactive)
    1  A    between atoms: C_9  and  C_22
                            x       y       z     vdW  Elec       q    Type
                         _______ _______ _______ _____ _____    ______ ____

>  <TORSDO>
F 1

$$$$
=
 OpenBabel10262419183D

 31 35  0  0  0  0  0  0  0  0999 V2000
  190.8060  177.0280  145.8740 C   0  0  0  0  0  0  0  0  0  0  0  0
  189.0260  177.5930  142.5950 C   0  0  0  0  0  0  0  0  0  0  0  0
  190.0170  177.4820  141.5570 C   0  0  0  0  0  0  0  0  0  0  0  0
  184.3320  178.2540  144.9110 O   0  0  0  0  0  0  0  0  0  0  0  0
  184.1890  178.3980  143.6670 C   0  0  0  0  0  0  0  0  0  0  0  0
  192.5020  177.7930  141.1700 C   0  0  0  0  0  2  0  0  0  0  0  0
  189.2950  177.4290  143.9920 C   0  0  0  0  0  0  0  0  0  0  0  0
  189.7430  177.1290  146.7690 C   0  0  0  0  0  3  0  0  0  0  0  0
  191.4160  177.0040  141.8810 C   0  0  0  0  0  2  0  0  0  0  0  0
  186.6700  177.9840  143.1880 C   0  0  0  0  0  0  0  0  0  0  0  0
  192.0570  176.7840  146.3330 F   0  0  0  0  0  0  0  0  0  0  0  0
  188.3140  178.0060  139.8890 C   0  0  0  0  0  3  0  0  0  0  0  0
  192.8680  177.1270  139.8450 C   0  0  0  0  0  2  0  0  0  0  0  0
  186.9730  177.8050  144.4970 N   0  0  0  0  0  0  0  0  0  0  0  0
  187.6820  177.8890  142.2180 C   0  0  0  0  0  0  0  0  0  0  0  0
  185.3200  178.2720  142.7930 N   0  0  0  0  0  2  0  0  0  0  0  0
  190.5810  177.1790  144.5050 C   0  0  0  0  0  3  0  0  0  0  0  0
  191.6450  176.6580  139.0590 C   0  0  0  0  0  2  0  0  0  0  0  0
  188.2300  177.5390  144.9210 C   0  0  0  0  0  0  0  0  0  0  0  0
  188.4580  177.3860  146.2920 C   0  0  0  0  0  3  0  0  0  0  0  0
  187.3520  178.0890  140.8790 C   0  0  0  0  0  3  0  0  0  0  0  0
  189.6320  177.6960  140.1980 C   0  0  0  0  0  0  0  0  0  0  0  0
  190.5800  177.7410  139.0250 C   0  0  0  0  0  2  0  0  0  0  0  0
  180.2880  179.2890  142.1050 C   0  0  0  0  0  0  0  0  0  0  0  0
  181.7990  179.0030  143.9700 C   0  0  0  0  0  3  0  0  0  0  0  0
  183.6110  178.4060  140.7880 O   0  0  0  0  0  1  0  0  0  0  0  0
  178.9330  179.6000  141.5810 C   0  0  0  0  0  1  0  0  0  0  0  0
  180.5250  179.2960  143.4790 C   0  0  0  0  0  3  0  0  0  0  0  0
  182.6070  178.6970  141.7030 C   0  0  0  0  0  0  0  0  0  0  0  0
  182.8560  178.7010  143.0950 C   0  0  0  0  0  0  0  0  0  0  0  0
  181.3270  178.9910  141.2200 C   0  0  0  0  0  3  0  0  0  0  0  0
  1 11  1  0  0  0  0
  1  8  1  0  0  0  0
  2  7  1  0  0  0  0
  3  9  1  0  0  0  0
  3  2  2  0  0  0  0
  5  4  2  0  0  0  0
  6  9  1  0  0  0  0
  7 17  1  0  0  0  0
  7 19  2  0  0  0  0
 10 14  2  0  0  0  0
 12 22  2  0  0  0  0
 12 21  1  0  0  0  0
 13  6  1  0  0  0  0
 14 19  1  0  0  0  0
 15  2  1  0  0  0  0
 15 10  1  0  0  0  0
 16 10  1  0  0  0  0
 16  5  1  0  0  0  0
 17  1  2  0  0  0  0
 18 13  1  0  0  0  0
 19 20  1  0  0  0  0
 20  8  2  0  0  0  0
 21 15  2  0  0  0  0
 22  3  1  0  0  0  0
 23 18  1  0  0  0  0
 23 22  1  0  0  0  0
 24 28  1  0  0  0  0
 26 29  1  0  0  0  0
 27 24  1  0  0  0  0
 28 25  2  0  0  0  0
 29 30  2  0  0  0  0
 30  5  1  0  0  0  0
 30 25  1  0  0  0  0
 31 29  1  0  0  0  0
 31 24  2  0  0  0  0
M  END
>  <MODEL>
7

>  <REMARK>
 VINA RESULT:      -9.8      2.307      4.973
  Name = 
  1 active torsions:
  status: ('A' for Active; 'I' for Inactive)
    1  A    between atoms: C_9  and  C_22
                            x       y       z     vdW  Elec       q    Type
                         _______ _______ _______ _____ _____    ______ ____

>  <TORSDO>
F 1

$$$$
=
 OpenBabel10262419183D

 31 35  0  0  0  0  0  0  0  0999 V2000
  186.7930  178.0610  147.1520 C   0  0  0  0  0  0  0  0  0  0  0  0
  186.9950  178.1200  143.3840 C   0  0  0  0  0  0  0  0  0  0  0  0
  188.3730  177.8850  143.0370 C   0  0  0  0  0  0  0  0  0  0  0  0
  181.8250  179.0010  142.8190 O   0  0  0  0  0  0  0  0  0  0  0  0
  182.3520  178.9660  141.6750 C   0  0  0  0  0  0  0  0  0  0  0  0
  190.7140  178.1910  143.9580 C   0  0  0  0  0  2  0  0  0  0  0  0
  186.4960  178.1600  144.7260 C   0  0  0  0  0  0  0  0  0  0  0  0
  185.4290  178.2650  147.3430 C   0  0  0  0  0  3  0  0  0  0  0  0
  189.3750  177.4870  144.0980 C   0  0  0  0  0  2  0  0  0  0  0  0
  184.6970  178.5410  142.6120 C   0  0  0  0  0  0  0  0  0  0  0  0
  187.6120  177.9110  148.2210 F   0  0  0  0  0  0  0  0  0  0  0  0
  187.8060  178.1320  140.6750 C   0  0  0  0  0  3  0  0  0  0  0  0
  191.6740  177.3520  143.1160 C   0  0  0  0  0  2  0  0  0  0  0  0
  184.2710  178.5550  143.8990 N   0  0  0  0  0  0  0  0  0  0  0  0
  186.0580  178.3310  142.3300 C   0  0  0  0  0  0  0  0  0  0  0  0
  183.7630  178.7420  141.5400 N   0  0  0  0  0  2  0  0  0  0  0  0
  187.3160  178.0130  145.8590 C   0  0  0  0  0  3  0  0  0  0  0  0
  191.0080  176.7510  141.8790 C   0  0  0  0  0  2  0  0  0  0  0  0
  185.1110  178.3780  144.9440 C   0  0  0  0  0  0  0  0  0  0  0  0
  184.5910  178.4240  146.2400 C   0  0  0  0  0  3  0  0  0  0  0  0
  186.4780  178.3330  141.0010 C   0  0  0  0  0  3  0  0  0  0  0  0
  188.7570  177.8970  141.6610 C   0  0  0  0  0  0  0  0  0  0  0  0
  190.1750  177.7960  141.1560 C   0  0  0  0  0  2  0  0  0  0  0  0
  180.0140  179.4480  138.1050 C   0  0  0  0  0  0  0  0  0  0  0  0
  181.8480  178.4280  139.3030 C   0  0  0  0  0  3  0  0  0  0  0  0
  180.0550  180.7890  141.5340 O   0  0  0  0  0  1  0  0  0  0  0  0
  179.2150  179.6020  136.8620 C   0  0  0  0  0  1  0  0  0  0  0  0
  181.0990  178.5720  138.1340 C   0  0  0  0  0  3  0  0  0  0  0  0
  180.4240  180.0410  140.4220 C   0  0  0  0  0  0  0  0  0  0  0  0
  181.5250  179.1560  140.4610 C   0  0  0  0  0  0  0  0  0  0  0  0
  179.6780  180.1800  139.2460 C   0  0  0  0  0  3  0  0  0  0  0  0
  1  8  1  0  0  0  0
  1 11  1  0  0  0  0
  2  7  1  0  0  0  0
  3  2  1  0  0  0  0
  3  9  1  0  0  0  0
  5  4  2  0  0  0  0
  6  9  1  0  0  0  0
  7 19  2  0  0  0  0
  7 17  1  0  0  0  0
 10 14  2  0  0  0  0
 12 21  2  0  0  0  0
 12 22  1  0  0  0  0
 13  6  1  0  0  0  0
 14 19  1  0  0  0  0
 15 10  1  0  0  0  0
 15  2  2  0  0  0  0
 16  5  1  0  0  0  0
 16 10  1  0  0  0  0
 17  1  2  0  0  0  0
 18 13  1  0  0  0  0
 19 20  1  0  0  0  0
 20  8  2  0  0  0  0
 21 15  1  0  0  0  0
 22  3  2  0  0  0  0
 23 22  1  0  0  0  0
 23 18  1  0  0  0  0
 24 28  2  0  0  0  0
 24 31  1  0  0  0  0
 25 30  2  0  0  0  0
 27 24  1  0  0  0  0
 28 25  1  0  0  0  0
 29 30  1  0  0  0  0
 29 26  1  0  0  0  0
 30  5  1  0  0  0  0
 31 29  2  0  0  0  0
M  END
>  <MODEL>
8

>  <REMARK>
 VINA RESULT:      -9.8      2.224      4.398
  Name = 
  1 active torsions:
  status: ('A' for Active; 'I' for Inactive)
    1  A    between atoms: C_9  and  C_22
                            x       y       z     vdW  Elec       q    Type
                         _______ _______ _______ _____ _____    ______ ____

>  <TORSDO>
F 1

$$$$
=
 OpenBabel10262419183D

 31 35  0  0  0  0  0  0  0  0999 V2000
  185.3670  178.4100  146.4840 C   0  0  0  0  0  0  0  0  0  0  0  0
  184.2630  178.5840  142.8790 C   0  0  0  0  0  0  0  0  0  0  0  0
  182.8510  178.8660  142.8880 C   0  0  0  0  0  0  0  0  0  0  0  0
  189.1140  177.6430  141.0330 O   0  0  0  0  0  0  0  0  0  0  0  0
  188.3280  177.7580  140.0540 C   0  0  0  0  0  0  0  0  0  0  0  0
  180.7910  178.5480  144.3300 C   0  0  0  0  0  2  0  0  0  0  0  0
  185.0690  178.4530  144.0560 C   0  0  0  0  0  0  0  0  0  0  0  0
  186.7300  178.1700  146.3280 C   0  0  0  0  0  3  0  0  0  0  0  0
  182.1470  179.2170  144.1810 C   0  0  0  0  0  2  0  0  0  0  0  0
  186.2930  178.1680  141.5530 C   0  0  0  0  0  0  0  0  0  0  0  0
  184.8340  178.5100  147.7250 F   0  0  0  0  0  0  0  0  0  0  0  0
  182.8250  178.7530  140.4500 C   0  0  0  0  0  3  0  0  0  0  0  0
  179.6850  179.4540  143.7920 C   0  0  0  0  0  2  0  0  0  0  0  0
  187.0150  178.0680  142.6950 N   0  0  0  0  0  0  0  0  0  0  0  0
  184.9120  178.4200  141.6200 C   0  0  0  0  0  0  0  0  0  0  0  0
  186.9340  178.0160  140.2770 N   0  0  0  0  0  2  0  0  0  0  0  0
  184.5500  178.5470  145.3600 C   0  0  0  0  0  3  0  0  0  0  0  0
  180.0530  180.1170  142.4660 C   0  0  0  0  0  2  0  0  0  0  0  0
  186.4570  178.1970  143.9210 C   0  0  0  0  0  0  0  0  0  0  0  0
  187.2720  178.0620  145.0480 C   0  0  0  0  0  3  0  0  0  0  0  0
  184.1850  178.5070  140.4340 C   0  0  0  0  0  3  0  0  0  0  0  0
  182.1470  178.9450  141.6480 C   0  0  0  0  0  0  0  0  0  0  0  0
  180.6530  179.1030  141.5070 C   0  0  0  0  0  2  0  0  0  0  0  0
  189.7190  177.4460  136.0030 C   0  0  0  0  0  0  0  0  0  0  0  0
  188.2190  178.3790  137.6520 C   0  0  0  0  0  3  0  0  0  0  0  0
  190.5530  176.0030  139.2850 O   0  0  0  0  0  1  0  0  0  0  0  0
  190.1880  177.3510  134.5960 C   0  0  0  0  0  1  0  0  0  0  0  0
  188.6590  178.2910  136.3300 C   0  0  0  0  0  3  0  0  0  0  0  0
  189.9070  176.7730  138.3260 C   0  0  0  0  0  0  0  0  0  0  0  0
  188.8330  177.6260  138.6670 C   0  0  0  0  0  0  0  0  0  0  0  0
  190.3410  176.6900  136.9990 C   0  0  0  0  0  3  0  0  0  0  0  0
  1 11  1  0  0  0  0
  2  3  1  0  0  0  0
  2  7  1  0  0  0  0
  3  9  1  0  0  0  0
  5 16  1  0  0  0  0
  5  4  2  0  0  0  0
  7 17  1  0  0  0  0
  8  1  1  0  0  0  0
  9  6  1  0  0  0  0
 10 15  1  0  0  0  0
 10 14  2  0  0  0  0
 12 22  1  0  0  0  0
 13  6  1  0  0  0  0
 14 19  1  0  0  0  0
 15  2  2  0  0  0  0
 16 10  1  0  0  0  0
 17  1  2  0  0  0  0
 18 13  1  0  0  0  0
 19  7  2  0  0  0  0
 19 20  1  0  0  0  0
 20  8  2  0  0  0  0
 21 12  2  0  0  0  0
 21 15  1  0  0  0  0
 22  3  2  0  0  0  0
 23 22  1  0  0  0  0
 23 18  1  0  0  0  0
 24 28  2  0  0  0  0
 24 31  1  0  0  0  0
 25 30  2  0  0  0  0
 27 24  1  0  0  0  0
 28 25  1  0  0  0  0
 29 30  1  0  0  0  0
 29 26  1  0  0  0  0
 30  5  1  0  0  0  0
 31 29  2  0  0  0  0
M  END
>  <MODEL>
9

>  <REMARK>
 VINA RESULT:      -9.4      3.296      6.834
  Name = 
  1 active torsions:
  status: ('A' for Active; 'I' for Inactive)
    1  A    between atoms: C_9  and  C_22
                            x       y       z     vdW  Elec       q    Type
                         _______ _______ _______ _____ _____    ______ ____

>  <TORSDO>
F 1

$$$$
