=
 OpenBabel10262420043D

 27 31  0  0  1  0  0  0  0  0999 V2000
  190.8500  178.7160  143.8500 C   0  0  0  0  0  2  0  0  0  0  0  0
  188.4860  177.9730  144.4010 C   0  0  0  0  0  0  0  0  0  0  0  0
  188.5660  178.3170  141.8410 C   0  0  0  0  0  2  0  0  0  0  0  0
  183.9380  178.2750  144.1600 S   0  0  0  0  0  0  0  0  0  0  0  0
  183.2590  178.2420  141.6070 O   0  0  0  0  0  0  0  0  0  0  0  0
  187.6860  177.8470  145.5540 C   0  0  0  0  0  3  0  0  0  0  0  0
  185.6000  178.4860  141.9070 C   0  0  1  0  0  3  0  0  0  0  0  0
  190.7690  175.7240  138.6880 O   0  0  0  0  0  0  0  0  0  0  0  0
  185.7990  179.8260  141.3790 N   0  0  0  0  0  1  0  0  0  0  0  0
  190.6200  176.3680  139.7590 C   0  0  0  0  0  0  0  0  0  0  0  0
  186.4340  178.2890  143.1310 C   0  0  0  0  0  0  0  0  0  0  0  0
  189.9160  177.8200  144.5370 N   0  0  0  0  0  0  0  0  0  0  0  0
  184.1910  178.3440  142.3860 C   0  0  0  0  0  0  0  0  0  0  0  0
  185.7100  178.1640  144.3060 C   0  0  0  0  0  0  0  0  0  0  0  0
  191.6910  177.9470  142.8320 C   0  0  0  0  0  2  0  0  0  0  0  0
  187.8360  178.1800  143.1480 C   0  0  0  0  0  0  0  0  0  0  0  0
  189.3630  176.5120  140.3900 N   0  0  0  0  0  2  0  0  0  0  0  0
  186.3330  177.9420  145.4880 N   0  0  0  0  0  0  0  0  0  0  0  0
  191.7270  177.0380  140.4740 C   0  0  0  0  0  2  0  0  0  0  0  0
  190.9650  177.8660  141.5010 C   0  0  1  0  0  3  0  0  0  0  0  0
  189.5890  177.2180  141.6360 C   0  0  1  0  0  3  0  0  0  0  0  0
  191.5920  175.3030  147.3780 N   0  0  0  0  0  2  0  0  0  0  0  0
  190.4230  176.8660  145.5290 C   0  0  0  0  0  3  0  0  0  0  0  0
  191.6520  176.1140  145.0120 C   0  0  0  0  0  2  0  0  0  0  0  0
  192.2520  175.1790  146.0750 C   0  0  0  0  0  2  0  0  0  0  0  0
  191.6060  176.7080  147.7750 C   0  0  0  0  0  2  0  0  0  0  0  0
  190.6670  177.5330  146.8890 C   0  0  0  0  0  2  0  0  0  0  0  0
  1 12  1  0  0  0  0
  2 12  1  0  0  0  0
  2  6  1  0  0  0  0
  3 16  1  0  0  0  0
  4 14  1  0  0  0  0
  5 13  2  0  0  0  0
  7  9  1  1  0  0  0
  7 13  1  0  0  0  0
  7 11  1  0  0  0  0
  8 10  2  0  0  0  0
 10 17  1  0  0  0  0
 10 19  1  0  0  0  0
 11 16  1  0  0  0  0
 11 14  2  0  0  0  0
 12 23  1  0  0  0  0
 13  4  1  0  0  0  0
 14 18  1  0  0  0  0
 15  1  1  0  0  0  0
 16  2  2  0  0  0  0
 17 21  1  0  0  0  0
 18  6  2  0  0  0  0
 20 19  1  6  0  0  0
 20 21  1  0  0  0  0
 20 15  1  0  0  0  0
 21  3  1  6  0  0  0
 22 26  1  0  0  0  0
 23 27  1  0  0  0  0
 24 23  1  0  0  0  0
 24 25  1  0  0  0  0
 25 22  1  0  0  0  0
 27 26  1  0  0  0  0
M  END
>  <MODEL>
1

>  <REMARK>
 VINA RESULT:      -7.7      0.000      0.000
  Name = 
  1 active torsions:
  status: ('A' for Active; 'I' for Inactive)
    1  A    between atoms: C_9  and  N_15
                            x       y       z     vdW  Elec       q    Type
                         _______ _______ _______ _____ _____    ______ ____

>  <TORSDO>
F 1

$$$$
=
 OpenBabel10262420043D

 27 31  0  0  1  0  0  0  0  0999 V2000
  189.7350  178.4340  137.7500 C   0  0  0  0  0  2  0  0  0  0  0  0
  189.2140  177.4060  140.0120 C   0  0  0  0  0  0  0  0  0  0  0  0
  187.0030  178.4250  139.1450 C   0  0  0  0  0  2  0  0  0  0  0  0
  187.4240  177.4390  144.2110 S   0  0  0  0  0  0  0  0  0  0  0  0
  184.8600  178.0400  143.9920 O   0  0  0  0  0  0  0  0  0  0  0  0
  189.9420  176.9210  141.1170 C   0  0  0  0  0  3  0  0  0  0  0  0
  186.0320  178.3600  141.9530 C   0  0  1  0  0  3  0  0  0  0  0  0
  184.3610  176.9290  135.6380 O   0  0  0  0  0  0  0  0  0  0  0  0
  185.9260  179.8030  141.8080 N   0  0  0  0  0  1  0  0  0  0  0  0
  185.4210  177.2510  136.2350 C   0  0  0  0  0  0  0  0  0  0  0  0
  187.3960  177.9030  141.5510 C   0  0  0  0  0  0  0  0  0  0  0  0
  189.8190  177.3240  138.7030 N   0  0  0  0  0  0  0  0  0  0  0  0
  185.9250  177.9960  143.3990 C   0  0  0  0  0  0  0  0  0  0  0  0
  188.1700  177.4190  142.5920 C   0  0  0  0  0  0  0  0  0  0  0  0
  188.9440  178.0250  136.5080 C   0  0  0  0  0  2  0  0  0  0  0  0
  187.8930  177.8930  140.2350 C   0  0  0  0  0  0  0  0  0  0  0  0
  185.5720  177.1330  137.6360 N   0  0  0  0  0  2  0  0  0  0  0  0
  189.4150  176.9340  142.3690 N   0  0  0  0  0  0  0  0  0  0  0  0
  186.6180  177.7830  135.5490 C   0  0  0  0  0  2  0  0  0  0  0  0
  187.4590  178.2520  136.7300 C   0  0  1  0  0  3  0  0  0  0  0  0
  186.9390  177.4950  137.9510 C   0  0  1  0  0  3  0  0  0  0  0  0
  192.2850  174.1820  137.5770 N   0  0  0  0  0  2  0  0  0  0  0  0
  190.6850  176.1780  138.4060 C   0  0  0  0  0  3  0  0  0  0  0  0
  189.9780  175.1490  137.5210 C   0  0  0  0  0  2  0  0  0  0  0  0
  190.9040  173.9870  137.1240 C   0  0  0  0  0  2  0  0  0  0  0  0
  192.7520  175.4800  137.0980 C   0  0  0  0  0  2  0  0  0  0  0  0
  192.0380  176.6200  137.8310 C   0  0  0  0  0  2  0  0  0  0  0  0
  1 12  1  0  0  0  0
  2 16  2  0  0  0  0
  2  6  1  0  0  0  0
  3 16  1  0  0  0  0
  6 18  2  0  0  0  0
  7  9  1  1  0  0  0
  7 13  1  0  0  0  0
  8 10  2  0  0  0  0
 10 17  1  0  0  0  0
 11  7  1  0  0  0  0
 11 14  2  0  0  0  0
 12  2  1  0  0  0  0
 13  5  2  0  0  0  0
 13  4  1  0  0  0  0
 14  4  1  0  0  0  0
 15 20  1  0  0  0  0
 15  1  1  0  0  0  0
 16 11  1  0  0  0  0
 17 21  1  0  0  0  0
 18 14  1  0  0  0  0
 19 10  1  0  0  0  0
 20 19  1  6  0  0  0
 20 21  1  0  0  0  0
 21  3  1  1  0  0  0
 23 12  1  0  0  0  0
 24 23  1  0  0  0  0
 25 24  1  0  0  0  0
 25 22  1  0  0  0  0
 26 22  1  0  0  0  0
 26 27  1  0  0  0  0
 27 23  1  0  0  0  0
M  END
>  <MODEL>
2

>  <REMARK>
 VINA RESULT:      -7.6      3.369      5.958
  Name = 
  1 active torsions:
  status: ('A' for Active; 'I' for Inactive)
    1  A    between atoms: C_9  and  N_15
                            x       y       z     vdW  Elec       q    Type
                         _______ _______ _______ _____ _____    ______ ____

>  <TORSDO>
F 1

$$$$
=
 OpenBabel10262420043D

 27 31  0  0  1  0  0  0  0  0999 V2000
  189.6160  179.1450  143.1190 C   0  0  0  0  0  2  0  0  0  0  0  0
  189.4090  177.8300  140.9580 C   0  0  0  0  0  0  0  0  0  0  0  0
  191.6890  177.1880  141.9890 C   0  0  0  0  0  2  0  0  0  0  0  0
  190.9370  176.2730  136.9490 S   0  0  0  0  0  0  0  0  0  0  0  0
  193.2260  175.0280  137.3850 O   0  0  0  0  0  0  0  0  0  0  0  0
  188.5930  177.8540  139.8100 C   0  0  0  0  0  3  0  0  0  0  0  0
  192.4870  176.2330  139.2900 C   0  0  1  0  0  3  0  0  0  0  0  0
  192.4840  174.6420  145.7850 O   0  0  0  0  0  0  0  0  0  0  0  0
  193.5280  177.2440  139.3880 N   0  0  0  0  0  1  0  0  0  0  0  0
  191.9430  175.5330  145.0800 C   0  0  0  0  0  0  0  0  0  0  0  0
  191.1540  176.8430  139.5790 C   0  0  0  0  0  0  0  0  0  0  0  0
  188.8490  178.2920  142.2070 N   0  0  0  0  0  0  0  0  0  0  0  0
  192.3840  175.7600  137.8760 C   0  0  0  0  0  0  0  0  0  0  0  0
  190.3010  176.9050  138.4900 C   0  0  0  0  0  0  0  0  0  0  0  0
  189.8710  178.4300  144.4450 C   0  0  0  0  0  2  0  0  0  0  0  0
  190.7220  177.2880  140.8420 C   0  0  0  0  0  0  0  0  0  0  0  0
  191.8130  175.4170  143.6760 N   0  0  0  0  0  2  0  0  0  0  0  0
  189.0460  177.3980  138.6130 N   0  0  0  0  0  0  0  0  0  0  0  0
  191.3860  176.7880  145.6280 C   0  0  0  0  0  2  0  0  0  0  0  0
  191.1310  177.5870  144.3560 C   0  0  1  0  0  3  0  0  0  0  0  0
  191.0600  176.5680  143.2200 C   0  0  1  0  0  3  0  0  0  0  0  0
  184.8040  177.8930  143.0420 N   0  0  0  0  0  2  0  0  0  0  0  0
  187.4260  178.0500  142.4650 C   0  0  0  0  0  3  0  0  0  0  0  0
  187.1280  177.9770  143.9650 C   0  0  0  0  0  2  0  0  0  0  0  0
  185.6260  177.8180  144.2530 C   0  0  0  0  0  2  0  0  0  0  0  0
  185.1260  179.1310  142.3370 C   0  0  0  0  0  2  0  0  0  0  0  0
  186.5340  179.0630  141.7350 C   0  0  0  0  0  2  0  0  0  0  0  0
  1 15  1  0  0  0  0
  2 12  1  0  0  0  0
  4 13  1  0  0  0  0
  4 14  1  0  0  0  0
  5 13  2  0  0  0  0
  6  2  2  0  0  0  0
  7  9  1  6  0  0  0
  7 11  1  0  0  0  0
 10 19  1  0  0  0  0
 10  8  2  0  0  0  0
 11 16  2  0  0  0  0
 12 23  1  0  0  0  0
 12  1  1  0  0  0  0
 13  7  1  0  0  0  0
 14 18  2  0  0  0  0
 14 11  1  0  0  0  0
 16  2  1  0  0  0  0
 16  3  1  0  0  0  0
 17 10  1  0  0  0  0
 18  6  1  0  0  0  0
 20 15  1  1  0  0  0
 20 19  1  0  0  0  0
 21  3  1  6  0  0  0
 21 17  1  0  0  0  0
 21 20  1  0  0  0  0
 22 25  1  0  0  0  0
 23 24  1  0  0  0  0
 24 25  1  0  0  0  0
 26 22  1  0  0  0  0
 27 26  1  0  0  0  0
 27 23  1  0  0  0  0
M  END
>  <MODEL>
3

>  <REMARK>
 VINA RESULT:      -7.1      3.312      6.467
  Name = 
  1 active torsions:
  status: ('A' for Active; 'I' for Inactive)
    1  A    between atoms: C_9  and  N_15
                            x       y       z     vdW  Elec       q    Type
                         _______ _______ _______ _____ _____    ______ ____

>  <TORSDO>
F 1

$$$$
=
 OpenBabel10262420043D

 27 31  0  0  1  0  0  0  0  0999 V2000
  189.0700  178.1480  136.8460 C   0  0  0  0  0  2  0  0  0  0  0  0
  190.0880  175.8830  136.3200 C   0  0  0  0  0  0  0  0  0  0  0  0
  191.2310  176.7130  138.4830 C   0  0  0  0  0  2  0  0  0  0  0  0
  193.5730  172.9910  135.7510 S   0  0  0  0  0  0  0  0  0  0  0  0
  195.0280  173.0350  137.9570 O   0  0  0  0  0  0  0  0  0  0  0  0
  190.1290  175.0000  135.2230 C   0  0  0  0  0  3  0  0  0  0  0  0
  193.4010  174.7620  137.9240 C   0  0  1  0  0  3  0  0  0  0  0  0
  189.3700  177.1120  142.7140 O   0  0  0  0  0  0  0  0  0  0  0  0
  194.2570  175.9350  137.8660 N   0  0  0  0  0  1  0  0  0  0  0  0
  189.4390  177.2280  141.4630 C   0  0  0  0  0  0  0  0  0  0  0  0
  192.2190  174.9460  137.0300 C   0  0  0  0  0  0  0  0  0  0  0  0
  188.9340  176.7390  136.4690 N   0  0  0  0  0  0  0  0  0  0  0  0
  194.1260  173.5870  137.3500 C   0  0  0  0  0  0  0  0  0  0  0  0
  192.1980  174.1120  135.9240 C   0  0  0  0  0  0  0  0  0  0  0  0
  188.4180  178.4130  138.2020 C   0  0  0  0  0  2  0  0  0  0  0  0
  191.1570  175.8390  137.2620 C   0  0  0  0  0  0  0  0  0  0  0  0
  190.1670  176.3240  140.6550 N   0  0  0  0  0  2  0  0  0  0  0  0
  191.1670  174.1410  135.0470 N   0  0  0  0  0  0  0  0  0  0  0  0
  188.7740  178.3070  140.7020 C   0  0  0  0  0  2  0  0  0  0  0  0
  189.4020  178.1350  139.3240 C   0  0  1  0  0  3  0  0  0  0  0  0
  189.9390  176.7060  139.2750 C   0  0  1  0  0  3  0  0  0  0  0  0
  185.1050  175.4860  135.4740 N   0  0  0  0  0  2  0  0  0  0  0  0
  187.6250  176.2230  136.0520 C   0  0  0  0  0  3  0  0  0  0  0  0
  186.9310  175.4630  137.1850 C   0  0  0  0  0  2  0  0  0  0  0  0
  185.5180  174.9980  136.7930 C   0  0  0  0  0  2  0  0  0  0  0  0
  185.2610  176.9380  135.4460 C   0  0  0  0  0  2  0  0  0  0  0  0
  186.7420  177.3260  135.4530 C   0  0  0  0  0  2  0  0  0  0  0  0
  1 15  1  0  0  0  0
  2 12  1  0  0  0  0
  2 16  1  0  0  0  0
  4 14  1  0  0  0  0
  4 13  1  0  0  0  0
  6  2  2  0  0  0  0
  7  9  1  6  0  0  0
 10  8  2  0  0  0  0
 11 16  2  0  0  0  0
 11  7  1  0  0  0  0
 12  1  1  0  0  0  0
 13  7  1  0  0  0  0
 13  5  2  0  0  0  0
 14 11  1  0  0  0  0
 16  3  1  0  0  0  0
 17 10  1  0  0  0  0
 18  6  1  0  0  0  0
 18 14  2  0  0  0  0
 19 10  1  0  0  0  0
 20 15  1  6  0  0  0
 20 19  1  0  0  0  0
 21  3  1  6  0  0  0
 21 20  1  0  0  0  0
 21 17  1  0  0  0  0
 22 25  1  0  0  0  0
 23 12  1  0  0  0  0
 23 24  1  0  0  0  0
 25 24  1  0  0  0  0
 26 27  1  0  0  0  0
 26 22  1  0  0  0  0
 27 23  1  0  0  0  0
M  END
>  <MODEL>
4

>  <REMARK>
 VINA RESULT:      -6.9      4.999      9.363
  Name = 
  1 active torsions:
  status: ('A' for Active; 'I' for Inactive)
    1  A    between atoms: C_9  and  N_15
                            x       y       z     vdW  Elec       q    Type
                         _______ _______ _______ _____ _____    ______ ____

>  <TORSDO>
F 1

$$$$
=
 OpenBabel10262420043D

 27 31  0  0  1  0  0  0  0  0999 V2000
  188.2500  176.1770  143.0230 C   0  0  0  0  0  2  0  0  0  0  0  0
  189.1610  177.3290  140.9520 C   0  0  0  0  0  0  0  0  0  0  0  0
  186.6020  177.6820  140.9180 C   0  0  0  0  0  2  0  0  0  0  0  0
  189.2160  178.2920  136.4910 S   0  0  0  0  0  0  0  0  0  0  0  0
  186.8210  179.1890  135.8280 O   0  0  0  0  0  0  0  0  0  0  0  0
  190.3680  177.3410  140.2250 C   0  0  0  0  0  3  0  0  0  0  0  0
  186.8590  178.2750  138.0180 C   0  0  1  0  0  3  0  0  0  0  0  0
  184.0600  180.3680  143.7180 O   0  0  0  0  0  0  0  0  0  0  0  0
  185.9890  177.1230  137.8420 N   0  0  0  0  0  1  0  0  0  0  0  0
  184.9370  179.5200  143.4080 C   0  0  0  0  0  0  0  0  0  0  0  0
  188.0210  177.9110  138.8820 C   0  0  0  0  0  0  0  0  0  0  0  0
  189.2180  177.0640  142.3710 N   0  0  0  0  0  0  0  0  0  0  0  0
  187.4700  178.6420  136.7040 C   0  0  0  0  0  0  0  0  0  0  0  0
  189.2430  177.8970  138.2290 C   0  0  0  0  0  0  0  0  0  0  0  0
  187.4020  176.9480  144.0330 C   0  0  0  0  0  2  0  0  0  0  0  0
  187.9540  177.6440  140.2620 C   0  0  0  0  0  0  0  0  0  0  0  0
  185.6080  179.5420  142.1630 N   0  0  0  0  0  2  0  0  0  0  0  0
  190.3890  177.6210  138.8970 N   0  0  0  0  0  0  0  0  0  0  0  0
  185.3630  178.4190  144.2970 C   0  0  0  0  0  2  0  0  0  0  0  0
  186.1990  177.5700  143.3470 C   0  0  1  0  0  3  0  0  0  0  0  0
  186.6060  178.4910  142.1990 C   0  0  1  0  0  3  0  0  0  0  0  0
  192.3230  178.4490  144.7500 N   0  0  0  0  0  2  0  0  0  0  0  0
  190.3790  177.5490  143.1250 C   0  0  0  0  0  3  0  0  0  0  0  0
  190.2240  179.0210  143.5150 C   0  0  0  0  0  2  0  0  0  0  0  0
  191.3890  179.5190  144.3870 C   0  0  0  0  0  2  0  0  0  0  0  0
  191.5670  177.3610  145.3660 C   0  0  0  0  0  2  0  0  0  0  0  0
  190.6930  176.6500  144.3280 C   0  0  0  0  0  2  0  0  0  0  0  0
  1 15  1  0  0  0  0
  2 12  1  0  0  0  0
  4 13  1  0  0  0  0
  4 14  1  0  0  0  0
  5 13  2  0  0  0  0
  6  2  2  0  0  0  0
  7  9  1  6  0  0  0
  7 11  1  0  0  0  0
 10  8  2  0  0  0  0
 10 19  1  0  0  0  0
 11 16  2  0  0  0  0
 12  1  1  0  0  0  0
 12 23  1  0  0  0  0
 13  7  1  0  0  0  0
 14 11  1  0  0  0  0
 14 18  2  0  0  0  0
 16  3  1  0  0  0  0
 16  2  1  0  0  0  0
 17 21  1  0  0  0  0
 17 10  1  0  0  0  0
 18  6  1  0  0  0  0
 20 15  1  1  0  0  0
 20 19  1  0  0  0  0
 21  3  1  6  0  0  0
 21 20  1  0  0  0  0
 22 26  1  0  0  0  0
 23 24  1  0  0  0  0
 23 27  1  0  0  0  0
 24 25  1  0  0  0  0
 25 22  1  0  0  0  0
 27 26  1  0  0  0  0
M  END
>  <MODEL>
5

>  <REMARK>
 VINA RESULT:      -6.8      3.037      5.398
  Name = 
  1 active torsions:
  status: ('A' for Active; 'I' for Inactive)
    1  A    between atoms: C_9  and  N_15
                            x       y       z     vdW  Elec       q    Type
                         _______ _______ _______ _____ _____    ______ ____

>  <TORSDO>
F 1

$$$$
=
 OpenBabel10262420043D

 27 31  0  0  1  0  0  0  0  0999 V2000
  189.2710  178.5860  136.7110 C   0  0  0  0  0  2  0  0  0  0  0  0
  189.3760  177.6110  139.0530 C   0  0  0  0  0  0  0  0  0  0  0  0
  186.9090  178.2600  138.6400 C   0  0  0  0  0  2  0  0  0  0  0  0
  188.4830  177.6030  143.5290 S   0  0  0  0  0  0  0  0  0  0  0  0
  185.8670  177.8220  143.8320 O   0  0  0  0  0  0  0  0  0  0  0  0
  190.3750  177.2910  139.9930 C   0  0  0  0  0  3  0  0  0  0  0  0
  186.5430  178.2010  141.5890 C   0  0  1  0  0  3  0  0  0  0  0  0
  183.8690  176.2270  135.7870 O   0  0  0  0  0  0  0  0  0  0  0  0
  186.1960  179.6050  141.4390 N   0  0  0  0  0  1  0  0  0  0  0  0
  184.9670  176.7270  136.1440 C   0  0  0  0  0  0  0  0  0  0  0  0
  187.8510  177.9230  140.9230 C   0  0  0  0  0  0  0  0  0  0  0  0
  189.7100  177.5480  137.6490 N   0  0  0  0  0  0  0  0  0  0  0  0
  186.7850  177.9000  143.0330 C   0  0  0  0  0  0  0  0  0  0  0  0
  188.8830  177.6070  141.7920 C   0  0  0  0  0  0  0  0  0  0  0  0
  188.3170  178.0060  135.6680 C   0  0  0  0  0  2  0  0  0  0  0  0
  188.0690  177.9160  139.5340 C   0  0  0  0  0  0  0  0  0  0  0  0
  185.4120  176.7020  137.4860 N   0  0  0  0  0  2  0  0  0  0  0  0
  190.1150  177.2930  141.3260 N   0  0  0  0  0  0  0  0  0  0  0  0
  185.9080  177.3870  135.2150 C   0  0  0  0  0  2  0  0  0  0  0  0
  186.8900  178.0300  136.1870 C   0  0  1  0  0  3  0  0  0  0  0  0
  186.7460  177.2710  137.5040 C   0  0  1  0  0  3  0  0  0  0  0  0
  192.3670  174.5170  136.6620 N   0  0  0  0  0  2  0  0  0  0  0  0
  190.6610  176.5240  137.2040 C   0  0  0  0  0  3  0  0  0  0  0  0
  191.9980  176.6370  137.9380 C   0  0  0  0  0  2  0  0  0  0  0  0
  192.9730  175.5120  137.5510 C   0  0  0  0  0  2  0  0  0  0  0  0
  191.1390  174.0270  137.2820 C   0  0  0  0  0  2  0  0  0  0  0  0
  190.0600  175.1140  137.2870 C   0  0  0  0  0  2  0  0  0  0  0  0
  1 12  1  0  0  0  0
  2 16  2  0  0  0  0
  2  6  1  0  0  0  0
  3 16  1  0  0  0  0
  6 18  2  0  0  0  0
  7  9  1  1  0  0  0
  7 13  1  0  0  0  0
  8 10  2  0  0  0  0
 10 17  1  0  0  0  0
 11  7  1  0  0  0  0
 11 14  2  0  0  0  0
 12  2  1  0  0  0  0
 13  4  1  0  0  0  0
 13  5  2  0  0  0  0
 14  4  1  0  0  0  0
 15 20  1  0  0  0  0
 15  1  1  0  0  0  0
 16 11  1  0  0  0  0
 17 21  1  0  0  0  0
 18 14  1  0  0  0  0
 19 10  1  0  0  0  0
 20 19  1  6  0  0  0
 20 21  1  0  0  0  0
 21  3  1  1  0  0  0
 22 26  1  0  0  0  0
 22 25  1  0  0  0  0
 23 27  1  0  0  0  0
 23 12  1  0  0  0  0
 23 24  1  0  0  0  0
 25 24  1  0  0  0  0
 26 27  1  0  0  0  0
M  END
>  <MODEL>
6

>  <REMARK>
 VINA RESULT:      -6.7      3.724      6.492
  Name = 
  1 active torsions:
  status: ('A' for Active; 'I' for Inactive)
    1  A    between atoms: C_9  and  N_15
                            x       y       z     vdW  Elec       q    Type
                         _______ _______ _______ _____ _____    ______ ____

>  <TORSDO>
F 1

$$$$
=
 OpenBabel10262420043D

 27 31  0  0  1  0  0  0  0  0999 V2000
  192.1810  177.8510  139.7450 C   0  0  0  0  0  2  0  0  0  0  0  0
  189.6780  177.7530  140.1530 C   0  0  0  0  0  0  0  0  0  0  0  0
  190.0620  176.8830  137.7510 C   0  0  0  0  0  2  0  0  0  0  0  0
  185.3150  178.4980  139.0400 S   0  0  0  0  0  0  0  0  0  0  0  0
  184.8840  177.3970  136.6770 O   0  0  0  0  0  0  0  0  0  0  0  0
  188.7650  178.2680  141.0940 C   0  0  0  0  0  3  0  0  0  0  0  0
  187.1900  177.4460  137.2340 C   0  0  1  0  0  3  0  0  0  0  0  0
  192.0120  172.8800  136.4480 O   0  0  0  0  0  0  0  0  0  0  0  0
  187.6900  178.3620  136.2220 N   0  0  0  0  0  1  0  0  0  0  0  0
  191.8890  173.9530  137.0940 C   0  0  0  0  0  0  0  0  0  0  0  0
  187.8520  177.7200  138.5440 C   0  0  0  0  0  0  0  0  0  0  0  0
  191.0330  177.4940  140.5820 N   0  0  0  0  0  0  0  0  0  0  0  0
  185.7410  177.7200  137.4810 C   0  0  0  0  0  0  0  0  0  0  0  0
  187.0120  178.2360  139.5170 C   0  0  0  0  0  0  0  0  0  0  0  0
  192.9510  176.6020  139.3180 C   0  0  0  0  0  2  0  0  0  0  0  0
  189.2000  177.4510  138.8440 C   0  0  0  0  0  0  0  0  0  0  0  0
  190.6290  174.5300  137.3790 N   0  0  0  0  0  2  0  0  0  0  0  0
  187.4670  178.4970  140.7660 N   0  0  0  0  0  0  0  0  0  0  0  0
  193.0320  174.7250  137.6260 C   0  0  0  0  0  2  0  0  0  0  0  0
  192.3510  176.0210  138.0490 C   0  0  1  0  0  3  0  0  0  0  0  0
  190.8690  175.6890  138.2160 C   0  0  1  0  0  3  0  0  0  0  0  0
  191.3820  176.3160  144.5460 N   0  0  0  0  0  2  0  0  0  0  0  0
  191.2530  177.0380  141.9590 C   0  0  0  0  0  3  0  0  0  0  0  0
  191.4630  178.2130  142.9160 C   0  0  0  0  0  2  0  0  0  0  0  0
  191.6010  177.7550  144.3780 C   0  0  0  0  0  2  0  0  0  0  0  0
  190.0920  175.9700  143.9540 C   0  0  0  0  0  2  0  0  0  0  0  0
  190.1450  176.0850  142.4280 C   0  0  0  0  0  2  0  0  0  0  0  0
  1 12  1  0  0  0  0
  2 12  1  0  0  0  0
  2  6  1  0  0  0  0
  3 16  1  0  0  0  0
  4 14  1  0  0  0  0
  5 13  2  0  0  0  0
  7  9  1  6  0  0  0
  7 13  1  0  0  0  0
  7 11  1  0  0  0  0
  8 10  2  0  0  0  0
 10 17  1  0  0  0  0
 10 19  1  0  0  0  0
 11 16  1  0  0  0  0
 11 14  2  0  0  0  0
 12 23  1  0  0  0  0
 13  4  1  0  0  0  0
 14 18  1  0  0  0  0
 15  1  1  0  0  0  0
 16  2  2  0  0  0  0
 17 21  1  0  0  0  0
 18  6  2  0  0  0  0
 20 19  1  1  0  0  0
 20 21  1  0  0  0  0
 20 15  1  0  0  0  0
 21  3  1  6  0  0  0
 23 27  1  0  0  0  0
 23 24  1  0  0  0  0
 24 25  1  0  0  0  0
 25 22  1  0  0  0  0
 26 22  1  0  0  0  0
 27 26  1  0  0  0  0
M  END
>  <MODEL>
7

>  <REMARK>
 VINA RESULT:      -6.7      2.989      4.389
  Name = 
  1 active torsions:
  status: ('A' for Active; 'I' for Inactive)
    1  A    between atoms: C_9  and  N_15
                            x       y       z     vdW  Elec       q    Type
                         _______ _______ _______ _____ _____    ______ ____

>  <TORSDO>
F 1

$$$$
=
 OpenBabel10262420043D

 27 31  0  0  1  0  0  0  0  0999 V2000
  187.9080  176.2380  143.5700 C   0  0  0  0  0  2  0  0  0  0  0  0
  187.2020  177.7950  141.6940 C   0  0  0  0  0  0  0  0  0  0  0  0
  185.3220  177.8830  143.4640 C   0  0  0  0  0  2  0  0  0  0  0  0
  184.2340  179.4640  138.6550 S   0  0  0  0  0  0  0  0  0  0  0  0
  182.0630  180.2040  139.9680 O   0  0  0  0  0  0  0  0  0  0  0  0
  187.5890  178.0480  140.3630 C   0  0  0  0  0  3  0  0  0  0  0  0
  183.5530  178.9590  141.3320 C   0  0  1  0  0  3  0  0  0  0  0  0
  185.4690  179.8090  147.6820 O   0  0  0  0  0  0  0  0  0  0  0  0
  182.7570  177.7670  141.5780 N   0  0  0  0  0  1  0  0  0  0  0  0
  185.8680  179.1160  146.7090 C   0  0  0  0  0  0  0  0  0  0  0  0
  184.9780  178.5820  141.0960 C   0  0  0  0  0  0  0  0  0  0  0  0
  188.2020  177.3130  142.6190 N   0  0  0  0  0  0  0  0  0  0  0  0
  183.1150  179.5930  140.0510 C   0  0  0  0  0  0  0  0  0  0  0  0
  185.4240  178.7990  139.8020 C   0  0  0  0  0  0  0  0  0  0  0  0
  188.0050  176.7450  145.0080 C   0  0  0  0  0  2  0  0  0  0  0  0
  185.8610  178.0910  142.0750 C   0  0  0  0  0  0  0  0  0  0  0  0
  185.5100  179.4060  145.3720 N   0  0  0  0  0  2  0  0  0  0  0  0
  186.7070  178.5390  139.4540 N   0  0  0  0  0  0  0  0  0  0  0  0
  186.7470  177.9360  146.8490 C   0  0  0  0  0  2  0  0  0  0  0  0
  186.6800  177.3420  145.4480 C   0  0  1  0  0  3  0  0  0  0  0  0
  186.2270  178.4730  144.5260 C   0  0  1  0  0  3  0  0  0  0  0  0
  192.1880  178.4420  142.3810 N   0  0  0  0  0  2  0  0  0  0  0  0
  189.5810  177.7870  142.4640 C   0  0  0  0  0  3  0  0  0  0  0  0
  190.0780  178.5000  143.7240 C   0  0  0  0  0  2  0  0  0  0  0  0
  191.5530  178.9200  143.6120 C   0  0  0  0  0  2  0  0  0  0  0  0
  191.9930  176.9970  142.2880 C   0  0  0  0  0  2  0  0  0  0  0  0
  190.5230  176.6640  142.0110 C   0  0  0  0  0  2  0  0  0  0  0  0
  1 15  1  0  0  0  0
  2 16  1  0  0  0  0
  2 12  1  0  0  0  0
  4 14  1  0  0  0  0
  4 13  1  0  0  0  0
  5 13  2  0  0  0  0
  6  2  2  0  0  0  0
  7  9  1  6  0  0  0
 10 19  1  0  0  0  0
 10  8  2  0  0  0  0
 11  7  1  0  0  0  0
 11 16  2  0  0  0  0
 12  1  1  0  0  0  0
 13  7  1  0  0  0  0
 14 11  1  0  0  0  0
 16  3  1  0  0  0  0
 17 10  1  0  0  0  0
 18 14  2  0  0  0  0
 18  6  1  0  0  0  0
 20 15  1  6  0  0  0
 20 19  1  0  0  0  0
 21  3  1  6  0  0  0
 21 17  1  0  0  0  0
 21 20  1  0  0  0  0
 22 25  1  0  0  0  0
 23 12  1  0  0  0  0
 23 24  1  0  0  0  0
 25 24  1  0  0  0  0
 26 22  1  0  0  0  0
 27 26  1  0  0  0  0
 27 23  1  0  0  0  0
M  END
>  <MODEL>
8

>  <REMARK>
 VINA RESULT:      -6.6      3.245      5.205
  Name = 
  1 active torsions:
  status: ('A' for Active; 'I' for Inactive)
    1  A    between atoms: C_9  and  N_15
                            x       y       z     vdW  Elec       q    Type
                         _______ _______ _______ _____ _____    ______ ____

>  <TORSDO>
F 1

$$$$
=
 OpenBabel10262420043D

 27 31  0  0  1  0  0  0  0  0999 V2000
  180.7430  177.0770  139.0320 C   0  0  0  0  0  2  0  0  0  0  0  0
  180.7570  178.5150  136.9400 C   0  0  0  0  0  0  0  0  0  0  0  0
  181.7110  179.9810  138.8420 C   0  0  0  0  0  2  0  0  0  0  0  0
  179.9210  182.3400  134.5950 S   0  0  0  0  0  0  0  0  0  0  0  0
  181.0820  184.3410  135.8720 O   0  0  0  0  0  0  0  0  0  0  0  0
  180.1860  178.4690  135.6530 C   0  0  0  0  0  3  0  0  0  0  0  0
  181.0820  182.3430  137.1520 C   0  0  1  0  0  3  0  0  0  0  0  0
  185.8070  179.5610  140.9790 O   0  0  0  0  0  0  0  0  0  0  0  0
  180.2130  182.7300  138.2510 N   0  0  0  0  0  1  0  0  0  0  0  0
  184.7110  179.1830  140.4900 C   0  0  0  0  0  0  0  0  0  0  0  0
  180.7860  180.9400  136.7350 C   0  0  0  0  0  0  0  0  0  0  0  0
  181.0410  177.2670  137.6100 N   0  0  0  0  0  0  0  0  0  0  0  0
  180.7580  183.1680  135.9480 C   0  0  0  0  0  0  0  0  0  0  0  0
  180.2160  180.8210  135.4780 C   0  0  0  0  0  0  0  0  0  0  0  0
  182.0260  176.8500  139.8300 C   0  0  0  0  0  2  0  0  0  0  0  0
  181.0850  179.7900  137.4880 C   0  0  0  0  0  0  0  0  0  0  0  0
  184.0900  179.8510  139.4090 N   0  0  0  0  0  2  0  0  0  0  0  0
  179.9300  179.6050  134.9540 N   0  0  0  0  0  0  0  0  0  0  0  0
  183.9560  178.0100  140.9790 C   0  0  0  0  0  2  0  0  0  0  0  0
  182.6290  178.1790  140.2490 C   0  0  1  0  0  3  0  0  0  0  0  0
  182.9130  179.0830  139.0520 C   0  0  1  0  0  3  0  0  0  0  0  0
  182.3560  173.9060  135.5620 N   0  0  0  0  0  2  0  0  0  0  0  0
  181.4600  176.1200  136.7980 C   0  0  0  0  0  3  0  0  0  0  0  0
  182.9750  176.1060  136.5810 C   0  0  0  0  0  2  0  0  0  0  0  0
  183.4420  174.8590  135.8110 C   0  0  0  0  0  2  0  0  0  0  0  0
  181.7150  173.5890  136.8360 C   0  0  0  0  0  2  0  0  0  0  0  0
  180.9330  174.7950  137.3660 C   0  0  0  0  0  2  0  0  0  0  0  0
  1 15  1  0  0  0  0
  2 16  1  0  0  0  0
  2 12  1  0  0  0  0
  4 14  1  0  0  0  0
  4 13  1  0  0  0  0
  5 13  2  0  0  0  0
  6  2  2  0  0  0  0
  7  9  1  1  0  0  0
 10 19  1  0  0  0  0
 10  8  2  0  0  0  0
 11  7  1  0  0  0  0
 11 16  2  0  0  0  0
 12  1  1  0  0  0  0
 13  7  1  0  0  0  0
 14 11  1  0  0  0  0
 16  3  1  0  0  0  0
 17 10  1  0  0  0  0
 18 14  2  0  0  0  0
 18  6  1  0  0  0  0
 20 15  1  6  0  0  0
 20 19  1  0  0  0  0
 21  3  1  1  0  0  0
 21 17  1  0  0  0  0
 21 20  1  0  0  0  0
 22 25  1  0  0  0  0
 22 26  1  0  0  0  0
 23 27  1  0  0  0  0
 23 12  1  0  0  0  0
 24 23  1  0  0  0  0
 25 24  1  0  0  0  0
 26 27  1  0  0  0  0
M  END
>  <MODEL>
9

>  <REMARK>
 VINA RESULT:      -6.5      6.962     10.452
  Name = 
  1 active torsions:
  status: ('A' for Active; 'I' for Inactive)
    1  A    between atoms: C_9  and  N_15
                            x       y       z     vdW  Elec       q    Type
                         _______ _______ _______ _____ _____    ______ ____

>  <TORSDO>
F 1

$$$$
