=
 OpenBabel10262421303D

 32 35  0  0  1  0  0  0  0  0999 V2000
  188.8070  177.3060  142.7760 C   0  0  0  0  0  0  0  0  0  0  0  0
  183.9730  178.6860  143.0990 C   0  0  0  0  0  3  0  0  0  0  0  0
  184.1000  178.8320  144.4240 C   0  0  0  0  0  3  0  0  0  0  0  0
  190.2280  177.1270  144.8370 C   0  0  0  0  0  0  0  0  0  0  0  0
  190.2670  177.1020  146.2790 N   0  0  0  0  0  0  0  0  0  0  0  0
  190.1250  177.5020  140.6620 C   0  0  1  0  0  3  0  0  0  0  0  0
  187.8040  178.4240  140.7850 C   0  0  0  0  0  2  0  0  0  0  0  0
  189.0640  177.8670  148.2850 C   0  0  0  0  0  0  0  0  0  0  0  0
  185.1060  178.2140  142.2280 C   0  0  0  0  0  2  0  0  0  0  0  0
  187.5110  177.6210  142.0540 C   0  0  2  0  0  3  0  0  0  0  0  0
  186.4780  178.3700  142.8930 C   0  0  2  0  0  3  0  0  0  0  0  0
  187.7920  177.9150  144.9820 C   0  0  1  0  0  3  0  0  0  0  0  0
  190.3190  178.2380  149.0010 C   0  0  0  0  0  1  0  0  0  0  0  0
  188.8150  177.7040  139.8940 C   0  0  1  0  0  3  0  0  0  0  0  0
  191.4610  176.5780  146.9320 C   0  0  0  0  0  1  0  0  0  0  0  0
  185.4160  178.6450  145.1300 C   0  0  0  0  0  2  0  0  0  0  0  0
  186.4190  177.8190  144.3160 C   0  0  1  0  0  3  0  0  0  0  0  0
  187.7600  177.1810  146.3190 C   0  0  0  0  0  2  0  0  0  0  0  0
  189.8720  176.6750  141.9210 C   0  0  0  0  0  2  0  0  0  0  0  0
  191.2950  176.9360  144.1930 O   0  0  0  0  0  0  0  0  0  0  0  0
  187.8310  178.1140  148.9580 N   0  0  0  0  0  1  0  0  0  0  0  0
  188.9380  177.4060  144.1240 C   0  0  0  0  0  0  0  0  0  0  0  0
  189.0630  177.3810  147.0260 C   0  0  0  0  0  0  0  0  0  0  0  0
  192.2940  177.3730  140.2300 C   0  0  0  0  0  1  0  0  0  0  0  0
  191.0580  176.8370  139.8610 O   0  0  0  0  0  0  0  0  0  0  0  0
  189.0590  178.5300  138.6370 C   0  0  0  0  0  2  0  0  0  0  0  0
  188.7330  177.7350  137.3820 C   0  0  0  0  0  2  0  0  0  0  0  0
  187.3590  177.1020  137.5010 C   0  0  0  0  0  2  0  0  0  0  0  0
  186.2930  178.1520  137.2360 C   0  0  0  0  0  2  0  0  0  0  0  0
  185.1910  178.1120  138.2870 C   0  0  0  0  0  3  0  0  0  0  0  0
  184.9680  179.3860  138.8110 O   0  0  0  0  0  1  0  0  0  0  0  0
  184.0100  177.6130  137.7350 O   0  0  0  0  0  1  0  0  0  0  0  0
  1 22  2  0  0  0  0
  2  3  2  0  0  0  0
  3 16  1  0  0  0  0
  4  5  1  0  0  0  0
  5 15  1  0  0  0  0
  5 23  1  0  0  0  0
  6 25  1  6  0  0  0
  6 19  1  0  0  0  0
  8 21  1  0  0  0  0
  8 13  1  0  0  0  0
  9  2  1  0  0  0  0
 10  7  1  6  0  0  0
 10  1  1  0  0  0  0
 10 11  1  0  0  0  0
 11  9  1  6  0  0  0
 11 17  1  0  0  0  0
 12 18  1  1  0  0  0
 14 26  1  6  0  0  0
 14  6  1  0  0  0  0
 14  7  1  0  0  0  0
 17 12  1  0  0  0  0
 17 16  1  1  0  0  0
 18 23  1  0  0  0  0
 19  1  1  0  0  0  0
 20  4  2  0  0  0  0
 22  4  1  0  0  0  0
 22 12  1  0  0  0  0
 23  8  2  0  0  0  0
 25 24  1  0  0  0  0
 27 28  1  0  0  0  0
 27 26  1  0  0  0  0
 29 28  1  0  0  0  0
 29 30  1  0  0  0  0
 30 31  1  0  0  0  0
 32 30  1  0  0  0  0
M  END
>  <MODEL>
1

>  <REMARK>
 VINA RESULT:      -9.6      0.000      0.000
  Name = 
  6 active torsions:
  status: ('A' for Active; 'I' for Inactive)
    1  A    between atoms: C_1  and  C_10
    2  A    between atoms: C_2  and  C_12
    3  A    between atoms: C_2  and  C_24
    4  A    between atoms: C_8  and  O_23
    5  A    between atoms: C_10  and  C_24
    6  A    between atoms: C_12  and  C_21
                            x       y       z     vdW  Elec       q    Type
                         _______ _______ _______ _____ _____    ______ ____

>  <TORSDO>
F 6

$$$$
=
 OpenBabel10262421303D

 32 35  0  0  1  0  0  0  0  0999 V2000
  186.6780  178.3350  142.1190 C   0  0  0  0  0  0  0  0  0  0  0  0
  186.1850  178.2450  147.1310 C   0  0  0  0  0  3  0  0  0  0  0  0
  184.8540  178.3140  147.0040 C   0  0  0  0  0  3  0  0  0  0  0  0
  184.6620  178.5330  140.6380 C   0  0  0  0  0  0  0  0  0  0  0  0
  183.2480  178.8060  140.5520 N   0  0  0  0  0  0  0  0  0  0  0  0
  188.7010  177.4500  140.9490 C   0  0  1  0  0  3  0  0  0  0  0  0
  188.4480  177.1540  143.4190 C   0  0  0  0  0  2  0  0  0  0  0  0
  181.1550  178.7290  141.8440 C   0  0  0  0  0  0  0  0  0  0  0  0
  187.1100  178.2650  145.9440 C   0  0  0  0  0  2  0  0  0  0  0  0
  187.3510  178.2180  143.4730 C   0  0  2  0  0  3  0  0  0  0  0  0
  186.4060  177.9040  144.6310 C   0  0  2  0  0  3  0  0  0  0  0  0
  184.4140  178.3960  143.1860 C   0  0  1  0  0  3  0  0  0  0  0  0
  180.3650  178.2000  140.6950 C   0  0  0  0  0  1  0  0  0  0  0  0
  189.4400  177.4350  142.2910 C   0  0  1  0  0  3  0  0  0  0  0  0
  182.6830  179.1350  139.2480 C   0  0  0  0  0  1  0  0  0  0  0  0
  184.1730  178.3010  145.6630 C   0  0  0  0  0  2  0  0  0  0  0  0
  185.1080  178.7000  144.5140 C   0  0  1  0  0  3  0  0  0  0  0  0
  183.2330  179.3440  143.0020 C   0  0  0  0  0  2  0  0  0  0  0  0
  187.6170  178.5260  140.9590 C   0  0  0  0  0  2  0  0  0  0  0  0
  185.3130  178.3410  139.5750 O   0  0  0  0  0  0  0  0  0  0  0  0
  180.4680  178.9120  143.0800 N   0  0  0  0  0  1  0  0  0  0  0  0
  185.3320  178.4510  141.9770 C   0  0  0  0  0  0  0  0  0  0  0  0
  182.4820  178.9660  141.7650 C   0  0  0  0  0  0  0  0  0  0  0  0
  188.8760  178.5080  139.0110 C   0  0  0  0  0  1  0  0  0  0  0  0
  189.5940  177.7140  139.9080 O   0  0  0  0  0  0  0  0  0  0  0  0
  190.5220  176.3630  142.2890 C   0  0  0  0  0  2  0  0  0  0  0  0
  191.7190  176.7840  143.1280 C   0  0  0  0  0  2  0  0  0  0  0  0
  191.6890  176.0860  144.4750 C   0  0  0  0  0  2  0  0  0  0  0  0
  191.4070  177.1050  145.5670 C   0  0  0  0  0  2  0  0  0  0  0  0
  191.1830  176.4360  146.9160 C   0  0  0  0  0  3  0  0  0  0  0  0
  192.1750  176.8160  147.8210 O   0  0  0  0  0  1  0  0  0  0  0  0
  189.9260  176.7690  147.4240 O   0  0  0  0  0  1  0  0  0  0  0  0
  1 10  1  0  0  0  0
  3  2  2  0  0  0  0
  4 22  1  0  0  0  0
  5  4  1  0  0  0  0
  5 23  1  0  0  0  0
  6 25  1  6  0  0  0
  6 19  1  0  0  0  0
  6 14  1  0  0  0  0
  8 21  1  0  0  0  0
  9  2  1  0  0  0  0
 10  7  1  6  0  0  0
 10 11  1  0  0  0  0
 11  9  1  1  0  0  0
 12 18  1  6  0  0  0
 12 17  1  0  0  0  0
 13  8  1  0  0  0  0
 14 26  1  6  0  0  0
 14  7  1  0  0  0  0
 15  5  1  0  0  0  0
 16  3  1  0  0  0  0
 17 11  1  0  0  0  0
 17 16  1  1  0  0  0
 19  1  1  0  0  0  0
 20  4  2  0  0  0  0
 22  1  2  0  0  0  0
 22 12  1  0  0  0  0
 23  8  2  0  0  0  0
 23 18  1  0  0  0  0
 24 25  1  0  0  0  0
 26 27  1  0  0  0  0
 27 28  1  0  0  0  0
 28 29  1  0  0  0  0
 29 30  1  0  0  0  0
 30 32  1  0  0  0  0
 30 31  1  0  0  0  0
M  END
>  <MODEL>
2

>  <REMARK>
 VINA RESULT:      -9.5      2.947      6.983
  Name = 
  6 active torsions:
  status: ('A' for Active; 'I' for Inactive)
    1  A    between atoms: C_1  and  C_10
    2  A    between atoms: C_2  and  C_12
    3  A    between atoms: C_2  and  C_24
    4  A    between atoms: C_8  and  O_23
    5  A    between atoms: C_10  and  C_24
    6  A    between atoms: C_12  and  C_21
                            x       y       z     vdW  Elec       q    Type
                         _______ _______ _______ _____ _____    ______ ____

>  <TORSDO>
F 6

$$$$
=
 OpenBabel10262421303D

 32 35  0  0  1  0  0  0  0  0999 V2000
  188.7180  177.3100  142.7990 C   0  0  0  0  0  0  0  0  0  0  0  0
  183.8770  178.6800  143.0630 C   0  0  0  0  0  3  0  0  0  0  0  0
  183.9910  178.8350  144.3880 C   0  0  0  0  0  3  0  0  0  0  0  0
  190.1170  177.1480  144.8760 C   0  0  0  0  0  0  0  0  0  0  0  0
  190.1410  177.1330  146.3180 N   0  0  0  0  0  0  0  0  0  0  0  0
  190.0560  177.4950  140.6980 C   0  0  1  0  0  3  0  0  0  0  0  0
  187.7320  178.4120  140.7910 C   0  0  0  0  0  2  0  0  0  0  0  0
  188.9170  177.9080  148.3070 C   0  0  0  0  0  0  0  0  0  0  0  0
  185.0200  178.2050  142.2070 C   0  0  0  0  0  2  0  0  0  0  0  0
  187.4290  177.6170  142.0620 C   0  0  2  0  0  3  0  0  0  0  0  0
  186.3850  178.3690  142.8850 C   0  0  2  0  0  3  0  0  0  0  0  0
  187.6790  177.9310  144.9900 C   0  0  1  0  0  3  0  0  0  0  0  0
  190.1630  178.2880  149.0330 C   0  0  0  0  0  1  0  0  0  0  0  0
  188.7540  177.6890  139.9140 C   0  0  1  0  0  3  0  0  0  0  0  0
  191.3310  176.6160  146.9860 C   0  0  0  0  0  1  0  0  0  0  0  0
  185.2990  178.6570  145.1090 C   0  0  0  0  0  2  0  0  0  0  0  0
  186.3130  177.8270  144.3110 C   0  0  1  0  0  3  0  0  0  0  0  0
  187.6340  177.2060  146.3320 C   0  0  0  0  0  2  0  0  0  0  0  0
  189.7930  176.6750  141.9600 C   0  0  0  0  0  2  0  0  0  0  0  0
  191.1920  176.9560  144.2440 O   0  0  0  0  0  0  0  0  0  0  0  0
  187.6760  178.1570  148.9650 N   0  0  0  0  0  1  0  0  0  0  0  0
  188.8340  177.4190  144.1480 C   0  0  0  0  0  0  0  0  0  0  0  0
  188.9290  177.4140  147.0500 C   0  0  0  0  0  0  0  0  0  0  0  0
  192.2230  177.4120  140.2430 C   0  0  0  0  0  1  0  0  0  0  0  0
  190.9990  176.8270  139.9110 O   0  0  0  0  0  0  0  0  0  0  0  0
  189.0090  178.5070  138.6540 C   0  0  0  0  0  2  0  0  0  0  0  0
  188.2980  177.9050  137.4520 C   0  0  0  0  0  2  0  0  0  0  0  0
  188.7920  176.4930  137.1990 C   0  0  0  0  0  2  0  0  0  0  0  0
  190.1570  176.5460  136.5340 C   0  0  0  0  0  2  0  0  0  0  0  0
  190.9370  175.2550  136.7470 C   0  0  0  0  0  3  0  0  0  0  0  0
  192.2550  175.5340  137.1120 O   0  0  0  0  0  1  0  0  0  0  0  0
  190.3290  174.4740  137.7310 O   0  0  0  0  0  1  0  0  0  0  0  0
  1 22  2  0  0  0  0
  2  3  2  0  0  0  0
  3 16  1  0  0  0  0
  4  5  1  0  0  0  0
  5 15  1  0  0  0  0
  5 23  1  0  0  0  0
  6 25  1  6  0  0  0
  6 19  1  0  0  0  0
  8 21  1  0  0  0  0
  8 13  1  0  0  0  0
  9  2  1  0  0  0  0
 10  7  1  6  0  0  0
 10  1  1  0  0  0  0
 10 11  1  0  0  0  0
 11  9  1  6  0  0  0
 11 17  1  0  0  0  0
 12 18  1  1  0  0  0
 14 26  1  6  0  0  0
 14  6  1  0  0  0  0
 14  7  1  0  0  0  0
 17 12  1  0  0  0  0
 17 16  1  1  0  0  0
 18 23  1  0  0  0  0
 19  1  1  0  0  0  0
 20  4  2  0  0  0  0
 22  4  1  0  0  0  0
 22 12  1  0  0  0  0
 23  8  2  0  0  0  0
 25 24  1  0  0  0  0
 27 26  1  0  0  0  0
 28 27  1  0  0  0  0
 29 30  1  0  0  0  0
 29 28  1  0  0  0  0
 30 31  1  0  0  0  0
 30 32  1  0  0  0  0
M  END
>  <MODEL>
3

>  <REMARK>
 VINA RESULT:      -9.3      1.858      2.406
  Name = 
  6 active torsions:
  status: ('A' for Active; 'I' for Inactive)
    1  A    between atoms: C_1  and  C_10
    2  A    between atoms: C_2  and  C_12
    3  A    between atoms: C_2  and  C_24
    4  A    between atoms: C_8  and  O_23
    5  A    between atoms: C_10  and  C_24
    6  A    between atoms: C_12  and  C_21
                            x       y       z     vdW  Elec       q    Type
                         _______ _______ _______ _____ _____    ______ ____

>  <TORSDO>
F 6

$$$$
=
 OpenBabel10262421303D

 32 35  0  0  1  0  0  0  0  0999 V2000
  188.1690  178.0390  142.2000 C   0  0  0  0  0  0  0  0  0  0  0  0
  184.7870  178.6390  145.8850 C   0  0  0  0  0  3  0  0  0  0  0  0
  183.8020  178.6750  144.9790 C   0  0  0  0  0  3  0  0  0  0  0  0
  187.4500  178.0090  139.7950 C   0  0  0  0  0  0  0  0  0  0  0  0
  186.3900  178.2530  138.8490 N   0  0  0  0  0  0  0  0  0  0  0  0
  190.4170  177.0220  142.5890 C   0  0  1  0  0  3  0  0  0  0  0  0
  188.7250  177.0670  144.4280 C   0  0  0  0  0  2  0  0  0  0  0  0
  183.9410  178.3330  138.6270 C   0  0  0  0  0  0  0  0  0  0  0  0
  186.2350  178.5030  145.4960 C   0  0  0  0  0  2  0  0  0  0  0  0
  187.8940  178.1170  143.6890 C   0  0  2  0  0  3  0  0  0  0  0  0
  186.4250  177.9570  144.0770 C   0  0  2  0  0  3  0  0  0  0  0  0
  185.7270  178.2240  141.6810 C   0  0  1  0  0  3  0  0  0  0  0  0
  183.9510  177.6420  137.3050 C   0  0  0  0  0  1  0  0  0  0  0  0
  190.2100  177.2000  144.0960 C   0  0  1  0  0  3  0  0  0  0  0  0
  186.7380  178.3920  137.4390 C   0  0  0  0  0  1  0  0  0  0  0  0
  184.0540  178.4690  143.5100 C   0  0  0  0  0  2  0  0  0  0  0  0
  185.5150  178.7160  143.1130 C   0  0  1  0  0  3  0  0  0  0  0  0
  184.9610  179.1240  140.7170 C   0  0  0  0  0  2  0  0  0  0  0  0
  189.6240  178.0770  141.8210 C   0  0  0  0  0  2  0  0  0  0  0  0
  188.5900  177.6780  139.3660 O   0  0  0  0  0  0  0  0  0  0  0  0
  182.6690  178.6790  139.1730 N   0  0  0  0  0  1  0  0  0  0  0  0
  187.1850  178.1200  141.2670 C   0  0  0  0  0  0  0  0  0  0  0  0
  185.0670  178.5710  139.3320 C   0  0  0  0  0  0  0  0  0  0  0  0
  191.7900  177.5030  140.9180 C   0  0  0  0  0  1  0  0  0  0  0  0
  191.7720  177.1480  142.2690 O   0  0  0  0  0  0  0  0  0  0  0  0
  190.9980  176.1490  144.8690 C   0  0  0  0  0  2  0  0  0  0  0  0
  191.6740  176.7530  146.0900 C   0  0  0  0  0  2  0  0  0  0  0  0
  190.8820  176.4320  147.3440 C   0  0  0  0  0  2  0  0  0  0  0  0
  190.3190  177.7160  147.9280 C   0  0  0  0  0  2  0  0  0  0  0  0
  188.7950  177.7110  147.9320 C   0  0  0  0  0  3  0  0  0  0  0  0
  188.3100  176.4130  147.7690 O   0  0  0  0  0  1  0  0  0  0  0  0
  188.3080  178.2530  149.1230 O   0  0  0  0  0  1  0  0  0  0  0  0
  1 10  1  0  0  0  0
  3  2  2  0  0  0  0
  4 22  1  0  0  0  0
  5 23  1  0  0  0  0
  5  4  1  0  0  0  0
  6 25  1  1  0  0  0
  6 14  1  0  0  0  0
  8 21  1  0  0  0  0
  8 23  2  0  0  0  0
  9  2  1  0  0  0  0
 10 11  1  0  0  0  0
 10  7  1  1  0  0  0
 11  9  1  1  0  0  0
 12 18  1  6  0  0  0
 12 17  1  0  0  0  0
 13  8  1  0  0  0  0
 14  7  1  0  0  0  0
 14 26  1  1  0  0  0
 15  5  1  0  0  0  0
 16  3  1  0  0  0  0
 17 16  1  1  0  0  0
 17 11  1  0  0  0  0
 19  1  1  0  0  0  0
 19  6  1  0  0  0  0
 20  4  2  0  0  0  0
 22 12  1  0  0  0  0
 22  1  2  0  0  0  0
 23 18  1  0  0  0  0
 24 25  1  0  0  0  0
 26 27  1  0  0  0  0
 27 28  1  0  0  0  0
 28 29  1  0  0  0  0
 29 30  1  0  0  0  0
 30 32  1  0  0  0  0
 31 30  1  0  0  0  0
M  END
>  <MODEL>
4

>  <REMARK>
 VINA RESULT:      -9.1      2.941      7.141
  Name = 
  6 active torsions:
  status: ('A' for Active; 'I' for Inactive)
    1  A    between atoms: C_1  and  C_10
    2  A    between atoms: C_2  and  C_12
    3  A    between atoms: C_2  and  C_24
    4  A    between atoms: C_8  and  O_23
    5  A    between atoms: C_10  and  C_24
    6  A    between atoms: C_12  and  C_21
                            x       y       z     vdW  Elec       q    Type
                         _______ _______ _______ _____ _____    ______ ____

>  <TORSDO>
F 6

$$$$
=
 OpenBabel10262421303D

 32 35  0  0  1  0  0  0  0  0999 V2000
  187.1450  178.4300  141.8340 C   0  0  0  0  0  0  0  0  0  0  0  0
  183.0230  179.1180  144.6480 C   0  0  0  0  0  3  0  0  0  0  0  0
  182.2530  178.9680  143.5620 C   0  0  0  0  0  3  0  0  0  0  0  0
  186.9590  178.0760  139.3570 C   0  0  0  0  0  0  0  0  0  0  0  0
  186.1110  178.1210  138.1910 N   0  0  0  0  0  0  0  0  0  0  0  0
  189.3190  177.6660  142.7980 C   0  0  1  0  0  3  0  0  0  0  0  0
  187.2740  177.7580  144.2320 C   0  0  0  0  0  2  0  0  0  0  0  0
  183.7660  177.9570  137.4650 C   0  0  0  0  0  0  0  0  0  0  0  0
  184.5260  179.0720  144.5820 C   0  0  0  0  0  2  0  0  0  0  0  0
  186.5540  178.6430  143.2140 C   0  0  2  0  0  3  0  0  0  0  0  0
  185.0490  178.3950  143.3110 C   0  0  2  0  0  3  0  0  0  0  0  0
  184.8630  178.3380  140.8090 C   0  0  1  0  0  3  0  0  0  0  0  0
  184.1030  177.1310  136.2700 C   0  0  0  0  0  1  0  0  0  0  0  0
  188.7840  177.9870  144.1970 C   0  0  1  0  0  3  0  0  0  0  0  0
  186.7420  178.1380  136.8750 C   0  0  0  0  0  1  0  0  0  0  0  0
  182.8250  178.6280  142.2130 C   0  0  0  0  0  2  0  0  0  0  0  0
  184.3180  178.9610  142.0950 C   0  0  1  0  0  3  0  0  0  0  0  0
  184.2630  179.0570  139.6050 C   0  0  0  0  0  2  0  0  0  0  0  0
  188.6410  178.5570  141.7590 C   0  0  0  0  0  2  0  0  0  0  0  0
  188.1820  177.8050  139.2140 O   0  0  0  0  0  0  0  0  0  0  0  0
  182.3870  178.2440  137.6930 N   0  0  0  0  0  1  0  0  0  0  0  0
  186.3790  178.3210  140.7180 C   0  0  0  0  0  0  0  0  0  0  0  0
  184.6980  178.3690  138.3500 C   0  0  0  0  0  0  0  0  0  0  0  0
  191.1170  177.2520  141.5700 C   0  0  0  0  0  1  0  0  0  0  0  0
  190.7000  177.8780  142.7480 O   0  0  0  0  0  0  0  0  0  0  0  0
  189.4550  177.1000  145.2380 C   0  0  0  0  0  2  0  0  0  0  0  0
  188.7950  177.2500  146.6000 C   0  0  0  0  0  2  0  0  0  0  0  0
  189.7020  176.7090  147.6890 C   0  0  0  0  0  2  0  0  0  0  0  0
  191.1530  176.9280  147.2930 C   0  0  0  0  0  2  0  0  0  0  0  0
  192.0000  175.6880  147.5500 C   0  0  0  0  0  3  0  0  0  0  0  0
  192.4270  175.1290  146.3450 O   0  0  0  0  0  1  0  0  0  0  0  0
  193.1040  176.0070  148.3420 O   0  0  0  0  0  1  0  0  0  0  0  0
  1 10  1  0  0  0  0
  3  2  2  0  0  0  0
  4 22  1  0  0  0  0
  5 23  1  0  0  0  0
  5  4  1  0  0  0  0
  6 25  1  1  0  0  0
  6 14  1  0  0  0  0
  8 21  1  0  0  0  0
  8 23  2  0  0  0  0
  9  2  1  0  0  0  0
 10 11  1  0  0  0  0
 10  7  1  1  0  0  0
 11  9  1  1  0  0  0
 12 18  1  6  0  0  0
 12 17  1  0  0  0  0
 13  8  1  0  0  0  0
 14  7  1  0  0  0  0
 14 26  1  1  0  0  0
 15  5  1  0  0  0  0
 16  3  1  0  0  0  0
 17 16  1  1  0  0  0
 17 11  1  0  0  0  0
 19  1  1  0  0  0  0
 19  6  1  0  0  0  0
 20  4  2  0  0  0  0
 22 12  1  0  0  0  0
 22  1  2  0  0  0  0
 23 18  1  0  0  0  0
 24 25  1  0  0  0  0
 26 27  1  0  0  0  0
 27 28  1  0  0  0  0
 29 30  1  0  0  0  0
 29 28  1  0  0  0  0
 30 32  1  0  0  0  0
 31 30  1  0  0  0  0
M  END
>  <MODEL>
5

>  <REMARK>
 VINA RESULT:      -8.8      3.082      7.765
  Name = 
  6 active torsions:
  status: ('A' for Active; 'I' for Inactive)
    1  A    between atoms: C_1  and  C_10
    2  A    between atoms: C_2  and  C_12
    3  A    between atoms: C_2  and  C_24
    4  A    between atoms: C_8  and  O_23
    5  A    between atoms: C_10  and  C_24
    6  A    between atoms: C_12  and  C_21
                            x       y       z     vdW  Elec       q    Type
                         _______ _______ _______ _____ _____    ______ ____

>  <TORSDO>
F 6

$$$$
=
 OpenBabel10262421303D

 32 35  0  0  1  0  0  0  0  0999 V2000
  188.0790  178.1700  140.7170 C   0  0  0  0  0  0  0  0  0  0  0  0
  189.5960  177.2100  145.4240 C   0  0  0  0  0  3  0  0  0  0  0  0
  188.3320  177.3120  145.8550 C   0  0  0  0  0  3  0  0  0  0  0  0
  185.6640  178.6420  140.2220 C   0  0  0  0  0  0  0  0  0  0  0  0
  184.3580  178.9400  140.7560 N   0  0  0  0  0  0  0  0  0  0  0  0
  189.4000  177.4830  138.7110 C   0  0  1  0  0  3  0  0  0  0  0  0
  190.1190  176.7620  140.9940 C   0  0  0  0  0  2  0  0  0  0  0  0
  182.9440  178.6580  142.7500 C   0  0  0  0  0  0  0  0  0  0  0  0
  189.9760  177.4280  143.9840 C   0  0  0  0  0  2  0  0  0  0  0  0
  189.2190  177.8110  141.6500 C   0  0  2  0  0  3  0  0  0  0  0  0
  188.7860  177.3080  143.0260 C   0  0  2  0  0  3  0  0  0  0  0  0
  186.4310  178.0650  142.5990 C   0  0  1  0  0  3  0  0  0  0  0  0
  181.7260  178.3450  141.9490 C   0  0  0  0  0  1  0  0  0  0  0  0
  190.6040  177.2270  139.6220 C   0  0  1  0  0  3  0  0  0  0  0  0
  183.3520  179.4970  139.8580 C   0  0  0  0  0  1  0  0  0  0  0  0
  187.1790  177.5400  144.9160 C   0  0  0  0  0  2  0  0  0  0  0  0
  187.6140  178.1250  143.5670 C   0  0  1  0  0  3  0  0  0  0  0  0
  185.3520  179.0410  143.0570 C   0  0  0  0  0  2  0  0  0  0  0  0
  188.4960  178.5510  139.3240 C   0  0  0  0  0  2  0  0  0  0  0  0
  185.8270  178.6330  138.9710 O   0  0  0  0  0  0  0  0  0  0  0  0
  182.8170  178.6280  144.1710 N   0  0  0  0  0  1  0  0  0  0  0  0
  186.7990  178.3210  141.1480 C   0  0  0  0  0  0  0  0  0  0  0  0
  184.1470  178.8920  142.1840 C   0  0  0  0  0  0  0  0  0  0  0  0
  189.0540  179.0470  137.1800 C   0  0  0  0  0  1  0  0  0  0  0  0
  189.8280  177.9170  137.4530 O   0  0  0  0  0  0  0  0  0  0  0  0
  191.5100  176.1610  139.0180 C   0  0  0  0  0  2  0  0  0  0  0  0
  192.9050  176.7070  138.7530 C   0  0  0  0  0  2  0  0  0  0  0  0
  193.5490  175.9680  137.5950 C   0  0  0  0  0  2  0  0  0  0  0  0
  193.7290  174.5050  137.9660 C   0  0  0  0  0  2  0  0  0  0  0  0
  195.1880  174.1750  138.2580 C   0  0  0  0  0  3  0  0  0  0  0  0
  195.7200  175.0820  139.1760 O   0  0  0  0  0  1  0  0  0  0  0  0
  195.3040  172.8760  138.7530 O   0  0  0  0  0  1  0  0  0  0  0  0
  1 22  2  0  0  0  0
  1 10  1  0  0  0  0
  2  3  2  0  0  0  0
  4  5  1  0  0  0  0
  4 22  1  0  0  0  0
  5 23  1  0  0  0  0
  6 25  1  6  0  0  0
  6 19  1  0  0  0  0
  6 14  1  0  0  0  0
  8 21  1  0  0  0  0
  9  2  1  0  0  0  0
 10  7  1  6  0  0  0
 10 11  1  0  0  0  0
 11 17  1  0  0  0  0
 11  9  1  1  0  0  0
 12 18  1  1  0  0  0
 12 17  1  0  0  0  0
 13  8  1  0  0  0  0
 14 26  1  6  0  0  0
 14  7  1  0  0  0  0
 15  5  1  0  0  0  0
 16  3  1  0  0  0  0
 17 16  1  1  0  0  0
 19  1  1  0  0  0  0
 20  4  2  0  0  0  0
 22 12  1  0  0  0  0
 23  8  2  0  0  0  0
 23 18  1  0  0  0  0
 24 25  1  0  0  0  0
 27 26  1  0  0  0  0
 28 29  1  0  0  0  0
 28 27  1  0  0  0  0
 29 30  1  0  0  0  0
 30 32  1  0  0  0  0
 30 31  1  0  0  0  0
M  END
>  <MODEL>
6

>  <REMARK>
 VINA RESULT:      -8.4      2.946      6.474
  Name = 
  6 active torsions:
  status: ('A' for Active; 'I' for Inactive)
    1  A    between atoms: C_1  and  C_10
    2  A    between atoms: C_2  and  C_12
    3  A    between atoms: C_2  and  C_24
    4  A    between atoms: C_8  and  O_23
    5  A    between atoms: C_10  and  C_24
    6  A    between atoms: C_12  and  C_21
                            x       y       z     vdW  Elec       q    Type
                         _______ _______ _______ _____ _____    ______ ____

>  <TORSDO>
F 6

$$$$
=
 OpenBabel10262421303D

 32 35  0  0  1  0  0  0  0  0999 V2000
  187.9240  178.2310  140.7960 C   0  0  0  0  0  0  0  0  0  0  0  0
  189.1970  177.3830  145.5960 C   0  0  0  0  0  3  0  0  0  0  0  0
  187.9130  177.4950  145.9590 C   0  0  0  0  0  3  0  0  0  0  0  0
  185.5390  178.6910  140.1660 C   0  0  0  0  0  0  0  0  0  0  0  0
  184.2070  179.0000  140.6250 N   0  0  0  0  0  0  0  0  0  0  0  0
  189.3470  177.4980  138.8770 C   0  0  1  0  0  3  0  0  0  0  0  0
  189.9460  176.8310  141.2110 C   0  0  0  0  0  2  0  0  0  0  0  0
  182.6930  178.7650  142.5500 C   0  0  0  0  0  0  0  0  0  0  0  0
  189.6510  177.5670  144.1730 C   0  0  0  0  0  2  0  0  0  0  0  0
  189.0150  177.8950  141.7950 C   0  0  2  0  0  3  0  0  0  0  0  0
  188.5110  177.4250  143.1580 C   0  0  2  0  0  3  0  0  0  0  0  0
  186.1820  178.1700  142.5930 C   0  0  1  0  0  3  0  0  0  0  0  0
  181.5170  178.4330  141.6950 C   0  0  0  0  0  1  0  0  0  0  0  0
  190.5020  177.2640  139.8550 C   0  0  1  0  0  3  0  0  0  0  0  0
  183.2490  179.5360  139.6630 C   0  0  0  0  0  1  0  0  0  0  0  0
  186.8100  177.7000  144.9570 C   0  0  0  0  0  2  0  0  0  0  0  0
  187.3130  178.2540  143.6180 C   0  0  1  0  0  3  0  0  0  0  0  0
  185.0820  179.1570  142.9710 C   0  0  0  0  0  2  0  0  0  0  0  0
  188.4130  178.5800  139.4170 C   0  0  0  0  0  2  0  0  0  0  0  0
  185.7660  178.6520  138.9260 O   0  0  0  0  0  0  0  0  0  0  0  0
  182.4930  178.7690  143.9620 N   0  0  0  0  0  1  0  0  0  0  0  0
  186.6250  178.3920  141.1560 C   0  0  0  0  0  0  0  0  0  0  0  0
  183.9230  178.9860  142.0400 C   0  0  0  0  0  0  0  0  0  0  0  0
  189.0550  179.0000  137.2750 C   0  0  0  0  0  1  0  0  0  0  0  0
  189.8390  177.9020  137.6330 O   0  0  0  0  0  0  0  0  0  0  0  0
  191.4370  176.1840  139.3230 C   0  0  0  0  0  2  0  0  0  0  0  0
  192.7850  176.7670  138.9280 C   0  0  0  0  0  2  0  0  0  0  0  0
  193.1830  176.2840  137.5450 C   0  0  0  0  0  2  0  0  0  0  0  0
  193.0750  174.7690  137.4890 C   0  0  0  0  0  2  0  0  0  0  0  0
  192.0900  174.3150  136.4190 C   0  0  0  0  0  3  0  0  0  0  0  0
  191.0050  173.6590  137.0010 O   0  0  0  0  0  1  0  0  0  0  0  0
  191.6400  175.4070  135.6750 O   0  0  0  0  0  1  0  0  0  0  0  0
  1 22  2  0  0  0  0
  1 10  1  0  0  0  0
  2  3  2  0  0  0  0
  4  5  1  0  0  0  0
  4 22  1  0  0  0  0
  5 23  1  0  0  0  0
  6 25  1  6  0  0  0
  6 19  1  0  0  0  0
  6 14  1  0  0  0  0
  8 21  1  0  0  0  0
  9  2  1  0  0  0  0
 10  7  1  6  0  0  0
 10 11  1  0  0  0  0
 11 17  1  0  0  0  0
 11  9  1  1  0  0  0
 12 18  1  1  0  0  0
 12 17  1  0  0  0  0
 13  8  1  0  0  0  0
 14 26  1  6  0  0  0
 14  7  1  0  0  0  0
 15  5  1  0  0  0  0
 16  3  1  0  0  0  0
 17 16  1  1  0  0  0
 19  1  1  0  0  0  0
 20  4  2  0  0  0  0
 22 12  1  0  0  0  0
 23  8  2  0  0  0  0
 23 18  1  0  0  0  0
 24 25  1  0  0  0  0
 27 26  1  0  0  0  0
 28 27  1  0  0  0  0
 29 28  1  0  0  0  0
 30 31  1  0  0  0  0
 30 29  1  0  0  0  0
 32 30  1  0  0  0  0
M  END
>  <MODEL>
7

>  <REMARK>
 VINA RESULT:      -8.0      2.871      5.990
  Name = 
  6 active torsions:
  status: ('A' for Active; 'I' for Inactive)
    1  A    between atoms: C_1  and  C_10
    2  A    between atoms: C_2  and  C_12
    3  A    between atoms: C_2  and  C_24
    4  A    between atoms: C_8  and  O_23
    5  A    between atoms: C_10  and  C_24
    6  A    between atoms: C_12  and  C_21
                            x       y       z     vdW  Elec       q    Type
                         _______ _______ _______ _____ _____    ______ ____

>  <TORSDO>
F 6

$$$$
=
 OpenBabel10262421303D

 32 35  0  0  1  0  0  0  0  0999 V2000
  186.5290  178.3800  143.3150 C   0  0  0  0  0  0  0  0  0  0  0  0
  189.5550  177.8720  139.3190 C   0  0  0  0  0  3  0  0  0  0  0  0
  190.5430  177.4490  140.1180 C   0  0  0  0  0  3  0  0  0  0  0  0
  187.3710  177.8890  145.6280 C   0  0  0  0  0  0  0  0  0  0  0  0
  188.5140  177.6240  146.4660 N   0  0  0  0  0  0  0  0  0  0  0  0
  184.0380  178.3640  143.1280 C   0  0  1  0  0  3  0  0  0  0  0  0
  185.4510  177.8760  141.1240 C   0  0  0  0  0  2  0  0  0  0  0  0
  190.8000  176.7160  146.4330 C   0  0  0  0  0  0  0  0  0  0  0  0
  188.2110  178.2900  139.8530 C   0  0  0  0  0  2  0  0  0  0  0  0
  186.6900  178.4550  141.8090 C   0  0  2  0  0  3  0  0  0  0  0  0
  187.9350  177.7580  141.2630 C   0  0  2  0  0  3  0  0  0  0  0  0
  188.8750  177.5480  143.5810 C   0  0  1  0  0  3  0  0  0  0  0  0
  190.6230  175.9880  147.7220 C   0  0  0  0  0  1  0  0  0  0  0  0
  184.1750  178.5590  141.6140 C   0  0  1  0  0  3  0  0  0  0  0  0
  188.3670  177.7840  147.9090 C   0  0  0  0  0  1  0  0  0  0  0  0
  190.3510  177.2500  141.5970 C   0  0  0  0  0  2  0  0  0  0  0  0
  189.1480  178.0220  142.1530 C   0  0  1  0  0  3  0  0  0  0  0  0
  190.0130  177.9990  144.4910 C   0  0  0  0  0  2  0  0  0  0  0  0
  185.2470  178.9610  143.8460 C   0  0  0  0  0  2  0  0  0  0  0  0
  186.2330  178.0040  146.1620 O   0  0  0  0  0  0  0  0  0  0  0  0
  192.0540  176.5720  145.7690 N   0  0  0  0  0  1  0  0  0  0  0  0
  187.5370  177.9970  144.1420 C   0  0  0  0  0  0  0  0  0  0  0  0
  189.8090  177.4300  145.8590 C   0  0  0  0  0  0  0  0  0  0  0  0
  183.0070  178.9970  144.9840 C   0  0  0  0  0  1  0  0  0  0  0  0
  182.8780  178.9900  143.5930 O   0  0  0  0  0  0  0  0  0  0  0  0
  182.9730  177.9640  140.8920 C   0  0  0  0  0  2  0  0  0  0  0  0
  182.4270  178.9240  139.8460 C   0  0  0  0  0  2  0  0  0  0  0  0
  181.1630  179.5930  140.3540 C   0  0  0  0  0  2  0  0  0  0  0  0
  180.4120  178.6330  141.2620 C   0  0  0  0  0  2  0  0  0  0  0  0
  179.4450  179.3690  142.1810 C   0  0  0  0  0  3  0  0  0  0  0  0
  179.0180  178.5310  143.2120 O   0  0  0  0  0  1  0  0  0  0  0  0
  180.0510  180.5070  142.7150 O   0  0  0  0  0  1  0  0  0  0  0  0
  1 19  1  0  0  0  0
  1 22  2  0  0  0  0
  2  9  1  0  0  0  0
  2  3  2  0  0  0  0
  3 16  1  0  0  0  0
  4 20  2  0  0  0  0
  4  5  1  0  0  0  0
  5 15  1  0  0  0  0
  6 25  1  1  0  0  0
  6 19  1  0  0  0  0
  7 14  1  0  0  0  0
  8 13  1  0  0  0  0
 10  7  1  6  0  0  0
 10  1  1  0  0  0  0
 11  9  1  6  0  0  0
 11 10  1  0  0  0  0
 11 17  1  0  0  0  0
 12 22  1  0  0  0  0
 12 18  1  1  0  0  0
 14 26  1  6  0  0  0
 14  6  1  0  0  0  0
 17 16  1  6  0  0  0
 17 12  1  0  0  0  0
 18 23  1  0  0  0  0
 21  8  1  0  0  0  0
 22  4  1  0  0  0  0
 23  8  2  0  0  0  0
 23  5  1  0  0  0  0
 25 24  1  0  0  0  0
 27 28  1  0  0  0  0
 27 26  1  0  0  0  0
 28 29  1  0  0  0  0
 29 30  1  0  0  0  0
 30 32  1  0  0  0  0
 30 31  1  0  0  0  0
M  END
>  <MODEL>
8

>  <REMARK>
 VINA RESULT:      -8.0      2.804      5.461
  Name = 
  6 active torsions:
  status: ('A' for Active; 'I' for Inactive)
    1  A    between atoms: C_1  and  C_10
    2  A    between atoms: C_2  and  C_12
    3  A    between atoms: C_2  and  C_24
    4  A    between atoms: C_8  and  O_23
    5  A    between atoms: C_10  and  C_24
    6  A    between atoms: C_12  and  C_21
                            x       y       z     vdW  Elec       q    Type
                         _______ _______ _______ _____ _____    ______ ____

>  <TORSDO>
F 6

$$$$
=
 OpenBabel10262421303D

 32 35  0  0  1  0  0  0  0  0999 V2000
  186.5010  178.4310  143.3260 C   0  0  0  0  0  0  0  0  0  0  0  0
  189.5450  177.9900  139.3360 C   0  0  0  0  0  3  0  0  0  0  0  0
  190.5340  177.5680  140.1340 C   0  0  0  0  0  3  0  0  0  0  0  0
  187.3380  177.9230  145.6370 C   0  0  0  0  0  0  0  0  0  0  0  0
  188.4800  177.6600  146.4760 N   0  0  0  0  0  0  0  0  0  0  0  0
  184.0110  178.3940  143.1290 C   0  0  1  0  0  3  0  0  0  0  0  0
  185.4350  177.9400  141.1250 C   0  0  0  0  0  2  0  0  0  0  0  0
  190.7750  176.7710  146.4420 C   0  0  0  0  0  0  0  0  0  0  0  0
  188.1960  178.3910  139.8690 C   0  0  0  0  0  2  0  0  0  0  0  0
  186.6660  178.5230  141.8210 C   0  0  2  0  0  3  0  0  0  0  0  0
  187.9190  177.8420  141.2730 C   0  0  2  0  0  3  0  0  0  0  0  0
  188.8530  177.6160  143.5910 C   0  0  1  0  0  3  0  0  0  0  0  0
  190.5990  176.0290  147.7230 C   0  0  0  0  0  1  0  0  0  0  0  0
  184.1520  178.6060  141.6180 C   0  0  1  0  0  3  0  0  0  0  0  0
  188.3280  177.8030  147.9200 C   0  0  0  0  0  1  0  0  0  0  0  0
  190.3390  177.3520  141.6100 C   0  0  0  0  0  2  0  0  0  0  0  0
  189.1270  178.1070  142.1700 C   0  0  1  0  0  3  0  0  0  0  0  0
  189.9840  178.0680  144.5110 C   0  0  0  0  0  2  0  0  0  0  0  0
  185.2120  178.9940  143.8570 C   0  0  0  0  0  2  0  0  0  0  0  0
  186.1980  178.0220  146.1680 O   0  0  0  0  0  0  0  0  0  0  0  0
  192.0330  176.6450  145.7810 N   0  0  0  0  0  1  0  0  0  0  0  0
  187.5090  178.0470  144.1520 C   0  0  0  0  0  0  0  0  0  0  0  0
  189.7800  177.4830  145.8720 C   0  0  0  0  0  0  0  0  0  0  0  0
  183.0000  179.0660  144.9830 C   0  0  0  0  0  1  0  0  0  0  0  0
  182.8440  179.0060  143.5960 O   0  0  0  0  0  0  0  0  0  0  0  0
  182.9570  178.0080  140.8850 C   0  0  0  0  0  2  0  0  0  0  0  0
  182.2770  179.0430  140.0020 C   0  0  0  0  0  2  0  0  0  0  0  0
  183.0920  179.2820  138.7450 C   0  0  0  0  0  2  0  0  0  0  0  0
  182.7320  178.2370  137.7020 C   0  0  0  0  0  2  0  0  0  0  0  0
  183.9270  177.3630  137.3450 C   0  0  0  0  0  3  0  0  0  0  0  0
  185.1190  177.9990  137.6950 O   0  0  0  0  0  1  0  0  0  0  0  0
  183.8400  176.1300  137.9930 O   0  0  0  0  0  1  0  0  0  0  0  0
  1 19  1  0  0  0  0
  1 22  2  0  0  0  0
  2  9  1  0  0  0  0
  2  3  2  0  0  0  0
  3 16  1  0  0  0  0
  4 20  2  0  0  0  0
  4  5  1  0  0  0  0
  5 15  1  0  0  0  0
  6 25  1  1  0  0  0
  6 19  1  0  0  0  0
  7 14  1  0  0  0  0
  8 13  1  0  0  0  0
 10  7  1  6  0  0  0
 10  1  1  0  0  0  0
 11  9  1  6  0  0  0
 11 10  1  0  0  0  0
 11 17  1  0  0  0  0
 12 22  1  0  0  0  0
 12 18  1  1  0  0  0
 14 26  1  6  0  0  0
 14  6  1  0  0  0  0
 17 16  1  6  0  0  0
 17 12  1  0  0  0  0
 18 23  1  0  0  0  0
 21  8  1  0  0  0  0
 22  4  1  0  0  0  0
 23  8  2  0  0  0  0
 23  5  1  0  0  0  0
 25 24  1  0  0  0  0
 27 26  1  0  0  0  0
 28 27  1  0  0  0  0
 29 28  1  0  0  0  0
 30 31  1  0  0  0  0
 30 29  1  0  0  0  0
 30 32  1  0  0  0  0
M  END
>  <MODEL>
9

>  <REMARK>
 VINA RESULT:      -7.9      2.056      4.829
  Name = 
  6 active torsions:
  status: ('A' for Active; 'I' for Inactive)
    1  A    between atoms: C_1  and  C_10
    2  A    between atoms: C_2  and  C_12
    3  A    between atoms: C_2  and  C_24
    4  A    between atoms: C_8  and  O_23
    5  A    between atoms: C_10  and  C_24
    6  A    between atoms: C_12  and  C_21
                            x       y       z     vdW  Elec       q    Type
                         _______ _______ _______ _____ _____    ______ ____

>  <TORSDO>
F 6

$$$$
