=
 OpenBabel10262421303D

 32 36  0  0  1  0  0  0  0  0999 V2000
  187.7050  177.7120  147.0230 C   0  0  0  0  0  3  0  0  0  0  0  0
  185.4510  178.2850  142.2380 C   0  0  0  0  0  0  0  0  0  0  0  0
  180.9310  179.0810  143.6160 C   0  0  0  0  0  3  0  0  0  0  0  0
  180.5540  179.1890  142.2760 C   0  0  0  0  0  3  0  0  0  0  0  0
  187.2240  177.9070  143.8600 C   0  0  0  0  0  0  0  0  0  0  0  0
  184.9450  178.3110  144.6070 C   0  0  0  0  0  3  0  0  0  0  0  0
  186.5560  177.9210  146.3720 C   0  0  0  0  0  3  0  0  0  0  0  0
  182.2300  178.8320  143.9290 N   0  0  0  0  0  0  0  0  0  0  0  0
  184.5160  178.4280  143.2800 C   0  0  0  0  0  0  0  0  0  0  0  0
  183.1750  178.6840  142.9590 C   0  0  0  0  0  0  0  0  0  0  0  0
  183.7600  178.6440  140.6010 C   0  0  0  0  0  0  0  0  0  0  0  0
  189.0500  176.7850  145.1680 C   0  0  0  0  0  2  0  0  0  0  0  0
  186.2860  178.0600  144.9220 C   0  0  0  0  0  0  0  0  0  0  0  0
  188.6970  177.7090  144.0290 C   0  0  0  0  0  2  0  0  0  0  0  0
  189.0670  177.6200  146.4270 C   0  0  2  0  0  3  0  0  0  0  0  0
  181.4890  179.0430  141.3020 N   0  0  0  0  0  0  0  0  0  0  0  0
  182.7920  178.7940  141.6060 C   0  0  0  0  0  0  0  0  0  0  0  0
  186.7880  178.0340  142.5360 C   0  0  0  0  0  3  0  0  0  0  0  0
  185.0540  178.3980  140.9430 N   0  0  0  0  0  0  0  0  0  0  0  0
  190.0150  177.0170  147.4520 C   0  0  0  0  0  2  0  0  0  0  0  0
  191.3600  176.7500  146.8560 C   0  0  0  0  0  0  0  0  0  0  0  0
  191.7910  177.4550  145.9590 O   0  0  0  0  0  0  0  0  0  0  0  0
  192.1650  175.5940  147.3400 C   0  0  0  0  0  1  0  0  0  0  0  0
  183.4040  178.7850  139.1550 C   0  0  0  0  0  2  0  0  0  0  0  0
  183.2640  176.3890  138.3820 C   0  0  0  0  0  0  0  0  0  0  0  0
  185.0420  177.4640  137.5860 C   0  0  0  0  0  0  0  0  0  0  0  0
  185.1860  176.2760  137.1020 N   0  0  0  0  0  0  0  0  0  0  0  0
  184.0680  175.4470  137.5460 C   0  0  0  0  0  3  0  0  0  0  0  0
  185.9230  178.4660  137.3520 F   0  0  0  0  0  0  0  0  0  0  0  0
  183.8430  177.5780  138.3890 C   0  0  2  0  0  3  0  0  0  0  0  0
  182.0630  176.0370  139.0920 C   0  0  0  0  0  0  0  0  0  0  0  0
  181.0580  175.7420  139.6880 C   0  0  0  0  0  3  0  0  0  0  0  0
  2 18  2  0  0  0  0
  2  9  1  0  0  0  0
  3  8  1  0  0  0  0
  4  3  2  0  0  0  0
  5 14  1  0  0  0  0
  5 13  2  0  0  0  0
  6 13  1  0  0  0  0
  7  1  2  0  0  0  0
  9  6  2  0  0  0  0
 10  9  1  0  0  0  0
 10  8  2  0  0  0  0
 11 19  2  0  0  0  0
 11 17  1  0  0  0  0
 12 15  1  0  0  0  0
 13  7  1  0  0  0  0
 14 12  1  0  0  0  0
 15  1  1  0  0  0  0
 15 20  1  1  0  0  0
 16 17  2  0  0  0  0
 16  4  1  0  0  0  0
 17 10  1  0  0  0  0
 18  5  1  0  0  0  0
 19  2  1  0  0  0  0
 21 23  1  0  0  0  0
 21 20  1  0  0  0  0
 22 21  2  0  0  0  0
 24 11  1  0  0  0  0
 25 30  1  0  0  0  0
 25 31  1  0  0  0  0
 26 30  1  0  0  0  0
 27 28  1  0  0  0  0
 27 26  2  0  0  0  0
 28 25  2  0  0  0  0
 29 26  1  0  0  0  0
 30 24  1  1  0  0  0
 31 32  3  0  0  0  0
M  END
>  <MODEL>
1

>  <REMARK>
 VINA RESULT:      -9.8      0.000      0.000
  Name = 
  5 active torsions:
  status: ('A' for Active; 'I' for Inactive)
    1  A    between atoms: C_1  and  C_10
    2  A    between atoms: C_6  and  C_7
    3  A    between atoms: C_10  and  C_24
    4  A    between atoms: C_16  and  C_27
    5  A    between atoms: C_27  and  C_32
                            x       y       z     vdW  Elec       q    Type
                         _______ _______ _______ _____ _____    ______ ____

>  <TORSDO>
F 5

$$$$
=
 OpenBabel10262421303D

 32 36  0  0  1  0  0  0  0  0999 V2000
  187.6160  177.5830  146.8220 C   0  0  0  0  0  3  0  0  0  0  0  0
  185.4630  178.3990  142.0260 C   0  0  0  0  0  0  0  0  0  0  0  0
  180.9080  179.0920  143.3440 C   0  0  0  0  0  3  0  0  0  0  0  0
  180.5600  179.2700  142.0040 C   0  0  0  0  0  3  0  0  0  0  0  0
  187.2020  177.9450  143.6650 C   0  0  0  0  0  0  0  0  0  0  0  0
  184.9050  178.2940  144.3810 C   0  0  0  0  0  3  0  0  0  0  0  0
  186.4800  177.8190  146.1590 C   0  0  0  0  0  3  0  0  0  0  0  0
  182.2020  178.8350  143.6710 N   0  0  0  0  0  0  0  0  0  0  0  0
  184.5050  178.4800  143.0540 C   0  0  0  0  0  0  0  0  0  0  0  0
  183.1690  178.7450  142.7170 C   0  0  0  0  0  0  0  0  0  0  0  0
  183.8060  178.8350  140.3730 C   0  0  0  0  0  0  0  0  0  0  0  0
  189.0080  176.7650  144.9510 C   0  0  0  0  0  2  0  0  0  0  0  0
  186.2410  178.0350  144.7120 C   0  0  0  0  0  0  0  0  0  0  0  0
  188.6730  177.7470  143.8550 C   0  0  0  0  0  2  0  0  0  0  0  0
  188.9910  177.5310  146.2530 C   0  0  2  0  0  3  0  0  0  0  0  0
  181.5170  179.1820  141.0440 N   0  0  0  0  0  0  0  0  0  0  0  0
  182.8150  178.9250  141.3630 C   0  0  0  0  0  0  0  0  0  0  0  0
  186.7950  178.1400  142.3400 C   0  0  0  0  0  3  0  0  0  0  0  0
  185.0940  178.5790  140.7300 N   0  0  0  0  0  0  0  0  0  0  0  0
  189.9210  176.8800  147.2650 C   0  0  0  0  0  2  0  0  0  0  0  0
  191.3080  176.7510  146.7230 C   0  0  0  0  0  0  0  0  0  0  0  0
  191.7190  177.5320  145.8810 O   0  0  0  0  0  0  0  0  0  0  0  0
  192.1830  175.6400  147.1920 C   0  0  0  0  0  1  0  0  0  0  0  0
  183.4800  179.0510  138.9300 C   0  0  0  0  0  2  0  0  0  0  0  0
  184.4270  177.2120  137.4890 C   0  0  0  0  0  0  0  0  0  0  0  0
  182.3050  176.8690  138.0640 C   0  0  0  0  0  0  0  0  0  0  0  0
  182.5670  175.8480  137.3190 N   0  0  0  0  0  0  0  0  0  0  0  0
  183.9520  175.9390  136.8650 C   0  0  0  0  0  3  0  0  0  0  0  0
  181.0930  177.0710  138.6370 F   0  0  0  0  0  0  0  0  0  0  0  0
  183.4480  177.7460  138.2000 C   0  0  2  0  0  3  0  0  0  0  0  0
  185.7370  177.7770  137.3070 C   0  0  0  0  0  0  0  0  0  0  0  0
  186.8340  178.2520  137.1560 C   0  0  0  0  0  3  0  0  0  0  0  0
  2 18  2  0  0  0  0
  2  9  1  0  0  0  0
  3  8  1  0  0  0  0
  4  3  2  0  0  0  0
  5 14  1  0  0  0  0
  5 13  2  0  0  0  0
  6 13  1  0  0  0  0
  7  1  2  0  0  0  0
  9  6  2  0  0  0  0
 10  9  1  0  0  0  0
 10  8  2  0  0  0  0
 11 19  2  0  0  0  0
 11 17  1  0  0  0  0
 12 15  1  0  0  0  0
 13  7  1  0  0  0  0
 14 12  1  0  0  0  0
 15  1  1  0  0  0  0
 15 20  1  1  0  0  0
 16 17  2  0  0  0  0
 16  4  1  0  0  0  0
 17 10  1  0  0  0  0
 18  5  1  0  0  0  0
 19  2  1  0  0  0  0
 21 23  1  0  0  0  0
 21 20  1  0  0  0  0
 22 21  2  0  0  0  0
 24 11  1  0  0  0  0
 25 30  1  0  0  0  0
 26 30  1  0  0  0  0
 26 29  1  0  0  0  0
 27 26  2  0  0  0  0
 28 27  1  0  0  0  0
 28 25  2  0  0  0  0
 30 24  1  6  0  0  0
 31 25  1  0  0  0  0
 32 31  3  0  0  0  0
M  END
>  <MODEL>
2

>  <REMARK>
 VINA RESULT:      -9.7      1.190      1.880
  Name = 
  5 active torsions:
  status: ('A' for Active; 'I' for Inactive)
    1  A    between atoms: C_1  and  C_10
    2  A    between atoms: C_6  and  C_7
    3  A    between atoms: C_10  and  C_24
    4  A    between atoms: C_16  and  C_27
    5  A    between atoms: C_27  and  C_32
                            x       y       z     vdW  Elec       q    Type
                         _______ _______ _______ _____ _____    ______ ____

>  <TORSDO>
F 5

$$$$
=
 OpenBabel10262421303D

 32 36  0  0  1  0  0  0  0  0999 V2000
  191.1410  176.4670  144.8280 C   0  0  0  0  0  3  0  0  0  0  0  0
  188.5110  177.7920  140.3970 C   0  0  0  0  0  0  0  0  0  0  0  0
  191.6240  176.1510  137.1440 C   0  0  0  0  0  3  0  0  0  0  0  0
  190.7740  176.5890  136.1270 C   0  0  0  0  0  3  0  0  0  0  0  0
  188.9420  177.5850  142.7820 C   0  0  0  0  0  0  0  0  0  0  0  0
  190.5490  176.7340  141.1680 C   0  0  0  0  0  3  0  0  0  0  0  0
  191.1780  176.4650  143.4920 C   0  0  0  0  0  3  0  0  0  0  0  0
  191.2700  176.3430  138.4420 N   0  0  0  0  0  0  0  0  0  0  0  0
  189.7320  177.1530  140.1130 C   0  0  0  0  0  0  0  0  0  0  0  0
  190.0990  176.9560  138.7740 C   0  0  0  0  0  0  0  0  0  0  0  0
  188.0330  178.0290  138.0780 C   0  0  0  0  0  0  0  0  0  0  0  0
  189.4010  178.1870  145.1770 C   0  0  0  0  0  2  0  0  0  0  0  0
  190.1750  176.9290  142.5040 C   0  0  0  0  0  0  0  0  0  0  0  0
  188.3670  177.8040  144.1460 C   0  0  0  0  0  2  0  0  0  0  0  0
  190.0090  176.9030  145.6920 C   0  0  2  0  0  3  0  0  0  0  0  0
  189.6040  177.2020  136.4480 N   0  0  0  0  0  0  0  0  0  0  0  0
  189.2420  177.3970  137.7440 C   0  0  0  0  0  0  0  0  0  0  0  0
  188.1270  177.9940  141.7210 C   0  0  0  0  0  3  0  0  0  0  0  0
  187.7030  178.2050  139.3860 N   0  0  0  0  0  0  0  0  0  0  0  0
  190.5160  177.0890  147.1140 C   0  0  0  0  0  2  0  0  0  0  0  0
  189.4420  177.6220  148.0080 C   0  0  0  0  0  0  0  0  0  0  0  0
  189.6590  178.5770  148.7340 O   0  0  0  0  0  0  0  0  0  0  0  0
  188.1080  176.9600  148.0330 C   0  0  0  0  0  1  0  0  0  0  0  0
  187.0800  178.4830  137.0180 C   0  0  0  0  0  2  0  0  0  0  0  0
  184.7840  177.5740  137.5280 C   0  0  0  0  0  0  0  0  0  0  0  0
  185.9390  176.2960  136.1190 C   0  0  0  0  0  0  0  0  0  0  0  0
  184.8360  175.6390  136.2620 N   0  0  0  0  0  0  0  0  0  0  0  0
  183.9640  176.3760  137.1720 C   0  0  0  0  0  2  0  0  0  0  0  0
  186.9550  175.8660  135.3320 F   0  0  0  0  0  0  0  0  0  0  0  0
  185.9420  177.5190  136.8920 C   0  0  0  0  0  0  0  0  0  0  0  0
  184.3790  178.6030  138.4460 C   0  0  0  0  0  0  0  0  0  0  0  0
  184.0400  179.4660  139.2170 C   0  0  0  0  0  3  0  0  0  0  0  0
  1 15  1  0  0  0  0
  2 18  1  0  0  0  0
  3  8  1  0  0  0  0
  4 16  1  0  0  0  0
  4  3  2  0  0  0  0
  5 14  1  0  0  0  0
  6 13  2  0  0  0  0
  7  1  2  0  0  0  0
  8 10  2  0  0  0  0
  9  2  2  0  0  0  0
  9  6  1  0  0  0  0
 10  9  1  0  0  0  0
 11 19  2  0  0  0  0
 12 15  1  0  0  0  0
 13  5  1  0  0  0  0
 13  7  1  0  0  0  0
 14 12  1  0  0  0  0
 15 20  1  1  0  0  0
 16 17  2  0  0  0  0
 17 11  1  0  0  0  0
 17 10  1  0  0  0  0
 18  5  2  0  0  0  0
 19  2  1  0  0  0  0
 20 21  1  0  0  0  0
 21 23  1  0  0  0  0
 21 22  2  0  0  0  0
 24 11  1  0  0  0  0
 25 31  1  0  0  0  0
 26 27  2  0  0  0  0
 26 30  1  0  0  0  0
 27 28  1  0  0  0  0
 28 25  1  0  0  0  0
 29 26  1  0  0  0  0
 30 24  1  0  0  0  0
 30 25  2  0  0  0  0
 31 32  3  0  0  0  0
M  END
>  <MODEL>
3

>  <REMARK>
 VINA RESULT:      -8.9      3.100      5.557
  Name = 
  5 active torsions:
  status: ('A' for Active; 'I' for Inactive)
    1  A    between atoms: C_1  and  C_10
    2  A    between atoms: C_6  and  C_7
    3  A    between atoms: C_10  and  C_24
    4  A    between atoms: C_16  and  C_27
    5  A    between atoms: C_27  and  C_32
                            x       y       z     vdW  Elec       q    Type
                         _______ _______ _______ _____ _____    ______ ____

>  <TORSDO>
F 5

$$$$
=
 OpenBabel10262421303D

 32 36  0  0  1  0  0  0  0  0999 V2000
  190.9410  177.0160  144.8960 C   0  0  0  0  0  3  0  0  0  0  0  0
  186.8200  178.1420  141.7250 C   0  0  0  0  0  0  0  0  0  0  0  0
  189.1260  178.3700  137.5310 C   0  0  0  0  0  3  0  0  0  0  0  0
  187.9180  178.6630  136.8960 C   0  0  0  0  0  3  0  0  0  0  0  0
  187.9980  177.6490  143.7950 C   0  0  0  0  0  0  0  0  0  0  0  0
  189.2100  177.7510  141.6900 C   0  0  0  0  0  3  0  0  0  0  0  0
  190.5670  177.2840  143.6410 C   0  0  0  0  0  3  0  0  0  0  0  0
  189.1450  178.1710  138.8750 N   0  0  0  0  0  0  0  0  0  0  0  0
  188.0260  178.0460  141.0070 C   0  0  0  0  0  0  0  0  0  0  0  0
  188.0070  178.2530  139.6190 C   0  0  0  0  0  0  0  0  0  0  0  0
  185.6100  178.6330  139.7350 C   0  0  0  0  0  0  0  0  0  0  0  0
  188.9710  177.9050  146.0960 C   0  0  0  0  0  2  0  0  0  0  0  0
  189.2220  177.5410  143.0750 C   0  0  0  0  0  0  0  0  0  0  0  0
  187.8290  177.3840  145.2580 C   0  0  0  0  0  2  0  0  0  0  0  0
  190.0510  176.8480  146.0790 C   0  0  2  0  0  3  0  0  0  0  0  0
  186.7770  178.7470  137.6300 N   0  0  0  0  0  0  0  0  0  0  0  0
  186.7870  178.5480  138.9760 C   0  0  0  0  0  0  0  0  0  0  0  0
  186.8160  177.9370  143.1030 C   0  0  0  0  0  3  0  0  0  0  0  0
  185.6580  178.4260  141.0790 N   0  0  0  0  0  0  0  0  0  0  0  0
  190.8910  176.9260  147.3440 C   0  0  0  0  0  2  0  0  0  0  0  0
  191.9740  175.8940  147.3400 C   0  0  0  0  0  0  0  0  0  0  0  0
  192.0560  175.0860  146.4300 O   0  0  0  0  0  0  0  0  0  0  0  0
  192.9400  175.8340  148.4730 C   0  0  0  0  0  1  0  0  0  0  0  0
  184.2910  178.9120  139.0880 C   0  0  0  0  0  2  0  0  0  0  0  0
  182.4510  177.3520  139.8240 C   0  0  0  0  0  0  0  0  0  0  0  0
  183.6790  176.5340  138.1580 C   0  0  0  0  0  0  0  0  0  0  0  0
  182.8410  175.5800  138.3910 N   0  0  0  0  0  0  0  0  0  0  0  0
  181.9540  175.9860  139.4760 C   0  0  0  0  0  2  0  0  0  0  0  0
  184.6370  176.4570  137.2020 F   0  0  0  0  0  0  0  0  0  0  0  0
  183.4630  177.6670  139.0330 C   0  0  0  0  0  0  0  0  0  0  0  0
  181.9250  178.1740  140.8800 C   0  0  0  0  0  0  0  0  0  0  0  0
  181.4840  178.8620  141.7660 C   0  0  0  0  0  3  0  0  0  0  0  0
  1 15  1  0  0  0  0
  2 18  1  0  0  0  0
  3  8  1  0  0  0  0
  4  3  2  0  0  0  0
  4 16  1  0  0  0  0
  5 14  1  0  0  0  0
  6 13  2  0  0  0  0
  7  1  2  0  0  0  0
  8 10  2  0  0  0  0
  9  6  1  0  0  0  0
  9  2  2  0  0  0  0
 10  9  1  0  0  0  0
 11 19  2  0  0  0  0
 13  7  1  0  0  0  0
 13  5  1  0  0  0  0
 14 12  1  0  0  0  0
 15 12  1  0  0  0  0
 15 20  1  1  0  0  0
 16 17  2  0  0  0  0
 17 10  1  0  0  0  0
 17 11  1  0  0  0  0
 18  5  2  0  0  0  0
 19  2  1  0  0  0  0
 21 20  1  0  0  0  0
 21 23  1  0  0  0  0
 22 21  2  0  0  0  0
 24 11  1  0  0  0  0
 25 31  1  0  0  0  0
 26 27  2  0  0  0  0
 26 30  1  0  0  0  0
 27 28  1  0  0  0  0
 28 25  1  0  0  0  0
 29 26  1  0  0  0  0
 30 24  1  0  0  0  0
 30 25  2  0  0  0  0
 31 32  3  0  0  0  0
M  END
>  <MODEL>
4

>  <REMARK>
 VINA RESULT:      -8.7      2.023      4.082
  Name = 
  5 active torsions:
  status: ('A' for Active; 'I' for Inactive)
    1  A    between atoms: C_1  and  C_10
    2  A    between atoms: C_6  and  C_7
    3  A    between atoms: C_10  and  C_24
    4  A    between atoms: C_16  and  C_27
    5  A    between atoms: C_27  and  C_32
                            x       y       z     vdW  Elec       q    Type
                         _______ _______ _______ _____ _____    ______ ____

>  <TORSDO>
F 5

$$$$
=
 OpenBabel10262421303D

 32 36  0  0  1  0  0  0  0  0999 V2000
  182.4930  178.5780  142.2450 C   0  0  0  0  0  3  0  0  0  0  0  0
  187.4770  178.3440  144.0930 C   0  0  0  0  0  0  0  0  0  0  0  0
  189.7410  177.1840  140.0330 C   0  0  0  0  0  3  0  0  0  0  0  0
  190.9530  177.1740  140.7250 C   0  0  0  0  0  3  0  0  0  0  0  0
  185.0670  178.6660  144.1540 C   0  0  0  0  0  0  0  0  0  0  0  0
  186.1730  178.0820  142.0690 C   0  0  0  0  0  3  0  0  0  0  0  0
  183.7670  178.3220  141.9290 C   0  0  0  0  0  3  0  0  0  0  0  0
  188.5920  177.4750  140.6970 N   0  0  0  0  0  0  0  0  0  0  0  0
  187.4120  178.0590  142.7170 C   0  0  0  0  0  0  0  0  0  0  0  0
  188.5980  177.7570  142.0300 C   0  0  0  0  0  0  0  0  0  0  0  0
  189.8370  178.0380  144.1010 C   0  0  0  0  0  0  0  0  0  0  0  0
  182.6370  178.3420  144.7010 C   0  0  0  0  0  2  0  0  0  0  0  0
  184.9930  178.3890  142.7590 C   0  0  0  0  0  0  0  0  0  0  0  0
  183.9160  179.0800  145.0160 C   0  0  0  0  0  2  0  0  0  0  0  0
  181.9770  179.0690  143.5540 C   0  0  2  0  0  3  0  0  0  0  0  0
  190.9690  177.4540  142.0550 N   0  0  0  0  0  0  0  0  0  0  0  0
  189.8230  177.7470  142.7280 C   0  0  0  0  0  0  0  0  0  0  0  0
  186.3120  178.6500  144.7930 C   0  0  0  0  0  3  0  0  0  0  0  0
  188.6720  178.3290  144.7400 N   0  0  0  0  0  0  0  0  0  0  0  0
  180.4700  178.8700  143.5950 C   0  0  0  0  0  2  0  0  0  0  0  0
  179.7840  179.7030  142.5600 C   0  0  0  0  0  0  0  0  0  0  0  0
  179.8950  180.9180  142.5680 O   0  0  0  0  0  0  0  0  0  0  0  0
  178.9320  179.0450  141.5290 C   0  0  0  0  0  1  0  0  0  0  0  0
  191.1180  178.0700  144.8720 C   0  0  0  0  0  2  0  0  0  0  0  0
  190.8920  176.6210  146.9230 C   0  0  0  0  0  0  0  0  0  0  0  0
  191.9670  175.6150  145.2540 C   0  0  0  0  0  0  0  0  0  0  0  0
  191.9960  174.7260  146.1900 N   0  0  0  0  0  0  0  0  0  0  0  0
  191.3110  175.2560  147.3650 C   0  0  0  0  0  2  0  0  0  0  0  0
  192.5250  175.4200  144.0340 F   0  0  0  0  0  0  0  0  0  0  0  0
  191.2770  176.8160  145.6730 C   0  0  0  0  0  0  0  0  0  0  0  0
  190.2070  177.5780  147.7490 C   0  0  0  0  0  0  0  0  0  0  0  0
  189.6310  178.3810  148.4400 C   0  0  0  0  0  3  0  0  0  0  0  0
  1 15  1  0  0  0  0
  2 19  1  0  0  0  0
  2 18  2  0  0  0  0
  3  8  2  0  0  0  0
  3  4  1  0  0  0  0
  4 16  2  0  0  0  0
  5 18  1  0  0  0  0
  5 14  1  0  0  0  0
  6  9  2  0  0  0  0
  6 13  1  0  0  0  0
  7  1  2  0  0  0  0
  7 13  1  0  0  0  0
  8 10  1  0  0  0  0
  9  2  1  0  0  0  0
 10  9  1  0  0  0  0
 10 17  2  0  0  0  0
 11 19  2  0  0  0  0
 11 24  1  0  0  0  0
 12 14  1  0  0  0  0
 13  5  2  0  0  0  0
 15 20  1  6  0  0  0
 15 12  1  0  0  0  0
 16 17  1  0  0  0  0
 17 11  1  0  0  0  0
 21 22  2  0  0  0  0
 21 20  1  0  0  0  0
 23 21  1  0  0  0  0
 24 30  1  0  0  0  0
 25 28  1  0  0  0  0
 25 31  1  0  0  0  0
 26 30  1  0  0  0  0
 26 27  2  0  0  0  0
 27 28  1  0  0  0  0
 29 26  1  0  0  0  0
 30 25  2  0  0  0  0
 31 32  3  0  0  0  0
M  END
>  <MODEL>
5

>  <REMARK>
 VINA RESULT:      -8.5      4.118      8.914
  Name = 
  5 active torsions:
  status: ('A' for Active; 'I' for Inactive)
    1  A    between atoms: C_1  and  C_10
    2  A    between atoms: C_6  and  C_7
    3  A    between atoms: C_10  and  C_24
    4  A    between atoms: C_16  and  C_27
    5  A    between atoms: C_27  and  C_32
                            x       y       z     vdW  Elec       q    Type
                         _______ _______ _______ _____ _____    ______ ____

>  <TORSDO>
F 5

$$$$
=
 OpenBabel10262421303D

 32 36  0  0  1  0  0  0  0  0999 V2000
  191.0310  177.0140  145.1760 C   0  0  0  0  0  3  0  0  0  0  0  0
  187.0050  178.1410  141.8870 C   0  0  0  0  0  0  0  0  0  0  0  0
  189.4270  178.3350  137.7570 C   0  0  0  0  0  3  0  0  0  0  0  0
  188.2380  178.6300  137.0870 C   0  0  0  0  0  3  0  0  0  0  0  0
  188.1230  177.6540  143.9920 C   0  0  0  0  0  0  0  0  0  0  0  0
  189.3930  177.7380  141.9200 C   0  0  0  0  0  3  0  0  0  0  0  0
  190.6930  177.2760  143.9100 C   0  0  0  0  0  3  0  0  0  0  0  0
  189.4080  178.1440  139.1020 N   0  0  0  0  0  0  0  0  0  0  0  0
  188.2290  178.0360  141.2030 C   0  0  0  0  0  0  0  0  0  0  0  0
  188.2500  178.2340  139.8140 C   0  0  0  0  0  0  0  0  0  0  0  0
  185.8530  178.6270  139.8610 C   0  0  0  0  0  0  0  0  0  0  0  0
  189.0330  177.9180  146.3170 C   0  0  0  0  0  2  0  0  0  0  0  0
  189.3650  177.5360  143.3050 C   0  0  0  0  0  0  0  0  0  0  0  0
  187.9120  177.3980  145.4500 C   0  0  0  0  0  2  0  0  0  0  0  0
  190.1080  176.8560  146.3350 C   0  0  2  0  0  3  0  0  0  0  0  0
  187.0780  178.7230  137.7880 N   0  0  0  0  0  0  0  0  0  0  0  0
  187.0500  178.5320  139.1350 C   0  0  0  0  0  0  0  0  0  0  0  0
  186.9620  177.9430  143.2650 C   0  0  0  0  0  3  0  0  0  0  0  0
  185.8630  178.4270  141.2070 N   0  0  0  0  0  0  0  0  0  0  0  0
  190.9130  176.9370  147.6230 C   0  0  0  0  0  2  0  0  0  0  0  0
  192.0580  175.9740  147.6080 C   0  0  0  0  0  0  0  0  0  0  0  0
  192.1670  175.1550  146.7100 O   0  0  0  0  0  0  0  0  0  0  0  0
  193.0550  175.9970  148.7140 C   0  0  0  0  0  1  0  0  0  0  0  0
  184.5530  178.9080  139.1770 C   0  0  0  0  0  2  0  0  0  0  0  0
  183.5820  176.8220  138.1470 C   0  0  0  0  0  0  0  0  0  0  0  0
  182.7790  177.2520  140.1770 C   0  0  0  0  0  0  0  0  0  0  0  0
  182.1350  176.1860  139.8350 N   0  0  0  0  0  0  0  0  0  0  0  0
  182.5720  175.7790  138.5020 C   0  0  0  0  0  3  0  0  0  0  0  0
  182.5920  177.8750  141.3660 F   0  0  0  0  0  0  0  0  0  0  0  0
  183.7010  177.6790  139.1470 C   0  0  2  0  0  3  0  0  0  0  0  0
  184.2850  176.8920  136.8940 C   0  0  0  0  0  0  0  0  0  0  0  0
  184.8740  176.9520  135.8440 C   0  0  0  0  0  3  0  0  0  0  0  0
  1 15  1  0  0  0  0
  2 18  1  0  0  0  0
  3  8  1  0  0  0  0
  4  3  2  0  0  0  0
  4 16  1  0  0  0  0
  5 14  1  0  0  0  0
  6 13  2  0  0  0  0
  7  1  2  0  0  0  0
  8 10  2  0  0  0  0
  9  2  2  0  0  0  0
  9  6  1  0  0  0  0
 10  9  1  0  0  0  0
 11 19  2  0  0  0  0
 12 15  1  0  0  0  0
 13  7  1  0  0  0  0
 13  5  1  0  0  0  0
 14 12  1  0  0  0  0
 15 20  1  1  0  0  0
 16 17  2  0  0  0  0
 17 10  1  0  0  0  0
 17 11  1  0  0  0  0
 18  5  2  0  0  0  0
 19  2  1  0  0  0  0
 21 20  1  0  0  0  0
 21 23  1  0  0  0  0
 22 21  2  0  0  0  0
 24 11  1  0  0  0  0
 25 28  2  0  0  0  0
 25 30  1  0  0  0  0
 26 29  1  0  0  0  0
 27 26  2  0  0  0  0
 28 27  1  0  0  0  0
 30 24  1  6  0  0  0
 30 26  1  0  0  0  0
 31 25  1  0  0  0  0
 32 31  3  0  0  0  0
M  END
>  <MODEL>
6

>  <REMARK>
 VINA RESULT:      -8.5      2.287      4.330
  Name = 
  5 active torsions:
  status: ('A' for Active; 'I' for Inactive)
    1  A    between atoms: C_1  and  C_10
    2  A    between atoms: C_6  and  C_7
    3  A    between atoms: C_10  and  C_24
    4  A    between atoms: C_16  and  C_27
    5  A    between atoms: C_27  and  C_32
                            x       y       z     vdW  Elec       q    Type
                         _______ _______ _______ _____ _____    ______ ____

>  <TORSDO>
F 5

$$$$
=
 OpenBabel10262421303D

 32 36  0  0  1  0  0  0  0  0999 V2000
  180.5170  179.8780  142.6540 C   0  0  0  0  0  3  0  0  0  0  0  0
  185.3990  177.8500  143.2520 C   0  0  0  0  0  0  0  0  0  0  0  0
  186.0700  178.8350  147.8930 C   0  0  0  0  0  3  0  0  0  0  0  0
  187.3360  178.2520  147.8220 C   0  0  0  0  0  3  0  0  0  0  0  0
  183.3380  178.4560  142.1110 C   0  0  0  0  0  0  0  0  0  0  0  0
  183.6320  178.9730  144.4690 C   0  0  0  0  0  3  0  0  0  0  0  0
  181.5270  179.6900  143.5090 C   0  0  0  0  0  3  0  0  0  0  0  0
  185.2880  178.8760  146.7830 N   0  0  0  0  0  0  0  0  0  0  0  0
  184.9080  178.4000  144.4500 C   0  0  0  0  0  0  0  0  0  0  0  0
  185.7150  178.3590  145.5970 C   0  0  0  0  0  0  0  0  0  0  0  0
  187.4410  177.2350  144.3090 C   0  0  0  0  0  0  0  0  0  0  0  0
  181.7340  179.5600  140.5260 C   0  0  0  0  0  2  0  0  0  0  0  0
  182.8280  179.0060  143.3220 C   0  0  0  0  0  0  0  0  0  0  0  0
  182.5820  178.3490  140.8250 C   0  0  0  0  0  2  0  0  0  0  0  0
  180.4240  179.3740  141.2550 C   0  0  2  0  0  3  0  0  0  0  0  0
  187.7710  177.7350  146.6430 N   0  0  0  0  0  0  0  0  0  0  0  0
  186.9950  177.7710  145.5270 C   0  0  0  0  0  0  0  0  0  0  0  0
  184.6120  177.8770  142.1030 C   0  0  0  0  0  3  0  0  0  0  0  0
  186.6360  177.2870  143.2130 N   0  0  0  0  0  0  0  0  0  0  0  0
  179.3060  180.1150  140.5370 C   0  0  0  0  0  2  0  0  0  0  0  0
  179.1830  179.6660  139.1160 C   0  0  0  0  0  0  0  0  0  0  0  0
  179.2620  180.4720  138.2030 O   0  0  0  0  0  0  0  0  0  0  0  0
  178.9310  178.2290  138.8150 C   0  0  0  0  0  1  0  0  0  0  0  0
  188.7780  176.5730  144.1990 C   0  0  0  0  0  2  0  0  0  0  0  0
  190.8880  177.7860  144.8570 C   0  0  0  0  0  0  0  0  0  0  0  0
  189.9200  178.6360  143.0440 C   0  0  0  0  0  0  0  0  0  0  0  0
  190.9370  179.4120  143.2150 N   0  0  0  0  0  0  0  0  0  0  0  0
  191.6810  178.9620  144.3880 C   0  0  0  0  0  2  0  0  0  0  0  0
  189.0320  178.7980  142.0330 F   0  0  0  0  0  0  0  0  0  0  0  0
  189.8580  177.5980  144.0500 C   0  0  0  0  0  0  0  0  0  0  0  0
  191.1900  177.0060  146.0270 C   0  0  0  0  0  0  0  0  0  0  0  0
  191.4440  176.3520  147.0080 C   0  0  0  0  0  3  0  0  0  0  0  0
  1  7  2  0  0  0  0
  2  9  1  0  0  0  0
  4  3  1  0  0  0  0
  5 13  1  0  0  0  0
  8  3  2  0  0  0  0
  9  6  1  0  0  0  0
  9 10  2  0  0  0  0
 10  8  1  0  0  0  0
 11 17  2  0  0  0  0
 12 14  1  0  0  0  0
 12 15  1  0  0  0  0
 13  7  1  0  0  0  0
 13  6  2  0  0  0  0
 14  5  1  0  0  0  0
 15 20  1  6  0  0  0
 15  1  1  0  0  0  0
 16  4  2  0  0  0  0
 17 10  1  0  0  0  0
 17 16  1  0  0  0  0
 18  5  2  0  0  0  0
 18  2  1  0  0  0  0
 19  2  2  0  0  0  0
 19 11  1  0  0  0  0
 21 20  1  0  0  0  0
 22 21  2  0  0  0  0
 23 21  1  0  0  0  0
 24 11  1  0  0  0  0
 25 31  1  0  0  0  0
 26 27  2  0  0  0  0
 26 30  1  0  0  0  0
 27 28  1  0  0  0  0
 28 25  1  0  0  0  0
 29 26  1  0  0  0  0
 30 24  1  0  0  0  0
 30 25  2  0  0  0  0
 31 32  3  0  0  0  0
M  END
>  <MODEL>
7

>  <REMARK>
 VINA RESULT:      -8.4      3.797      8.595
  Name = 
  5 active torsions:
  status: ('A' for Active; 'I' for Inactive)
    1  A    between atoms: C_1  and  C_10
    2  A    between atoms: C_6  and  C_7
    3  A    between atoms: C_10  and  C_24
    4  A    between atoms: C_16  and  C_27
    5  A    between atoms: C_27  and  C_32
                            x       y       z     vdW  Elec       q    Type
                         _______ _______ _______ _____ _____    ______ ____

>  <TORSDO>
F 5

$$$$
=
 OpenBabel10262421303D

 32 36  0  0  1  0  0  0  0  0999 V2000
  190.1100  176.7770  147.1980 C   0  0  0  0  0  3  0  0  0  0  0  0
  189.2110  177.6990  142.0360 C   0  0  0  0  0  0  0  0  0  0  0  0
  184.5570  178.8180  142.2610 C   0  0  0  0  0  3  0  0  0  0  0  0
  184.5470  179.0030  140.8780 C   0  0  0  0  0  3  0  0  0  0  0  0
  190.4750  177.1200  144.0320 C   0  0  0  0  0  0  0  0  0  0  0  0
  188.1150  177.6850  144.1960 C   0  0  0  0  0  3  0  0  0  0  0  0
  189.1850  177.1020  146.2890 C   0  0  0  0  0  3  0  0  0  0  0  0
  185.7110  178.4520  142.8800 N   0  0  0  0  0  0  0  0  0  0  0  0
  188.0520  177.8830  142.8130 C   0  0  0  0  0  0  0  0  0  0  0  0
  186.8610  178.2600  142.1750 C   0  0  0  0  0  0  0  0  0  0  0  0
  188.0300  178.2530  140.0450 C   0  0  0  0  0  0  0  0  0  0  0  0
  191.8180  175.8060  145.6980 C   0  0  0  0  0  2  0  0  0  0  0  0
  189.3090  177.3130  144.8280 C   0  0  0  0  0  0  0  0  0  0  0  0
  191.8370  176.7950  144.5590 C   0  0  0  0  0  2  0  0  0  0  0  0
  191.5690  176.5930  146.9640 C   0  0  2  0  0  3  0  0  0  0  0  0
  185.6890  178.8140  140.1670 N   0  0  0  0  0  0  0  0  0  0  0  0
  186.8480  178.4480  140.7780 C   0  0  0  0  0  0  0  0  0  0  0  0
  190.4050  177.3290  142.6500 C   0  0  0  0  0  3  0  0  0  0  0  0
  189.1710  177.8890  140.6910 N   0  0  0  0  0  0  0  0  0  0  0  0
  192.1760  175.8790  148.1620 C   0  0  0  0  0  2  0  0  0  0  0  0
  192.7700  176.8510  149.1300 C   0  0  0  0  0  0  0  0  0  0  0  0
  192.3280  177.9850  149.2180 O   0  0  0  0  0  0  0  0  0  0  0  0
  193.9310  176.4420  149.9680 C   0  0  0  0  0  1  0  0  0  0  0  0
  188.0680  178.4730  138.5660 C   0  0  0  0  0  2  0  0  0  0  0  0
  187.2680  176.4550  137.2830 C   0  0  0  0  0  0  0  0  0  0  0  0
  189.4480  176.4040  137.7240 C   0  0  0  0  0  0  0  0  0  0  0  0
  189.2550  175.2870  137.1070 N   0  0  0  0  0  0  0  0  0  0  0  0
  187.8440  175.1850  136.7460 C   0  0  0  0  0  3  0  0  0  0  0  0
  190.6620  176.7890  138.1890 F   0  0  0  0  0  0  0  0  0  0  0  0
  188.2260  177.1700  137.8490 C   0  0  2  0  0  3  0  0  0  0  0  0
  185.8780  176.8190  137.2180 C   0  0  0  0  0  0  0  0  0  0  0  0
  184.7130  177.1250  137.1650 C   0  0  0  0  0  3  0  0  0  0  0  0
  2 18  2  0  0  0  0
  2  9  1  0  0  0  0
  3  8  1  0  0  0  0
  4  3  2  0  0  0  0
  5 14  1  0  0  0  0
  5 13  2  0  0  0  0
  6 13  1  0  0  0  0
  7  1  2  0  0  0  0
  9  6  2  0  0  0  0
 10  9  1  0  0  0  0
 10  8  2  0  0  0  0
 11 19  2  0  0  0  0
 11 17  1  0  0  0  0
 12 15  1  0  0  0  0
 13  7  1  0  0  0  0
 14 12  1  0  0  0  0
 15  1  1  0  0  0  0
 15 20  1  1  0  0  0
 16 17  2  0  0  0  0
 16  4  1  0  0  0  0
 17 10  1  0  0  0  0
 18  5  1  0  0  0  0
 19  2  1  0  0  0  0
 20 21  1  0  0  0  0
 21 22  2  0  0  0  0
 21 23  1  0  0  0  0
 24 11  1  0  0  0  0
 25 30  1  0  0  0  0
 26 30  1  0  0  0  0
 26 29  1  0  0  0  0
 27 26  2  0  0  0  0
 28 27  1  0  0  0  0
 28 25  2  0  0  0  0
 30 24  1  1  0  0  0
 31 25  1  0  0  0  0
 32 31  3  0  0  0  0
M  END
>  <MODEL>
8

>  <REMARK>
 VINA RESULT:      -8.3      2.492      3.797
  Name = 
  5 active torsions:
  status: ('A' for Active; 'I' for Inactive)
    1  A    between atoms: C_1  and  C_10
    2  A    between atoms: C_6  and  C_7
    3  A    between atoms: C_10  and  C_24
    4  A    between atoms: C_16  and  C_27
    5  A    between atoms: C_27  and  C_32
                            x       y       z     vdW  Elec       q    Type
                         _______ _______ _______ _____ _____    ______ ____

>  <TORSDO>
F 5

$$$$
=
 OpenBabel10262421303D

 32 36  0  0  1  0  0  0  0  0999 V2000
  187.7140  177.6370  145.9860 C   0  0  0  0  0  3  0  0  0  0  0  0
  186.9740  178.2290  140.7510 C   0  0  0  0  0  0  0  0  0  0  0  0
  182.2250  178.8730  140.7220 C   0  0  0  0  0  3  0  0  0  0  0  0
  182.2620  178.9930  139.3320 C   0  0  0  0  0  3  0  0  0  0  0  0
  188.1930  177.8730  142.8260 C   0  0  0  0  0  0  0  0  0  0  0  0
  185.7830  178.1990  142.8610 C   0  0  0  0  0  3  0  0  0  0  0  0
  186.8060  177.8240  145.0240 C   0  0  0  0  0  3  0  0  0  0  0  0
  183.3790  178.6550  141.4060 N   0  0  0  0  0  0  0  0  0  0  0  0
  185.7670  178.3270  141.4680 C   0  0  0  0  0  0  0  0  0  0  0  0
  184.5750  178.5500  140.7620 C   0  0  0  0  0  0  0  0  0  0  0  0
  185.8380  178.5680  138.6870 C   0  0  0  0  0  0  0  0  0  0  0  0
  189.5810  176.7800  144.6110 C   0  0  0  0  0  2  0  0  0  0  0  0
  186.9770  177.9810  143.5600 C   0  0  0  0  0  0  0  0  0  0  0  0
  189.5540  177.7140  143.4250 C   0  0  0  0  0  2  0  0  0  0  0  0
  189.1940  177.5930  145.8240 C   0  0  2  0  0  3  0  0  0  0  0  0
  183.4500  178.8900  138.6800 N   0  0  0  0  0  0  0  0  0  0  0  0
  184.6100  178.6730  139.3580 C   0  0  0  0  0  0  0  0  0  0  0  0
  188.1680  178.0110  141.4340 C   0  0  0  0  0  3  0  0  0  0  0  0
  186.9790  178.3530  139.3980 N   0  0  0  0  0  0  0  0  0  0  0  0
  189.8120  177.0000  147.0810 C   0  0  0  0  0  2  0  0  0  0  0  0
  191.2760  176.7520  146.9010 C   0  0  0  0  0  0  0  0  0  0  0  0
  191.9400  177.4690  146.1700 O   0  0  0  0  0  0  0  0  0  0  0  0
  191.9200  175.6030  147.5960 C   0  0  0  0  0  1  0  0  0  0  0  0
  185.9250  178.7230  137.2020 C   0  0  0  0  0  2  0  0  0  0  0  0
  185.6790  176.4560  136.1270 C   0  0  0  0  0  0  0  0  0  0  0  0
  187.8000  177.0610  136.4190 C   0  0  0  0  0  0  0  0  0  0  0  0
  187.9070  175.8840  135.9000 N   0  0  0  0  0  0  0  0  0  0  0  0
  186.5700  175.3570  135.6460 C   0  0  0  0  0  3  0  0  0  0  0  0
  188.8720  177.8120  136.7700 F   0  0  0  0  0  0  0  0  0  0  0  0
  186.4170  177.4590  136.5720 C   0  0  2  0  0  3  0  0  0  0  0  0
  184.2410  176.4060  136.1330 C   0  0  0  0  0  0  0  0  0  0  0  0
  183.0370  176.3630  136.1390 C   0  0  0  0  0  3  0  0  0  0  0  0
  2 18  2  0  0  0  0
  2  9  1  0  0  0  0
  3  8  1  0  0  0  0
  4  3  2  0  0  0  0
  5 14  1  0  0  0  0
  5 13  2  0  0  0  0
  6 13  1  0  0  0  0
  7  1  2  0  0  0  0
  9  6  2  0  0  0  0
 10  8  2  0  0  0  0
 10  9  1  0  0  0  0
 11 17  1  0  0  0  0
 11 19  2  0  0  0  0
 12 15  1  0  0  0  0
 13  7  1  0  0  0  0
 14 12  1  0  0  0  0
 15  1  1  0  0  0  0
 15 20  1  1  0  0  0
 16  4  1  0  0  0  0
 16 17  2  0  0  0  0
 17 10  1  0  0  0  0
 18  5  1  0  0  0  0
 19  2  1  0  0  0  0
 21 20  1  0  0  0  0
 21 23  1  0  0  0  0
 22 21  2  0  0  0  0
 24 11  1  0  0  0  0
 25 31  1  0  0  0  0
 25 30  1  0  0  0  0
 26 30  1  0  0  0  0
 26 29  1  0  0  0  0
 27 26  2  0  0  0  0
 28 27  1  0  0  0  0
 28 25  2  0  0  0  0
 30 24  1  1  0  0  0
 31 32  3  0  0  0  0
M  END
>  <MODEL>
9

>  <REMARK>
 VINA RESULT:      -8.3      1.808      2.466
  Name = 
  5 active torsions:
  status: ('A' for Active; 'I' for Inactive)
    1  A    between atoms: C_1  and  C_10
    2  A    between atoms: C_6  and  C_7
    3  A    between atoms: C_10  and  C_24
    4  A    between atoms: C_16  and  C_27
    5  A    between atoms: C_27  and  C_32
                            x       y       z     vdW  Elec       q    Type
                         _______ _______ _______ _____ _____    ______ ____

>  <TORSDO>
F 5

$$$$
