=
 OpenBabel10262421113D

 32 36  0  0  1  0  0  0  0  0999 V2000
  187.6800  177.8710  143.4530 N   0  0  0  0  0  0  0  0  0  0  0  0
  189.1920  177.6990  141.1380 C   0  0  0  0  0  0  0  0  0  0  0  0
  186.7600  177.1100  144.2990 C   0  0  0  0  0  2  0  0  0  0  0  0
  187.1670  178.6280  142.2970 C   0  0  1  0  0  3  0  0  0  0  0  0
  187.3550  178.4350  139.8040 N   0  0  0  0  0  0  0  0  0  0  0  0
  191.8790  176.6020  138.8150 C   0  0  0  0  0  3  0  0  0  0  0  0
  187.8890  178.2080  141.0360 C   0  0  0  0  0  0  0  0  0  0  0  0
  189.9610  177.3540  137.5360 C   0  0  0  0  0  3  0  0  0  0  0  0
  189.2810  177.6400  138.7230 C   0  0  0  0  0  0  0  0  0  0  0  0
  185.6340  178.5270  142.1970 C   0  0  1  0  0  3  0  0  0  0  0  0
  188.0250  178.1510  138.6850 N   0  0  0  0  0  0  0  0  0  0  0  0
  185.0020  178.8200  143.5590 C   0  0  0  0  0  2  0  0  0  0  0  0
  189.7790  177.4800  142.4300 N   0  0  0  0  0  0  0  0  0  0  0  0
  189.0890  177.5810  143.5280 C   0  0  0  0  0  0  0  0  0  0  0  0
  189.9010  177.4070  139.9670 C   0  0  0  0  0  0  0  0  0  0  0  0
  185.5620  177.9640  144.7030 C   0  0  0  0  0  2  0  0  0  0  0  0
  191.2580  176.8350  137.5830 C   0  0  0  0  0  3  0  0  0  0  0  0
  191.2030  176.8870  140.0050 C   0  0  0  0  0  3  0  0  0  0  0  0
  191.4750  176.2570  146.1920 C   0  0  0  0  0  0  0  0  0  0  0  0
  192.5990  175.4480  146.3210 O   0  0  0  0  0  1  0  0  0  0  0  0
  189.7480  177.3030  144.8250 C   0  0  0  0  0  0  0  0  0  0  0  0
  190.9290  176.8490  147.3310 C   0  0  0  0  0  3  0  0  0  0  0  0
  189.2080  177.8750  145.9850 C   0  0  0  0  0  3  0  0  0  0  0  0
  190.8890  176.4720  144.9330 C   0  0  0  0  0  0  0  0  0  0  0  0
  191.4510  175.7610  143.7410 C   0  0  0  0  0  1  0  0  0  0  0  0
  189.7890  177.6580  147.2350 C   0  0  0  0  0  0  0  0  0  0  0  0
  187.8980  177.9640  148.8000 C   0  0  0  0  0  1  0  0  0  0  0  0
  189.2180  178.2560  148.3610 O   0  0  0  0  0  0  0  0  0  0  0  0
  185.1260  179.4890  141.2320 N   0  0  0  0  0  2  0  0  0  0  0  0
  183.9100  178.9300  140.6690 C   0  0  0  0  0  2  0  0  0  0  0  0
  183.8660  179.2130  139.1820 C   0  0  0  0  0  2  0  0  0  0  0  0
  184.3080  180.5130  138.9440 O   0  0  0  0  0  1  0  0  0  0  0  0
  1 14  1  0  0  0  0
  1  3  1  0  0  0  0
  2 13  1  0  0  0  0
  3 16  1  0  0  0  0
  4  7  1  6  0  0  0
  4  1  1  0  0  0  0
  5  7  2  0  0  0  0
  6 18  2  0  0  0  0
  7  2  1  0  0  0  0
  8 17  2  0  0  0  0
  8  9  1  0  0  0  0
  9 15  1  0  0  0  0
 10 29  1  6  0  0  0
 10  4  1  0  0  0  0
 10 12  1  0  0  0  0
 11  9  2  0  0  0  0
 11  5  1  0  0  0  0
 12 16  1  0  0  0  0
 13 14  2  0  0  0  0
 14 21  1  0  0  0  0
 15 18  1  0  0  0  0
 15  2  2  0  0  0  0
 17  6  1  0  0  0  0
 19 20  1  0  0  0  0
 19 22  1  0  0  0  0
 21 24  1  0  0  0  0
 21 23  2  0  0  0  0
 23 26  1  0  0  0  0
 24 19  2  0  0  0  0
 25 24  1  0  0  0  0
 26 22  2  0  0  0  0
 26 28  1  0  0  0  0
 28 27  1  0  0  0  0
 30 29  1  0  0  0  0
 31 30  1  0  0  0  0
 32 31  1  0  0  0  0
M  END
>  <MODEL>
1

>  <REMARK>
 VINA RESULT:     -10.2      0.000      0.000
  Name = 
  5 active torsions:
  status: ('A' for Active; 'I' for Inactive)
    1  A    between atoms: C_13  and  C_18
    2  A    between atoms: C_14  and  N_29
    3  A    between atoms: O_15  and  C_26
    4  A    between atoms: C_16  and  C_27
    5  A    between atoms: C_18  and  N_29
                            x       y       z     vdW  Elec       q    Type
                         _______ _______ _______ _____ _____    ______ ____

>  <TORSDO>
F 5

$$$$
=
 OpenBabel10262421113D

 32 36  0  0  1  0  0  0  0  0999 V2000
  188.8240  177.8380  143.0180 N   0  0  0  0  0  0  0  0  0  0  0  0
  186.0680  178.0960  142.9300 C   0  0  0  0  0  0  0  0  0  0  0  0
  190.0640  178.6140  143.0470 C   0  0  0  0  0  2  0  0  0  0  0  0
  188.1920  177.5020  141.7300 C   0  0  1  0  0  3  0  0  0  0  0  0
  186.0830  178.1610  140.5440 N   0  0  0  0  0  0  0  0  0  0  0  0
  182.6170  178.9220  144.0380 C   0  0  0  0  0  3  0  0  0  0  0  0
  186.7560  177.9760  141.7140 C   0  0  0  0  0  0  0  0  0  0  0  0
  182.7250  178.9810  141.6170 C   0  0  0  0  0  3  0  0  0  0  0  0
  184.0780  178.6380  141.6680 C   0  0  0  0  0  0  0  0  0  0  0  0
  189.0290  178.0160  140.5440 C   0  0  1  0  0  3  0  0  0  0  0  0
  184.7900  178.4910  140.5220 N   0  0  0  0  0  0  0  0  0  0  0  0
  190.4940  177.6160  140.7270 C   0  0  0  0  0  2  0  0  0  0  0  0
  186.7570  177.8770  144.1710 N   0  0  0  0  0  0  0  0  0  0  0  0
  188.0480  177.7280  144.2270 C   0  0  0  0  0  0  0  0  0  0  0  0
  184.7100  178.4340  142.9120 C   0  0  0  0  0  0  0  0  0  0  0  0
  191.0910  178.0360  142.0770 C   0  0  0  0  0  2  0  0  0  0  0  0
  181.9960  179.1240  142.8010 C   0  0  0  0  0  3  0  0  0  0  0  0
  183.9710  178.5780  144.0950 C   0  0  0  0  0  3  0  0  0  0  0  0
  188.6940  177.5870  147.9820 C   0  0  0  0  0  0  0  0  0  0  0  0
  188.0490  177.8170  149.1920 O   0  0  0  0  0  1  0  0  0  0  0  0
  188.6990  177.5460  145.5440 C   0  0  0  0  0  0  0  0  0  0  0  0
  190.0220  177.1580  147.9900 C   0  0  0  0  0  3  0  0  0  0  0  0
  190.0360  177.1280  145.5760 C   0  0  0  0  0  3  0  0  0  0  0  0
  188.0240  177.7910  146.7640 C   0  0  0  0  0  0  0  0  0  0  0  0
  186.6260  178.3260  146.7870 C   0  0  0  0  0  1  0  0  0  0  0  0
  190.7020  176.9300  146.7870 C   0  0  0  0  0  0  0  0  0  0  0  0
  192.5790  175.6340  147.7450 C   0  0  0  0  0  1  0  0  0  0  0  0
  192.0340  176.5070  146.7660 O   0  0  0  0  0  0  0  0  0  0  0  0
  188.5430  177.4450  139.2980 N   0  0  0  0  0  2  0  0  0  0  0  0
  189.5910  177.6220  138.3080 C   0  0  0  0  0  2  0  0  0  0  0  0
  189.0340  178.3610  137.1100 C   0  0  0  0  0  2  0  0  0  0  0  0
  188.9500  179.7220  137.4020 O   0  0  0  0  0  1  0  0  0  0  0  0
  1  3  1  0  0  0  0
  1 14  1  0  0  0  0
  2 13  1  0  0  0  0
  4  7  1  1  0  0  0
  4  1  1  0  0  0  0
  5  7  1  0  0  0  0
  6 18  1  0  0  0  0
  7  2  2  0  0  0  0
  8  9  2  0  0  0  0
  8 17  1  0  0  0  0
  9 15  1  0  0  0  0
 10 29  1  6  0  0  0
 10 12  1  0  0  0  0
 10  4  1  0  0  0  0
 11  5  2  0  0  0  0
 11  9  1  0  0  0  0
 12 16  1  0  0  0  0
 13 14  2  0  0  0  0
 14 21  1  0  0  0  0
 15  2  1  0  0  0  0
 15 18  2  0  0  0  0
 16  3  1  0  0  0  0
 17  6  2  0  0  0  0
 19 22  1  0  0  0  0
 19 20  1  0  0  0  0
 21 23  2  0  0  0  0
 21 24  1  0  0  0  0
 23 26  1  0  0  0  0
 24 25  1  0  0  0  0
 24 19  2  0  0  0  0
 26 22  2  0  0  0  0
 28 26  1  0  0  0  0
 28 27  1  0  0  0  0
 30 29  1  0  0  0  0
 31 32  1  0  0  0  0
 31 30  1  0  0  0  0
M  END
>  <MODEL>
2

>  <REMARK>
 VINA RESULT:      -9.5      1.644      5.221
  Name = 
  5 active torsions:
  status: ('A' for Active; 'I' for Inactive)
    1  A    between atoms: C_13  and  C_18
    2  A    between atoms: C_14  and  N_29
    3  A    between atoms: O_15  and  C_26
    4  A    between atoms: C_16  and  C_27
    5  A    between atoms: C_18  and  N_29
                            x       y       z     vdW  Elec       q    Type
                         _______ _______ _______ _____ _____    ______ ____

>  <TORSDO>
F 5

$$$$
=
 OpenBabel10262421113D

 32 36  0  0  1  0  0  0  0  0999 V2000
  189.2890  177.2470  142.7580 N   0  0  0  0  0  0  0  0  0  0  0  0
  186.6820  178.1550  142.9860 C   0  0  0  0  0  0  0  0  0  0  0  0
  190.0950  176.0260  142.7180 C   0  0  0  0  0  2  0  0  0  0  0  0
  188.9360  177.8580  144.0520 C   0  0  1  0  0  3  0  0  0  0  0  0
  186.8260  178.1700  145.3680 N   0  0  0  0  0  0  0  0  0  0  0  0
  183.1320  178.7920  142.0860 C   0  0  0  0  0  3  0  0  0  0  0  0
  187.4370  178.0210  144.1610 C   0  0  0  0  0  0  0  0  0  0  0  0
  183.3640  178.7760  144.4990 C   0  0  0  0  0  3  0  0  0  0  0  0
  184.7320  178.5270  144.3670 C   0  0  0  0  0  0  0  0  0  0  0  0
  189.5640  177.0850  145.2260 C   0  0  1  0  0  3  0  0  0  0  0  0
  185.5160  178.4060  145.4680 N   0  0  0  0  0  0  0  0  0  0  0  0
  191.0490  176.8360  144.9540 C   0  0  0  0  0  2  0  0  0  0  0  0
  187.3170  178.0270  141.7040 N   0  0  0  0  0  0  0  0  0  0  0  0
  188.5490  177.6260  141.5820 C   0  0  0  0  0  0  0  0  0  0  0  0
  185.3090  178.4090  143.0860 C   0  0  0  0  0  0  0  0  0  0  0  0
  191.3300  176.1620  143.6040 C   0  0  0  0  0  2  0  0  0  0  0  0
  182.5650  178.9070  143.3600 C   0  0  0  0  0  3  0  0  0  0  0  0
  184.5010  178.5430  141.9480 C   0  0  0  0  0  3  0  0  0  0  0  0
  189.0010  177.5960  137.7960 C   0  0  0  0  0  0  0  0  0  0  0  0
  188.2940  177.8560  136.6270 O   0  0  0  0  0  1  0  0  0  0  0  0
  189.1290  177.4780  140.2270 C   0  0  0  0  0  0  0  0  0  0  0  0
  190.3290  177.1760  137.7070 C   0  0  0  0  0  3  0  0  0  0  0  0
  190.4570  177.0430  140.1140 C   0  0  0  0  0  3  0  0  0  0  0  0
  188.3880  177.7440  139.0520 C   0  0  0  0  0  0  0  0  0  0  0  0
  186.9410  178.1210  139.1110 C   0  0  0  0  0  1  0  0  0  0  0  0
  191.0640  176.8930  138.8660 C   0  0  0  0  0  0  0  0  0  0  0  0
  193.1140  176.3670  137.5860 C   0  0  0  0  0  1  0  0  0  0  0  0
  192.3920  176.4640  138.8060 O   0  0  0  0  0  0  0  0  0  0  0  0
  189.4380  177.8480  146.4580 N   0  0  0  0  0  2  0  0  0  0  0  0
  189.3490  176.8910  147.5470 C   0  0  0  0  0  2  0  0  0  0  0  0
  188.1470  177.2190  148.4080 C   0  0  0  0  0  2  0  0  0  0  0  0
  188.0250  178.6020  148.5270 O   0  0  0  0  0  1  0  0  0  0  0  0
  1  4  1  0  0  0  0
  2 15  2  0  0  0  0
  2  7  1  0  0  0  0
  3  1  1  0  0  0  0
  3 16  1  0  0  0  0
  4  7  1  1  0  0  0
  4 10  1  0  0  0  0
  5 11  1  0  0  0  0
  6 17  1  0  0  0  0
  7  5  2  0  0  0  0
  9  8  1  0  0  0  0
  9 11  2  0  0  0  0
 10 29  1  1  0  0  0
 12 10  1  0  0  0  0
 13  2  1  0  0  0  0
 14 13  2  0  0  0  0
 14  1  1  0  0  0  0
 15  9  1  0  0  0  0
 16 12  1  0  0  0  0
 17  8  2  0  0  0  0
 18  6  2  0  0  0  0
 18 15  1  0  0  0  0
 19 24  1  0  0  0  0
 20 19  1  0  0  0  0
 21 14  1  0  0  0  0
 22 19  2  0  0  0  0
 22 26  1  0  0  0  0
 23 21  1  0  0  0  0
 24 25  1  0  0  0  0
 24 21  2  0  0  0  0
 26 23  2  0  0  0  0
 27 28  1  0  0  0  0
 28 26  1  0  0  0  0
 29 30  1  0  0  0  0
 30 31  1  0  0  0  0
 31 32  1  0  0  0  0
M  END
>  <MODEL>
3

>  <REMARK>
 VINA RESULT:      -9.2      2.177      7.498
  Name = 
  5 active torsions:
  status: ('A' for Active; 'I' for Inactive)
    1  A    between atoms: C_13  and  C_18
    2  A    between atoms: C_14  and  N_29
    3  A    between atoms: O_15  and  C_26
    4  A    between atoms: C_16  and  C_27
    5  A    between atoms: C_18  and  N_29
                            x       y       z     vdW  Elec       q    Type
                         _______ _______ _______ _____ _____    ______ ____

>  <TORSDO>
F 5

$$$$
=
 OpenBabel10262421113D

 32 36  0  0  1  0  0  0  0  0999 V2000
  187.8960  177.7460  141.6210 N   0  0  0  0  0  0  0  0  0  0  0  0
  189.1850  177.0750  143.9790 C   0  0  0  0  0  0  0  0  0  0  0  0
  187.6270  178.8680  140.7230 C   0  0  0  0  0  2  0  0  0  0  0  0
  187.0200  177.5000  142.7810 C   0  0  1  0  0  3  0  0  0  0  0  0
  187.2630  177.6490  145.2720 N   0  0  0  0  0  0  0  0  0  0  0  0
  191.9690  176.4380  146.3590 C   0  0  0  0  0  3  0  0  0  0  0  0
  187.8370  177.4560  144.0530 C   0  0  0  0  0  0  0  0  0  0  0  0
  189.9730  177.0450  147.5940 C   0  0  0  0  0  3  0  0  0  0  0  0
  189.2690  177.1730  146.3940 C   0  0  0  0  0  0  0  0  0  0  0  0
  185.8550  178.5050  142.8260 C   0  0  1  0  0  3  0  0  0  0  0  0
  187.9580  177.5220  146.4040 N   0  0  0  0  0  0  0  0  0  0  0  0
  185.1870  178.5920  141.4520 C   0  0  0  0  0  2  0  0  0  0  0  0
  189.7990  176.8410  142.7020 N   0  0  0  0  0  0  0  0  0  0  0  0
  189.1960  177.1270  141.5850 C   0  0  0  0  0  0  0  0  0  0  0  0
  189.9170  176.9340  145.1650 C   0  0  0  0  0  0  0  0  0  0  0  0
  186.1590  178.8890  140.3040 C   0  0  0  0  0  2  0  0  0  0  0  0
  191.3220  176.6780  147.5760 C   0  0  0  0  0  3  0  0  0  0  0  0
  191.2690  176.5650  145.1560 C   0  0  0  0  0  3  0  0  0  0  0  0
  191.9150  176.8050  138.9310 C   0  0  0  0  0  0  0  0  0  0  0  0
  193.2900  176.9450  138.7790 O   0  0  0  0  0  1  0  0  0  0  0  0
  189.9030  176.8970  140.3040 C   0  0  0  0  0  0  0  0  0  0  0  0
  191.1450  176.4260  137.8310 C   0  0  0  0  0  3  0  0  0  0  0  0
  189.1470  176.5290  139.1820 C   0  0  0  0  0  3  0  0  0  0  0  0
  191.3030  177.0500  140.1720 C   0  0  0  0  0  0  0  0  0  0  0  0
  192.1450  177.5310  141.3120 C   0  0  0  0  0  1  0  0  0  0  0  0
  189.7560  176.2890  137.9490 C   0  0  0  0  0  0  0  0  0  0  0  0
  187.8660  175.0190  136.9820 C   0  0  0  0  0  1  0  0  0  0  0  0
  188.9600  175.9180  136.8620 O   0  0  0  0  0  0  0  0  0  0  0  0
  184.8610  178.0840  143.8010 N   0  0  0  0  0  2  0  0  0  0  0  0
  183.6060  178.7140  143.4330 C   0  0  0  0  0  2  0  0  0  0  0  0
  182.8210  179.0440  144.6850 C   0  0  0  0  0  2  0  0  0  0  0  0
  183.6890  179.1010  145.7750 O   0  0  0  0  0  1  0  0  0  0  0  0
  1  4  1  0  0  0  0
  2  7  2  0  0  0  0
  2 15  1  0  0  0  0
  3  1  1  0  0  0  0
  4 10  1  0  0  0  0
  4  7  1  1  0  0  0
  5 11  2  0  0  0  0
  6 17  1  0  0  0  0
  7  5  1  0  0  0  0
  9 11  1  0  0  0  0
  9  8  1  0  0  0  0
 10 29  1  1  0  0  0
 12 10  1  0  0  0  0
 13  2  1  0  0  0  0
 14  1  1  0  0  0  0
 14 13  2  0  0  0  0
 15  9  2  0  0  0  0
 16  3  1  0  0  0  0
 16 12  1  0  0  0  0
 17  8  2  0  0  0  0
 18 15  1  0  0  0  0
 18  6  2  0  0  0  0
 19 24  1  0  0  0  0
 20 19  1  0  0  0  0
 21 14  1  0  0  0  0
 22 26  1  0  0  0  0
 22 19  2  0  0  0  0
 23 21  1  0  0  0  0
 24 21  2  0  0  0  0
 24 25  1  0  0  0  0
 26 23  2  0  0  0  0
 28 27  1  0  0  0  0
 28 26  1  0  0  0  0
 30 29  1  0  0  0  0
 30 31  1  0  0  0  0
 31 32  1  0  0  0  0
M  END
>  <MODEL>
4

>  <REMARK>
 VINA RESULT:      -9.1      2.536      6.391
  Name = 
  5 active torsions:
  status: ('A' for Active; 'I' for Inactive)
    1  A    between atoms: C_13  and  C_18
    2  A    between atoms: C_14  and  N_29
    3  A    between atoms: O_15  and  C_26
    4  A    between atoms: C_16  and  C_27
    5  A    between atoms: C_18  and  N_29
                            x       y       z     vdW  Elec       q    Type
                         _______ _______ _______ _____ _____    ______ ____

>  <TORSDO>
F 5

$$$$
=
 OpenBabel10262421113D

 32 36  0  0  1  0  0  0  0  0999 V2000
  186.4530  178.2810  142.2590 N   0  0  0  0  0  0  0  0  0  0  0  0
  187.2960  177.8780  144.8670 C   0  0  0  0  0  0  0  0  0  0  0  0
  186.2820  179.3170  141.2400 C   0  0  0  0  0  2  0  0  0  0  0  0
  185.3860  178.0300  143.2440 C   0  0  1  0  0  3  0  0  0  0  0  0
  185.1170  178.3560  145.7150 N   0  0  0  0  0  0  0  0  0  0  0  0
  189.5920  177.6450  147.7810 C   0  0  0  0  0  3  0  0  0  0  0  0
  185.9350  178.1390  144.6490 C   0  0  0  0  0  0  0  0  0  0  0  0
  187.3500  178.1450  148.5560 C   0  0  0  0  0  3  0  0  0  0  0  0
  186.8900  178.1340  147.2370 C   0  0  0  0  0  0  0  0  0  0  0  0
  184.1620  178.9260  142.9840 C   0  0  1  0  0  3  0  0  0  0  0  0
  185.5800  178.3630  146.9670 N   0  0  0  0  0  0  0  0  0  0  0  0
  183.7750  178.8660  141.5050 C   0  0  0  0  0  2  0  0  0  0  0  0
  188.1660  177.6220  143.7540 N   0  0  0  0  0  0  0  0  0  0  0  0
  187.7780  177.7820  142.5230 C   0  0  0  0  0  0  0  0  0  0  0  0
  187.7850  177.8780  146.1780 C   0  0  0  0  0  0  0  0  0  0  0  0
  184.9310  179.1780  140.5460 C   0  0  0  0  0  2  0  0  0  0  0  0
  188.6990  177.9020  148.8280 C   0  0  0  0  0  3  0  0  0  0  0  0
  189.1370  177.6330  146.4590 C   0  0  0  0  0  3  0  0  0  0  0  0
  191.0000  177.2610  140.5500 C   0  0  0  0  0  0  0  0  0  0  0  0
  192.3780  177.2260  140.7330 O   0  0  0  0  0  1  0  0  0  0  0  0
  188.7400  177.5370  141.4240 C   0  0  0  0  0  0  0  0  0  0  0  0
  190.4780  177.0530  139.2730 C   0  0  0  0  0  3  0  0  0  0  0  0
  188.2390  177.3400  140.1300 C   0  0  0  0  0  3  0  0  0  0  0  0
  190.1400  177.5100  141.6340 C   0  0  0  0  0  0  0  0  0  0  0  0
  190.7330  177.8060  142.9750 C   0  0  0  0  0  1  0  0  0  0  0  0
  189.0950  177.0960  139.0540 C   0  0  0  0  0  0  0  0  0  0  0  0
  187.2010  177.2320  137.4680 C   0  0  0  0  0  1  0  0  0  0  0  0
  188.5460  176.8990  137.7840 O   0  0  0  0  0  0  0  0  0  0  0  0
  183.0290  178.4790  143.7800 N   0  0  0  0  0  2  0  0  0  0  0  0
  181.8260  178.9340  143.1060 C   0  0  0  0  0  2  0  0  0  0  0  0
  180.6190  178.6280  143.9680 C   0  0  0  0  0  2  0  0  0  0  0  0
  179.6820  177.9180  143.2180 O   0  0  0  0  0  1  0  0  0  0  0  0
  1 14  1  0  0  0  0
  1  4  1  0  0  0  0
  2 15  1  0  0  0  0
  3  1  1  0  0  0  0
  4  7  1  1  0  0  0
  5 11  2  0  0  0  0
  6 17  1  0  0  0  0
  7  2  2  0  0  0  0
  7  5  1  0  0  0  0
  8 17  2  0  0  0  0
  9  8  1  0  0  0  0
 10  4  1  0  0  0  0
 10 29  1  1  0  0  0
 11  9  1  0  0  0  0
 12 10  1  0  0  0  0
 13  2  1  0  0  0  0
 14 13  2  0  0  0  0
 15 18  1  0  0  0  0
 15  9  2  0  0  0  0
 16  3  1  0  0  0  0
 16 12  1  0  0  0  0
 18  6  2  0  0  0  0
 19 20  1  0  0  0  0
 19 24  1  0  0  0  0
 21 24  2  0  0  0  0
 21 14  1  0  0  0  0
 22 19  2  0  0  0  0
 23 21  1  0  0  0  0
 24 25  1  0  0  0  0
 26 22  1  0  0  0  0
 26 23  2  0  0  0  0
 27 28  1  0  0  0  0
 28 26  1  0  0  0  0
 30 29  1  0  0  0  0
 30 31  1  0  0  0  0
 32 31  1  0  0  0  0
M  END
>  <MODEL>
5

>  <REMARK>
 VINA RESULT:      -9.1      2.603      6.462
  Name = 
  5 active torsions:
  status: ('A' for Active; 'I' for Inactive)
    1  A    between atoms: C_13  and  C_18
    2  A    between atoms: C_14  and  N_29
    3  A    between atoms: O_15  and  C_26
    4  A    between atoms: C_16  and  C_27
    5  A    between atoms: C_18  and  N_29
                            x       y       z     vdW  Elec       q    Type
                         _______ _______ _______ _____ _____    ______ ____

>  <TORSDO>
F 5

$$$$
=
 OpenBabel10262421113D

 32 36  0  0  1  0  0  0  0  0999 V2000
  189.6540  177.7350  142.5870 N   0  0  0  0  0  0  0  0  0  0  0  0
  186.9600  178.0700  142.0320 C   0  0  0  0  0  0  0  0  0  0  0  0
  190.8880  178.4770  142.8450 C   0  0  0  0  0  2  0  0  0  0  0  0
  189.2450  177.4390  141.2020 C   0  0  1  0  0  3  0  0  0  0  0  0
  187.3880  178.1760  139.6870 N   0  0  0  0  0  0  0  0  0  0  0  0
  183.3910  178.9700  142.5490 C   0  0  0  0  0  3  0  0  0  0  0  0
  187.8440  177.9520  140.9500 C   0  0  0  0  0  0  0  0  0  0  0  0
  183.9150  179.0690  140.1840 C   0  0  0  0  0  3  0  0  0  0  0  0
  185.2310  178.6880  140.4590 C   0  0  0  0  0  0  0  0  0  0  0  0
  190.2850  177.9510  140.1890 C   0  0  1  0  0  3  0  0  0  0  0  0
  186.1260  178.5410  139.4500 N   0  0  0  0  0  0  0  0  0  0  0  0
  191.6870  177.5080  140.6120 C   0  0  0  0  0  2  0  0  0  0  0  0
  187.4200  177.8100  143.3680 N   0  0  0  0  0  0  0  0  0  0  0  0
  188.6780  177.6260  143.6410 C   0  0  0  0  0  0  0  0  0  0  0  0
  185.6340  178.4450  141.7880 C   0  0  0  0  0  0  0  0  0  0  0  0
  192.0520  177.8880  142.0540 C   0  0  0  0  0  2  0  0  0  0  0  0
  182.9970  179.2110  141.2280 C   0  0  0  0  0  3  0  0  0  0  0  0
  184.7060  178.5890  142.8300 C   0  0  0  0  0  3  0  0  0  0  0  0
  188.6430  177.3340  147.4430 C   0  0  0  0  0  0  0  0  0  0  0  0
  187.7840  177.4910  148.5250 O   0  0  0  0  0  1  0  0  0  0  0  0
  189.0880  177.4030  145.0470 C   0  0  0  0  0  0  0  0  0  0  0  0
  189.9630  176.9430  147.6740 C   0  0  0  0  0  3  0  0  0  0  0  0
  190.4120  177.0230  145.3040 C   0  0  0  0  0  3  0  0  0  0  0  0
  188.1960  177.5730  146.1320 C   0  0  0  0  0  0  0  0  0  0  0  0
  186.7990  178.0670  145.9230 C   0  0  0  0  0  1  0  0  0  0  0  0
  190.8560  176.7890  146.6060 C   0  0  0  0  0  0  0  0  0  0  0  0
  192.6010  175.6470  147.9370 C   0  0  0  0  0  1  0  0  0  0  0  0
  192.1840  176.4050  146.8100 O   0  0  0  0  0  0  0  0  0  0  0  0
  190.0080  177.4150  138.8660 N   0  0  0  0  0  2  0  0  0  0  0  0
  190.7820  176.1940  138.7270 C   0  0  0  0  0  2  0  0  0  0  0  0
  190.1630  175.3230  137.6540 C   0  0  0  0  0  2  0  0  0  0  0  0
  188.8260  175.6800  137.4820 O   0  0  0  0  0  1  0  0  0  0  0  0
  1  3  1  0  0  0  0
  1 14  1  0  0  0  0
  2 13  1  0  0  0  0
  4  7  1  6  0  0  0
  4  1  1  0  0  0  0
  5  7  1  0  0  0  0
  6 18  1  0  0  0  0
  7  2  2  0  0  0  0
  8  9  2  0  0  0  0
  8 17  1  0  0  0  0
  9 15  1  0  0  0  0
 10 29  1  6  0  0  0
 10 12  1  0  0  0  0
 10  4  1  0  0  0  0
 11  5  2  0  0  0  0
 11  9  1  0  0  0  0
 12 16  1  0  0  0  0
 13 14  2  0  0  0  0
 14 21  1  0  0  0  0
 15  2  1  0  0  0  0
 15 18  2  0  0  0  0
 16  3  1  0  0  0  0
 17  6  2  0  0  0  0
 19 22  1  0  0  0  0
 19 20  1  0  0  0  0
 21 23  2  0  0  0  0
 21 24  1  0  0  0  0
 23 26  1  0  0  0  0
 24 19  2  0  0  0  0
 25 24  1  0  0  0  0
 26 28  1  0  0  0  0
 26 22  2  0  0  0  0
 28 27  1  0  0  0  0
 30 29  1  0  0  0  0
 31 30  1  0  0  0  0
 32 31  1  0  0  0  0
M  END
>  <MODEL>
6

>  <REMARK>
 VINA RESULT:      -9.1      1.717      5.095
  Name = 
  5 active torsions:
  status: ('A' for Active; 'I' for Inactive)
    1  A    between atoms: C_13  and  C_18
    2  A    between atoms: C_14  and  N_29
    3  A    between atoms: O_15  and  C_26
    4  A    between atoms: C_16  and  C_27
    5  A    between atoms: C_18  and  N_29
                            x       y       z     vdW  Elec       q    Type
                         _______ _______ _______ _____ _____    ______ ____

>  <TORSDO>
F 5

$$$$
=
 OpenBabel10262421113D

 32 36  0  0  1  0  0  0  0  0999 V2000
  189.7760  176.8840  142.8840 N   0  0  0  0  0  0  0  0  0  0  0  0
  187.2080  177.9210  142.8260 C   0  0  0  0  0  0  0  0  0  0  0  0
  190.5200  175.6290  142.9920 C   0  0  0  0  0  2  0  0  0  0  0  0
  189.3470  177.5960  144.1010 C   0  0  1  0  0  3  0  0  0  0  0  0
  187.1510  178.0910  145.2060 N   0  0  0  0  0  0  0  0  0  0  0  0
  183.7840  178.6550  141.5810 C   0  0  0  0  0  3  0  0  0  0  0  0
  187.8530  177.8330  144.0680 C   0  0  0  0  0  0  0  0  0  0  0  0
  183.8100  178.7910  144.0010 C   0  0  0  0  0  3  0  0  0  0  0  0
  185.1710  178.4730  144.0040 C   0  0  0  0  0  0  0  0  0  0  0  0
  189.8330  176.8760  145.3720 C   0  0  1  0  0  3  0  0  0  0  0  0
  185.8510  178.3910  145.1760 N   0  0  0  0  0  0  0  0  0  0  0  0
  191.3210  176.5430  145.2470 C   0  0  0  0  0  2  0  0  0  0  0  0
  187.9420  177.6790  141.6150 N   0  0  0  0  0  0  0  0  0  0  0  0
  189.1580  177.2160  141.6260 C   0  0  0  0  0  0  0  0  0  0  0  0
  185.8460  178.2430  142.7890 C   0  0  0  0  0  0  0  0  0  0  0  0
  191.6810  175.7680  143.9730 C   0  0  0  0  0  2  0  0  0  0  0  0
  183.1180  178.8810  142.7900 C   0  0  0  0  0  3  0  0  0  0  0  0
  185.1450  178.3360  141.5790 C   0  0  0  0  0  3  0  0  0  0  0  0
  191.8170  176.9060  138.9110 C   0  0  0  0  0  0  0  0  0  0  0  0
  193.1740  177.1280  138.7060 O   0  0  0  0  0  1  0  0  0  0  0  0
  189.8420  176.9510  140.3400 C   0  0  0  0  0  0  0  0  0  0  0  0
  191.0440  176.4040  137.8630 C   0  0  0  0  0  3  0  0  0  0  0  0
  189.0830  176.4600  139.2690 C   0  0  0  0  0  3  0  0  0  0  0  0
  191.2240  177.1890  140.1530 C   0  0  0  0  0  0  0  0  0  0  0  0
  192.0630  177.7990  141.2320 C   0  0  0  0  0  1  0  0  0  0  0  0
  189.6710  176.1820  138.0340 C   0  0  0  0  0  0  0  0  0  0  0  0
  187.4570  175.6160  137.0880 C   0  0  0  0  0  1  0  0  0  0  0  0
  188.8730  175.6880  136.9990 O   0  0  0  0  0  0  0  0  0  0  0  0
  189.6430  177.7250  146.5380 N   0  0  0  0  0  2  0  0  0  0  0  0
  189.4940  176.8490  147.6860 C   0  0  0  0  0  2  0  0  0  0  0  0
  188.2580  177.2460  148.4660 C   0  0  0  0  0  2  0  0  0  0  0  0
  188.0890  178.6280  148.3950 O   0  0  0  0  0  1  0  0  0  0  0  0
  1  3  1  0  0  0  0
  1  4  1  0  0  0  0
  2  7  1  0  0  0  0
  3 16  1  0  0  0  0
  4  7  1  1  0  0  0
  4 10  1  0  0  0  0
  6 17  1  0  0  0  0
  7  5  2  0  0  0  0
  8  9  1  0  0  0  0
  9 11  2  0  0  0  0
 10 29  1  1  0  0  0
 11  5  1  0  0  0  0
 12 10  1  0  0  0  0
 13 14  2  0  0  0  0
 13  2  1  0  0  0  0
 14  1  1  0  0  0  0
 15  2  2  0  0  0  0
 15  9  1  0  0  0  0
 16 12  1  0  0  0  0
 17  8  2  0  0  0  0
 18  6  2  0  0  0  0
 18 15  1  0  0  0  0
 19 24  1  0  0  0  0
 20 19  1  0  0  0  0
 21 14  1  0  0  0  0
 22 26  1  0  0  0  0
 22 19  2  0  0  0  0
 23 21  1  0  0  0  0
 24 21  2  0  0  0  0
 24 25  1  0  0  0  0
 26 23  2  0  0  0  0
 28 27  1  0  0  0  0
 28 26  1  0  0  0  0
 29 30  1  0  0  0  0
 30 31  1  0  0  0  0
 32 31  1  0  0  0  0
M  END
>  <MODEL>
7

>  <REMARK>
 VINA RESULT:      -9.0      2.308      7.175
  Name = 
  5 active torsions:
  status: ('A' for Active; 'I' for Inactive)
    1  A    between atoms: C_13  and  C_18
    2  A    between atoms: C_14  and  N_29
    3  A    between atoms: O_15  and  C_26
    4  A    between atoms: C_16  and  C_27
    5  A    between atoms: C_18  and  N_29
                            x       y       z     vdW  Elec       q    Type
                         _______ _______ _______ _____ _____    ______ ____

>  <TORSDO>
F 5

$$$$
=
 OpenBabel10262421113D

 32 36  0  0  1  0  0  0  0  0999 V2000
  190.1850  177.5230  142.5330 N   0  0  0  0  0  0  0  0  0  0  0  0
  187.4420  177.8920  142.4340 C   0  0  0  0  0  0  0  0  0  0  0  0
  191.4530  178.2480  142.6140 C   0  0  0  0  0  2  0  0  0  0  0  0
  189.5540  177.2810  141.2220 C   0  0  1  0  0  3  0  0  0  0  0  0
  187.4860  178.0840  140.0560 N   0  0  0  0  0  0  0  0  0  0  0  0
  184.0130  178.7900  143.5550 C   0  0  0  0  0  3  0  0  0  0  0  0
  188.1380  177.8100  141.2190 C   0  0  0  0  0  0  0  0  0  0  0  0
  184.1490  178.9750  141.1410 C   0  0  0  0  0  3  0  0  0  0  0  0
  185.4880  178.5770  141.1860 C   0  0  0  0  0  0  0  0  0  0  0  0
  190.4230  177.8250  140.0740 C   0  0  1  0  0  3  0  0  0  0  0  0
  186.2060  178.4640  140.0400 N   0  0  0  0  0  0  0  0  0  0  0  0
  191.8700  177.3590  140.2480 C   0  0  0  0  0  2  0  0  0  0  0  0
  188.1080  177.5800  143.6680 N   0  0  0  0  0  0  0  0  0  0  0  0
  189.3920  177.3790  143.7260 C   0  0  0  0  0  0  0  0  0  0  0  0
  186.0980  178.2830  142.4220 C   0  0  0  0  0  0  0  0  0  0  0  0
  192.4670  177.6820  141.6240 C   0  0  0  0  0  2  0  0  0  0  0  0
  183.4130  179.0820  142.3250 C   0  0  0  0  0  3  0  0  0  0  0  0
  185.3520  178.3920  143.6050 C   0  0  0  0  0  3  0  0  0  0  0  0
  191.6800  176.0100  146.4530 C   0  0  0  0  0  0  0  0  0  0  0  0
  192.7630  175.1530  146.6160 O   0  0  0  0  0  1  0  0  0  0  0  0
  190.0210  177.1010  145.0380 C   0  0  0  0  0  0  0  0  0  0  0  0
  191.1460  176.6520  147.5710 C   0  0  0  0  0  3  0  0  0  0  0  0
  189.4930  177.7250  146.1770 C   0  0  0  0  0  3  0  0  0  0  0  0
  191.1200  176.2220  145.1810 C   0  0  0  0  0  0  0  0  0  0  0  0
  191.6640  175.4590  144.0140 C   0  0  0  0  0  1  0  0  0  0  0  0
  190.0470  177.5110  147.4400 C   0  0  0  0  0  0  0  0  0  0  0  0
  188.0920  178.1700  148.8050 C   0  0  0  0  0  1  0  0  0  0  0  0
  189.4880  178.1610  148.5440 O   0  0  0  0  0  0  0  0  0  0  0  0
  189.9300  177.3400  138.7940 N   0  0  0  0  0  2  0  0  0  0  0  0
  190.5920  176.0750  138.5310 C   0  0  0  0  0  2  0  0  0  0  0  0
  189.9670  175.4220  137.3160 C   0  0  0  0  0  2  0  0  0  0  0  0
  189.9940  174.0370  137.4680 O   0  0  0  0  0  1  0  0  0  0  0  0
  1  3  1  0  0  0  0
  1 14  1  0  0  0  0
  2 13  1  0  0  0  0
  4  7  1  1  0  0  0
  4  1  1  0  0  0  0
  5  7  1  0  0  0  0
  6 18  1  0  0  0  0
  7  2  2  0  0  0  0
  8  9  2  0  0  0  0
  8 17  1  0  0  0  0
  9 15  1  0  0  0  0
 10 29  1  6  0  0  0
 10 12  1  0  0  0  0
 10  4  1  0  0  0  0
 11  5  2  0  0  0  0
 11  9  1  0  0  0  0
 12 16  1  0  0  0  0
 13 14  2  0  0  0  0
 14 21  1  0  0  0  0
 15  2  1  0  0  0  0
 15 18  2  0  0  0  0
 16  3  1  0  0  0  0
 17  6  2  0  0  0  0
 19 20  1  0  0  0  0
 19 22  1  0  0  0  0
 21 24  1  0  0  0  0
 21 23  2  0  0  0  0
 23 26  1  0  0  0  0
 24 19  2  0  0  0  0
 25 24  1  0  0  0  0
 26 22  2  0  0  0  0
 26 28  1  0  0  0  0
 28 27  1  0  0  0  0
 30 29  1  0  0  0  0
 31 32  1  0  0  0  0
 31 30  1  0  0  0  0
M  END
>  <MODEL>
8

>  <REMARK>
 VINA RESULT:      -8.9      1.856      4.829
  Name = 
  5 active torsions:
  status: ('A' for Active; 'I' for Inactive)
    1  A    between atoms: C_13  and  C_18
    2  A    between atoms: C_14  and  N_29
    3  A    between atoms: O_15  and  C_26
    4  A    between atoms: C_16  and  C_27
    5  A    between atoms: C_18  and  N_29
                            x       y       z     vdW  Elec       q    Type
                         _______ _______ _______ _____ _____    ______ ____

>  <TORSDO>
F 5

$$$$
=
 OpenBabel10262421113D

 32 36  0  0  1  0  0  0  0  0999 V2000
  185.9130  178.2260  144.2190 N   0  0  0  0  0  0  0  0  0  0  0  0
  187.7000  177.7210  142.1640 C   0  0  0  0  0  0  0  0  0  0  0  0
  185.4320  179.2850  145.1070 C   0  0  0  0  0  2  0  0  0  0  0  0
  187.1010  177.4360  144.5860 C   0  0  1  0  0  3  0  0  0  0  0  0
  189.4420  177.2120  143.7140 N   0  0  0  0  0  0  0  0  0  0  0  0
  189.2320  177.8520  138.7800 C   0  0  0  0  0  3  0  0  0  0  0  0
  188.1310  177.4970  143.4800 C   0  0  0  0  0  0  0  0  0  0  0  0
  190.9430  177.3530  140.4240 C   0  0  0  0  0  3  0  0  0  0  0  0
  189.9840  177.4000  141.4380 C   0  0  0  0  0  0  0  0  0  0  0  0
  187.6460  177.8510  145.9650 C   0  0  1  0  0  3  0  0  0  0  0  0
  190.3400  177.1740  142.7280 N   0  0  0  0  0  0  0  0  0  0  0  0
  186.5050  177.9070  146.9820 C   0  0  0  0  0  2  0  0  0  0  0  0
  186.3160  177.9960  141.8970 N   0  0  0  0  0  0  0  0  0  0  0  0
  185.4590  178.2110  142.8520 C   0  0  0  0  0  0  0  0  0  0  0  0
  188.6370  177.6760  141.1250 C   0  0  0  0  0  0  0  0  0  0  0  0
  185.3220  178.7810  146.5430 C   0  0  0  0  0  2  0  0  0  0  0  0
  190.5680  177.5790  139.0960 C   0  0  0  0  0  3  0  0  0  0  0  0
  188.2680  177.9000  139.7910 C   0  0  0  0  0  3  0  0  0  0  0  0
  182.2870  179.0490  140.9090 C   0  0  0  0  0  0  0  0  0  0  0  0
  181.8530  179.2800  139.6080 O   0  0  0  0  0  1  0  0  0  0  0  0
  184.0540  178.5290  142.5050 C   0  0  0  0  0  0  0  0  0  0  0  0
  181.3650  179.1130  141.9540 C   0  0  0  0  0  3  0  0  0  0  0  0
  183.1130  178.6120  143.5400 C   0  0  0  0  0  3  0  0  0  0  0  0
  183.6370  178.7640  141.1730 C   0  0  0  0  0  0  0  0  0  0  0  0
  184.6160  178.7800  140.0410 C   0  0  0  0  0  1  0  0  0  0  0  0
  181.7730  178.8990  143.2770 C   0  0  0  0  0  0  0  0  0  0  0  0
  179.4640  178.9980  144.1580 C   0  0  0  0  0  1  0  0  0  0  0  0
  180.8720  178.9640  144.3420 O   0  0  0  0  0  0  0  0  0  0  0  0
  188.6350  176.8900  146.4280 N   0  0  0  0  0  2  0  0  0  0  0  0
  189.5870  177.6160  147.2490 C   0  0  0  0  0  2  0  0  0  0  0  0
  190.8770  176.8290  147.3420 C   0  0  0  0  0  2  0  0  0  0  0  0
  191.6810  177.1260  146.2430 O   0  0  0  0  0  1  0  0  0  0  0  0
  1  4  1  0  0  0  0
  1  3  1  0  0  0  0
  2  7  1  0  0  0  0
  3 16  1  0  0  0  0
  4  7  1  6  0  0  0
  4 10  1  0  0  0  0
  6 17  1  0  0  0  0
  6 18  2  0  0  0  0
  7  5  2  0  0  0  0
  8  9  1  0  0  0  0
  9 11  2  0  0  0  0
 10 29  1  1  0  0  0
 10 12  1  0  0  0  0
 11  5  1  0  0  0  0
 13  2  1  0  0  0  0
 13 14  2  0  0  0  0
 14  1  1  0  0  0  0
 15  9  1  0  0  0  0
 15  2  2  0  0  0  0
 16 12  1  0  0  0  0
 17  8  2  0  0  0  0
 18 15  1  0  0  0  0
 19 24  2  0  0  0  0
 19 22  1  0  0  0  0
 20 19  1  0  0  0  0
 21 14  1  0  0  0  0
 21 23  2  0  0  0  0
 22 26  2  0  0  0  0
 24 21  1  0  0  0  0
 25 24  1  0  0  0  0
 26 23  1  0  0  0  0
 26 28  1  0  0  0  0
 27 28  1  0  0  0  0
 29 30  1  0  0  0  0
 30 31  1  0  0  0  0
 32 31  1  0  0  0  0
M  END
>  <MODEL>
9

>  <REMARK>
 VINA RESULT:      -8.9      2.213      6.727
  Name = 
  5 active torsions:
  status: ('A' for Active; 'I' for Inactive)
    1  A    between atoms: C_13  and  C_18
    2  A    between atoms: C_14  and  N_29
    3  A    between atoms: O_15  and  C_26
    4  A    between atoms: C_16  and  C_27
    5  A    between atoms: C_18  and  N_29
                            x       y       z     vdW  Elec       q    Type
                         _______ _______ _______ _____ _____    ______ ____

>  <TORSDO>
F 5

$$$$
