=
 OpenBabel10262421533D

 30 31  0  0  1  0  0  0  0  0999 V2000
  190.3080  176.8820  144.5340 C   0  0  0  0  0  0  0  0  0  0  0  0
  190.1730  177.3560  145.8160 C   0  0  2  0  0  3  0  0  0  0  0  0
  191.2230  176.8580  146.5540 C   0  0  0  0  0  3  0  0  0  0  0  0
  191.4110  176.1210  144.4300 N   0  0  0  0  0  0  0  0  0  0  0  0
  191.9680  176.1040  145.6590 C   0  0  0  0  0  3  0  0  0  0  0  0
  188.8760  175.8880  142.7810 C   0  0  0  0  0  1  0  0  0  0  0  0
  189.3830  177.1790  143.3980 C   0  0  2  0  0  3  0  0  0  0  0  0
  190.0940  178.0220  142.3520 C   0  0  0  0  0  2  0  0  0  0  0  0
  189.7600  177.5400  140.9420 C   0  0  2  0  0  3  0  0  0  0  0  0
  192.0750  177.7710  140.5260 O   0  0  0  0  0  0  0  0  0  0  0  0
  188.7330  176.0730  138.5670 O   0  0  0  0  0  0  0  0  0  0  0  0
  191.0240  176.3950  138.9870 N   0  0  0  0  0  2  0  0  0  0  0  0
  190.9970  177.2480  140.1440 C   0  0  0  0  0  0  0  0  0  0  0  0
  190.2080  174.8430  137.1810 C   0  0  0  0  0  1  0  0  0  0  0  0
  189.9270  175.7960  138.2870 C   0  0  0  0  0  0  0  0  0  0  0  0
  189.1990  179.1150  139.0830 O   0  0  0  0  0  0  0  0  0  0  0  0
  188.7770  178.4000  140.1950 C   0  0  0  0  0  0  0  0  0  0  0  0
  187.5660  178.4560  140.5430 O   0  0  0  0  0  1  0  0  0  0  0  0
  189.0620  178.2030  146.3440 C   0  0  0  0  0  2  0  0  0  0  0  0
  187.9320  177.3690  146.7190 N   0  0  0  0  0  0  0  0  0  0  0  0
  188.2590  176.7570  147.9960 C   0  0  0  0  0  1  0  0  0  0  0  0
  186.8130  178.2630  146.9650 C   0  0  0  0  0  2  0  0  0  0  0  0
  184.5780  178.5090  142.9830 C   0  0  0  0  0  0  0  0  0  0  0  0
  183.9690  179.5510  143.8600 C   0  0  0  0  0  2  0  0  0  0  0  0
  183.8540  178.2160  141.3770 S   0  0  0  0  0  1  0  0  0  0  0  0
  185.9040  178.2860  145.7840 C   0  0  0  0  0  0  0  0  0  0  0  0
  183.5830  178.9950  145.1890 C   0  0  0  0  0  3  0  0  0  0  0  0
  185.7110  177.8840  143.3000 C   0  0  0  0  0  3  0  0  0  0  0  0
  184.4630  178.4720  146.0440 C   0  0  0  0  0  3  0  0  0  0  0  0
  186.4300  177.9920  144.5860 C   0  0  0  0  0  3  0  0  0  0  0  0
  1  2  1  0  0  0  0
  2 19  1  1  0  0  0
  2  3  1  0  0  0  0
  4  1  2  0  0  0  0
  4  5  1  0  0  0  0
  5  3  2  0  0  0  0
  7  6  1  6  0  0  0
  7  1  1  0  0  0  0
  8  7  1  0  0  0  0
  9  8  1  1  0  0  0
 12 13  1  0  0  0  0
 13 10  2  0  0  0  0
 13  9  1  0  0  0  0
 14 15  1  0  0  0  0
 15 11  2  0  0  0  0
 15 12  1  0  0  0  0
 16 17  2  0  0  0  0
 17 18  1  0  0  0  0
 17  9  1  0  0  0  0
 19 20  1  0  0  0  0
 20 22  1  0  0  0  0
 20 21  1  0  0  0  0
 23 28  2  0  0  0  0
 23 24  1  0  0  0  0
 24 27  1  0  0  0  0
 25 23  1  0  0  0  0
 26 29  1  0  0  0  0
 26 22  1  0  0  0  0
 27 29  2  0  0  0  0
 28 30  1  0  0  0  0
 30 26  2  0  0  0  0
M  END
>  <MODEL>
1

>  <REMARK>
 VINA RESULT:      -8.1      0.000      0.000
  Name = 
  9 active torsions:
  status: ('A' for Active; 'I' for Inactive)
    1  A    between atoms: C_3  and  N_11
    2  A    between atoms: C_3  and  C_19
    3  A    between atoms: C_4  and  C_8
    4  A    between atoms: C_7  and  C_30
    5  A    between atoms: C_8  and  C_12
    6  A    between atoms: C_8  and  C_13
    7  A    between atoms: C_10  and  C_25
    8  A    between atoms: N_11  and  C_25
    9  A    between atoms: C_13  and  C_30
                            x       y       z     vdW  Elec       q    Type
                         _______ _______ _______ _____ _____    ______ ____

>  <TORSDO>
F 9

$$$$
=
 OpenBabel10262421533D

 30 31  0  0  1  0  0  0  0  0999 V2000
  188.0970  177.5210  145.8880 C   0  0  0  0  0  0  0  0  0  0  0  0
  187.2690  178.3340  146.6220 C   0  0  0  0  0  0  0  0  0  0  0  0
  187.5580  178.1270  147.9520 C   0  0  0  0  0  3  0  0  0  0  0  0
  188.9100  176.8230  146.7020 N   0  0  0  0  0  2  0  0  0  0  0  0
  188.5810  177.1910  147.9580 C   0  0  0  0  0  3  0  0  0  0  0  0
  186.9730  176.5680  143.9020 C   0  0  0  0  0  1  0  0  0  0  0  0
  188.1230  177.4270  144.3970 C   0  0  2  0  0  3  0  0  0  0  0  0
  189.4510  176.8520  143.9320 C   0  0  0  0  0  2  0  0  0  0  0  0
  190.3180  177.9320  143.2880 C   0  0  2  0  0  3  0  0  0  0  0  0
  192.0880  177.0400  142.0000 O   0  0  0  0  0  0  0  0  0  0  0  0
  188.2760  178.7230  141.2740 O   0  0  0  0  0  0  0  0  0  0  0  0
  190.1960  177.4790  140.7360 N   0  0  0  0  0  2  0  0  0  0  0  0
  190.9070  177.4720  141.9860 C   0  0  0  0  0  0  0  0  0  0  0  0
  188.3210  177.8080  139.0910 C   0  0  0  0  0  1  0  0  0  0  0  0
  188.9100  178.0330  140.4370 C   0  0  0  0  0  0  0  0  0  0  0  0
  191.8870  177.7960  145.2310 O   0  0  0  0  0  1  0  0  0  0  0  0
  191.3410  178.5510  144.2010 C   0  0  0  0  0  0  0  0  0  0  0  0
  191.7380  179.7350  144.0260 O   0  0  0  0  0  0  0  0  0  0  0  0
  186.2020  179.2350  146.0920 C   0  0  0  0  0  2  0  0  0  0  0  0
  185.0410  178.4550  145.6960 N   0  0  0  0  0  0  0  0  0  0  0  0
  184.5240  177.8190  146.8960 C   0  0  0  0  0  1  0  0  0  0  0  0
  184.0270  179.4020  145.2620 C   0  0  0  0  0  2  0  0  0  0  0  0
  182.5280  178.3660  141.0680 C   0  0  0  0  0  0  0  0  0  0  0  0
  183.8970  177.7830  141.1700 C   0  0  0  0  0  2  0  0  0  0  0  0
  181.6790  178.2800  139.4990 S   0  0  0  0  0  1  0  0  0  0  0  0
  183.7080  179.1880  143.8220 C   0  0  0  0  0  0  0  0  0  0  0  0
  184.8880  178.7850  141.6570 C   0  0  0  0  0  3  0  0  0  0  0  0
  181.8710  178.8310  142.1290 C   0  0  0  0  0  3  0  0  0  0  0  0
  184.8070  179.3690  142.8520 C   0  0  0  0  0  3  0  0  0  0  0  0
  182.4240  178.9910  143.4890 C   0  0  0  0  0  3  0  0  0  0  0  0
  1  2  2  0  0  0  0
  1  4  1  0  0  0  0
  2  3  1  0  0  0  0
  3  5  2  0  0  0  0
  4  5  1  0  0  0  0
  7  6  1  1  0  0  0
  7  1  1  0  0  0  0
  8  7  1  0  0  0  0
  9  8  1  1  0  0  0
  9 17  1  0  0  0  0
 12 13  1  0  0  0  0
 13 10  2  0  0  0  0
 13  9  1  0  0  0  0
 14 15  1  0  0  0  0
 15 12  1  0  0  0  0
 15 11  2  0  0  0  0
 17 16  1  0  0  0  0
 18 17  2  0  0  0  0
 19  2  1  0  0  0  0
 20 19  1  0  0  0  0
 20 21  1  0  0  0  0
 22 20  1  0  0  0  0
 23 24  1  0  0  0  0
 23 28  2  0  0  0  0
 24 27  1  0  0  0  0
 25 23  1  0  0  0  0
 26 22  1  0  0  0  0
 27 29  2  0  0  0  0
 28 30  1  0  0  0  0
 29 26  1  0  0  0  0
 30 26  2  0  0  0  0
M  END
>  <MODEL>
2

>  <REMARK>
 VINA RESULT:      -7.9      1.973      3.558
  Name = 
  9 active torsions:
  status: ('A' for Active; 'I' for Inactive)
    1  A    between atoms: C_3  and  N_11
    2  A    between atoms: C_3  and  C_19
    3  A    between atoms: C_4  and  C_8
    4  A    between atoms: C_7  and  C_30
    5  A    between atoms: C_8  and  C_12
    6  A    between atoms: C_8  and  C_13
    7  A    between atoms: C_10  and  C_25
    8  A    between atoms: N_11  and  C_25
    9  A    between atoms: C_13  and  C_30
                            x       y       z     vdW  Elec       q    Type
                         _______ _______ _______ _____ _____    ______ ____

>  <TORSDO>
F 9

$$$$
=
 OpenBabel10262421533D

 30 31  0  0  1  0  0  0  0  0999 V2000
  184.3970  178.7500  144.4500 C   0  0  0  0  0  0  0  0  0  0  0  0
  185.6890  178.2890  144.4980 C   0  0  0  0  0  0  0  0  0  0  0  0
  185.9960  178.0510  145.8190 C   0  0  0  0  0  3  0  0  0  0  0  0
  183.8690  178.7940  145.6870 N   0  0  0  0  0  2  0  0  0  0  0  0
  184.8430  178.3700  146.5210 C   0  0  0  0  0  3  0  0  0  0  0  0
  182.1640  179.1890  143.4820 C   0  0  0  0  0  1  0  0  0  0  0  0
  183.6570  179.1310  143.2090 C   0  0  2  0  0  3  0  0  0  0  0  0
  183.9530  178.1360  142.0980 C   0  0  0  0  0  2  0  0  0  0  0  0
  183.4540  178.6560  140.7520 C   0  0  2  0  0  3  0  0  0  0  0  0
  183.2000  176.5420  139.7240 O   0  0  0  0  0  0  0  0  0  0  0  0
  180.9240  180.0860  140.1180 O   0  0  0  0  0  0  0  0  0  0  0  0
  181.2560  177.8030  139.6700 N   0  0  0  0  0  2  0  0  0  0  0  0
  182.6380  177.6280  140.0240 C   0  0  0  0  0  0  0  0  0  0  0  0
  178.9930  178.8840  139.4640 C   0  0  0  0  0  1  0  0  0  0  0  0
  180.4420  178.9760  139.7820 C   0  0  0  0  0  0  0  0  0  0  0  0
  185.8120  178.7910  139.9280 O   0  0  0  0  0  1  0  0  0  0  0  0
  184.5120  179.2780  139.8820 C   0  0  0  0  0  0  0  0  0  0  0  0
  184.2310  180.2150  139.0860 O   0  0  0  0  0  0  0  0  0  0  0  0
  186.6250  178.1310  143.3450 C   0  0  0  0  0  2  0  0  0  0  0  0
  187.7530  177.2960  143.7270 N   0  0  0  0  0  0  0  0  0  0  0  0
  188.1080  176.5010  142.5630 C   0  0  0  0  0  1  0  0  0  0  0  0
  188.8730  178.1900  143.9720 C   0  0  0  0  0  2  0  0  0  0  0  0
  191.5030  176.2550  147.1730 C   0  0  0  0  0  0  0  0  0  0  0  0
  190.1010  176.1380  147.6680 C   0  0  0  0  0  2  0  0  0  0  0  0
  192.8330  175.7280  148.2420 S   0  0  0  0  0  1  0  0  0  0  0  0
  189.6560  177.7200  145.1500 C   0  0  0  0  0  0  0  0  0  0  0  0
  189.3880  177.4470  147.6190 C   0  0  0  0  0  3  0  0  0  0  0  0
  191.7900  176.6180  145.9230 C   0  0  0  0  0  3  0  0  0  0  0  0
  189.1680  178.1140  146.4860 C   0  0  0  0  0  3  0  0  0  0  0  0
  190.8220  177.1000  144.9180 C   0  0  0  0  0  3  0  0  0  0  0  0
  1  2  2  0  0  0  0
  1  4  1  0  0  0  0
  2  3  1  0  0  0  0
  3  5  2  0  0  0  0
  4  5  1  0  0  0  0
  7  6  1  1  0  0  0
  7  1  1  0  0  0  0
  8  7  1  0  0  0  0
  9  8  1  1  0  0  0
 10 13  2  0  0  0  0
 12 15  1  0  0  0  0
 12 13  1  0  0  0  0
 13  9  1  0  0  0  0
 14 15  1  0  0  0  0
 15 11  2  0  0  0  0
 17 16  1  0  0  0  0
 17  9  1  0  0  0  0
 18 17  2  0  0  0  0
 19 20  1  0  0  0  0
 19  2  1  0  0  0  0
 20 22  1  0  0  0  0
 21 20  1  0  0  0  0
 22 26  1  0  0  0  0
 23 24  1  0  0  0  0
 23 25  1  0  0  0  0
 26 29  1  0  0  0  0
 27 24  1  0  0  0  0
 28 23  2  0  0  0  0
 29 27  2  0  0  0  0
 30 26  2  0  0  0  0
 30 28  1  0  0  0  0
M  END
>  <MODEL>
3

>  <REMARK>
 VINA RESULT:      -7.9      3.946      7.048
  Name = 
  9 active torsions:
  status: ('A' for Active; 'I' for Inactive)
    1  A    between atoms: C_3  and  N_11
    2  A    between atoms: C_3  and  C_19
    3  A    between atoms: C_4  and  C_8
    4  A    between atoms: C_7  and  C_30
    5  A    between atoms: C_8  and  C_12
    6  A    between atoms: C_8  and  C_13
    7  A    between atoms: C_10  and  C_25
    8  A    between atoms: N_11  and  C_25
    9  A    between atoms: C_13  and  C_30
                            x       y       z     vdW  Elec       q    Type
                         _______ _______ _______ _____ _____    ______ ____

>  <TORSDO>
F 9

$$$$
=
 OpenBabel10262421533D

 30 31  0  0  1  0  0  0  0  0999 V2000
  189.2010  177.5290  144.2450 C   0  0  0  0  0  0  0  0  0  0  0  0
  187.8700  177.5010  144.5780 C   0  0  2  0  0  3  0  0  0  0  0  0
  187.2140  176.7790  143.6050 C   0  0  0  0  0  3  0  0  0  0  0  0
  189.4150  176.8370  143.1110 N   0  0  0  0  0  0  0  0  0  0  0  0
  188.2060  176.3810  142.7210 C   0  0  0  0  0  3  0  0  0  0  0  0
  190.9620  179.2640  144.1820 C   0  0  0  0  0  1  0  0  0  0  0  0
  190.2780  178.2060  145.0300 C   0  0  2  0  0  3  0  0  0  0  0  0
  191.2910  177.1830  145.5180 C   0  0  0  0  0  2  0  0  0  0  0  0
  191.2880  177.0970  147.0430 C   0  0  2  0  0  3  0  0  0  0  0  0
  192.0670  174.8690  146.9310 O   0  0  0  0  0  0  0  0  0  0  0  0
  192.4440  178.1500  149.5730 O   0  0  0  0  0  0  0  0  0  0  0  0
  193.0450  176.0730  148.6530 N   0  0  0  0  0  2  0  0  0  0  0  0
  192.1410  175.9670  147.5400 C   0  0  0  0  0  0  0  0  0  0  0  0
  194.3060  177.0880  150.5800 C   0  0  0  0  0  1  0  0  0  0  0  0
  193.2120  177.1560  149.5750 C   0  0  0  0  0  0  0  0  0  0  0  0
  189.4840  178.2610  148.3260 O   0  0  0  0  0  1  0  0  0  0  0  0
  189.9230  177.1160  147.6750 C   0  0  0  0  0  0  0  0  0  0  0  0
  189.1550  176.1190  147.5950 O   0  0  0  0  0  0  0  0  0  0  0  0
  187.2250  178.1800  145.7420 C   0  0  0  0  0  2  0  0  0  0  0  0
  185.7770  178.1030  145.6260 N   0  0  0  0  0  0  0  0  0  0  0  0
  185.2490  177.9500  146.9710 C   0  0  0  0  0  1  0  0  0  0  0  0
  185.3250  179.4010  145.1510 C   0  0  0  0  0  2  0  0  0  0  0  0
  182.4510  178.5430  141.7000 C   0  0  0  0  0  0  0  0  0  0  0  0
  183.7470  177.9080  141.3210 C   0  0  0  0  0  2  0  0  0  0  0  0
  181.1170  178.5330  140.5120 S   0  0  0  0  0  1  0  0  0  0  0  0
  184.5280  179.2410  143.9020 C   0  0  0  0  0  0  0  0  0  0  0  0
  184.8870  178.8600  141.4590 C   0  0  0  0  0  3  0  0  0  0  0  0
  182.2130  179.0000  142.9290 C   0  0  0  0  0  3  0  0  0  0  0  0
  185.2400  179.4110  142.6200 C   0  0  0  0  0  3  0  0  0  0  0  0
  183.2000  179.1000  144.0220 C   0  0  0  0  0  3  0  0  0  0  0  0
  1  2  1  0  0  0  0
  1  7  1  0  0  0  0
  2 19  1  6  0  0  0
  3  2  1  0  0  0  0
  4  1  2  0  0  0  0
  5  4  1  0  0  0  0
  5  3  2  0  0  0  0
  7  6  1  6  0  0  0
  7  8  1  0  0  0  0
  9  8  1  6  0  0  0
  9 13  1  0  0  0  0
  9 17  1  0  0  0  0
 10 13  2  0  0  0  0
 11 15  2  0  0  0  0
 12 15  1  0  0  0  0
 13 12  1  0  0  0  0
 15 14  1  0  0  0  0
 17 16  1  0  0  0  0
 18 17  2  0  0  0  0
 20 19  1  0  0  0  0
 20 21  1  0  0  0  0
 22 20  1  0  0  0  0
 23 28  2  0  0  0  0
 24 27  1  0  0  0  0
 24 23  1  0  0  0  0
 25 23  1  0  0  0  0
 26 30  2  0  0  0  0
 26 22  1  0  0  0  0
 27 29  2  0  0  0  0
 28 30  1  0  0  0  0
 29 26  1  0  0  0  0
M  END
>  <MODEL>
4

>  <REMARK>
 VINA RESULT:      -7.8      3.807      6.158
  Name = 
  9 active torsions:
  status: ('A' for Active; 'I' for Inactive)
    1  A    between atoms: C_3  and  N_11
    2  A    between atoms: C_3  and  C_19
    3  A    between atoms: C_4  and  C_8
    4  A    between atoms: C_7  and  C_30
    5  A    between atoms: C_8  and  C_12
    6  A    between atoms: C_8  and  C_13
    7  A    between atoms: C_10  and  C_25
    8  A    between atoms: N_11  and  C_25
    9  A    between atoms: C_13  and  C_30
                            x       y       z     vdW  Elec       q    Type
                         _______ _______ _______ _____ _____    ______ ____

>  <TORSDO>
F 9

$$$$
=
 OpenBabel10262421533D

 30 31  0  0  1  0  0  0  0  0999 V2000
  190.6700  177.1290  140.2130 C   0  0  0  0  0  0  0  0  0  0  0  0
  190.4610  177.4070  141.5410 C   0  0  2  0  0  3  0  0  0  0  0  0
  189.1810  177.9000  141.6650 C   0  0  0  0  0  3  0  0  0  0  0  0
  189.5670  177.4090  139.4960 N   0  0  0  0  0  0  0  0  0  0  0  0
  188.6610  177.8800  140.3790 C   0  0  0  0  0  3  0  0  0  0  0  0
  193.0830  177.5340  139.8530 C   0  0  0  0  0  1  0  0  0  0  0  0
  191.9290  176.5720  139.6320 C   0  0  2  0  0  3  0  0  0  0  0  0
  191.7440  176.3010  138.1470 C   0  0  0  0  0  2  0  0  0  0  0  0
  192.6030  175.1230  137.6950 C   0  0  2  0  0  3  0  0  0  0  0  0
  193.4170  176.2660  135.7920 O   0  0  0  0  0  0  0  0  0  0  0  0
  194.9660  173.6320  138.7180 O   0  0  0  0  0  0  0  0  0  0  0  0
  195.1020  175.2370  137.0060 N   0  0  0  0  0  2  0  0  0  0  0  0
  193.7180  175.5600  136.7900 C   0  0  0  0  0  0  0  0  0  0  0  0
  197.1570  174.2740  138.0920 C   0  0  0  0  0  1  0  0  0  0  0  0
  195.6770  174.3550  137.9770 C   0  0  0  0  0  0  0  0  0  0  0  0
  192.4800  173.0270  136.3370 O   0  0  0  0  0  0  0  0  0  0  0  0
  191.8340  173.9520  137.1460 C   0  0  0  0  0  0  0  0  0  0  0  0
  190.6200  173.7790  137.4360 O   0  0  0  0  0  1  0  0  0  0  0  0
  191.4510  177.2680  142.6510 C   0  0  0  0  0  2  0  0  0  0  0  0
  190.8750  176.4980  143.7410 N   0  0  0  0  0  0  0  0  0  0  0  0
  191.7410  175.3500  143.9560 C   0  0  0  0  0  1  0  0  0  0  0  0
  190.9770  177.3200  144.9360 C   0  0  0  0  0  2  0  0  0  0  0  0
  186.7840  178.1270  146.5720 C   0  0  0  0  0  0  0  0  0  0  0  0
  187.7220  178.3810  147.7040 C   0  0  0  0  0  2  0  0  0  0  0  0
  185.0270  178.2060  146.8850 S   0  0  0  0  0  1  0  0  0  0  0  0
  189.6510  177.4140  145.6080 C   0  0  0  0  0  0  0  0  0  0  0  0
  188.6690  177.2460  147.9000 C   0  0  0  0  0  3  0  0  0  0  0  0
  187.2060  177.9710  145.3180 C   0  0  0  0  0  3  0  0  0  0  0  0
  189.5420  176.8570  146.9710 C   0  0  0  0  0  3  0  0  0  0  0  0
  188.6140  177.8630  144.8850 C   0  0  0  0  0  3  0  0  0  0  0  0
  1  2  1  0  0  0  0
  2  3  1  0  0  0  0
  2 19  1  6  0  0  0
  4  1  2  0  0  0  0
  4  5  1  0  0  0  0
  5  3  2  0  0  0  0
  7  6  1  6  0  0  0
  7  1  1  0  0  0  0
  8  7  1  0  0  0  0
  9  8  1  6  0  0  0
 10 13  2  0  0  0  0
 12 15  1  0  0  0  0
 13 12  1  0  0  0  0
 13  9  1  0  0  0  0
 15 14  1  0  0  0  0
 15 11  2  0  0  0  0
 16 17  2  0  0  0  0
 17 18  1  0  0  0  0
 17  9  1  0  0  0  0
 19 20  1  0  0  0  0
 20 21  1  0  0  0  0
 20 22  1  0  0  0  0
 22 26  1  0  0  0  0
 23 25  1  0  0  0  0
 23 24  1  0  0  0  0
 24 27  1  0  0  0  0
 26 29  1  0  0  0  0
 28 23  2  0  0  0  0
 29 27  2  0  0  0  0
 30 28  1  0  0  0  0
 30 26  2  0  0  0  0
M  END
>  <MODEL>
5

>  <REMARK>
 VINA RESULT:      -7.7      3.060      5.267
  Name = 
  9 active torsions:
  status: ('A' for Active; 'I' for Inactive)
    1  A    between atoms: C_3  and  N_11
    2  A    between atoms: C_3  and  C_19
    3  A    between atoms: C_4  and  C_8
    4  A    between atoms: C_7  and  C_30
    5  A    between atoms: C_8  and  C_12
    6  A    between atoms: C_8  and  C_13
    7  A    between atoms: C_10  and  C_25
    8  A    between atoms: N_11  and  C_25
    9  A    between atoms: C_13  and  C_30
                            x       y       z     vdW  Elec       q    Type
                         _______ _______ _______ _____ _____    ______ ____

>  <TORSDO>
F 9

$$$$
=
 OpenBabel10262421533D

 30 31  0  0  1  0  0  0  0  0999 V2000
  187.1200  177.7890  144.6580 C   0  0  0  0  0  0  0  0  0  0  0  0
  186.1140  178.6650  144.9830 C   0  0  0  0  0  0  0  0  0  0  0  0
  186.0310  178.7090  146.3570 C   0  0  0  0  0  3  0  0  0  0  0  0
  187.6870  177.2930  145.7730 N   0  0  0  0  0  2  0  0  0  0  0  0
  187.0240  177.8520  146.8070 C   0  0  0  0  0  3  0  0  0  0  0  0
  188.0540  176.0080  143.2190 C   0  0  0  0  0  1  0  0  0  0  0  0
  187.5520  177.4400  143.2710 C   0  0  2  0  0  3  0  0  0  0  0  0
  188.6370  178.3980  142.8060 C   0  0  0  0  0  2  0  0  0  0  0  0
  190.0230  177.7900  143.0010 C   0  0  2  0  0  3  0  0  0  0  0  0
  190.9220  179.7510  143.9680 O   0  0  0  0  0  0  0  0  0  0  0  0
  191.1760  175.5800  144.6250 O   0  0  0  0  0  0  0  0  0  0  0  0
  191.3940  177.8480  145.2030 N   0  0  0  0  0  2  0  0  0  0  0  0
  190.8010  178.5020  144.0690 C   0  0  0  0  0  0  0  0  0  0  0  0
  192.0560  176.0030  146.7820 C   0  0  0  0  0  1  0  0  0  0  0  0
  191.5070  176.4450  145.4730 C   0  0  0  0  0  0  0  0  0  0  0  0
  192.1980  177.4900  141.8030 O   0  0  0  0  0  1  0  0  0  0  0  0
  190.8160  177.6000  141.7360 C   0  0  0  0  0  0  0  0  0  0  0  0
  190.2420  177.5060  140.6170 O   0  0  0  0  0  0  0  0  0  0  0  0
  185.2220  179.3940  144.0330 C   0  0  0  0  0  2  0  0  0  0  0  0
  184.1010  178.5500  143.6530 N   0  0  0  0  0  0  0  0  0  0  0  0
  183.1340  178.6120  144.7360 C   0  0  0  0  0  1  0  0  0  0  0  0
  183.4720  179.1800  142.5030 C   0  0  0  0  0  2  0  0  0  0  0  0
  185.5320  178.0880  138.5700 C   0  0  0  0  0  0  0  0  0  0  0  0
  184.0680  178.0510  138.2890 C   0  0  0  0  0  2  0  0  0  0  0  0
  186.6600  177.5700  137.2850 S   0  0  0  0  0  1  0  0  0  0  0  0
  184.0410  178.6280  141.2410 C   0  0  0  0  0  0  0  0  0  0  0  0
  183.3350  177.2290  139.2950 C   0  0  0  0  0  3  0  0  0  0  0  0
  186.0310  178.6100  139.6900 C   0  0  0  0  0  3  0  0  0  0  0  0
  183.3050  177.5230  140.5950 C   0  0  0  0  0  3  0  0  0  0  0  0
  185.2480  179.0660  140.8560 C   0  0  0  0  0  3  0  0  0  0  0  0
  1  2  2  0  0  0  0
  1  4  1  0  0  0  0
  2  3  1  0  0  0  0
  3  5  2  0  0  0  0
  4  5  1  0  0  0  0
  7  6  1  1  0  0  0
  7  1  1  0  0  0  0
  8  7  1  0  0  0  0
  9  8  1  6  0  0  0
  9 13  1  0  0  0  0
 10 13  2  0  0  0  0
 11 15  2  0  0  0  0
 12 15  1  0  0  0  0
 13 12  1  0  0  0  0
 15 14  1  0  0  0  0
 17 16  1  0  0  0  0
 17  9  1  0  0  0  0
 18 17  2  0  0  0  0
 19  2  1  0  0  0  0
 20 19  1  0  0  0  0
 20 21  1  0  0  0  0
 22 20  1  0  0  0  0
 23 28  2  0  0  0  0
 24 23  1  0  0  0  0
 24 27  1  0  0  0  0
 25 23  1  0  0  0  0
 26 22  1  0  0  0  0
 27 29  2  0  0  0  0
 28 30  1  0  0  0  0
 29 26  1  0  0  0  0
 30 26  2  0  0  0  0
M  END
>  <MODEL>
6

>  <REMARK>
 VINA RESULT:      -7.5      2.556      4.978
  Name = 
  9 active torsions:
  status: ('A' for Active; 'I' for Inactive)
    1  A    between atoms: C_3  and  N_11
    2  A    between atoms: C_3  and  C_19
    3  A    between atoms: C_4  and  C_8
    4  A    between atoms: C_7  and  C_30
    5  A    between atoms: C_8  and  C_12
    6  A    between atoms: C_8  and  C_13
    7  A    between atoms: C_10  and  C_25
    8  A    between atoms: N_11  and  C_25
    9  A    between atoms: C_13  and  C_30
                            x       y       z     vdW  Elec       q    Type
                         _______ _______ _______ _____ _____    ______ ____

>  <TORSDO>
F 9

$$$$
=
 OpenBabel10262421533D

 30 31  0  0  1  0  0  0  0  0999 V2000
  191.1340  177.4580  145.0810 C   0  0  0  0  0  0  0  0  0  0  0  0
  190.2120  177.4680  146.0980 C   0  0  2  0  0  3  0  0  0  0  0  0
  190.5540  176.4640  146.9770 C   0  0  0  0  0  3  0  0  0  0  0  0
  192.0550  176.5010  145.2930 N   0  0  0  0  0  0  0  0  0  0  0  0
  191.7010  175.8950  146.4460 C   0  0  0  0  0  3  0  0  0  0  0  0
  191.5570  179.7800  144.3440 C   0  0  0  0  0  1  0  0  0  0  0  0
  191.1430  178.3860  143.9090 C   0  0  2  0  0  3  0  0  0  0  0  0
  189.7690  178.4200  143.2600 C   0  0  0  0  0  2  0  0  0  0  0  0
  189.6290  177.3110  142.2200 C   0  0  2  0  0  3  0  0  0  0  0  0
  187.6950  178.3360  141.3290 O   0  0  0  0  0  0  0  0  0  0  0  0
  190.9340  176.0410  139.8680 O   0  0  0  0  0  0  0  0  0  0  0  0
  189.1040  177.5050  139.6870 N   0  0  0  0  0  2  0  0  0  0  0  0
  188.7670  177.7320  141.0660 C   0  0  0  0  0  0  0  0  0  0  0  0
  190.4060  176.7490  137.6710 C   0  0  0  0  0  1  0  0  0  0  0  0
  190.1840  176.7390  139.1410 C   0  0  0  0  0  0  0  0  0  0  0  0
  190.1820  174.9520  142.8430 O   0  0  0  0  0  0  0  0  0  0  0  0
  189.2380  175.9680  142.7760 C   0  0  0  0  0  0  0  0  0  0  0  0
  188.0740  175.7600  143.2150 O   0  0  0  0  0  1  0  0  0  0  0  0
  189.0150  178.3540  146.2120 C   0  0  0  0  0  2  0  0  0  0  0  0
  187.8760  177.5960  146.7030 N   0  0  0  0  0  0  0  0  0  0  0  0
  188.2390  177.0830  148.0140 C   0  0  0  0  0  1  0  0  0  0  0  0
  186.7990  178.5480  146.9180 C   0  0  0  0  0  2  0  0  0  0  0  0
  184.3500  178.6000  143.0560 C   0  0  0  0  0  0  0  0  0  0  0  0
  183.7000  179.5870  143.9670 C   0  0  0  0  0  2  0  0  0  0  0  0
  183.5720  178.2450  141.4880 S   0  0  0  0  0  1  0  0  0  0  0  0
  185.8320  178.4930  145.7850 C   0  0  0  0  0  0  0  0  0  0  0  0
  183.4320  179.0020  145.3120 C   0  0  0  0  0  3  0  0  0  0  0  0
  185.5470  178.0730  143.3130 C   0  0  0  0  0  3  0  0  0  0  0  0
  184.3950  178.5570  146.1190 C   0  0  0  0  0  3  0  0  0  0  0  0
  186.3180  178.2440  144.5600 C   0  0  0  0  0  3  0  0  0  0  0  0
  1  4  2  0  0  0  0
  1  2  1  0  0  0  0
  2 19  1  6  0  0  0
  2  3  1  0  0  0  0
  4  5  1  0  0  0  0
  5  3  2  0  0  0  0
  7  6  1  1  0  0  0
  7  1  1  0  0  0  0
  8  7  1  0  0  0  0
  9 17  1  0  0  0  0
  9  8  1  1  0  0  0
 12 13  1  0  0  0  0
 13 10  2  0  0  0  0
 13  9  1  0  0  0  0
 14 15  1  0  0  0  0
 15 12  1  0  0  0  0
 15 11  2  0  0  0  0
 17 16  2  0  0  0  0
 17 18  1  0  0  0  0
 19 20  1  0  0  0  0
 20 22  1  0  0  0  0
 20 21  1  0  0  0  0
 23 28  2  0  0  0  0
 23 24  1  0  0  0  0
 24 27  1  0  0  0  0
 25 23  1  0  0  0  0
 26 29  1  0  0  0  0
 26 22  1  0  0  0  0
 27 29  2  0  0  0  0
 28 30  1  0  0  0  0
 30 26  2  0  0  0  0
M  END
>  <MODEL>
7

>  <REMARK>
 VINA RESULT:      -7.5      1.484      2.168
  Name = 
  9 active torsions:
  status: ('A' for Active; 'I' for Inactive)
    1  A    between atoms: C_3  and  N_11
    2  A    between atoms: C_3  and  C_19
    3  A    between atoms: C_4  and  C_8
    4  A    between atoms: C_7  and  C_30
    5  A    between atoms: C_8  and  C_12
    6  A    between atoms: C_8  and  C_13
    7  A    between atoms: C_10  and  C_25
    8  A    between atoms: N_11  and  C_25
    9  A    between atoms: C_13  and  C_30
                            x       y       z     vdW  Elec       q    Type
                         _______ _______ _______ _____ _____    ______ ____

>  <TORSDO>
F 9

$$$$
=
 OpenBabel10262421533D

 30 31  0  0  1  0  0  0  0  0999 V2000
  191.1170  176.5880  139.1440 C   0  0  0  0  0  0  0  0  0  0  0  0
  190.4840  177.0490  140.2730 C   0  0  2  0  0  3  0  0  0  0  0  0
  191.4470  177.5850  141.0980 C   0  0  0  0  0  3  0  0  0  0  0  0
  192.4380  176.8300  139.2170 N   0  0  0  0  0  0  0  0  0  0  0  0
  192.6400  177.4360  140.4060 C   0  0  0  0  0  3  0  0  0  0  0  0
  191.3530  174.8680  137.3840 C   0  0  0  0  0  1  0  0  0  0  0  0
  190.4470  175.9300  137.9810 C   0  0  2  0  0  3  0  0  0  0  0  0
  190.0850  176.9690  136.9320 C   0  0  0  0  0  2  0  0  0  0  0  0
  188.5750  177.1900  136.8830 C   0  0  2  0  0  3  0  0  0  0  0  0
  188.0310  177.7960  134.6640 O   0  0  0  0  0  0  0  0  0  0  0  0
  187.3390  174.5070  137.2310 O   0  0  0  0  0  0  0  0  0  0  0  0
  187.4640  175.6040  135.1560 N   0  0  0  0  0  2  0  0  0  0  0  0
  188.0090  176.8820  135.5280 C   0  0  0  0  0  0  0  0  0  0  0  0
  186.7530  173.1980  135.3480 C   0  0  0  0  0  1  0  0  0  0  0  0
  187.2090  174.4620  135.9830 C   0  0  0  0  0  0  0  0  0  0  0  0
  189.0400  179.5290  137.6360 O   0  0  0  0  0  1  0  0  0  0  0  0
  188.1130  178.5200  137.4150 C   0  0  0  0  0  0  0  0  0  0  0  0
  186.8910  178.7440  137.6320 O   0  0  0  0  0  0  0  0  0  0  0  0
  189.0290  176.9360  140.5900 C   0  0  0  0  0  2  0  0  0  0  0  0
  188.7200  177.6950  141.7910 N   0  0  0  0  0  0  0  0  0  0  0  0
  187.9060  178.8270  141.3830 C   0  0  0  0  0  1  0  0  0  0  0  0
  187.8680  176.8500  142.6130 C   0  0  0  0  0  2  0  0  0  0  0  0
  188.5050  177.7330  147.0550 C   0  0  0  0  0  0  0  0  0  0  0  0
  187.0860  177.2910  146.9240 C   0  0  0  0  0  2  0  0  0  0  0  0
  189.0780  178.3040  148.6470 S   0  0  0  0  0  1  0  0  0  0  0  0
  187.9220  177.2960  144.0340 C   0  0  0  0  0  0  0  0  0  0  0  0
  186.3730  178.0400  145.8490 C   0  0  0  0  0  3  0  0  0  0  0  0
  189.3880  177.5980  146.0660 C   0  0  0  0  0  3  0  0  0  0  0  0
  186.7370  177.9980  144.5670 C   0  0  0  0  0  3  0  0  0  0  0  0
  189.0850  177.1620  144.6880 C   0  0  0  0  0  3  0  0  0  0  0  0
  1  4  2  0  0  0  0
  1  2  1  0  0  0  0
  2 19  1  1  0  0  0
  2  3  1  0  0  0  0
  4  5  1  0  0  0  0
  5  3  2  0  0  0  0
  7  6  1  6  0  0  0
  7  1  1  0  0  0  0
  8  7  1  0  0  0  0
  9  8  1  6  0  0  0
  9 17  1  0  0  0  0
 10 13  2  0  0  0  0
 12 13  1  0  0  0  0
 12 15  1  0  0  0  0
 13  9  1  0  0  0  0
 14 15  1  0  0  0  0
 15 11  2  0  0  0  0
 17 18  2  0  0  0  0
 17 16  1  0  0  0  0
 19 20  1  0  0  0  0
 20 22  1  0  0  0  0
 21 20  1  0  0  0  0
 22 26  1  0  0  0  0
 23 25  1  0  0  0  0
 24 23  1  0  0  0  0
 26 29  1  0  0  0  0
 26 30  2  0  0  0  0
 27 24  1  0  0  0  0
 28 23  2  0  0  0  0
 29 27  2  0  0  0  0
 30 28  1  0  0  0  0
M  END
>  <MODEL>
8

>  <REMARK>
 VINA RESULT:      -7.5      2.813      5.014
  Name = 
  9 active torsions:
  status: ('A' for Active; 'I' for Inactive)
    1  A    between atoms: C_3  and  N_11
    2  A    between atoms: C_3  and  C_19
    3  A    between atoms: C_4  and  C_8
    4  A    between atoms: C_7  and  C_30
    5  A    between atoms: C_8  and  C_12
    6  A    between atoms: C_8  and  C_13
    7  A    between atoms: C_10  and  C_25
    8  A    between atoms: N_11  and  C_25
    9  A    between atoms: C_13  and  C_30
                            x       y       z     vdW  Elec       q    Type
                         _______ _______ _______ _____ _____    ______ ____

>  <TORSDO>
F 9

$$$$
=
 OpenBabel10262421533D

 30 31  0  0  1  0  0  0  0  0999 V2000
  186.7570  177.8390  143.7000 C   0  0  0  0  0  0  0  0  0  0  0  0
  185.7800  178.7610  143.4190 C   0  0  0  0  0  0  0  0  0  0  0  0
  185.0670  178.9770  144.5780 C   0  0  0  0  0  3  0  0  0  0  0  0
  186.7020  177.4780  144.9950 N   0  0  0  0  0  2  0  0  0  0  0  0
  185.6730  178.1700  145.5290 C   0  0  0  0  0  3  0  0  0  0  0  0
  188.3370  175.9990  143.2180 C   0  0  0  0  0  1  0  0  0  0  0  0
  187.7620  177.3150  142.7260 C   0  0  2  0  0  3  0  0  0  0  0  0
  188.8710  178.3350  142.5210 C   0  0  0  0  0  2  0  0  0  0  0  0
  190.2300  177.7450  142.8910 C   0  0  2  0  0  3  0  0  0  0  0  0
  190.9090  179.7370  143.9680 O   0  0  0  0  0  0  0  0  0  0  0  0
  191.3920  175.5770  144.5630 O   0  0  0  0  0  0  0  0  0  0  0  0
  191.4060  177.8390  145.2020 N   0  0  0  0  0  2  0  0  0  0  0  0
  190.8650  178.4810  144.0340 C   0  0  0  0  0  0  0  0  0  0  0  0
  192.0590  176.0040  146.7950 C   0  0  0  0  0  1  0  0  0  0  0  0
  191.5910  176.4410  145.4530 C   0  0  0  0  0  0  0  0  0  0  0  0
  190.6660  177.4990  140.4410 O   0  0  0  0  0  0  0  0  0  0  0  0
  191.1700  177.5480  141.7340 C   0  0  0  0  0  0  0  0  0  0  0  0
  192.4150  177.4590  141.9150 O   0  0  0  0  0  1  0  0  0  0  0  0
  185.4880  179.3780  142.0900 C   0  0  0  0  0  2  0  0  0  0  0  0
  185.0230  178.3630  141.1590 N   0  0  0  0  0  0  0  0  0  0  0  0
  183.6690  178.0100  141.5540 C   0  0  0  0  0  1  0  0  0  0  0  0
  184.9190  179.0020  139.8580 C   0  0  0  0  0  2  0  0  0  0  0  0
  187.9530  177.2100  136.9440 C   0  0  0  0  0  0  0  0  0  0  0  0
  186.8130  177.6840  136.1080 C   0  0  0  0  0  2  0  0  0  0  0  0
  189.2790  176.3140  136.1490 S   0  0  0  0  0  1  0  0  0  0  0  0
  185.7490  178.2700  138.8590 C   0  0  0  0  0  0  0  0  0  0  0  0
  185.5060  177.1830  136.6230 C   0  0  0  0  0  3  0  0  0  0  0  0
  188.0800  177.5370  138.2290 C   0  0  0  0  0  3  0  0  0  0  0  0
  185.0350  177.4860  137.8330 C   0  0  0  0  0  3  0  0  0  0  0  0
  187.0770  178.2530  139.0430 C   0  0  0  0  0  3  0  0  0  0  0  0
  1  4  1  0  0  0  0
  2  1  2  0  0  0  0
  2  3  1  0  0  0  0
  3  5  2  0  0  0  0
  4  5  1  0  0  0  0
  7  6  1  1  0  0  0
  7  1  1  0  0  0  0
  8  7  1  0  0  0  0
  9  8  1  6  0  0  0
  9 13  1  0  0  0  0
 10 13  2  0  0  0  0
 11 15  2  0  0  0  0
 12 15  1  0  0  0  0
 13 12  1  0  0  0  0
 15 14  1  0  0  0  0
 16 17  2  0  0  0  0
 17 18  1  0  0  0  0
 17  9  1  0  0  0  0
 19  2  1  0  0  0  0
 20 21  1  0  0  0  0
 20 19  1  0  0  0  0
 22 20  1  0  0  0  0
 23 28  2  0  0  0  0
 24 27  1  0  0  0  0
 24 23  1  0  0  0  0
 25 23  1  0  0  0  0
 26 30  2  0  0  0  0
 26 22  1  0  0  0  0
 27 29  2  0  0  0  0
 28 30  1  0  0  0  0
 29 26  1  0  0  0  0
M  END
>  <MODEL>
9

>  <REMARK>
 VINA RESULT:      -7.5      3.022      6.081
  Name = 
  9 active torsions:
  status: ('A' for Active; 'I' for Inactive)
    1  A    between atoms: C_3  and  N_11
    2  A    between atoms: C_3  and  C_19
    3  A    between atoms: C_4  and  C_8
    4  A    between atoms: C_7  and  C_30
    5  A    between atoms: C_8  and  C_12
    6  A    between atoms: C_8  and  C_13
    7  A    between atoms: C_10  and  C_25
    8  A    between atoms: N_11  and  C_25
    9  A    between atoms: C_13  and  C_30
                            x       y       z     vdW  Elec       q    Type
                         _______ _______ _______ _____ _____    ______ ____

>  <TORSDO>
F 9

$$$$
