=
 OpenBabel10262420333D

 55 60  0  0  1  0  0  0  0  0999 V2000
  185.9330  178.7810  143.5010 C   0  0  0  0  0  3  0  0  0  0  0  0
  183.5220  178.7320  142.0820 C   0  0  0  0  0  0  0  0  0  0  0  0
  184.7390  178.7570  141.3940 C   0  0  0  0  0  3  0  0  0  0  0  0
  184.7160  178.7650  144.1890 C   0  0  0  0  0  3  0  0  0  0  0  0
  185.9450  178.7830  142.1020 C   0  0  0  0  0  0  0  0  0  0  0  0
  183.5100  178.7440  143.4800 C   0  0  0  0  0  3  0  0  0  0  0  0
  187.2380  178.7810  141.3650 C   0  0  0  0  0  2  0  0  0  0  0  0
  187.5670  177.3740  140.8990 C   0  0  0  0  0  2  0  0  0  0  0  0
  191.2600  176.7840  137.0740 S   0  0  0  0  0  0  0  0  0  0  0  0
  193.0840  174.8450  137.6950 C   0  0  0  0  0  1  0  0  0  0  0  0
  191.7110  177.0810  139.6450 C   0  0  0  0  0  0  0  0  0  0  0  0
  193.0780  176.9000  139.0970 C   0  0  0  0  0  2  0  0  0  0  0  0
  192.9260  176.3540  137.6820 C   0  0  2  0  0  3  0  0  0  0  0  0
  190.7300  177.0360  138.7610 C   0  0  0  0  0  0  0  0  0  0  0  0
  190.0560  177.4590  141.4460 N   0  0  0  0  0  0  0  0  0  0  0  0
  191.4720  177.2280  141.1170 C   0  0  0  0  0  2  0  0  0  0  0  0
  189.3110  177.1020  139.1670 C   0  0  0  0  0  0  0  0  0  0  0  0
  189.0040  177.2940  140.4670 C   0  0  0  0  0  0  0  0  0  0  0  0
  189.9620  176.9200  146.9800 C   0  0  0  0  0  0  0  0  0  0  0  0
  188.9380  176.6110  143.4720 C   0  0  0  0  0  2  0  0  0  0  0  0
  191.1290  177.3970  147.7770 C   0  0  0  0  0  1  0  0  0  0  0  0
  189.7360  177.3980  145.6460 N   0  0  0  0  0  0  0  0  0  0  0  0
  190.9540  178.1110  143.6470 C   0  0  0  0  0  2  0  0  0  0  0  0
  190.5620  178.4640  145.0790 C   0  0  0  0  0  2  0  0  0  0  0  0
  189.1800  176.0770  147.4930 O   0  0  0  0  0  0  0  0  0  0  0  0
  188.5510  176.9710  144.9030 C   0  0  0  0  0  2  0  0  0  0  0  0
  189.7060  177.7670  142.8310 C   0  0  0  0  0  3  0  0  0  0  0  0
  188.2400  176.9620  138.1210 C   0  0  0  0  0  2  0  0  0  0  0  0
  186.5050  178.6800  137.7770 N   0  0  0  0  0  1  0  0  0  0  0  0
  187.8920  178.3200  137.5070 C   0  0  2  0  0  3  0  0  0  0  0  0
  188.2060  178.4060  136.1310 O   0  0  0  0  0  0  0  0  0  0  0  0
  187.8240  177.2110  135.4980 C   0  0  0  0  0  1  0  0  0  0  0  0
  182.2410  178.7170  141.3210 C   0  0  0  0  0  2  0  0  0  0  0  0
  182.4690  179.0830  139.9910 O   0  0  0  0  0  0  0  0  0  0  0  0
  181.1960  179.2210  139.4270 C   0  0  0  0  0  2  0  0  0  0  0  0
  181.3030  179.5050  137.9390 C   0  0  0  0  0  2  0  0  0  0  0  0
  180.7130  178.3620  137.1350 C   0  0  0  0  0  2  0  0  0  0  0  0
  181.3380  177.0540  137.5960 C   0  0  0  0  0  2  0  0  0  0  0  0
  184.5170  174.4880  135.9650 C   0  0  2  0  0  0  0  0  0  0  0  0
  181.6830  172.9040  135.7540 C   0  0  0  0  0  2  0  0  0  0  0  0
  182.1550  175.4550  135.7300 C   0  0  2  0  0  0  0  0  0  0  0  0
  183.0070  177.7080  136.0220 O   0  0  0  0  0  1  0  0  0  0  0  0
  181.5860  174.1840  137.7820 F   0  0  0  0  0  0  0  0  0  0  0  0
  181.4140  174.2630  136.4090 C   0  0  2  0  0  3  0  0  0  0  0  0
  182.5230  176.6010  136.7300 C   0  0  1  0  0  0  0  0  0  0  0  0
  184.8570  175.6070  136.9570 C   0  0  0  0  0  2  0  0  0  0  0  0
  184.1060  173.2070  136.6760 C   0  0  0  0  0  0  0  0  0  0  0  0
  185.7620  174.1980  135.1490 C   0  0  0  0  0  1  0  0  0  0  0  0
  183.0470  172.2740  136.0970 C   0  0  1  0  0  3  0  0  0  0  0  0
  183.6200  176.1280  137.6940 C   0  0  0  0  0  2  0  0  0  0  0  0
  181.3040  175.9630  134.7460 O   0  0  0  0  0  1  0  0  0  0  0  0
  184.6980  172.8860  137.6970 O   0  0  0  0  0  0  0  0  0  0  0  0
  183.4370  174.9930  135.0060 C   0  0  0  0  0  2  0  0  0  0  0  0
  182.8610  170.9840  136.8940 C   0  0  0  0  0  2  0  0  0  0  0  0
  183.5650  169.9310  136.3050 O   0  0  0  0  0  1  0  0  0  0  0  0
  1  4  1  0  0  0  0
  2  6  1  0  0  0  0
  3  2  2  0  0  0  0
  3  5  1  0  0  0  0
  5  1  2  0  0  0  0
  6  4  2  0  0  0  0
  7  5  1  0  0  0  0
  8  7  1  0  0  0  0
  9 13  1  0  0  0  0
  9 14  1  0  0  0  0
 11 16  1  0  0  0  0
 12 11  1  0  0  0  0
 13 10  1  1  0  0  0
 13 12  1  0  0  0  0
 14 17  1  0  0  0  0
 14 11  2  0  0  0  0
 15 27  1  0  0  0  0
 16 15  1  0  0  0  0
 17 18  2  0  0  0  0
 18  8  1  0  0  0  0
 18 15  1  0  0  0  0
 19 25  2  0  0  0  0
 19 21  1  0  0  0  0
 20 26  1  0  0  0  0
 22 19  1  0  0  0  0
 23 24  1  0  0  0  0
 24 22  1  0  0  0  0
 26 22  1  0  0  0  0
 27 20  1  0  0  0  0
 27 23  1  0  0  0  0
 28 17  1  0  0  0  0
 30 29  1  6  0  0  0
 30 28  1  0  0  0  0
 31 30  1  0  0  0  0
 32 31  1  0  0  0  0
 33  2  1  0  0  0  0
 34 33  1  0  0  0  0
 35 34  1  0  0  0  0
 36 35  1  0  0  0  0
 37 38  1  0  0  0  0
 37 36  1  0  0  0  0
 39 48  1  6  0  0  0
 39 47  1  0  0  0  0
 39 46  1  0  0  0  0
 40 49  1  0  0  0  0
 40 44  1  0  0  0  0
 41 51  1  6  0  0  0
 41 44  1  0  0  0  0
 41 45  1  0  0  0  0
 44 43  1  1  0  0  0
 45 42  1  6  0  0  0
 45 38  1  0  0  0  0
 45 50  1  0  0  0  0
 46 50  1  0  0  0  0
 47 52  2  0  0  0  0
 49 47  1  0  0  0  0
 49 54  1  1  0  0  0
 53 41  1  0  0  0  0
 53 39  1  0  0  0  0
 55 54  1  0  0  0  0
M  END
>  <MODEL>
1

>  <REMARK>
 VINA RESULT:      -7.2      0.000      0.000
  Name = 
  15 active torsions:
  status: ('A' for Active; 'I' for Inactive)
    1  A    between atoms: C_2  and  C_28
    2  A    between atoms: C_2  and  C_44
    3  A    between atoms: O_4  and  C_40
    4  A    between atoms: C_8  and  C_22
    5  A    between atoms: C_8  and  C_43
    6  A    between atoms: C_11  and  C_38
    7  A    between atoms: C_19  and  C_40
    8  A    between atoms: C_19  and  C_45
    9  A    between atoms: C_20  and  C_22
   10  A    between atoms: C_27  and  C_54
   11  A    between atoms: C_28  and  C_49
   12  A    between atoms: N_33  and  C_52
   13  A    between atoms: C_35  and  C_43
   14  A    between atoms: C_35  and  O_51
   15  A    between atoms: O_51  and  C_54
                            x       y       z     vdW  Elec       q    Type
                         _______ _______ _______ _____ _____    ______ ____

>  <TORSDO>
F 15

$$$$
=
 OpenBabel10262420333D

 55 60  0  0  1  0  0  0  0  0999 V2000
  185.9580  178.6640  143.3610 C   0  0  0  0  0  3  0  0  0  0  0  0
  183.5760  178.6670  141.8930 C   0  0  0  0  0  0  0  0  0  0  0  0
  184.8070  178.6780  141.2300 C   0  0  0  0  0  3  0  0  0  0  0  0
  184.7260  178.6630  144.0240 C   0  0  0  0  0  3  0  0  0  0  0  0
  185.9990  178.6790  141.9630 C   0  0  0  0  0  0  0  0  0  0  0  0
  183.5350  178.6670  143.2910 C   0  0  0  0  0  3  0  0  0  0  0  0
  187.3060  178.6630  141.2520 C   0  0  0  0  0  2  0  0  0  0  0  0
  187.7570  177.2290  141.0290 C   0  0  0  0  0  2  0  0  0  0  0  0
  191.4390  176.7050  137.1850 S   0  0  0  0  0  0  0  0  0  0  0  0
  193.3510  174.8630  137.8360 C   0  0  0  0  0  1  0  0  0  0  0  0
  191.8990  177.0850  139.7430 C   0  0  0  0  0  0  0  0  0  0  0  0
  193.2680  176.9500  139.1870 C   0  0  0  0  0  2  0  0  0  0  0  0
  193.1280  176.3630  137.7870 C   0  0  2  0  0  3  0  0  0  0  0  0
  190.9130  176.9760  138.8700 C   0  0  0  0  0  0  0  0  0  0  0  0
  190.2440  177.4370  141.5500 N   0  0  0  0  0  0  0  0  0  0  0  0
  191.6660  177.2590  141.2130 C   0  0  0  0  0  2  0  0  0  0  0  0
  189.4970  176.9910  139.2880 C   0  0  0  0  0  0  0  0  0  0  0  0
  189.1920  177.2010  140.5850 C   0  0  0  0  0  0  0  0  0  0  0  0
  190.1090  176.9480  147.0880 C   0  0  0  0  0  0  0  0  0  0  0  0
  189.0980  176.6290  143.5770 C   0  0  0  0  0  2  0  0  0  0  0  0
  191.2810  177.4080  147.8880 C   0  0  0  0  0  1  0  0  0  0  0  0
  189.8990  177.4190  145.7480 N   0  0  0  0  0  0  0  0  0  0  0  0
  191.1430  178.0890  143.7500 C   0  0  0  0  0  2  0  0  0  0  0  0
  190.7500  178.4620  145.1770 C   0  0  0  0  0  2  0  0  0  0  0  0
  189.3070  176.1260  147.6040 O   0  0  0  0  0  0  0  0  0  0  0  0
  188.7100  177.0100  145.0030 C   0  0  0  0  0  2  0  0  0  0  0  0
  189.8930  177.7640  142.9310 C   0  0  0  0  0  3  0  0  0  0  0  0
  188.4230  176.7780  138.2560 C   0  0  0  0  0  2  0  0  0  0  0  0
  186.5300  178.3120  137.8790 N   0  0  0  0  0  1  0  0  0  0  0  0
  187.9580  178.1110  137.6650 C   0  0  2  0  0  3  0  0  0  0  0  0
  188.3220  178.2760  136.3090 O   0  0  0  0  0  0  0  0  0  0  0  0
  187.1650  178.5140  135.5490 C   0  0  0  0  0  1  0  0  0  0  0  0
  182.3110  178.6790  141.1060 C   0  0  0  0  0  2  0  0  0  0  0  0
  182.5570  179.1390  139.8090 O   0  0  0  0  0  0  0  0  0  0  0  0
  181.2920  179.3590  139.2530 C   0  0  0  0  0  2  0  0  0  0  0  0
  181.2960  179.0180  137.7730 C   0  0  0  0  0  2  0  0  0  0  0  0
  182.5000  178.1610  137.4290 C   0  0  0  0  0  2  0  0  0  0  0  0
  182.1170  177.1810  136.3300 C   0  0  0  0  0  2  0  0  0  0  0  0
  183.2270  172.9340  136.6220 C   0  0  2  0  0  0  0  0  0  0  0  0
  185.8820  174.7470  137.1240 C   0  0  0  0  0  2  0  0  0  0  0  0
  183.3910  175.3060  137.5810 C   0  0  2  0  0  0  0  0  0  0  0  0
  180.9720  175.5100  137.5900 O   0  0  0  0  0  1  0  0  0  0  0  0
  184.5710  175.9170  135.4880 F   0  0  0  0  0  0  0  0  0  0  0  0
  184.7100  175.6960  136.8500 C   0  0  2  0  0  3  0  0  0  0  0  0
  182.1040  175.7160  136.7910 C   0  0  1  0  0  0  0  0  0  0  0  0
  181.9770  173.3570  135.8400 C   0  0  0  0  0  2  0  0  0  0  0  0
  184.4830  173.0110  135.7670 C   0  0  0  0  0  0  0  0  0  0  0  0
  183.0370  171.4950  137.0560 C   0  0  0  0  0  1  0  0  0  0  0  0
  185.8310  173.4100  136.3570 C   0  0  1  0  0  3  0  0  0  0  0  0
  181.9640  174.8560  135.5270 C   0  0  0  0  0  2  0  0  0  0  0  0
  183.3950  175.9580  138.8170 O   0  0  0  0  0  1  0  0  0  0  0  0
  184.4170  172.6680  134.5940 O   0  0  0  0  0  0  0  0  0  0  0  0
  183.3300  173.7940  137.8840 C   0  0  0  0  0  2  0  0  0  0  0  0
  186.9910  173.3120  135.3670 C   0  0  0  0  0  2  0  0  0  0  0  0
  187.4320  174.5830  134.9910 O   0  0  0  0  0  1  0  0  0  0  0  0
  1  4  1  0  0  0  0
  2  6  1  0  0  0  0
  3  2  2  0  0  0  0
  3  5  1  0  0  0  0
  5  1  2  0  0  0  0
  6  4  2  0  0  0  0
  7  5  1  0  0  0  0
  8  7  1  0  0  0  0
  9 13  1  0  0  0  0
  9 14  1  0  0  0  0
 11 16  1  0  0  0  0
 12 11  1  0  0  0  0
 13 10  1  1  0  0  0
 13 12  1  0  0  0  0
 14 17  1  0  0  0  0
 14 11  2  0  0  0  0
 15 27  1  0  0  0  0
 16 15  1  0  0  0  0
 17 18  2  0  0  0  0
 18  8  1  0  0  0  0
 18 15  1  0  0  0  0
 19 25  2  0  0  0  0
 19 21  1  0  0  0  0
 20 26  1  0  0  0  0
 22 19  1  0  0  0  0
 23 24  1  0  0  0  0
 24 22  1  0  0  0  0
 26 22  1  0  0  0  0
 27 20  1  0  0  0  0
 27 23  1  0  0  0  0
 28 17  1  0  0  0  0
 30 29  1  6  0  0  0
 30 28  1  0  0  0  0
 31 30  1  0  0  0  0
 32 31  1  0  0  0  0
 33  2  1  0  0  0  0
 34 33  1  0  0  0  0
 35 34  1  0  0  0  0
 36 35  1  0  0  0  0
 37 36  1  0  0  0  0
 38 45  1  0  0  0  0
 38 37  1  0  0  0  0
 39 48  1  1  0  0  0
 39 53  1  0  0  0  0
 41 53  1  0  0  0  0
 41 51  1  1  0  0  0
 44 43  1  6  0  0  0
 44 40  1  0  0  0  0
 44 41  1  0  0  0  0
 45 41  1  0  0  0  0
 45 42  1  1  0  0  0
 46 39  1  0  0  0  0
 47 49  1  0  0  0  0
 47 39  1  0  0  0  0
 49 54  1  6  0  0  0
 49 40  1  0  0  0  0
 50 46  1  0  0  0  0
 50 45  1  0  0  0  0
 52 47  2  0  0  0  0
 55 54  1  0  0  0  0
M  END
>  <MODEL>
2

>  <REMARK>
 VINA RESULT:      -6.8      1.232      2.091
  Name = 
  15 active torsions:
  status: ('A' for Active; 'I' for Inactive)
    1  A    between atoms: C_2  and  C_28
    2  A    between atoms: C_2  and  C_44
    3  A    between atoms: O_4  and  C_40
    4  A    between atoms: C_8  and  C_22
    5  A    between atoms: C_8  and  C_43
    6  A    between atoms: C_11  and  C_38
    7  A    between atoms: C_19  and  C_40
    8  A    between atoms: C_19  and  C_45
    9  A    between atoms: C_20  and  C_22
   10  A    between atoms: C_27  and  C_54
   11  A    between atoms: C_28  and  C_49
   12  A    between atoms: N_33  and  C_52
   13  A    between atoms: C_35  and  C_43
   14  A    between atoms: C_35  and  O_51
   15  A    between atoms: O_51  and  C_54
                            x       y       z     vdW  Elec       q    Type
                         _______ _______ _______ _____ _____    ______ ____

>  <TORSDO>
F 15

$$$$
=
 OpenBabel10262420333D

 55 60  0  0  1  0  0  0  0  0999 V2000
  191.3370  177.5470  140.6040 C   0  0  0  0  0  3  0  0  0  0  0  0
  190.5310  176.1350  138.3270 C   0  0  0  0  0  0  0  0  0  0  0  0
  189.5740  176.6700  139.1950 C   0  0  0  0  0  3  0  0  0  0  0  0
  192.2950  177.0050  139.7400 C   0  0  0  0  0  3  0  0  0  0  0  0
  189.9750  177.3740  140.3340 C   0  0  0  0  0  0  0  0  0  0  0  0
  191.8920  176.2960  138.6030 C   0  0  0  0  0  3  0  0  0  0  0  0
  188.9520  177.9640  141.2400 C   0  0  0  0  0  2  0  0  0  0  0  0
  188.2400  176.8620  142.0060 C   0  0  0  0  0  2  0  0  0  0  0  0
  189.0110  178.1290  147.1450 S   0  0  0  0  0  0  0  0  0  0  0  0
  187.1280  177.0010  148.7750 C   0  0  0  0  0  1  0  0  0  0  0  0
  186.7570  178.3270  145.8120 C   0  0  0  0  0  0  0  0  0  0  0  0
  186.3590  178.7460  147.1780 C   0  0  0  0  0  2  0  0  0  0  0  0
  187.4810  178.3230  148.1200 C   0  0  2  0  0  3  0  0  0  0  0  0
  188.0260  177.9900  145.6620 C   0  0  0  0  0  0  0  0  0  0  0  0
  186.3620  177.8560  143.4140 N   0  0  0  0  0  0  0  0  0  0  0  0
  185.7540  178.2260  144.7020 C   0  0  0  0  0  2  0  0  0  0  0  0
  188.5460  177.4600  144.3860 C   0  0  0  0  0  0  0  0  0  0  0  0
  187.7280  177.3900  143.3150 C   0  0  0  0  0  0  0  0  0  0  0  0
  182.6240  179.7580  139.7620 C   0  0  0  0  0  0  0  0  0  0  0  0
  184.0380  177.9080  142.5950 C   0  0  0  0  0  2  0  0  0  0  0  0
  183.0340  180.8000  138.7770 C   0  0  0  0  0  1  0  0  0  0  0  0
  183.6020  178.9410  140.4220 N   0  0  0  0  0  0  0  0  0  0  0  0
  185.8810  179.0400  141.3060 C   0  0  0  0  0  2  0  0  0  0  0  0
  185.0150  179.0120  140.0500 C   0  0  0  0  0  2  0  0  0  0  0  0
  181.3990  179.6130  140.0180 O   0  0  0  0  0  0  0  0  0  0  0  0
  183.1790  177.8800  141.3340 C   0  0  0  0  0  2  0  0  0  0  0  0
  185.5190  177.8680  142.2190 C   0  0  0  0  0  3  0  0  0  0  0  0
  189.9810  177.0160  144.3050 C   0  0  0  0  0  2  0  0  0  0  0  0
  191.2020  179.1080  143.8460 N   0  0  0  0  0  1  0  0  0  0  0  0
  190.9200  178.0930  144.8530 C   0  0  2  0  0  3  0  0  0  0  0  0
  192.1020  177.5630  145.4210 O   0  0  0  0  0  0  0  0  0  0  0  0
  191.7870  176.3900  146.1280 C   0  0  0  0  0  1  0  0  0  0  0  0
  190.0960  175.3750  137.1210 C   0  0  0  0  0  2  0  0  0  0  0  0
  190.0400  174.0080  137.4090 O   0  0  0  0  0  0  0  0  0  0  0  0
  190.3330  173.3680  136.2010 C   0  0  0  0  0  2  0  0  0  0  0  0
  189.0780  173.2280  135.3570 C   0  0  0  0  0  2  0  0  0  0  0  0
  187.9000  172.8180  136.2210 C   0  0  0  0  0  2  0  0  0  0  0  0
  186.6080  173.2300  135.5320 C   0  0  0  0  0  2  0  0  0  0  0  0
  183.1600  175.6220  136.8520 C   0  0  2  0  0  0  0  0  0  0  0  0
  182.3330  172.4760  136.9060 C   0  0  0  0  0  2  0  0  0  0  0  0
  184.6630  173.5760  137.2060 C   0  0  2  0  0  0  0  0  0  0  0  0
  186.6450  174.9760  137.1580 O   0  0  0  0  0  1  0  0  0  0  0  0
  183.8070  172.7510  135.0310 F   0  0  0  0  0  0  0  0  0  0  0  0
  183.7790  172.5740  136.4050 C   0  0  2  0  0  3  0  0  0  0  0  0
  185.7790  174.2440  136.3350 C   0  0  1  0  0  0  0  0  0  0  0  0
  184.2570  176.2560  135.9870 C   0  0  0  0  0  2  0  0  0  0  0  0
  182.1100  174.9170  136.0080 C   0  0  0  0  0  0  0  0  0  0  0  0
  182.4790  176.7350  137.6230 C   0  0  0  0  0  1  0  0  0  0  0  0
  181.4190  173.6450  136.4870 C   0  0  1  0  0  3  0  0  0  0  0  0
  185.1510  175.2070  135.3190 C   0  0  0  0  0  2  0  0  0  0  0  0
  185.2620  172.8600  138.2450 O   0  0  0  0  0  1  0  0  0  0  0  0
  181.7610  175.4310  134.9530 O   0  0  0  0  0  0  0  0  0  0  0  0
  183.8160  174.6840  137.8680 C   0  0  0  0  0  2  0  0  0  0  0  0
  180.3110  173.1560  135.5540 C   0  0  0  0  0  2  0  0  0  0  0  0
  180.8140  172.2450  134.6220 O   0  0  0  0  0  1  0  0  0  0  0  0
  2  6  2  0  0  0  0
  2  3  1  0  0  0  0
  3  5  2  0  0  0  0
  4  1  2  0  0  0  0
  5  1  1  0  0  0  0
  5  7  1  0  0  0  0
  6  4  1  0  0  0  0
  7  8  1  0  0  0  0
  8 18  1  0  0  0  0
  9 13  1  0  0  0  0
 11 12  1  0  0  0  0
 12 13  1  0  0  0  0
 13 10  1  6  0  0  0
 14 11  2  0  0  0  0
 14  9  1  0  0  0  0
 15 16  1  0  0  0  0
 16 11  1  0  0  0  0
 17 14  1  0  0  0  0
 18 15  1  0  0  0  0
 18 17  2  0  0  0  0
 19 25  2  0  0  0  0
 19 22  1  0  0  0  0
 21 19  1  0  0  0  0
 22 26  1  0  0  0  0
 23 27  1  0  0  0  0
 24 22  1  0  0  0  0
 24 23  1  0  0  0  0
 26 20  1  0  0  0  0
 27 20  1  0  0  0  0
 27 15  1  0  0  0  0
 28 17  1  0  0  0  0
 28 30  1  0  0  0  0
 30 29  1  6  0  0  0
 30 31  1  0  0  0  0
 31 32  1  0  0  0  0
 33 34  1  0  0  0  0
 33  2  1  0  0  0  0
 35 34  1  0  0  0  0
 36 35  1  0  0  0  0
 36 37  1  0  0  0  0
 38 37  1  0  0  0  0
 38 45  1  0  0  0  0
 39 48  1  1  0  0  0
 39 53  1  0  0  0  0
 41 53  1  0  0  0  0
 41 51  1  1  0  0  0
 44 43  1  6  0  0  0
 44 40  1  0  0  0  0
 44 41  1  0  0  0  0
 45 42  1  1  0  0  0
 45 41  1  0  0  0  0
 46 39  1  0  0  0  0
 47 49  1  0  0  0  0
 47 39  1  0  0  0  0
 49 54  1  6  0  0  0
 49 40  1  0  0  0  0
 50 46  1  0  0  0  0
 50 45  1  0  0  0  0
 52 47  2  0  0  0  0
 55 54  1  0  0  0  0
M  END
>  <MODEL>
3

>  <REMARK>
 VINA RESULT:      -6.8      2.535      7.267
  Name = 
  15 active torsions:
  status: ('A' for Active; 'I' for Inactive)
    1  A    between atoms: C_2  and  C_28
    2  A    between atoms: C_2  and  C_44
    3  A    between atoms: O_4  and  C_40
    4  A    between atoms: C_8  and  C_22
    5  A    between atoms: C_8  and  C_43
    6  A    between atoms: C_11  and  C_38
    7  A    between atoms: C_19  and  C_40
    8  A    between atoms: C_19  and  C_45
    9  A    between atoms: C_20  and  C_22
   10  A    between atoms: C_27  and  C_54
   11  A    between atoms: C_28  and  C_49
   12  A    between atoms: N_33  and  C_52
   13  A    between atoms: C_35  and  C_43
   14  A    between atoms: C_35  and  O_51
   15  A    between atoms: O_51  and  C_54
                            x       y       z     vdW  Elec       q    Type
                         _______ _______ _______ _____ _____    ______ ____

>  <TORSDO>
F 15

$$$$
=
 OpenBabel10262420333D

 55 60  0  0  1  0  0  0  0  0999 V2000
  190.2660  177.8510  140.8040 C   0  0  0  0  0  3  0  0  0  0  0  0
  189.4010  176.9060  138.3170 C   0  0  0  0  0  0  0  0  0  0  0  0
  188.4880  177.4900  139.2010 C   0  0  0  0  0  3  0  0  0  0  0  0
  191.1780  177.2590  139.9250 C   0  0  0  0  0  3  0  0  0  0  0  0
  188.9190  177.9610  140.4460 C   0  0  0  0  0  0  0  0  0  0  0  0
  190.7450  176.7830  138.6820 C   0  0  0  0  0  3  0  0  0  0  0  0
  187.9480  178.6070  141.3700 C   0  0  0  0  0  2  0  0  0  0  0  0
  187.1270  177.5460  142.0830 C   0  0  0  0  0  2  0  0  0  0  0  0
  189.3100  177.5320  146.9660 S   0  0  0  0  0  0  0  0  0  0  0  0
  187.6660  176.3830  148.8240 C   0  0  0  0  0  1  0  0  0  0  0  0
  186.8980  178.3620  146.3390 C   0  0  0  0  0  0  0  0  0  0  0  0
  186.9220  178.5300  147.8130 C   0  0  0  0  0  2  0  0  0  0  0  0
  188.1200  177.7450  148.3340 C   0  0  2  0  0  3  0  0  0  0  0  0
  188.0010  177.8730  145.8000 C   0  0  0  0  0  0  0  0  0  0  0  0
  185.8700  178.4880  144.0900 N   0  0  0  0  0  0  0  0  0  0  0  0
  185.6660  178.6600  145.5380 C   0  0  0  0  0  2  0  0  0  0  0  0
  188.0910  177.5580  144.3590 C   0  0  0  0  0  0  0  0  0  0  0  0
  187.0510  177.8490  143.5520 C   0  0  0  0  0  0  0  0  0  0  0  0
  181.0640  178.1250  141.3160 C   0  0  0  0  0  0  0  0  0  0  0  0
  184.6540  177.8990  142.0290 C   0  0  0  0  0  2  0  0  0  0  0  0
  179.7870  178.4160  142.0300 C   0  0  0  0  0  1  0  0  0  0  0  0
  182.3190  178.5980  141.8260 N   0  0  0  0  0  0  0  0  0  0  0  0
  183.4710  179.0360  143.9390 C   0  0  0  0  0  2  0  0  0  0  0  0
  182.3720  179.4900  142.9830 C   0  0  0  0  0  2  0  0  0  0  0  0
  181.0250  177.4420  140.2580 O   0  0  0  0  0  0  0  0  0  0  0  0
  183.5530  178.3600  141.0780 C   0  0  0  0  0  2  0  0  0  0  0  0
  184.7940  178.8890  143.1850 C   0  0  0  0  0  3  0  0  0  0  0  0
  189.3460  176.9260  143.8230 C   0  0  0  0  0  2  0  0  0  0  0  0
  190.5450  179.0800  143.8620 N   0  0  0  0  0  1  0  0  0  0  0  0
  190.5880  177.6880  144.2920 C   0  0  2  0  0  3  0  0  0  0  0  0
  191.7990  177.0560  143.9270 O   0  0  0  0  0  0  0  0  0  0  0  0
  191.8200  175.7580  144.4660 C   0  0  0  0  0  1  0  0  0  0  0  0
  188.9320  176.3950  136.9990 C   0  0  0  0  0  2  0  0  0  0  0  0
  189.6380  175.2390  136.6520 O   0  0  0  0  0  0  0  0  0  0  0  0
  189.2260  174.9360  135.3500 C   0  0  0  0  0  2  0  0  0  0  0  0
  190.2520  174.0520  134.6620 C   0  0  0  0  0  2  0  0  0  0  0  0
  191.4570  173.8390  135.5590 C   0  0  0  0  0  2  0  0  0  0  0  0
  192.6320  174.6380  135.0150 C   0  0  0  0  0  2  0  0  0  0  0  0
  195.7110  174.0200  138.0960 C   0  0  2  0  0  0  0  0  0  0  0  0
  196.5480  172.3530  135.4300 C   0  0  0  0  0  2  0  0  0  0  0  0
  195.1400  174.5210  135.6470 C   0  0  2  0  0  0  0  0  0  0  0  0
  193.6790  176.3380  136.3200 O   0  0  0  0  0  1  0  0  0  0  0  0
  194.1530  172.2480  135.5620 F   0  0  0  0  0  0  0  0  0  0  0  0
  195.2100  173.0450  135.1500 C   0  0  2  0  0  3  0  0  0  0  0  0
  193.6990  174.9600  136.0720 C   0  0  1  0  0  0  0  0  0  0  0  0
  194.2890  174.4370  138.4930 C   0  0  0  0  0  2  0  0  0  0  0  0
  195.8340  172.5120  137.9360 C   0  0  0  0  0  0  0  0  0  0  0  0
  196.6480  174.4570  139.2040 C   0  0  0  0  0  1  0  0  0  0  0  0
  196.7500  171.8900  136.8870 C   0  0  1  0  0  3  0  0  0  0  0  0
  193.2820  174.2330  137.3580 C   0  0  0  0  0  2  0  0  0  0  0  0
  195.5730  175.3310  134.5960 O   0  0  0  0  0  1  0  0  0  0  0  0
  195.2400  171.7870  138.7220 O   0  0  0  0  0  0  0  0  0  0  0  0
  196.1060  174.7740  136.8240 C   0  0  0  0  0  2  0  0  0  0  0  0
  196.8280  170.3660  136.9620 C   0  0  0  0  0  2  0  0  0  0  0  0
  196.0170  169.7780  135.9880 O   0  0  0  0  0  1  0  0  0  0  0  0
  2  6  2  0  0  0  0
  2  3  1  0  0  0  0
  3  5  2  0  0  0  0
  4  1  2  0  0  0  0
  5  1  1  0  0  0  0
  5  7  1  0  0  0  0
  6  4  1  0  0  0  0
  7  8  1  0  0  0  0
  8 18  1  0  0  0  0
  9 13  1  0  0  0  0
 11 12  1  0  0  0  0
 12 13  1  0  0  0  0
 13 10  1  6  0  0  0
 14 11  2  0  0  0  0
 14  9  1  0  0  0  0
 15 16  1  0  0  0  0
 16 11  1  0  0  0  0
 17 14  1  0  0  0  0
 18 15  1  0  0  0  0
 18 17  2  0  0  0  0
 19 22  1  0  0  0  0
 19 21  1  0  0  0  0
 20 27  1  0  0  0  0
 22 24  1  0  0  0  0
 24 23  1  0  0  0  0
 25 19  2  0  0  0  0
 26 22  1  0  0  0  0
 26 20  1  0  0  0  0
 27 23  1  0  0  0  0
 27 15  1  0  0  0  0
 28 30  1  0  0  0  0
 28 17  1  0  0  0  0
 30 29  1  6  0  0  0
 31 30  1  0  0  0  0
 31 32  1  0  0  0  0
 33  2  1  0  0  0  0
 34 33  1  0  0  0  0
 35 34  1  0  0  0  0
 36 35  1  0  0  0  0
 36 37  1  0  0  0  0
 38 37  1  0  0  0  0
 38 45  1  0  0  0  0
 39 46  1  0  0  0  0
 39 48  1  1  0  0  0
 40 49  1  0  0  0  0
 41 51  1  6  0  0  0
 41 45  1  0  0  0  0
 41 53  1  0  0  0  0
 44 40  1  0  0  0  0
 44 43  1  1  0  0  0
 44 41  1  0  0  0  0
 45 42  1  1  0  0  0
 45 50  1  0  0  0  0
 47 39  1  0  0  0  0
 47 52  2  0  0  0  0
 49 54  1  6  0  0  0
 49 47  1  0  0  0  0
 50 46  1  0  0  0  0
 53 39  1  0  0  0  0
 55 54  1  0  0  0  0
M  END
>  <MODEL>
4

>  <REMARK>
 VINA RESULT:      -6.5      4.284      9.792
  Name = 
  15 active torsions:
  status: ('A' for Active; 'I' for Inactive)
    1  A    between atoms: C_2  and  C_28
    2  A    between atoms: C_2  and  C_44
    3  A    between atoms: O_4  and  C_40
    4  A    between atoms: C_8  and  C_22
    5  A    between atoms: C_8  and  C_43
    6  A    between atoms: C_11  and  C_38
    7  A    between atoms: C_19  and  C_40
    8  A    between atoms: C_19  and  C_45
    9  A    between atoms: C_20  and  C_22
   10  A    between atoms: C_27  and  C_54
   11  A    between atoms: C_28  and  C_49
   12  A    between atoms: N_33  and  C_52
   13  A    between atoms: C_35  and  C_43
   14  A    between atoms: C_35  and  O_51
   15  A    between atoms: O_51  and  C_54
                            x       y       z     vdW  Elec       q    Type
                         _______ _______ _______ _____ _____    ______ ____

>  <TORSDO>
F 15

$$$$
=
 OpenBabel10262420333D

 55 60  0  0  1  0  0  0  0  0999 V2000
  185.7280  178.5190  139.3500 C   0  0  0  0  0  3  0  0  0  0  0  0
  187.7390  177.8520  137.5230 C   0  0  0  0  0  0  0  0  0  0  0  0
  188.0530  178.0430  138.8720 C   0  0  0  0  0  3  0  0  0  0  0  0
  185.4140  178.3370  137.9990 C   0  0  0  0  0  3  0  0  0  0  0  0
  187.0490  178.3790  139.7860 C   0  0  0  0  0  0  0  0  0  0  0  0
  186.4210  178.0060  137.0850 C   0  0  0  0  0  3  0  0  0  0  0  0
  187.3850  178.5540  141.2260 C   0  0  0  0  0  2  0  0  0  0  0  0
  186.6220  177.5410  142.0620 C   0  0  0  0  0  2  0  0  0  0  0  0
  189.7830  177.0970  146.3550 S   0  0  0  0  0  0  0  0  0  0  0  0
  188.4770  175.9850  148.4830 C   0  0  0  0  0  1  0  0  0  0  0  0
  187.3760  178.1460  146.2930 C   0  0  0  0  0  0  0  0  0  0  0  0
  187.7280  178.2340  147.7320 C   0  0  0  0  0  2  0  0  0  0  0  0
  188.9360  177.3300  147.9540 C   0  0  2  0  0  3  0  0  0  0  0  0
  188.2920  177.6010  145.5120 C   0  0  0  0  0  0  0  0  0  0  0  0
  185.9100  178.4730  144.3260 N   0  0  0  0  0  0  0  0  0  0  0  0
  186.0340  178.5830  145.7880 C   0  0  0  0  0  2  0  0  0  0  0  0
  188.0460  177.3560  144.0760 C   0  0  0  0  0  0  0  0  0  0  0  0
  186.8880  177.7720  143.5230 C   0  0  0  0  0  0  0  0  0  0  0  0
  180.6260  178.6140  142.5990 C   0  0  0  0  0  0  0  0  0  0  0  0
  184.2580  178.1110  142.5330 C   0  0  0  0  0  2  0  0  0  0  0  0
  179.5480  178.9340  143.5790 C   0  0  0  0  0  1  0  0  0  0  0  0
  181.9910  178.9690  142.8610 N   0  0  0  0  0  0  0  0  0  0  0  0
  183.5800  179.1810  144.7100 C   0  0  0  0  0  2  0  0  0  0  0  0
  182.3470  179.7710  144.0310 C   0  0  0  0  0  2  0  0  0  0  0  0
  180.3200  178.0130  141.5350 O   0  0  0  0  0  0  0  0  0  0  0  0
  183.0240  178.7070  141.8610 C   0  0  0  0  0  2  0  0  0  0  0  0
  184.7060  179.0050  143.6900 C   0  0  0  0  0  3  0  0  0  0  0  0
  189.0970  176.6560  143.2590 C   0  0  0  0  0  2  0  0  0  0  0  0
  191.4850  176.9900  143.7740 N   0  0  0  0  0  1  0  0  0  0  0  0
  190.3310  177.5430  143.0760 C   0  0  2  0  0  3  0  0  0  0  0  0
  190.0990  178.8960  143.4170 O   0  0  0  0  0  0  0  0  0  0  0  0
  191.2400  179.4090  144.0570 C   0  0  0  0  0  1  0  0  0  0  0  0
  188.8170  177.5070  136.5540 C   0  0  0  0  0  2  0  0  0  0  0  0
  189.7270  176.6230  137.1410 O   0  0  0  0  0  0  0  0  0  0  0  0
  189.5410  175.4090  136.4720 C   0  0  0  0  0  2  0  0  0  0  0  0
  188.4500  174.5940  137.1460 C   0  0  0  0  0  2  0  0  0  0  0  0
  187.7730  173.6800  136.1420 C   0  0  0  0  0  2  0  0  0  0  0  0
  186.5630  173.0310  136.7960 C   0  0  0  0  0  2  0  0  0  0  0  0
  182.3380  173.0480  135.5700 C   0  0  2  0  0  0  0  0  0  0  0  0
  182.9260  175.7150  137.3380 C   0  0  0  0  0  2  0  0  0  0  0  0
  184.5380  174.3350  135.8470 C   0  0  2  0  0  0  0  0  0  0  0  0
  185.7340  172.6350  134.5940 O   0  0  0  0  0  1  0  0  0  0  0  0
  184.2770  173.9710  138.2850 F   0  0  0  0  0  0  0  0  0  0  0  0
  184.2250  174.9060  137.2620 C   0  0  2  0  0  3  0  0  0  0  0  0
  185.3250  172.9830  135.8880 C   0  0  1  0  0  0  0  0  0  0  0  0
  183.1220  171.7310  135.6300 C   0  0  0  0  0  2  0  0  0  0  0  0
  181.7520  173.4200  136.9240 C   0  0  0  0  0  0  0  0  0  0  0  0
  181.1930  172.8610  134.5940 C   0  0  0  0  0  1  0  0  0  0  0  0
  181.6340  174.8730  137.3740 C   0  0  1  0  0  3  0  0  0  0  0  0
  184.4230  171.8630  136.4260 C   0  0  0  0  0  2  0  0  0  0  0  0
  185.3050  175.2900  135.1770 O   0  0  0  0  0  1  0  0  0  0  0  0
  181.2970  172.5320  137.6320 O   0  0  0  0  0  0  0  0  0  0  0  0
  183.2540  174.1400  135.0120 C   0  0  0  0  0  2  0  0  0  0  0  0
  180.9120  175.0480  138.7090 C   0  0  0  0  0  2  0  0  0  0  0  0
  181.7680  175.5970  139.6680 O   0  0  0  0  0  1  0  0  0  0  0  0
  1  5  1  0  0  0  0
  2  3  1  0  0  0  0
  3  5  2  0  0  0  0
  4  1  2  0  0  0  0
  5  7  1  0  0  0  0
  6  2  2  0  0  0  0
  6  4  1  0  0  0  0
  7  8  1  0  0  0  0
  8 18  1  0  0  0  0
  9 13  1  0  0  0  0
 11 12  1  0  0  0  0
 12 13  1  0  0  0  0
 13 10  1  6  0  0  0
 14 11  2  0  0  0  0
 14  9  1  0  0  0  0
 15 16  1  0  0  0  0
 16 11  1  0  0  0  0
 17 14  1  0  0  0  0
 18 17  2  0  0  0  0
 18 15  1  0  0  0  0
 19 22  1  0  0  0  0
 19 21  1  0  0  0  0
 20 27  1  0  0  0  0
 22 24  1  0  0  0  0
 24 23  1  0  0  0  0
 25 19  2  0  0  0  0
 26 20  1  0  0  0  0
 26 22  1  0  0  0  0
 27 15  1  0  0  0  0
 27 23  1  0  0  0  0
 28 17  1  0  0  0  0
 30 28  1  0  0  0  0
 30 31  1  0  0  0  0
 30 29  1  1  0  0  0
 31 32  1  0  0  0  0
 33 34  1  0  0  0  0
 33  2  1  0  0  0  0
 35 34  1  0  0  0  0
 35 36  1  0  0  0  0
 37 38  1  0  0  0  0
 37 36  1  0  0  0  0
 39 48  1  6  0  0  0
 39 46  1  0  0  0  0
 39 47  1  0  0  0  0
 40 49  1  0  0  0  0
 41 51  1  6  0  0  0
 41 45  1  0  0  0  0
 41 44  1  0  0  0  0
 44 40  1  0  0  0  0
 44 43  1  1  0  0  0
 45 42  1  6  0  0  0
 45 50  1  0  0  0  0
 45 38  1  0  0  0  0
 46 50  1  0  0  0  0
 47 49  1  0  0  0  0
 47 52  2  0  0  0  0
 49 54  1  1  0  0  0
 53 39  1  0  0  0  0
 53 41  1  0  0  0  0
 54 55  1  0  0  0  0
M  END
>  <MODEL>
5

>  <REMARK>
 VINA RESULT:      -6.3      2.746      6.754
  Name = 
  15 active torsions:
  status: ('A' for Active; 'I' for Inactive)
    1  A    between atoms: C_2  and  C_28
    2  A    between atoms: C_2  and  C_44
    3  A    between atoms: O_4  and  C_40
    4  A    between atoms: C_8  and  C_22
    5  A    between atoms: C_8  and  C_43
    6  A    between atoms: C_11  and  C_38
    7  A    between atoms: C_19  and  C_40
    8  A    between atoms: C_19  and  C_45
    9  A    between atoms: C_20  and  C_22
   10  A    between atoms: C_27  and  C_54
   11  A    between atoms: C_28  and  C_49
   12  A    between atoms: N_33  and  C_52
   13  A    between atoms: C_35  and  C_43
   14  A    between atoms: C_35  and  O_51
   15  A    between atoms: O_51  and  C_54
                            x       y       z     vdW  Elec       q    Type
                         _______ _______ _______ _____ _____    ______ ____

>  <TORSDO>
F 15

$$$$
=
 OpenBabel10262420333D

 55 60  0  0  1  0  0  0  0  0999 V2000
  188.8590  178.7640  142.6600 C   0  0  0  0  0  3  0  0  0  0  0  0
  189.9600  177.4190  140.4680 C   0  0  0  0  0  0  0  0  0  0  0  0
  188.6180  177.8100  140.4480 C   0  0  0  0  0  3  0  0  0  0  0  0
  190.1990  178.3650  142.6850 C   0  0  0  0  0  3  0  0  0  0  0  0
  188.0650  178.4810  141.5440 C   0  0  0  0  0  0  0  0  0  0  0  0
  190.7500  177.6900  141.5900 C   0  0  0  0  0  3  0  0  0  0  0  0
  186.6440  178.9190  141.5050 C   0  0  0  0  0  2  0  0  0  0  0  0
  185.7270  177.7210  141.6810 C   0  0  0  0  0  2  0  0  0  0  0  0
  180.4430  178.3110  141.0990 S   0  0  0  0  0  0  0  0  0  0  0  0
  179.6270  180.8630  141.6420 C   0  0  0  0  0  1  0  0  0  0  0  0
  181.8750  179.0510  143.1730 C   0  0  0  0  0  0  0  0  0  0  0  0
  180.5150  179.5200  143.5370 C   0  0  0  0  0  2  0  0  0  0  0  0
  179.6730  179.4820  142.2670 C   0  0  2  0  0  3  0  0  0  0  0  0
  181.9780  178.4510  142.0000 C   0  0  0  0  0  0  0  0  0  0  0  0
  184.2990  178.7140  143.5450 N   0  0  0  0  0  0  0  0  0  0  0  0
  183.0570  179.3160  144.0550 C   0  0  0  0  0  2  0  0  0  0  0  0
  183.2820  178.0180  141.4580 C   0  0  0  0  0  0  0  0  0  0  0  0
  184.3930  178.1630  142.2100 C   0  0  0  0  0  0  0  0  0  0  0  0
  187.6380  177.5720  147.8430 C   0  0  0  0  0  0  0  0  0  0  0  0
  185.1610  179.3150  145.7740 C   0  0  0  0  0  2  0  0  0  0  0  0
  188.3980  176.2880  147.8530 C   0  0  0  0  0  1  0  0  0  0  0  0
  187.1150  178.1100  146.6200 N   0  0  0  0  0  0  0  0  0  0  0  0
  186.1600  177.3970  144.4820 C   0  0  0  0  0  2  0  0  0  0  0  0
  187.4240  177.4880  145.3320 C   0  0  0  0  0  2  0  0  0  0  0  0
  187.4510  178.1750  148.9320 O   0  0  0  0  0  0  0  0  0  0  0  0
  186.4300  179.4010  146.6180 C   0  0  0  0  0  2  0  0  0  0  0  0
  185.4940  178.7710  144.3840 C   0  0  0  0  0  3  0  0  0  0  0  0
  183.3430  177.4160  140.0810 C   0  0  0  0  0  2  0  0  0  0  0  0
  184.7620  178.2490  138.2460 N   0  0  0  0  0  1  0  0  0  0  0  0
  183.5510  178.4970  139.0180 C   0  0  2  0  0  3  0  0  0  0  0  0
  183.5140  179.8090  139.5450 O   0  0  0  0  0  0  0  0  0  0  0  0
  182.6760  180.6020  138.7420 C   0  0  0  0  0  1  0  0  0  0  0  0
  190.5380  176.6940  139.3020 C   0  0  0  0  0  2  0  0  0  0  0  0
  189.6340  176.7000  138.2360 O   0  0  0  0  0  0  0  0  0  0  0  0
  190.3500  177.2200  137.1520 C   0  0  0  0  0  2  0  0  0  0  0  0
  190.4360  176.1950  136.0340 C   0  0  0  0  0  2  0  0  0  0  0  0
  191.4050  175.0870  136.4020 C   0  0  0  0  0  2  0  0  0  0  0  0
  192.6660  175.2280  135.5630 C   0  0  0  0  0  2  0  0  0  0  0  0
  196.1640  174.1290  137.9940 C   0  0  2  0  0  0  0  0  0  0  0  0
  196.2580  172.4530  135.2070 C   0  0  0  0  0  2  0  0  0  0  0  0
  195.2110  174.7740  135.7030 C   0  0  2  0  0  0  0  0  0  0  0  0
  194.1530  176.7410  136.6540 O   0  0  0  0  0  1  0  0  0  0  0  0
  193.9390  172.6480  135.7950 F   0  0  0  0  0  0  0  0  0  0  0  0
  194.9930  173.3180  135.1930 C   0  0  2  0  0  3  0  0  0  0  0  0
  193.9460  175.3790  136.3990 C   0  0  1  0  0  0  0  0  0  0  0  0
  194.9100  174.7110  138.6590 C   0  0  0  0  0  2  0  0  0  0  0  0
  196.0570  172.6240  137.8050 C   0  0  0  0  0  0  0  0  0  0  0  0
  197.3420  174.4100  138.9050 C   0  0  0  0  0  1  0  0  0  0  0  0
  196.6700  171.9230  136.5960 C   0  0  1  0  0  3  0  0  0  0  0  0
  193.6890  174.6710  137.7360 C   0  0  0  0  0  2  0  0  0  0  0  0
  195.5400  175.5560  134.5940 O   0  0  0  0  0  1  0  0  0  0  0  0
  195.5330  171.9560  138.6860 O   0  0  0  0  0  0  0  0  0  0  0  0
  196.4070  174.8660  136.6750 C   0  0  0  0  0  2  0  0  0  0  0  0
  196.5620  170.4000  136.6460 C   0  0  0  0  0  2  0  0  0  0  0  0
  195.9590  169.9070  135.4860 O   0  0  0  0  0  1  0  0  0  0  0  0
  1  4  1  0  0  0  0
  2  6  1  0  0  0  0
  3  2  2  0  0  0  0
  3  5  1  0  0  0  0
  5  1  2  0  0  0  0
  6  4  2  0  0  0  0
  7  5  1  0  0  0  0
  7  8  1  0  0  0  0
  8 18  1  0  0  0  0
  9 14  1  0  0  0  0
  9 13  1  0  0  0  0
 11 12  1  0  0  0  0
 11 16  1  0  0  0  0
 13 10  1  6  0  0  0
 13 12  1  0  0  0  0
 14 11  2  0  0  0  0
 15 16  1  0  0  0  0
 15 27  1  0  0  0  0
 17 14  1  0  0  0  0
 17 18  2  0  0  0  0
 18 15  1  0  0  0  0
 19 21  1  0  0  0  0
 19 25  2  0  0  0  0
 20 26  1  0  0  0  0
 22 19  1  0  0  0  0
 23 24  1  0  0  0  0
 24 22  1  0  0  0  0
 26 22  1  0  0  0  0
 27 23  1  0  0  0  0
 27 20  1  0  0  0  0
 28 17  1  0  0  0  0
 30 29  1  1  0  0  0
 30 31  1  0  0  0  0
 30 28  1  0  0  0  0
 32 31  1  0  0  0  0
 33  2  1  0  0  0  0
 34 33  1  0  0  0  0
 35 34  1  0  0  0  0
 36 37  1  0  0  0  0
 36 35  1  0  0  0  0
 38 45  1  0  0  0  0
 38 37  1  0  0  0  0
 39 46  1  0  0  0  0
 39 48  1  1  0  0  0
 40 49  1  0  0  0  0
 41 51  1  6  0  0  0
 41 45  1  0  0  0  0
 41 53  1  0  0  0  0
 44 40  1  0  0  0  0
 44 41  1  0  0  0  0
 44 43  1  1  0  0  0
 45 42  1  1  0  0  0
 45 50  1  0  0  0  0
 47 39  1  0  0  0  0
 47 52  2  0  0  0  0
 49 54  1  6  0  0  0
 49 47  1  0  0  0  0
 50 46  1  0  0  0  0
 53 39  1  0  0  0  0
 55 54  1  0  0  0  0
M  END
>  <MODEL>
6

>  <REMARK>
 VINA RESULT:      -6.3      4.214      9.369
  Name = 
  15 active torsions:
  status: ('A' for Active; 'I' for Inactive)
    1  A    between atoms: C_2  and  C_28
    2  A    between atoms: C_2  and  C_44
    3  A    between atoms: O_4  and  C_40
    4  A    between atoms: C_8  and  C_22
    5  A    between atoms: C_8  and  C_43
    6  A    between atoms: C_11  and  C_38
    7  A    between atoms: C_19  and  C_40
    8  A    between atoms: C_19  and  C_45
    9  A    between atoms: C_20  and  C_22
   10  A    between atoms: C_27  and  C_54
   11  A    between atoms: C_28  and  C_49
   12  A    between atoms: N_33  and  C_52
   13  A    between atoms: C_35  and  C_43
   14  A    between atoms: C_35  and  O_51
   15  A    between atoms: O_51  and  C_54
                            x       y       z     vdW  Elec       q    Type
                         _______ _______ _______ _____ _____    ______ ____

>  <TORSDO>
F 15

$$$$
=
 OpenBabel10262420333D

 55 60  0  0  1  0  0  0  0  0999 V2000
  190.4310  178.0220  140.9610 C   0  0  0  0  0  3  0  0  0  0  0  0
  189.4930  176.9800  138.5400 C   0  0  0  0  0  0  0  0  0  0  0  0
  188.5930  177.5030  139.4730 C   0  0  0  0  0  3  0  0  0  0  0  0
  191.3310  177.4900  140.0320 C   0  0  0  0  0  3  0  0  0  0  0  0
  189.0600  178.0230  140.6850 C   0  0  0  0  0  0  0  0  0  0  0  0
  190.8620  176.9660  138.8220 C   0  0  0  0  0  3  0  0  0  0  0  0
  188.1000  178.6030  141.6620 C   0  0  0  0  0  2  0  0  0  0  0  0
  187.3490  177.4910  142.3740 C   0  0  0  0  0  2  0  0  0  0  0  0
  189.3260  177.4820  147.3440 S   0  0  0  0  0  0  0  0  0  0  0  0
  187.5870  176.3780  149.1410 C   0  0  0  0  0  1  0  0  0  0  0  0
  186.9570  178.3480  146.6100 C   0  0  0  0  0  0  0  0  0  0  0  0
  186.9230  178.5280  148.0820 C   0  0  0  0  0  2  0  0  0  0  0  0
  188.0850  177.7270  148.6590 C   0  0  2  0  0  3  0  0  0  0  0  0
  188.0730  177.8350  146.1220 C   0  0  0  0  0  0  0  0  0  0  0  0
  186.0260  178.4730  144.3200 N   0  0  0  0  0  0  0  0  0  0  0  0
  185.7660  178.6600  145.7560 C   0  0  0  0  0  2  0  0  0  0  0  0
  188.2180  177.5060  144.6890 C   0  0  0  0  0  0  0  0  0  0  0  0
  187.2170  177.8090  143.8360 C   0  0  0  0  0  0  0  0  0  0  0  0
  181.3510  178.1530  141.3260 C   0  0  0  0  0  0  0  0  0  0  0  0
  184.9030  177.8990  142.2030 C   0  0  0  0  0  2  0  0  0  0  0  0
  180.0450  178.4520  141.9820 C   0  0  0  0  0  1  0  0  0  0  0  0
  182.5850  178.6150  141.8950 N   0  0  0  0  0  0  0  0  0  0  0  0
  183.6410  179.0390  144.0610 C   0  0  0  0  0  2  0  0  0  0  0  0
  182.5910  179.5040  143.0560 C   0  0  0  0  0  2  0  0  0  0  0  0
  181.3560  177.4750  140.2650 O   0  0  0  0  0  0  0  0  0  0  0  0
  183.8500  178.3710  141.2040 C   0  0  0  0  0  2  0  0  0  0  0  0
  184.9960  178.8850  143.3680 C   0  0  0  0  0  3  0  0  0  0  0  0
  189.4830  176.8480  144.2100 C   0  0  0  0  0  2  0  0  0  0  0  0
  190.8440  178.9030  144.1680 N   0  0  0  0  0  1  0  0  0  0  0  0
  190.7170  177.5730  144.7510 C   0  0  2  0  0  3  0  0  0  0  0  0
  191.9070  176.8190  144.6210 O   0  0  0  0  0  0  0  0  0  0  0  0
  191.6840  175.7620  143.7220 C   0  0  0  0  0  1  0  0  0  0  0  0
  188.9860  176.4160  137.2570 C   0  0  0  0  0  2  0  0  0  0  0  0
  189.4890  175.1260  137.0670 O   0  0  0  0  0  0  0  0  0  0  0  0
  189.5120  174.9440  135.6800 C   0  0  0  0  0  2  0  0  0  0  0  0
  190.9080  174.5630  135.2190 C   0  0  0  0  0  2  0  0  0  0  0  0
  191.9220  174.8380  136.3120 C   0  0  0  0  0  2  0  0  0  0  0  0
  192.5050  173.5190  136.7960 C   0  0  0  0  0  2  0  0  0  0  0  0
  196.7960  173.7740  135.8590 C   0  0  2  0  0  0  0  0  0  0  0  0
  196.4370  173.6240  139.0890 C   0  0  0  0  0  2  0  0  0  0  0  0
  194.9170  172.6750  137.2130 C   0  0  2  0  0  0  0  0  0  0  0  0
  193.6740  172.2080  135.1820 O   0  0  0  0  0  1  0  0  0  0  0  0
  194.5740  174.8940  138.2660 F   0  0  0  0  0  0  0  0  0  0  0  0
  195.0400  173.6020  138.4600 C   0  0  2  0  0  3  0  0  0  0  0  0
  193.8660  173.1820  136.1700 C   0  0  1  0  0  0  0  0  0  0  0  0
  195.7510  174.2780  134.8540 C   0  0  0  0  0  2  0  0  0  0  0  0
  197.1490  174.8360  136.8890 C   0  0  0  0  0  0  0  0  0  0  0  0
  198.0520  173.4280  135.0850 C   0  0  0  0  0  1  0  0  0  0  0  0
  197.4790  174.4720  138.3330 C   0  0  1  0  0  3  0  0  0  0  0  0
  194.3710  174.4630  135.4910 C   0  0  0  0  0  2  0  0  0  0  0  0
  194.5320  171.4140  137.6740 O   0  0  0  0  0  1  0  0  0  0  0  0
  197.2430  176.0000  136.5250 O   0  0  0  0  0  0  0  0  0  0  0  0
  196.2750  172.4870  136.5040 C   0  0  0  0  0  2  0  0  0  0  0  0
  197.9250  175.6620  139.1820 C   0  0  0  0  0  2  0  0  0  0  0  0
  197.1340  175.7770  140.3280 O   0  0  0  0  0  1  0  0  0  0  0  0
  2  6  2  0  0  0  0
  2  3  1  0  0  0  0
  3  5  2  0  0  0  0
  4  1  2  0  0  0  0
  5  1  1  0  0  0  0
  5  7  1  0  0  0  0
  6  4  1  0  0  0  0
  7  8  1  0  0  0  0
  8 18  1  0  0  0  0
  9 13  1  0  0  0  0
 11 12  1  0  0  0  0
 12 13  1  0  0  0  0
 13 10  1  6  0  0  0
 14 11  2  0  0  0  0
 14  9  1  0  0  0  0
 15 16  1  0  0  0  0
 16 11  1  0  0  0  0
 17 14  1  0  0  0  0
 18 15  1  0  0  0  0
 18 17  2  0  0  0  0
 19 22  1  0  0  0  0
 19 21  1  0  0  0  0
 20 27  1  0  0  0  0
 22 24  1  0  0  0  0
 24 23  1  0  0  0  0
 25 19  2  0  0  0  0
 26 22  1  0  0  0  0
 26 20  1  0  0  0  0
 27 23  1  0  0  0  0
 27 15  1  0  0  0  0
 28 17  1  0  0  0  0
 28 30  1  0  0  0  0
 30 29  1  6  0  0  0
 31 30  1  0  0  0  0
 32 31  1  0  0  0  0
 33  2  1  0  0  0  0
 34 33  1  0  0  0  0
 35 34  1  0  0  0  0
 36 35  1  0  0  0  0
 36 37  1  0  0  0  0
 37 38  1  0  0  0  0
 39 48  1  6  0  0  0
 39 53  1  0  0  0  0
 39 47  1  0  0  0  0
 41 51  1  1  0  0  0
 41 44  1  0  0  0  0
 44 43  1  6  0  0  0
 44 40  1  0  0  0  0
 45 42  1  6  0  0  0
 45 38  1  0  0  0  0
 45 41  1  0  0  0  0
 46 50  1  0  0  0  0
 46 39  1  0  0  0  0
 47 49  1  0  0  0  0
 49 40  1  0  0  0  0
 49 54  1  1  0  0  0
 50 45  1  0  0  0  0
 52 47  2  0  0  0  0
 53 41  1  0  0  0  0
 54 55  1  0  0  0  0
M  END
>  <MODEL>
7

>  <REMARK>
 VINA RESULT:      -6.2      4.334     10.189
  Name = 
  15 active torsions:
  status: ('A' for Active; 'I' for Inactive)
    1  A    between atoms: C_2  and  C_28
    2  A    between atoms: C_2  and  C_44
    3  A    between atoms: O_4  and  C_40
    4  A    between atoms: C_8  and  C_22
    5  A    between atoms: C_8  and  C_43
    6  A    between atoms: C_11  and  C_38
    7  A    between atoms: C_19  and  C_40
    8  A    between atoms: C_19  and  C_45
    9  A    between atoms: C_20  and  C_22
   10  A    between atoms: C_27  and  C_54
   11  A    between atoms: C_28  and  C_49
   12  A    between atoms: N_33  and  C_52
   13  A    between atoms: C_35  and  C_43
   14  A    between atoms: C_35  and  O_51
   15  A    between atoms: O_51  and  C_54
                            x       y       z     vdW  Elec       q    Type
                         _______ _______ _______ _____ _____    ______ ____

>  <TORSDO>
F 15

$$$$
=
 OpenBabel10262420333D

 55 60  0  0  1  0  0  0  0  0999 V2000
  189.0340  178.4670  142.3880 C   0  0  0  0  0  3  0  0  0  0  0  0
  189.7910  177.5570  139.8540 C   0  0  0  0  0  0  0  0  0  0  0  0
  188.4750  177.9640  140.0870 C   0  0  0  0  0  3  0  0  0  0  0  0
  190.3500  178.0510  142.1580 C   0  0  0  0  0  3  0  0  0  0  0  0
  188.0940  178.4180  141.3540 C   0  0  0  0  0  0  0  0  0  0  0  0
  190.7280  177.5930  140.8910 C   0  0  0  0  0  3  0  0  0  0  0  0
  186.6980  178.8770  141.5890 C   0  0  0  0  0  2  0  0  0  0  0  0
  185.7960  177.6810  141.8440 C   0  0  0  0  0  2  0  0  0  0  0  0
  180.5180  178.2620  141.1900 S   0  0  0  0  0  0  0  0  0  0  0  0
  179.7020  180.8300  141.6490 C   0  0  0  0  0  1  0  0  0  0  0  0
  181.9310  179.0600  143.2560 C   0  0  0  0  0  0  0  0  0  0  0  0
  180.5690  179.5420  143.5930 C   0  0  0  0  0  2  0  0  0  0  0  0
  179.7390  179.4680  142.3160 C   0  0  2  0  0  3  0  0  0  0  0  0
  182.0450  178.4260  142.1020 C   0  0  0  0  0  0  0  0  0  0  0  0
  184.3510  178.7310  143.6620 N   0  0  0  0  0  0  0  0  0  0  0  0
  183.1040  179.3500  144.1420 C   0  0  0  0  0  2  0  0  0  0  0  0
  183.3540  177.9750  141.5870 C   0  0  0  0  0  0  0  0  0  0  0  0
  184.4570  178.1410  142.3460 C   0  0  0  0  0  0  0  0  0  0  0  0
  187.7840  177.4740  147.8520 C   0  0  0  0  0  0  0  0  0  0  0  0
  185.1600  179.1860  145.9450 C   0  0  0  0  0  2  0  0  0  0  0  0
  188.6550  176.2680  147.7430 C   0  0  0  0  0  1  0  0  0  0  0  0
  187.2140  178.0810  146.6830 N   0  0  0  0  0  0  0  0  0  0  0  0
  186.3220  177.4990  144.4800 C   0  0  0  0  0  2  0  0  0  0  0  0
  187.5750  177.6170  145.3440 C   0  0  0  0  0  2  0  0  0  0  0  0
  187.5460  177.9500  148.9940 O   0  0  0  0  0  0  0  0  0  0  0  0
  186.4180  179.3010  146.8020 C   0  0  0  0  0  2  0  0  0  0  0  0
  185.5380  178.8110  144.5120 C   0  0  0  0  0  3  0  0  0  0  0  0
  183.4270  177.3330  140.2290 C   0  0  0  0  0  2  0  0  0  0  0  0
  183.6550  179.7210  139.6630 N   0  0  0  0  0  1  0  0  0  0  0  0
  183.7820  178.3620  139.1530 C   0  0  2  0  0  3  0  0  0  0  0  0
  183.0670  178.1760  137.9470 O   0  0  0  0  0  0  0  0  0  0  0  0
  182.5930  176.8540  137.8940 C   0  0  0  0  0  1  0  0  0  0  0  0
  190.1860  177.0630  138.5040 C   0  0  0  0  0  2  0  0  0  0  0  0
  189.5090  177.7800  137.5130 O   0  0  0  0  0  0  0  0  0  0  0  0
  190.1750  177.4740  136.3220 C   0  0  0  0  0  2  0  0  0  0  0  0
  189.4110  176.4150  135.5450 C   0  0  0  0  0  2  0  0  0  0  0  0
  190.2250  175.1380  135.4470 C   0  0  0  0  0  2  0  0  0  0  0  0
  191.7050  175.4830  135.5170 C   0  0  0  0  0  2  0  0  0  0  0  0
  194.9650  172.9480  137.0340 C   0  0  2  0  0  0  0  0  0  0  0  0
  196.2000  175.8270  136.1550 C   0  0  0  0  0  2  0  0  0  0  0  0
  193.8170  175.2400  136.9950 C   0  0  2  0  0  0  0  0  0  0  0  0
  191.6830  174.2230  137.5430 O   0  0  0  0  0  1  0  0  0  0  0  0
  194.4370  175.3490  134.5970 F   0  0  0  0  0  0  0  0  0  0  0  0
  194.6960  175.8520  135.8630 C   0  0  2  0  0  3  0  0  0  0  0  0
  192.5040  174.5740  136.4640 C   0  0  1  0  0  0  0  0  0  0  0  0
  193.6760  172.3140  136.4970 C   0  0  0  0  0  2  0  0  0  0  0  0
  195.9600  173.2380  135.9200 C   0  0  0  0  0  0  0  0  0  0  0  0
  195.6010  171.9610  137.9930 C   0  0  0  0  0  1  0  0  0  0  0  0
  196.8780  174.4550  135.9630 C   0  0  1  0  0  3  0  0  0  0  0  0
  192.8380  173.3000  135.6770 C   0  0  0  0  0  2  0  0  0  0  0  0
  193.4830  176.2790  137.8660 O   0  0  0  0  0  1  0  0  0  0  0  0
  196.0740  172.4290  135.0090 O   0  0  0  0  0  0  0  0  0  0  0  0
  194.6000  174.2040  137.8290 C   0  0  0  0  0  2  0  0  0  0  0  0
  197.8870  174.5070  134.8170 C   0  0  0  0  0  2  0  0  0  0  0  0
  199.0520  175.1700  135.2100 O   0  0  0  0  0  1  0  0  0  0  0  0
  2  3  2  0  0  0  0
  2  6  1  0  0  0  0
  3  5  1  0  0  0  0
  4  1  1  0  0  0  0
  5  7  1  0  0  0  0
  5  1  2  0  0  0  0
  6  4  2  0  0  0  0
  7  8  1  0  0  0  0
  8 18  1  0  0  0  0
  9 14  1  0  0  0  0
  9 13  1  0  0  0  0
 11 12  1  0  0  0  0
 11 16  1  0  0  0  0
 13 10  1  6  0  0  0
 13 12  1  0  0  0  0
 14 11  2  0  0  0  0
 15 16  1  0  0  0  0
 15 27  1  0  0  0  0
 17 14  1  0  0  0  0
 17 18  2  0  0  0  0
 18 15  1  0  0  0  0
 19 25  2  0  0  0  0
 20 26  1  0  0  0  0
 21 19  1  0  0  0  0
 22 26  1  0  0  0  0
 22 19  1  0  0  0  0
 23 27  1  0  0  0  0
 23 24  1  0  0  0  0
 24 22  1  0  0  0  0
 27 20  1  0  0  0  0
 28 17  1  0  0  0  0
 30 29  1  1  0  0  0
 30 28  1  0  0  0  0
 31 30  1  0  0  0  0
 32 31  1  0  0  0  0
 33  2  1  0  0  0  0
 34 33  1  0  0  0  0
 35 34  1  0  0  0  0
 36 35  1  0  0  0  0
 37 38  1  0  0  0  0
 37 36  1  0  0  0  0
 38 45  1  0  0  0  0
 39 53  1  0  0  0  0
 39 48  1  1  0  0  0
 41 53  1  0  0  0  0
 41 51  1  1  0  0  0
 44 43  1  6  0  0  0
 44 40  1  0  0  0  0
 44 41  1  0  0  0  0
 45 41  1  0  0  0  0
 45 42  1  1  0  0  0
 46 39  1  0  0  0  0
 47 49  1  0  0  0  0
 47 39  1  0  0  0  0
 49 54  1  6  0  0  0
 49 40  1  0  0  0  0
 50 45  1  0  0  0  0
 50 46  1  0  0  0  0
 52 47  2  0  0  0  0
 54 55  1  0  0  0  0
M  END
>  <MODEL>
8

>  <REMARK>
 VINA RESULT:      -6.1      4.066      9.230
  Name = 
  15 active torsions:
  status: ('A' for Active; 'I' for Inactive)
    1  A    between atoms: C_2  and  C_28
    2  A    between atoms: C_2  and  C_44
    3  A    between atoms: O_4  and  C_40
    4  A    between atoms: C_8  and  C_22
    5  A    between atoms: C_8  and  C_43
    6  A    between atoms: C_11  and  C_38
    7  A    between atoms: C_19  and  C_40
    8  A    between atoms: C_19  and  C_45
    9  A    between atoms: C_20  and  C_22
   10  A    between atoms: C_27  and  C_54
   11  A    between atoms: C_28  and  C_49
   12  A    between atoms: N_33  and  C_52
   13  A    between atoms: C_35  and  C_43
   14  A    between atoms: C_35  and  O_51
   15  A    between atoms: O_51  and  C_54
                            x       y       z     vdW  Elec       q    Type
                         _______ _______ _______ _____ _____    ______ ____

>  <TORSDO>
F 15

$$$$
=
 OpenBabel10262420333D

 55 60  0  0  1  0  0  0  0  0999 V2000
  186.6620  178.5080  139.3460 C   0  0  0  0  0  3  0  0  0  0  0  0
  188.8900  177.5740  137.9340 C   0  0  0  0  0  0  0  0  0  0  0  0
  188.9780  177.8020  139.3110 C   0  0  0  0  0  3  0  0  0  0  0  0
  186.5760  178.2890  137.9670 C   0  0  0  0  0  3  0  0  0  0  0  0
  187.8660  178.2710  140.0180 C   0  0  0  0  0  0  0  0  0  0  0  0
  187.6910  177.8250  137.2610 C   0  0  0  0  0  3  0  0  0  0  0  0
  187.9580  178.4850  141.4880 C   0  0  0  0  0  2  0  0  0  0  0  0
  187.0000  177.5520  142.2090 C   0  0  0  0  0  2  0  0  0  0  0  0
  189.4700  177.4350  146.9520 S   0  0  0  0  0  0  0  0  0  0  0  0
  187.9260  176.2750  148.8870 C   0  0  0  0  0  1  0  0  0  0  0  0
  187.0350  178.3020  146.4830 C   0  0  0  0  0  0  0  0  0  0  0  0
  187.1490  178.4470  147.9550 C   0  0  0  0  0  2  0  0  0  0  0  0
  188.3670  177.6390  148.3910 C   0  0  2  0  0  3  0  0  0  0  0  0
  188.0980  177.8090  145.8710 C   0  0  0  0  0  0  0  0  0  0  0  0
  185.8770  178.4770  144.3020 N   0  0  0  0  0  0  0  0  0  0  0  0
  185.7620  178.6280  145.7610 C   0  0  0  0  0  2  0  0  0  0  0  0
  188.0990  177.5170  144.4240 C   0  0  0  0  0  0  0  0  0  0  0  0
  187.0160  177.8330  143.6840 C   0  0  0  0  0  0  0  0  0  0  0  0
  180.9340  178.1900  141.7710 C   0  0  0  0  0  0  0  0  0  0  0  0
  184.5570  177.9560  142.2870 C   0  0  0  0  0  2  0  0  0  0  0  0
  179.6950  178.4510  142.5610 C   0  0  0  0  0  1  0  0  0  0  0  0
  182.2130  178.6500  142.2310 N   0  0  0  0  0  0  0  0  0  0  0  0
  183.4730  179.0190  144.2960 C   0  0  0  0  0  2  0  0  0  0  0  0
  182.3240  179.5020  143.4150 C   0  0  0  0  0  2  0  0  0  0  0  0
  180.8420  177.5460  140.6930 O   0  0  0  0  0  0  0  0  0  0  0  0
  183.4060  178.4450  141.4120 C   0  0  0  0  0  2  0  0  0  0  0  0
  184.7540  178.9050  143.4690 C   0  0  0  0  0  3  0  0  0  0  0  0
  189.3120  176.8790  143.8030 C   0  0  0  0  0  2  0  0  0  0  0  0
  190.4660  179.0440  143.5650 N   0  0  0  0  0  1  0  0  0  0  0  0
  190.5730  177.6920  144.1020 C   0  0  2  0  0  3  0  0  0  0  0  0
  191.7620  177.0480  143.6880 O   0  0  0  0  0  0  0  0  0  0  0  0
  191.6580  175.6740  143.9640 C   0  0  0  0  0  1  0  0  0  0  0  0
  190.0830  177.0860  137.1870 C   0  0  0  0  0  2  0  0  0  0  0  0
  190.0310  177.5260  135.8610 O   0  0  0  0  0  0  0  0  0  0  0  0
  189.5120  176.4470  135.1380 C   0  0  0  0  0  2  0  0  0  0  0  0
  190.3050  175.1840  135.4290 C   0  0  0  0  0  2  0  0  0  0  0  0
  191.6550  175.2330  134.7390 C   0  0  0  0  0  2  0  0  0  0  0  0
  192.7240  175.5940  135.7600 C   0  0  0  0  0  2  0  0  0  0  0  0
  195.2570  172.2090  136.9740 C   0  0  2  0  0  0  0  0  0  0  0  0
  197.1150  174.8670  136.7190 C   0  0  0  0  0  2  0  0  0  0  0  0
  194.5930  174.6640  137.2910 C   0  0  2  0  0  0  0  0  0  0  0  0
  192.2570  174.0430  137.5120 O   0  0  0  0  0  1  0  0  0  0  0  0
  195.4520  175.0430  134.9970 F   0  0  0  0  0  0  0  0  0  0  0  0
  195.6810  175.2590  136.3470 C   0  0  2  0  0  3  0  0  0  0  0  0
  193.2320  174.3910  136.5680 C   0  0  1  0  0  0  0  0  0  0  0  0
  193.9270  171.9610  136.2520 C   0  0  0  0  0  2  0  0  0  0  0  0
  196.3930  172.4650  135.9960 C   0  0  0  0  0  0  0  0  0  0  0  0
  195.5910  170.9620  137.7700 C   0  0  0  0  0  1  0  0  0  0  0  0
  197.5250  173.4360  136.3180 C   0  0  1  0  0  3  0  0  0  0  0  0
  193.3840  173.2250  135.5800 C   0  0  0  0  0  2  0  0  0  0  0  0
  194.3870  175.5890  138.3180 O   0  0  0  0  0  1  0  0  0  0  0  0
  196.4340  171.8160  134.9590 O   0  0  0  0  0  0  0  0  0  0  0  0
  195.0710  173.3600  137.9650 C   0  0  0  0  0  2  0  0  0  0  0  0
  198.6300  173.4670  135.2640 C   0  0  0  0  0  2  0  0  0  0  0  0
  199.1800  174.7460  135.1590 O   0  0  0  0  0  1  0  0  0  0  0  0
  1  5  1  0  0  0  0
  2  3  1  0  0  0  0
  3  5  2  0  0  0  0
  4  1  2  0  0  0  0
  5  7  1  0  0  0  0
  6  2  2  0  0  0  0
  6  4  1  0  0  0  0
  7  8  1  0  0  0  0
  8 18  1  0  0  0  0
  9 13  1  0  0  0  0
 11 12  1  0  0  0  0
 12 13  1  0  0  0  0
 13 10  1  6  0  0  0
 14 11  2  0  0  0  0
 14  9  1  0  0  0  0
 15 16  1  0  0  0  0
 16 11  1  0  0  0  0
 17 14  1  0  0  0  0
 18 15  1  0  0  0  0
 18 17  2  0  0  0  0
 19 22  1  0  0  0  0
 19 21  1  0  0  0  0
 20 27  1  0  0  0  0
 22 24  1  0  0  0  0
 24 23  1  0  0  0  0
 25 19  2  0  0  0  0
 26 22  1  0  0  0  0
 26 20  1  0  0  0  0
 27 23  1  0  0  0  0
 27 15  1  0  0  0  0
 28 30  1  0  0  0  0
 28 17  1  0  0  0  0
 30 29  1  6  0  0  0
 31 32  1  0  0  0  0
 31 30  1  0  0  0  0
 33  2  1  0  0  0  0
 34 33  1  0  0  0  0
 35 36  1  0  0  0  0
 35 34  1  0  0  0  0
 37 36  1  0  0  0  0
 37 38  1  0  0  0  0
 38 45  1  0  0  0  0
 39 48  1  1  0  0  0
 39 53  1  0  0  0  0
 41 53  1  0  0  0  0
 41 51  1  1  0  0  0
 44 43  1  6  0  0  0
 44 40  1  0  0  0  0
 44 41  1  0  0  0  0
 45 41  1  0  0  0  0
 45 42  1  1  0  0  0
 46 39  1  0  0  0  0
 47 49  1  0  0  0  0
 47 39  1  0  0  0  0
 49 54  1  6  0  0  0
 49 40  1  0  0  0  0
 50 46  1  0  0  0  0
 50 45  1  0  0  0  0
 52 47  2  0  0  0  0
 55 54  1  0  0  0  0
M  END
>  <MODEL>
9

>  <REMARK>
 VINA RESULT:      -6.1      4.521      9.903
  Name = 
  15 active torsions:
  status: ('A' for Active; 'I' for Inactive)
    1  A    between atoms: C_2  and  C_28
    2  A    between atoms: C_2  and  C_44
    3  A    between atoms: O_4  and  C_40
    4  A    between atoms: C_8  and  C_22
    5  A    between atoms: C_8  and  C_43
    6  A    between atoms: C_11  and  C_38
    7  A    between atoms: C_19  and  C_40
    8  A    between atoms: C_19  and  C_45
    9  A    between atoms: C_20  and  C_22
   10  A    between atoms: C_27  and  C_54
   11  A    between atoms: C_28  and  C_49
   12  A    between atoms: N_33  and  C_52
   13  A    between atoms: C_35  and  C_43
   14  A    between atoms: C_35  and  O_51
   15  A    between atoms: O_51  and  C_54
                            x       y       z     vdW  Elec       q    Type
                         _______ _______ _______ _____ _____    ______ ____

>  <TORSDO>
F 15

$$$$
