=
 OpenBabel10262419543D

 25 27  0  0  1  0  0  0  0  0999 V2000
  186.0270  177.8450  145.0460 C   0  0  0  0  0  0  0  0  0  0  0  0
  187.4500  177.4760  144.9150 C   0  0  0  0  0  0  0  0  0  0  0  0
  186.3610  178.6740  147.3200 C   0  0  0  0  0  2  0  0  0  0  0  0
  185.2360  178.4040  144.1340 C   0  0  0  0  0  0  0  0  0  0  0  0
  187.6580  177.8590  147.4250 C   0  0  0  0  0  2  0  0  0  0  0  0
  184.1010  178.9580  144.8590 C   0  0  0  0  0  0  0  0  0  0  0  0
  189.6250  177.1820  145.9710 C   0  0  0  0  0  0  0  0  0  0  0  0
  190.5210  177.1890  147.1630 C   0  0  0  0  0  1  0  0  0  0  0  0
  188.0090  177.1210  143.6820 C   0  0  0  0  0  3  0  0  0  0  0  0
  185.3880  177.9590  146.3900 C   0  0  1  0  0  3  0  0  0  0  0  0
  184.1980  178.7600  146.1320 N   0  0  0  0  0  0  0  0  0  0  0  0
  190.1670  176.8270  144.7320 C   0  0  0  0  0  3  0  0  0  0  0  0
  189.3640  176.8020  143.5890 C   0  0  0  0  0  0  0  0  0  0  0  0
  188.2610  177.5190  146.0740 C   0  0  0  0  0  0  0  0  0  0  0  0
  181.8360  178.9130  143.8910 C   0  0  0  0  0  1  0  0  0  0  0  0
  183.0190  179.7880  144.2550 C   0  0  0  0  0  2  0  0  0  0  0  0
  184.5870  178.0040  141.7830 C   0  0  0  0  0  1  0  0  0  0  0  0
  185.5760  178.6910  142.7070 C   0  0  0  0  0  2  0  0  0  0  0  0
  189.9480  176.4060  142.2790 C   0  0  0  0  0  2  0  0  0  0  0  0
  190.0470  177.6160  141.3640 C   0  0  0  0  0  2  0  0  0  0  0  0
  189.5610  177.2690  139.9670 C   0  0  2  0  0  3  0  0  0  0  0  0
  190.7010  177.0930  139.0860 N   0  0  0  0  0  1  0  0  0  0  0  0
  188.6730  178.3430  139.4290 C   0  0  0  0  0  0  0  0  0  0  0  0
  187.5400  178.5320  139.9420 O   0  0  0  0  0  1  0  0  0  0  0  0
  189.0930  179.1390  138.3700 O   0  0  0  0  0  0  0  0  0  0  0  0
  1 10  1  0  0  0  0
  2  1  1  0  0  0  0
  2 14  1  0  0  0  0
  3  5  1  0  0  0  0
  4  6  1  0  0  0  0
  4  1  2  0  0  0  0
  6 11  2  0  0  0  0
  7 14  2  0  0  0  0
  7  8  1  0  0  0  0
  9  2  2  0  0  0  0
 10  3  1  1  0  0  0
 11 10  1  0  0  0  0
 12  7  1  0  0  0  0
 13  9  1  0  0  0  0
 13 12  2  0  0  0  0
 14  5  1  0  0  0  0
 15 16  1  0  0  0  0
 16  6  1  0  0  0  0
 17 18  1  0  0  0  0
 18  4  1  0  0  0  0
 19 13  1  0  0  0  0
 20 19  1  0  0  0  0
 21 22  1  6  0  0  0
 21 20  1  0  0  0  0
 23 24  1  0  0  0  0
 23 21  1  0  0  0  0
 25 23  2  0  0  0  0
M  END
>  <MODEL>
1

>  <REMARK>
 VINA RESULT:      -9.4      0.000      0.000
  Name = 
  6 active torsions:
  status: ('A' for Active; 'I' for Inactive)
    1  A    between atoms: C_2  and  CA_21
    2  A    between atoms: C_5  and  C_22
    3  A    between atoms: C_6  and  C_15
    4  A    between atoms: C_6  and  C_23
    5  A    between atoms: C_10  and  C_11
    6  A    between atoms: C_15  and  CA_21
                            x       y       z     vdW  Elec       q    Type
                         _______ _______ _______ _____ _____    ______ ____

>  <TORSDO>
F 6

$$$$
=
 OpenBabel10262419543D

 25 27  0  0  1  0  0  0  0  0999 V2000
  189.2700  177.6520  145.8080 C   0  0  0  0  0  0  0  0  0  0  0  0
  188.0450  177.9100  145.0260 C   0  0  0  0  0  0  0  0  0  0  0  0
  187.9950  177.3610  147.8720 C   0  0  0  0  0  2  0  0  0  0  0  0
  190.3340  176.9360  145.4560 C   0  0  0  0  0  0  0  0  0  0  0  0
  186.8110  178.1130  147.2460 C   0  0  0  0  0  2  0  0  0  0  0  0
  191.0440  176.6220  146.6880 C   0  0  0  0  0  0  0  0  0  0  0  0
  185.6470  178.3350  145.0020 C   0  0  0  0  0  0  0  0  0  0  0  0
  184.3430  178.5620  145.6910 C   0  0  0  0  0  1  0  0  0  0  0  0
  188.0560  177.9400  143.6270 C   0  0  0  0  0  3  0  0  0  0  0  0
  189.2980  177.8860  147.2820 C   0  0  1  0  0  3  0  0  0  0  0  0
  190.4470  177.1070  147.7260 N   0  0  0  0  0  0  0  0  0  0  0  0
  185.6770  178.3640  143.6050 C   0  0  0  0  0  3  0  0  0  0  0  0
  186.8760  178.1610  142.9180 C   0  0  0  0  0  0  0  0  0  0  0  0
  186.8310  178.0980  145.7280 C   0  0  0  0  0  0  0  0  0  0  0  0
  192.7610  175.7270  148.2110 C   0  0  0  0  0  1  0  0  0  0  0  0
  192.2340  175.7290  146.7890 C   0  0  0  0  0  2  0  0  0  0  0  0
  191.6090  177.1220  143.3470 C   0  0  0  0  0  1  0  0  0  0  0  0
  190.5910  176.3070  144.1240 C   0  0  0  0  0  2  0  0  0  0  0  0
  186.8980  178.2110  141.4310 C   0  0  0  0  0  2  0  0  0  0  0  0
  188.2870  178.5870  140.9410 C   0  0  0  0  0  2  0  0  0  0  0  0
  188.7240  177.6620  139.8180 C   0  0  2  0  0  3  0  0  0  0  0  0
  190.1650  177.4910  139.8630 N   0  0  0  0  0  1  0  0  0  0  0  0
  188.3270  178.2140  138.4870 C   0  0  0  0  0  0  0  0  0  0  0  0
  187.4080  177.6590  137.8300 O   0  0  0  0  0  0  0  0  0  0  0  0
  188.9600  179.3400  137.9740 O   0  0  0  0  0  1  0  0  0  0  0  0
  1 10  1  0  0  0  0
  2 14  1  0  0  0  0
  2  1  1  0  0  0  0
  4  1  2  0  0  0  0
  4  6  1  0  0  0  0
  5  3  1  0  0  0  0
  6 16  1  0  0  0  0
  6 11  2  0  0  0  0
  7  8  1  0  0  0  0
  7 14  2  0  0  0  0
  9  2  2  0  0  0  0
 10 11  1  0  0  0  0
 10  3  1  1  0  0  0
 12  7  1  0  0  0  0
 13 12  2  0  0  0  0
 13  9  1  0  0  0  0
 14  5  1  0  0  0  0
 16 15  1  0  0  0  0
 17 18  1  0  0  0  0
 18  4  1  0  0  0  0
 19 13  1  0  0  0  0
 20 19  1  0  0  0  0
 21 22  1  6  0  0  0
 21 20  1  0  0  0  0
 23 21  1  0  0  0  0
 24 23  2  0  0  0  0
 25 23  1  0  0  0  0
M  END
>  <MODEL>
2

>  <REMARK>
 VINA RESULT:      -9.4      1.916      5.010
  Name = 
  6 active torsions:
  status: ('A' for Active; 'I' for Inactive)
    1  A    between atoms: C_2  and  CA_21
    2  A    between atoms: C_5  and  C_22
    3  A    between atoms: C_6  and  C_15
    4  A    between atoms: C_6  and  C_23
    5  A    between atoms: C_10  and  C_11
    6  A    between atoms: C_15  and  CA_21
                            x       y       z     vdW  Elec       q    Type
                         _______ _______ _______ _____ _____    ______ ____

>  <TORSDO>
F 6

$$$$
=
 OpenBabel10262419543D

 25 27  0  0  1  0  0  0  0  0999 V2000
  189.2150  177.6610  145.7430 C   0  0  0  0  0  0  0  0  0  0  0  0
  187.9730  177.9200  144.9890 C   0  0  0  0  0  0  0  0  0  0  0  0
  187.9870  177.3670  147.8350 C   0  0  0  0  0  2  0  0  0  0  0  0
  190.2700  176.9450  145.3660 C   0  0  0  0  0  0  0  0  0  0  0  0
  186.7900  178.1210  147.2370 C   0  0  0  0  0  2  0  0  0  0  0  0
  191.0080  176.6290  146.5810 C   0  0  0  0  0  0  0  0  0  0  0  0
  185.5750  178.3460  145.0200 C   0  0  0  0  0  0  0  0  0  0  0  0
  184.2870  178.5720  145.7380 C   0  0  0  0  0  1  0  0  0  0  0  0
  187.9530  177.9520  143.5900 C   0  0  0  0  0  3  0  0  0  0  0  0
  189.2760  177.8930  147.2160 C   0  0  1  0  0  3  0  0  0  0  0  0
  190.4350  177.1130  147.6330 N   0  0  0  0  0  0  0  0  0  0  0  0
  185.5730  178.3770  143.6220 C   0  0  0  0  0  3  0  0  0  0  0  0
  186.7560  178.1740  142.9080 C   0  0  0  0  0  0  0  0  0  0  0  0
  186.7750  178.1080  145.7180 C   0  0  0  0  0  0  0  0  0  0  0  0
  192.6980  175.6520  148.0840 C   0  0  0  0  0  1  0  0  0  0  0  0
  192.2000  175.7360  146.6540 C   0  0  0  0  0  2  0  0  0  0  0  0
  191.5680  177.0780  143.2670 C   0  0  0  0  0  1  0  0  0  0  0  0
  190.4970  176.3180  144.0280 C   0  0  0  0  0  2  0  0  0  0  0  0
  186.7460  178.2260  141.4210 C   0  0  0  0  0  2  0  0  0  0  0  0
  185.5410  179.0150  140.9340 C   0  0  0  0  0  2  0  0  0  0  0  0
  185.1000  178.5220  139.5660 C   0  0  2  0  0  3  0  0  0  0  0  0
  186.2340  178.5310  138.6590 N   0  0  0  0  0  1  0  0  0  0  0  0
  184.0100  179.3830  139.0140 C   0  0  0  0  0  0  0  0  0  0  0  0
  184.1610  180.6320  138.9760 O   0  0  0  0  0  1  0  0  0  0  0  0
  182.8350  178.8140  138.5390 O   0  0  0  0  0  0  0  0  0  0  0  0
  1 10  1  0  0  0  0
  2 14  1  0  0  0  0
  2  1  1  0  0  0  0
  4  1  2  0  0  0  0
  4  6  1  0  0  0  0
  5  3  1  0  0  0  0
  6 16  1  0  0  0  0
  6 11  2  0  0  0  0
  7 14  2  0  0  0  0
  7  8  1  0  0  0  0
  9  2  2  0  0  0  0
 10 11  1  0  0  0  0
 10  3  1  1  0  0  0
 12  7  1  0  0  0  0
 13  9  1  0  0  0  0
 13 12  2  0  0  0  0
 14  5  1  0  0  0  0
 16 15  1  0  0  0  0
 17 18  1  0  0  0  0
 18  4  1  0  0  0  0
 19 13  1  0  0  0  0
 20 19  1  0  0  0  0
 21 22  1  6  0  0  0
 21 20  1  0  0  0  0
 23 21  1  0  0  0  0
 24 23  1  0  0  0  0
 25 23  2  0  0  0  0
M  END
>  <MODEL>
3

>  <REMARK>
 VINA RESULT:      -9.3      2.584      5.498
  Name = 
  6 active torsions:
  status: ('A' for Active; 'I' for Inactive)
    1  A    between atoms: C_2  and  CA_21
    2  A    between atoms: C_5  and  C_22
    3  A    between atoms: C_6  and  C_15
    4  A    between atoms: C_6  and  C_23
    5  A    between atoms: C_10  and  C_11
    6  A    between atoms: C_15  and  CA_21
                            x       y       z     vdW  Elec       q    Type
                         _______ _______ _______ _____ _____    ______ ____

>  <TORSDO>
F 6

$$$$
=
 OpenBabel10262419543D

 25 27  0  0  1  0  0  0  0  0999 V2000
  187.2330  177.8560  142.1760 C   0  0  0  0  0  0  0  0  0  0  0  0
  186.9190  177.8460  143.6180 C   0  0  0  0  0  0  0  0  0  0  0  0
  185.3280  179.3040  141.6830 C   0  0  0  0  0  2  0  0  0  0  0  0
  188.4260  177.9340  141.5960 C   0  0  0  0  0  0  0  0  0  0  0  0
  184.6820  178.9090  143.0190 C   0  0  0  0  0  2  0  0  0  0  0  0
  188.1880  178.3450  140.2190 C   0  0  0  0  0  0  0  0  0  0  0  0
  185.3690  178.4090  145.4110 C   0  0  0  0  0  0  0  0  0  0  0  0
  184.0730  178.9570  145.9070 C   0  0  0  0  0  1  0  0  0  0  0  0
  187.8170  177.3390  144.5650 C   0  0  0  0  0  3  0  0  0  0  0  0
  186.1720  178.1460  141.1670 C   0  0  1  0  0  3  0  0  0  0  0  0
  186.9300  178.5160  139.9780 N   0  0  0  0  0  0  0  0  0  0  0  0
  186.2770  177.8960  146.3420 C   0  0  0  0  0  3  0  0  0  0  0  0
  187.5000  177.3690  145.9230 C   0  0  0  0  0  0  0  0  0  0  0  0
  185.6850  178.3970  144.0380 C   0  0  0  0  0  0  0  0  0  0  0  0
  189.5690  177.4650  138.3780 C   0  0  0  0  0  1  0  0  0  0  0  0
  189.2500  178.6800  139.2270 C   0  0  0  0  0  2  0  0  0  0  0  0
  190.4940  176.6300  141.9590 C   0  0  0  0  0  1  0  0  0  0  0  0
  189.7570  177.9180  142.2760 C   0  0  0  0  0  2  0  0  0  0  0  0
  188.4510  176.8110  146.9220 C   0  0  0  0  0  2  0  0  0  0  0  0
  189.7530  177.5950  146.9000 C   0  0  0  0  0  2  0  0  0  0  0  0
  190.9420  176.6510  146.8310 C   0  0  2  0  0  3  0  0  0  0  0  0
  191.8760  176.9690  147.8960 N   0  0  0  0  0  1  0  0  0  0  0  0
  191.6320  176.7580  145.5100 C   0  0  0  0  0  0  0  0  0  0  0  0
  191.9310  177.8910  145.0520 O   0  0  0  0  0  1  0  0  0  0  0  0
  191.9510  175.6150  144.7880 O   0  0  0  0  0  0  0  0  0  0  0  0
  1  2  1  0  0  0  0
  2 14  2  0  0  0  0
  2  9  1  0  0  0  0
  3  5  1  0  0  0  0
  4  1  2  0  0  0  0
  4 18  1  0  0  0  0
  5 14  1  0  0  0  0
  6  4  1  0  0  0  0
  7  8  1  0  0  0  0
  7 12  2  0  0  0  0
  9 13  2  0  0  0  0
 10  3  1  1  0  0  0
 10  1  1  0  0  0  0
 11  6  2  0  0  0  0
 11 10  1  0  0  0  0
 13 12  1  0  0  0  0
 13 19  1  0  0  0  0
 14  7  1  0  0  0  0
 15 16  1  0  0  0  0
 16  6  1  0  0  0  0
 17 18  1  0  0  0  0
 20 19  1  0  0  0  0
 21 20  1  0  0  0  0
 21 22  1  1  0  0  0
 23 21  1  0  0  0  0
 24 23  1  0  0  0  0
 25 23  2  0  0  0  0
M  END
>  <MODEL>
4

>  <REMARK>
 VINA RESULT:      -8.8      2.881      5.870
  Name = 
  6 active torsions:
  status: ('A' for Active; 'I' for Inactive)
    1  A    between atoms: C_2  and  CA_21
    2  A    between atoms: C_5  and  C_22
    3  A    between atoms: C_6  and  C_15
    4  A    between atoms: C_6  and  C_23
    5  A    between atoms: C_10  and  C_11
    6  A    between atoms: C_15  and  CA_21
                            x       y       z     vdW  Elec       q    Type
                         _______ _______ _______ _____ _____    ______ ____

>  <TORSDO>
F 6

$$$$
=
 OpenBabel10262419543D

 25 27  0  0  1  0  0  0  0  0999 V2000
  186.3410  178.5450  145.0710 C   0  0  0  0  0  0  0  0  0  0  0  0
  185.6830  178.5710  143.7490 C   0  0  0  0  0  0  0  0  0  0  0  0
  184.1970  178.3710  146.2310 C   0  0  0  0  0  2  0  0  0  0  0  0
  187.4560  177.9120  145.4210 C   0  0  0  0  0  0  0  0  0  0  0  0
  183.4790  178.9070  144.9840 C   0  0  0  0  0  2  0  0  0  0  0  0
  187.4440  177.8300  146.8740 C   0  0  0  0  0  0  0  0  0  0  0  0
  183.6250  178.7250  142.4560 C   0  0  0  0  0  0  0  0  0  0  0  0
  182.1450  178.8900  142.3500 C   0  0  0  0  0  1  0  0  0  0  0  0
  186.4090  178.4320  142.5620 C   0  0  0  0  0  3  0  0  0  0  0  0
  185.6010  178.9590  146.2990 C   0  0  1  0  0  3  0  0  0  0  0  0
  186.3830  178.3700  147.3790 N   0  0  0  0  0  0  0  0  0  0  0  0
  184.3660  178.5870  141.2790 C   0  0  0  0  0  3  0  0  0  0  0  0
  185.7540  178.4340  141.3300 C   0  0  0  0  0  0  0  0  0  0  0  0
  184.2750  178.7090  143.7060 C   0  0  0  0  0  0  0  0  0  0  0  0
  189.3220  178.0720  148.4500 C   0  0  0  0  0  1  0  0  0  0  0  0
  188.4400  177.0920  147.7020 C   0  0  0  0  0  2  0  0  0  0  0  0
  189.6480  177.9570  144.2790 C   0  0  0  0  0  1  0  0  0  0  0  0
  188.3800  177.1580  144.5190 C   0  0  0  0  0  2  0  0  0  0  0  0
  186.5340  178.3050  140.0700 C   0  0  0  0  0  2  0  0  0  0  0  0
  188.0210  178.4330  140.3600 C   0  0  0  0  0  2  0  0  0  0  0  0
  188.8170  177.4760  139.4900 C   0  0  2  0  0  3  0  0  0  0  0  0
  189.9480  176.9630  140.2420 N   0  0  0  0  0  1  0  0  0  0  0  0
  189.3060  178.1590  138.2540 C   0  0  0  0  0  0  0  0  0  0  0  0
  189.9850  177.5160  137.4130 O   0  0  0  0  0  0  0  0  0  0  0  0
  189.0110  179.4980  138.0260 O   0  0  0  0  0  1  0  0  0  0  0  0
  1  4  2  0  0  0  0
  1 10  1  0  0  0  0
  2  1  1  0  0  0  0
  4  6  1  0  0  0  0
  5  3  1  0  0  0  0
  6 11  2  0  0  0  0
  6 16  1  0  0  0  0
  7 14  2  0  0  0  0
  8  7  1  0  0  0  0
  9  2  2  0  0  0  0
 10  3  1  6  0  0  0
 10 11  1  0  0  0  0
 12 13  2  0  0  0  0
 12  7  1  0  0  0  0
 13  9  1  0  0  0  0
 14  2  1  0  0  0  0
 14  5  1  0  0  0  0
 16 15  1  0  0  0  0
 17 18  1  0  0  0  0
 18  4  1  0  0  0  0
 19 20  1  0  0  0  0
 19 13  1  0  0  0  0
 21 22  1  1  0  0  0
 21 20  1  0  0  0  0
 23 21  1  0  0  0  0
 24 23  2  0  0  0  0
 25 23  1  0  0  0  0
M  END
>  <MODEL>
5

>  <REMARK>
 VINA RESULT:      -8.8      1.441      4.596
  Name = 
  6 active torsions:
  status: ('A' for Active; 'I' for Inactive)
    1  A    between atoms: C_2  and  CA_21
    2  A    between atoms: C_5  and  C_22
    3  A    between atoms: C_6  and  C_15
    4  A    between atoms: C_6  and  C_23
    5  A    between atoms: C_10  and  C_11
    6  A    between atoms: C_15  and  CA_21
                            x       y       z     vdW  Elec       q    Type
                         _______ _______ _______ _____ _____    ______ ____

>  <TORSDO>
F 6

$$$$
=
 OpenBabel10262419543D

 25 27  0  0  1  0  0  0  0  0999 V2000
  186.4340  177.7920  144.2060 C   0  0  0  0  0  0  0  0  0  0  0  0
  187.8170  177.5850  143.7340 C   0  0  0  0  0  0  0  0  0  0  0  0
  187.1810  178.1450  146.5060 C   0  0  0  0  0  2  0  0  0  0  0  0
  185.4530  178.4610  143.6070 C   0  0  0  0  0  0  0  0  0  0  0  0
  188.5070  177.4430  146.1820 C   0  0  0  0  0  2  0  0  0  0  0  0
  184.4630  178.7480  144.6360 C   0  0  0  0  0  0  0  0  0  0  0  0
  190.1700  177.2630  144.2730 C   0  0  0  0  0  0  0  0  0  0  0  0
  191.2860  177.0950  145.2480 C   0  0  0  0  0  1  0  0  0  0  0  0
  188.1320  177.5490  142.3710 C   0  0  0  0  0  3  0  0  0  0  0  0
  186.0740  177.5620  145.6360 C   0  0  1  0  0  3  0  0  0  0  0  0
  184.8220  178.2930  145.7910 N   0  0  0  0  0  0  0  0  0  0  0  0
  190.4670  177.2270  142.9070 C   0  0  0  0  0  3  0  0  0  0  0  0
  189.4530  177.3760  141.9570 C   0  0  0  0  0  0  0  0  0  0  0  0
  188.8410  177.4510  144.7000 C   0  0  0  0  0  0  0  0  0  0  0  0
  182.0820  178.7260  144.0030 C   0  0  0  0  0  1  0  0  0  0  0  0
  183.2470  179.5890  144.4460 C   0  0  0  0  0  2  0  0  0  0  0  0
  184.5770  178.3070  141.3020 C   0  0  0  0  0  1  0  0  0  0  0  0
  185.4870  179.0730  142.2440 C   0  0  0  0  0  2  0  0  0  0  0  0
  189.7790  177.3200  140.5070 C   0  0  0  0  0  2  0  0  0  0  0  0
  191.2730  177.1160  140.3140 C   0  0  0  0  0  2  0  0  0  0  0  0
  191.5810  176.7810  138.8640 C   0  0  2  0  0  3  0  0  0  0  0  0
  191.0280  175.4790  138.5390 N   0  0  0  0  0  1  0  0  0  0  0  0
  193.0550  176.7740  138.6200 C   0  0  0  0  0  0  0  0  0  0  0  0
  193.4940  176.5940  137.4550 O   0  0  0  0  0  0  0  0  0  0  0  0
  193.9440  176.9720  139.6700 O   0  0  0  0  0  1  0  0  0  0  0  0
  1 10  1  0  0  0  0
  2  1  1  0  0  0  0
  2 14  1  0  0  0  0
  4  1  2  0  0  0  0
  4  6  1  0  0  0  0
  5  3  1  0  0  0  0
  6 11  2  0  0  0  0
  7 14  2  0  0  0  0
  7  8  1  0  0  0  0
  9  2  2  0  0  0  0
 10 11  1  0  0  0  0
 10  3  1  1  0  0  0
 12  7  1  0  0  0  0
 13  9  1  0  0  0  0
 13 12  2  0  0  0  0
 14  5  1  0  0  0  0
 15 16  1  0  0  0  0
 16  6  1  0  0  0  0
 17 18  1  0  0  0  0
 18  4  1  0  0  0  0
 19 13  1  0  0  0  0
 20 19  1  0  0  0  0
 21 22  1  1  0  0  0
 21 20  1  0  0  0  0
 23 21  1  0  0  0  0
 23 25  1  0  0  0  0
 24 23  2  0  0  0  0
M  END
>  <MODEL>
6

>  <REMARK>
 VINA RESULT:      -8.6      1.954      2.376
  Name = 
  6 active torsions:
  status: ('A' for Active; 'I' for Inactive)
    1  A    between atoms: C_2  and  CA_21
    2  A    between atoms: C_5  and  C_22
    3  A    between atoms: C_6  and  C_15
    4  A    between atoms: C_6  and  C_23
    5  A    between atoms: C_10  and  C_11
    6  A    between atoms: C_15  and  CA_21
                            x       y       z     vdW  Elec       q    Type
                         _______ _______ _______ _____ _____    ______ ____

>  <TORSDO>
F 6

$$$$
=
 OpenBabel10262419543D

 25 27  0  0  1  0  0  0  0  0999 V2000
  189.6420  176.8850  143.8280 C   0  0  0  0  0  0  0  0  0  0  0  0
  188.7530  177.4290  142.7820 C   0  0  0  0  0  0  0  0  0  0  0  0
  191.6240  177.2150  142.4370 C   0  0  0  0  0  2  0  0  0  0  0  0
  189.5840  177.0850  145.1410 C   0  0  0  0  0  0  0  0  0  0  0  0
  190.7340  177.2810  141.1870 C   0  0  0  0  0  2  0  0  0  0  0  0
  190.8890  176.7170  145.6710 C   0  0  0  0  0  0  0  0  0  0  0  0
  188.4700  178.1880  140.4860 C   0  0  0  0  0  0  0  0  0  0  0  0
  188.9840  178.4320  139.1070 C   0  0  0  0  0  1  0  0  0  0  0  0
  187.4150  177.7430  143.0430 C   0  0  0  0  0  3  0  0  0  0  0  0
  190.9720  176.3080  143.4740 C   0  0  1  0  0  3  0  0  0  0  0  0
  191.6950  176.3260  144.7390 N   0  0  0  0  0  0  0  0  0  0  0  0
  187.1340  178.4950  140.7630 C   0  0  0  0  0  3  0  0  0  0  0  0
  186.6090  178.2800  142.0390 C   0  0  0  0  0  0  0  0  0  0  0  0
  189.2960  177.6600  141.4960 C   0  0  0  0  0  0  0  0  0  0  0  0
  192.0890  175.6760  147.5540 C   0  0  0  0  0  1  0  0  0  0  0  0
  191.3240  176.8980  147.0860 C   0  0  0  0  0  2  0  0  0  0  0  0
  188.0840  177.0350  147.1040 C   0  0  0  0  0  1  0  0  0  0  0  0
  188.5250  177.8290  145.8890 C   0  0  0  0  0  2  0  0  0  0  0  0
  185.1810  178.5940  142.3180 C   0  0  0  0  0  2  0  0  0  0  0  0
  185.0610  179.3660  143.6220 C   0  0  0  0  0  2  0  0  0  0  0  0
  184.3130  178.5450  144.6590 C   0  0  2  0  0  3  0  0  0  0  0  0
  182.8940  178.8390  144.5790 N   0  0  0  0  0  1  0  0  0  0  0  0
  184.8110  178.8440  146.0360 C   0  0  0  0  0  0  0  0  0  0  0  0
  184.4070  178.1550  147.0080 O   0  0  0  0  0  1  0  0  0  0  0  0
  185.7200  179.8720  146.2480 O   0  0  0  0  0  0  0  0  0  0  0  0
  1  4  2  0  0  0  0
  2  9  1  0  0  0  0
  2  1  1  0  0  0  0
  4  6  1  0  0  0  0
  4 18  1  0  0  0  0
  5 14  1  0  0  0  0
  5  3  1  0  0  0  0
  6 16  1  0  0  0  0
  7 12  2  0  0  0  0
  7 14  1  0  0  0  0
  8  7  1  0  0  0  0
 10  3  1  6  0  0  0
 10  1  1  0  0  0  0
 10 11  1  0  0  0  0
 11  6  2  0  0  0  0
 12 13  1  0  0  0  0
 13 19  1  0  0  0  0
 13  9  2  0  0  0  0
 14  2  2  0  0  0  0
 16 15  1  0  0  0  0
 18 17  1  0  0  0  0
 19 20  1  0  0  0  0
 20 21  1  0  0  0  0
 21 22  1  1  0  0  0
 21 23  1  0  0  0  0
 23 25  2  0  0  0  0
 23 24  1  0  0  0  0
M  END
>  <MODEL>
7

>  <REMARK>
 VINA RESULT:      -8.6      2.761      6.760
  Name = 
  6 active torsions:
  status: ('A' for Active; 'I' for Inactive)
    1  A    between atoms: C_2  and  CA_21
    2  A    between atoms: C_5  and  C_22
    3  A    between atoms: C_6  and  C_15
    4  A    between atoms: C_6  and  C_23
    5  A    between atoms: C_10  and  C_11
    6  A    between atoms: C_15  and  CA_21
                            x       y       z     vdW  Elec       q    Type
                         _______ _______ _______ _____ _____    ______ ____

>  <TORSDO>
F 6

$$$$
=
 OpenBabel10262419543D

 25 27  0  0  1  0  0  0  0  0999 V2000
  189.4770  177.8530  144.0330 C   0  0  0  0  0  0  0  0  0  0  0  0
  188.4520  177.9100  145.0940 C   0  0  0  0  0  0  0  0  0  0  0  0
  191.0780  176.7580  145.5190 C   0  0  0  0  0  2  0  0  0  0  0  0
  189.3110  177.5730  142.7440 C   0  0  0  0  0  0  0  0  0  0  0  0
  190.2840  177.2530  146.7370 C   0  0  0  0  0  2  0  0  0  0  0  0
  190.6250  177.2150  142.2280 C   0  0  0  0  0  0  0  0  0  0  0  0
  187.8730  177.6160  147.4410 C   0  0  0  0  0  0  0  0  0  0  0  0
  188.2270  177.2970  148.8550 C   0  0  0  0  0  1  0  0  0  0  0  0
  187.1230  178.2500  144.8160 C   0  0  0  0  0  3  0  0  0  0  0  0
  190.9260  177.7550  144.3770 C   0  0  1  0  0  3  0  0  0  0  0  0
  191.5330  177.2650  143.1460 N   0  0  0  0  0  0  0  0  0  0  0  0
  186.5500  177.9600  147.1470 C   0  0  0  0  0  3  0  0  0  0  0  0
  186.1730  178.2700  145.8380 C   0  0  0  0  0  0  0  0  0  0  0  0
  188.8370  177.5790  146.4140 C   0  0  0  0  0  0  0  0  0  0  0  0
  192.0210  177.5030  140.2190 C   0  0  0  0  0  1  0  0  0  0  0  0
  190.8980  176.7060  140.8540 C   0  0  0  0  0  2  0  0  0  0  0  0
  187.6750  178.5620  141.1780 C   0  0  0  0  0  1  0  0  0  0  0  0
  188.0130  177.3550  142.0340 C   0  0  0  0  0  2  0  0  0  0  0  0
  184.7660  178.6510  145.5390 C   0  0  0  0  0  2  0  0  0  0  0  0
  184.7130  179.5300  144.3010 C   0  0  0  0  0  2  0  0  0  0  0  0
  183.3750  179.3800  143.5980 C   0  0  2  0  0  3  0  0  0  0  0  0
  182.4690  178.6170  144.4380 N   0  0  0  0  0  1  0  0  0  0  0  0
  183.5380  178.6910  142.2820 C   0  0  0  0  0  0  0  0  0  0  0  0
  184.4470  177.8340  142.1350 O   0  0  0  0  0  1  0  0  0  0  0  0
  182.6890  178.9870  141.2230 O   0  0  0  0  0  0  0  0  0  0  0  0
  1 10  1  0  0  0  0
  1  2  1  0  0  0  0
  2 14  1  0  0  0  0
  3  5  1  0  0  0  0
  4  1  2  0  0  0  0
  6  4  1  0  0  0  0
  6 11  2  0  0  0  0
  7  8  1  0  0  0  0
  9  2  2  0  0  0  0
  9 13  1  0  0  0  0
 10  3  1  1  0  0  0
 11 10  1  0  0  0  0
 12  7  1  0  0  0  0
 13 12  2  0  0  0  0
 14  5  1  0  0  0  0
 14  7  2  0  0  0  0
 15 16  1  0  0  0  0
 16  6  1  0  0  0  0
 17 18  1  0  0  0  0
 18  4  1  0  0  0  0
 19 13  1  0  0  0  0
 20 19  1  0  0  0  0
 21 20  1  0  0  0  0
 21 22  1  1  0  0  0
 23 21  1  0  0  0  0
 24 23  1  0  0  0  0
 25 23  2  0  0  0  0
M  END
>  <MODEL>
8

>  <REMARK>
 VINA RESULT:      -8.4      2.069      5.778
  Name = 
  6 active torsions:
  status: ('A' for Active; 'I' for Inactive)
    1  A    between atoms: C_2  and  CA_21
    2  A    between atoms: C_5  and  C_22
    3  A    between atoms: C_6  and  C_15
    4  A    between atoms: C_6  and  C_23
    5  A    between atoms: C_10  and  C_11
    6  A    between atoms: C_15  and  CA_21
                            x       y       z     vdW  Elec       q    Type
                         _______ _______ _______ _____ _____    ______ ____

>  <TORSDO>
F 6

$$$$
=
 OpenBabel10262419543D

 25 27  0  0  1  0  0  0  0  0999 V2000
  186.7070  177.7780  143.8510 C   0  0  0  0  0  0  0  0  0  0  0  0
  188.0580  177.6600  143.2680 C   0  0  0  0  0  0  0  0  0  0  0  0
  187.6010  177.8800  146.1220 C   0  0  0  0  0  2  0  0  0  0  0  0
  185.6770  178.4870  143.3990 C   0  0  0  0  0  0  0  0  0  0  0  0
  188.9140  177.2520  145.6330 C   0  0  0  0  0  2  0  0  0  0  0  0
  184.7540  178.6290  144.5160 C   0  0  0  0  0  0  0  0  0  0  0  0
  190.4470  177.3350  143.6110 C   0  0  0  0  0  0  0  0  0  0  0  0
  191.6290  177.0820  144.4860 C   0  0  0  0  0  1  0  0  0  0  0  0
  188.2820  177.7900  141.8930 C   0  0  0  0  0  3  0  0  0  0  0  0
  186.4480  177.3750  145.2640 C   0  0  1  0  0  3  0  0  0  0  0  0
  185.1980  178.0520  145.5850 N   0  0  0  0  0  0  0  0  0  0  0  0
  190.6520  177.4650  142.2350 C   0  0  0  0  0  3  0  0  0  0  0  0
  189.5750  177.6990  141.3770 C   0  0  0  0  0  0  0  0  0  0  0  0
  189.1480  177.4400  144.1440 C   0  0  0  0  0  0  0  0  0  0  0  0
  182.3500  178.6410  143.9810 C   0  0  0  0  0  1  0  0  0  0  0  0
  183.5140  179.4570  144.5060 C   0  0  0  0  0  2  0  0  0  0  0  0
  184.6790  178.5600  141.1390 C   0  0  0  0  0  1  0  0  0  0  0  0
  185.6090  179.2540  142.1170 C   0  0  0  0  0  2  0  0  0  0  0  0
  189.8030  177.8190  139.9120 C   0  0  0  0  0  2  0  0  0  0  0  0
  188.5730  177.3520  139.1510 C   0  0  0  0  0  2  0  0  0  0  0  0
  188.4930  178.0370  137.7970 C   0  0  2  0  0  3  0  0  0  0  0  0
  189.0540  179.3730  137.8950 N   0  0  0  0  0  1  0  0  0  0  0  0
  187.0780  178.1210  137.3240 C   0  0  0  0  0  0  0  0  0  0  0  0
  186.7410  177.5410  136.2600 O   0  0  0  0  0  0  0  0  0  0  0  0
  186.1320  178.8300  138.0540 O   0  0  0  0  0  1  0  0  0  0  0  0
  1 10  1  0  0  0  0
  2  1  1  0  0  0  0
  2 14  1  0  0  0  0
  4  1  2  0  0  0  0
  4  6  1  0  0  0  0
  5  3  1  0  0  0  0
  6 11  2  0  0  0  0
  7 14  2  0  0  0  0
  7  8  1  0  0  0  0
  9  2  2  0  0  0  0
 10 11  1  0  0  0  0
 10  3  1  1  0  0  0
 12  7  1  0  0  0  0
 13  9  1  0  0  0  0
 13 12  2  0  0  0  0
 14  5  1  0  0  0  0
 15 16  1  0  0  0  0
 16  6  1  0  0  0  0
 17 18  1  0  0  0  0
 18  4  1  0  0  0  0
 19 13  1  0  0  0  0
 20 19  1  0  0  0  0
 21 22  1  1  0  0  0
 21 20  1  0  0  0  0
 23 21  1  0  0  0  0
 23 25  1  0  0  0  0
 24 23  2  0  0  0  0
M  END
>  <MODEL>
9

>  <REMARK>
 VINA RESULT:      -8.4      1.508      2.183
  Name = 
  6 active torsions:
  status: ('A' for Active; 'I' for Inactive)
    1  A    between atoms: C_2  and  CA_21
    2  A    between atoms: C_5  and  C_22
    3  A    between atoms: C_6  and  C_15
    4  A    between atoms: C_6  and  C_23
    5  A    between atoms: C_10  and  C_11
    6  A    between atoms: C_15  and  CA_21
                            x       y       z     vdW  Elec       q    Type
                         _______ _______ _______ _____ _____    ______ ____

>  <TORSDO>
F 6

$$$$
