=
 OpenBabel10252415043D

 34 38  0  0  1  0  0  0  0  0999 V2000
  189.9070  177.1510  146.3700 C   0  0  0  0  0  0  0  0  0  0  0  0
  191.5460  176.2540  144.8170 C   0  0  0  0  0  0  0  0  0  0  0  0
  189.6670  177.8000  143.9550 C   0  0  2  0  0  3  0  0  0  0  0  0
  189.0160  177.4230  141.5620 C   0  0  0  0  0  0  0  0  0  0  0  0
  191.6580  175.6840  147.1740 C   0  0  0  0  0  3  0  0  0  0  0  0
  192.1630  175.5790  145.8760 C   0  0  0  0  0  3  0  0  0  0  0  0
  190.3810  177.0240  145.0500 C   0  0  0  0  0  0  0  0  0  0  0  0
  190.5390  176.4810  147.4220 C   0  0  0  0  0  3  0  0  0  0  0  0
  188.1660  177.9040  144.2080 C   0  0  0  0  0  0  0  0  0  0  0  0
  188.7650  178.0690  146.6680 C   0  0  0  0  0  2  0  0  0  0  0  0
  192.1030  176.1570  143.5840 F   0  0  0  0  0  0  0  0  0  0  0  0
  187.7920  177.7630  141.8180 N   0  0  0  0  0  0  0  0  0  0  0  0
  187.3090  177.9830  143.1560 C   0  0  0  0  0  0  0  0  0  0  0  0
  189.9470  177.2620  142.6280 N   0  0  0  0  0  2  0  0  0  0  0  0
  187.6570  177.9220  145.6330 C   0  0  0  0  0  2  0  0  0  0  0  0
  183.9200  178.8080  144.6720 C   0  0  0  0  0  0  0  0  0  0  0  0
  183.1000  178.7540  143.5410 C   0  0  0  0  0  3  0  0  0  0  0  0
  185.8510  178.2190  143.3140 C   0  0  0  0  0  0  0  0  0  0  0  0
  183.6520  178.4430  142.2970 C   0  0  0  0  0  3  0  0  0  0  0  0
  185.2880  178.5490  144.5580 C   0  0  0  0  0  3  0  0  0  0  0  0
  185.0210  178.1830  142.1830 C   0  0  0  0  0  3  0  0  0  0  0  0
  183.3750  179.1210  145.9100 O   0  0  0  0  0  1  0  0  0  0  0  0
  189.4200  177.0980  140.1650 C   0  0  0  0  0  2  0  0  0  0  0  0
  188.9870  179.1630  139.0600 O   0  0  0  0  0  0  0  0  0  0  0  0
  187.5620  177.4020  138.4870 N   0  0  0  0  0  2  0  0  0  0  0  0
  188.6650  177.9540  139.2060 C   0  0  0  0  0  0  0  0  0  0  0  0
  186.7220  178.2070  137.6160 C   0  0  0  0  0  2  0  0  0  0  0  0
  184.8770  179.8330  139.1080 O   0  0  0  0  0  1  0  0  0  0  0  0
  185.2920  177.8250  137.8060 C   0  0  0  0  0  0  0  0  0  0  0  0
  184.4180  178.6550  138.5290 C   0  0  0  0  0  0  0  0  0  0  0  0
  182.5970  177.1180  138.0880 C   0  0  0  0  0  3  0  0  0  0  0  0
  183.4640  176.2930  137.3640 C   0  0  0  0  0  3  0  0  0  0  0  0
  184.8090  176.6470  137.2220 C   0  0  0  0  0  3  0  0  0  0  0  0
  183.0730  178.2960  138.6690 C   0  0  0  0  0  3  0  0  0  0  0  0
  1 10  1  0  0  0  0
  1  8  1  0  0  0  0
  2  7  1  0  0  0  0
  2  6  2  0  0  0  0
  3 14  1  6  0  0  0
  3  9  1  0  0  0  0
  3  7  1  0  0  0  0
  4 12  2  0  0  0  0
  4 14  1  0  0  0  0
  5  8  2  0  0  0  0
  6  5  1  0  0  0  0
  7  1  2  0  0  0  0
  9 15  1  0  0  0  0
 11  2  1  0  0  0  0
 12 13  1  0  0  0  0
 13 18  1  0  0  0  0
 13  9  2  0  0  0  0
 15 10  1  0  0  0  0
 16 22  1  0  0  0  0
 17 16  2  0  0  0  0
 18 20  2  0  0  0  0
 19 17  1  0  0  0  0
 20 16  1  0  0  0  0
 21 19  2  0  0  0  0
 21 18  1  0  0  0  0
 23  4  1  0  0  0  0
 24 26  2  0  0  0  0
 25 26  1  0  0  0  0
 26 23  1  0  0  0  0
 27 29  1  0  0  0  0
 27 25  1  0  0  0  0
 29 30  1  0  0  0  0
 30 34  2  0  0  0  0
 30 28  1  0  0  0  0
 31 34  1  0  0  0  0
 32 31  2  0  0  0  0
 33 32  1  0  0  0  0
 33 29  2  0  0  0  0
M  END
>  <MODEL>
1

>  <REMARK>
 VINA RESULT:     -10.9      0.000      0.000
  Name = 
  5 active torsions:
  status: ('A' for Active; 'I' for Inactive)
    1  A    between atoms: C_3  and  C_13
    2  A    between atoms: C_3  and  N_17
    3  A    between atoms: C_5  and  C_18
    4  A    between atoms: C_12  and  C_28
    5  A    between atoms: C_18  and  C_29
                            x       y       z     vdW  Elec       q    Type
                         _______ _______ _______ _____ _____    ______ ____

>  <TORSDO>
F 5

$$$$
=
 OpenBabel10252415043D

 34 38  0  0  1  0  0  0  0  0999 V2000
  190.0150  176.3630  137.4090 C   0  0  0  0  0  0  0  0  0  0  0  0
  187.7100  176.7580  136.7510 C   0  0  0  0  0  0  0  0  0  0  0  0
  188.6960  177.9950  138.7900 C   0  0  2  0  0  3  0  0  0  0  0  0
  187.0130  178.6460  140.5340 C   0  0  0  0  0  0  0  0  0  0  0  0
  189.0820  175.1890  135.5080 C   0  0  0  0  0  3  0  0  0  0  0  0
  187.8640  175.8430  135.7030 C   0  0  0  0  0  3  0  0  0  0  0  0
  188.7820  177.0030  137.6420 C   0  0  0  0  0  0  0  0  0  0  0  0
  190.1610  175.4600  136.3510 C   0  0  0  0  0  3  0  0  0  0  0  0
  189.5650  177.5830  139.9750 C   0  0  0  0  0  0  0  0  0  0  0  0
  191.2050  176.7080  138.2460 C   0  0  0  0  0  2  0  0  0  0  0  0
  186.5210  177.4020  136.8690 F   0  0  0  0  0  0  0  0  0  0  0  0
  187.8960  178.5010  141.4710 N   0  0  0  0  0  0  0  0  0  0  0  0
  189.1960  177.9310  141.2350 C   0  0  0  0  0  0  0  0  0  0  0  0
  187.3180  178.2410  139.2030 N   0  0  0  0  0  2  0  0  0  0  0  0
  190.8310  176.7940  139.7220 C   0  0  0  0  0  2  0  0  0  0  0  0
  191.3920  176.2120  143.8220 C   0  0  0  0  0  0  0  0  0  0  0  0
  191.7410  177.2920  144.6380 C   0  0  0  0  0  3  0  0  0  0  0  0
  190.0490  177.6850  142.4270 C   0  0  0  0  0  0  0  0  0  0  0  0
  191.2560  178.5690  144.3460 C   0  0  0  0  0  3  0  0  0  0  0  0
  190.5570  176.4080  142.7200 C   0  0  0  0  0  3  0  0  0  0  0  0
  190.4200  178.7650  143.2430 C   0  0  0  0  0  3  0  0  0  0  0  0
  191.8760  174.9420  144.1070 O   0  0  0  0  0  1  0  0  0  0  0  0
  185.6470  179.1360  140.8690 C   0  0  0  0  0  2  0  0  0  0  0  0
  184.3170  177.5740  142.0790 O   0  0  0  0  0  0  0  0  0  0  0  0
  185.6710  178.9610  143.3850 N   0  0  0  0  0  2  0  0  0  0  0  0
  185.1730  178.4960  142.1290 C   0  0  0  0  0  0  0  0  0  0  0  0
  185.1740  178.4520  144.6530 C   0  0  0  0  0  2  0  0  0  0  0  0
  185.2980  179.2820  147.4040 O   0  0  0  0  0  1  0  0  0  0  0  0
  186.3240  178.1100  145.5400 C   0  0  0  0  0  0  0  0  0  0  0  0
  186.3390  178.5210  146.8840 C   0  0  0  0  0  0  0  0  0  0  0  0
  188.4630  177.3950  147.2010 C   0  0  0  0  0  3  0  0  0  0  0  0
  188.4460  176.9820  145.8650 C   0  0  0  0  0  3  0  0  0  0  0  0
  187.3780  177.3370  145.0360 C   0  0  0  0  0  3  0  0  0  0  0  0
  187.4110  178.1630  147.7090 C   0  0  0  0  0  3  0  0  0  0  0  0
  1  7  1  0  0  0  0
  1 10  1  0  0  0  0
  2 11  1  0  0  0  0
  2  7  2  0  0  0  0
  3  7  1  6  0  0  0
  3 14  1  0  0  0  0
  3  9  1  0  0  0  0
  4 23  1  0  0  0  0
  4 12  2  0  0  0  0
  5  6  2  0  0  0  0
  5  8  1  0  0  0  0
  6  2  1  0  0  0  0
  8  1  2  0  0  0  0
  9 13  2  0  0  0  0
 10 15  1  0  0  0  0
 13 12  1  0  0  0  0
 13 18  1  0  0  0  0
 14  4  1  0  0  0  0
 15  9  1  0  0  0  0
 16 22  1  0  0  0  0
 16 17  1  0  0  0  0
 18 20  1  0  0  0  0
 18 21  2  0  0  0  0
 19 17  2  0  0  0  0
 20 16  2  0  0  0  0
 21 19  1  0  0  0  0
 23 26  1  0  0  0  0
 24 26  2  0  0  0  0
 25 27  1  0  0  0  0
 26 25  1  0  0  0  0
 27 29  1  0  0  0  0
 29 30  1  0  0  0  0
 30 28  1  0  0  0  0
 30 34  2  0  0  0  0
 31 34  1  0  0  0  0
 32 31  2  0  0  0  0
 33 29  2  0  0  0  0
 33 32  1  0  0  0  0
M  END
>  <MODEL>
2

>  <REMARK>
 VINA RESULT:     -10.5      2.799      7.700
  Name = 
  5 active torsions:
  status: ('A' for Active; 'I' for Inactive)
    1  A    between atoms: C_3  and  C_13
    2  A    between atoms: C_3  and  N_17
    3  A    between atoms: C_5  and  C_18
    4  A    between atoms: C_12  and  C_28
    5  A    between atoms: C_18  and  C_29
                            x       y       z     vdW  Elec       q    Type
                         _______ _______ _______ _____ _____    ______ ____

>  <TORSDO>
F 5

$$$$
=
 OpenBabel10252415043D

 34 38  0  0  1  0  0  0  0  0999 V2000
  189.2090  177.3090  146.2680 C   0  0  0  0  0  0  0  0  0  0  0  0
  187.0570  178.0880  147.0840 C   0  0  0  0  0  0  0  0  0  0  0  0
  187.2560  177.1190  144.6990 C   0  0  2  0  0  3  0  0  0  0  0  0
  185.5680  178.0020  143.0670 C   0  0  0  0  0  0  0  0  0  0  0  0
  189.0240  178.2360  148.4970 C   0  0  0  0  0  3  0  0  0  0  0  0
  187.6580  178.4420  148.2970 C   0  0  0  0  0  3  0  0  0  0  0  0
  187.8400  177.5450  146.0370 C   0  0  0  0  0  0  0  0  0  0  0  0
  189.7960  177.6570  147.4890 C   0  0  0  0  0  3  0  0  0  0  0  0
  188.2520  177.2860  143.5560 C   0  0  0  0  0  0  0  0  0  0  0  0
  190.0310  176.6090  145.2340 C   0  0  0  0  0  2  0  0  0  0  0  0
  185.7170  178.2640  146.9570 F   0  0  0  0  0  0  0  0  0  0  0  0
  186.4150  177.8830  142.0930 N   0  0  0  0  0  0  0  0  0  0  0  0
  187.8010  177.5550  142.3030 C   0  0  0  0  0  0  0  0  0  0  0  0
  185.9950  177.7940  144.4090 N   0  0  0  0  0  2  0  0  0  0  0  0
  189.7320  177.1450  143.8390 C   0  0  0  0  0  2  0  0  0  0  0  0
  189.2990  178.5100  138.9390 C   0  0  0  0  0  0  0  0  0  0  0  0
  190.4570  177.7280  138.9300 C   0  0  0  0  0  3  0  0  0  0  0  0
  188.6900  177.6020  141.1130 C   0  0  0  0  0  0  0  0  0  0  0  0
  190.7400  176.8920  140.0120 C   0  0  0  0  0  3  0  0  0  0  0  0
  188.4240  178.4520  140.0270 C   0  0  0  0  0  3  0  0  0  0  0  0
  189.8640  176.8340  141.1010 C   0  0  0  0  0  3  0  0  0  0  0  0
  189.0170  179.3450  137.8670 O   0  0  0  0  0  1  0  0  0  0  0  0
  184.1770  178.4560  142.7900 C   0  0  0  0  0  2  0  0  0  0  0  0
  184.4220  179.6910  140.7680 O   0  0  0  0  0  0  0  0  0  0  0  0
  183.2840  177.6600  140.5690 N   0  0  0  0  0  2  0  0  0  0  0  0
  183.9870  178.6480  141.3230 C   0  0  0  0  0  0  0  0  0  0  0  0
  182.9750  177.8340  139.1600 C   0  0  0  0  0  2  0  0  0  0  0  0
  182.6560  175.1260  138.2440 O   0  0  0  0  0  1  0  0  0  0  0  0
  184.0070  177.1430  138.3330 C   0  0  0  0  0  0  0  0  0  0  0  0
  183.8060  175.8240  137.8910 C   0  0  0  0  0  0  0  0  0  0  0  0
  185.9290  175.8940  136.7230 C   0  0  0  0  0  3  0  0  0  0  0  0
  186.1280  177.2080  137.1570 C   0  0  0  0  0  3  0  0  0  0  0  0
  185.1680  177.8330  137.9590 C   0  0  0  0  0  3  0  0  0  0  0  0
  184.7710  175.2030  137.0890 C   0  0  0  0  0  3  0  0  0  0  0  0
  1  8  1  0  0  0  0
  2  6  2  0  0  0  0
  3  9  1  6  0  0  0
  3  7  1  0  0  0  0
  4 14  1  0  0  0  0
  6  5  1  0  0  0  0
  7  1  2  0  0  0  0
  7  2  1  0  0  0  0
  8  5  2  0  0  0  0
  9 15  1  0  0  0  0
 10  1  1  0  0  0  0
 11  2  1  0  0  0  0
 12 13  1  0  0  0  0
 12  4  2  0  0  0  0
 13  9  2  0  0  0  0
 14  3  1  0  0  0  0
 15 10  1  0  0  0  0
 16 20  1  0  0  0  0
 17 16  2  0  0  0  0
 17 19  1  0  0  0  0
 18 13  1  0  0  0  0
 19 21  2  0  0  0  0
 20 18  2  0  0  0  0
 21 18  1  0  0  0  0
 22 16  1  0  0  0  0
 23  4  1  0  0  0  0
 24 26  2  0  0  0  0
 25 26  1  0  0  0  0
 26 23  1  0  0  0  0
 27 25  1  0  0  0  0
 29 27  1  0  0  0  0
 30 28  1  0  0  0  0
 30 29  2  0  0  0  0
 31 34  2  0  0  0  0
 31 32  1  0  0  0  0
 32 33  2  0  0  0  0
 33 29  1  0  0  0  0
 34 30  1  0  0  0  0
M  END
>  <MODEL>
3

>  <REMARK>
 VINA RESULT:     -10.2      2.178      4.762
  Name = 
  5 active torsions:
  status: ('A' for Active; 'I' for Inactive)
    1  A    between atoms: C_3  and  C_13
    2  A    between atoms: C_3  and  N_17
    3  A    between atoms: C_5  and  C_18
    4  A    between atoms: C_12  and  C_28
    5  A    between atoms: C_18  and  C_29
                            x       y       z     vdW  Elec       q    Type
                         _______ _______ _______ _____ _____    ______ ____

>  <TORSDO>
F 5

$$$$
=
 OpenBabel10252415043D

 34 38  0  0  1  0  0  0  0  0999 V2000
  189.0880  177.3580  146.3830 C   0  0  0  0  0  0  0  0  0  0  0  0
  186.9470  178.2010  147.1620 C   0  0  0  0  0  0  0  0  0  0  0  0
  187.1640  177.2480  144.7730 C   0  0  2  0  0  3  0  0  0  0  0  0
  185.5400  178.2020  143.1140 C   0  0  0  0  0  0  0  0  0  0  0  0
  188.8880  178.2700  148.6170 C   0  0  0  0  0  3  0  0  0  0  0  0
  187.5340  178.5230  148.3910 C   0  0  0  0  0  3  0  0  0  0  0  0
  187.7330  177.6420  146.1260 C   0  0  0  0  0  0  0  0  0  0  0  0
  189.6610  177.6740  147.6190 C   0  0  0  0  0  3  0  0  0  0  0  0
  188.1890  177.3920  143.6510 C   0  0  0  0  0  0  0  0  0  0  0  0
  189.9080  176.6400  145.3600 C   0  0  0  0  0  2  0  0  0  0  0  0
  185.6170  178.4230  147.0090 F   0  0  0  0  0  0  0  0  0  0  0  0
  186.4040  178.0640  142.1570 N   0  0  0  0  0  0  0  0  0  0  0  0
  187.7730  177.6870  142.3920 C   0  0  0  0  0  0  0  0  0  0  0  0
  185.9320  177.9680  144.4630 N   0  0  0  0  0  2  0  0  0  0  0  0
  189.6560  177.1980  143.9640 C   0  0  0  0  0  2  0  0  0  0  0  0
  189.3290  178.5680  139.0340 C   0  0  0  0  0  0  0  0  0  0  0  0
  190.5020  177.8090  139.0760 C   0  0  0  0  0  3  0  0  0  0  0  0
  188.6880  177.7150  141.2220 C   0  0  0  0  0  0  0  0  0  0  0  0
  190.7760  177.0130  140.1900 C   0  0  0  0  0  3  0  0  0  0  0  0
  188.4300  178.5260  140.1040 C   0  0  0  0  0  3  0  0  0  0  0  0
  189.8770  176.9710  141.2600 C   0  0  0  0  0  3  0  0  0  0  0  0
  189.0550  179.3630  137.9300 O   0  0  0  0  0  1  0  0  0  0  0  0
  184.1720  178.7050  142.8130 C   0  0  0  0  0  2  0  0  0  0  0  0
  183.3830  177.4060  140.9790 O   0  0  0  0  0  0  0  0  0  0  0  0
  184.1450  179.5470  140.4360 N   0  0  0  0  0  2  0  0  0  0  0  0
  183.8620  178.5040  141.3680 C   0  0  0  0  0  0  0  0  0  0  0  0
  183.9640  179.3780  139.0030 C   0  0  0  0  0  2  0  0  0  0  0  0
  181.9020  177.6060  138.0640 O   0  0  0  0  0  1  0  0  0  0  0  0
  182.6100  179.8650  138.6090 C   0  0  0  0  0  0  0  0  0  0  0  0
  181.6250  178.9650  138.1700 C   0  0  0  0  0  0  0  0  0  0  0  0
  180.0550  180.7990  137.9400 C   0  0  0  0  0  3  0  0  0  0  0  0
  181.0340  181.6950  138.3820 C   0  0  0  0  0  3  0  0  0  0  0  0
  182.3090  181.2290  138.7180 C   0  0  0  0  0  3  0  0  0  0  0  0
  180.3510  179.4370  137.8350 C   0  0  0  0  0  3  0  0  0  0  0  0
  1  8  1  0  0  0  0
  2  6  2  0  0  0  0
  3  9  1  6  0  0  0
  3  7  1  0  0  0  0
  4 14  1  0  0  0  0
  6  5  1  0  0  0  0
  7  1  2  0  0  0  0
  7  2  1  0  0  0  0
  8  5  2  0  0  0  0
  9 15  1  0  0  0  0
 10  1  1  0  0  0  0
 11  2  1  0  0  0  0
 12 13  1  0  0  0  0
 12  4  2  0  0  0  0
 13  9  2  0  0  0  0
 14  3  1  0  0  0  0
 15 10  1  0  0  0  0
 16 17  2  0  0  0  0
 16 20  1  0  0  0  0
 17 19  1  0  0  0  0
 18 21  1  0  0  0  0
 18 13  1  0  0  0  0
 19 21  2  0  0  0  0
 20 18  2  0  0  0  0
 22 16  1  0  0  0  0
 23  4  1  0  0  0  0
 24 26  2  0  0  0  0
 25 26  1  0  0  0  0
 26 23  1  0  0  0  0
 27 25  1  0  0  0  0
 28 30  1  0  0  0  0
 29 33  1  0  0  0  0
 29 27  1  0  0  0  0
 30 29  2  0  0  0  0
 31 32  1  0  0  0  0
 32 33  2  0  0  0  0
 34 31  2  0  0  0  0
 34 30  1  0  0  0  0
M  END
>  <MODEL>
4

>  <REMARK>
 VINA RESULT:     -10.1      2.482      4.954
  Name = 
  5 active torsions:
  status: ('A' for Active; 'I' for Inactive)
    1  A    between atoms: C_3  and  C_13
    2  A    between atoms: C_3  and  N_17
    3  A    between atoms: C_5  and  C_18
    4  A    between atoms: C_12  and  C_28
    5  A    between atoms: C_18  and  C_29
                            x       y       z     vdW  Elec       q    Type
                         _______ _______ _______ _____ _____    ______ ____

>  <TORSDO>
F 5

$$$$
=
 OpenBabel10252415043D

 34 38  0  0  1  0  0  0  0  0999 V2000
  187.4530  177.8360  137.1000 C   0  0  0  0  0  0  0  0  0  0  0  0
  186.8110  178.3090  139.3950 C   0  0  0  0  0  0  0  0  0  0  0  0
  189.3090  178.1560  138.7620 C   0  0  2  0  0  3  0  0  0  0  0  0
  190.8210  177.4450  140.6340 C   0  0  0  0  0  0  0  0  0  0  0  0
  185.1100  177.9610  137.6990 C   0  0  0  0  0  3  0  0  0  0  0  0
  185.4640  178.2350  139.0210 C   0  0  0  0  0  3  0  0  0  0  0  0
  187.8260  178.0740  138.4370 C   0  0  0  0  0  0  0  0  0  0  0  0
  186.1040  177.7760  136.7360 C   0  0  0  0  0  3  0  0  0  0  0  0
  190.1410  177.2040  137.9070 C   0  0  0  0  0  0  0  0  0  0  0  0
  188.5020  177.7250  136.0400 C   0  0  0  0  0  2  0  0  0  0  0  0
  187.1020  178.6250  140.6820 F   0  0  0  0  0  0  0  0  0  0  0  0
  191.6160  176.8550  139.7970 N   0  0  0  0  0  0  0  0  0  0  0  0
  191.2910  176.6800  138.4060 C   0  0  0  0  0  0  0  0  0  0  0  0
  189.5720  177.9600  140.1850 N   0  0  0  0  0  2  0  0  0  0  0  0
  189.6690  176.8630  136.5110 C   0  0  0  0  0  2  0  0  0  0  0  0
  194.3430  175.5400  136.4430 C   0  0  0  0  0  0  0  0  0  0  0  0
  193.9960  174.2180  136.1530 C   0  0  0  0  0  3  0  0  0  0  0  0
  192.2230  175.8540  137.5970 C   0  0  0  0  0  0  0  0  0  0  0  0
  192.7720  173.7070  136.5920 C   0  0  0  0  0  3  0  0  0  0  0  0
  193.4650  176.3510  137.1660 C   0  0  0  0  0  3  0  0  0  0  0  0
  191.8930  174.5200  137.3150 C   0  0  0  0  0  3  0  0  0  0  0  0
  195.5600  176.0490  136.0130 O   0  0  0  0  0  1  0  0  0  0  0  0
  191.1670  177.4900  142.0820 C   0  0  0  0  0  2  0  0  0  0  0  0
  189.9660  175.6330  142.9680 O   0  0  0  0  0  0  0  0  0  0  0  0
  189.1160  177.7360  143.5290 N   0  0  0  0  0  2  0  0  0  0  0  0
  190.0660  176.8860  142.8860 C   0  0  0  0  0  0  0  0  0  0  0  0
  187.9620  177.2120  144.2410 C   0  0  0  0  0  2  0  0  0  0  0  0
  185.7970  178.2800  145.8050 O   0  0  0  0  0  1  0  0  0  0  0  0
  188.0970  177.5050  145.6970 C   0  0  0  0  0  0  0  0  0  0  0  0
  187.0100  178.0110  146.4300 C   0  0  0  0  0  0  0  0  0  0  0  0
  188.3570  177.9800  148.4450 C   0  0  0  0  0  3  0  0  0  0  0  0
  189.4380  177.4710  147.7180 C   0  0  0  0  0  3  0  0  0  0  0  0
  189.3080  177.2320  146.3470 C   0  0  0  0  0  3  0  0  0  0  0  0
  187.1460  178.2500  147.8020 C   0  0  0  0  0  3  0  0  0  0  0  0
  1  7  1  0  0  0  0
  2 11  1  0  0  0  0
  3  9  1  6  0  0  0
  3 14  1  0  0  0  0
  4 23  1  0  0  0  0
  5  6  2  0  0  0  0
  6  2  1  0  0  0  0
  7  3  1  0  0  0  0
  7  2  2  0  0  0  0
  8  1  2  0  0  0  0
  8  5  1  0  0  0  0
  9 13  2  0  0  0  0
 10 15  1  0  0  0  0
 10  1  1  0  0  0  0
 12  4  2  0  0  0  0
 13 12  1  0  0  0  0
 14  4  1  0  0  0  0
 15  9  1  0  0  0  0
 16 20  1  0  0  0  0
 17 16  2  0  0  0  0
 17 19  1  0  0  0  0
 18 13  1  0  0  0  0
 19 21  2  0  0  0  0
 20 18  2  0  0  0  0
 21 18  1  0  0  0  0
 22 16  1  0  0  0  0
 23 26  1  0  0  0  0
 25 27  1  0  0  0  0
 26 24  2  0  0  0  0
 26 25  1  0  0  0  0
 27 29  1  0  0  0  0
 28 30  1  0  0  0  0
 29 33  2  0  0  0  0
 29 30  1  0  0  0  0
 30 34  2  0  0  0  0
 32 31  2  0  0  0  0
 33 32  1  0  0  0  0
 34 31  1  0  0  0  0
M  END
>  <MODEL>
5

>  <REMARK>
 VINA RESULT:      -9.9      3.413      9.112
  Name = 
  5 active torsions:
  status: ('A' for Active; 'I' for Inactive)
    1  A    between atoms: C_3  and  C_13
    2  A    between atoms: C_3  and  N_17
    3  A    between atoms: C_5  and  C_18
    4  A    between atoms: C_12  and  C_28
    5  A    between atoms: C_18  and  C_29
                            x       y       z     vdW  Elec       q    Type
                         _______ _______ _______ _____ _____    ______ ____

>  <TORSDO>
F 5

$$$$
=
 OpenBabel10252415043D

 34 38  0  0  1  0  0  0  0  0999 V2000
  189.0740  177.3010  146.3030 C   0  0  0  0  0  0  0  0  0  0  0  0
  186.8880  178.1620  146.9210 C   0  0  0  0  0  0  0  0  0  0  0  0
  187.2610  177.1660  144.5690 C   0  0  2  0  0  3  0  0  0  0  0  0
  185.7550  178.0940  142.7890 C   0  0  0  0  0  0  0  0  0  0  0  0
  188.7280  178.2530  148.5020 C   0  0  0  0  0  3  0  0  0  0  0  0
  187.3930  178.5060  148.1810 C   0  0  0  0  0  3  0  0  0  0  0  0
  187.7400  177.5830  145.9500 C   0  0  0  0  0  0  0  0  0  0  0  0
  189.5640  177.6380  147.5680 C   0  0  0  0  0  3  0  0  0  0  0  0
  188.3590  177.2880  143.5170 C   0  0  0  0  0  0  0  0  0  0  0  0
  189.9580  176.5630  145.3490 C   0  0  0  0  0  2  0  0  0  0  0  0
  185.5730  178.3850  146.6760 F   0  0  0  0  0  0  0  0  0  0  0  0
  186.6800  177.9370  141.8950 N   0  0  0  0  0  0  0  0  0  0  0  0
  188.0290  177.5620  142.2270 C   0  0  0  0  0  0  0  0  0  0  0  0
  186.0550  177.8830  144.1660 N   0  0  0  0  0  2  0  0  0  0  0  0
  189.8020  177.0970  143.9300 C   0  0  0  0  0  2  0  0  0  0  0  0
  191.3140  177.5010  140.3100 C   0  0  0  0  0  0  0  0  0  0  0  0
  190.8530  177.4760  138.9900 C   0  0  0  0  0  3  0  0  0  0  0  0
  189.0200  177.5670  141.1200 C   0  0  0  0  0  0  0  0  0  0  0  0
  189.4800  177.4840  138.7320 C   0  0  0  0  0  3  0  0  0  0  0  0
  190.4030  177.5400  141.3680 C   0  0  0  0  0  3  0  0  0  0  0  0
  188.5690  177.5240  139.7920 C   0  0  0  0  0  3  0  0  0  0  0  0
  192.6770  177.4880  140.5690 O   0  0  0  0  0  1  0  0  0  0  0  0
  184.4110  178.5950  142.3890 C   0  0  0  0  0  2  0  0  0  0  0  0
  184.9290  179.7530  140.3720 O   0  0  0  0  0  0  0  0  0  0  0  0
  183.6180  177.8360  140.1180 N   0  0  0  0  0  2  0  0  0  0  0  0
  184.3540  178.7690  140.9090 C   0  0  0  0  0  0  0  0  0  0  0  0
  183.4370  178.0040  138.6860 C   0  0  0  0  0  2  0  0  0  0  0  0
  186.0580  178.6740  137.7090 O   0  0  0  0  0  1  0  0  0  0  0  0
  184.2920  177.0250  137.9540 C   0  0  0  0  0  0  0  0  0  0  0  0
  185.5740  177.3860  137.5070 C   0  0  0  0  0  0  0  0  0  0  0  0
  185.9030  175.1450  136.6440 C   0  0  0  0  0  3  0  0  0  0  0  0
  184.6290  174.7820  137.0940 C   0  0  0  0  0  3  0  0  0  0  0  0
  183.8250  175.7200  137.7490 C   0  0  0  0  0  3  0  0  0  0  0  0
  186.3740  176.4440  136.8510 C   0  0  0  0  0  3  0  0  0  0  0  0
  1  8  1  0  0  0  0
  2  6  2  0  0  0  0
  3  9  1  6  0  0  0
  3  7  1  0  0  0  0
  4 14  1  0  0  0  0
  6  5  1  0  0  0  0
  7  1  2  0  0  0  0
  7  2  1  0  0  0  0
  8  5  2  0  0  0  0
  9 15  1  0  0  0  0
 10  1  1  0  0  0  0
 11  2  1  0  0  0  0
 12 13  1  0  0  0  0
 12  4  2  0  0  0  0
 13  9  2  0  0  0  0
 14  3  1  0  0  0  0
 15 10  1  0  0  0  0
 16 22  1  0  0  0  0
 16 20  1  0  0  0  0
 17 16  2  0  0  0  0
 18 20  2  0  0  0  0
 18 13  1  0  0  0  0
 19 17  1  0  0  0  0
 19 21  2  0  0  0  0
 21 18  1  0  0  0  0
 23  4  1  0  0  0  0
 24 26  2  0  0  0  0
 25 26  1  0  0  0  0
 26 23  1  0  0  0  0
 27 25  1  0  0  0  0
 29 27  1  0  0  0  0
 30 28  1  0  0  0  0
 30 29  2  0  0  0  0
 31 34  2  0  0  0  0
 31 32  1  0  0  0  0
 32 33  2  0  0  0  0
 33 29  1  0  0  0  0
 34 30  1  0  0  0  0
M  END
>  <MODEL>
6

>  <REMARK>
 VINA RESULT:      -9.9      2.268      4.711
  Name = 
  5 active torsions:
  status: ('A' for Active; 'I' for Inactive)
    1  A    between atoms: C_3  and  C_13
    2  A    between atoms: C_3  and  N_17
    3  A    between atoms: C_5  and  C_18
    4  A    between atoms: C_12  and  C_28
    5  A    between atoms: C_18  and  C_29
                            x       y       z     vdW  Elec       q    Type
                         _______ _______ _______ _____ _____    ______ ____

>  <TORSDO>
F 5

$$$$
=
 OpenBabel10252415043D

 34 38  0  0  1  0  0  0  0  0999 V2000
  186.7910  177.9260  137.8440 C   0  0  0  0  0  0  0  0  0  0  0  0
  186.3530  178.6210  140.1300 C   0  0  0  0  0  0  0  0  0  0  0  0
  188.7850  178.3230  139.3190 C   0  0  2  0  0  3  0  0  0  0  0  0
  190.4250  177.7260  141.1220 C   0  0  0  0  0  0  0  0  0  0  0  0
  184.5100  178.1870  138.6120 C   0  0  0  0  0  3  0  0  0  0  0  0
  184.9790  178.5630  139.8720 C   0  0  0  0  0  3  0  0  0  0  0  0
  187.2790  178.2670  139.1200 C   0  0  0  0  0  0  0  0  0  0  0  0
  185.4160  177.8820  137.5950 C   0  0  0  0  0  3  0  0  0  0  0  0
  189.5160  177.2710  138.4900 C   0  0  0  0  0  0  0  0  0  0  0  0
  187.7460  177.6840  136.7190 C   0  0  0  0  0  2  0  0  0  0  0  0
  186.7580  179.0380  141.3560 F   0  0  0  0  0  0  0  0  0  0  0  0
  191.1310  177.0360  140.2810 N   0  0  0  0  0  0  0  0  0  0  0  0
  190.6880  176.7520  138.9420 C   0  0  0  0  0  0  0  0  0  0  0  0
  189.1580  178.2440  140.7280 N   0  0  0  0  0  2  0  0  0  0  0  0
  188.9220  176.8260  137.1720 C   0  0  0  0  0  2  0  0  0  0  0  0
  193.6830  175.1210  137.2570 C   0  0  0  0  0  0  0  0  0  0  0  0
  193.0890  173.9870  136.6950 C   0  0  0  0  0  3  0  0  0  0  0  0
  191.5270  175.8250  138.1400 C   0  0  0  0  0  0  0  0  0  0  0  0
  191.7200  173.7640  136.8610 C   0  0  0  0  0  3  0  0  0  0  0  0
  192.9080  176.0300  137.9800 C   0  0  0  0  0  3  0  0  0  0  0  0
  190.9450  174.6750  137.5850 C   0  0  0  0  0  3  0  0  0  0  0  0
  195.0430  175.3430  137.0970 O   0  0  0  0  0  1  0  0  0  0  0  0
  190.8890  177.8850  142.5280 C   0  0  0  0  0  2  0  0  0  0  0  0
  189.8500  175.8460  143.1900 O   0  0  0  0  0  0  0  0  0  0  0  0
  189.4220  177.6830  144.5690 N   0  0  0  0  0  2  0  0  0  0  0  0
  190.0400  177.0660  143.4390 C   0  0  0  0  0  0  0  0  0  0  0  0
  188.5020  176.9680  145.4370 C   0  0  0  0  0  2  0  0  0  0  0  0
  187.3380  178.1370  147.7940 O   0  0  0  0  0  1  0  0  0  0  0  0
  187.1710  177.6420  145.4220 C   0  0  0  0  0  0  0  0  0  0  0  0
  186.6440  178.2160  146.5910 C   0  0  0  0  0  0  0  0  0  0  0  0
  184.7020  178.9630  145.3470 C   0  0  0  0  0  3  0  0  0  0  0  0
  185.2280  178.3970  144.1820 C   0  0  0  0  0  3  0  0  0  0  0  0
  186.4610  177.7390  144.2180 C   0  0  0  0  0  3  0  0  0  0  0  0
  185.4090  178.8730  146.5500 C   0  0  0  0  0  3  0  0  0  0  0  0
  1  7  1  0  0  0  0
  2 11  1  0  0  0  0
  3  9  1  6  0  0  0
  3 14  1  0  0  0  0
  4 23  1  0  0  0  0
  5  6  2  0  0  0  0
  6  2  1  0  0  0  0
  7  3  1  0  0  0  0
  7  2  2  0  0  0  0
  8  1  2  0  0  0  0
  8  5  1  0  0  0  0
  9 13  2  0  0  0  0
 10 15  1  0  0  0  0
 10  1  1  0  0  0  0
 12  4  2  0  0  0  0
 13 12  1  0  0  0  0
 14  4  1  0  0  0  0
 15  9  1  0  0  0  0
 16 20  1  0  0  0  0
 17 19  1  0  0  0  0
 17 16  2  0  0  0  0
 18 13  1  0  0  0  0
 19 21  2  0  0  0  0
 20 18  2  0  0  0  0
 21 18  1  0  0  0  0
 22 16  1  0  0  0  0
 23 26  1  0  0  0  0
 24 26  2  0  0  0  0
 25 27  1  0  0  0  0
 26 25  1  0  0  0  0
 29 27  1  0  0  0  0
 29 30  1  0  0  0  0
 30 28  1  0  0  0  0
 31 34  1  0  0  0  0
 32 33  1  0  0  0  0
 32 31  2  0  0  0  0
 33 29  2  0  0  0  0
 34 30  2  0  0  0  0
M  END
>  <MODEL>
7

>  <REMARK>
 VINA RESULT:      -9.8      3.151      8.395
  Name = 
  5 active torsions:
  status: ('A' for Active; 'I' for Inactive)
    1  A    between atoms: C_3  and  C_13
    2  A    between atoms: C_3  and  N_17
    3  A    between atoms: C_5  and  C_18
    4  A    between atoms: C_12  and  C_28
    5  A    between atoms: C_18  and  C_29
                            x       y       z     vdW  Elec       q    Type
                         _______ _______ _______ _____ _____    ______ ____

>  <TORSDO>
F 5

$$$$
=
 OpenBabel10252415043D

 34 38  0  0  1  0  0  0  0  0999 V2000
  182.9840  178.6270  141.9580 C   0  0  0  0  0  0  0  0  0  0  0  0
  185.2490  179.3470  142.4630 C   0  0  0  0  0  0  0  0  0  0  0  0
  184.5470  178.9280  140.0140 C   0  0  2  0  0  3  0  0  0  0  0  0
  186.4220  178.2530  138.4890 C   0  0  0  0  0  0  0  0  0  0  0  0
  183.6500  179.0020  144.2550 C   0  0  0  0  0  3  0  0  0  0  0  0
  184.9300  179.3570  143.8250 C   0  0  0  0  0  3  0  0  0  0  0  0
  184.2810  178.9460  141.5110 C   0  0  0  0  0  0  0  0  0  0  0  0
  182.6740  178.6510  143.3210 C   0  0  0  0  0  3  0  0  0  0  0  0
  183.7520  177.8390  139.3000 C   0  0  0  0  0  0  0  0  0  0  0  0
  181.9040  178.3360  140.9670 C   0  0  0  0  0  2  0  0  0  0  0  0
  186.4920  179.7460  142.0930 F   0  0  0  0  0  0  0  0  0  0  0  0
  185.6130  177.5280  137.7820 N   0  0  0  0  0  0  0  0  0  0  0  0
  184.2560  177.2630  138.1770 C   0  0  0  0  0  0  0  0  0  0  0  0
  185.9710  178.8330  139.7100 N   0  0  0  0  0  2  0  0  0  0  0  0
  182.4080  177.4220  139.8560 C   0  0  0  0  0  2  0  0  0  0  0  0
  182.7750  174.0250  136.8370 C   0  0  0  0  0  0  0  0  0  0  0  0
  181.9470  174.5100  135.8210 C   0  0  0  0  0  3  0  0  0  0  0  0
  183.4910  176.2940  137.3510 C   0  0  0  0  0  0  0  0  0  0  0  0
  181.8810  175.8830  135.5740 C   0  0  0  0  0  3  0  0  0  0  0  0
  183.5370  174.9120  137.6020 C   0  0  0  0  0  3  0  0  0  0  0  0
  182.6440  176.7710  136.3380 C   0  0  0  0  0  3  0  0  0  0  0  0
  182.8400  172.6620  137.0890 O   0  0  0  0  0  1  0  0  0  0  0  0
  187.8470  178.3910  138.0810 C   0  0  0  0  0  2  0  0  0  0  0  0
  189.0640  176.3750  138.4360 O   0  0  0  0  0  0  0  0  0  0  0  0
  189.0710  177.8770  140.2250 N   0  0  0  0  0  2  0  0  0  0  0  0
  188.7020  177.4870  138.9020 C   0  0  0  0  0  0  0  0  0  0  0  0
  189.8140  177.0000  141.1150 C   0  0  0  0  0  2  0  0  0  0  0  0
  191.4170  178.2270  143.1640 O   0  0  0  0  0  1  0  0  0  0  0  0
  189.3260  177.1750  142.5140 C   0  0  0  0  0  0  0  0  0  0  0  0
  190.1340  177.7940  143.4820 C   0  0  0  0  0  0  0  0  0  0  0  0
  188.3580  177.5520  145.1150 C   0  0  0  0  0  3  0  0  0  0  0  0
  187.5510  176.9400  144.1500 C   0  0  0  0  0  3  0  0  0  0  0  0
  188.0330  176.7530  142.8510 C   0  0  0  0  0  3  0  0  0  0  0  0
  189.6470  177.9780  144.7810 C   0  0  0  0  0  3  0  0  0  0  0  0
  1  8  1  0  0  0  0
  2  6  2  0  0  0  0
  3  9  1  1  0  0  0
  3  7  1  0  0  0  0
  4 14  1  0  0  0  0
  6  5  1  0  0  0  0
  7  1  2  0  0  0  0
  7  2  1  0  0  0  0
  8  5  2  0  0  0  0
  9 15  1  0  0  0  0
 10  1  1  0  0  0  0
 11  2  1  0  0  0  0
 12 13  1  0  0  0  0
 12  4  2  0  0  0  0
 13  9  2  0  0  0  0
 14  3  1  0  0  0  0
 15 10  1  0  0  0  0
 16 22  1  0  0  0  0
 16 20  1  0  0  0  0
 17 16  2  0  0  0  0
 18 20  2  0  0  0  0
 18 13  1  0  0  0  0
 19 17  1  0  0  0  0
 19 21  2  0  0  0  0
 21 18  1  0  0  0  0
 23  4  1  0  0  0  0
 23 26  1  0  0  0  0
 24 26  2  0  0  0  0
 25 27  1  0  0  0  0
 26 25  1  0  0  0  0
 27 29  1  0  0  0  0
 28 30  1  0  0  0  0
 29 33  2  0  0  0  0
 29 30  1  0  0  0  0
 30 34  2  0  0  0  0
 32 31  2  0  0  0  0
 33 32  1  0  0  0  0
 34 31  1  0  0  0  0
M  END
>  <MODEL>
8

>  <REMARK>
 VINA RESULT:      -9.7      2.696      7.180
  Name = 
  5 active torsions:
  status: ('A' for Active; 'I' for Inactive)
    1  A    between atoms: C_3  and  C_13
    2  A    between atoms: C_3  and  N_17
    3  A    between atoms: C_5  and  C_18
    4  A    between atoms: C_12  and  C_28
    5  A    between atoms: C_18  and  C_29
                            x       y       z     vdW  Elec       q    Type
                         _______ _______ _______ _____ _____    ______ ____

>  <TORSDO>
F 5

$$$$
=
 OpenBabel10252415043D

 34 38  0  0  1  0  0  0  0  0999 V2000
  189.0470  177.3300  146.3150 C   0  0  0  0  0  0  0  0  0  0  0  0
  186.9290  178.2270  147.0960 C   0  0  0  0  0  0  0  0  0  0  0  0
  187.1240  177.2870  144.7010 C   0  0  2  0  0  3  0  0  0  0  0  0
  185.5310  178.2990  143.0460 C   0  0  0  0  0  0  0  0  0  0  0  0
  188.8690  178.2300  148.5560 C   0  0  0  0  0  3  0  0  0  0  0  0
  187.5230  178.5240  148.3290 C   0  0  0  0  0  3  0  0  0  0  0  0
  187.7010  177.6540  146.0580 C   0  0  0  0  0  0  0  0  0  0  0  0
  189.6270  177.6210  147.5550 C   0  0  0  0  0  3  0  0  0  0  0  0
  188.1550  177.4100  143.5820 C   0  0  0  0  0  0  0  0  0  0  0  0
  189.8490  176.5960  145.2880 C   0  0  0  0  0  2  0  0  0  0  0  0
  185.6070  178.4890  146.9430 F   0  0  0  0  0  0  0  0  0  0  0  0
  186.3930  178.1440  142.0900 N   0  0  0  0  0  0  0  0  0  0  0  0
  187.7500  177.7270  142.3240 C   0  0  0  0  0  0  0  0  0  0  0  0
  185.9140  178.0430  144.3940 N   0  0  0  0  0  2  0  0  0  0  0  0
  189.6160  177.1720  143.8960 C   0  0  0  0  0  2  0  0  0  0  0  0
  189.3230  178.5700  138.9650 C   0  0  0  0  0  0  0  0  0  0  0  0
  190.4870  177.7980  139.0130 C   0  0  0  0  0  3  0  0  0  0  0  0
  188.6670  177.7370  141.1560 C   0  0  0  0  0  0  0  0  0  0  0  0
  190.7500  177.0040  140.1320 C   0  0  0  0  0  3  0  0  0  0  0  0
  188.4220  178.5450  140.0330 C   0  0  0  0  0  3  0  0  0  0  0  0
  189.8480  176.9790  141.2000 C   0  0  0  0  0  3  0  0  0  0  0  0
  189.0620  179.3630  137.8570 O   0  0  0  0  0  1  0  0  0  0  0  0
  184.1780  178.8430  142.7470 C   0  0  0  0  0  2  0  0  0  0  0  0
  184.1460  179.5740  140.4800 O   0  0  0  0  0  0  0  0  0  0  0  0
  183.2200  177.4640  140.8650 N   0  0  0  0  0  2  0  0  0  0  0  0
  183.8660  178.6610  141.3000 C   0  0  0  0  0  0  0  0  0  0  0  0
  182.7950  177.2670  139.4890 C   0  0  0  0  0  2  0  0  0  0  0  0
  180.3710  178.7500  139.9360 O   0  0  0  0  0  1  0  0  0  0  0  0
  181.4490  176.6240  139.4670 C   0  0  0  0  0  0  0  0  0  0  0  0
  180.2870  177.3870  139.6740 C   0  0  0  0  0  0  0  0  0  0  0  0
  178.9310  175.4030  139.3510 C   0  0  0  0  0  3  0  0  0  0  0  0
  180.0870  174.6440  139.1400 C   0  0  0  0  0  3  0  0  0  0  0  0
  181.3440  175.2540  139.1960 C   0  0  0  0  0  3  0  0  0  0  0  0
  179.0320  176.7720  139.6170 C   0  0  0  0  0  3  0  0  0  0  0  0
  1  8  1  0  0  0  0
  2  6  2  0  0  0  0
  3  9  1  6  0  0  0
  3  7  1  0  0  0  0
  4 14  1  0  0  0  0
  6  5  1  0  0  0  0
  7  1  2  0  0  0  0
  7  2  1  0  0  0  0
  8  5  2  0  0  0  0
  9 15  1  0  0  0  0
 10  1  1  0  0  0  0
 11  2  1  0  0  0  0
 12 13  1  0  0  0  0
 12  4  2  0  0  0  0
 13  9  2  0  0  0  0
 14  3  1  0  0  0  0
 15 10  1  0  0  0  0
 16 17  2  0  0  0  0
 16 20  1  0  0  0  0
 17 19  1  0  0  0  0
 18 21  1  0  0  0  0
 18 13  1  0  0  0  0
 19 21  2  0  0  0  0
 20 18  2  0  0  0  0
 22 16  1  0  0  0  0
 23  4  1  0  0  0  0
 24 26  2  0  0  0  0
 25 26  1  0  0  0  0
 26 23  1  0  0  0  0
 27 25  1  0  0  0  0
 29 27  1  0  0  0  0
 29 30  1  0  0  0  0
 30 28  1  0  0  0  0
 31 34  1  0  0  0  0
 32 33  1  0  0  0  0
 32 31  2  0  0  0  0
 33 29  2  0  0  0  0
 34 30  2  0  0  0  0
M  END
>  <MODEL>
9

>  <REMARK>
 VINA RESULT:      -9.7      2.504      4.976
  Name = 
  5 active torsions:
  status: ('A' for Active; 'I' for Inactive)
    1  A    between atoms: C_3  and  C_13
    2  A    between atoms: C_3  and  N_17
    3  A    between atoms: C_5  and  C_18
    4  A    between atoms: C_12  and  C_28
    5  A    between atoms: C_18  and  C_29
                            x       y       z     vdW  Elec       q    Type
                         _______ _______ _______ _____ _____    ______ ____

>  <TORSDO>
F 5

$$$$
