=
 OpenBabel10262419323D

 31 35  0  0  0  0  0  0  0  0999 V2000
  187.3450  178.1690  143.3320 C   0  0  0  0  0  0  0  0  0  0  0  0
  186.0650  178.4020  143.8800 C   0  0  0  0  0  0  0  0  0  0  0  0
  184.4850  178.3790  145.7290 C   0  0  0  0  0  0  0  0  0  0  0  0
  188.5010  177.6810  144.0990 C   0  0  0  0  0  0  0  0  0  0  0  0
  190.0810  177.0590  145.5330 C   0  0  0  0  0  0  0  0  0  0  0  0
  185.7650  178.1330  145.2250 C   0  0  0  0  0  3  0  0  0  0  0  0
  188.9270  178.1860  141.3000 C   0  0  0  0  0  0  0  0  0  0  0  0
  185.3170  179.1980  141.7390 N   0  0  0  0  0  0  0  0  0  0  0  0
  184.2080  178.1160  147.0280 F   0  0  0  0  0  0  0  0  0  0  0  0
  190.0080  177.8220  142.2360 N   0  0  0  0  0  4  0  0  0  0  0  0
  187.5810  178.4560  141.9680 C   0  0  0  0  0  0  0  0  0  0  0  0
  188.6470  177.3880  145.3820 C   0  0  0  0  0  3  0  0  0  0  0  0
  183.4920  178.8970  144.8950 C   0  0  0  0  0  3  0  0  0  0  0  0
  189.7850  177.5620  143.4850 C   0  0  0  0  0  0  0  0  0  0  0  0
  190.7610  177.1790  144.4340 N   0  0  0  0  0  0  0  0  0  0  0  0
  186.5400  178.9760  141.1940 C   0  0  0  0  0  3  0  0  0  0  0  0
  185.0520  178.9260  143.0430 C   0  0  0  0  0  0  0  0  0  0  0  0
  183.7740  179.1710  143.5540 C   0  0  0  0  0  3  0  0  0  0  0  0
  189.1840  178.5280  138.4880 O   0  0  0  0  0  0  0  0  0  0  0  0
  188.9300  177.3640  138.9010 C   0  0  0  0  0  0  0  0  0  0  0  0
  188.7740  177.1330  140.3050 N   0  0  0  0  0  2  0  0  0  0  0  0
  188.4000  174.1270  136.1570 C   0  0  0  0  0  0  0  0  0  0  0  0
  187.5200  175.9850  137.4010 C   0  0  0  0  0  3  0  0  0  0  0  0
  191.2400  175.5470  138.0910 C   0  0  0  0  0  1  0  0  0  0  0  0
  188.2090  173.0050  135.2040 C   0  0  0  0  0  1  0  0  0  0  0  0
  187.3210  174.9360  136.5050 C   0  0  0  0  0  3  0  0  0  0  0  0
  189.8530  175.3800  137.5680 C   0  0  0  0  0  0  0  0  0  0  0  0
  188.7850  176.2300  137.9510 C   0  0  0  0  0  0  0  0  0  0  0  0
  189.6270  174.3650  136.6900 N   0  0  0  0  0  0  0  0  0  0  0  0
  190.7180  176.7090  146.8310 C   0  0  0  0  0  2  0  0  0  0  0  0
  192.1050  176.6970  146.6850 O   0  0  0  0  0  1  0  0  0  0  0  0
  1  2  1  0  0  0  0
  1  4  1  0  0  0  0
  2  6  1  0  0  0  0
  3  9  1  0  0  0  0
  4 12  2  0  0  0  0
  5 30  1  0  0  0  0
  6  3  2  0  0  0  0
  7 11  1  0  0  0  0
  7 10  2  0  0  0  0
  8 17  1  0  0  0  0
 10 14  2  0  0  0  0
 11  1  2  0  0  0  0
 12  5  1  0  0  0  0
 13  3  1  0  0  0  0
 14  4  1  0  0  0  0
 14 15  1  0  0  0  0
 15  5  2  0  0  0  0
 16  8  2  0  0  0  0
 16 11  1  0  0  0  0
 17 18  1  0  0  0  0
 17  2  2  0  0  0  0
 18 13  2  0  0  0  0
 19 20  2  0  0  0  0
 20 21  1  0  0  0  0
 21  7  1  0  0  0  0
 22 26  2  0  0  0  0
 22 29  1  0  0  0  0
 23 28  2  0  0  0  0
 25 22  1  0  0  0  0
 26 23  1  0  0  0  0
 27 28  1  0  0  0  0
 27 24  1  0  0  0  0
 28 20  1  0  0  0  0
 29 27  2  0  0  0  0
 31 30  1  0  0  0  0
M  END
>  <MODEL>
1

>  <REMARK>
 VINA RESULT:     -10.0      0.000      0.000
  Name = 
  3 active torsions:
  status: ('A' for Active; 'I' for Inactive)
    1  A    between atoms: C_2  and  CA_13
    2  A    between atoms: C_9  and  C_22
    3  A    between atoms: C_15  and  N_23
                            x       y       z     vdW  Elec       q    Type
                         _______ _______ _______ _____ _____    ______ ____

>  <TORSDO>
F 3

$$$$
=
 OpenBabel10262419323D

 31 35  0  0  0  0  0  0  0  0999 V2000
  187.0070  178.1400  143.5110 C   0  0  0  0  0  0  0  0  0  0  0  0
  187.3810  177.8870  144.8490 C   0  0  0  0  0  0  0  0  0  0  0  0
  188.9490  177.0790  146.5230 C   0  0  0  0  0  0  0  0  0  0  0  0
  187.8670  177.8880  142.3460 C   0  0  0  0  0  0  0  0  0  0  0  0
  189.4280  177.5190  140.8070 C   0  0  0  0  0  0  0  0  0  0  0  0
  188.6160  177.3130  145.1860 C   0  0  0  0  0  3  0  0  0  0  0  0
  185.2580  178.9750  141.8150 C   0  0  0  0  0  0  0  0  0  0  0  0
  185.2780  178.7880  145.5850 N   0  0  0  0  0  0  0  0  0  0  0  0
  190.1450  176.5250  146.8360 F   0  0  0  0  0  0  0  0  0  0  0  0
  186.2900  178.7880  140.7770 N   0  0  0  0  0  4  0  0  0  0  0  0
  185.7450  178.7170  143.2390 C   0  0  0  0  0  0  0  0  0  0  0  0
  189.1070  177.4320  142.2480 C   0  0  0  0  0  3  0  0  0  0  0  0
  188.0510  177.4190  147.5380 C   0  0  0  0  0  3  0  0  0  0  0  0
  187.4450  178.2620  141.0340 C   0  0  0  0  0  0  0  0  0  0  0  0
  188.4700  178.0240  140.0900 N   0  0  0  0  0  0  0  0  0  0  0  0
  184.8990  179.0340  144.3050 C   0  0  0  0  0  3  0  0  0  0  0  0
  186.4780  178.2280  145.8840 C   0  0  0  0  0  0  0  0  0  0  0  0
  186.8180  177.9930  147.2190 C   0  0  0  0  0  3  0  0  0  0  0  0
  183.3180  179.4360  139.7870 O   0  0  0  0  0  0  0  0  0  0  0  0
  183.1820  178.3910  140.4810 C   0  0  0  0  0  0  0  0  0  0  0  0
  184.1190  178.1140  141.5260 N   0  0  0  0  0  2  0  0  0  0  0  0
  180.0330  175.6070  139.6990 C   0  0  0  0  0  0  0  0  0  0  0  0
  182.3210  176.2990  139.4700 C   0  0  0  0  0  3  0  0  0  0  0  0
  180.3550  178.8230  141.5350 C   0  0  0  0  0  1  0  0  0  0  0  0
  178.9440  174.6360  139.4240 C   0  0  0  0  0  1  0  0  0  0  0  0
  181.3130  175.3760  139.2010 C   0  0  0  0  0  3  0  0  0  0  0  0
  180.7450  177.6390  140.7170 C   0  0  0  0  0  0  0  0  0  0  0  0
  182.0630  177.4470  140.2310 C   0  0  0  0  0  0  0  0  0  0  0  0
  179.7810  176.7190  140.4370 N   0  0  0  0  0  0  0  0  0  0  0  0
  190.7490  177.1520  140.2290 C   0  0  0  0  0  2  0  0  0  0  0  0
  190.6060  176.0370  139.4040 O   0  0  0  0  0  1  0  0  0  0  0  0
  1  2  1  0  0  0  0
  2  6  2  0  0  0  0
  2 17  1  0  0  0  0
  3  9  1  0  0  0  0
  3 13  2  0  0  0  0
  4  1  1  0  0  0  0
  5 12  1  0  0  0  0
  6  3  1  0  0  0  0
  7 11  1  0  0  0  0
  8 17  1  0  0  0  0
 10 14  2  0  0  0  0
 10  7  2  0  0  0  0
 11  1  2  0  0  0  0
 11 16  1  0  0  0  0
 12  4  2  0  0  0  0
 14  4  1  0  0  0  0
 15  5  2  0  0  0  0
 15 14  1  0  0  0  0
 16  8  2  0  0  0  0
 17 18  2  0  0  0  0
 18 13  1  0  0  0  0
 19 20  2  0  0  0  0
 20 21  1  0  0  0  0
 21  7  1  0  0  0  0
 22 29  1  0  0  0  0
 23 28  2  0  0  0  0
 25 22  1  0  0  0  0
 26 23  1  0  0  0  0
 26 22  2  0  0  0  0
 27 24  1  0  0  0  0
 28 20  1  0  0  0  0
 28 27  1  0  0  0  0
 29 27  2  0  0  0  0
 30  5  1  0  0  0  0
 31 30  1  0  0  0  0
M  END
>  <MODEL>
2

>  <REMARK>
 VINA RESULT:     -10.0      3.601      6.075
  Name = 
  3 active torsions:
  status: ('A' for Active; 'I' for Inactive)
    1  A    between atoms: C_2  and  CA_13
    2  A    between atoms: C_9  and  C_22
    3  A    between atoms: C_15  and  N_23
                            x       y       z     vdW  Elec       q    Type
                         _______ _______ _______ _____ _____    ______ ____

>  <TORSDO>
F 3

$$$$
=
 OpenBabel10262419323D

 31 35  0  0  0  0  0  0  0  0999 V2000
  187.3220  178.1840  143.2930 C   0  0  0  0  0  0  0  0  0  0  0  0
  186.0490  178.4190  143.8580 C   0  0  0  0  0  0  0  0  0  0  0  0
  184.4920  178.3960  145.7260 C   0  0  0  0  0  0  0  0  0  0  0  0
  188.4860  177.6920  144.0450 C   0  0  0  0  0  0  0  0  0  0  0  0
  190.0820  177.0640  145.4590 C   0  0  0  0  0  0  0  0  0  0  0  0
  185.7650  178.1480  145.2050 C   0  0  0  0  0  3  0  0  0  0  0  0
  188.8790  178.2010  141.2420 C   0  0  0  0  0  0  0  0  0  0  0  0
  185.2770  179.2200  141.7270 N   0  0  0  0  0  0  0  0  0  0  0  0
  184.2300  178.1320  147.0280 F   0  0  0  0  0  0  0  0  0  0  0  0
  189.9710  177.8330  142.1640 N   0  0  0  0  0  4  0  0  0  0  0  0
  187.5420  178.4730  141.9270 C   0  0  0  0  0  0  0  0  0  0  0  0
  188.6470  177.3960  145.3270 C   0  0  0  0  0  3  0  0  0  0  0  0
  183.4900  178.9180  144.9040 C   0  0  0  0  0  3  0  0  0  0  0  0
  189.7620  177.5720  143.4160 C   0  0  0  0  0  0  0  0  0  0  0  0
  190.7490  177.1850  144.3510 N   0  0  0  0  0  0  0  0  0  0  0  0
  186.4930  178.9960  141.1670 C   0  0  0  0  0  3  0  0  0  0  0  0
  185.0270  178.9470  143.0340 C   0  0  0  0  0  0  0  0  0  0  0  0
  183.7570  179.1930  143.5610 C   0  0  0  0  0  3  0  0  0  0  0  0
  189.3300  178.4910  138.4490 O   0  0  0  0  0  0  0  0  0  0  0  0
  188.9680  177.3520  138.8540 C   0  0  0  0  0  0  0  0  0  0  0  0
  188.7110  177.1500  140.2470 N   0  0  0  0  0  2  0  0  0  0  0  0
  188.5960  174.0630  136.1480 C   0  0  0  0  0  0  0  0  0  0  0  0
  189.8810  175.3500  137.7170 C   0  0  0  0  0  3  0  0  0  0  0  0
  186.3990  176.8320  137.2990 C   0  0  0  0  0  1  0  0  0  0  0  0
  188.4740  172.9190  135.2090 C   0  0  0  0  0  1  0  0  0  0  0  0
  189.7860  174.2700  136.8410 C   0  0  0  0  0  3  0  0  0  0  0  0
  187.6100  175.9700  137.1780 C   0  0  0  0  0  0  0  0  0  0  0  0
  188.8010  176.2210  137.9060 C   0  0  0  0  0  0  0  0  0  0  0  0
  187.5480  174.9070  136.3300 N   0  0  0  0  0  0  0  0  0  0  0  0
  190.7340  176.7100  146.7480 C   0  0  0  0  0  2  0  0  0  0  0  0
  192.1190  176.6850  146.5830 O   0  0  0  0  0  1  0  0  0  0  0  0
  1  2  1  0  0  0  0
  1  4  1  0  0  0  0
  2  6  1  0  0  0  0
  3  9  1  0  0  0  0
  4 12  2  0  0  0  0
  5 30  1  0  0  0  0
  6  3  2  0  0  0  0
  7 11  1  0  0  0  0
  7 10  2  0  0  0  0
  8 17  1  0  0  0  0
 10 14  2  0  0  0  0
 11  1  2  0  0  0  0
 12  5  1  0  0  0  0
 13  3  1  0  0  0  0
 14  4  1  0  0  0  0
 14 15  1  0  0  0  0
 15  5  2  0  0  0  0
 16  8  2  0  0  0  0
 16 11  1  0  0  0  0
 17 18  1  0  0  0  0
 17  2  2  0  0  0  0
 18 13  2  0  0  0  0
 19 20  2  0  0  0  0
 20 21  1  0  0  0  0
 21  7  1  0  0  0  0
 22 29  2  0  0  0  0
 22 26  1  0  0  0  0
 23 28  1  0  0  0  0
 25 22  1  0  0  0  0
 26 23  2  0  0  0  0
 27 24  1  0  0  0  0
 27 28  2  0  0  0  0
 28 20  1  0  0  0  0
 29 27  1  0  0  0  0
 31 30  1  0  0  0  0
M  END
>  <MODEL>
3

>  <REMARK>
 VINA RESULT:     -10.0      0.533      1.256
  Name = 
  3 active torsions:
  status: ('A' for Active; 'I' for Inactive)
    1  A    between atoms: C_2  and  CA_13
    2  A    between atoms: C_9  and  C_22
    3  A    between atoms: C_15  and  N_23
                            x       y       z     vdW  Elec       q    Type
                         _______ _______ _______ _____ _____    ______ ____

>  <TORSDO>
F 3

$$$$
=
 OpenBabel10262419323D

 31 35  0  0  0  0  0  0  0  0999 V2000
  187.0770  178.1080  143.5040 C   0  0  0  0  0  0  0  0  0  0  0  0
  187.4220  177.8810  144.8540 C   0  0  0  0  0  0  0  0  0  0  0  0
  188.9610  177.1270  146.5800 C   0  0  0  0  0  0  0  0  0  0  0  0
  187.9720  177.8540  142.3640 C   0  0  0  0  0  0  0  0  0  0  0  0
  189.5770  177.4920  140.8710 C   0  0  0  0  0  0  0  0  0  0  0  0
  188.6580  177.3340  145.2310 C   0  0  0  0  0  3  0  0  0  0  0  0
  185.3580  178.8860  141.7510 C   0  0  0  0  0  0  0  0  0  0  0  0
  185.2840  178.7540  145.5230 N   0  0  0  0  0  0  0  0  0  0  0  0
  190.1580  176.5990  146.9310 F   0  0  0  0  0  0  0  0  0  0  0  0
  186.4200  178.7030  140.7420 N   0  0  0  0  0  4  0  0  0  0  0  0
  185.8130  178.6570  143.1900 C   0  0  0  0  0  0  0  0  0  0  0  0
  189.2220  177.4200  142.3050 C   0  0  0  0  0  3  0  0  0  0  0  0
  188.0310  177.4650  147.5660 C   0  0  0  0  0  3  0  0  0  0  0  0
  187.5770  178.2010  141.0370 C   0  0  0  0  0  0  0  0  0  0  0  0
  188.6300  177.9680  140.1230 N   0  0  0  0  0  0  0  0  0  0  0  0
  184.9340  178.9740  144.2300 C   0  0  0  0  0  3  0  0  0  0  0  0
  186.4870  178.2200  145.8600 C   0  0  0  0  0  0  0  0  0  0  0  0
  186.7960  178.0110  147.2070 C   0  0  0  0  0  3  0  0  0  0  0  0
  183.3340  179.3910  139.8190 O   0  0  0  0  0  0  0  0  0  0  0  0
  183.2610  178.3020  140.4500 C   0  0  0  0  0  0  0  0  0  0  0  0
  184.2430  177.9990  141.4460 N   0  0  0  0  0  2  0  0  0  0  0  0
  180.0530  175.5640  139.7500 C   0  0  0  0  0  0  0  0  0  0  0  0
  180.9790  177.4550  140.9070 C   0  0  0  0  0  3  0  0  0  0  0  0
  183.4780  176.0620  138.3950 C   0  0  0  0  0  1  0  0  0  0  0  0
  178.9340  174.6160  139.5120 C   0  0  0  0  0  1  0  0  0  0  0  0
  179.9180  176.5750  140.6980 C   0  0  0  0  0  3  0  0  0  0  0  0
  182.2600  176.2880  139.2250 C   0  0  0  0  0  0  0  0  0  0  0  0
  182.1690  177.3320  140.1790 C   0  0  0  0  0  0  0  0  0  0  0  0
  181.2070  175.4450  139.0430 N   0  0  0  0  0  0  0  0  0  0  0  0
  190.9190  177.1400  140.3330 C   0  0  0  0  0  2  0  0  0  0  0  0
  191.9030  177.5040  141.2520 O   0  0  0  0  0  1  0  0  0  0  0  0
  1  2  1  0  0  0  0
  2  6  2  0  0  0  0
  2 17  1  0  0  0  0
  3  9  1  0  0  0  0
  3 13  2  0  0  0  0
  4  1  1  0  0  0  0
  5 12  1  0  0  0  0
  6  3  1  0  0  0  0
  7 11  1  0  0  0  0
  8 17  1  0  0  0  0
 10 14  2  0  0  0  0
 10  7  2  0  0  0  0
 11  1  2  0  0  0  0
 11 16  1  0  0  0  0
 12  4  2  0  0  0  0
 14  4  1  0  0  0  0
 15  5  2  0  0  0  0
 15 14  1  0  0  0  0
 16  8  2  0  0  0  0
 17 18  2  0  0  0  0
 18 13  1  0  0  0  0
 19 20  2  0  0  0  0
 20 21  1  0  0  0  0
 21  7  1  0  0  0  0
 22 26  1  0  0  0  0
 24 27  1  0  0  0  0
 25 22  1  0  0  0  0
 26 23  2  0  0  0  0
 27 28  2  0  0  0  0
 28 20  1  0  0  0  0
 28 23  1  0  0  0  0
 29 27  1  0  0  0  0
 29 22  2  0  0  0  0
 30  5  1  0  0  0  0
 30 31  1  0  0  0  0
M  END
>  <MODEL>
4

>  <REMARK>
 VINA RESULT:      -9.7      3.599      5.702
  Name = 
  3 active torsions:
  status: ('A' for Active; 'I' for Inactive)
    1  A    between atoms: C_2  and  CA_13
    2  A    between atoms: C_9  and  C_22
    3  A    between atoms: C_15  and  N_23
                            x       y       z     vdW  Elec       q    Type
                         _______ _______ _______ _____ _____    ______ ____

>  <TORSDO>
F 3

$$$$
=
 OpenBabel10262419323D

 31 35  0  0  0  0  0  0  0  0999 V2000
  188.6700  177.7100  141.8350 C   0  0  0  0  0  0  0  0  0  0  0  0
  187.3020  178.0450  141.9380 C   0  0  0  0  0  0  0  0  0  0  0  0
  185.2380  178.2770  143.2040 C   0  0  0  0  0  0  0  0  0  0  0  0
  189.5050  177.2690  142.9620 C   0  0  0  0  0  0  0  0  0  0  0  0
  190.5320  176.7540  144.8640 C   0  0  0  0  0  0  0  0  0  0  0  0
  186.5920  177.9340  143.1440 C   0  0  0  0  0  3  0  0  0  0  0  0
  190.7900  177.4520  140.3960 C   0  0  0  0  0  0  0  0  0  0  0  0
  187.2910  178.6280  139.6060 N   0  0  0  0  0  0  0  0  0  0  0  0
  184.5640  178.1670  144.3740 F   0  0  0  0  0  0  0  0  0  0  0  0
  191.5110  177.1550  141.6490 N   0  0  0  0  0  4  0  0  0  0  0  0
  189.3260  177.8390  140.5890 C   0  0  0  0  0  0  0  0  0  0  0  0
  189.2360  177.1130  144.2500 C   0  0  0  0  0  3  0  0  0  0  0  0
  184.5800  178.7340  142.0600 C   0  0  0  0  0  3  0  0  0  0  0  0
  190.9030  177.0410  142.7870 C   0  0  0  0  0  0  0  0  0  0  0  0
  191.5190  176.7310  144.0220 N   0  0  0  0  0  0  0  0  0  0  0  0
  188.6040  178.3060  139.4870 C   0  0  0  0  0  3  0  0  0  0  0  0
  186.6260  178.5090  140.7850 C   0  0  0  0  0  0  0  0  0  0  0  0
  185.2730  178.8510  140.8520 C   0  0  0  0  0  3  0  0  0  0  0  0
  192.6920  177.1280  138.3070 O   0  0  0  0  0  0  0  0  0  0  0  0
  191.8670  176.1890  138.4790 C   0  0  0  0  0  0  0  0  0  0  0  0
  190.8760  176.3020  139.5050 N   0  0  0  0  0  2  0  0  0  0  0  0
  191.8650  172.6960  136.0140 C   0  0  0  0  0  0  0  0  0  0  0  0
  190.7140  174.5410  137.0330 C   0  0  0  0  0  3  0  0  0  0  0  0
  194.4050  174.5800  137.9680 C   0  0  0  0  0  1  0  0  0  0  0  0
  191.8570  171.4830  135.1560 C   0  0  0  0  0  1  0  0  0  0  0  0
  190.6860  173.4060  136.2250 C   0  0  0  0  0  3  0  0  0  0  0  0
  193.0810  174.2160  137.3850 C   0  0  0  0  0  0  0  0  0  0  0  0
  191.9070  174.9710  137.6290 C   0  0  0  0  0  0  0  0  0  0  0  0
  193.0220  173.1120  136.5910 N   0  0  0  0  0  0  0  0  0  0  0  0
  190.7220  176.5260  146.3220 C   0  0  0  0  0  2  0  0  0  0  0  0
  192.0560  176.7500  146.6620 O   0  0  0  0  0  1  0  0  0  0  0  0
  1  2  1  0  0  0  0
  1  4  1  0  0  0  0
  2  6  1  0  0  0  0
  3  9  1  0  0  0  0
  4 12  2  0  0  0  0
  5 30  1  0  0  0  0
  6  3  2  0  0  0  0
  7 11  1  0  0  0  0
  7 10  2  0  0  0  0
  8 17  1  0  0  0  0
 10 14  2  0  0  0  0
 11  1  2  0  0  0  0
 12  5  1  0  0  0  0
 13  3  1  0  0  0  0
 14  4  1  0  0  0  0
 14 15  1  0  0  0  0
 15  5  2  0  0  0  0
 16  8  2  0  0  0  0
 16 11  1  0  0  0  0
 17 18  1  0  0  0  0
 17  2  2  0  0  0  0
 18 13  2  0  0  0  0
 19 20  2  0  0  0  0
 20 21  1  0  0  0  0
 21  7  1  0  0  0  0
 22 26  2  0  0  0  0
 22 29  1  0  0  0  0
 23 28  2  0  0  0  0
 25 22  1  0  0  0  0
 26 23  1  0  0  0  0
 27 28  1  0  0  0  0
 27 24  1  0  0  0  0
 28 20  1  0  0  0  0
 29 27  2  0  0  0  0
 30 31  1  0  0  0  0
M  END
>  <MODEL>
5

>  <REMARK>
 VINA RESULT:      -9.0      2.025      2.704
  Name = 
  3 active torsions:
  status: ('A' for Active; 'I' for Inactive)
    1  A    between atoms: C_2  and  CA_13
    2  A    between atoms: C_9  and  C_22
    3  A    between atoms: C_15  and  N_23
                            x       y       z     vdW  Elec       q    Type
                         _______ _______ _______ _____ _____    ______ ____

>  <TORSDO>
F 3

$$$$
=
 OpenBabel10262419323D

 31 35  0  0  0  0  0  0  0  0999 V2000
  186.7860  178.2100  142.6090 C   0  0  0  0  0  0  0  0  0  0  0  0
  185.4040  178.4630  142.7470 C   0  0  0  0  0  0  0  0  0  0  0  0
  183.3560  178.5420  144.0560 C   0  0  0  0  0  0  0  0  0  0  0  0
  187.6660  177.7840  143.7080 C   0  0  0  0  0  0  0  0  0  0  0  0
  188.7580  177.2720  145.5750 C   0  0  0  0  0  0  0  0  0  0  0  0
  184.7250  178.2780  143.9610 C   0  0  0  0  0  3  0  0  0  0  0  0
  188.8890  178.1130  141.1260 C   0  0  0  0  0  0  0  0  0  0  0  0
  185.3150  179.1130  140.4340 N   0  0  0  0  0  0  0  0  0  0  0  0
  182.7120  178.3600  145.2330 F   0  0  0  0  0  0  0  0  0  0  0  0
  189.6500  177.8220  142.3570 N   0  0  0  0  0  4  0  0  0  0  0  0
  187.4100  178.4110  141.3570 C   0  0  0  0  0  0  0  0  0  0  0  0
  187.4310  177.5750  144.9950 C   0  0  0  0  0  3  0  0  0  0  0  0
  182.6510  178.9950  142.9380 C   0  0  0  0  0  3  0  0  0  0  0  0
  189.0720  177.6400  143.5020 C   0  0  0  0  0  0  0  0  0  0  0  0
  189.7280  177.3290  144.7150 N   0  0  0  0  0  0  0  0  0  0  0  0
  186.6420  178.8690  140.2820 C   0  0  0  0  0  3  0  0  0  0  0  0
  184.6820  178.9220  141.6200 C   0  0  0  0  0  0  0  0  0  0  0  0
  183.3130  179.1850  141.7220 C   0  0  0  0  0  3  0  0  0  0  0  0
  189.5880  178.3300  138.3780 O   0  0  0  0  0  0  0  0  0  0  0  0
  189.3920  177.1680  138.8270 C   0  0  0  0  0  0  0  0  0  0  0  0
  189.0220  176.9970  140.1990 N   0  0  0  0  0  2  0  0  0  0  0  0
  189.9140  173.7290  136.3410 C   0  0  0  0  0  0  0  0  0  0  0  0
  190.7840  175.3460  137.8890 C   0  0  0  0  0  3  0  0  0  0  0  0
  187.1080  176.0240  137.1650 C   0  0  0  0  0  1  0  0  0  0  0  0
  190.1030  172.5340  135.4800 C   0  0  0  0  0  1  0  0  0  0  0  0
  190.9810  174.2240  137.0870 C   0  0  0  0  0  3  0  0  0  0  0  0
  188.4780  175.4350  137.1760 C   0  0  0  0  0  0  0  0  0  0  0  0
  189.5340  175.9760  137.9530 C   0  0  0  0  0  0  0  0  0  0  0  0
  188.7020  174.3380  136.4030 N   0  0  0  0  0  0  0  0  0  0  0  0
  188.9880  177.0130  147.0220 C   0  0  0  0  0  2  0  0  0  0  0  0
  190.2900  176.5510  147.2150 O   0  0  0  0  0  1  0  0  0  0  0  0
  1  2  1  0  0  0  0
  1  4  1  0  0  0  0
  2  6  1  0  0  0  0
  3  9  1  0  0  0  0
  4 12  2  0  0  0  0
  5 30  1  0  0  0  0
  6  3  2  0  0  0  0
  7 11  1  0  0  0  0
  7 10  2  0  0  0  0
  8 17  1  0  0  0  0
 10 14  2  0  0  0  0
 11  1  2  0  0  0  0
 12  5  1  0  0  0  0
 13  3  1  0  0  0  0
 14  4  1  0  0  0  0
 14 15  1  0  0  0  0
 15  5  2  0  0  0  0
 16  8  2  0  0  0  0
 16 11  1  0  0  0  0
 17 18  1  0  0  0  0
 17  2  2  0  0  0  0
 18 13  2  0  0  0  0
 19 20  2  0  0  0  0
 20 21  1  0  0  0  0
 21  7  1  0  0  0  0
 22 29  2  0  0  0  0
 22 26  1  0  0  0  0
 23 28  1  0  0  0  0
 24 27  1  0  0  0  0
 25 22  1  0  0  0  0
 26 23  2  0  0  0  0
 27 28  2  0  0  0  0
 28 20  1  0  0  0  0
 29 27  1  0  0  0  0
 30 31  1  0  0  0  0
M  END
>  <MODEL>
6

>  <REMARK>
 VINA RESULT:      -8.8      1.177      1.753
  Name = 
  3 active torsions:
  status: ('A' for Active; 'I' for Inactive)
    1  A    between atoms: C_2  and  CA_13
    2  A    between atoms: C_9  and  C_22
    3  A    between atoms: C_15  and  N_23
                            x       y       z     vdW  Elec       q    Type
                         _______ _______ _______ _____ _____    ______ ____

>  <TORSDO>
F 3

$$$$
=
 OpenBabel10262419323D

 31 35  0  0  0  0  0  0  0  0999 V2000
  191.0600  175.5840  137.9910 C   0  0  0  0  0  0  0  0  0  0  0  0
  192.2310  174.9070  137.5870 C   0  0  0  0  0  0  0  0  0  0  0  0
  193.3760  173.1320  136.3810 C   0  0  0  0  0  0  0  0  0  0  0  0
  189.7000  175.2250  137.5600 C   0  0  0  0  0  0  0  0  0  0  0  0
  187.8000  174.5250  136.6440 C   0  0  0  0  0  0  0  0  0  0  0  0
  192.1940  173.7740  136.7590 C   0  0  0  0  0  3  0  0  0  0  0  0
  189.9390  177.4690  139.3420 C   0  0  0  0  0  0  0  0  0  0  0  0
  193.5480  176.4860  138.8310 N   0  0  0  0  0  0  0  0  0  0  0  0
  193.3270  172.0400  135.5810 F   0  0  0  0  0  0  0  0  0  0  0  0
  188.6690  177.0600  138.7120 N   0  0  0  0  0  4  0  0  0  0  0  0
  191.1650  176.7170  138.8310 C   0  0  0  0  0  0  0  0  0  0  0  0
  189.2560  174.2860  136.7370 C   0  0  0  0  0  3  0  0  0  0  0  0
  194.6080  173.6170  136.8250 C   0  0  0  0  0  3  0  0  0  0  0  0
  188.5800  176.0220  137.9420 C   0  0  0  0  0  0  0  0  0  0  0  0
  187.3960  175.5520  137.3280 N   0  0  0  0  0  0  0  0  0  0  0  0
  192.4330  177.1470  139.2340 C   0  0  0  0  0  3  0  0  0  0  0  0
  193.4840  175.3900  138.0320 C   0  0  0  0  0  0  0  0  0  0  0  0
  194.6620  174.7440  137.6490 C   0  0  0  0  0  3  0  0  0  0  0  0
  188.2660  179.0030  141.0550 O   0  0  0  0  0  0  0  0  0  0  0  0
  188.9630  178.1020  141.5960 C   0  0  0  0  0  0  0  0  0  0  0  0
  189.8370  177.3080  140.7870 N   0  0  0  0  0  2  0  0  0  0  0  0
  188.6570  177.3560  145.7950 C   0  0  0  0  0  0  0  0  0  0  0  0
  187.7090  177.3320  143.5890 C   0  0  0  0  0  3  0  0  0  0  0  0
  191.2690  178.6790  143.5040 C   0  0  0  0  0  1  0  0  0  0  0  0
  188.5440  177.0950  147.2530 C   0  0  0  0  0  1  0  0  0  0  0  0
  187.5830  177.0800  144.9530 C   0  0  0  0  0  3  0  0  0  0  0  0
  189.9620  178.1210  143.9550 C   0  0  0  0  0  0  0  0  0  0  0  0
  188.8950  177.8560  143.0590 C   0  0  0  0  0  0  0  0  0  0  0  0
  189.8090  177.8640  145.2830 N   0  0  0  0  0  0  0  0  0  0  0  0
  186.8840  173.7290  135.7840 C   0  0  0  0  0  2  0  0  0  0  0  0
  186.8120  172.4200  136.2600 O   0  0  0  0  0  1  0  0  0  0  0  0
  1 11  1  0  0  0  0
  2  1  2  0  0  0  0
  2 17  1  0  0  0  0
  3  6  2  0  0  0  0
  3 13  1  0  0  0  0
  4 14  1  0  0  0  0
  4  1  1  0  0  0  0
  5 12  1  0  0  0  0
  5 15  2  0  0  0  0
  6  2  1  0  0  0  0
  7 21  1  0  0  0  0
  8 16  1  0  0  0  0
  9  3  1  0  0  0  0
 10  7  2  0  0  0  0
 11 16  2  0  0  0  0
 11  7  1  0  0  0  0
 12  4  2  0  0  0  0
 13 18  2  0  0  0  0
 14 10  2  0  0  0  0
 15 14  1  0  0  0  0
 17  8  2  0  0  0  0
 18 17  1  0  0  0  0
 19 20  2  0  0  0  0
 20 28  1  0  0  0  0
 21 20  1  0  0  0  0
 22 25  1  0  0  0  0
 23 26  1  0  0  0  0
 24 27  1  0  0  0  0
 26 22  2  0  0  0  0
 27 29  2  0  0  0  0
 28 23  2  0  0  0  0
 28 27  1  0  0  0  0
 29 22  1  0  0  0  0
 30 31  1  0  0  0  0
 30  5  1  0  0  0  0
M  END
>  <MODEL>
7

>  <REMARK>
 VINA RESULT:      -8.2      3.779      9.178
  Name = 
  3 active torsions:
  status: ('A' for Active; 'I' for Inactive)
    1  A    between atoms: C_2  and  CA_13
    2  A    between atoms: C_9  and  C_22
    3  A    between atoms: C_15  and  N_23
                            x       y       z     vdW  Elec       q    Type
                         _______ _______ _______ _____ _____    ______ ____

>  <TORSDO>
F 3

$$$$
=
 OpenBabel10262419323D

 31 35  0  0  0  0  0  0  0  0999 V2000
  191.1690  175.6180  138.0290 C   0  0  0  0  0  0  0  0  0  0  0  0
  192.3320  174.9490  137.5890 C   0  0  0  0  0  0  0  0  0  0  0  0
  193.4550  173.2110  136.3110 C   0  0  0  0  0  0  0  0  0  0  0  0
  189.8030  175.2780  137.6020 C   0  0  0  0  0  0  0  0  0  0  0  0
  187.8890  174.6180  136.6860 C   0  0  0  0  0  0  0  0  0  0  0  0
  192.2800  173.8440  136.7240 C   0  0  0  0  0  3  0  0  0  0  0  0
  190.0730  177.4610  139.4550 C   0  0  0  0  0  0  0  0  0  0  0  0
  193.6710  176.4810  138.8690 N   0  0  0  0  0  0  0  0  0  0  0  0
  193.3920  172.1460  135.4760 F   0  0  0  0  0  0  0  0  0  0  0  0
  188.7930  177.0790  138.8270 N   0  0  0  0  0  4  0  0  0  0  0  0
  191.2900  176.7210  138.9050 C   0  0  0  0  0  0  0  0  0  0  0  0
  189.3450  174.3690  136.7540 C   0  0  0  0  0  3  0  0  0  0  0  0
  194.6950  173.6750  136.7560 C   0  0  0  0  0  3  0  0  0  0  0  0
  188.6910  176.0680  138.0230 C   0  0  0  0  0  0  0  0  0  0  0  0
  187.4980  175.6230  137.4080 N   0  0  0  0  0  0  0  0  0  0  0  0
  192.5630  177.1320  139.3060 C   0  0  0  0  0  3  0  0  0  0  0  0
  193.5920  175.4120  138.0350 C   0  0  0  0  0  0  0  0  0  0  0  0
  194.7640  174.7740  137.6160 C   0  0  0  0  0  3  0  0  0  0  0  0
  188.4730  178.9840  141.2460 O   0  0  0  0  0  0  0  0  0  0  0  0
  189.1500  178.0430  141.7440 C   0  0  0  0  0  0  0  0  0  0  0  0
  189.9860  177.2520  140.8940 N   0  0  0  0  0  2  0  0  0  0  0  0
  189.1110  177.2020  145.9360 C   0  0  0  0  0  0  0  0  0  0  0  0
  190.3030  177.6870  143.9080 C   0  0  0  0  0  3  0  0  0  0  0  0
  186.5520  177.5650  143.2640 C   0  0  0  0  0  1  0  0  0  0  0  0
  189.1050  176.9100  147.3920 C   0  0  0  0  0  1  0  0  0  0  0  0
  190.3180  177.4150  145.2740 C   0  0  0  0  0  3  0  0  0  0  0  0
  187.8930  177.5250  143.9150 C   0  0  0  0  0  0  0  0  0  0  0  0
  189.0960  177.7490  143.1990 C   0  0  0  0  0  0  0  0  0  0  0  0
  187.9400  177.2620  145.2500 N   0  0  0  0  0  0  0  0  0  0  0  0
  186.9600  173.8540  135.8100 C   0  0  0  0  0  2  0  0  0  0  0  0
  187.2850  172.4990  135.8490 O   0  0  0  0  0  1  0  0  0  0  0  0
  1 11  1  0  0  0  0
  2  1  2  0  0  0  0
  2 17  1  0  0  0  0
  3  6  2  0  0  0  0
  3 13  1  0  0  0  0
  4 14  1  0  0  0  0
  4  1  1  0  0  0  0
  5 12  1  0  0  0  0
  5 15  2  0  0  0  0
  6  2  1  0  0  0  0
  7 21  1  0  0  0  0
  8 16  1  0  0  0  0
  9  3  1  0  0  0  0
 10  7  2  0  0  0  0
 11 16  2  0  0  0  0
 11  7  1  0  0  0  0
 12  4  2  0  0  0  0
 13 18  2  0  0  0  0
 14 10  2  0  0  0  0
 15 14  1  0  0  0  0
 17  8  2  0  0  0  0
 18 17  1  0  0  0  0
 19 20  2  0  0  0  0
 20 28  1  0  0  0  0
 21 20  1  0  0  0  0
 22 25  1  0  0  0  0
 23 26  2  0  0  0  0
 24 27  1  0  0  0  0
 26 22  1  0  0  0  0
 27 29  1  0  0  0  0
 28 23  1  0  0  0  0
 28 27  2  0  0  0  0
 29 22  2  0  0  0  0
 30 31  1  0  0  0  0
 30  5  1  0  0  0  0
M  END
>  <MODEL>
8

>  <REMARK>
 VINA RESULT:      -7.9      3.726      9.283
  Name = 
  3 active torsions:
  status: ('A' for Active; 'I' for Inactive)
    1  A    between atoms: C_2  and  CA_13
    2  A    between atoms: C_9  and  C_22
    3  A    between atoms: C_15  and  N_23
                            x       y       z     vdW  Elec       q    Type
                         _______ _______ _______ _____ _____    ______ ____

>  <TORSDO>
F 3

$$$$
=
 OpenBabel10262419323D

 31 35  0  0  0  0  0  0  0  0999 V2000
  189.0410  176.0900  137.9490 C   0  0  0  0  0  0  0  0  0  0  0  0
  189.2690  174.9480  137.1510 C   0  0  0  0  0  0  0  0  0  0  0  0
  188.5190  173.2150  135.6180 C   0  0  0  0  0  0  0  0  0  0  0  0
  187.7550  176.7970  138.0390 C   0  0  0  0  0  0  0  0  0  0  0  0
  185.7390  177.7180  137.8740 C   0  0  0  0  0  0  0  0  0  0  0  0
  188.2510  174.3450  136.3960 C   0  0  0  0  0  3  0  0  0  0  0  0
  189.9220  177.8530  139.6080 C   0  0  0  0  0  0  0  0  0  0  0  0
  191.5750  174.9620  137.8300 N   0  0  0  0  0  0  0  0  0  0  0  0
  187.5280  172.6430  134.8940 F   0  0  0  0  0  0  0  0  0  0  0  0
  188.6100  178.5160  139.4800 N   0  0  0  0  0  4  0  0  0  0  0  0
  190.1090  176.6470  138.6900 C   0  0  0  0  0  0  0  0  0  0  0  0
  186.5930  176.5940  137.4350 C   0  0  0  0  0  3  0  0  0  0  0  0
  189.8070  172.6770  135.5850 C   0  0  0  0  0  3  0  0  0  0  0  0
  187.6360  178.0010  138.7980 C   0  0  0  0  0  0  0  0  0  0  0  0
  186.3460  178.5600  138.6540 N   0  0  0  0  0  0  0  0  0  0  0  0
  191.3730  176.0570  138.6060 C   0  0  0  0  0  3  0  0  0  0  0  0
  190.5710  174.3950  137.1110 C   0  0  0  0  0  0  0  0  0  0  0  0
  190.8320  173.2660  136.3300 C   0  0  0  0  0  3  0  0  0  0  0  0
  192.4030  177.9300  140.9950 O   0  0  0  0  0  0  0  0  0  0  0  0
  191.4000  177.5230  141.6420 C   0  0  0  0  0  0  0  0  0  0  0  0
  190.1270  177.4470  140.9920 N   0  0  0  0  0  2  0  0  0  0  0  0
  191.7610  176.2420  145.7050 C   0  0  0  0  0  0  0  0  0  0  0  0
  191.7090  175.7590  143.3530 C   0  0  0  0  0  3  0  0  0  0  0  0
  191.2580  179.4900  143.9660 C   0  0  0  0  0  1  0  0  0  0  0  0
  191.8870  175.7910  147.1140 C   0  0  0  0  0  1  0  0  0  0  0  0
  191.8300  175.3150  144.6680 C   0  0  0  0  0  3  0  0  0  0  0  0
  191.4570  178.0230  144.1530 C   0  0  0  0  0  0  0  0  0  0  0  0
  191.5210  177.1170  143.0650 C   0  0  0  0  0  0  0  0  0  0  0  0
  191.5790  177.5600  145.4270 N   0  0  0  0  0  0  0  0  0  0  0  0
  184.3430  177.9290  137.4050 C   0  0  0  0  0  2  0  0  0  0  0  0
  183.5460  176.8580  137.8100 O   0  0  0  0  0  1  0  0  0  0  0  0
  1  4  1  0  0  0  0
  1 11  1  0  0  0  0
  2  1  2  0  0  0  0
  3  6  2  0  0  0  0
  4 14  1  0  0  0  0
  5 15  2  0  0  0  0
  6  2  1  0  0  0  0
  7 21  1  0  0  0  0
  8 16  1  0  0  0  0
  9  3  1  0  0  0  0
 10  7  2  0  0  0  0
 11  7  1  0  0  0  0
 12  5  1  0  0  0  0
 12  4  2  0  0  0  0
 13  3  1  0  0  0  0
 13 18  2  0  0  0  0
 14 10  2  0  0  0  0
 15 14  1  0  0  0  0
 16 11  2  0  0  0  0
 17  2  1  0  0  0  0
 17  8  2  0  0  0  0
 18 17  1  0  0  0  0
 19 20  2  0  0  0  0
 20 28  1  0  0  0  0
 21 20  1  0  0  0  0
 22 25  1  0  0  0  0
 23 26  1  0  0  0  0
 24 27  1  0  0  0  0
 26 22  2  0  0  0  0
 27 29  2  0  0  0  0
 28 23  2  0  0  0  0
 28 27  1  0  0  0  0
 29 22  1  0  0  0  0
 30 31  1  0  0  0  0
 30  5  1  0  0  0  0
M  END
>  <MODEL>
9

>  <REMARK>
 VINA RESULT:      -7.9      4.272      8.593
  Name = 
  3 active torsions:
  status: ('A' for Active; 'I' for Inactive)
    1  A    between atoms: C_2  and  CA_13
    2  A    between atoms: C_9  and  C_22
    3  A    between atoms: C_15  and  N_23
                            x       y       z     vdW  Elec       q    Type
                         _______ _______ _______ _____ _____    ______ ____

>  <TORSDO>
F 3

$$$$
