=
 OpenBabel10262421053D

 32 34  0  0  1  0  0  0  0  0999 V2000
  180.7910  181.9990  137.0390 C   0  0  1  0  0  3  0  0  0  0  0  0
  181.3850  181.3220  138.2820 C   0  0  0  0  0  2  0  0  0  0  0  0
  180.2220  179.6480  136.3020 N   0  0  0  0  0  0  0  0  0  0  0  0
  178.9420  177.2770  139.8930 O   0  0  0  0  0  0  0  0  0  0  0  0
  180.3410  180.7450  139.2330 C   0  0  0  0  0  2  0  0  0  0  0  0
  181.2910  176.9000  139.4700 C   0  0  0  0  0  2  0  0  0  0  0  0
  181.5840  178.4210  139.3510 C   0  0  1  0  0  0  0  0  0  0  0  0
  181.5630  179.1390  136.0250 C   0  0  0  0  0  2  0  0  0  0  0  0
  181.6140  178.7510  141.9790 C   0  0  2  0  0  3  0  0  0  0  0  0
  181.9270  178.0790  137.0550 C   0  0  0  0  0  2  0  0  0  0  0  0
  180.1050  181.0860  136.0100 C   0  0  2  0  0  3  0  0  0  0  0  0
  182.5020  178.9930  143.0330 O   0  0  0  0  0  1  0  0  0  0  0  0
  182.3430  178.9110  140.6230 C   0  0  1  0  0  3  0  0  0  0  0  0
  182.4310  178.6770  138.2320 O   0  0  0  0  0  0  0  0  0  0  0  0
  179.1340  179.0650  141.5650 C   0  0  0  0  0  2  0  0  0  0  0  0
  179.2780  178.9170  135.4700 C   0  0  0  0  0  1  0  0  0  0  0  0
  180.4220  179.7120  142.0690 C   0  0  1  0  0  3  0  0  0  0  0  0
  180.2510  179.2100  139.1770 C   0  0  1  0  0  3  0  0  0  0  0  0
  180.5430  181.4600  134.5940 C   0  0  0  0  0  1  0  0  0  0  0  0
  180.0880  176.6090  140.3640 C   0  0  0  0  0  2  0  0  0  0  0  0
  179.1240  178.6660  140.0750 C   0  0  1  0  0  3  0  0  0  0  0  0
  183.7920  178.4750  140.6510 C   0  0  0  0  0  3  0  0  0  0  0  0
  184.5720  180.2480  139.2810 O   0  0  0  0  0  1  0  0  0  0  0  0
  184.8010  179.1070  140.0430 C   0  0  0  0  0  0  0  0  0  0  0  0
  186.6710  178.3310  141.2870 O   0  0  0  0  0  1  0  0  0  0  0  0
  186.9360  178.3960  139.0150 O   0  0  0  0  0  0  0  0  0  0  0  0
  186.1730  178.5930  140.1600 C   0  0  0  0  0  0  0  0  0  0  0  0
  179.8850  183.1710  137.3970 C   0  0  0  0  0  2  0  0  0  0  0  0
  180.4020  184.4530  136.7720 C   0  0  0  0  0  1  0  0  0  0  0  0
  180.2180  180.1430  143.3860 O   0  0  0  0  0  0  0  0  0  0  0  0
  178.9440  179.9110  143.6260 O   0  0  0  0  0  0  0  0  0  0  0  0
  178.9310  179.1800  144.8170 C   0  0  0  0  0  1  0  0  0  0  0  0
  1 28  1  1  0  0  0
  1  2  1  0  0  0  0
  2  5  1  0  0  0  0
  4 21  1  0  0  0  0
  4 20  1  0  0  0  0
  6 20  1  0  0  0  0
  7  6  1  1  0  0  0
  7 13  1  0  0  0  0
  8  3  1  0  0  0  0
  8 10  1  0  0  0  0
  9 17  1  0  0  0  0
  9 12  1  1  0  0  0
 10 14  1  0  0  0  0
 11 19  1  6  0  0  0
 11  3  1  0  0  0  0
 11  1  1  0  0  0  0
 13 22  1  1  0  0  0
 13  9  1  0  0  0  0
 14  7  1  0  0  0  0
 15 17  1  0  0  0  0
 16  3  1  0  0  0  0
 17 30  1  1  0  0  0
 18  5  1  1  0  0  0
 18  7  1  0  0  0  0
 18 21  1  0  0  0  0
 21 15  1  1  0  0  0
 23 24  1  0  0  0  0
 24 27  1  0  0  0  0
 24 22  2  0  0  0  0
 26 27  2  0  0  0  0
 27 25  1  0  0  0  0
 29 28  1  0  0  0  0
 30 31  1  0  0  0  0
 31 32  1  0  0  0  0
M  END
>  <MODEL>
1

>  <REMARK>
 VINA RESULT:      -5.9      0.000      0.000
  Name = 
  5 active torsions:
  status: ('A' for Active; 'I' for Inactive)
    1  A    between atoms: O_1  and  O_4
    2  A    between atoms: O_1  and  C_27
    3  A    between atoms: C_2  and  C_14
    4  A    between atoms: C_3  and  C_22
    5  A    between atoms: C_19  and  C_26
                            x       y       z     vdW  Elec       q    Type
                         _______ _______ _______ _____ _____    ______ ____

>  <TORSDO>
F 5

$$$$
=
 OpenBabel10262421053D

 32 34  0  0  1  0  0  0  0  0999 V2000
  185.0910  176.9990  137.6980 C   0  0  1  0  0  3  0  0  0  0  0  0
  184.0180  177.8570  138.3820 C   0  0  0  0  0  2  0  0  0  0  0  0
  183.1390  175.6300  136.8520 N   0  0  0  0  0  0  0  0  0  0  0  0
  179.7620  178.4050  135.8320 O   0  0  0  0  0  0  0  0  0  0  0  0
  183.1980  178.7090  137.4180 C   0  0  0  0  0  2  0  0  0  0  0  0
  179.4600  177.5530  138.0730 C   0  0  0  0  0  2  0  0  0  0  0  0
  180.9220  177.8910  138.4730 C   0  0  1  0  0  0  0  0  0  0  0  0
  182.7020  175.0150  138.1030 C   0  0  0  0  0  2  0  0  0  0  0  0
  180.3610  180.4520  138.8510 C   0  0  2  0  0  3  0  0  0  0  0  0
  181.3480  175.5840  138.5030 C   0  0  0  0  0  2  0  0  0  0  0  0
  184.5960  175.8380  136.8180 C   0  0  2  0  0  3  0  0  0  0  0  0
  180.2070  181.3910  139.8780 O   0  0  0  0  0  1  0  0  0  0  0  0
  180.9350  179.1320  139.4190 C   0  0  1  0  0  3  0  0  0  0  0  0
  181.5030  176.8060  139.1940 O   0  0  0  0  0  0  0  0  0  0  0  0
  180.8860  180.5210  136.3730 C   0  0  0  0  0  2  0  0  0  0  0  0
  182.7600  174.7500  135.7560 C   0  0  0  0  0  1  0  0  0  0  0  0
  181.2810  181.0170  137.7620 C   0  0  1  0  0  3  0  0  0  0  0  0
  181.7720  178.1740  137.1970 C   0  0  1  0  0  3  0  0  0  0  0  0
  185.4020  174.5720  137.1080 C   0  0  0  0  0  1  0  0  0  0  0  0
  178.9340  178.4660  136.9690 C   0  0  0  0  0  2  0  0  0  0  0  0
  181.0040  178.9980  136.1480 C   0  0  1  0  0  3  0  0  0  0  0  0
  180.4600  178.8100  140.8200 C   0  0  0  0  0  3  0  0  0  0  0  0
  182.6240  178.8690  141.7930 O   0  0  0  0  0  1  0  0  0  0  0  0
  181.2460  178.7080  141.8970 C   0  0  0  0  0  0  0  0  0  0  0  0
  181.3220  178.5960  144.2700 O   0  0  0  0  0  1  0  0  0  0  0  0
  179.3680  177.9100  143.2950 O   0  0  0  0  0  0  0  0  0  0  0  0
  180.6620  178.4080  143.2120 C   0  0  0  0  0  0  0  0  0  0  0  0
  186.1100  177.8410  136.9410 C   0  0  0  0  0  2  0  0  0  0  0  0
  187.3680  178.0250  137.7690 C   0  0  0  0  0  1  0  0  0  0  0  0
  181.2590  182.4180  137.7570 O   0  0  0  0  0  0  0  0  0  0  0  0
  180.8860  182.7480  136.5370 O   0  0  0  0  0  0  0  0  0  0  0  0
  181.0340  184.1350  136.4790 C   0  0  0  0  0  1  0  0  0  0  0  0
  1 28  1  6  0  0  0
  1  2  1  0  0  0  0
  3  8  1  0  0  0  0
  4 21  1  0  0  0  0
  4 20  1  0  0  0  0
  5  2  1  0  0  0  0
  7  6  1  6  0  0  0
  7 14  1  0  0  0  0
  7 13  1  0  0  0  0
  8 10  1  0  0  0  0
  9 13  1  0  0  0  0
  9 12  1  1  0  0  0
 10 14  1  0  0  0  0
 11  3  1  0  0  0  0
 11 19  1  1  0  0  0
 11  1  1  0  0  0  0
 13 22  1  1  0  0  0
 15 17  1  0  0  0  0
 16  3  1  0  0  0  0
 17 30  1  6  0  0  0
 17  9  1  0  0  0  0
 18  5  1  1  0  0  0
 18  7  1  0  0  0  0
 20  6  1  0  0  0  0
 21 15  1  1  0  0  0
 21 18  1  0  0  0  0
 22 24  2  0  0  0  0
 23 24  1  0  0  0  0
 24 27  1  0  0  0  0
 27 26  2  0  0  0  0
 27 25  1  0  0  0  0
 28 29  1  0  0  0  0
 31 30  1  0  0  0  0
 32 31  1  0  0  0  0
M  END
>  <MODEL>
2

>  <REMARK>
 VINA RESULT:      -5.3      2.596      5.604
  Name = 
  5 active torsions:
  status: ('A' for Active; 'I' for Inactive)
    1  A    between atoms: O_1  and  O_4
    2  A    between atoms: O_1  and  C_27
    3  A    between atoms: C_2  and  C_14
    4  A    between atoms: C_3  and  C_22
    5  A    between atoms: C_19  and  C_26
                            x       y       z     vdW  Elec       q    Type
                         _______ _______ _______ _____ _____    ______ ____

>  <TORSDO>
F 5

$$$$
=
 OpenBabel10262421053D

 32 34  0  0  1  0  0  0  0  0999 V2000
  182.4620  174.4990  137.5730 C   0  0  1  0  0  3  0  0  0  0  0  0
  182.5680  175.4200  138.7960 C   0  0  0  0  0  2  0  0  0  0  0  0
  180.6880  176.1220  136.7840 N   0  0  0  0  0  0  0  0  0  0  0  0
  181.9530  180.2880  137.8740 O   0  0  0  0  0  0  0  0  0  0  0  0
  183.2250  176.7660  138.5030 C   0  0  0  0  0  2  0  0  0  0  0  0
  180.4770  179.4180  139.5780 C   0  0  0  0  0  2  0  0  0  0  0  0
  181.2750  178.0900  139.6880 C   0  0  1  0  0  0  0  0  0  0  0  0
  179.6320  175.8290  137.7480 C   0  0  0  0  0  2  0  0  0  0  0  0
  183.1540  179.1930  141.1950 C   0  0  2  0  0  3  0  0  0  0  0  0
  179.4470  177.0200  138.6780 C   0  0  0  0  0  2  0  0  0  0  0  0
  181.4890  174.9290  136.4610 C   0  0  2  0  0  3  0  0  0  0  0  0
  183.6210  179.2040  142.5140 O   0  0  0  0  0  1  0  0  0  0  0  0
  182.0960  178.0780  141.0150 C   0  0  1  0  0  3  0  0  0  0  0  0
  180.3820  176.9780  139.7360 O   0  0  0  0  0  0  0  0  0  0  0  0
  184.1090  179.7290  138.9090 C   0  0  0  0  0  2  0  0  0  0  0  0
  180.0660  176.6180  135.5650 C   0  0  0  0  0  1  0  0  0  0  0  0
  184.3260  178.9880  140.2270 C   0  0  1  0  0  3  0  0  0  0  0  0
  182.2240  177.9340  138.4620 C   0  0  1  0  0  3  0  0  0  0  0  0
  180.6520  173.7360  135.9990 C   0  0  0  0  0  1  0  0  0  0  0  0
  181.3490  180.5810  139.1120 C   0  0  0  0  0  2  0  0  0  0  0  0
  182.9010  179.2600  138.0700 C   0  0  1  0  0  3  0  0  0  0  0  0
  181.2360  177.8450  142.2390 C   0  0  0  0  0  3  0  0  0  0  0  0
  180.5830  180.1140  142.4720 O   0  0  0  0  0  1  0  0  0  0  0  0
  180.5400  178.7870  142.8840 C   0  0  0  0  0  0  0  0  0  0  0  0
  179.6840  177.2460  144.4790 O   0  0  0  0  0  0  0  0  0  0  0  0
  178.9840  179.4130  144.7020 O   0  0  0  0  0  1  0  0  0  0  0  0
  179.7240  178.4320  144.0540 C   0  0  0  0  0  0  0  0  0  0  0  0
  183.8250  174.1600  136.9830 C   0  0  0  0  0  2  0  0  0  0  0  0
  184.3610  172.8760  137.5870 C   0  0  0  0  0  1  0  0  0  0  0  0
  185.5300  179.4270  140.7910 O   0  0  0  0  0  0  0  0  0  0  0  0
  186.4540  178.6430  140.2720 O   0  0  0  0  0  0  0  0  0  0  0  0
  187.4810  178.6240  141.2180 C   0  0  0  0  0  1  0  0  0  0  0  0
  1 28  1  6  0  0  0
  1  2  1  0  0  0  0
  3  8  1  0  0  0  0
  4 21  1  0  0  0  0
  4 20  1  0  0  0  0
  5  2  1  0  0  0  0
  7  6  1  6  0  0  0
  7 14  1  0  0  0  0
  7 13  1  0  0  0  0
  8 10  1  0  0  0  0
  9 12  1  1  0  0  0
 10 14  1  0  0  0  0
 11 19  1  1  0  0  0
 11  3  1  0  0  0  0
 11  1  1  0  0  0  0
 13  9  1  0  0  0  0
 13 22  1  1  0  0  0
 15 17  1  0  0  0  0
 16  3  1  0  0  0  0
 17 30  1  1  0  0  0
 17  9  1  0  0  0  0
 18  5  1  1  0  0  0
 18  7  1  0  0  0  0
 20  6  1  0  0  0  0
 21 18  1  0  0  0  0
 21 15  1  1  0  0  0
 22 24  2  0  0  0  0
 23 24  1  0  0  0  0
 24 27  1  0  0  0  0
 27 25  2  0  0  0  0
 27 26  1  0  0  0  0
 28 29  1  0  0  0  0
 31 30  1  0  0  0  0
 31 32  1  0  0  0  0
M  END
>  <MODEL>
3

>  <REMARK>
 VINA RESULT:      -5.0      2.294      5.921
  Name = 
  5 active torsions:
  status: ('A' for Active; 'I' for Inactive)
    1  A    between atoms: O_1  and  O_4
    2  A    between atoms: O_1  and  C_27
    3  A    between atoms: C_2  and  C_14
    4  A    between atoms: C_3  and  C_22
    5  A    between atoms: C_19  and  C_26
                            x       y       z     vdW  Elec       q    Type
                         _______ _______ _______ _____ _____    ______ ____

>  <TORSDO>
F 5

$$$$
=
 OpenBabel10262421053D

 32 34  0  0  1  0  0  0  0  0999 V2000
  185.1570  176.5970  135.8680 C   0  0  1  0  0  3  0  0  0  0  0  0
  184.4110  177.4230  136.9260 C   0  0  0  0  0  2  0  0  0  0  0  0
  183.3990  174.8360  136.3260 N   0  0  0  0  0  0  0  0  0  0  0  0
  179.4500  176.8690  136.9720 O   0  0  0  0  0  0  0  0  0  0  0  0
  183.0550  177.9460  136.4610 C   0  0  0  0  0  2  0  0  0  0  0  0
  180.5030  176.4510  139.1060 C   0  0  0  0  0  2  0  0  0  0  0  0
  181.8540  177.0570  138.6360 C   0  0  1  0  0  0  0  0  0  0  0  0
  183.7930  174.4320  137.6730 C   0  0  0  0  0  2  0  0  0  0  0  0
  181.0110  179.5430  138.9930 C   0  0  2  0  0  3  0  0  0  0  0  0
  182.7330  174.8820  138.6690 C   0  0  0  0  0  2  0  0  0  0  0  0
  184.5570  175.2280  135.5060 C   0  0  2  0  0  3  0  0  0  0  0  0
  181.1890  180.6380  139.8450 O   0  0  0  0  0  1  0  0  0  0  0  0
  182.0650  178.4520  139.3020 C   0  0  1  0  0  3  0  0  0  0  0  0
  182.9400  176.2270  139.0460 O   0  0  0  0  0  0  0  0  0  0  0  0
  180.1970  179.1820  136.6200 C   0  0  0  0  0  2  0  0  0  0  0  0
  182.7280  173.7110  135.6910 C   0  0  0  0  0  1  0  0  0  0  0  0
  181.1130  179.9960  137.5310 C   0  0  1  0  0  3  0  0  0  0  0  0
  181.8670  177.1900  137.0830 C   0  0  1  0  0  3  0  0  0  0  0  0
  185.6560  174.1660  135.4520 C   0  0  0  0  0  1  0  0  0  0  0  0
  179.3110  177.0450  138.3620 C   0  0  0  0  0  2  0  0  0  0  0  0
  180.5180  177.6760  136.5220 C   0  0  1  0  0  3  0  0  0  0  0  0
  182.4380  178.3570  140.7650 C   0  0  0  0  0  3  0  0  0  0  0  0
  184.5770  179.3490  140.5020 O   0  0  0  0  0  1  0  0  0  0  0  0
  183.5860  178.7860  141.3000 C   0  0  0  0  0  0  0  0  0  0  0  0
  182.8990  178.8620  143.5740 O   0  0  0  0  0  1  0  0  0  0  0  0
  185.0860  178.2990  143.2050 O   0  0  0  0  0  0  0  0  0  0  0  0
  183.8250  178.6550  142.7440 C   0  0  0  0  0  0  0  0  0  0  0  0
  185.4480  177.4000  134.6070 C   0  0  0  0  0  2  0  0  0  0  0  0
  186.8900  177.8690  134.5960 C   0  0  0  0  0  1  0  0  0  0  0  0
  180.7850  181.3510  137.3980 O   0  0  0  0  0  0  0  0  0  0  0  0
  179.5070  181.3610  137.0760 O   0  0  0  0  0  0  0  0  0  0  0  0
  179.0930  182.6770  137.2920 C   0  0  0  0  0  1  0  0  0  0  0  0
  1 28  1  6  0  0  0
  1  2  1  0  0  0  0
  3  8  1  0  0  0  0
  4 20  1  0  0  0  0
  5  2  1  0  0  0  0
  7 14  1  0  0  0  0
  7  6  1  1  0  0  0
  7 13  1  0  0  0  0
  8 10  1  0  0  0  0
  9 13  1  0  0  0  0
  9 12  1  1  0  0  0
 10 14  1  0  0  0  0
 11 19  1  1  0  0  0
 11  1  1  0  0  0  0
 11  3  1  0  0  0  0
 13 22  1  1  0  0  0
 15 17  1  0  0  0  0
 16  3  1  0  0  0  0
 17 30  1  1  0  0  0
 17  9  1  0  0  0  0
 18  5  1  1  0  0  0
 18  7  1  0  0  0  0
 20  6  1  0  0  0  0
 21 15  1  1  0  0  0
 21  4  1  0  0  0  0
 21 18  1  0  0  0  0
 22 24  2  0  0  0  0
 23 24  1  0  0  0  0
 24 27  1  0  0  0  0
 27 26  2  0  0  0  0
 27 25  1  0  0  0  0
 29 28  1  0  0  0  0
 31 32  1  0  0  0  0
 31 30  1  0  0  0  0
M  END
>  <MODEL>
4

>  <REMARK>
 VINA RESULT:      -4.8      2.961      5.145
  Name = 
  5 active torsions:
  status: ('A' for Active; 'I' for Inactive)
    1  A    between atoms: O_1  and  O_4
    2  A    between atoms: O_1  and  C_27
    3  A    between atoms: C_2  and  C_14
    4  A    between atoms: C_3  and  C_22
    5  A    between atoms: C_19  and  C_26
                            x       y       z     vdW  Elec       q    Type
                         _______ _______ _______ _____ _____    ______ ____

>  <TORSDO>
F 5

$$$$
=
 OpenBabel10262421053D

 32 34  0  0  1  0  0  0  0  0999 V2000
  191.7050  176.2830  139.3360 C   0  0  1  0  0  3  0  0  0  0  0  0
  190.2050  176.1010  139.0650 C   0  0  0  0  0  2  0  0  0  0  0  0
  191.9580  176.0550  136.8290 N   0  0  0  0  0  0  0  0  0  0  0  0
  188.5270  178.1510  134.8340 O   0  0  0  0  0  0  0  0  0  0  0  0
  189.5470  177.3020  138.3910 C   0  0  0  0  0  2  0  0  0  0  0  0
  188.0220  175.7970  135.0520 C   0  0  0  0  0  2  0  0  0  0  0  0
  188.4230  175.7800  136.5520 C   0  0  1  0  0  0  0  0  0  0  0  0
  191.6270  174.6420  136.6700 C   0  0  0  0  0  2  0  0  0  0  0  0
  186.1170  176.8400  137.3130 C   0  0  2  0  0  3  0  0  0  0  0  0
  190.2980  174.5100  135.9390 C   0  0  0  0  0  2  0  0  0  0  0  0
  192.6330  176.3240  138.1100 C   0  0  2  0  0  3  0  0  0  0  0  0
  184.9260  176.4980  137.9620 O   0  0  0  0  0  1  0  0  0  0  0  0
  187.1410  175.6870  137.4380 C   0  0  1  0  0  3  0  0  0  0  0  0
  189.2170  174.6300  136.8400 O   0  0  0  0  0  0  0  0  0  0  0  0
  187.4080  178.9740  136.8590 C   0  0  0  0  0  2  0  0  0  0  0  0
  192.8420  176.4410  135.7380 C   0  0  0  0  0  1  0  0  0  0  0  0
  186.6840  178.1340  137.9100 C   0  0  1  0  0  3  0  0  0  0  0  0
  189.2320  177.0650  136.9040 C   0  0  1  0  0  3  0  0  0  0  0  0
  193.8650  175.4500  138.3480 C   0  0  0  0  0  1  0  0  0  0  0  0
  187.5420  177.1720  134.5950 C   0  0  0  0  0  2  0  0  0  0  0  0
  188.6580  178.3240  136.2290 C   0  0  1  0  0  3  0  0  0  0  0  0
  186.5160  174.3080  137.4270 C   0  0  0  0  0  3  0  0  0  0  0  0
  185.2310  174.6740  135.4660 O   0  0  0  0  0  1  0  0  0  0  0  0
  185.6550  173.8570  136.5090 C   0  0  0  0  0  0  0  0  0  0  0  0
  185.7570  171.5200  136.0910 O   0  0  0  0  0  0  0  0  0  0  0  0
  183.9230  172.2520  137.2460 O   0  0  0  0  0  1  0  0  0  0  0  0
  185.1290  172.4880  136.5980 C   0  0  0  0  0  0  0  0  0  0  0  0
  191.9880  177.4640  140.2560 C   0  0  0  0  0  2  0  0  0  0  0  0
  191.4260  177.2060  141.6400 C   0  0  0  0  0  1  0  0  0  0  0  0
  185.6710  178.9140  138.4820 O   0  0  0  0  0  0  0  0  0  0  0  0
  185.9900  179.0020  139.7580 O   0  0  0  0  0  0  0  0  0  0  0  0
  184.7680  179.0020  140.4340 C   0  0  0  0  0  1  0  0  0  0  0  0
  1 28  1  6  0  0  0
  2  1  1  0  0  0  0
  3 11  1  0  0  0  0
  4 21  1  0  0  0  0
  5  2  1  0  0  0  0
  7  6  1  6  0  0  0
  7 14  1  0  0  0  0
  7 18  1  0  0  0  0
  7 13  1  0  0  0  0
  8  3  1  0  0  0  0
  9 13  1  0  0  0  0
  9 17  1  0  0  0  0
  9 12  1  1  0  0  0
 10  8  1  0  0  0  0
 10 14  1  0  0  0  0
 11 19  1  1  0  0  0
 11  1  1  0  0  0  0
 13 22  1  6  0  0  0
 15 17  1  0  0  0  0
 16  3  1  0  0  0  0
 17 30  1  6  0  0  0
 18  5  1  1  0  0  0
 20  4  1  0  0  0  0
 20  6  1  0  0  0  0
 21 15  1  1  0  0  0
 21 18  1  0  0  0  0
 23 24  1  0  0  0  0
 24 27  1  0  0  0  0
 24 22  2  0  0  0  0
 25 27  2  0  0  0  0
 27 26  1  0  0  0  0
 28 29  1  0  0  0  0
 30 31  1  0  0  0  0
 31 32  1  0  0  0  0
M  END
>  <MODEL>
5

>  <REMARK>
 VINA RESULT:      -4.7      5.786      9.759
  Name = 
  5 active torsions:
  status: ('A' for Active; 'I' for Inactive)
    1  A    between atoms: O_1  and  O_4
    2  A    between atoms: O_1  and  C_27
    3  A    between atoms: C_2  and  C_14
    4  A    between atoms: C_3  and  C_22
    5  A    between atoms: C_19  and  C_26
                            x       y       z     vdW  Elec       q    Type
                         _______ _______ _______ _____ _____    ______ ____

>  <TORSDO>
F 5

$$$$
=
 OpenBabel10262421053D

 32 34  0  0  1  0  0  0  0  0999 V2000
  180.1950  174.9830  136.9670 C   0  0  1  0  0  3  0  0  0  0  0  0
  180.1560  176.4520  137.4110 C   0  0  0  0  0  2  0  0  0  0  0  0
  182.7060  175.2250  137.1470 N   0  0  0  0  0  0  0  0  0  0  0  0
  183.6590  177.7870  140.7080 O   0  0  0  0  0  0  0  0  0  0  0  0
  180.5280  176.6670  138.8750 C   0  0  0  0  0  2  0  0  0  0  0  0
  183.6150  179.1540  138.7160 C   0  0  0  0  0  2  0  0  0  0  0  0
  182.2480  178.5720  138.2630 C   0  0  1  0  0  0  0  0  0  0  0  0
  182.9550  176.1160  136.0170 C   0  0  0  0  0  2  0  0  0  0  0  0
  180.8920  180.1140  139.9360 C   0  0  2  0  0  3  0  0  0  0  0  0
  183.3940  177.4800  136.5310 C   0  0  0  0  0  2  0  0  0  0  0  0
  181.5780  174.3140  136.8960 C   0  0  2  0  0  3  0  0  0  0  0  0
  180.0460  181.2290  139.9430 O   0  0  0  0  0  1  0  0  0  0  0  0
  181.1250  179.6330  138.4840 C   0  0  1  0  0  3  0  0  0  0  0  0
  182.2740  178.2720  136.8680 O   0  0  0  0  0  0  0  0  0  0  0  0
  181.3590  178.1610  141.4820 C   0  0  0  0  0  2  0  0  0  0  0  0
  183.9080  174.4380  137.3790 C   0  0  0  0  0  1  0  0  0  0  0  0
  180.2830  178.9920  140.7860 C   0  0  1  0  0  3  0  0  0  0  0  0
  181.9300  177.2720  139.0630 C   0  0  1  0  0  3  0  0  0  0  0  0
  181.7140  173.5160  135.5980 C   0  0  0  0  0  1  0  0  0  0  0  0
  183.7930  179.1060  140.2310 C   0  0  0  0  0  2  0  0  0  0  0  0
  182.3140  177.3880  140.5490 C   0  0  1  0  0  3  0  0  0  0  0  0
  181.1630  180.7520  137.4660 C   0  0  0  0  0  3  0  0  0  0  0  0
  178.9790  180.3490  136.6290 O   0  0  0  0  0  1  0  0  0  0  0  0
  180.1660  181.0750  136.6350 C   0  0  0  0  0  0  0  0  0  0  0  0
  179.6980  182.2150  134.6030 O   0  0  0  0  0  0  0  0  0  0  0  0
  181.1510  183.2610  136.0280 O   0  0  0  0  0  1  0  0  0  0  0  0
  180.3160  182.1990  135.7010 C   0  0  0  0  0  0  0  0  0  0  0  0
  179.2250  174.1140  137.7590 C   0  0  0  0  0  2  0  0  0  0  0  0
  179.9800  173.0740  138.5650 C   0  0  0  0  0  1  0  0  0  0  0  0
  179.4190  179.5080  141.7610 O   0  0  0  0  0  0  0  0  0  0  0  0
  180.1960  179.8010  142.7830 O   0  0  0  0  0  0  0  0  0  0  0  0
  179.5370  179.2750  143.8970 C   0  0  0  0  0  1  0  0  0  0  0  0
  1  2  1  0  0  0  0
  1 28  1  1  0  0  0
  2  5  1  0  0  0  0
  3 16  1  0  0  0  0
  6 20  1  0  0  0  0
  7 13  1  0  0  0  0
  7  6  1  1  0  0  0
  7 18  1  0  0  0  0
  8 10  1  0  0  0  0
  8  3  1  0  0  0  0
  9 12  1  6  0  0  0
  9 17  1  0  0  0  0
 10 14  1  0  0  0  0
 11 19  1  6  0  0  0
 11  1  1  0  0  0  0
 11  3  1  0  0  0  0
 13 22  1  6  0  0  0
 13  9  1  0  0  0  0
 14  7  1  0  0  0  0
 17 15  1  0  0  0  0
 17 30  1  1  0  0  0
 18  5  1  1  0  0  0
 18 21  1  0  0  0  0
 20  4  1  0  0  0  0
 21  4  1  0  0  0  0
 21 15  1  6  0  0  0
 23 24  1  0  0  0  0
 24 22  2  0  0  0  0
 25 27  2  0  0  0  0
 27 26  1  0  0  0  0
 27 24  1  0  0  0  0
 28 29  1  0  0  0  0
 30 31  1  0  0  0  0
 31 32  1  0  0  0  0
M  END
>  <MODEL>
6

>  <REMARK>
 VINA RESULT:      -4.6      2.847      5.512
  Name = 
  5 active torsions:
  status: ('A' for Active; 'I' for Inactive)
    1  A    between atoms: O_1  and  O_4
    2  A    between atoms: O_1  and  C_27
    3  A    between atoms: C_2  and  C_14
    4  A    between atoms: C_3  and  C_22
    5  A    between atoms: C_19  and  C_26
                            x       y       z     vdW  Elec       q    Type
                         _______ _______ _______ _____ _____    ______ ____

>  <TORSDO>
F 5

$$$$
=
 OpenBabel10262421053D

 32 34  0  0  1  0  0  0  0  0999 V2000
  184.6340  172.3860  137.2190 C   0  0  1  0  0  3  0  0  0  0  0  0
  184.6310  173.7750  137.8700 C   0  0  0  0  0  2  0  0  0  0  0  0
  182.5420  173.1800  136.0390 N   0  0  0  0  0  0  0  0  0  0  0  0
  183.0470  177.5070  134.9560 O   0  0  0  0  0  0  0  0  0  0  0  0
  185.0010  174.9080  136.9170 C   0  0  0  0  0  2  0  0  0  0  0  0
  181.8620  177.3300  137.0550 C   0  0  0  0  0  2  0  0  0  0  0  0
  182.9030  176.3360  137.6390 C   0  0  1  0  0  0  0  0  0  0  0  0
  181.6170  173.2220  137.1670 C   0  0  0  0  0  2  0  0  0  0  0  0
  184.6190  178.2710  138.2140 C   0  0  2  0  0  3  0  0  0  0  0  0
  181.2610  174.6690  137.4790 C   0  0  0  0  0  2  0  0  0  0  0  0
  183.5370  172.1030  136.1780 C   0  0  2  0  0  3  0  0  0  0  0  0
  185.1490  178.9630  139.3090 O   0  0  0  0  0  1  0  0  0  0  0  0
  183.7850  177.0620  138.7020 C   0  0  1  0  0  3  0  0  0  0  0  0
  182.2440  175.2600  138.3030 O   0  0  0  0  0  0  0  0  0  0  0  0
  185.3240  177.8100  135.8240 C   0  0  0  0  0  2  0  0  0  0  0  0
  181.7700  172.9560  134.8250 C   0  0  0  0  0  1  0  0  0  0  0  0
  185.7520  177.8090  137.2900 C   0  0  1  0  0  3  0  0  0  0  0  0
  183.7950  175.7650  136.4950 C   0  0  1  0  0  3  0  0  0  0  0  0
  182.9180  170.7260  136.4220 C   0  0  0  0  0  1  0  0  0  0  0  0
  182.4680  178.2530  136.0010 C   0  0  0  0  0  2  0  0  0  0  0  0
  184.1840  176.8370  135.4600 C   0  0  1  0  0  3  0  0  0  0  0  0
  183.0560  177.3060  140.0050 C   0  0  0  0  0  3  0  0  0  0  0  0
  182.0640  179.3470  139.3130 O   0  0  0  0  0  1  0  0  0  0  0  0
  182.2600  178.3500  140.2620 C   0  0  0  0  0  0  0  0  0  0  0  0
  182.1720  179.0030  142.5460 O   0  0  0  0  0  1  0  0  0  0  0  0
  180.2990  177.9790  141.7220 O   0  0  0  0  0  0  0  0  0  0  0  0
  181.5900  178.4670  141.5650 C   0  0  0  0  0  0  0  0  0  0  0  0
  186.0020  172.0100  136.6620 C   0  0  0  0  0  2  0  0  0  0  0  0
  185.9560  171.9290  135.1480 C   0  0  0  0  0  1  0  0  0  0  0  0
  186.8810  178.6280  137.4250 O   0  0  0  0  0  0  0  0  0  0  0  0
  187.8720  177.8000  137.6850 O   0  0  0  0  0  0  0  0  0  0  0  0
  189.0120  178.6070  137.7260 C   0  0  0  0  0  1  0  0  0  0  0  0
  1 28  1  6  0  0  0
  1  2  1  0  0  0  0
  3 11  1  0  0  0  0
  3  8  1  0  0  0  0
  4 21  1  0  0  0  0
  4 20  1  0  0  0  0
  5  2  1  0  0  0  0
  7  6  1  6  0  0  0
  7 14  1  0  0  0  0
  7 13  1  0  0  0  0
  8 10  1  0  0  0  0
  9 13  1  0  0  0  0
  9 12  1  1  0  0  0
 10 14  1  0  0  0  0
 11 19  1  1  0  0  0
 11  1  1  0  0  0  0
 13 22  1  1  0  0  0
 15 17  1  0  0  0  0
 16  3  1  0  0  0  0
 17 30  1  6  0  0  0
 17  9  1  0  0  0  0
 18  5  1  1  0  0  0
 18  7  1  0  0  0  0
 20  6  1  0  0  0  0
 21 15  1  1  0  0  0
 21 18  1  0  0  0  0
 22 24  2  0  0  0  0
 23 24  1  0  0  0  0
 24 27  1  0  0  0  0
 27 26  2  0  0  0  0
 27 25  1  0  0  0  0
 29 28  1  0  0  0  0
 30 31  1  0  0  0  0
 31 32  1  0  0  0  0
M  END
>  <MODEL>
7

>  <REMARK>
 VINA RESULT:      -4.5      3.951      7.437
  Name = 
  5 active torsions:
  status: ('A' for Active; 'I' for Inactive)
    1  A    between atoms: O_1  and  O_4
    2  A    between atoms: O_1  and  C_27
    3  A    between atoms: C_2  and  C_14
    4  A    between atoms: C_3  and  C_22
    5  A    between atoms: C_19  and  C_26
                            x       y       z     vdW  Elec       q    Type
                         _______ _______ _______ _____ _____    ______ ____

>  <TORSDO>
F 5

$$$$
=
 OpenBabel10262421053D

 32 34  0  0  1  0  0  0  0  0999 V2000
  180.1860  175.7520  140.5930 C   0  0  1  0  0  3  0  0  0  0  0  0
  181.0500  175.2960  139.4090 C   0  0  0  0  0  2  0  0  0  0  0  0
  180.3140  178.0380  139.5170 N   0  0  0  0  0  0  0  0  0  0  0  0
  180.0910  177.5530  135.0600 O   0  0  0  0  0  0  0  0  0  0  0  0
  180.3050  175.2570  138.0770 C   0  0  0  0  0  2  0  0  0  0  0  0
  182.4040  177.6860  135.7450 C   0  0  0  0  0  2  0  0  0  0  0  0
  182.2070  176.6220  136.8600 C   0  0  1  0  0  0  0  0  0  0  0  0
  181.7210  178.3490  139.7510 C   0  0  0  0  0  2  0  0  0  0  0  0
  182.3290  174.6110  135.1400 C   0  0  2  0  0  3  0  0  0  0  0  0
  182.4690  178.3500  138.4250 C   0  0  0  0  0  2  0  0  0  0  0  0
  179.7390  177.2240  140.6010 C   0  0  2  0  0  3  0  0  0  0  0  0
  183.1740  173.5690  134.7450 O   0  0  0  0  0  1  0  0  0  0  0  0
  182.8710  175.2780  136.4270 C   0  0  1  0  0  3  0  0  0  0  0  0
  182.8500  177.0390  138.0630 O   0  0  0  0  0  0  0  0  0  0  0  0
  179.8480  175.1100  134.9970 C   0  0  0  0  0  2  0  0  0  0  0  0
  179.5800  179.2930  139.4280 C   0  0  0  0  0  1  0  0  0  0  0  0
  180.9090  174.0750  135.3650 C   0  0  1  0  0  3  0  0  0  0  0  0
  180.6870  176.4120  137.1350 C   0  0  1  0  0  3  0  0  0  0  0  0
  179.9350  177.8290  141.9910 C   0  0  0  0  0  1  0  0  0  0  0  0
  181.4190  177.5090  134.5940 C   0  0  0  0  0  2  0  0  0  0  0  0
  179.8520  176.4010  135.8420 C   0  0  1  0  0  3  0  0  0  0  0  0
  184.3820  175.3120  136.5090 C   0  0  0  0  0  3  0  0  0  0  0  0
  184.5550  173.4500  137.9700 O   0  0  0  0  0  1  0  0  0  0  0  0
  185.1370  174.4590  137.2090 C   0  0  0  0  0  0  0  0  0  0  0  0
  187.1640  175.6400  137.5910 O   0  0  0  0  0  1  0  0  0  0  0  0
  187.3790  173.5270  136.7380 O   0  0  0  0  0  0  0  0  0  0  0  0
  186.6010  174.5840  137.1950 C   0  0  0  0  0  0  0  0  0  0  0  0
  178.9930  174.8340  140.8270 C   0  0  0  0  0  2  0  0  0  0  0  0
  179.3960  173.6450  141.6780 C   0  0  0  0  0  1  0  0  0  0  0  0
  180.6810  172.9160  134.6120 O   0  0  0  0  0  0  0  0  0  0  0  0
  179.7490  172.2600  135.2730 O   0  0  0  0  0  0  0  0  0  0  0  0
  180.3990  171.7520  136.4000 C   0  0  0  0  0  1  0  0  0  0  0  0
  1 11  1  0  0  0  0
  1 28  1  6  0  0  0
  2  1  1  0  0  0  0
  3  8  1  0  0  0  0
  3 11  1  0  0  0  0
  4 21  1  0  0  0  0
  5  2  1  0  0  0  0
  7  6  1  6  0  0  0
  7 18  1  0  0  0  0
  7 14  1  0  0  0  0
  9 12  1  1  0  0  0
  9 17  1  0  0  0  0
  9 13  1  0  0  0  0
 10  8  1  0  0  0  0
 11 19  1  1  0  0  0
 13 22  1  6  0  0  0
 13  7  1  0  0  0  0
 14 10  1  0  0  0  0
 15 17  1  0  0  0  0
 16  3  1  0  0  0  0
 17 30  1  6  0  0  0
 18  5  1  6  0  0  0
 20  4  1  0  0  0  0
 20  6  1  0  0  0  0
 21 15  1  6  0  0  0
 21 18  1  0  0  0  0
 22 24  2  0  0  0  0
 24 23  1  0  0  0  0
 26 27  2  0  0  0  0
 27 24  1  0  0  0  0
 27 25  1  0  0  0  0
 28 29  1  0  0  0  0
 30 31  1  0  0  0  0
 31 32  1  0  0  0  0
M  END
>  <MODEL>
8

>  <REMARK>
 VINA RESULT:      -4.3      3.738      6.886
  Name = 
  5 active torsions:
  status: ('A' for Active; 'I' for Inactive)
    1  A    between atoms: O_1  and  O_4
    2  A    between atoms: O_1  and  C_27
    3  A    between atoms: C_2  and  C_14
    4  A    between atoms: C_3  and  C_22
    5  A    between atoms: C_19  and  C_26
                            x       y       z     vdW  Elec       q    Type
                         _______ _______ _______ _____ _____    ______ ____

>  <TORSDO>
F 5

$$$$
=
 OpenBabel10262421053D

 32 34  0  0  1  0  0  0  0  0999 V2000
  185.1880  173.3070  136.3480 C   0  0  1  0  0  3  0  0  0  0  0  0
  186.3670  173.9660  137.0780 C   0  0  0  0  0  2  0  0  0  0  0  0
  184.5880  175.6640  135.6550 N   0  0  0  0  0  0  0  0  0  0  0  0
  188.3690  177.9210  134.7820 O   0  0  0  0  0  0  0  0  0  0  0  0
  187.4520  174.4980  136.1480 C   0  0  0  0  0  2  0  0  0  0  0  0
  187.6740  178.3540  137.0550 C   0  0  0  0  0  2  0  0  0  0  0  0
  187.4800  176.8430  137.3580 C   0  0  1  0  0  0  0  0  0  0  0  0
  184.1640  176.2060  136.9430 C   0  0  0  0  0  2  0  0  0  0  0  0
  190.0760  176.4500  137.7130 C   0  0  2  0  0  3  0  0  0  0  0  0
  185.1700  177.2470  137.4130 C   0  0  0  0  0  2  0  0  0  0  0  0
  184.2740  174.2320  135.5260 C   0  0  2  0  0  3  0  0  0  0  0  0
  191.0080  176.1990  138.7270 O   0  0  0  0  0  1  0  0  0  0  0  0
  188.6380  176.3370  138.2740 C   0  0  1  0  0  3  0  0  0  0  0  0
  186.2600  176.6310  138.0660 O   0  0  0  0  0  0  0  0  0  0  0  0
  189.9580  176.0970  135.2060 C   0  0  0  0  0  2  0  0  0  0  0  0
  183.8960  176.3970  134.6030 C   0  0  0  0  0  1  0  0  0  0  0  0
  190.2840  175.4630  136.5570 C   0  0  1  0  0  3  0  0  0  0  0  0
  187.4490  176.0320  136.0260 C   0  0  1  0  0  3  0  0  0  0  0  0
  182.8060  173.9010  135.7950 C   0  0  0  0  0  1  0  0  0  0  0  0
  188.7150  178.6000  135.9670 C   0  0  0  0  0  2  0  0  0  0  0  0
  188.4910  176.5320  135.0090 C   0  0  1  0  0  3  0  0  0  0  0  0
  188.5010  176.8010  139.7080 C   0  0  0  0  0  3  0  0  0  0  0  0
  189.2190  179.0220  139.2800 O   0  0  0  0  0  1  0  0  0  0  0  0
  188.7570  178.0380  140.1480 C   0  0  0  0  0  0  0  0  0  0  0  0
  187.4520  178.7750  141.9920 O   0  0  0  0  0  0  0  0  0  0  0  0
  189.6300  178.2470  142.4530 O   0  0  0  0  0  1  0  0  0  0  0  0
  188.5680  178.3720  141.5660 C   0  0  0  0  0  0  0  0  0  0  0  0
  185.6220  172.1090  135.5120 C   0  0  0  0  0  2  0  0  0  0  0  0
  184.7050  170.9270  135.7610 C   0  0  0  0  0  1  0  0  0  0  0  0
  191.6040  174.9960  136.5230 O   0  0  0  0  0  0  0  0  0  0  0  0
  192.3280  176.0460  136.1910 O   0  0  0  0  0  0  0  0  0  0  0  0
  193.5690  175.8310  136.7940 C   0  0  0  0  0  1  0  0  0  0  0  0
  1 28  1  6  0  0  0
  1  2  1  0  0  0  0
  3  8  1  0  0  0  0
  4 21  1  0  0  0  0
  4 20  1  0  0  0  0
  5  2  1  0  0  0  0
  7  6  1  6  0  0  0
  7 14  1  0  0  0  0
  7 13  1  0  0  0  0
  8 10  1  0  0  0  0
  9 13  1  0  0  0  0
  9 12  1  1  0  0  0
 10 14  1  0  0  0  0
 11  3  1  0  0  0  0
 11 19  1  1  0  0  0
 11  1  1  0  0  0  0
 13 22  1  1  0  0  0
 15 17  1  0  0  0  0
 16  3  1  0  0  0  0
 17 30  1  6  0  0  0
 17  9  1  0  0  0  0
 18  5  1  1  0  0  0
 18  7  1  0  0  0  0
 20  6  1  0  0  0  0
 21 15  1  1  0  0  0
 21 18  1  0  0  0  0
 22 24  2  0  0  0  0
 23 24  1  0  0  0  0
 24 27  1  0  0  0  0
 27 25  2  0  0  0  0
 27 26  1  0  0  0  0
 28 29  1  0  0  0  0
 31 30  1  0  0  0  0
 31 32  1  0  0  0  0
M  END
>  <MODEL>
9

>  <REMARK>
 VINA RESULT:      -3.6      5.844      9.290
  Name = 
  5 active torsions:
  status: ('A' for Active; 'I' for Inactive)
    1  A    between atoms: O_1  and  O_4
    2  A    between atoms: O_1  and  C_27
    3  A    between atoms: C_2  and  C_14
    4  A    between atoms: C_3  and  C_22
    5  A    between atoms: C_19  and  C_26
                            x       y       z     vdW  Elec       q    Type
                         _______ _______ _______ _____ _____    ______ ____

>  <TORSDO>
F 5

$$$$
