=
 OpenBabel10262421503D

 30 31  0  0  1  0  0  0  0  0999 V2000
  189.1960  177.4290  140.3210 C   0  0  0  0  0  0  0  0  0  0  0  0
  188.8620  178.6030  139.4440 C   0  0  0  0  0  2  0  0  0  0  0  0
  188.5290  177.1950  141.3150 O   0  0  0  0  0  0  0  0  0  0  0  0
  190.3760  176.2590  138.4970 C   0  0  1  0  0  3  0  0  0  0  0  0
  188.8900  178.1930  137.9710 C   0  0  0  0  0  2  0  0  0  0  0  0
  190.3980  176.5920  140.0020 C   0  0  1  0  0  3  0  0  0  0  0  0
  190.2030  177.4940  137.6120 C   0  0  0  0  0  2  0  0  0  0  0  0
  192.1740  173.6380  136.2260 C   0  0  0  0  0  2  0  0  0  0  0  0
  193.2920  174.4510  135.9470 O   0  0  0  0  0  0  0  0  0  0  0  0
  190.9970  174.4750  136.7180 C   0  0  1  0  0  3  0  0  0  0  0  0
  192.7560  175.9310  137.8060 C   0  0  0  0  0  2  0  0  0  0  0  0
  189.8370  173.5360  136.9930 C   0  0  0  0  0  1  0  0  0  0  0  0
  193.7820  175.0010  137.1560 C   0  0  1  0  0  3  0  0  0  0  0  0
  191.4070  175.2360  137.9900 C   0  0  1  0  0  3  0  0  0  0  0  0
  194.2270  173.9660  138.0860 N   0  0  0  0  0  2  0  0  0  0  0  0
  195.6530  175.1990  139.5950 O   0  0  0  0  0  0  0  0  0  0  0  0
  195.4210  174.0920  138.8090 N   0  0  0  0  0  0  0  0  0  0  0  0
  196.2760  173.1870  138.7510 O   0  0  0  0  0  0  0  0  0  0  0  0
  191.9000  177.5010  140.5080 S   0  0  0  0  0  0  0  0  0  0  0  0
  191.7350  176.9610  142.2310 C   0  0  0  0  0  2  0  0  0  0  0  0
  191.4530  178.1600  143.1160 C   0  0  0  0  0  2  0  0  0  0  0  0
  191.3390  177.7160  144.5660 C   0  0  2  0  0  3  0  0  0  0  0  0
  191.3830  176.3240  144.6400 O   0  0  0  0  0  1  0  0  0  0  0  0
  190.0430  178.2110  145.1930 C   0  0  0  0  0  2  0  0  0  0  0  0
  187.7180  177.3080  145.5380 C   0  0  0  0  0  3  0  0  0  0  0  0
  188.8640  177.3460  144.8450 C   0  0  0  0  0  3  0  0  0  0  0  0
  187.4440  178.1470  146.7500 C   0  0  2  0  0  3  0  0  0  0  0  0
  187.9450  177.4420  147.9970 C   0  0  0  0  0  1  0  0  0  0  0  0
  185.9590  178.4960  146.8800 C   0  0  0  0  0  2  0  0  0  0  0  0
  185.2960  178.7560  145.5340 C   0  0  0  0  0  1  0  0  0  0  0  0
  1  3  2  0  0  0  0
  2  1  1  0  0  0  0
  4  7  1  6  0  0  0
  4  6  1  0  0  0  0
  5  2  1  0  0  0  0
  6  1  1  0  0  0  0
  6 19  1  6  0  0  0
  7  5  1  0  0  0  0
  8 10  1  0  0  0  0
  9  8  1  0  0  0  0
  9 13  1  0  0  0  0
 10 12  1  1  0  0  0
 10 14  1  0  0  0  0
 13 11  1  0  0  0  0
 13 15  1  1  0  0  0
 14 11  1  6  0  0  0
 14  4  1  0  0  0  0
 15 17  1  0  0  0  0
 17 16  2  0  0  0  0
 18 17  2  0  0  0  0
 19 20  1  0  0  0  0
 20 21  1  0  0  0  0
 21 22  1  0  0  0  0
 22 23  1  6  0  0  0
 22 24  1  0  0  0  0
 25 27  1  0  0  0  0
 26 24  1  0  0  0  0
 26 25  2  0  0  0  0
 27 29  1  0  0  0  0
 27 28  1  1  0  0  0
 30 29  1  0  0  0  0
M  END
>  <MODEL>
1

>  <REMARK>
 VINA RESULT:      -7.3      0.000      0.000
  Name = 
  11 active torsions:
  status: ('A' for Active; 'I' for Inactive)
    1  A    between atoms: C_1  and  C_4
    2  A    between atoms: C_1  and  S_5
    3  A    between atoms: C_4  and  C_27
    4  A    between atoms: S_5  and  C_22
    5  A    between atoms: C_6  and  C_17
    6  A    between atoms: C_8  and  C_13
    7  A    between atoms: C_8  and  C_27
    8  A    between atoms: C_9  and  C_17
    9  A    between atoms: N_15  and  N_16
   10  A    between atoms: N_16  and  C_25
   11  A    between atoms: C_19  and  C_29
                            x       y       z     vdW  Elec       q    Type
                         _______ _______ _______ _____ _____    ______ ____

>  <TORSDO>
F 11

$$$$
=
 OpenBabel10262421503D

 30 31  0  0  1  0  0  0  0  0999 V2000
  187.1860  178.5200  147.0580 C   0  0  0  0  0  0  0  0  0  0  0  0
  187.6770  177.5390  148.0850 C   0  0  0  0  0  2  0  0  0  0  0  0
  186.4740  179.4520  147.3900 O   0  0  0  0  0  0  0  0  0  0  0  0
  189.0260  177.9850  145.5040 C   0  0  1  0  0  3  0  0  0  0  0  0
  189.1680  177.2610  147.8870 C   0  0  0  0  0  2  0  0  0  0  0  0
  187.5220  178.3000  145.6130 C   0  0  1  0  0  3  0  0  0  0  0  0
  189.4740  176.8630  146.4420 C   0  0  0  0  0  2  0  0  0  0  0  0
  191.6310  178.0130  142.5920 C   0  0  0  0  0  2  0  0  0  0  0  0
  191.4530  176.6570  142.2440 O   0  0  0  0  0  0  0  0  0  0  0  0
  191.1230  178.2860  144.0050 C   0  0  1  0  0  3  0  0  0  0  0  0
  189.3580  176.5520  143.4820 C   0  0  0  0  0  2  0  0  0  0  0  0
  191.3500  179.7550  144.3080 C   0  0  0  0  0  1  0  0  0  0  0  0
  190.0680  176.3810  142.1390 C   0  0  1  0  0  3  0  0  0  0  0  0
  189.6300  177.9280  144.0900 C   0  0  1  0  0  3  0  0  0  0  0  0
  189.4300  177.1790  141.0940 N   0  0  0  0  0  2  0  0  0  0  0  0
  190.5170  175.9370  139.3320 O   0  0  0  0  0  0  0  0  0  0  0  0
  189.6030  176.8840  139.7350 N   0  0  0  0  0  0  0  0  0  0  0  0
  188.9120  177.4760  138.8820 O   0  0  0  0  0  0  0  0  0  0  0  0
  186.4640  176.9620  144.9590 S   0  0  0  0  0  0  0  0  0  0  0  0
  185.4340  178.1300  144.0300 C   0  0  0  0  0  2  0  0  0  0  0  0
  186.0470  178.3760  142.6640 C   0  0  0  0  0  2  0  0  0  0  0  0
  184.9480  178.5290  141.6250 C   0  0  2  0  0  3  0  0  0  0  0  0
  185.2700  179.5620  140.7440 O   0  0  0  0  0  1  0  0  0  0  0  0
  183.6070  178.8300  142.2810 C   0  0  0  0  0  2  0  0  0  0  0  0
  181.1550  178.6000  141.7590 C   0  0  0  0  0  3  0  0  0  0  0  0
  182.4400  178.4450  141.4150 C   0  0  0  0  0  3  0  0  0  0  0  0
  180.7010  179.2050  143.0550 C   0  0  2  0  0  3  0  0  0  0  0  0
  180.0070  178.1560  143.9050 C   0  0  0  0  0  1  0  0  0  0  0  0
  179.7930  180.4170  142.8330 C   0  0  0  0  0  2  0  0  0  0  0  0
  179.5350  180.6970  141.3590 C   0  0  0  0  0  1  0  0  0  0  0  0
  1  3  2  0  0  0  0
  1  2  1  0  0  0  0
  4  6  1  0  0  0  0
  4  7  1  6  0  0  0
  5  2  1  0  0  0  0
  6 19  1  1  0  0  0
  6  1  1  0  0  0  0
  7  5  1  0  0  0  0
  8 10  1  0  0  0  0
  9  8  1  0  0  0  0
 10 14  1  0  0  0  0
 10 12  1  6  0  0  0
 13 15  1  6  0  0  0
 13  9  1  0  0  0  0
 13 11  1  0  0  0  0
 14 11  1  1  0  0  0
 14  4  1  0  0  0  0
 16 17  2  0  0  0  0
 17 15  1  0  0  0  0
 18 17  2  0  0  0  0
 20 19  1  0  0  0  0
 21 20  1  0  0  0  0
 22 23  1  6  0  0  0
 22 24  1  0  0  0  0
 22 21  1  0  0  0  0
 25 27  1  0  0  0  0
 26 25  2  0  0  0  0
 26 24  1  0  0  0  0
 27 28  1  6  0  0  0
 29 27  1  0  0  0  0
 30 29  1  0  0  0  0
M  END
>  <MODEL>
2

>  <REMARK>
 VINA RESULT:      -7.2      4.160      7.503
  Name = 
  11 active torsions:
  status: ('A' for Active; 'I' for Inactive)
    1  A    between atoms: C_1  and  C_4
    2  A    between atoms: C_1  and  S_5
    3  A    between atoms: C_4  and  C_27
    4  A    between atoms: S_5  and  C_22
    5  A    between atoms: C_6  and  C_17
    6  A    between atoms: C_8  and  C_13
    7  A    between atoms: C_8  and  C_27
    8  A    between atoms: C_9  and  C_17
    9  A    between atoms: N_15  and  N_16
   10  A    between atoms: N_16  and  C_25
   11  A    between atoms: C_19  and  C_29
                            x       y       z     vdW  Elec       q    Type
                         _______ _______ _______ _____ _____    ______ ____

>  <TORSDO>
F 11

$$$$
=
 OpenBabel10262421503D

 30 31  0  0  1  0  0  0  0  0999 V2000
  187.5170  178.4240  147.2810 C   0  0  0  0  0  0  0  0  0  0  0  0
  188.0710  177.3250  148.1430 C   0  0  0  0  0  2  0  0  0  0  0  0
  186.9180  179.3570  147.7850 O   0  0  0  0  0  0  0  0  0  0  0  0
  189.1020  177.9400  145.4520 C   0  0  1  0  0  3  0  0  0  0  0  0
  189.5030  176.9870  147.7230 C   0  0  0  0  0  2  0  0  0  0  0  0
  187.6480  178.3240  145.7900 C   0  0  1  0  0  3  0  0  0  0  0  0
  189.5920  176.7120  146.2200 C   0  0  0  0  0  2  0  0  0  0  0  0
  191.2900  177.8320  142.2170 C   0  0  0  0  0  2  0  0  0  0  0  0
  190.7160  176.6470  141.7100 O   0  0  0  0  0  0  0  0  0  0  0  0
  191.0290  177.9690  143.7150 C   0  0  1  0  0  3  0  0  0  0  0  0
  188.8160  176.8500  143.2210 C   0  0  0  0  0  2  0  0  0  0  0  0
  191.6760  179.2580  144.1860 C   0  0  0  0  0  1  0  0  0  0  0  0
  189.3060  176.7480  141.7750 C   0  0  1  0  0  3  0  0  0  0  0  0
  189.5130  177.9860  143.9700 C   0  0  1  0  0  3  0  0  0  0  0  0
  188.7990  177.8520  140.9630 N   0  0  0  0  0  2  0  0  0  0  0  0
  188.5770  178.9290  138.8140 O   0  0  0  0  0  0  0  0  0  0  0  0
  188.8050  177.7960  139.5620 N   0  0  0  0  0  0  0  0  0  0  0  0
  189.0340  176.7130  138.9880 O   0  0  0  0  0  0  0  0  0  0  0  0
  186.4300  177.1140  145.1710 S   0  0  0  0  0  0  0  0  0  0  0  0
  185.0380  178.2210  145.5290 C   0  0  0  0  0  2  0  0  0  0  0  0
  185.0350  179.3710  144.5410 C   0  0  0  0  0  2  0  0  0  0  0  0
  183.8600  179.2280  143.5860 C   0  0  2  0  0  3  0  0  0  0  0  0
  182.7530  178.7250  144.2690 O   0  0  0  0  0  1  0  0  0  0  0  0
  184.2010  178.3000  142.4290 C   0  0  0  0  0  2  0  0  0  0  0  0
  185.3190  178.9470  140.2670 C   0  0  0  0  0  3  0  0  0  0  0  0
  185.3480  178.8050  141.5990 C   0  0  0  0  0  3  0  0  0  0  0  0
  184.1200  178.6420  139.4180 C   0  0  2  0  0  3  0  0  0  0  0  0
  184.5420  177.8770  138.1770 C   0  0  0  0  0  1  0  0  0  0  0  0
  183.3470  179.9080  139.0440 C   0  0  0  0  0  2  0  0  0  0  0  0
  182.0320  179.6090  138.3380 C   0  0  0  0  0  1  0  0  0  0  0  0
  1  3  2  0  0  0  0
  1  2  1  0  0  0  0
  4  6  1  0  0  0  0
  4  7  1  6  0  0  0
  5  2  1  0  0  0  0
  6 19  1  1  0  0  0
  6  1  1  0  0  0  0
  7  5  1  0  0  0  0
  8 10  1  0  0  0  0
  9 13  1  0  0  0  0
  9  8  1  0  0  0  0
 10 14  1  0  0  0  0
 10 12  1  6  0  0  0
 13 15  1  6  0  0  0
 13 11  1  0  0  0  0
 14 11  1  6  0  0  0
 14  4  1  0  0  0  0
 16 17  2  0  0  0  0
 17 15  1  0  0  0  0
 18 17  2  0  0  0  0
 19 20  1  0  0  0  0
 21 20  1  0  0  0  0
 22 23  1  1  0  0  0
 22 21  1  0  0  0  0
 24 22  1  0  0  0  0
 25 26  2  0  0  0  0
 26 24  1  0  0  0  0
 27 28  1  6  0  0  0
 27 25  1  0  0  0  0
 29 27  1  0  0  0  0
 30 29  1  0  0  0  0
M  END
>  <MODEL>
3

>  <REMARK>
 VINA RESULT:      -7.1      4.319      7.696
  Name = 
  11 active torsions:
  status: ('A' for Active; 'I' for Inactive)
    1  A    between atoms: C_1  and  C_4
    2  A    between atoms: C_1  and  S_5
    3  A    between atoms: C_4  and  C_27
    4  A    between atoms: S_5  and  C_22
    5  A    between atoms: C_6  and  C_17
    6  A    between atoms: C_8  and  C_13
    7  A    between atoms: C_8  and  C_27
    8  A    between atoms: C_9  and  C_17
    9  A    between atoms: N_15  and  N_16
   10  A    between atoms: N_16  and  C_25
   11  A    between atoms: C_19  and  C_29
                            x       y       z     vdW  Elec       q    Type
                         _______ _______ _______ _____ _____    ______ ____

>  <TORSDO>
F 11

$$$$
=
 OpenBabel10262421503D

 30 31  0  0  1  0  0  0  0  0999 V2000
  189.8440  176.1760  143.4350 C   0  0  0  0  0  0  0  0  0  0  0  0
  190.6950  176.7630  144.5250 C   0  0  0  0  0  2  0  0  0  0  0  0
  190.2100  175.1760  142.8410 O   0  0  0  0  0  0  0  0  0  0  0  0
  187.7930  177.2280  144.3150 C   0  0  1  0  0  3  0  0  0  0  0  0
  189.8360  177.1140  145.7420 C   0  0  0  0  0  2  0  0  0  0  0  0
  188.5770  176.8720  143.0360 C   0  0  1  0  0  3  0  0  0  0  0  0
  188.6370  177.9770  145.3470 C   0  0  0  0  0  2  0  0  0  0  0  0
  184.5080  179.2640  144.8850 C   0  0  0  0  0  2  0  0  0  0  0  0
  184.6210  180.0290  143.7050 O   0  0  0  0  0  0  0  0  0  0  0  0
  185.8520  178.6580  145.2760 C   0  0  1  0  0  3  0  0  0  0  0  0
  186.2620  178.4810  142.7860 C   0  0  0  0  0  2  0  0  0  0  0  0
  185.6520  177.8570  146.5480 C   0  0  0  0  0  1  0  0  0  0  0  0
  184.9060  179.1690  142.6170 C   0  0  1  0  0  3  0  0  0  0  0  0
  186.3620  177.7640  144.1330 C   0  0  1  0  0  3  0  0  0  0  0  0
  183.8390  178.1970  142.3960 N   0  0  0  0  0  2  0  0  0  0  0  0
  181.5860  179.0280  142.6420 O   0  0  0  0  0  0  0  0  0  0  0  0
  182.6070  178.5710  141.8410 N   0  0  0  0  0  0  0  0  0  0  0  0
  182.4390  178.5000  140.6070 O   0  0  0  0  0  0  0  0  0  0  0  0
  189.0000  178.3360  142.0300 S   0  0  0  0  0  0  0  0  0  0  0  0
  188.7140  177.4430  140.4770 C   0  0  0  0  0  2  0  0  0  0  0  0
  189.9790  177.4550  139.6420 C   0  0  0  0  0  2  0  0  0  0  0  0
  189.8400  176.4850  138.4800 C   0  0  2  0  0  3  0  0  0  0  0  0
  190.8490  175.5230  138.5410 O   0  0  0  0  0  1  0  0  0  0  0  0
  189.9200  177.2100  137.1430 C   0  0  0  0  0  2  0  0  0  0  0  0
  187.8910  178.6630  136.8040 C   0  0  0  0  0  3  0  0  0  0  0  0
  189.1770  178.5180  137.1490 C   0  0  0  0  0  3  0  0  0  0  0  0
  187.0020  177.5290  136.3850 C   0  0  2  0  0  3  0  0  0  0  0  0
  186.8370  177.5260  134.8760 C   0  0  0  0  0  1  0  0  0  0  0  0
  185.6420  177.5800  137.0840 C   0  0  0  0  0  2  0  0  0  0  0  0
  185.6970  178.2930  138.4280 C   0  0  0  0  0  1  0  0  0  0  0  0
  1  2  1  0  0  0  0
  2  5  1  0  0  0  0
  3  1  2  0  0  0  0
  4  7  1  6  0  0  0
  6 19  1  1  0  0  0
  6  1  1  0  0  0  0
  6  4  1  0  0  0  0
  7  5  1  0  0  0  0
  8 10  1  0  0  0  0
  9  8  1  0  0  0  0
 10 12  1  1  0  0  0
 13 15  1  1  0  0  0
 13 11  1  0  0  0  0
 13  9  1  0  0  0  0
 14 11  1  6  0  0  0
 14  4  1  0  0  0  0
 14 10  1  0  0  0  0
 17 15  1  0  0  0  0
 17 16  2  0  0  0  0
 18 17  2  0  0  0  0
 20 19  1  0  0  0  0
 21 20  1  0  0  0  0
 22 23  1  6  0  0  0
 22 21  1  0  0  0  0
 24 26  1  0  0  0  0
 24 22  1  0  0  0  0
 25 26  2  0  0  0  0
 27 28  1  6  0  0  0
 27 25  1  0  0  0  0
 27 29  1  0  0  0  0
 29 30  1  0  0  0  0
M  END
>  <MODEL>
4

>  <REMARK>
 VINA RESULT:      -7.1      4.291      9.331
  Name = 
  11 active torsions:
  status: ('A' for Active; 'I' for Inactive)
    1  A    between atoms: C_1  and  C_4
    2  A    between atoms: C_1  and  S_5
    3  A    between atoms: C_4  and  C_27
    4  A    between atoms: S_5  and  C_22
    5  A    between atoms: C_6  and  C_17
    6  A    between atoms: C_8  and  C_13
    7  A    between atoms: C_8  and  C_27
    8  A    between atoms: C_9  and  C_17
    9  A    between atoms: N_15  and  N_16
   10  A    between atoms: N_16  and  C_25
   11  A    between atoms: C_19  and  C_29
                            x       y       z     vdW  Elec       q    Type
                         _______ _______ _______ _____ _____    ______ ____

>  <TORSDO>
F 11

$$$$
=
 OpenBabel10262421503D

 30 31  0  0  1  0  0  0  0  0999 V2000
  187.4440  178.2830  147.1510 C   0  0  0  0  0  0  0  0  0  0  0  0
  188.0550  177.2170  148.0160 C   0  0  0  0  0  2  0  0  0  0  0  0
  186.7740  179.1710  147.6510 O   0  0  0  0  0  0  0  0  0  0  0  0
  189.0900  177.9230  145.3490 C   0  0  1  0  0  3  0  0  0  0  0  0
  189.5130  176.9780  147.6190 C   0  0  0  0  0  2  0  0  0  0  0  0
  187.6080  178.2060  145.6630 C   0  0  1  0  0  3  0  0  0  0  0  0
  189.6480  176.7240  146.1170 C   0  0  0  0  0  2  0  0  0  0  0  0
  191.3390  177.9930  142.1550 C   0  0  0  0  0  2  0  0  0  0  0  0
  190.8580  176.7750  141.6290 O   0  0  0  0  0  0  0  0  0  0  0  0
  191.0420  178.1000  143.6480 C   0  0  1  0  0  3  0  0  0  0  0  0
  188.9220  176.8330  143.1050 C   0  0  0  0  0  2  0  0  0  0  0  0
  191.5890  179.4270  144.1400 C   0  0  0  0  0  1  0  0  0  0  0  0
  189.4430  176.7770  141.6690 C   0  0  1  0  0  3  0  0  0  0  0  0
  189.5240  178.0090  143.8750 C   0  0  1  0  0  3  0  0  0  0  0  0
  188.8760  177.8490  140.8540 N   0  0  0  0  0  2  0  0  0  0  0  0
  189.2870  176.6420  138.8040 O   0  0  0  0  0  0  0  0  0  0  0  0
  188.8450  177.7710  139.4550 N   0  0  0  0  0  0  0  0  0  0  0  0
  188.3990  178.7300  138.7930 O   0  0  0  0  0  0  0  0  0  0  0  0
  186.4850  176.9220  145.0120 S   0  0  0  0  0  0  0  0  0  0  0  0
  185.7830  178.0550  143.7810 C   0  0  0  0  0  2  0  0  0  0  0  0
  185.4120  179.3660  144.4490 C   0  0  0  0  0  2  0  0  0  0  0  0
  183.9440  179.3460  144.8430 C   0  0  2  0  0  3  0  0  0  0  0  0
  183.8170  178.9640  146.1790 O   0  0  0  0  0  1  0  0  0  0  0  0
  183.1510  178.3840  143.9690 C   0  0  0  0  0  2  0  0  0  0  0  0
  181.9310  178.9440  141.8380 C   0  0  0  0  0  3  0  0  0  0  0  0
  182.0880  179.0770  143.1620 C   0  0  0  0  0  3  0  0  0  0  0  0
  182.7840  178.0600  140.9780 C   0  0  2  0  0  3  0  0  0  0  0  0
  183.8770  178.8770  140.3130 C   0  0  0  0  0  1  0  0  0  0  0  0
  181.9550  177.3050  139.9360 C   0  0  0  0  0  2  0  0  0  0  0  0
  182.6900  176.1040  139.3560 C   0  0  0  0  0  1  0  0  0  0  0  0
  1  3  2  0  0  0  0
  1  2  1  0  0  0  0
  4  6  1  0  0  0  0
  4  7  1  6  0  0  0
  5  2  1  0  0  0  0
  6 19  1  1  0  0  0
  6  1  1  0  0  0  0
  7  5  1  0  0  0  0
  8 10  1  0  0  0  0
  9 13  1  0  0  0  0
  9  8  1  0  0  0  0
 10 14  1  0  0  0  0
 10 12  1  6  0  0  0
 13 15  1  6  0  0  0
 13 11  1  0  0  0  0
 14 11  1  6  0  0  0
 14  4  1  0  0  0  0
 16 17  2  0  0  0  0
 17 15  1  0  0  0  0
 18 17  2  0  0  0  0
 20 21  1  0  0  0  0
 20 19  1  0  0  0  0
 21 22  1  0  0  0  0
 22 23  1  1  0  0  0
 24 22  1  0  0  0  0
 25 26  2  0  0  0  0
 26 24  1  0  0  0  0
 27 28  1  6  0  0  0
 27 25  1  0  0  0  0
 29 27  1  0  0  0  0
 30 29  1  0  0  0  0
M  END
>  <MODEL>
5

>  <REMARK>
 VINA RESULT:      -7.1      4.251      7.559
  Name = 
  11 active torsions:
  status: ('A' for Active; 'I' for Inactive)
    1  A    between atoms: C_1  and  C_4
    2  A    between atoms: C_1  and  S_5
    3  A    between atoms: C_4  and  C_27
    4  A    between atoms: S_5  and  C_22
    5  A    between atoms: C_6  and  C_17
    6  A    between atoms: C_8  and  C_13
    7  A    between atoms: C_8  and  C_27
    8  A    between atoms: C_9  and  C_17
    9  A    between atoms: N_15  and  N_16
   10  A    between atoms: N_16  and  C_25
   11  A    between atoms: C_19  and  C_29
                            x       y       z     vdW  Elec       q    Type
                         _______ _______ _______ _____ _____    ______ ____

>  <TORSDO>
F 11

$$$$
=
 OpenBabel10262421503D

 30 31  0  0  1  0  0  0  0  0999 V2000
  189.9190  176.1640  143.4120 C   0  0  0  0  0  0  0  0  0  0  0  0
  190.7540  176.7370  144.5230 C   0  0  0  0  0  2  0  0  0  0  0  0
  190.2960  175.1730  142.8090 O   0  0  0  0  0  0  0  0  0  0  0  0
  187.8540  177.1980  144.2790 C   0  0  1  0  0  3  0  0  0  0  0  0
  189.8770  177.0680  145.7320 C   0  0  0  0  0  2  0  0  0  0  0  0
  188.6560  176.8620  143.0070 C   0  0  1  0  0  3  0  0  0  0  0  0
  188.6810  177.9340  145.3330 C   0  0  0  0  0  2  0  0  0  0  0  0
  184.5790  179.2670  144.7910 C   0  0  0  0  0  2  0  0  0  0  0  0
  184.6890  179.9870  143.5840 O   0  0  0  0  0  0  0  0  0  0  0  0
  185.9240  178.6700  145.1970 C   0  0  1  0  0  3  0  0  0  0  0  0
  186.3190  178.4000  142.7140 C   0  0  0  0  0  2  0  0  0  0  0  0
  185.7270  177.9160  146.4990 C   0  0  0  0  0  1  0  0  0  0  0  0
  184.9650  179.0870  142.5270 C   0  0  1  0  0  3  0  0  0  0  0  0
  186.4240  177.7320  144.0850 C   0  0  1  0  0  3  0  0  0  0  0  0
  183.8930  178.1110  142.3460 N   0  0  0  0  0  2  0  0  0  0  0  0
  182.3330  178.2340  140.5080 O   0  0  0  0  0  0  0  0  0  0  0  0
  182.6440  178.4790  141.8260 N   0  0  0  0  0  0  0  0  0  0  0  0
  181.8020  179.0210  142.5680 O   0  0  0  0  0  0  0  0  0  0  0  0
  189.0890  178.3420  142.0270 S   0  0  0  0  0  0  0  0  0  0  0  0
  189.0490  177.4130  140.4700 C   0  0  0  0  0  2  0  0  0  0  0  0
  188.3150  178.2180  139.4140 C   0  0  0  0  0  2  0  0  0  0  0  0
  189.2290  178.4630  138.2240 C   0  0  2  0  0  3  0  0  0  0  0  0
  188.9710  179.7210  137.6800 O   0  0  0  0  0  1  0  0  0  0  0  0
  189.0320  177.4020  137.1500 C   0  0  0  0  0  2  0  0  0  0  0  0
  186.8450  177.4970  135.9060 C   0  0  0  0  0  3  0  0  0  0  0  0
  188.1260  177.8620  136.0420 C   0  0  0  0  0  3  0  0  0  0  0  0
  186.1250  176.5920  136.8630 C   0  0  2  0  0  3  0  0  0  0  0  0
  185.9140  175.2290  136.2310 C   0  0  0  0  0  1  0  0  0  0  0  0
  184.7960  177.1920  137.3270 C   0  0  0  0  0  2  0  0  0  0  0  0
  184.9770  178.3010  138.3550 C   0  0  0  0  0  1  0  0  0  0  0  0
  1  2  1  0  0  0  0
  2  5  1  0  0  0  0
  3  1  2  0  0  0  0
  4  7  1  6  0  0  0
  6 19  1  1  0  0  0
  6  1  1  0  0  0  0
  6  4  1  0  0  0  0
  7  5  1  0  0  0  0
  8 10  1  0  0  0  0
  9  8  1  0  0  0  0
 10 12  1  1  0  0  0
 13 15  1  1  0  0  0
 13 11  1  0  0  0  0
 13  9  1  0  0  0  0
 14 11  1  6  0  0  0
 14  4  1  0  0  0  0
 14 10  1  0  0  0  0
 16 17  2  0  0  0  0
 17 15  1  0  0  0  0
 17 18  2  0  0  0  0
 20 19  1  0  0  0  0
 21 20  1  0  0  0  0
 22 23  1  6  0  0  0
 22 21  1  0  0  0  0
 24 22  1  0  0  0  0
 25 26  2  0  0  0  0
 25 27  1  0  0  0  0
 26 24  1  0  0  0  0
 27 28  1  6  0  0  0
 27 29  1  0  0  0  0
 29 30  1  0  0  0  0
M  END
>  <MODEL>
6

>  <REMARK>
 VINA RESULT:      -7.1      4.545      9.365
  Name = 
  11 active torsions:
  status: ('A' for Active; 'I' for Inactive)
    1  A    between atoms: C_1  and  C_4
    2  A    between atoms: C_1  and  S_5
    3  A    between atoms: C_4  and  C_27
    4  A    between atoms: S_5  and  C_22
    5  A    between atoms: C_6  and  C_17
    6  A    between atoms: C_8  and  C_13
    7  A    between atoms: C_8  and  C_27
    8  A    between atoms: C_9  and  C_17
    9  A    between atoms: N_15  and  N_16
   10  A    between atoms: N_16  and  C_25
   11  A    between atoms: C_19  and  C_29
                            x       y       z     vdW  Elec       q    Type
                         _______ _______ _______ _____ _____    ______ ____

>  <TORSDO>
F 11

$$$$
=
 OpenBabel10262421503D

 30 31  0  0  1  0  0  0  0  0999 V2000
  180.9880  177.6800  139.7630 C   0  0  0  0  0  0  0  0  0  0  0  0
  180.2870  178.5930  138.7970 C   0  0  0  0  0  2  0  0  0  0  0  0
  180.3560  177.0990  140.6290 O   0  0  0  0  0  0  0  0  0  0  0  0
  182.8840  177.3240  138.2250 C   0  0  1  0  0  3  0  0  0  0  0  0
  180.7670  178.3280  137.3680 C   0  0  0  0  0  2  0  0  0  0  0  0
  182.4800  177.5440  139.6950 C   0  0  1  0  0  3  0  0  0  0  0  0
  182.2940  178.3690  137.2770 C   0  0  0  0  0  2  0  0  0  0  0  0
  186.0380  175.6330  136.6580 C   0  0  0  0  0  2  0  0  0  0  0  0
  186.5400  176.8120  136.0680 O   0  0  0  0  0  0  0  0  0  0  0  0
  184.5540  175.7730  136.9840 C   0  0  1  0  0  3  0  0  0  0  0  0
  185.1010  178.1950  137.4640 C   0  0  0  0  0  2  0  0  0  0  0  0
  184.0880  174.4710  137.6090 C   0  0  0  0  0  1  0  0  0  0  0  0
  186.5260  177.8550  137.0260 C   0  0  1  0  0  3  0  0  0  0  0  0
  184.3520  176.9530  137.9490 C   0  0  1  0  0  3  0  0  0  0  0  0
  187.3790  177.5540  138.1730 N   0  0  0  0  0  2  0  0  0  0  0  0
  188.9470  179.3750  137.9420 O   0  0  0  0  0  0  0  0  0  0  0  0
  188.2170  178.5240  138.7410 N   0  0  0  0  0  0  0  0  0  0  0  0
  188.2910  178.6260  139.9810 O   0  0  0  0  0  0  0  0  0  0  0  0
  183.2400  179.0350  140.4270 S   0  0  0  0  0  0  0  0  0  0  0  0
  184.0420  178.0710  141.7390 C   0  0  0  0  0  2  0  0  0  0  0  0
  184.6600  179.0110  142.7560 C   0  0  0  0  0  2  0  0  0  0  0  0
  184.2130  178.6220  144.1560 C   0  0  2  0  0  3  0  0  0  0  0  0
  182.9040  179.0530  144.3730 O   0  0  0  0  0  1  0  0  0  0  0  0
  185.1220  179.2310  145.2150 C   0  0  0  0  0  2  0  0  0  0  0  0
  186.7660  177.5720  146.1570 C   0  0  0  0  0  3  0  0  0  0  0  0
  185.5950  178.2200  146.2230 C   0  0  0  0  0  3  0  0  0  0  0  0
  187.7830  177.7860  145.0750 C   0  0  2  0  0  3  0  0  0  0  0  0
  187.6110  176.7450  143.9850 C   0  0  0  0  0  1  0  0  0  0  0  0
  189.2120  177.7730  145.6230 C   0  0  0  0  0  2  0  0  0  0  0  0
  189.3000  177.1820  147.0240 C   0  0  0  0  0  1  0  0  0  0  0  0
  1  3  2  0  0  0  0
  2  1  1  0  0  0  0
  4  7  1  6  0  0  0
  4  6  1  0  0  0  0
  5  2  1  0  0  0  0
  6  1  1  0  0  0  0
  6 19  1  6  0  0  0
  7  5  1  0  0  0  0
  8 10  1  0  0  0  0
  9  8  1  0  0  0  0
  9 13  1  0  0  0  0
 10 12  1  1  0  0  0
 10 14  1  0  0  0  0
 13 11  1  0  0  0  0
 13 15  1  1  0  0  0
 14 11  1  6  0  0  0
 14  4  1  0  0  0  0
 15 17  1  0  0  0  0
 16 17  2  0  0  0  0
 17 18  2  0  0  0  0
 19 20  1  0  0  0  0
 20 21  1  0  0  0  0
 21 22  1  0  0  0  0
 22 23  1  1  0  0  0
 22 24  1  0  0  0  0
 24 26  1  0  0  0  0
 25 26  2  0  0  0  0
 27 28  1  6  0  0  0
 27 29  1  0  0  0  0
 27 25  1  0  0  0  0
 29 30  1  0  0  0  0
M  END
>  <MODEL>
7

>  <REMARK>
 VINA RESULT:      -6.8      5.251      7.091
  Name = 
  11 active torsions:
  status: ('A' for Active; 'I' for Inactive)
    1  A    between atoms: C_1  and  C_4
    2  A    between atoms: C_1  and  S_5
    3  A    between atoms: C_4  and  C_27
    4  A    between atoms: S_5  and  C_22
    5  A    between atoms: C_6  and  C_17
    6  A    between atoms: C_8  and  C_13
    7  A    between atoms: C_8  and  C_27
    8  A    between atoms: C_9  and  C_17
    9  A    between atoms: N_15  and  N_16
   10  A    between atoms: N_16  and  C_25
   11  A    between atoms: C_19  and  C_29
                            x       y       z     vdW  Elec       q    Type
                         _______ _______ _______ _____ _____    ______ ____

>  <TORSDO>
F 11

$$$$
=
 OpenBabel10262421503D

 30 31  0  0  1  0  0  0  0  0999 V2000
  189.8320  176.2080  143.4750 C   0  0  0  0  0  0  0  0  0  0  0  0
  190.7050  176.7570  144.5670 C   0  0  0  0  0  2  0  0  0  0  0  0
  190.1810  175.2250  142.8450 O   0  0  0  0  0  0  0  0  0  0  0  0
  187.8030  177.2430  144.4230 C   0  0  1  0  0  3  0  0  0  0  0  0
  189.8700  177.0750  145.8090 C   0  0  0  0  0  2  0  0  0  0  0  0
  188.5620  176.9220  143.1210 C   0  0  1  0  0  3  0  0  0  0  0  0
  188.6690  177.9560  145.4620 C   0  0  0  0  0  2  0  0  0  0  0  0
  184.5510  179.3030  145.0930 C   0  0  0  0  0  2  0  0  0  0  0  0
  184.6380  180.0720  143.9140 O   0  0  0  0  0  0  0  0  0  0  0  0
  185.9010  178.6840  145.4440 C   0  0  1  0  0  3  0  0  0  0  0  0
  186.2400  178.5160  142.9440 C   0  0  0  0  0  2  0  0  0  0  0  0
  185.7290  177.8780  146.7180 C   0  0  0  0  0  1  0  0  0  0  0  0
  184.8860  179.2160  142.8150 C   0  0  1  0  0  3  0  0  0  0  0  0
  186.3720  177.7910  144.2840 C   0  0  1  0  0  3  0  0  0  0  0  0
  183.8050  178.2530  142.6180 N   0  0  0  0  0  2  0  0  0  0  0  0
  182.3540  178.3480  140.6910 O   0  0  0  0  0  0  0  0  0  0  0  0
  182.5930  178.6210  142.0190 N   0  0  0  0  0  0  0  0  0  0  0  0
  181.7160  179.1890  142.6990 O   0  0  0  0  0  0  0  0  0  0  0  0
  188.9750  178.4140  142.1510 S   0  0  0  0  0  0  0  0  0  0  0  0
  188.9990  177.4850  140.5940 C   0  0  0  0  0  2  0  0  0  0  0  0
  188.2380  178.2530  139.5300 C   0  0  0  0  0  2  0  0  0  0  0  0
  189.0420  178.2830  138.2410 C   0  0  2  0  0  3  0  0  0  0  0  0
  188.6750  179.3930  137.4790 O   0  0  0  0  0  1  0  0  0  0  0  0
  188.8200  177.0180  137.4220 C   0  0  0  0  0  2  0  0  0  0  0  0
  190.9340  176.3760  136.2130 C   0  0  0  0  0  3  0  0  0  0  0  0
  189.7200  176.9420  136.2200 C   0  0  0  0  0  3  0  0  0  0  0  0
  191.5570  175.7150  137.4070 C   0  0  2  0  0  3  0  0  0  0  0  0
  192.9060  176.3430  137.7060 C   0  0  0  0  0  1  0  0  0  0  0  0
  191.6870  174.2020  137.2200 C   0  0  0  0  0  2  0  0  0  0  0  0
  191.6100  173.7800  135.7580 C   0  0  0  0  0  1  0  0  0  0  0  0
  1  2  1  0  0  0  0
  2  5  1  0  0  0  0
  3  1  2  0  0  0  0
  4  7  1  6  0  0  0
  6 19  1  1  0  0  0
  6  1  1  0  0  0  0
  6  4  1  0  0  0  0
  7  5  1  0  0  0  0
  8 10  1  0  0  0  0
  9  8  1  0  0  0  0
 10 12  1  1  0  0  0
 13 15  1  1  0  0  0
 13 11  1  0  0  0  0
 13  9  1  0  0  0  0
 14 11  1  6  0  0  0
 14  4  1  0  0  0  0
 14 10  1  0  0  0  0
 16 17  2  0  0  0  0
 17 15  1  0  0  0  0
 17 18  2  0  0  0  0
 20 19  1  0  0  0  0
 21 20  1  0  0  0  0
 22 23  1  6  0  0  0
 22 21  1  0  0  0  0
 24 22  1  0  0  0  0
 25 26  2  0  0  0  0
 25 27  1  0  0  0  0
 26 24  1  0  0  0  0
 27 28  1  6  0  0  0
 29 27  1  0  0  0  0
 30 29  1  0  0  0  0
M  END
>  <MODEL>
8

>  <REMARK>
 VINA RESULT:      -6.7      4.210      9.729
  Name = 
  11 active torsions:
  status: ('A' for Active; 'I' for Inactive)
    1  A    between atoms: C_1  and  C_4
    2  A    between atoms: C_1  and  S_5
    3  A    between atoms: C_4  and  C_27
    4  A    between atoms: S_5  and  C_22
    5  A    between atoms: C_6  and  C_17
    6  A    between atoms: C_8  and  C_13
    7  A    between atoms: C_8  and  C_27
    8  A    between atoms: C_9  and  C_17
    9  A    between atoms: N_15  and  N_16
   10  A    between atoms: N_16  and  C_25
   11  A    between atoms: C_19  and  C_29
                            x       y       z     vdW  Elec       q    Type
                         _______ _______ _______ _____ _____    ______ ____

>  <TORSDO>
F 11

$$$$
=
 OpenBabel10262421503D

 30 31  0  0  1  0  0  0  0  0999 V2000
  189.9390  177.9950  144.3440 C   0  0  0  0  0  0  0  0  0  0  0  0
  190.5480  176.7530  144.9300 C   0  0  0  0  0  2  0  0  0  0  0  0
  189.7400  178.9720  145.0460 O   0  0  0  0  0  0  0  0  0  0  0  0
  190.6580  177.4050  142.0580 C   0  0  1  0  0  3  0  0  0  0  0  0
  191.6500  176.2150  144.0140 C   0  0  0  0  0  2  0  0  0  0  0  0
  189.5150  177.9980  142.9050 C   0  0  1  0  0  3  0  0  0  0  0  0
  191.1500  176.0530  142.5770 C   0  0  0  0  0  2  0  0  0  0  0  0
  191.2400  176.7760  138.2460 C   0  0  0  0  0  2  0  0  0  0  0  0
  189.9840  176.1750  138.0190 O   0  0  0  0  0  0  0  0  0  0  0  0
  191.5980  176.7520  139.7300 C   0  0  1  0  0  3  0  0  0  0  0  0
  189.1180  177.0490  140.1210 C   0  0  0  0  0  2  0  0  0  0  0  0
  192.9560  177.4090  139.8940 C   0  0  0  0  0  1  0  0  0  0  0  0
  188.9720  176.9760  138.6010 C   0  0  1  0  0  3  0  0  0  0  0  0
  190.5200  177.5020  140.5290 C   0  0  1  0  0  3  0  0  0  0  0  0
  188.9220  178.3090  138.0060 N   0  0  0  0  0  2  0  0  0  0  0  0
  188.5220  177.9090  135.6590 O   0  0  0  0  0  0  0  0  0  0  0  0
  188.2050  178.5620  136.8280 N   0  0  0  0  0  0  0  0  0  0  0  0
  187.2610  179.3780  136.8430 O   0  0  0  0  0  0  0  0  0  0  0  0
  187.9540  177.0630  142.7500 S   0  0  0  0  0  0  0  0  0  0  0  0
  186.9710  178.5820  142.6200 C   0  0  0  0  0  2  0  0  0  0  0  0
  185.6110  178.2600  142.0310 C   0  0  0  0  0  2  0  0  0  0  0  0
  184.5500  178.3280  143.1180 C   0  0  2  0  0  3  0  0  0  0  0  0
  183.3230  178.6860  142.5600 O   0  0  0  0  0  1  0  0  0  0  0  0
  184.9260  179.3380  144.1930 C   0  0  0  0  0  2  0  0  0  0  0  0
  185.0390  178.5820  146.5930 C   0  0  0  0  0  3  0  0  0  0  0  0
  184.3340  179.0030  145.5350 C   0  0  0  0  0  3  0  0  0  0  0  0
  186.5290  178.4090  146.5920 C   0  0  2  0  0  3  0  0  0  0  0  0
  186.8950  177.0390  146.0530 C   0  0  0  0  0  1  0  0  0  0  0  0
  187.1310  178.6290  147.9820 C   0  0  0  0  0  2  0  0  0  0  0  0
  188.4680  177.9240  148.1630 C   0  0  0  0  0  1  0  0  0  0  0  0
  1  2  1  0  0  0  0
  1  3  2  0  0  0  0
  4  7  1  6  0  0  0
  4  6  1  0  0  0  0
  5  2  1  0  0  0  0
  6 19  1  1  0  0  0
  6  1  1  0  0  0  0
  7  5  1  0  0  0  0
  8 10  1  0  0  0  0
  9  8  1  0  0  0  0
  9 13  1  0  0  0  0
 10 12  1  6  0  0  0
 10 14  1  0  0  0  0
 13 15  1  6  0  0  0
 13 11  1  0  0  0  0
 14 11  1  6  0  0  0
 14  4  1  0  0  0  0
 16 17  2  0  0  0  0
 17 18  2  0  0  0  0
 17 15  1  0  0  0  0
 20 19  1  0  0  0  0
 21 20  1  0  0  0  0
 21 22  1  0  0  0  0
 22 23  1  6  0  0  0
 22 24  1  0  0  0  0
 24 26  1  0  0  0  0
 26 25  2  0  0  0  0
 27 28  1  1  0  0  0
 27 25  1  0  0  0  0
 27 29  1  0  0  0  0
 29 30  1  0  0  0  0
M  END
>  <MODEL>
9

>  <REMARK>
 VINA RESULT:      -6.6      3.313      5.563
  Name = 
  11 active torsions:
  status: ('A' for Active; 'I' for Inactive)
    1  A    between atoms: C_1  and  C_4
    2  A    between atoms: C_1  and  S_5
    3  A    between atoms: C_4  and  C_27
    4  A    between atoms: S_5  and  C_22
    5  A    between atoms: C_6  and  C_17
    6  A    between atoms: C_8  and  C_13
    7  A    between atoms: C_8  and  C_27
    8  A    between atoms: C_9  and  C_17
    9  A    between atoms: N_15  and  N_16
   10  A    between atoms: N_16  and  C_25
   11  A    between atoms: C_19  and  C_29
                            x       y       z     vdW  Elec       q    Type
                         _______ _______ _______ _____ _____    ______ ____

>  <TORSDO>
F 11

$$$$
