=
 OpenBabel10262419343D

 31 35  0  0  1  0  0  0  0  0999 V2000
  191.3060  177.5110  141.2590 C   0  0  0  0  0  0  0  0  0  0  0  0
  190.1580  177.0900  140.4940 N   0  0  0  0  0  0  0  0  0  0  0  0
  192.4540  177.5030  140.7410 O   0  0  0  0  0  0  0  0  0  0  0  0
  190.2690  176.8230  139.0560 C   0  0  1  0  0  0  0  0  0  0  0  0
  188.9790  176.7930  138.3880 C   0  0  1  0  0  3  0  0  0  0  0  0
  188.8650  179.0210  137.9220 C   0  0  0  0  0  2  0  0  0  0  0  0
  189.9280  177.9400  138.0440 C   0  0  1  0  0  3  0  0  0  0  0  0
  190.2370  175.0710  137.3730 N   0  0  0  0  0  2  0  0  0  0  0  0
  187.8600  178.7020  136.7710 C   0  0  0  0  0  2  0  0  0  0  0  0
  190.9690  175.5580  138.5550 C   0  0  0  0  0  2  0  0  0  0  0  0
  188.3940  177.7660  135.6530 C   0  0  0  0  0  2  0  0  0  0  0  0
  188.3220  175.4230  135.1420 O   0  0  0  0  0  0  0  0  0  0  0  0
  189.0920  175.8790  137.2960 N   0  0  0  0  0  0  0  0  0  0  0  0
  188.5570  176.2920  136.0220 C   0  0  0  0  0  0  0  0  0  0  0  0
  191.4980  176.9940  143.5530 O   0  0  0  0  0  1  0  0  0  0  0  0
  191.1610  178.0090  142.6590 C   0  0  0  0  0  2  0  0  0  0  0  0
  188.8270  177.1070  141.0990 C   0  0  0  0  0  2  0  0  0  0  0  0
  188.3530  178.5360  141.3150 C   0  0  0  0  0  2  0  0  0  0  0  0
  186.8550  178.6460  141.1070 C   0  0  0  0  0  2  0  0  0  0  0  0
  186.2600  179.1180  142.2780 O   0  0  0  0  0  0  0  0  0  0  0  0
  185.7040  177.9870  142.8830 C   0  0  0  0  0  2  0  0  0  0  0  0
  188.4540  177.8050  147.3950 C   0  0  0  0  0  0  0  0  0  0  0  0
  188.1180  177.7060  144.8690 C   0  0  0  0  0  2  0  0  0  0  0  0
  184.9250  178.6660  146.3960 C   0  0  0  0  0  3  0  0  0  0  0  0
  184.5930  178.5540  145.0440 C   0  0  0  0  0  3  0  0  0  0  0  0
  189.2810  177.8810  148.3390 O   0  0  0  0  0  0  0  0  0  0  0  0
  185.6680  178.1540  144.3300 N   0  0  0  0  0  0  0  0  0  0  0  0
  188.8550  177.1370  146.0970 C   0  0  0  0  0  2  0  0  0  0  0  0
  186.2560  178.3070  146.4450 C   0  0  0  0  0  0  0  0  0  0  0  0
  186.6820  177.9910  145.1910 C   0  0  0  0  0  0  0  0  0  0  0  0
  187.1160  178.2870  147.5790 N   0  0  0  0  0  2  0  0  0  0  0  0
  1 16  1  0  0  0  0
  2 17  1  0  0  0  0
  2  1  1  0  0  0  0
  3  1  2  0  0  0  0
  4  2  1  1  0  0  0
  5 13  1  6  0  0  0
  5  4  1  0  0  0  0
  7  6  1  1  0  0  0
  7  5  1  0  0  0  0
  7  4  1  0  0  0  0
  8 10  1  0  0  0  0
  9  6  1  0  0  0  0
 10  4  1  0  0  0  0
 11 14  1  0  0  0  0
 11  9  1  0  0  0  0
 12 14  2  0  0  0  0
 13  8  1  0  0  0  0
 14 13  1  0  0  0  0
 16 15  1  0  0  0  0
 17 18  1  0  0  0  0
 19 18  1  0  0  0  0
 19 20  1  0  0  0  0
 20 21  1  0  0  0  0
 21 27  1  0  0  0  0
 22 31  1  0  0  0  0
 22 26  2  0  0  0  0
 23 30  1  0  0  0  0
 23 28  1  0  0  0  0
 24 29  1  0  0  0  0
 25 24  2  0  0  0  0
 27 25  1  0  0  0  0
 27 30  1  0  0  0  0
 28 22  1  0  0  0  0
 29 31  1  0  0  0  0
 30 29  2  0  0  0  0
M  END
>  <MODEL>
1

>  <REMARK>
 VINA RESULT:      -7.6      0.000      0.000
  Name = 
  8 active torsions:
  status: ('A' for Active; 'I' for Inactive)
    1  A    between atoms: C_2  and  C_28
    2  A    between atoms: C_4  and  N_12
    3  A    between atoms: N_9  and  C_23
    4  A    between atoms: N_12  and  C_25
    5  A    between atoms: O_15  and  C_20
    6  A    between atoms: O_15  and  C_23
    7  A    between atoms: C_20  and  C_27
    8  A    between atoms: C_25  and  C_27
                            x       y       z     vdW  Elec       q    Type
                         _______ _______ _______ _____ _____    ______ ____

>  <TORSDO>
F 8

$$$$
=
 OpenBabel10262419343D

 31 35  0  0  1  0  0  0  0  0999 V2000
  189.1570  178.2700  139.4910 C   0  0  0  0  0  0  0  0  0  0  0  0
  190.2020  177.2970  139.7020 N   0  0  0  0  0  0  0  0  0  0  0  0
  189.0100  178.8110  138.3620 O   0  0  0  0  0  0  0  0  0  0  0  0
  190.9900  176.7830  138.5770 C   0  0  1  0  0  0  0  0  0  0  0  0
  190.9050  175.3390  138.4430 C   0  0  1  0  0  3  0  0  0  0  0  0
  189.0560  175.3000  137.1110 C   0  0  0  0  0  2  0  0  0  0  0  0
  190.2670  176.1900  137.3470 C   0  0  1  0  0  3  0  0  0  0  0  0
  193.1500  175.8700  137.9440 N   0  0  0  0  0  2  0  0  0  0  0  0
  189.4800  173.8850  136.6080 C   0  0  0  0  0  2  0  0  0  0  0  0
  192.4900  177.0700  138.4870 C   0  0  0  0  0  2  0  0  0  0  0  0
  190.8650  173.8080  135.9090 C   0  0  0  0  0  2  0  0  0  0  0  0
  193.1170  173.2680  136.5320 O   0  0  0  0  0  0  0  0  0  0  0  0
  192.1450  174.8930  137.8920 N   0  0  0  0  0  0  0  0  0  0  0  0
  192.0900  173.9380  136.8130 C   0  0  0  0  0  0  0  0  0  0  0  0
  186.9030  178.6600  140.0680 O   0  0  0  0  0  1  0  0  0  0  0  0
  188.1990  178.6240  140.5790 C   0  0  0  0  0  2  0  0  0  0  0  0
  190.3630  176.6680  141.0120 C   0  0  0  0  0  2  0  0  0  0  0  0
  191.3740  177.4310  141.8530 C   0  0  0  0  0  2  0  0  0  0  0  0
  190.7330  177.9640  143.1190 C   0  0  0  0  0  2  0  0  0  0  0  0
  191.3350  177.3690  144.2280 O   0  0  0  0  0  0  0  0  0  0  0  0
  190.3950  176.4480  144.7000 C   0  0  0  0  0  2  0  0  0  0  0  0
  185.7650  178.3700  146.3820 C   0  0  0  0  0  0  0  0  0  0  0  0
  187.3680  177.2810  144.7250 C   0  0  0  0  0  2  0  0  0  0  0  0
  189.1420  177.6900  147.9090 C   0  0  0  0  0  3  0  0  0  0  0  0
  190.1360  177.1810  147.0720 C   0  0  0  0  0  3  0  0  0  0  0  0
  184.5680  178.6360  146.6610 O   0  0  0  0  0  0  0  0  0  0  0  0
  189.6540  177.0130  145.8210 N   0  0  0  0  0  0  0  0  0  0  0  0
  186.1910  178.2530  144.9350 C   0  0  0  0  0  2  0  0  0  0  0  0
  188.0430  177.8170  147.0850 C   0  0  0  0  0  0  0  0  0  0  0  0
  188.3760  177.4140  145.8280 C   0  0  0  0  0  0  0  0  0  0  0  0
  186.7330  178.2520  147.4340 N   0  0  0  0  0  2  0  0  0  0  0  0
  1  2  1  0  0  0  0
  1 16  1  0  0  0  0
  2 17  1  0  0  0  0
  3  1  2  0  0  0  0
  4  2  1  1  0  0  0
  5 13  1  6  0  0  0
  5  4  1  0  0  0  0
  7  6  1  1  0  0  0
  7  5  1  0  0  0  0
  7  4  1  0  0  0  0
  8 10  1  0  0  0  0
  9  6  1  0  0  0  0
 10  4  1  0  0  0  0
 11  9  1  0  0  0  0
 11 14  1  0  0  0  0
 12 14  2  0  0  0  0
 13  8  1  0  0  0  0
 14 13  1  0  0  0  0
 15 16  1  0  0  0  0
 17 18  1  0  0  0  0
 18 19  1  0  0  0  0
 19 20  1  0  0  0  0
 20 21  1  0  0  0  0
 21 27  1  0  0  0  0
 22 26  2  0  0  0  0
 22 31  1  0  0  0  0
 23 28  1  0  0  0  0
 23 30  1  0  0  0  0
 25 24  2  0  0  0  0
 27 30  1  0  0  0  0
 27 25  1  0  0  0  0
 28 22  1  0  0  0  0
 29 31  1  0  0  0  0
 29 24  1  0  0  0  0
 30 29  2  0  0  0  0
M  END
>  <MODEL>
2

>  <REMARK>
 VINA RESULT:      -7.6      2.220      3.791
  Name = 
  8 active torsions:
  status: ('A' for Active; 'I' for Inactive)
    1  A    between atoms: C_2  and  C_28
    2  A    between atoms: C_4  and  N_12
    3  A    between atoms: N_9  and  C_23
    4  A    between atoms: N_12  and  C_25
    5  A    between atoms: O_15  and  C_20
    6  A    between atoms: O_15  and  C_23
    7  A    between atoms: C_20  and  C_27
    8  A    between atoms: C_25  and  C_27
                            x       y       z     vdW  Elec       q    Type
                         _______ _______ _______ _____ _____    ______ ____

>  <TORSDO>
F 8

$$$$
=
 OpenBabel10262419343D

 31 35  0  0  1  0  0  0  0  0999 V2000
  189.9680  176.8190  146.8240 C   0  0  0  0  0  0  0  0  0  0  0  0
  189.1910  177.6330  145.9210 N   0  0  0  0  0  0  0  0  0  0  0  0
  189.4040  176.1860  147.7560 O   0  0  0  0  0  0  0  0  0  0  0  0
  187.7250  177.5970  145.9490 C   0  0  1  0  0  0  0  0  0  0  0  0
  187.1210  178.5550  145.0370 C   0  0  1  0  0  3  0  0  0  0  0  0
  187.0780  177.1960  143.2080 C   0  0  0  0  0  2  0  0  0  0  0  0
  186.9510  177.0710  144.7190 C   0  0  1  0  0  3  0  0  0  0  0  0
  185.7530  178.5910  146.9610 N   0  0  0  0  0  2  0  0  0  0  0  0
  185.9350  178.0770  142.6140 C   0  0  0  0  0  2  0  0  0  0  0  0
  186.9700  177.8160  147.2610 C   0  0  0  0  0  2  0  0  0  0  0  0
  184.6410  178.1640  143.4690 C   0  0  0  0  0  2  0  0  0  0  0  0
  183.7130  179.6590  145.1000 O   0  0  0  0  0  0  0  0  0  0  0  0
  185.8770  178.9560  145.6120 N   0  0  0  0  0  0  0  0  0  0  0  0
  184.7260  179.0010  144.7450 C   0  0  0  0  0  0  0  0  0  0  0  0
  192.0860  176.9590  147.8550 O   0  0  0  0  0  1  0  0  0  0  0  0
  191.4430  176.6680  146.6530 C   0  0  0  0  0  2  0  0  0  0  0  0
  189.8510  178.3600  144.8380 C   0  0  0  0  0  2  0  0  0  0  0  0
  190.2410  177.4130  143.7140 C   0  0  0  0  0  2  0  0  0  0  0  0
  191.6910  177.6110  143.3180 C   0  0  0  0  0  2  0  0  0  0  0  0
  191.8010  177.5680  141.9280 O   0  0  0  0  0  0  0  0  0  0  0  0
  190.4950  177.3760  141.4670 C   0  0  0  0  0  2  0  0  0  0  0  0
  187.7740  177.9790  136.9730 C   0  0  0  0  0  0  0  0  0  0  0  0
  188.2140  178.2040  139.4750 C   0  0  0  0  0  2  0  0  0  0  0  0
  191.2010  176.7400  137.9300 C   0  0  0  0  0  3  0  0  0  0  0  0
  191.5240  176.7240  139.2890 C   0  0  0  0  0  3  0  0  0  0  0  0
  187.0710  178.3430  135.9970 O   0  0  0  0  0  0  0  0  0  0  0  0
  190.4910  177.1960  140.0210 N   0  0  0  0  0  0  0  0  0  0  0  0
  187.1760  177.9570  138.3640 C   0  0  0  0  0  2  0  0  0  0  0  0
  189.9180  177.2450  137.8970 C   0  0  0  0  0  0  0  0  0  0  0  0
  189.5040  177.5030  139.1680 C   0  0  0  0  0  0  0  0  0  0  0  0
  189.1140  177.5170  136.7540 N   0  0  0  0  0  2  0  0  0  0  0  0
  1  3  2  0  0  0  0
  2  1  1  0  0  0  0
  4  2  1  1  0  0  0
  4 10  1  0  0  0  0
  5 13  1  1  0  0  0
  5  4  1  0  0  0  0
  7  6  1  6  0  0  0
  7  5  1  0  0  0  0
  7  4  1  0  0  0  0
  8 10  1  0  0  0  0
  9  6  1  0  0  0  0
  9 11  1  0  0  0  0
 11 14  1  0  0  0  0
 13  8  1  0  0  0  0
 14 12  2  0  0  0  0
 14 13  1  0  0  0  0
 16  1  1  0  0  0  0
 16 15  1  0  0  0  0
 17  2  1  0  0  0  0
 18 17  1  0  0  0  0
 19 18  1  0  0  0  0
 20 19  1  0  0  0  0
 21 20  1  0  0  0  0
 22 28  1  0  0  0  0
 24 25  2  0  0  0  0
 25 27  1  0  0  0  0
 26 22  2  0  0  0  0
 27 21  1  0  0  0  0
 28 23  1  0  0  0  0
 29 24  1  0  0  0  0
 29 30  2  0  0  0  0
 30 23  1  0  0  0  0
 30 27  1  0  0  0  0
 31 22  1  0  0  0  0
 31 29  1  0  0  0  0
M  END
>  <MODEL>
3

>  <REMARK>
 VINA RESULT:      -7.5      1.734      8.003
  Name = 
  8 active torsions:
  status: ('A' for Active; 'I' for Inactive)
    1  A    between atoms: C_2  and  C_28
    2  A    between atoms: C_4  and  N_12
    3  A    between atoms: N_9  and  C_23
    4  A    between atoms: N_12  and  C_25
    5  A    between atoms: O_15  and  C_20
    6  A    between atoms: O_15  and  C_23
    7  A    between atoms: C_20  and  C_27
    8  A    between atoms: C_25  and  C_27
                            x       y       z     vdW  Elec       q    Type
                         _______ _______ _______ _____ _____    ______ ____

>  <TORSDO>
F 8

$$$$
=
 OpenBabel10262419343D

 31 35  0  0  1  0  0  0  0  0999 V2000
  191.1640  177.5580  142.2000 C   0  0  0  0  0  0  0  0  0  0  0  0
  189.8660  177.2050  142.7210 N   0  0  0  0  0  0  0  0  0  0  0  0
  192.1320  177.7540  142.9820 O   0  0  0  0  0  0  0  0  0  0  0  0
  189.6870  176.8880  144.1420 C   0  0  1  0  0  0  0  0  0  0  0  0
  189.1630  178.0080  144.9060 C   0  0  1  0  0  3  0  0  0  0  0  0
  186.9550  177.5550  144.5700 C   0  0  0  0  0  2  0  0  0  0  0  0
  188.2610  176.7890  144.7280 C   0  0  1  0  0  3  0  0  0  0  0  0
  190.7470  176.9820  146.3260 N   0  0  0  0  0  2  0  0  0  0  0  0
  186.6190  178.3740  145.8560 C   0  0  0  0  0  2  0  0  0  0  0  0
  190.8680  176.3950  144.9810 C   0  0  0  0  0  2  0  0  0  0  0  0
  187.2620  177.8540  147.1700 C   0  0  0  0  0  2  0  0  0  0  0  0
  189.2180  178.3300  148.4740 O   0  0  0  0  0  0  0  0  0  0  0  0
  189.6830  177.8930  146.2320 N   0  0  0  0  0  0  0  0  0  0  0  0
  188.7650  178.0810  147.3270 C   0  0  0  0  0  0  0  0  0  0  0  0
  192.7570  177.4330  140.4640 O   0  0  0  0  0  1  0  0  0  0  0  0
  191.4060  177.6520  140.7300 C   0  0  0  0  0  2  0  0  0  0  0  0
  188.7480  176.9720  141.8080 C   0  0  0  0  0  2  0  0  0  0  0  0
  188.1660  178.2910  141.3240 C   0  0  0  0  0  2  0  0  0  0  0  0
  187.7360  178.1920  139.8740 C   0  0  0  0  0  2  0  0  0  0  0  0
  186.4900  178.8020  139.7190 O   0  0  0  0  0  0  0  0  0  0  0  0
  185.9200  178.7910  140.9950 C   0  0  0  0  0  2  0  0  0  0  0  0
  181.3100  178.8090  143.5850 C   0  0  0  0  0  0  0  0  0  0  0  0
  183.8220  179.1470  143.3030 C   0  0  0  0  0  2  0  0  0  0  0  0
  182.4290  178.2500  140.0310 C   0  0  0  0  0  3  0  0  0  0  0  0
  183.7990  178.3150  139.7690 C   0  0  0  0  0  3  0  0  0  0  0  0
  180.2990  179.0210  144.3010 O   0  0  0  0  0  0  0  0  0  0  0  0
  184.4790  178.5940  140.9030 N   0  0  0  0  0  0  0  0  0  0  0  0
  182.6750  178.6940  144.2280 C   0  0  0  0  0  2  0  0  0  0  0  0
  182.3330  178.5050  141.3830 C   0  0  0  0  0  0  0  0  0  0  0  0
  183.5810  178.6980  141.8920 C   0  0  0  0  0  0  0  0  0  0  0  0
  181.1540  178.6050  142.1740 N   0  0  0  0  0  2  0  0  0  0  0  0
  1  2  1  0  0  0  0
  1  3  2  0  0  0  0
  4  2  1  6  0  0  0
  4  7  1  0  0  0  0
  4  5  1  0  0  0  0
  4 10  1  0  0  0  0
  5 13  1  1  0  0  0
  6  9  1  0  0  0  0
  7  6  1  6  0  0  0
  7  5  1  0  0  0  0
  9 11  1  0  0  0  0
 10  8  1  0  0  0  0
 11 14  1  0  0  0  0
 13  8  1  0  0  0  0
 13 14  1  0  0  0  0
 14 12  2  0  0  0  0
 15 16  1  0  0  0  0
 16  1  1  0  0  0  0
 17  2  1  0  0  0  0
 18 17  1  0  0  0  0
 19 18  1  0  0  0  0
 20 19  1  0  0  0  0
 20 21  1  0  0  0  0
 22 28  1  0  0  0  0
 22 26  2  0  0  0  0
 23 28  1  0  0  0  0
 24 29  1  0  0  0  0
 25 24  2  0  0  0  0
 25 27  1  0  0  0  0
 27 21  1  0  0  0  0
 27 30  1  0  0  0  0
 29 30  2  0  0  0  0
 29 31  1  0  0  0  0
 30 23  1  0  0  0  0
 31 22  1  0  0  0  0
M  END
>  <MODEL>
4

>  <REMARK>
 VINA RESULT:      -7.5      2.757      6.729
  Name = 
  8 active torsions:
  status: ('A' for Active; 'I' for Inactive)
    1  A    between atoms: C_2  and  C_28
    2  A    between atoms: C_4  and  N_12
    3  A    between atoms: N_9  and  C_23
    4  A    between atoms: N_12  and  C_25
    5  A    between atoms: O_15  and  C_20
    6  A    between atoms: O_15  and  C_23
    7  A    between atoms: C_20  and  C_27
    8  A    between atoms: C_25  and  C_27
                            x       y       z     vdW  Elec       q    Type
                         _______ _______ _______ _____ _____    ______ ____

>  <TORSDO>
F 8

$$$$
=
 OpenBabel10262419343D

 31 35  0  0  1  0  0  0  0  0999 V2000
  192.3570  176.7600  138.8240 C   0  0  0  0  0  0  0  0  0  0  0  0
  190.9170  176.8030  138.8950 N   0  0  0  0  0  0  0  0  0  0  0  0
  192.9300  176.2060  137.8470 O   0  0  0  0  0  0  0  0  0  0  0  0
  190.0940  176.3760  137.7590 C   0  0  1  0  0  0  0  0  0  0  0  0
  188.7070  176.7930  137.8800 C   0  0  1  0  0  3  0  0  0  0  0  0
  188.9520  178.8280  136.8820 C   0  0  0  0  0  2  0  0  0  0  0  0
  189.5460  177.4320  136.7740 C   0  0  1  0  0  3  0  0  0  0  0  0
  188.6170  174.6250  136.9500 N   0  0  0  0  0  2  0  0  0  0  0  0
  187.4250  178.8220  136.5580 C   0  0  0  0  0  2  0  0  0  0  0  0
  189.9980  174.8940  137.3870 C   0  0  0  0  0  2  0  0  0  0  0  0
  186.9320  177.6470  135.6700 C   0  0  0  0  0  2  0  0  0  0  0  0
  185.9450  175.4870  136.0080 O   0  0  0  0  0  0  0  0  0  0  0  0
  187.9120  175.8080  137.2200 N   0  0  0  0  0  0  0  0  0  0  0  0
  186.8730  176.2730  136.3350 C   0  0  0  0  0  0  0  0  0  0  0  0
  194.4080  176.7150  139.9900 O   0  0  0  0  0  1  0  0  0  0  0  0
  193.2030  177.4050  139.8710 C   0  0  0  0  0  2  0  0  0  0  0  0
  190.2590  177.4520  140.0280 C   0  0  0  0  0  2  0  0  0  0  0  0
  190.4390  176.6320  141.2960 C   0  0  0  0  0  2  0  0  0  0  0  0
  190.0000  177.4180  142.5150 C   0  0  0  0  0  2  0  0  0  0  0  0
  188.6720  177.8150  142.3560 O   0  0  0  0  0  0  0  0  0  0  0  0
  187.9180  176.8210  142.9850 C   0  0  0  0  0  2  0  0  0  0  0  0
  187.9930  177.9130  148.1590 C   0  0  0  0  0  0  0  0  0  0  0  0
  188.9530  177.1180  145.9340 C   0  0  0  0  0  2  0  0  0  0  0  0
  185.5890  178.4360  145.3050 C   0  0  0  0  0  3  0  0  0  0  0  0
  185.9650  177.9540  144.0500 C   0  0  0  0  0  3  0  0  0  0  0  0
  188.2390  178.2530  149.3440 O   0  0  0  0  0  0  0  0  0  0  0  0
  187.1870  177.3800  144.1150 N   0  0  0  0  0  0  0  0  0  0  0  0
  188.8930  176.9160  147.4610 C   0  0  0  0  0  2  0  0  0  0  0  0
  186.6550  178.1150  146.1200 C   0  0  0  0  0  0  0  0  0  0  0  0
  187.6020  177.4690  145.3870 C   0  0  0  0  0  0  0  0  0  0  0  0
  186.8210  178.4160  147.5020 N   0  0  0  0  0  2  0  0  0  0  0  0
  1  2  1  0  0  0  0
  1 16  1  0  0  0  0
  2 17  1  0  0  0  0
  3  1  2  0  0  0  0
  4  5  1  0  0  0  0
  4  2  1  1  0  0  0
  5 13  1  6  0  0  0
  7  6  1  1  0  0  0
  7  4  1  0  0  0  0
  7  5  1  0  0  0  0
  8 13  1  0  0  0  0
  8 10  1  0  0  0  0
  9  6  1  0  0  0  0
 10  4  1  0  0  0  0
 11 14  1  0  0  0  0
 11  9  1  0  0  0  0
 12 14  2  0  0  0  0
 14 13  1  0  0  0  0
 16 15  1  0  0  0  0
 17 18  1  0  0  0  0
 18 19  1  0  0  0  0
 20 19  1  0  0  0  0
 20 21  1  0  0  0  0
 21 27  1  0  0  0  0
 22 26  2  0  0  0  0
 23 28  1  0  0  0  0
 24 29  1  0  0  0  0
 25 27  1  0  0  0  0
 25 24  2  0  0  0  0
 27 30  1  0  0  0  0
 28 22  1  0  0  0  0
 29 31  1  0  0  0  0
 30 23  1  0  0  0  0
 30 29  2  0  0  0  0
 31 22  1  0  0  0  0
M  END
>  <MODEL>
5

>  <REMARK>
 VINA RESULT:      -7.5      1.610      2.079
  Name = 
  8 active torsions:
  status: ('A' for Active; 'I' for Inactive)
    1  A    between atoms: C_2  and  C_28
    2  A    between atoms: C_4  and  N_12
    3  A    between atoms: N_9  and  C_23
    4  A    between atoms: N_12  and  C_25
    5  A    between atoms: O_15  and  C_20
    6  A    between atoms: O_15  and  C_23
    7  A    between atoms: C_20  and  C_27
    8  A    between atoms: C_25  and  C_27
                            x       y       z     vdW  Elec       q    Type
                         _______ _______ _______ _____ _____    ______ ____

>  <TORSDO>
F 8

$$$$
=
 OpenBabel10262419343D

 31 35  0  0  1  0  0  0  0  0999 V2000
  181.1680  178.9710  142.2310 C   0  0  0  0  0  0  0  0  0  0  0  0
  182.5050  178.6780  141.7760 N   0  0  0  0  0  0  0  0  0  0  0  0
  180.3030  179.4090  141.4250 O   0  0  0  0  0  0  0  0  0  0  0  0
  182.8370  178.7040  140.3480 C   0  0  1  0  0  0  0  0  0  0  0  0
  183.7180  177.6170  139.9550 C   0  0  1  0  0  3  0  0  0  0  0  0
  182.0830  176.0950  139.5040 C   0  0  0  0  0  2  0  0  0  0  0  0
  182.2880  177.6000  139.4170 C   0  0  1  0  0  3  0  0  0  0  0  0
  184.4610  179.4890  138.7210 N   0  0  0  0  0  2  0  0  0  0  0  0
  183.0860  175.3310  138.5830 C   0  0  0  0  0  2  0  0  0  0  0  0
  183.4850  179.9430  139.7260 C   0  0  0  0  0  2  0  0  0  0  0  0
  183.6520  176.1440  137.3870 C   0  0  0  0  0  2  0  0  0  0  0  0
  185.6160  177.4400  136.9210 O   0  0  0  0  0  0  0  0  0  0  0  0
  184.5160  178.0940  138.8700 N   0  0  0  0  0  0  0  0  0  0  0  0
  184.6730  177.2290  137.7280 C   0  0  0  0  0  0  0  0  0  0  0  0
  179.6280  177.9100  143.6690 O   0  0  0  0  0  1  0  0  0  0  0  0
  180.7600  178.7220  143.6450 C   0  0  0  0  0  2  0  0  0  0  0  0
  183.5020  178.1640  142.7140 C   0  0  0  0  0  2  0  0  0  0  0  0
  184.1310  179.3000  143.5050 C   0  0  0  0  0  2  0  0  0  0  0  0
  183.8780  179.1310  144.9900 C   0  0  0  0  0  2  0  0  0  0  0  0
  185.0540  179.3980  145.6920 O   0  0  0  0  0  0  0  0  0  0  0  0
  185.2670  178.2660  146.4850 C   0  0  0  0  0  2  0  0  0  0  0  0
  189.4930  176.5850  143.7860 C   0  0  0  0  0  0  0  0  0  0  0  0
  187.0730  177.3290  144.0940 C   0  0  0  0  0  2  0  0  0  0  0  0
  188.8000  177.7510  147.3010 C   0  0  0  0  0  3  0  0  0  0  0  0
  187.4850  178.0950  147.6180 C   0  0  0  0  0  3  0  0  0  0  0  0
  190.4170  176.3400  142.9700 O   0  0  0  0  0  0  0  0  0  0  0  0
  186.6880  177.9460  146.5370 N   0  0  0  0  0  0  0  0  0  0  0  0
  188.0510  176.3810  143.3730 C   0  0  0  0  0  2  0  0  0  0  0  0
  188.7400  177.3870  145.9720 C   0  0  0  0  0  0  0  0  0  0  0  0
  187.4570  177.5000  145.5330 C   0  0  0  0  0  0  0  0  0  0  0  0
  189.8130  176.9880  145.1250 N   0  0  0  0  0  2  0  0  0  0  0  0
  1 16  1  0  0  0  0
  2  1  1  0  0  0  0
  2 17  1  0  0  0  0
  3  1  2  0  0  0  0
  4  2  1  1  0  0  0
  5 13  1  6  0  0  0
  5  4  1  0  0  0  0
  7  6  1  1  0  0  0
  7  5  1  0  0  0  0
  7  4  1  0  0  0  0
  8 13  1  0  0  0  0
  8 10  1  0  0  0  0
  9  6  1  0  0  0  0
 10  4  1  0  0  0  0
 11 14  1  0  0  0  0
 11  9  1  0  0  0  0
 12 14  2  0  0  0  0
 14 13  1  0  0  0  0
 16 15  1  0  0  0  0
 17 18  1  0  0  0  0
 18 19  1  0  0  0  0
 19 20  1  0  0  0  0
 20 21  1  0  0  0  0
 21 27  1  0  0  0  0
 22 31  1  0  0  0  0
 23 30  1  0  0  0  0
 24 25  2  0  0  0  0
 26 22  2  0  0  0  0
 27 25  1  0  0  0  0
 28 22  1  0  0  0  0
 28 23  1  0  0  0  0
 29 24  1  0  0  0  0
 30 29  2  0  0  0  0
 30 27  1  0  0  0  0
 31 29  1  0  0  0  0
M  END
>  <MODEL>
6

>  <REMARK>
 VINA RESULT:      -7.3      3.730      6.387
  Name = 
  8 active torsions:
  status: ('A' for Active; 'I' for Inactive)
    1  A    between atoms: C_2  and  C_28
    2  A    between atoms: C_4  and  N_12
    3  A    between atoms: N_9  and  C_23
    4  A    between atoms: N_12  and  C_25
    5  A    between atoms: O_15  and  C_20
    6  A    between atoms: O_15  and  C_23
    7  A    between atoms: C_20  and  C_27
    8  A    between atoms: C_25  and  C_27
                            x       y       z     vdW  Elec       q    Type
                         _______ _______ _______ _____ _____    ______ ____

>  <TORSDO>
F 8

$$$$
=
 OpenBabel10262419343D

 31 35  0  0  1  0  0  0  0  0999 V2000
  185.6450  179.0380  145.7910 C   0  0  0  0  0  0  0  0  0  0  0  0
  186.6330  178.0240  145.5150 N   0  0  0  0  0  0  0  0  0  0  0  0
  185.7380  179.7530  146.8250 O   0  0  0  0  0  0  0  0  0  0  0  0
  187.8550  177.9250  146.3210 C   0  0  1  0  0  0  0  0  0  0  0  0
  188.7690  176.9060  145.8340 C   0  0  1  0  0  3  0  0  0  0  0  0
  189.8960  178.2350  144.3650 C   0  0  0  0  0  2  0  0  0  0  0  0
  189.2060  178.3650  145.7150 C   0  0  1  0  0  3  0  0  0  0  0  0
  188.8900  176.7660  148.1880 N   0  0  0  0  0  2  0  0  0  0  0  0
  191.1010  177.2460  144.4360 C   0  0  0  0  0  2  0  0  0  0  0  0
  187.7710  177.6520  147.8240 C   0  0  0  0  0  2  0  0  0  0  0  0
  191.7260  177.0490  145.8440 C   0  0  0  0  0  2  0  0  0  0  0  0
  191.5110  175.4940  147.6570 O   0  0  0  0  0  0  0  0  0  0  0  0
  189.4760  176.3980  146.9660 N   0  0  0  0  0  0  0  0  0  0  0  0
  190.9030  176.2380  146.8440 C   0  0  0  0  0  0  0  0  0  0  0  0
  183.3110  178.9720  145.4540 O   0  0  0  0  0  1  0  0  0  0  0  0
  184.5200  179.2990  144.8450 C   0  0  0  0  0  2  0  0  0  0  0  0
  186.5230  177.2020  144.3110 C   0  0  0  0  0  2  0  0  0  0  0  0
  187.0890  177.9360  143.1060 C   0  0  0  0  0  2  0  0  0  0  0  0
  185.9920  178.2880  142.1220 C   0  0  0  0  0  2  0  0  0  0  0  0
  186.5500  178.4890  140.8590 O   0  0  0  0  0  0  0  0  0  0  0  0
  187.9320  178.4280  141.0600 C   0  0  0  0  0  2  0  0  0  0  0  0
  192.4540  176.7770  138.8720 C   0  0  0  0  0  0  0  0  0  0  0  0
  190.9080  177.4690  140.7780 C   0  0  0  0  0  2  0  0  0  0  0  0
  188.9320  177.3990  137.6900 C   0  0  0  0  0  3  0  0  0  0  0  0
  188.0130  177.8760  138.6270 C   0  0  0  0  0  3  0  0  0  0  0  0
  193.5450  176.2400  138.5500 O   0  0  0  0  0  0  0  0  0  0  0  0
  188.6030  178.0090  139.8350 N   0  0  0  0  0  0  0  0  0  0  0  0
  192.3350  177.5010  140.1960 C   0  0  0  0  0  2  0  0  0  0  0  0
  190.1010  177.2600  138.4080 C   0  0  0  0  0  0  0  0  0  0  0  0
  189.8840  177.6430  139.6960 C   0  0  0  0  0  0  0  0  0  0  0  0
  191.3540  176.7630  137.9510 N   0  0  0  0  0  2  0  0  0  0  0  0
  1  3  2  0  0  0  0
  2  1  1  0  0  0  0
  4  2  1  6  0  0  0
  4 10  1  0  0  0  0
  5  4  1  0  0  0  0
  5 13  1  1  0  0  0
  6  9  1  0  0  0  0
  7  6  1  6  0  0  0
  7  5  1  0  0  0  0
  7  4  1  0  0  0  0
  9 11  1  0  0  0  0
 10  8  1  0  0  0  0
 11 14  1  0  0  0  0
 13  8  1  0  0  0  0
 14 13  1  0  0  0  0
 14 12  2  0  0  0  0
 16 15  1  0  0  0  0
 16  1  1  0  0  0  0
 17  2  1  0  0  0  0
 18 17  1  0  0  0  0
 19 18  1  0  0  0  0
 20 21  1  0  0  0  0
 20 19  1  0  0  0  0
 22 28  1  0  0  0  0
 24 29  1  0  0  0  0
 24 25  2  0  0  0  0
 25 27  1  0  0  0  0
 26 22  2  0  0  0  0
 27 21  1  0  0  0  0
 28 23  1  0  0  0  0
 29 30  2  0  0  0  0
 30 27  1  0  0  0  0
 30 23  1  0  0  0  0
 31 29  1  0  0  0  0
 31 22  1  0  0  0  0
M  END
>  <MODEL>
7

>  <REMARK>
 VINA RESULT:      -7.3      2.110      8.107
  Name = 
  8 active torsions:
  status: ('A' for Active; 'I' for Inactive)
    1  A    between atoms: C_2  and  C_28
    2  A    between atoms: C_4  and  N_12
    3  A    between atoms: N_9  and  C_23
    4  A    between atoms: N_12  and  C_25
    5  A    between atoms: O_15  and  C_20
    6  A    between atoms: O_15  and  C_23
    7  A    between atoms: C_20  and  C_27
    8  A    between atoms: C_25  and  C_27
                            x       y       z     vdW  Elec       q    Type
                         _______ _______ _______ _____ _____    ______ ____

>  <TORSDO>
F 8

$$$$
=
 OpenBabel10262419343D

 31 35  0  0  1  0  0  0  0  0999 V2000
  192.4070  176.4090  138.5760 C   0  0  0  0  0  0  0  0  0  0  0  0
  190.9990  176.6700  138.7550 N   0  0  0  0  0  0  0  0  0  0  0  0
  192.8100  175.7490  137.5810 O   0  0  0  0  0  0  0  0  0  0  0  0
  190.0330  176.3400  137.7020 C   0  0  1  0  0  0  0  0  0  0  0  0
  188.7070  176.8730  137.9670 C   0  0  1  0  0  3  0  0  0  0  0  0
  189.0300  178.9000  136.9750 C   0  0  0  0  0  2  0  0  0  0  0  0
  189.4850  177.4600  136.7900 C   0  0  1  0  0  3  0  0  0  0  0  0
  188.3340  174.7410  137.0250 N   0  0  0  0  0  2  0  0  0  0  0  0
  187.4850  179.0340  136.8060 C   0  0  0  0  0  2  0  0  0  0  0  0
  189.7690  174.8810  137.3230 C   0  0  0  0  0  2  0  0  0  0  0  0
  186.8040  177.9250  135.9580 C   0  0  0  0  0  2  0  0  0  0  0  0
  185.6690  175.8520  136.3670 O   0  0  0  0  0  0  0  0  0  0  0  0
  187.7660  175.9750  137.3790 N   0  0  0  0  0  0  0  0  0  0  0  0
  186.6900  176.5470  136.6090 C   0  0  0  0  0  0  0  0  0  0  0  0
  194.5840  176.1850  139.4560 O   0  0  0  0  0  1  0  0  0  0  0  0
  193.4200  176.9480  139.5290 C   0  0  0  0  0  2  0  0  0  0  0  0
  190.5380  177.4420  139.9080 C   0  0  0  0  0  2  0  0  0  0  0  0
  190.2410  176.5250  141.0840 C   0  0  0  0  0  2  0  0  0  0  0  0
  189.0810  177.0550  141.9040 C   0  0  0  0  0  2  0  0  0  0  0  0
  189.5730  177.6670  143.0570 O   0  0  0  0  0  0  0  0  0  0  0  0
  189.4070  176.7180  144.0700 C   0  0  0  0  0  2  0  0  0  0  0  0
  184.7590  178.7190  145.6030 C   0  0  0  0  0  0  0  0  0  0  0  0
  186.4010  177.6190  143.9920 C   0  0  0  0  0  2  0  0  0  0  0  0
  188.0580  177.9410  147.2480 C   0  0  0  0  0  3  0  0  0  0  0  0
  189.0730  177.4210  146.4410 C   0  0  0  0  0  3  0  0  0  0  0  0
  183.5590  179.0080  145.8400 O   0  0  0  0  0  0  0  0  0  0  0  0
  188.6360  177.2820  145.1700 N   0  0  0  0  0  0  0  0  0  0  0  0
  185.2380  178.6140  144.1710 C   0  0  0  0  0  2  0  0  0  0  0  0
  186.9950  178.1050  146.3840 C   0  0  0  0  0  0  0  0  0  0  0  0
  187.3670  177.7130  145.1350 C   0  0  0  0  0  0  0  0  0  0  0  0
  185.6830  178.5640  146.6900 N   0  0  0  0  0  2  0  0  0  0  0  0
  1  2  1  0  0  0  0
  1 16  1  0  0  0  0
  2 17  1  0  0  0  0
  3  1  2  0  0  0  0
  4  5  1  0  0  0  0
  4  2  1  1  0  0  0
  5 13  1  6  0  0  0
  7  6  1  1  0  0  0
  7  4  1  0  0  0  0
  7  5  1  0  0  0  0
  8 10  1  0  0  0  0
  8 13  1  0  0  0  0
  9  6  1  0  0  0  0
 10  4  1  0  0  0  0
 11 14  1  0  0  0  0
 11  9  1  0  0  0  0
 12 14  2  0  0  0  0
 14 13  1  0  0  0  0
 15 16  1  0  0  0  0
 17 18  1  0  0  0  0
 18 19  1  0  0  0  0
 19 20  1  0  0  0  0
 20 21  1  0  0  0  0
 21 27  1  0  0  0  0
 22 26  2  0  0  0  0
 22 31  1  0  0  0  0
 23 28  1  0  0  0  0
 23 30  1  0  0  0  0
 25 24  2  0  0  0  0
 27 25  1  0  0  0  0
 28 22  1  0  0  0  0
 29 31  1  0  0  0  0
 29 24  1  0  0  0  0
 30 27  1  0  0  0  0
 30 29  2  0  0  0  0
M  END
>  <MODEL>
8

>  <REMARK>
 VINA RESULT:      -7.2      1.950      3.003
  Name = 
  8 active torsions:
  status: ('A' for Active; 'I' for Inactive)
    1  A    between atoms: C_2  and  C_28
    2  A    between atoms: C_4  and  N_12
    3  A    between atoms: N_9  and  C_23
    4  A    between atoms: N_12  and  C_25
    5  A    between atoms: O_15  and  C_20
    6  A    between atoms: O_15  and  C_23
    7  A    between atoms: C_20  and  C_27
    8  A    between atoms: C_25  and  C_27
                            x       y       z     vdW  Elec       q    Type
                         _______ _______ _______ _____ _____    ______ ____

>  <TORSDO>
F 8

$$$$
=
 OpenBabel10262419343D

 31 35  0  0  1  0  0  0  0  0999 V2000
  187.4430  178.4240  141.9860 C   0  0  0  0  0  0  0  0  0  0  0  0
  187.0890  177.7280  143.1990 N   0  0  0  0  0  0  0  0  0  0  0  0
  188.6500  178.5230  141.6380 O   0  0  0  0  0  0  0  0  0  0  0  0
  188.0920  176.9670  143.9500 C   0  0  1  0  0  0  0  0  0  0  0  0
  188.9240  177.8120  144.7920 C   0  0  1  0  0  3  0  0  0  0  0  0
  187.5770  177.7680  146.6300 C   0  0  0  0  0  2  0  0  0  0  0  0
  187.9650  176.8450  145.4850 C   0  0  1  0  0  3  0  0  0  0  0  0
  190.3900  176.1800  143.9200 N   0  0  0  0  0  2  0  0  0  0  0  0
  188.8120  178.1310  147.5110 C   0  0  0  0  0  2  0  0  0  0  0  0
  189.1000  176.0790  143.2170 C   0  0  0  0  0  2  0  0  0  0  0  0
  189.9900  177.1190  147.4660 C   0  0  0  0  0  2  0  0  0  0  0  0
  192.0540  176.8820  146.2670 O   0  0  0  0  0  0  0  0  0  0  0  0
  190.2060  177.1880  144.8780 N   0  0  0  0  0  0  0  0  0  0  0  0
  190.8170  177.0980  146.1810 C   0  0  0  0  0  0  0  0  0  0  0  0
  186.6480  178.6250  139.7740 O   0  0  0  0  0  1  0  0  0  0  0  0
  186.3960  179.0010  141.0920 C   0  0  0  0  0  2  0  0  0  0  0  0
  185.6860  177.6110  143.5930 C   0  0  0  0  0  2  0  0  0  0  0  0
  185.1950  178.9060  144.2230 C   0  0  0  0  0  2  0  0  0  0  0  0
  184.4030  178.6280  145.4850 C   0  0  0  0  0  2  0  0  0  0  0  0
  183.0770  179.0170  145.2940 O   0  0  0  0  0  0  0  0  0  0  0  0
  183.0190  179.4690  143.9720 C   0  0  0  0  0  2  0  0  0  0  0  0
  180.7630  177.8690  139.4660 C   0  0  0  0  0  0  0  0  0  0  0  0
  182.6800  178.6210  140.9690 C   0  0  0  0  0  2  0  0  0  0  0  0
  179.6860  178.2590  143.0550 C   0  0  0  0  0  3  0  0  0  0  0  0
  180.6260  178.7590  143.9590 C   0  0  0  0  0  3  0  0  0  0  0  0
  180.4330  177.3580  138.3650 O   0  0  0  0  0  0  0  0  0  0  0  0
  181.7990  178.9980  143.3300 N   0  0  0  0  0  0  0  0  0  0  0  0
  182.0400  178.6740  139.5680 C   0  0  0  0  0  2  0  0  0  0  0  0
  180.3640  178.2180  141.8550 C   0  0  0  0  0  0  0  0  0  0  0  0
  181.6320  178.6780  142.0390 C   0  0  0  0  0  0  0  0  0  0  0  0
  179.8910  177.7450  140.5980 N   0  0  0  0  0  2  0  0  0  0  0  0
  1  2  1  0  0  0  0
  2 17  1  0  0  0  0
  3  1  2  0  0  0  0
  4  2  1  6  0  0  0
  4  5  1  0  0  0  0
  4  7  1  0  0  0  0
  5 13  1  1  0  0  0
  5  7  1  0  0  0  0
  6  9  1  0  0  0  0
  7  6  1  6  0  0  0
  8 13  1  0  0  0  0
 10  8  1  0  0  0  0
 10  4  1  0  0  0  0
 11  9  1  0  0  0  0
 13 14  1  0  0  0  0
 14 12  2  0  0  0  0
 14 11  1  0  0  0  0
 15 16  1  0  0  0  0
 16  1  1  0  0  0  0
 17 18  1  0  0  0  0
 18 19  1  0  0  0  0
 20 19  1  0  0  0  0
 21 20  1  0  0  0  0
 22 28  1  0  0  0  0
 22 31  1  0  0  0  0
 23 30  1  0  0  0  0
 24 25  2  0  0  0  0
 26 22  2  0  0  0  0
 27 25  1  0  0  0  0
 27 21  1  0  0  0  0
 28 23  1  0  0  0  0
 29 30  2  0  0  0  0
 29 24  1  0  0  0  0
 30 27  1  0  0  0  0
 31 29  1  0  0  0  0
M  END
>  <MODEL>
9

>  <REMARK>
 VINA RESULT:      -7.2      3.712      7.528
  Name = 
  8 active torsions:
  status: ('A' for Active; 'I' for Inactive)
    1  A    between atoms: C_2  and  C_28
    2  A    between atoms: C_4  and  N_12
    3  A    between atoms: N_9  and  C_23
    4  A    between atoms: N_12  and  C_25
    5  A    between atoms: O_15  and  C_20
    6  A    between atoms: O_15  and  C_23
    7  A    between atoms: C_20  and  C_27
    8  A    between atoms: C_25  and  C_27
                            x       y       z     vdW  Elec       q    Type
                         _______ _______ _______ _____ _____    ______ ____

>  <TORSDO>
F 8

$$$$
