=
 OpenBabel10262423363D

 34 34  0  0  1  0  0  0  0  0999 V2000
  186.6440  178.5990  141.3430 C   0  0  0  0  0  0  0  0  0  0  0  0
  187.8970  178.4860  141.3650 O   0  0  0  0  0  0  0  0  0  0  0  0
  185.9110  178.1180  142.4360 O   0  0  0  0  0  0  0  0  0  0  0  0
  185.8430  178.7770  143.6940 C   0  0  2  0  0  3  0  0  0  0  0  0
  185.8250  177.7370  144.8070 C   0  0  0  0  0  2  0  0  0  0  0  0
  189.5400  176.9210  146.8760 C   0  0  2  0  0  3  0  0  0  0  0  0
  189.6840  177.5420  145.4900 C   0  0  0  0  0  2  0  0  0  0  0  0
  188.3890  177.3590  144.7000 C   0  0  0  0  0  2  0  0  0  0  0  0
  187.1680  177.7210  146.8500 C   0  0  0  0  0  3  0  0  0  0  0  0
  187.1460  177.6690  145.5070 C   0  0  0  0  0  0  0  0  0  0  0  0
  188.4410  177.6460  147.6500 C   0  0  0  0  0  2  0  0  0  0  0  0
  190.7750  176.9590  147.5870 O   0  0  0  0  0  0  0  0  0  0  0  0
  192.7150  175.7470  148.1430 C   0  0  0  0  0  2  0  0  0  0  0  0
  191.8690  176.1760  147.2200 C   0  0  0  0  0  3  0  0  0  0  0  0
  184.5770  179.6230  143.7690 C   0  0  0  0  0  2  0  0  0  0  0  0
  182.1730  178.9850  143.7800 C   0  0  0  0  0  1  0  0  0  0  0  0
  183.4800  178.9150  144.5440 C   0  0  0  0  0  2  0  0  0  0  0  0
  186.0490  179.1890  140.2190 O   0  0  0  0  0  0  0  0  0  0  0  0
  185.4540  178.4480  139.1590 C   0  0  1  0  0  3  0  0  0  0  0  0
  183.2390  178.3240  137.9700 O   0  0  0  0  0  0  0  0  0  0  0  0
  184.0860  178.9860  138.8520 C   0  0  0  0  0  0  0  0  0  0  0  0
  183.6860  180.0330  139.4240 O   0  0  0  0  0  1  0  0  0  0  0  0
  186.3560  178.4580  137.9250 C   0  0  0  0  0  2  0  0  0  0  0  0
  187.3800  177.3140  137.9160 C   0  0  1  0  0  3  0  0  0  0  0  0
  187.3550  176.5630  136.5770 C   0  0  2  0  0  3  0  0  0  0  0  0
  186.0860  176.8820  135.8000 C   0  0  0  0  0  1  0  0  0  0  0  0
  187.4940  175.1120  136.7400 N   0  0  0  0  0  0  0  0  0  0  0  0
  186.3780  174.3160  137.1650 C   0  0  0  0  0  3  0  0  0  0  0  0
  186.4570  172.9970  137.2990 C   0  0  0  0  0  2  0  0  0  0  0  0
  188.8190  174.4950  136.7460 C   0  0  0  0  0  2  0  0  0  0  0  0
  190.7240  175.7860  135.8640 C   0  0  0  0  0  2  0  0  0  0  0  0
  189.6630  175.0180  135.6270 C   0  0  0  0  0  3  0  0  0  0  0  0
  188.6630  177.7980  138.2010 O   0  0  0  0  0  0  0  0  0  0  0  0
  188.8740  178.8300  137.2820 C   0  0  0  0  0  1  0  0  0  0  0  0
  1  2  2  0  0  0  0
  1  3  1  0  0  0  0
  3  4  1  0  0  0  0
  4 15  1  6  0  0  0
  4  5  1  0  0  0  0
  5 10  1  0  0  0  0
  6 12  1  1  0  0  0
  6 11  1  0  0  0  0
  7  6  1  0  0  0  0
  8  7  1  0  0  0  0
  8 10  1  0  0  0  0
  9 11  1  0  0  0  0
 10  9  2  0  0  0  0
 14 12  1  0  0  0  0
 14 13  2  0  0  0  0
 15 17  1  0  0  0  0
 16 17  1  0  0  0  0
 18  1  1  0  0  0  0
 19 23  1  6  0  0  0
 19 18  1  0  0  0  0
 20 21  2  0  0  0  0
 21 19  1  0  0  0  0
 21 22  1  0  0  0  0
 24 23  1  6  0  0  0
 24 33  1  0  0  0  0
 25 26  1  1  0  0  0
 25 27  1  0  0  0  0
 25 24  1  0  0  0  0
 27 30  1  0  0  0  0
 27 28  1  0  0  0  0
 28 29  2  0  0  0  0
 32 31  2  0  0  0  0
 32 30  1  0  0  0  0
 34 33  1  0  0  0  0
M  END
>  <MODEL>
1

>  <REMARK>
 VINA RESULT:      -6.4      0.000      0.000
  Name = 
  19 active torsions:
  status: ('A' for Active; 'I' for Inactive)
    1  A    between atoms: C_1  and  O_8
    2  A    between atoms: C_1  and  O_34
    3  A    between atoms: C_2  and  N_25
    4  A    between atoms: C_2  and  C_32
    5  A    between atoms: C_3  and  C_24
    6  A    between atoms: C_3  and  N_25
    7  A    between atoms: C_5  and  C_20
    8  A    between atoms: C_5  and  C_32
    9  A    between atoms: C_6  and  C_18
   10  A    between atoms: C_6  and  C_28
   11  A    between atoms: C_7  and  O_11
   12  A    between atoms: O_8  and  C_18
   13  A    between atoms: O_11  and  C_21
   14  A    between atoms: C_12  and  C_20
   15  A    between atoms: C_18  and  C_30
   16  A    between atoms: O_19  and  C_32
   17  A    between atoms: C_20  and  O_34
   18  A    between atoms: N_25  and  C_27
   19  A    between atoms: C_30  and  C_31
                            x       y       z     vdW  Elec       q    Type
                         _______ _______ _______ _____ _____    ______ ____

>  <TORSDO>
F 19

$$$$
=
 OpenBabel10262423363D

 34 34  0  0  1  0  0  0  0  0999 V2000
  190.5220  178.6320  143.7280 C   0  0  0  0  0  0  0  0  0  0  0  0
  191.4970  179.4270  143.7590 O   0  0  0  0  0  0  0  0  0  0  0  0
  189.8390  178.3660  144.9230 O   0  0  0  0  0  0  0  0  0  0  0  0
  189.9790  177.1580  145.6600 C   0  0  2  0  0  3  0  0  0  0  0  0
  189.0810  177.2120  146.8890 C   0  0  0  0  0  2  0  0  0  0  0  0
  184.9870  178.4370  146.1890 C   0  0  2  0  0  3  0  0  0  0  0  0
  185.7970  179.3480  147.1070 C   0  0  0  0  0  2  0  0  0  0  0  0
  187.0210  178.6010  147.6340 C   0  0  0  0  0  2  0  0  0  0  0  0
  187.1720  177.5100  145.3910 C   0  0  0  0  0  3  0  0  0  0  0  0
  187.7510  177.8170  146.5640 C   0  0  0  0  0  0  0  0  0  0  0  0
  185.8310  178.0540  144.9750 C   0  0  0  0  0  2  0  0  0  0  0  0
  183.7700  179.0620  145.7880 O   0  0  0  0  0  0  0  0  0  0  0  0
  182.8380  179.4970  143.6710 C   0  0  0  0  0  2  0  0  0  0  0  0
  183.0590  178.6480  144.6620 C   0  0  0  0  0  3  0  0  0  0  0  0
  191.4280  176.9810  146.0970 C   0  0  0  0  0  2  0  0  0  0  0  0
  192.5560  175.5960  147.8280 C   0  0  0  0  0  1  0  0  0  0  0  0
  191.5290  176.6830  147.5830 C   0  0  0  0  0  2  0  0  0  0  0  0
  190.1790  178.0470  142.5010 O   0  0  0  0  0  0  0  0  0  0  0  0
  190.6880  176.7960  142.0520 C   0  0  1  0  0  3  0  0  0  0  0  0
  188.6220  175.6490  142.9170 O   0  0  0  0  0  0  0  0  0  0  0  0
  190.0040  175.6680  142.7670 C   0  0  0  0  0  0  0  0  0  0  0  0
  190.6860  174.7070  143.2090 O   0  0  0  0  0  1  0  0  0  0  0  0
  190.5460  176.6730  140.5340 C   0  0  0  0  0  2  0  0  0  0  0  0
  189.5680  177.6940  139.9340 C   0  0  1  0  0  3  0  0  0  0  0  0
  189.8270  177.8900  138.4350 C   0  0  2  0  0  3  0  0  0  0  0  0
  189.1350  179.1460  137.9240 C   0  0  0  0  0  1  0  0  0  0  0  0
  189.4200  176.7300  137.6340 N   0  0  0  0  0  0  0  0  0  0  0  0
  188.0900  176.6440  137.1000 C   0  0  0  0  0  3  0  0  0  0  0  0
  187.3580  175.5400  137.1930 C   0  0  0  0  0  2  0  0  0  0  0  0
  190.2520  175.5300  137.5990 C   0  0  0  0  0  2  0  0  0  0  0  0
  192.6910  175.1750  137.6130 C   0  0  0  0  0  2  0  0  0  0  0  0
  191.6420  175.8500  137.1470 C   0  0  0  0  0  3  0  0  0  0  0  0
  188.2430  177.3070  140.1730 O   0  0  0  0  0  0  0  0  0  0  0  0
  187.6460  178.4100  140.7880 C   0  0  0  0  0  1  0  0  0  0  0  0
  1  2  2  0  0  0  0
  1  3  1  0  0  0  0
  3  4  1  0  0  0  0
  4 15  1  1  0  0  0
  4  5  1  0  0  0  0
  6 12  1  6  0  0  0
  6  7  1  0  0  0  0
  7  8  1  0  0  0  0
  9 10  2  0  0  0  0
 10  5  1  0  0  0  0
 10  8  1  0  0  0  0
 11  9  1  0  0  0  0
 11  6  1  0  0  0  0
 13 14  2  0  0  0  0
 14 12  1  0  0  0  0
 15 17  1  0  0  0  0
 17 16  1  0  0  0  0
 18  1  1  0  0  0  0
 19 23  1  6  0  0  0
 19 18  1  0  0  0  0
 19 21  1  0  0  0  0
 21 20  2  0  0  0  0
 21 22  1  0  0  0  0
 24 33  1  0  0  0  0
 24 23  1  6  0  0  0
 25 26  1  6  0  0  0
 25 24  1  0  0  0  0
 27 25  1  0  0  0  0
 28 29  2  0  0  0  0
 28 27  1  0  0  0  0
 30 27  1  0  0  0  0
 32 30  1  0  0  0  0
 32 31  2  0  0  0  0
 33 34  1  0  0  0  0
M  END
>  <MODEL>
2

>  <REMARK>
 VINA RESULT:      -6.3      2.336      5.763
  Name = 
  19 active torsions:
  status: ('A' for Active; 'I' for Inactive)
    1  A    between atoms: C_1  and  O_8
    2  A    between atoms: C_1  and  O_34
    3  A    between atoms: C_2  and  N_25
    4  A    between atoms: C_2  and  C_32
    5  A    between atoms: C_3  and  C_24
    6  A    between atoms: C_3  and  N_25
    7  A    between atoms: C_5  and  C_20
    8  A    between atoms: C_5  and  C_32
    9  A    between atoms: C_6  and  C_18
   10  A    between atoms: C_6  and  C_28
   11  A    between atoms: C_7  and  O_11
   12  A    between atoms: O_8  and  C_18
   13  A    between atoms: O_11  and  C_21
   14  A    between atoms: C_12  and  C_20
   15  A    between atoms: C_18  and  C_30
   16  A    between atoms: O_19  and  C_32
   17  A    between atoms: C_20  and  O_34
   18  A    between atoms: N_25  and  C_27
   19  A    between atoms: C_30  and  C_31
                            x       y       z     vdW  Elec       q    Type
                         _______ _______ _______ _____ _____    ______ ____

>  <TORSDO>
F 19

$$$$
=
 OpenBabel10262423363D

 34 34  0  0  1  0  0  0  0  0999 V2000
  190.5760  178.7830  144.1900 C   0  0  0  0  0  0  0  0  0  0  0  0
  191.6010  179.4850  144.3900 O   0  0  0  0  0  0  0  0  0  0  0  0
  189.7220  178.5230  145.2700 O   0  0  0  0  0  0  0  0  0  0  0  0
  189.6610  177.2740  145.9470 C   0  0  2  0  0  3  0  0  0  0  0  0
  188.3080  177.1380  146.6310 C   0  0  0  0  0  2  0  0  0  0  0  0
  184.8160  178.5160  144.4720 C   0  0  2  0  0  3  0  0  0  0  0  0
  185.3330  179.4590  145.5550 C   0  0  0  0  0  2  0  0  0  0  0  0
  186.2360  178.6950  146.5220 C   0  0  0  0  0  2  0  0  0  0  0  0
  187.0600  177.4070  144.5450 C   0  0  0  0  0  3  0  0  0  0  0  0
  187.2240  177.7830  145.8250 C   0  0  0  0  0  0  0  0  0  0  0  0
  185.9920  177.9830  143.6550 C   0  0  0  0  0  2  0  0  0  0  0  0
  183.8660  179.1680  143.6330 O   0  0  0  0  0  0  0  0  0  0  0  0
  181.6190  178.7730  143.0520 C   0  0  0  0  0  2  0  0  0  0  0  0
  182.5050  179.2020  143.9370 C   0  0  0  0  0  3  0  0  0  0  0  0
  190.7680  177.1960  146.9910 C   0  0  0  0  0  2  0  0  0  0  0  0
  192.6230  175.7540  147.8060 C   0  0  0  0  0  1  0  0  0  0  0  0
  191.2320  175.7660  147.2040 C   0  0  0  0  0  2  0  0  0  0  0  0
  190.3510  178.2880  142.8970 O   0  0  0  0  0  0  0  0  0  0  0  0
  190.9850  177.1260  142.3740 C   0  0  1  0  0  3  0  0  0  0  0  0
  190.7680  174.7110  143.0480 O   0  0  0  0  0  1  0  0  0  0  0  0
  190.1640  175.9060  142.6730 C   0  0  0  0  0  0  0  0  0  0  0  0
  188.9090  175.9710  142.6160 O   0  0  0  0  0  0  0  0  0  0  0  0
  191.2400  177.2830  140.8740 C   0  0  0  0  0  2  0  0  0  0  0  0
  190.0640  176.8060  140.0090 C   0  0  1  0  0  3  0  0  0  0  0  0
  189.3040  177.9960  139.4070 C   0  0  2  0  0  3  0  0  0  0  0  0
  188.2520  178.5140  140.3770 C   0  0  0  0  0  1  0  0  0  0  0  0
  188.6860  177.6770  138.1160 N   0  0  0  0  0  0  0  0  0  0  0  0
  189.1210  178.3370  136.9180 C   0  0  0  0  0  3  0  0  0  0  0  0
  189.5200  177.6670  135.8430 C   0  0  0  0  0  2  0  0  0  0  0  0
  187.4480  176.9040  138.0620 C   0  0  0  0  0  2  0  0  0  0  0  0
  185.4490  178.3450  138.1350 C   0  0  0  0  0  2  0  0  0  0  0  0
  186.3500  177.6850  137.4100 C   0  0  0  0  0  3  0  0  0  0  0  0
  190.5110  175.9330  139.0090 O   0  0  0  0  0  0  0  0  0  0  0  0
  191.8160  176.3440  138.7240 C   0  0  0  0  0  1  0  0  0  0  0  0
  1  2  2  0  0  0  0
  1  3  1  0  0  0  0
  3  4  1  0  0  0  0
  4  5  1  1  0  0  0
  4 15  1  0  0  0  0
  6 12  1  6  0  0  0
  6  7  1  0  0  0  0
  7  8  1  0  0  0  0
  9 10  2  0  0  0  0
 10  8  1  0  0  0  0
 10  5  1  0  0  0  0
 11  6  1  0  0  0  0
 11  9  1  0  0  0  0
 12 14  1  0  0  0  0
 13 14  2  0  0  0  0
 15 17  1  0  0  0  0
 17 16  1  0  0  0  0
 18  1  1  0  0  0  0
 19 23  1  6  0  0  0
 19 21  1  0  0  0  0
 19 18  1  0  0  0  0
 21 20  1  0  0  0  0
 22 21  2  0  0  0  0
 24 23  1  6  0  0  0
 25 24  1  0  0  0  0
 25 26  1  1  0  0  0
 27 25  1  0  0  0  0
 28 27  1  0  0  0  0
 29 28  2  0  0  0  0
 30 27  1  0  0  0  0
 32 30  1  0  0  0  0
 32 31  2  0  0  0  0
 33 24  1  0  0  0  0
 34 33  1  0  0  0  0
M  END
>  <MODEL>
3

>  <REMARK>
 VINA RESULT:      -6.2      2.362      6.239
  Name = 
  19 active torsions:
  status: ('A' for Active; 'I' for Inactive)
    1  A    between atoms: C_1  and  O_8
    2  A    between atoms: C_1  and  O_34
    3  A    between atoms: C_2  and  N_25
    4  A    between atoms: C_2  and  C_32
    5  A    between atoms: C_3  and  C_24
    6  A    between atoms: C_3  and  N_25
    7  A    between atoms: C_5  and  C_20
    8  A    between atoms: C_5  and  C_32
    9  A    between atoms: C_6  and  C_18
   10  A    between atoms: C_6  and  C_28
   11  A    between atoms: C_7  and  O_11
   12  A    between atoms: O_8  and  C_18
   13  A    between atoms: O_11  and  C_21
   14  A    between atoms: C_12  and  C_20
   15  A    between atoms: C_18  and  C_30
   16  A    between atoms: O_19  and  C_32
   17  A    between atoms: C_20  and  O_34
   18  A    between atoms: N_25  and  C_27
   19  A    between atoms: C_30  and  C_31
                            x       y       z     vdW  Elec       q    Type
                         _______ _______ _______ _____ _____    ______ ____

>  <TORSDO>
F 19

$$$$
=
 OpenBabel10262423363D

 34 34  0  0  1  0  0  0  0  0999 V2000
  185.9900  178.8920  141.2920 C   0  0  0  0  0  0  0  0  0  0  0  0
  187.2190  178.7120  141.0880 O   0  0  0  0  0  0  0  0  0  0  0  0
  185.4120  178.3250  142.4360 O   0  0  0  0  0  0  0  0  0  0  0  0
  185.6440  178.7980  143.7570 C   0  0  2  0  0  3  0  0  0  0  0  0
  185.6820  177.6150  144.7150 C   0  0  0  0  0  2  0  0  0  0  0  0
  189.8030  177.4790  146.0350 C   0  0  2  0  0  3  0  0  0  0  0  0
  188.7670  177.0650  147.0750 C   0  0  0  0  0  2  0  0  0  0  0  0
  187.3870  177.5790  146.6690 C   0  0  0  0  0  2  0  0  0  0  0  0
  188.0350  177.0930  144.3050 C   0  0  0  0  0  3  0  0  0  0  0  0
  187.0720  177.3560  145.2050 C   0  0  0  0  0  0  0  0  0  0  0  0
  189.4660  176.8330  144.6920 C   0  0  0  0  0  2  0  0  0  0  0  0
  191.1200  177.1280  146.4530 O   0  0  0  0  0  0  0  0  0  0  0  0
  192.5780  175.8980  147.8320 C   0  0  0  0  0  2  0  0  0  0  0  0
  191.3650  176.0740  147.3330 C   0  0  0  0  0  3  0  0  0  0  0  0
  184.5300  179.7510  144.1690 C   0  0  0  0  0  2  0  0  0  0  0  0
  182.2240  178.8450  143.9530 C   0  0  0  0  0  1  0  0  0  0  0  0
  183.4070  179.0190  144.8840 C   0  0  0  0  0  2  0  0  0  0  0  0
  185.2630  179.6410  140.3560 O   0  0  0  0  0  0  0  0  0  0  0  0
  184.4110  179.0650  139.3720 C   0  0  1  0  0  3  0  0  0  0  0  0
  184.8160  177.1010  137.8510 O   0  0  0  0  0  0  0  0  0  0  0  0
  185.2230  178.3370  138.3410 C   0  0  0  0  0  0  0  0  0  0  0  0
  186.2720  178.8650  137.8880 O   0  0  0  0  0  1  0  0  0  0  0  0
  183.3780  178.1480  140.0290 C   0  0  0  0  0  2  0  0  0  0  0  0
  181.9410  178.4310  139.5690 C   0  0  1  0  0  3  0  0  0  0  0  0
  181.3030  177.1790  138.9520 C   0  0  2  0  0  3  0  0  0  0  0  0
  181.8900  175.9140  139.5620 C   0  0  0  0  0  1  0  0  0  0  0  0
  181.4300  177.1400  137.4920 N   0  0  0  0  0  0  0  0  0  0  0  0
  181.4700  175.8850  136.7970 C   0  0  0  0  0  3  0  0  0  0  0  0
  182.2800  175.6690  135.7670 C   0  0  0  0  0  2  0  0  0  0  0  0
  181.7950  178.3450  136.7510 C   0  0  0  0  0  2  0  0  0  0  0  0
  180.5360  180.3970  136.2230 C   0  0  0  0  0  2  0  0  0  0  0  0
  180.5800  179.0670  136.2610 C   0  0  0  0  0  3  0  0  0  0  0  0
  181.1700  178.9200  140.6320 O   0  0  0  0  0  0  0  0  0  0  0  0
  180.1440  179.6530  140.0310 C   0  0  0  0  0  1  0  0  0  0  0  0
  1  3  1  0  0  0  0
  2  1  2  0  0  0  0
  3  4  1  0  0  0  0
  4 15  1  1  0  0  0
  4  5  1  0  0  0  0
  5 10  1  0  0  0  0
  6 12  1  1  0  0  0
  6  7  1  0  0  0  0
  8  7  1  0  0  0  0
  9 11  1  0  0  0  0
  9 10  2  0  0  0  0
 10  8  1  0  0  0  0
 11  6  1  0  0  0  0
 12 14  1  0  0  0  0
 14 13  2  0  0  0  0
 15 17  1  0  0  0  0
 16 17  1  0  0  0  0
 18  1  1  0  0  0  0
 19 23  1  1  0  0  0
 19 18  1  0  0  0  0
 20 21  2  0  0  0  0
 21 19  1  0  0  0  0
 22 21  1  0  0  0  0
 24 23  1  1  0  0  0
 24 33  1  0  0  0  0
 25 26  1  1  0  0  0
 25 24  1  0  0  0  0
 27 25  1  0  0  0  0
 28 27  1  0  0  0  0
 29 28  2  0  0  0  0
 30 27  1  0  0  0  0
 31 32  2  0  0  0  0
 32 30  1  0  0  0  0
 34 33  1  0  0  0  0
M  END
>  <MODEL>
4

>  <REMARK>
 VINA RESULT:      -6.2      2.782      4.551
  Name = 
  19 active torsions:
  status: ('A' for Active; 'I' for Inactive)
    1  A    between atoms: C_1  and  O_8
    2  A    between atoms: C_1  and  O_34
    3  A    between atoms: C_2  and  N_25
    4  A    between atoms: C_2  and  C_32
    5  A    between atoms: C_3  and  C_24
    6  A    between atoms: C_3  and  N_25
    7  A    between atoms: C_5  and  C_20
    8  A    between atoms: C_5  and  C_32
    9  A    between atoms: C_6  and  C_18
   10  A    between atoms: C_6  and  C_28
   11  A    between atoms: C_7  and  O_11
   12  A    between atoms: O_8  and  C_18
   13  A    between atoms: O_11  and  C_21
   14  A    between atoms: C_12  and  C_20
   15  A    between atoms: C_18  and  C_30
   16  A    between atoms: O_19  and  C_32
   17  A    between atoms: C_20  and  O_34
   18  A    between atoms: N_25  and  C_27
   19  A    between atoms: C_30  and  C_31
                            x       y       z     vdW  Elec       q    Type
                         _______ _______ _______ _____ _____    ______ ____

>  <TORSDO>
F 19

$$$$
=
 OpenBabel10262423363D

 34 34  0  0  1  0  0  0  0  0999 V2000
  186.7550  178.5970  141.0820 C   0  0  0  0  0  0  0  0  0  0  0  0
  188.0050  178.6420  141.2210 O   0  0  0  0  0  0  0  0  0  0  0  0
  185.9810  178.1140  142.1460 O   0  0  0  0  0  0  0  0  0  0  0  0
  185.9710  178.6940  143.4440 C   0  0  2  0  0  3  0  0  0  0  0  0
  186.0150  177.5880  144.4900 C   0  0  0  0  0  2  0  0  0  0  0  0
  189.6640  177.0660  146.7610 C   0  0  2  0  0  3  0  0  0  0  0  0
  189.8290  177.7290  145.3970 C   0  0  0  0  0  2  0  0  0  0  0  0
  188.6050  177.4460  144.5290 C   0  0  0  0  0  2  0  0  0  0  0  0
  187.2340  177.6480  146.6090 C   0  0  0  0  0  3  0  0  0  0  0  0
  187.2940  177.6240  145.2660 C   0  0  0  0  0  0  0  0  0  0  0  0
  188.4600  177.6710  147.4810 C   0  0  0  0  0  2  0  0  0  0  0  0
  190.8470  177.2010  147.5450 O   0  0  0  0  0  0  0  0  0  0  0  0
  192.1920  175.5280  146.5800 C   0  0  0  0  0  2  0  0  0  0  0  0
  191.7830  176.1730  147.6610 C   0  0  0  0  0  3  0  0  0  0  0  0
  184.7060  179.5220  143.6330 C   0  0  0  0  0  2  0  0  0  0  0  0
  182.3560  178.8640  144.1120 C   0  0  0  0  0  1  0  0  0  0  0  0
  183.7730  178.8890  144.6500 C   0  0  0  0  0  2  0  0  0  0  0  0
  186.2050  179.0230  139.8650 O   0  0  0  0  0  0  0  0  0  0  0  0
  185.7160  178.1360  138.8650 C   0  0  1  0  0  3  0  0  0  0  0  0
  183.5740  179.4530  138.7540 O   0  0  0  0  0  1  0  0  0  0  0  0
  184.2200  178.2220  138.7790 C   0  0  0  0  0  0  0  0  0  0  0  0
  183.5400  177.1660  138.6930 O   0  0  0  0  0  0  0  0  0  0  0  0
  186.3780  178.4290  137.5180 C   0  0  0  0  0  2  0  0  0  0  0  0
  187.2400  177.2680  137.0030 C   0  0  1  0  0  3  0  0  0  0  0  0
  188.6790  177.3760  137.5270 C   0  0  2  0  0  3  0  0  0  0  0  0
  189.0860  178.8320  137.6980 C   0  0  0  0  0  1  0  0  0  0  0  0
  189.6460  176.6800  136.6710 N   0  0  0  0  0  0  0  0  0  0  0  0
  190.9820  176.4320  137.1330 C   0  0  0  0  0  3  0  0  0  0  0  0
  191.2380  175.6700  138.1890 C   0  0  0  0  0  2  0  0  0  0  0  0
  189.3630  176.4770  135.2520 C   0  0  0  0  0  2  0  0  0  0  0  0
  189.1650  174.0750  134.7380 C   0  0  0  0  0  2  0  0  0  0  0  0
  189.9160  175.1730  134.7710 C   0  0  0  0  0  3  0  0  0  0  0  0
  186.6670  176.0370  137.3490 O   0  0  0  0  0  0  0  0  0  0  0  0
  185.8680  175.6880  136.2570 C   0  0  0  0  0  1  0  0  0  0  0  0
  1  2  2  0  0  0  0
  1  3  1  0  0  0  0
  3  4  1  0  0  0  0
  4 15  1  1  0  0  0
  4  5  1  0  0  0  0
  5 10  1  0  0  0  0
  6 11  1  0  0  0  0
  6 12  1  1  0  0  0
  7  6  1  0  0  0  0
  8 10  1  0  0  0  0
  8  7  1  0  0  0  0
  9 11  1  0  0  0  0
 10  9  2  0  0  0  0
 12 14  1  0  0  0  0
 13 14  2  0  0  0  0
 15 17  1  0  0  0  0
 16 17  1  0  0  0  0
 18  1  1  0  0  0  0
 19 23  1  6  0  0  0
 19 18  1  0  0  0  0
 20 21  1  0  0  0  0
 21 19  1  0  0  0  0
 22 21  2  0  0  0  0
 24 33  1  0  0  0  0
 24 23  1  1  0  0  0
 24 25  1  0  0  0  0
 25 26  1  6  0  0  0
 27 28  1  0  0  0  0
 27 25  1  0  0  0  0
 28 29  2  0  0  0  0
 30 27  1  0  0  0  0
 31 32  2  0  0  0  0
 32 30  1  0  0  0  0
 34 33  1  0  0  0  0
M  END
>  <MODEL>
5

>  <REMARK>
 VINA RESULT:      -6.1      1.136      2.043
  Name = 
  19 active torsions:
  status: ('A' for Active; 'I' for Inactive)
    1  A    between atoms: C_1  and  O_8
    2  A    between atoms: C_1  and  O_34
    3  A    between atoms: C_2  and  N_25
    4  A    between atoms: C_2  and  C_32
    5  A    between atoms: C_3  and  C_24
    6  A    between atoms: C_3  and  N_25
    7  A    between atoms: C_5  and  C_20
    8  A    between atoms: C_5  and  C_32
    9  A    between atoms: C_6  and  C_18
   10  A    between atoms: C_6  and  C_28
   11  A    between atoms: C_7  and  O_11
   12  A    between atoms: O_8  and  C_18
   13  A    between atoms: O_11  and  C_21
   14  A    between atoms: C_12  and  C_20
   15  A    between atoms: C_18  and  C_30
   16  A    between atoms: O_19  and  C_32
   17  A    between atoms: C_20  and  O_34
   18  A    between atoms: N_25  and  C_27
   19  A    between atoms: C_30  and  C_31
                            x       y       z     vdW  Elec       q    Type
                         _______ _______ _______ _____ _____    ______ ____

>  <TORSDO>
F 19

$$$$
=
 OpenBabel10262423363D

 34 34  0  0  1  0  0  0  0  0999 V2000
  186.1830  178.7540  141.2940 C   0  0  0  0  0  0  0  0  0  0  0  0
  187.4170  178.7150  141.0550 O   0  0  0  0  0  0  0  0  0  0  0  0
  185.7070  178.1320  142.4560 O   0  0  0  0  0  0  0  0  0  0  0  0
  185.5630  178.7960  143.7050 C   0  0  2  0  0  3  0  0  0  0  0  0
  185.6340  177.7730  144.8310 C   0  0  0  0  0  2  0  0  0  0  0  0
  189.4880  177.0640  146.6730 C   0  0  2  0  0  3  0  0  0  0  0  0
  189.5310  177.6950  145.2850 C   0  0  0  0  0  2  0  0  0  0  0  0
  188.1980  177.4750  144.5710 C   0  0  0  0  0  2  0  0  0  0  0  0
  187.0950  177.7900  146.7910 C   0  0  0  0  0  3  0  0  0  0  0  0
  186.9960  177.7430  145.4520 C   0  0  0  0  0  0  0  0  0  0  0  0
  188.4140  177.7510  147.5150 C   0  0  0  0  0  2  0  0  0  0  0  0
  190.7610  177.1370  147.3110 O   0  0  0  0  0  0  0  0  0  0  0  0
  192.4980  175.6520  147.8730 C   0  0  0  0  0  2  0  0  0  0  0  0
  191.8250  176.3130  146.9450 C   0  0  0  0  0  3  0  0  0  0  0  0
  184.2210  179.5170  143.7580 C   0  0  0  0  0  2  0  0  0  0  0  0
  181.7640  179.2260  144.0130 C   0  0  0  0  0  1  0  0  0  0  0  0
  183.0620  178.5440  143.6300 C   0  0  0  0  0  2  0  0  0  0  0  0
  185.3470  179.4070  140.3760 O   0  0  0  0  0  0  0  0  0  0  0  0
  184.4310  178.7320  139.5220 C   0  0  1  0  0  3  0  0  0  0  0  0
  182.8240  180.4540  138.6360 O   0  0  0  0  0  0  0  0  0  0  0  0
  183.1000  179.4270  139.5310 C   0  0  0  0  0  0  0  0  0  0  0  0
  182.2090  179.0550  140.3370 O   0  0  0  0  0  1  0  0  0  0  0  0
  185.0000  178.6190  138.1070 C   0  0  0  0  0  2  0  0  0  0  0  0
  185.3180  177.1740  137.6970 C   0  0  1  0  0  3  0  0  0  0  0  0
  184.1720  176.5690  136.8750 C   0  0  2  0  0  3  0  0  0  0  0  0
  183.2180  177.6540  136.3940 C   0  0  0  0  0  1  0  0  0  0  0  0
  183.4310  175.5380  137.6090 N   0  0  0  0  0  0  0  0  0  0  0  0
  182.2160  175.8640  138.2980 C   0  0  0  0  0  3  0  0  0  0  0  0
  182.0730  175.6920  139.6070 C   0  0  0  0  0  2  0  0  0  0  0  0
  184.0490  174.2430  137.8850 C   0  0  0  0  0  2  0  0  0  0  0  0
  184.3460  172.1830  136.5660 C   0  0  0  0  0  2  0  0  0  0  0  0
  184.3630  173.5120  136.6170 C   0  0  0  0  0  3  0  0  0  0  0  0
  186.5290  177.1160  136.9960 O   0  0  0  0  0  0  0  0  0  0  0  0
  187.4580  177.7550  137.8210 C   0  0  0  0  0  1  0  0  0  0  0  0
  1  3  1  0  0  0  0
  2  1  2  0  0  0  0
  3  4  1  0  0  0  0
  4 15  1  6  0  0  0
  4  5  1  0  0  0  0
  5 10  1  0  0  0  0
  6 12  1  1  0  0  0
  6 11  1  0  0  0  0
  7  6  1  0  0  0  0
  8  7  1  0  0  0  0
  8 10  1  0  0  0  0
  9 11  1  0  0  0  0
 10  9  2  0  0  0  0
 14 12  1  0  0  0  0
 14 13  2  0  0  0  0
 17 15  1  0  0  0  0
 17 16  1  0  0  0  0
 18  1  1  0  0  0  0
 19 23  1  6  0  0  0
 19 21  1  0  0  0  0
 19 18  1  0  0  0  0
 20 21  2  0  0  0  0
 21 22  1  0  0  0  0
 24 23  1  6  0  0  0
 25 26  1  1  0  0  0
 25 27  1  0  0  0  0
 25 24  1  0  0  0  0
 27 30  1  0  0  0  0
 27 28  1  0  0  0  0
 28 29  2  0  0  0  0
 31 32  2  0  0  0  0
 32 30  1  0  0  0  0
 33 24  1  0  0  0  0
 33 34  1  0  0  0  0
M  END
>  <MODEL>
6

>  <REMARK>
 VINA RESULT:      -6.0      1.782      2.606
  Name = 
  19 active torsions:
  status: ('A' for Active; 'I' for Inactive)
    1  A    between atoms: C_1  and  O_8
    2  A    between atoms: C_1  and  O_34
    3  A    between atoms: C_2  and  N_25
    4  A    between atoms: C_2  and  C_32
    5  A    between atoms: C_3  and  C_24
    6  A    between atoms: C_3  and  N_25
    7  A    between atoms: C_5  and  C_20
    8  A    between atoms: C_5  and  C_32
    9  A    between atoms: C_6  and  C_18
   10  A    between atoms: C_6  and  C_28
   11  A    between atoms: C_7  and  O_11
   12  A    between atoms: O_8  and  C_18
   13  A    between atoms: O_11  and  C_21
   14  A    between atoms: C_12  and  C_20
   15  A    between atoms: C_18  and  C_30
   16  A    between atoms: O_19  and  C_32
   17  A    between atoms: C_20  and  O_34
   18  A    between atoms: N_25  and  C_27
   19  A    between atoms: C_30  and  C_31
                            x       y       z     vdW  Elec       q    Type
                         _______ _______ _______ _____ _____    ______ ____

>  <TORSDO>
F 19

$$$$
=
 OpenBabel10262423363D

 34 34  0  0  1  0  0  0  0  0999 V2000
  188.9880  178.0060  140.4250 C   0  0  0  0  0  0  0  0  0  0  0  0
  188.2370  178.5650  139.5850 O   0  0  0  0  0  0  0  0  0  0  0  0
  188.8280  178.3240  141.7810 O   0  0  0  0  0  0  0  0  0  0  0  0
  189.2050  177.4600  142.8460 C   0  0  2  0  0  3  0  0  0  0  0  0
  188.0120  176.6000  143.2410 C   0  0  0  0  0  2  0  0  0  0  0  0
  184.2170  178.4950  144.1120 C   0  0  2  0  0  3  0  0  0  0  0  0
  185.3000  178.6770  145.1720 C   0  0  0  0  0  2  0  0  0  0  0  0
  186.3900  177.6220  144.9880 C   0  0  0  0  0  2  0  0  0  0  0  0
  186.0520  177.8740  142.5250 C   0  0  0  0  0  3  0  0  0  0  0  0
  186.8120  177.4410  143.5460 C   0  0  0  0  0  0  0  0  0  0  0  0
  184.8180  178.7120  142.7250 C   0  0  0  0  0  2  0  0  0  0  0  0
  183.1230  179.3790  144.3390 O   0  0  0  0  0  0  0  0  0  0  0  0
  180.9290  178.6370  143.9200 C   0  0  0  0  0  2  0  0  0  0  0  0
  181.9740  179.3580  143.5480 C   0  0  0  0  0  3  0  0  0  0  0  0
  189.6590  178.2820  144.0450 C   0  0  0  0  0  2  0  0  0  0  0  0
  190.3200  177.0800  146.1200 C   0  0  0  0  0  1  0  0  0  0  0  0
  190.8020  177.6060  144.7830 C   0  0  0  0  0  2  0  0  0  0  0  0
  189.9540  177.1020  139.9580 O   0  0  0  0  0  0  0  0  0  0  0  0
  191.1070  177.4900  139.2200 C   0  0  1  0  0  3  0  0  0  0  0  0
  192.2730  177.3800  141.4480 O   0  0  0  0  0  1  0  0  0  0  0  0
  192.3410  177.3310  140.0600 C   0  0  0  0  0  0  0  0  0  0  0  0
  193.4490  177.1160  139.5040 O   0  0  0  0  0  0  0  0  0  0  0  0
  191.2030  176.6940  137.9180 C   0  0  0  0  0  2  0  0  0  0  0  0
  190.0920  175.6460  137.7670 C   0  0  1  0  0  3  0  0  0  0  0  0
  189.4190  175.7490  136.3920 C   0  0  2  0  0  3  0  0  0  0  0  0
  189.7230  177.0890  135.7380 C   0  0  0  0  0  1  0  0  0  0  0  0
  187.9690  175.5360  136.4530 N   0  0  0  0  0  0  0  0  0  0  0  0
  187.1520  176.3350  137.3210 C   0  0  0  0  0  3  0  0  0  0  0  0
  185.8840  176.6160  137.0440 C   0  0  0  0  0  2  0  0  0  0  0  0
  187.3730  174.3440  135.8560 C   0  0  0  0  0  2  0  0  0  0  0  0
  187.9740  172.3100  137.1100 C   0  0  0  0  0  2  0  0  0  0  0  0
  187.1080  173.2960  136.8900 C   0  0  0  0  0  3  0  0  0  0  0  0
  190.5960  174.3570  137.9890 O   0  0  0  0  0  0  0  0  0  0  0  0
  191.5350  174.1560  136.9750 C   0  0  0  0  0  1  0  0  0  0  0  0
  1  3  1  0  0  0  0
  2  1  2  0  0  0  0
  3  4  1  0  0  0  0
  4  5  1  1  0  0  0
  4 15  1  0  0  0  0
  5 10  1  0  0  0  0
  6 12  1  1  0  0  0
  6  7  1  0  0  0  0
  8  7  1  0  0  0  0
  9 11  1  0  0  0  0
  9 10  2  0  0  0  0
 10  8  1  0  0  0  0
 11  6  1  0  0  0  0
 14 13  2  0  0  0  0
 14 12  1  0  0  0  0
 15 17  1  0  0  0  0
 17 16  1  0  0  0  0
 18  1  1  0  0  0  0
 19 23  1  6  0  0  0
 19 18  1  0  0  0  0
 19 21  1  0  0  0  0
 21 20  1  0  0  0  0
 22 21  2  0  0  0  0
 24 23  1  6  0  0  0
 24 33  1  0  0  0  0
 25 26  1  1  0  0  0
 25 27  1  0  0  0  0
 25 24  1  0  0  0  0
 27 28  1  0  0  0  0
 29 28  2  0  0  0  0
 30 27  1  0  0  0  0
 30 32  1  0  0  0  0
 32 31  2  0  0  0  0
 34 33  1  0  0  0  0
M  END
>  <MODEL>
7

>  <REMARK>
 VINA RESULT:      -6.0      2.365      5.851
  Name = 
  19 active torsions:
  status: ('A' for Active; 'I' for Inactive)
    1  A    between atoms: C_1  and  O_8
    2  A    between atoms: C_1  and  O_34
    3  A    between atoms: C_2  and  N_25
    4  A    between atoms: C_2  and  C_32
    5  A    between atoms: C_3  and  C_24
    6  A    between atoms: C_3  and  N_25
    7  A    between atoms: C_5  and  C_20
    8  A    between atoms: C_5  and  C_32
    9  A    between atoms: C_6  and  C_18
   10  A    between atoms: C_6  and  C_28
   11  A    between atoms: C_7  and  O_11
   12  A    between atoms: O_8  and  C_18
   13  A    between atoms: O_11  and  C_21
   14  A    between atoms: C_12  and  C_20
   15  A    between atoms: C_18  and  C_30
   16  A    between atoms: O_19  and  C_32
   17  A    between atoms: C_20  and  O_34
   18  A    between atoms: N_25  and  C_27
   19  A    between atoms: C_30  and  C_31
                            x       y       z     vdW  Elec       q    Type
                         _______ _______ _______ _____ _____    ______ ____

>  <TORSDO>
F 19

$$$$
=
 OpenBabel10262423363D

 34 34  0  0  1  0  0  0  0  0999 V2000
  186.0970  178.9230  141.4920 C   0  0  0  0  0  0  0  0  0  0  0  0
  186.0420  180.0960  141.9440 O   0  0  0  0  0  0  0  0  0  0  0  0
  186.1170  177.8570  142.4010 O   0  0  0  0  0  0  0  0  0  0  0  0
  186.8430  177.8730  143.6240 C   0  0  2  0  0  3  0  0  0  0  0  0
  187.8700  176.7500  143.6150 C   0  0  0  0  0  2  0  0  0  0  0  0
  190.9160  176.7490  146.6930 C   0  0  2  0  0  3  0  0  0  0  0  0
  191.3350  177.3530  145.3550 C   0  0  0  0  0  2  0  0  0  0  0  0
  190.3800  176.8930  144.2550 C   0  0  0  0  0  2  0  0  0  0  0  0
  188.5460  177.0540  145.9450 C   0  0  0  0  0  3  0  0  0  0  0  0
  188.9220  176.9660  144.6580 C   0  0  0  0  0  0  0  0  0  0  0  0
  189.5250  177.2560  147.0700 C   0  0  0  0  0  2  0  0  0  0  0  0
  191.8640  177.0530  147.7130 O   0  0  0  0  0  0  0  0  0  0  0  0
  193.4720  176.3940  149.3010 C   0  0  0  0  0  2  0  0  0  0  0  0
  192.5950  176.0610  148.3670 C   0  0  0  0  0  3  0  0  0  0  0  0
  185.8890  177.6800  144.7960 C   0  0  0  0  0  2  0  0  0  0  0  0
  185.7320  179.1040  146.8300 C   0  0  0  0  0  1  0  0  0  0  0  0
  185.4120  179.0110  145.3510 C   0  0  0  0  0  2  0  0  0  0  0  0
  186.1490  178.7470  140.1020 O   0  0  0  0  0  0  0  0  0  0  0  0
  185.0490  178.2920  139.3220 C   0  0  1  0  0  3  0  0  0  0  0  0
  182.6820  179.0290  139.7600 O   0  0  0  0  0  1  0  0  0  0  0  0
  183.9600  179.3260  139.3020 C   0  0  0  0  0  0  0  0  0  0  0  0
  184.2150  180.4900  138.8970 O   0  0  0  0  0  0  0  0  0  0  0  0
  185.5070  177.9280  137.9090 C   0  0  0  0  0  2  0  0  0  0  0  0
  187.0010  178.1950  137.6720 C   0  0  1  0  0  3  0  0  0  0  0  0
  187.6880  176.9700  137.0540 C   0  0  2  0  0  3  0  0  0  0  0  0
  186.7640  175.7600  137.0750 C   0  0  0  0  0  1  0  0  0  0  0  0
  188.9590  176.6440  137.7080 N   0  0  0  0  0  0  0  0  0  0  0  0
  189.4700  175.3030  137.6830 C   0  0  0  0  0  3  0  0  0  0  0  0
  190.5620  174.9710  137.0050 C   0  0  0  0  0  2  0  0  0  0  0  0
  189.5830  177.5970  138.6230 C   0  0  0  0  0  2  0  0  0  0  0  0
  190.7470  177.4080  140.7870 C   0  0  0  0  0  2  0  0  0  0  0  0
  189.7690  177.0000  139.9830 C   0  0  0  0  0  3  0  0  0  0  0  0
  187.1770  179.3310  136.8710 O   0  0  0  0  0  0  0  0  0  0  0  0
  187.5970  178.8420  135.6320 C   0  0  0  0  0  1  0  0  0  0  0  0
  1  2  2  0  0  0  0
  1  3  1  0  0  0  0
  3  4  1  0  0  0  0
  4  5  1  6  0  0  0
  4 15  1  0  0  0  0
  5 10  1  0  0  0  0
  6 11  1  0  0  0  0
  6 12  1  1  0  0  0
  7  6  1  0  0  0  0
  8 10  1  0  0  0  0
  8  7  1  0  0  0  0
  9 11  1  0  0  0  0
 10  9  2  0  0  0  0
 12 14  1  0  0  0  0
 14 13  2  0  0  0  0
 15 17  1  0  0  0  0
 17 16  1  0  0  0  0
 18  1  1  0  0  0  0
 19 23  1  6  0  0  0
 19 18  1  0  0  0  0
 21 19  1  0  0  0  0
 21 20  1  0  0  0  0
 22 21  2  0  0  0  0
 24 23  1  6  0  0  0
 25 26  1  1  0  0  0
 25 24  1  0  0  0  0
 25 27  1  0  0  0  0
 27 30  1  0  0  0  0
 28 27  1  0  0  0  0
 29 28  2  0  0  0  0
 30 32  1  0  0  0  0
 32 31  2  0  0  0  0
 33 24  1  0  0  0  0
 34 33  1  0  0  0  0
M  END
>  <MODEL>
8

>  <REMARK>
 VINA RESULT:      -5.9      1.586      2.392
  Name = 
  19 active torsions:
  status: ('A' for Active; 'I' for Inactive)
    1  A    between atoms: C_1  and  O_8
    2  A    between atoms: C_1  and  O_34
    3  A    between atoms: C_2  and  N_25
    4  A    between atoms: C_2  and  C_32
    5  A    between atoms: C_3  and  C_24
    6  A    between atoms: C_3  and  N_25
    7  A    between atoms: C_5  and  C_20
    8  A    between atoms: C_5  and  C_32
    9  A    between atoms: C_6  and  C_18
   10  A    between atoms: C_6  and  C_28
   11  A    between atoms: C_7  and  O_11
   12  A    between atoms: O_8  and  C_18
   13  A    between atoms: O_11  and  C_21
   14  A    between atoms: C_12  and  C_20
   15  A    between atoms: C_18  and  C_30
   16  A    between atoms: O_19  and  C_32
   17  A    between atoms: C_20  and  O_34
   18  A    between atoms: N_25  and  C_27
   19  A    between atoms: C_30  and  C_31
                            x       y       z     vdW  Elec       q    Type
                         _______ _______ _______ _____ _____    ______ ____

>  <TORSDO>
F 19

$$$$
=
 OpenBabel10262423363D

 34 34  0  0  1  0  0  0  0  0999 V2000
  184.7400  178.9050  141.0370 C   0  0  0  0  0  0  0  0  0  0  0  0
  185.6840  179.2500  140.2800 O   0  0  0  0  0  0  0  0  0  0  0  0
  185.0450  178.1910  142.2030 O   0  0  0  0  0  0  0  0  0  0  0  0
  185.5350  178.7940  143.3940 C   0  0  2  0  0  3  0  0  0  0  0  0
  185.8430  177.7090  144.4180 C   0  0  0  0  0  2  0  0  0  0  0  0
  189.9850  177.0220  145.4760 C   0  0  2  0  0  3  0  0  0  0  0  0
  189.7540  177.6660  144.1120 C   0  0  0  0  0  2  0  0  0  0  0  0
  188.3110  177.4380  143.6670 C   0  0  0  0  0  2  0  0  0  0  0  0
  187.6530  177.7240  146.0610 C   0  0  0  0  0  3  0  0  0  0  0  0
  187.2990  177.6870  144.7650 C   0  0  0  0  0  0  0  0  0  0  0  0
  189.0880  177.6920  146.5160 C   0  0  0  0  0  2  0  0  0  0  0  0
  191.3560  177.1030  145.8580 O   0  0  0  0  0  0  0  0  0  0  0  0
  192.0110  175.7130  147.6410 C   0  0  0  0  0  2  0  0  0  0  0  0
  192.0560  176.0020  146.3500 C   0  0  0  0  0  3  0  0  0  0  0  0
  184.4890  179.7460  143.9620 C   0  0  0  0  0  2  0  0  0  0  0  0
  182.1360  178.9370  143.9860 C   0  0  0  0  0  1  0  0  0  0  0  0
  183.4360  179.0010  144.7640 C   0  0  0  0  0  2  0  0  0  0  0  0
  183.4310  179.2450  140.6650 O   0  0  0  0  0  0  0  0  0  0  0  0
  182.5290  178.3410  140.0360 C   0  0  1  0  0  3  0  0  0  0  0  0
  180.4090  177.6190  141.1850 O   0  0  0  0  0  1  0  0  0  0  0  0
  181.1250  178.5960  140.5030 C   0  0  0  0  0  0  0  0  0  0  0  0
  180.5990  179.7220  140.3070 O   0  0  0  0  0  0  0  0  0  0  0  0
  182.6440  178.4420  138.5140 C   0  0  0  0  0  2  0  0  0  0  0  0
  183.5440  177.3570  137.9040 C   0  0  1  0  0  3  0  0  0  0  0  0
  182.8420  176.6500  136.7380 C   0  0  2  0  0  3  0  0  0  0  0  0
  181.7370  177.5220  136.1600 C   0  0  0  0  0  1  0  0  0  0  0  0
  182.3030  175.3380  137.1130 N   0  0  0  0  0  0  0  0  0  0  0  0
  183.0330  174.1390  136.8160 C   0  0  0  0  0  3  0  0  0  0  0  0
  183.9510  174.0840  135.8580 C   0  0  0  0  0  2  0  0  0  0  0  0
  180.9110  175.2070  137.5360 C   0  0  0  0  0  2  0  0  0  0  0  0
  179.6640  174.6320  139.5830 C   0  0  0  0  0  2  0  0  0  0  0  0
  180.8130  174.9890  139.0130 C   0  0  0  0  0  3  0  0  0  0  0  0
  184.7700  177.9040  137.5010 O   0  0  0  0  0  0  0  0  0  0  0  0
  185.6830  176.8490  137.5830 C   0  0  0  0  0  1  0  0  0  0  0  0
  1  3  1  0  0  0  0
  2  1  2  0  0  0  0
  3  4  1  0  0  0  0
  4 15  1  1  0  0  0
  4  5  1  0  0  0  0
  5 10  1  0  0  0  0
  6 12  1  1  0  0  0
  6 11  1  0  0  0  0
  7  6  1  0  0  0  0
  8  7  1  0  0  0  0
  8 10  1  0  0  0  0
  9 11  1  0  0  0  0
 10  9  2  0  0  0  0
 12 14  1  0  0  0  0
 14 13  2  0  0  0  0
 15 17  1  0  0  0  0
 16 17  1  0  0  0  0
 18  1  1  0  0  0  0
 19 23  1  6  0  0  0
 19 21  1  0  0  0  0
 19 18  1  0  0  0  0
 21 20  1  0  0  0  0
 22 21  2  0  0  0  0
 24 23  1  6  0  0  0
 25 26  1  1  0  0  0
 25 27  1  0  0  0  0
 25 24  1  0  0  0  0
 27 30  1  0  0  0  0
 28 27  1  0  0  0  0
 29 28  2  0  0  0  0
 30 32  1  0  0  0  0
 32 31  2  0  0  0  0
 33 34  1  0  0  0  0
 33 24  1  0  0  0  0
M  END
>  <MODEL>
9

>  <REMARK>
 VINA RESULT:      -5.8      2.653      3.910
  Name = 
  19 active torsions:
  status: ('A' for Active; 'I' for Inactive)
    1  A    between atoms: C_1  and  O_8
    2  A    between atoms: C_1  and  O_34
    3  A    between atoms: C_2  and  N_25
    4  A    between atoms: C_2  and  C_32
    5  A    between atoms: C_3  and  C_24
    6  A    between atoms: C_3  and  N_25
    7  A    between atoms: C_5  and  C_20
    8  A    between atoms: C_5  and  C_32
    9  A    between atoms: C_6  and  C_18
   10  A    between atoms: C_6  and  C_28
   11  A    between atoms: C_7  and  O_11
   12  A    between atoms: O_8  and  C_18
   13  A    between atoms: O_11  and  C_21
   14  A    between atoms: C_12  and  C_20
   15  A    between atoms: C_18  and  C_30
   16  A    between atoms: O_19  and  C_32
   17  A    between atoms: C_20  and  O_34
   18  A    between atoms: N_25  and  C_27
   19  A    between atoms: C_30  and  C_31
                            x       y       z     vdW  Elec       q    Type
                         _______ _______ _______ _____ _____    ______ ____

>  <TORSDO>
F 19

$$$$
