=
 OpenBabel10262420493D

 28 31  0  0  1  0  0  0  0  0999 V2000
  189.8730  177.0820  141.7110 C   0  0  0  0  0  0  0  0  0  0  0  0
  185.4630  178.4500  143.1680 C   0  0  0  0  0  2  0  0  0  0  0  0
  190.0990  178.6030  144.9360 O   0  0  0  0  0  1  0  0  0  0  0  0
  185.1400  178.6400  146.2740 C   0  0  0  0  0  3  0  0  0  0  0  0
  187.6750  177.5760  143.8620 C   0  0  2  0  0  3  0  0  0  0  0  0
  183.3770  178.9120  144.5010 C   0  0  0  0  0  0  0  0  0  0  0  0
  186.2760  178.0030  144.1240 C   0  0  1  0  0  3  0  0  0  0  0  0
  187.4550  178.0720  146.1320 O   0  0  0  0  0  0  0  0  0  0  0  0
  183.7560  178.7070  145.7650 C   0  0  0  0  0  3  0  0  0  0  0  0
  190.1610  176.2800  144.1670 C   0  0  2  0  0  3  0  0  0  0  0  0
  187.8650  176.4120  143.0150 N   0  0  0  0  0  2  0  0  0  0  0  0
  186.2190  178.3260  145.5510 C   0  0  0  0  0  0  0  0  0  0  0  0
  191.9670  177.5770  143.0000 C   0  0  0  0  0  2  0  0  0  0  0  0
  189.6840  177.3030  145.2390 C   0  0  2  0  0  3  0  0  0  0  0  0
  191.6600  176.3610  143.8730 C   0  0  0  0  0  2  0  0  0  0  0  0
  182.0540  178.8880  144.2150 F   0  0  0  0  0  0  0  0  0  0  0  0
  184.3140  179.3700  143.4290 C   0  0  0  0  0  2  0  0  0  0  0  0
  188.1760  177.2330  145.2440 C   0  0  2  0  0  3  0  0  0  0  0  0
  191.1050  177.6170  141.7690 C   0  0  0  0  0  3  0  0  0  0  0  0
  189.3230  176.2260  142.8360 C   0  0  1  0  0  3  0  0  0  0  0  0
  189.1370  177.1340  140.4060 C   0  0  0  0  0  2  0  0  0  0  0  0
  189.9980  177.7660  139.3160 C   0  0  0  0  0  2  0  0  0  0  0  0
  189.4690  177.4040  137.9320 C   0  0  2  0  0  3  0  0  0  0  0  0
  191.7600  176.4120  137.9810 C   0  0  0  0  0  1  0  0  0  0  0  0
  190.5470  176.7060  137.1160 C   0  0  0  0  0  2  0  0  0  0  0  0
  189.0130  178.6570  137.2010 C   0  0  0  0  0  2  0  0  0  0  0  0
  187.7070  178.9880  137.5720 O   0  0  0  0  0  0  0  0  0  0  0  0
  186.9380  177.8810  137.2070 C   0  0  0  0  0  1  0  0  0  0  0  0
  1 19  2  0  0  0  0
  2 17  1  0  0  0  0
  5 11  1  6  0  0  0
  5  7  1  0  0  0  0
  5 18  1  0  0  0  0
  6  9  2  0  0  0  0
  7  2  1  6  0  0  0
  7 12  1  0  0  0  0
  9  4  1  0  0  0  0
 10 15  1  6  0  0  0
 10 14  1  0  0  0  0
 12  8  1  0  0  0  0
 12  4  2  0  0  0  0
 13 15  1  0  0  0  0
 14  3  1  6  0  0  0
 14 18  1  0  0  0  0
 16  6  1  0  0  0  0
 17  6  1  0  0  0  0
 18  8  1  1  0  0  0
 19 13  1  0  0  0  0
 20  1  1  6  0  0  0
 20 11  1  0  0  0  0
 20 10  1  0  0  0  0
 21  1  1  0  0  0  0
 22 21  1  0  0  0  0
 23 25  1  6  0  0  0
 23 22  1  0  0  0  0
 25 24  1  0  0  0  0
 26 27  1  0  0  0  0
 26 23  1  0  0  0  0
 28 27  1  0  0  0  0
M  END
>  <MODEL>
1

>  <REMARK>
 VINA RESULT:      -8.8      0.000      0.000
  Name = 
  6 active torsions:
  status: ('A' for Active; 'I' for Inactive)
    1  A    between atoms: C_1  and  C_2
    2  A    between atoms: C_2  and  C_3
    3  A    between atoms: C_3  and  C_7
    4  A    between atoms: O_6  and  C_28
    5  A    between atoms: C_7  and  C_11
    6  A    between atoms: C_7  and  C_28
                            x       y       z     vdW  Elec       q    Type
                         _______ _______ _______ _____ _____    ______ ____

>  <TORSDO>
F 6

$$$$
=
 OpenBabel10262420493D

 28 31  0  0  1  0  0  0  0  0999 V2000
  189.8150  176.9320  141.6180 C   0  0  0  0  0  0  0  0  0  0  0  0
  185.4210  178.3200  143.1040 C   0  0  0  0  0  2  0  0  0  0  0  0
  190.0960  178.6500  144.7380 O   0  0  0  0  0  1  0  0  0  0  0  0
  185.1720  178.6940  146.2000 C   0  0  0  0  0  3  0  0  0  0  0  0
  187.6630  177.5240  143.7920 C   0  0  2  0  0  3  0  0  0  0  0  0
  183.3610  178.8310  144.4610 C   0  0  0  0  0  0  0  0  0  0  0  0
  186.2640  177.9440  144.0640 C   0  0  1  0  0  3  0  0  0  0  0  0
  187.4920  178.1520  146.0330 O   0  0  0  0  0  0  0  0  0  0  0  0
  183.7750  178.7090  145.7240 C   0  0  0  0  0  3  0  0  0  0  0  0
  190.1770  176.2850  144.1100 C   0  0  2  0  0  3  0  0  0  0  0  0
  187.8510  176.3120  143.0120 N   0  0  0  0  0  2  0  0  0  0  0  0
  186.2370  178.3530  145.4700 C   0  0  0  0  0  0  0  0  0  0  0  0
  191.9310  177.5370  142.8210 C   0  0  0  0  0  2  0  0  0  0  0  0
  189.7100  177.3640  145.1300 C   0  0  2  0  0  3  0  0  0  0  0  0
  191.6670  176.3710  143.7730 C   0  0  0  0  0  2  0  0  0  0  0  0
  182.0310  178.7700  144.2110 F   0  0  0  0  0  0  0  0  0  0  0  0
  184.2630  179.2370  143.3390 C   0  0  0  0  0  2  0  0  0  0  0  0
  188.2040  177.2730  145.1790 C   0  0  2  0  0  3  0  0  0  0  0  0
  191.0380  177.4890  141.6120 C   0  0  0  0  0  3  0  0  0  0  0  0
  189.3070  176.1380  142.8070 C   0  0  1  0  0  3  0  0  0  0  0  0
  189.0450  176.8940  140.3320 C   0  0  0  0  0  2  0  0  0  0  0  0
  189.0160  178.2680  139.6700 C   0  0  0  0  0  2  0  0  0  0  0  0
  189.6940  178.2250  138.3050 C   0  0  2  0  0  3  0  0  0  0  0  0
  187.6060  178.3500  136.9420 C   0  0  0  0  0  1  0  0  0  0  0  0
  188.9090  179.0470  137.2940 C   0  0  0  0  0  2  0  0  0  0  0  0
  189.7980  176.7890  137.8160 C   0  0  0  0  0  2  0  0  0  0  0  0
  190.9650  176.6130  137.0680 O   0  0  0  0  0  0  0  0  0  0  0  0
  191.9780  176.4470  138.0150 C   0  0  0  0  0  1  0  0  0  0  0  0
  2 17  1  0  0  0  0
  5 11  1  6  0  0  0
  5  7  1  0  0  0  0
  5 18  1  0  0  0  0
  6  9  2  0  0  0  0
  7  2  1  6  0  0  0
  7 12  1  0  0  0  0
  9  4  1  0  0  0  0
 10 15  1  6  0  0  0
 10 14  1  0  0  0  0
 12  8  1  0  0  0  0
 12  4  2  0  0  0  0
 13 15  1  0  0  0  0
 14  3  1  6  0  0  0
 14 18  1  0  0  0  0
 16  6  1  0  0  0  0
 17  6  1  0  0  0  0
 18  8  1  1  0  0  0
 19  1  2  0  0  0  0
 19 13  1  0  0  0  0
 20  1  1  6  0  0  0
 20 11  1  0  0  0  0
 20 10  1  0  0  0  0
 21  1  1  0  0  0  0
 22 21  1  0  0  0  0
 23 25  1  6  0  0  0
 23 22  1  0  0  0  0
 24 25  1  0  0  0  0
 26 23  1  0  0  0  0
 27 26  1  0  0  0  0
 27 28  1  0  0  0  0
M  END
>  <MODEL>
2

>  <REMARK>
 VINA RESULT:      -8.7      0.861      1.711
  Name = 
  6 active torsions:
  status: ('A' for Active; 'I' for Inactive)
    1  A    between atoms: C_1  and  C_2
    2  A    between atoms: C_2  and  C_3
    3  A    between atoms: C_3  and  C_7
    4  A    between atoms: O_6  and  C_28
    5  A    between atoms: C_7  and  C_11
    6  A    between atoms: C_7  and  C_28
                            x       y       z     vdW  Elec       q    Type
                         _______ _______ _______ _____ _____    ______ ____

>  <TORSDO>
F 6

$$$$
=
 OpenBabel10262420493D

 28 31  0  0  1  0  0  0  0  0999 V2000
  187.6190  177.8110  145.9420 C   0  0  0  0  0  0  0  0  0  0  0  0
  188.3010  177.9640  141.1510 C   0  0  0  0  0  2  0  0  0  0  0  0
  185.2460  180.0390  144.4680 O   0  0  0  0  0  1  0  0  0  0  0  0
  185.7560  178.7660  139.5180 C   0  0  0  0  0  3  0  0  0  0  0  0
  186.6460  178.0530  142.9920 C   0  0  2  0  0  3  0  0  0  0  0  0
  187.9950  178.0190  138.6510 C   0  0  0  0  0  0  0  0  0  0  0  0
  187.0360  178.0470  141.5580 C   0  0  1  0  0  3  0  0  0  0  0  0
  184.9040  178.9700  141.7390 O   0  0  0  0  0  0  0  0  0  0  0  0
  186.6910  178.2550  138.4960 C   0  0  0  0  0  3  0  0  0  0  0  0
  185.0930  177.7520  145.3270 C   0  0  2  0  0  3  0  0  0  0  0  0
  186.9210  176.8490  143.7570 N   0  0  0  0  0  2  0  0  0  0  0  0
  185.9170  178.6610  140.8390 C   0  0  0  0  0  0  0  0  0  0  0  0
  185.9570  179.2540  147.1440 C   0  0  0  0  0  2  0  0  0  0  0  0
  184.6700  178.7850  144.2420 C   0  0  2  0  0  3  0  0  0  0  0  0
  184.8750  178.2470  146.7580 C   0  0  0  0  0  2  0  0  0  0  0  0
  188.6830  177.4960  137.6080 F   0  0  0  0  0  0  0  0  0  0  0  0
  188.7780  178.4910  139.8350 C   0  0  0  0  0  2  0  0  0  0  0  0
  185.1490  178.2290  142.9230 C   0  0  2  0  0  3  0  0  0  0  0  0
  187.3390  178.7170  146.8940 C   0  0  0  0  0  3  0  0  0  0  0  0
  186.5210  177.1140  145.1590 C   0  0  1  0  0  3  0  0  0  0  0  0
  189.0270  177.3090  145.8310 C   0  0  0  0  0  2  0  0  0  0  0  0
  189.8660  178.2240  144.9450 C   0  0  0  0  0  2  0  0  0  0  0  0
  191.2820  177.6780  144.7910 C   0  0  2  0  0  3  0  0  0  0  0  0
  190.7460  175.9880  143.0330 C   0  0  0  0  0  1  0  0  0  0  0  0
  191.5340  177.2470  143.3540 C   0  0  0  0  0  2  0  0  0  0  0  0
  191.4890  176.4910  145.7180 C   0  0  0  0  0  2  0  0  0  0  0  0
  192.0430  176.9110  146.9310 O   0  0  0  0  0  0  0  0  0  0  0  0
  192.3630  175.7320  147.6080 C   0  0  0  0  0  1  0  0  0  0  0  0
  1 19  2  0  0  0  0
  4 12  2  0  0  0  0
  5 11  1  6  0  0  0
  6 17  1  0  0  0  0
  7  2  1  1  0  0  0
  7  5  1  0  0  0  0
  9  6  2  0  0  0  0
  9  4  1  0  0  0  0
 10 15  1  1  0  0  0
 12  7  1  0  0  0  0
 12  8  1  0  0  0  0
 14  3  1  1  0  0  0
 14 10  1  0  0  0  0
 15 13  1  0  0  0  0
 16  6  1  0  0  0  0
 17  2  1  0  0  0  0
 18  8  1  6  0  0  0
 18  5  1  0  0  0  0
 18 14  1  0  0  0  0
 19 13  1  0  0  0  0
 20 11  1  6  0  0  0
 20 10  1  0  0  0  0
 20  1  1  0  0  0  0
 21  1  1  0  0  0  0
 22 21  1  0  0  0  0
 23 25  1  6  0  0  0
 23 22  1  0  0  0  0
 23 26  1  0  0  0  0
 24 25  1  0  0  0  0
 26 27  1  0  0  0  0
 27 28  1  0  0  0  0
M  END
>  <MODEL>
3

>  <REMARK>
 VINA RESULT:      -8.2      2.697      6.455
  Name = 
  6 active torsions:
  status: ('A' for Active; 'I' for Inactive)
    1  A    between atoms: C_1  and  C_2
    2  A    between atoms: C_2  and  C_3
    3  A    between atoms: C_3  and  C_7
    4  A    between atoms: O_6  and  C_28
    5  A    between atoms: C_7  and  C_11
    6  A    between atoms: C_7  and  C_28
                            x       y       z     vdW  Elec       q    Type
                         _______ _______ _______ _____ _____    ______ ____

>  <TORSDO>
F 6

$$$$
=
 OpenBabel10262420493D

 28 31  0  0  1  0  0  0  0  0999 V2000
  187.2190  177.7990  142.9070 C   0  0  0  0  0  0  0  0  0  0  0  0
  187.7440  177.0030  138.1600 C   0  0  0  0  0  2  0  0  0  0  0  0
  190.1180  175.7880  142.3470 O   0  0  0  0  0  1  0  0  0  0  0  0
  190.6850  176.3990  137.2790 C   0  0  0  0  0  3  0  0  0  0  0  0
  188.9010  177.3670  140.3200 C   0  0  2  0  0  3  0  0  0  0  0  0
  188.6530  176.7080  135.8300 C   0  0  0  0  0  0  0  0  0  0  0  0
  188.8740  177.1530  138.8500 C   0  0  1  0  0  3  0  0  0  0  0  0
  190.9890  176.5770  139.6400 O   0  0  0  0  0  0  0  0  0  0  0  0
  189.9740  176.6500  136.0090 C   0  0  0  0  0  3  0  0  0  0  0  0
  189.7940  178.1560  142.8770 C   0  0  2  0  0  3  0  0  0  0  0  0
  188.3120  178.5980  140.8210 N   0  0  0  0  0  2  0  0  0  0  0  0
  190.1960  176.6300  138.5000 C   0  0  0  0  0  0  0  0  0  0  0  0
  188.6930  176.7600  144.6510 C   0  0  0  0  0  2  0  0  0  0  0  0
  190.5840  177.0780  142.0780 C   0  0  2  0  0  3  0  0  0  0  0  0
  189.7130  177.8630  144.3770 C   0  0  0  0  0  2  0  0  0  0  0  0
  188.1840  177.0030  134.5940 F   0  0  0  0  0  0  0  0  0  0  0  0
  187.6660  176.2650  136.8620 C   0  0  0  0  0  2  0  0  0  0  0  0
  190.3800  177.4040  140.6180 C   0  0  2  0  0  3  0  0  0  0  0  0
  187.3600  177.0580  144.0190 C   0  0  0  0  0  3  0  0  0  0  0  0
  188.3860  178.5550  142.3000 C   0  0  1  0  0  3  0  0  0  0  0  0
  185.8320  178.0750  142.4090 C   0  0  0  0  0  2  0  0  0  0  0  0
  185.1570  179.1610  143.2400 C   0  0  0  0  0  2  0  0  0  0  0  0
  183.9260  178.6110  143.9520 C   0  0  2  0  0  3  0  0  0  0  0  0
  181.4290  178.5750  143.9500 C   0  0  0  0  0  1  0  0  0  0  0  0
  182.6660  179.2980  143.4450 C   0  0  0  0  0  2  0  0  0  0  0  0
  184.0480  178.8250  145.4520 C   0  0  0  0  0  2  0  0  0  0  0  0
  185.2760  179.4160  145.7610 O   0  0  0  0  0  0  0  0  0  0  0  0
  185.7130  178.7580  146.9130 C   0  0  0  0  0  1  0  0  0  0  0  0
  1 19  2  0  0  0  0
  4 12  2  0  0  0  0
  5 18  1  0  0  0  0
  5 11  1  6  0  0  0
  6  9  2  0  0  0  0
  6 17  1  0  0  0  0
  7  2  1  1  0  0  0
  7  5  1  0  0  0  0
  9  4  1  0  0  0  0
 10 15  1  1  0  0  0
 12  7  1  0  0  0  0
 12  8  1  0  0  0  0
 14  3  1  6  0  0  0
 14 10  1  0  0  0  0
 15 13  1  0  0  0  0
 16  6  1  0  0  0  0
 17  2  1  0  0  0  0
 18  8  1  6  0  0  0
 18 14  1  0  0  0  0
 19 13  1  0  0  0  0
 20 11  1  6  0  0  0
 20 10  1  0  0  0  0
 20  1  1  0  0  0  0
 21  1  1  0  0  0  0
 21 22  1  0  0  0  0
 23 22  1  6  0  0  0
 23 26  1  0  0  0  0
 25 24  1  0  0  0  0
 25 23  1  0  0  0  0
 26 27  1  0  0  0  0
 27 28  1  0  0  0  0
M  END
>  <MODEL>
4

>  <REMARK>
 VINA RESULT:      -8.0      2.819      7.399
  Name = 
  6 active torsions:
  status: ('A' for Active; 'I' for Inactive)
    1  A    between atoms: C_1  and  C_2
    2  A    between atoms: C_2  and  C_3
    3  A    between atoms: C_3  and  C_7
    4  A    between atoms: O_6  and  C_28
    5  A    between atoms: C_7  and  C_11
    6  A    between atoms: C_7  and  C_28
                            x       y       z     vdW  Elec       q    Type
                         _______ _______ _______ _____ _____    ______ ____

>  <TORSDO>
F 6

$$$$
=
 OpenBabel10262420493D

 28 31  0  0  1  0  0  0  0  0999 V2000
  187.4860  177.9050  143.0100 C   0  0  0  0  0  0  0  0  0  0  0  0
  187.9390  177.0560  138.2650 C   0  0  0  0  0  2  0  0  0  0  0  0
  190.2050  175.6550  142.4540 O   0  0  0  0  0  1  0  0  0  0  0  0
  190.8170  176.2030  137.3840 C   0  0  0  0  0  3  0  0  0  0  0  0
  189.1240  177.3260  140.4240 C   0  0  2  0  0  3  0  0  0  0  0  0
  188.8180  176.6790  135.9350 C   0  0  0  0  0  0  0  0  0  0  0  0
  189.0770  177.1110  138.9540 C   0  0  1  0  0  3  0  0  0  0  0  0
  191.1370  176.3610  139.7450 O   0  0  0  0  0  0  0  0  0  0  0  0
  190.1300  176.5100  136.1140 C   0  0  0  0  0  3  0  0  0  0  0  0
  190.0820  178.0430  142.9780 C   0  0  2  0  0  3  0  0  0  0  0  0
  188.6410  178.6030  140.9220 N   0  0  0  0  0  2  0  0  0  0  0  0
  190.3510  176.4780  138.6050 C   0  0  0  0  0  0  0  0  0  0  0  0
  188.8680  176.7500  144.7560 C   0  0  0  0  0  2  0  0  0  0  0  0
  190.7780  176.9010  142.1810 C   0  0  2  0  0  3  0  0  0  0  0  0
  189.9780  177.7620  144.4780 C   0  0  0  0  0  2  0  0  0  0  0  0
  188.3750  177.0090  134.6980 F   0  0  0  0  0  0  0  0  0  0  0  0
  187.7970  176.3240  136.9690 C   0  0  0  0  0  2  0  0  0  0  0  0
  190.6010  177.2390  140.7210 C   0  0  2  0  0  3  0  0  0  0  0  0
  187.5650  177.1570  144.1240 C   0  0  0  0  0  3  0  0  0  0  0  0
  188.7120  178.5580  142.4000 C   0  0  1  0  0  3  0  0  0  0  0  0
  186.1270  178.2950  142.5120 C   0  0  0  0  0  2  0  0  0  0  0  0
  185.0440  177.9050  143.5140 C   0  0  0  0  0  2  0  0  0  0  0  0
  184.7000  179.0810  144.4230 C   0  0  2  0  0  3  0  0  0  0  0  0
  185.7990  178.9940  146.6630 C   0  0  0  0  0  1  0  0  0  0  0  0
  184.5630  178.6170  145.8650 C   0  0  0  0  0  2  0  0  0  0  0  0
  183.3990  179.7270  143.9740 C   0  0  0  0  0  2  0  0  0  0  0  0
  182.3240  178.8620  144.1940 O   0  0  0  0  0  0  0  0  0  0  0  0
  181.5120  179.0030  143.0670 C   0  0  0  0  0  1  0  0  0  0  0  0
  1 19  2  0  0  0  0
  4 12  2  0  0  0  0
  5 18  1  0  0  0  0
  5 11  1  6  0  0  0
  6  9  2  0  0  0  0
  6 17  1  0  0  0  0
  7  2  1  1  0  0  0
  7  5  1  0  0  0  0
  9  4  1  0  0  0  0
 10 15  1  1  0  0  0
 12  7  1  0  0  0  0
 12  8  1  0  0  0  0
 14  3  1  6  0  0  0
 14 10  1  0  0  0  0
 15 13  1  0  0  0  0
 16  6  1  0  0  0  0
 17  2  1  0  0  0  0
 18  8  1  6  0  0  0
 18 14  1  0  0  0  0
 19 13  1  0  0  0  0
 20 11  1  6  0  0  0
 20 10  1  0  0  0  0
 20  1  1  0  0  0  0
 21  1  1  0  0  0  0
 21 22  1  0  0  0  0
 23 22  1  6  0  0  0
 23 25  1  0  0  0  0
 25 24  1  0  0  0  0
 26 27  1  0  0  0  0
 26 23  1  0  0  0  0
 28 27  1  0  0  0  0
M  END
>  <MODEL>
5

>  <REMARK>
 VINA RESULT:      -7.9      2.989      7.222
  Name = 
  6 active torsions:
  status: ('A' for Active; 'I' for Inactive)
    1  A    between atoms: C_1  and  C_2
    2  A    between atoms: C_2  and  C_3
    3  A    between atoms: C_3  and  C_7
    4  A    between atoms: O_6  and  C_28
    5  A    between atoms: C_7  and  C_11
    6  A    between atoms: C_7  and  C_28
                            x       y       z     vdW  Elec       q    Type
                         _______ _______ _______ _____ _____    ______ ____

>  <TORSDO>
F 6

$$$$
=
 OpenBabel10262420493D

 28 31  0  0  1  0  0  0  0  0999 V2000
  186.7190  177.7380  145.0440 C   0  0  0  0  0  0  0  0  0  0  0  0
  189.9610  177.2280  141.4850 C   0  0  0  0  0  2  0  0  0  0  0  0
  186.0560  180.1280  142.4730 O   0  0  0  0  0  1  0  0  0  0  0  0
  188.9680  178.2300  138.6920 C   0  0  0  0  0  3  0  0  0  0  0  0
  187.6190  177.7890  142.0620 C   0  0  2  0  0  3  0  0  0  0  0  0
  191.1130  177.0430  139.2530 C   0  0  0  0  0  0  0  0  0  0  0  0
  188.7290  177.5560  141.1020 C   0  0  1  0  0  3  0  0  0  0  0  0
  187.0860  178.8200  140.0370 O   0  0  0  0  0  0  0  0  0  0  0  0
  190.1910  177.4620  138.3830 C   0  0  0  0  0  3  0  0  0  0  0  0
  185.0080  178.0080  143.1060 C   0  0  2  0  0  3  0  0  0  0  0  0
  187.1800  176.6530  142.8550 N   0  0  0  0  0  2  0  0  0  0  0  0
  188.3440  178.2530  139.8720 C   0  0  0  0  0  0  0  0  0  0  0  0
  184.9900  179.5540  145.0850 C   0  0  0  0  0  2  0  0  0  0  0  0
  185.4700  178.9630  141.9670 C   0  0  2  0  0  3  0  0  0  0  0  0
  184.1340  178.6930  144.1580 C   0  0  0  0  0  2  0  0  0  0  0  0
  192.1460  176.3010  138.7860 F   0  0  0  0  0  0  0  0  0  0  0  0
  191.1800  177.5190  140.6690 C   0  0  0  0  0  2  0  0  0  0  0  0
  186.4810  178.1910  141.1550 C   0  0  2  0  0  3  0  0  0  0  0  0
  186.1420  178.7800  145.6650 C   0  0  0  0  0  3  0  0  0  0  0  0
  186.1310  177.1370  143.7810 C   0  0  1  0  0  3  0  0  0  0  0  0
  187.8210  177.0100  145.7540 C   0  0  0  0  0  2  0  0  0  0  0  0
  188.5500  177.9330  146.7260 C   0  0  0  0  0  2  0  0  0  0  0  0
  190.0530  177.9120  146.4670 C   0  0  2  0  0  3  0  0  0  0  0  0
  190.8900  178.9350  144.3490 C   0  0  0  0  0  1  0  0  0  0  0  0
  190.3360  177.6750  144.9910 C   0  0  0  0  0  2  0  0  0  0  0  0
  190.7120  176.8160  147.2900 C   0  0  0  0  0  2  0  0  0  0  0  0
  192.0410  176.6430  146.8950 O   0  0  0  0  0  0  0  0  0  0  0  0
  192.5310  175.6280  147.7190 C   0  0  0  0  0  1  0  0  0  0  0  0
  1 19  2  0  0  0  0
  1 21  1  0  0  0  0
  4 12  2  0  0  0  0
  5 11  1  6  0  0  0
  6 17  1  0  0  0  0
  7  2  1  1  0  0  0
  7  5  1  0  0  0  0
  9  4  1  0  0  0  0
  9  6  2  0  0  0  0
 10 20  1  0  0  0  0
 10 15  1  1  0  0  0
 12  8  1  0  0  0  0
 12  7  1  0  0  0  0
 13 19  1  0  0  0  0
 14  3  1  1  0  0  0
 14 10  1  0  0  0  0
 15 13  1  0  0  0  0
 16  6  1  0  0  0  0
 17  2  1  0  0  0  0
 18  8  1  6  0  0  0
 18 14  1  0  0  0  0
 18  5  1  0  0  0  0
 20 11  1  6  0  0  0
 20  1  1  0  0  0  0
 21 22  1  0  0  0  0
 23 25  1  6  0  0  0
 23 22  1  0  0  0  0
 23 26  1  0  0  0  0
 24 25  1  0  0  0  0
 27 26  1  0  0  0  0
 27 28  1  0  0  0  0
M  END
>  <MODEL>
6

>  <REMARK>
 VINA RESULT:      -7.8      2.880      7.353
  Name = 
  6 active torsions:
  status: ('A' for Active; 'I' for Inactive)
    1  A    between atoms: C_1  and  C_2
    2  A    between atoms: C_2  and  C_3
    3  A    between atoms: C_3  and  C_7
    4  A    between atoms: O_6  and  C_28
    5  A    between atoms: C_7  and  C_11
    6  A    between atoms: C_7  and  C_28
                            x       y       z     vdW  Elec       q    Type
                         _______ _______ _______ _____ _____    ______ ____

>  <TORSDO>
F 6

$$$$
=
 OpenBabel10262420493D

 28 31  0  0  1  0  0  0  0  0999 V2000
  188.7930  177.7680  145.2170 C   0  0  0  0  0  0  0  0  0  0  0  0
  188.0570  178.0500  140.4400 C   0  0  0  0  0  2  0  0  0  0  0  0
  191.0500  175.5730  143.5290 O   0  0  0  0  0  1  0  0  0  0  0  0
  190.5470  177.2800  138.7100 C   0  0  0  0  0  3  0  0  0  0  0  0
  189.7250  177.7350  142.2440 C   0  0  2  0  0  3  0  0  0  0  0  0
  188.3340  178.1930  137.9410 C   0  0  0  0  0  0  0  0  0  0  0  0
  189.3210  177.8790  140.8210 C   0  0  1  0  0  3  0  0  0  0  0  0
  191.4120  176.8530  140.8950 O   0  0  0  0  0  0  0  0  0  0  0  0
  189.6260  177.9160  137.7480 C   0  0  0  0  0  3  0  0  0  0  0  0
  191.3130  177.7710  144.5750 C   0  0  2  0  0  3  0  0  0  0  0  0
  189.5110  178.8810  143.1120 N   0  0  0  0  0  2  0  0  0  0  0  0
  190.4050  177.2800  140.0380 C   0  0  0  0  0  0  0  0  0  0  0  0
  190.4020  176.1590  146.2710 C   0  0  0  0  0  2  0  0  0  0  0  0
  191.6790  176.8150  143.4010 C   0  0  2  0  0  3  0  0  0  0  0  0
  191.5230  177.1470  145.9560 C   0  0  0  0  0  2  0  0  0  0  0  0
  187.6600  178.8320  136.9550 F   0  0  0  0  0  0  0  0  0  0  0  0
  187.5440  177.6570  139.0910 C   0  0  0  0  0  2  0  0  0  0  0  0
  191.2120  177.5010  142.1400 C   0  0  2  0  0  3  0  0  0  0  0  0
  189.0420  176.7730  146.0860 C   0  0  0  0  0  3  0  0  0  0  0  0
  189.9120  178.4810  144.4810 C   0  0  1  0  0  3  0  0  0  0  0  0
  187.4070  178.3380  145.1680 C   0  0  0  0  0  2  0  0  0  0  0  0
  186.4970  177.4880  144.2880 C   0  0  0  0  0  2  0  0  0  0  0  0
  185.2520  178.2710  143.8820 C   0  0  2  0  0  3  0  0  0  0  0  0
  184.4720  178.3490  141.5120 C   0  0  0  0  0  1  0  0  0  0  0  0
  185.4520  178.9220  142.5220 C   0  0  0  0  0  2  0  0  0  0  0  0
  184.9480  179.3440  144.9160 C   0  0  0  0  0  2  0  0  0  0  0  0
  183.8090  179.0040  145.6500 O   0  0  0  0  0  0  0  0  0  0  0  0
  182.7690  178.9990  144.7190 C   0  0  0  0  0  1  0  0  0  0  0  0
  1 19  2  0  0  0  0
  4 12  2  0  0  0  0
  5 11  1  1  0  0  0
  6 17  1  0  0  0  0
  7  2  1  1  0  0  0
  7  5  1  0  0  0  0
  9  6  2  0  0  0  0
  9  4  1  0  0  0  0
 10 15  1  1  0  0  0
 12  7  1  0  0  0  0
 12  8  1  0  0  0  0
 14  3  1  1  0  0  0
 14 10  1  0  0  0  0
 15 13  1  0  0  0  0
 16  6  1  0  0  0  0
 17  2  1  0  0  0  0
 18  8  1  6  0  0  0
 18  5  1  0  0  0  0
 18 14  1  0  0  0  0
 19 13  1  0  0  0  0
 20 11  1  6  0  0  0
 20 10  1  0  0  0  0
 20  1  1  0  0  0  0
 21  1  1  0  0  0  0
 22 21  1  0  0  0  0
 23 25  1  6  0  0  0
 23 22  1  0  0  0  0
 23 26  1  0  0  0  0
 24 25  1  0  0  0  0
 26 27  1  0  0  0  0
 28 27  1  0  0  0  0
M  END
>  <MODEL>
7

>  <REMARK>
 VINA RESULT:      -7.8      2.543      6.278
  Name = 
  6 active torsions:
  status: ('A' for Active; 'I' for Inactive)
    1  A    between atoms: C_1  and  C_2
    2  A    between atoms: C_2  and  C_3
    3  A    between atoms: C_3  and  C_7
    4  A    between atoms: O_6  and  C_28
    5  A    between atoms: C_7  and  C_11
    6  A    between atoms: C_7  and  C_28
                            x       y       z     vdW  Elec       q    Type
                         _______ _______ _______ _____ _____    ______ ____

>  <TORSDO>
F 6

$$$$
=
 OpenBabel10262420493D

 28 31  0  0  1  0  0  0  0  0999 V2000
  185.0900  178.0540  138.3530 C   0  0  0  0  0  0  0  0  0  0  0  0
  186.2010  178.0510  143.0650 C   0  0  0  0  0  2  0  0  0  0  0  0
  182.1750  177.2740  140.2670 O   0  0  0  0  0  1  0  0  0  0  0  0
  183.7760  178.6300  144.9560 C   0  0  0  0  0  3  0  0  0  0  0  0
  184.4680  178.5460  141.3660 C   0  0  2  0  0  3  0  0  0  0  0  0
  186.2020  178.3680  145.5640 C   0  0  0  0  0  0  0  0  0  0  0  0
  184.9890  178.5080  142.7570 C   0  0  1  0  0  3  0  0  0  0  0  0
  182.6640  178.6280  142.8430 O   0  0  0  0  0  0  0  0  0  0  0  0
  184.9550  178.7590  145.8350 C   0  0  0  0  0  3  0  0  0  0  0  0
  182.9390  179.2970  139.1190 C   0  0  2  0  0  3  0  0  0  0  0  0
  185.1490  179.4230  140.4280 N   0  0  0  0  0  2  0  0  0  0  0  0
  183.8090  178.5300  143.6240 C   0  0  0  0  0  0  0  0  0  0  0  0
  182.8340  177.4080  137.4680 C   0  0  0  0  0  2  0  0  0  0  0  0
  182.2380  178.6680  140.3580 C   0  0  2  0  0  3  0  0  0  0  0  0
  182.3570  178.8240  137.7850 C   0  0  0  0  0  2  0  0  0  0  0  0
  187.1680  178.6190  146.4800 F   0  0  0  0  0  0  0  0  0  0  0  0
  186.5520  177.4890  144.4060 C   0  0  0  0  0  2  0  0  0  0  0  0
  183.0650  179.0680  141.5560 C   0  0  2  0  0  3  0  0  0  0  0  0
  184.3310  177.2870  137.5520 C   0  0  0  0  0  3  0  0  0  0  0  0
  184.5110  179.2380  139.1050 C   0  0  1  0  0  3  0  0  0  0  0  0
  186.5780  177.8780  138.3020 C   0  0  0  0  0  2  0  0  0  0  0  0
  187.1640  178.5250  137.0520 C   0  0  0  0  0  2  0  0  0  0  0  0
  188.6620  178.7580  137.2150 C   0  0  2  0  0  3  0  0  0  0  0  0
  188.6170  177.2600  135.2180 C   0  0  0  0  0  1  0  0  0  0  0  0
  189.4510  177.7530  136.3880 C   0  0  0  0  0  2  0  0  0  0  0  0
  189.0570  178.6280  138.6780 C   0  0  0  0  0  2  0  0  0  0  0  0
  190.0270  177.6340  138.8340 O   0  0  0  0  0  0  0  0  0  0  0  0
  189.9440  177.2590  140.1770 C   0  0  0  0  0  1  0  0  0  0  0  0
  2 17  1  0  0  0  0
  4  9  1  0  0  0  0
  5 11  1  6  0  0  0
  5 18  1  0  0  0  0
  5  7  1  0  0  0  0
  6  9  2  0  0  0  0
  6 16  1  0  0  0  0
  7  2  1  6  0  0  0
  7 12  1  0  0  0  0
  8 12  1  0  0  0  0
 10 15  1  6  0  0  0
 10 14  1  0  0  0  0
 12  4  2  0  0  0  0
 13 19  1  0  0  0  0
 13 15  1  0  0  0  0
 14  3  1  6  0  0  0
 14 18  1  0  0  0  0
 17  6  1  0  0  0  0
 18  8  1  1  0  0  0
 19  1  2  0  0  0  0
 20  1  1  1  0  0  0
 20 10  1  0  0  0  0
 20 11  1  0  0  0  0
 21  1  1  0  0  0  0
 22 23  1  0  0  0  0
 22 21  1  0  0  0  0
 23 25  1  6  0  0  0
 23 26  1  0  0  0  0
 24 25  1  0  0  0  0
 26 27  1  0  0  0  0
 27 28  1  0  0  0  0
M  END
>  <MODEL>
8

>  <REMARK>
 VINA RESULT:      -7.6      3.051      5.697
  Name = 
  6 active torsions:
  status: ('A' for Active; 'I' for Inactive)
    1  A    between atoms: C_1  and  C_2
    2  A    between atoms: C_2  and  C_3
    3  A    between atoms: C_3  and  C_7
    4  A    between atoms: O_6  and  C_28
    5  A    between atoms: C_7  and  C_11
    6  A    between atoms: C_7  and  C_28
                            x       y       z     vdW  Elec       q    Type
                         _______ _______ _______ _____ _____    ______ ____

>  <TORSDO>
F 6

$$$$
=
 OpenBabel10262420493D

 28 31  0  0  1  0  0  0  0  0999 V2000
  187.4150  177.6680  142.9330 C   0  0  0  0  0  0  0  0  0  0  0  0
  187.8660  176.8980  138.1740 C   0  0  0  0  0  2  0  0  0  0  0  0
  190.3890  175.7910  142.3030 O   0  0  0  0  0  1  0  0  0  0  0  0
  190.8100  176.4300  137.2240 C   0  0  0  0  0  3  0  0  0  0  0  0
  189.0540  177.3140  140.3070 C   0  0  2  0  0  3  0  0  0  0  0  0
  188.7330  176.6460  135.8230 C   0  0  0  0  0  0  0  0  0  0  0  0
  189.0030  177.0990  138.8380 C   0  0  1  0  0  3  0  0  0  0  0  0
  191.1600  176.6200  139.5780 O   0  0  0  0  0  0  0  0  0  0  0  0
  190.0590  176.6470  135.9710 C   0  0  0  0  0  3  0  0  0  0  0  0
  189.9690  178.1420  142.8430 C   0  0  2  0  0  3  0  0  0  0  0  0
  188.4210  178.5160  140.8230 N   0  0  0  0  0  2  0  0  0  0  0  0
  190.3400  176.6380  138.4570 C   0  0  0  0  0  0  0  0  0  0  0  0
  188.9740  176.6970  144.6400 C   0  0  0  0  0  2  0  0  0  0  0  0
  190.7890  177.1020  142.0250 C   0  0  2  0  0  3  0  0  0  0  0  0
  189.9370  177.8460  144.3440 C   0  0  0  0  0  2  0  0  0  0  0  0
  188.2220  176.9190  134.5980 F   0  0  0  0  0  0  0  0  0  0  0  0
  187.7910  176.1570  136.8770 C   0  0  0  0  0  2  0  0  0  0  0  0
  190.5370  177.4190  140.5710 C   0  0  2  0  0  3  0  0  0  0  0  0
  187.6160  176.9330  144.0400 C   0  0  0  0  0  3  0  0  0  0  0  0
  188.5320  178.4770  142.3000 C   0  0  1  0  0  3  0  0  0  0  0  0
  186.0050  177.8790  142.4680 C   0  0  0  0  0  2  0  0  0  0  0  0
  185.4340  179.1800  143.0230 C   0  0  0  0  0  2  0  0  0  0  0  0
  183.9360  179.2710  142.7540 C   0  0  2  0  0  3  0  0  0  0  0  0
  183.8300  178.9550  145.2290 C   0  0  0  0  0  1  0  0  0  0  0  0
  183.1500  178.6560  143.9030 C   0  0  0  0  0  2  0  0  0  0  0  0
  183.5900  178.5470  141.4620 C   0  0  0  0  0  2  0  0  0  0  0  0
  182.2140  178.3150  141.3880 O   0  0  0  0  0  0  0  0  0  0  0  0
  182.0370  177.5740  140.2170 C   0  0  0  0  0  1  0  0  0  0  0  0
  1 19  2  0  0  0  0
  4 12  2  0  0  0  0
  5 18  1  0  0  0  0
  5 11  1  6  0  0  0
  6  9  2  0  0  0  0
  6 17  1  0  0  0  0
  7  2  1  1  0  0  0
  7  5  1  0  0  0  0
  9  4  1  0  0  0  0
 10 15  1  1  0  0  0
 12  7  1  0  0  0  0
 12  8  1  0  0  0  0
 14  3  1  1  0  0  0
 14 10  1  0  0  0  0
 15 13  1  0  0  0  0
 16  6  1  0  0  0  0
 17  2  1  0  0  0  0
 18  8  1  6  0  0  0
 18 14  1  0  0  0  0
 19 13  1  0  0  0  0
 20 11  1  6  0  0  0
 20 10  1  0  0  0  0
 20  1  1  0  0  0  0
 21  1  1  0  0  0  0
 21 22  1  0  0  0  0
 23 26  1  6  0  0  0
 23 22  1  0  0  0  0
 23 25  1  0  0  0  0
 25 24  1  0  0  0  0
 27 26  1  0  0  0  0
 28 27  1  0  0  0  0
M  END
>  <MODEL>
9

>  <REMARK>
 VINA RESULT:      -7.4      3.168      6.969
  Name = 
  6 active torsions:
  status: ('A' for Active; 'I' for Inactive)
    1  A    between atoms: C_1  and  C_2
    2  A    between atoms: C_2  and  C_3
    3  A    between atoms: C_3  and  C_7
    4  A    between atoms: O_6  and  C_28
    5  A    between atoms: C_7  and  C_11
    6  A    between atoms: C_7  and  C_28
                            x       y       z     vdW  Elec       q    Type
                         _______ _______ _______ _____ _____    ______ ____

>  <TORSDO>
F 6

$$$$
