=
 OpenBabel10262420503D

 28 32  0  0  1  0  0  0  0  0999 V2000
  189.0760  177.9240  143.7110 C   0  0  1  0  0  3  0  0  0  0  0  0
  187.6780  178.3450  138.7270 C   0  0  0  0  0  2  0  0  0  0  0  0
  193.1590  176.8740  141.0610 F   0  0  0  0  0  0  0  0  0  0  0  0
  189.6340  177.4260  137.5520 C   0  0  2  0  0  3  0  0  0  0  0  0
  189.6270  177.4190  140.0650 C   0  0  0  0  0  0  0  0  0  0  0  0
  187.4980  177.5690  136.3010 C   0  0  0  0  0  0  0  0  0  0  0  0
  188.7850  177.2970  138.8160 C   0  0  1  0  0  3  0  0  0  0  0  0
  191.7630  176.8700  138.6900 C   0  0  0  0  0  2  0  0  0  0  0  0
  188.7940  177.2350  136.3240 C   0  0  0  0  0  3  0  0  0  0  0  0
  191.2380  177.4450  142.4820 C   0  0  1  0  0  3  0  0  0  0  0  0
  189.0300  177.6170  141.2410 C   0  0  0  0  0  3  0  0  0  0  0  0
  190.7890  176.4420  137.5960 C   0  0  0  0  0  2  0  0  0  0  0  0
  191.0730  179.3500  144.1950 C   0  0  0  0  0  2  0  0  0  0  0  0
  191.8290  177.1400  141.1300 C   0  0  0  0  0  0  0  0  0  0  0  0
  191.9260  178.6580  143.1200 C   0  0  0  0  0  2  0  0  0  0  0  0
  186.7880  177.4180  135.1170 O   0  0  0  0  0  1  0  0  0  0  0  0
  186.7610  178.0340  137.5360 C   0  0  0  0  0  2  0  0  0  0  0  0
  191.0840  177.1170  140.0150 C   0  0  0  0  0  0  0  0  0  0  0  0
  190.0350  178.4100  144.8030 C   0  0  0  0  0  2  0  0  0  0  0  0
  189.7780  177.6200  142.4620 N   0  0  0  0  0  0  0  0  0  0  0  0
  188.1960  176.7570  144.1940 C   0  0  0  0  0  2  0  0  0  0  0  0
  186.7410  177.0920  144.5490 C   0  0  2  0  0  3  0  0  0  0  0  0
  184.4990  178.6630  145.2770 C   0  0  0  0  0  0  0  0  0  0  0  0
  186.0300  177.9500  143.4940 C   0  0  0  0  0  2  0  0  0  0  0  0
  186.6060  177.6720  145.9330 C   0  0  0  0  0  3  0  0  0  0  0  0
  185.5350  178.3860  146.2800 C   0  0  0  0  0  3  0  0  0  0  0  0
  183.4110  179.1950  145.6180 O   0  0  0  0  0  0  0  0  0  0  0  0
  184.7250  178.3150  143.9420 O   0  0  0  0  0  0  0  0  0  0  0  0
  1 21  1  1  0  0  0
  1 19  1  0  0  0  0
  3 14  1  0  0  0  0
  4  9  1  6  0  0  0
  4 12  1  0  0  0  0
  4  7  1  0  0  0  0
  5 11  2  0  0  0  0
  6  9  2  0  0  0  0
  6 17  1  0  0  0  0
  7  2  1  1  0  0  0
  7  5  1  0  0  0  0
  8 18  1  0  0  0  0
 10 15  1  6  0  0  0
 11 20  1  0  0  0  0
 12  8  1  0  0  0  0
 13 19  1  0  0  0  0
 14 10  1  0  0  0  0
 15 13  1  0  0  0  0
 16  6  1  0  0  0  0
 17  2  1  0  0  0  0
 18  5  1  0  0  0  0
 18 14  2  0  0  0  0
 20 10  1  0  0  0  0
 20  1  1  0  0  0  0
 22 21  1  6  0  0  0
 22 25  1  0  0  0  0
 23 27  2  0  0  0  0
 23 26  1  0  0  0  0
 24 28  1  0  0  0  0
 24 22  1  0  0  0  0
 25 26  2  0  0  0  0
 28 23  1  0  0  0  0
M  END
>  <MODEL>
1

>  <REMARK>
 VINA RESULT:      -9.5      0.000      0.000
  Name = 
  2 active torsions:
  status: ('A' for Active; 'I' for Inactive)
    1  A    between atoms: C_1  and  C_2
    2  A    between atoms: C_2  and  C_3
                            x       y       z     vdW  Elec       q    Type
                         _______ _______ _______ _____ _____    ______ ____

>  <TORSDO>
F 2

$$$$
=
 OpenBabel10262420503D

 28 32  0  0  1  0  0  0  0  0999 V2000
  191.0910  176.7240  144.4620 C   0  0  1  0  0  3  0  0  0  0  0  0
  185.9900  177.4100  143.7630 C   0  0  0  0  0  2  0  0  0  0  0  0
  189.2770  178.0550  148.9040 F   0  0  0  0  0  0  0  0  0  0  0  0
  185.3000  178.4350  145.8890 C   0  0  2  0  0  3  0  0  0  0  0  0
  187.7360  177.9300  145.5310 C   0  0  0  0  0  0  0  0  0  0  0  0
  183.7790  178.6740  143.9460 C   0  0  0  0  0  0  0  0  0  0  0  0
  186.4420  178.3510  144.8770 C   0  0  1  0  0  3  0  0  0  0  0  0
  186.7980  178.6240  147.8540 C   0  0  0  0  0  2  0  0  0  0  0  0
  184.0410  178.9200  145.2360 C   0  0  0  0  0  3  0  0  0  0  0  0
  190.2830  177.3180  146.7870 C   0  0  1  0  0  3  0  0  0  0  0  0
  188.7560  177.5300  144.7710 C   0  0  0  0  0  3  0  0  0  0  0  0
  185.7010  179.3210  147.0550 C   0  0  0  0  0  2  0  0  0  0  0  0
  191.5210  175.1160  146.3290 C   0  0  0  0  0  2  0  0  0  0  0  0
  189.1140  177.8570  147.5700 C   0  0  0  0  0  0  0  0  0  0  0  0
  190.7360  175.9620  147.3440 C   0  0  0  0  0  2  0  0  0  0  0  0
  182.5710  179.1030  143.4130 O   0  0  0  0  0  1  0  0  0  0  0  0
  184.7820  178.0090  143.0310 C   0  0  0  0  0  2  0  0  0  0  0  0
  187.9410  178.1510  146.9890 C   0  0  0  0  0  0  0  0  0  0  0  0
  192.1720  175.9710  145.2440 C   0  0  0  0  0  2  0  0  0  0  0  0
  190.0360  177.2350  145.3400 N   0  0  0  0  0  0  0  0  0  0  0  0
  191.6890  177.8160  143.5570 C   0  0  0  0  0  2  0  0  0  0  0  0
  191.3050  177.7680  142.0720 C   0  0  2  0  0  3  0  0  0  0  0  0
  191.1150  176.7640  139.4290 C   0  0  0  0  0  0  0  0  0  0  0  0
  190.2740  176.6830  141.7350 C   0  0  0  0  0  2  0  0  0  0  0  0
  192.5110  177.6990  141.1700 C   0  0  0  0  0  3  0  0  0  0  0  0
  192.4100  177.2540  139.9170 C   0  0  0  0  0  3  0  0  0  0  0  0
  190.9580  176.4900  138.2120 O   0  0  0  0  0  0  0  0  0  0  0  0
  190.0520  176.6220  140.3260 O   0  0  0  0  0  0  0  0  0  0  0  0
  1 21  1  1  0  0  0
  1 19  1  0  0  0  0
  1 20  1  0  0  0  0
  4  9  1  6  0  0  0
  4 12  1  0  0  0  0
  5 18  1  0  0  0  0
  6  9  2  0  0  0  0
  7  2  1  6  0  0  0
  7  5  1  0  0  0  0
  7  4  1  0  0  0  0
 10 15  1  1  0  0  0
 10 14  1  0  0  0  0
 11 20  1  0  0  0  0
 11  5  2  0  0  0  0
 12  8  1  0  0  0  0
 13 15  1  0  0  0  0
 14  3  1  0  0  0  0
 16  6  1  0  0  0  0
 17  2  1  0  0  0  0
 17  6  1  0  0  0  0
 18 14  2  0  0  0  0
 18  8  1  0  0  0  0
 19 13  1  0  0  0  0
 20 10  1  0  0  0  0
 22 21  1  1  0  0  0
 23 26  1  0  0  0  0
 23 28  1  0  0  0  0
 24 22  1  0  0  0  0
 25 22  1  0  0  0  0
 26 25  2  0  0  0  0
 27 23  2  0  0  0  0
 28 24  1  0  0  0  0
M  END
>  <MODEL>
2

>  <REMARK>
 VINA RESULT:      -9.4      2.927      7.274
  Name = 
  2 active torsions:
  status: ('A' for Active; 'I' for Inactive)
    1  A    between atoms: C_1  and  C_2
    2  A    between atoms: C_2  and  C_3
                            x       y       z     vdW  Elec       q    Type
                         _______ _______ _______ _____ _____    ______ ____

>  <TORSDO>
F 2

$$$$
=
 OpenBabel10262420503D

 28 32  0  0  1  0  0  0  0  0999 V2000
  188.3800  177.0190  138.2950 C   0  0  1  0  0  3  0  0  0  0  0  0
  187.5230  176.8390  143.4150 C   0  0  0  0  0  2  0  0  0  0  0  0
  192.8530  177.4600  140.4380 F   0  0  0  0  0  0  0  0  0  0  0  0
  189.7160  177.4610  144.3380 C   0  0  2  0  0  3  0  0  0  0  0  0
  189.4180  177.4560  141.8420 C   0  0  0  0  0  0  0  0  0  0  0  0
  187.7420  177.6460  145.8270 C   0  0  0  0  0  0  0  0  0  0  0  0
  188.7550  177.7080  143.1760 C   0  0  1  0  0  3  0  0  0  0  0  0
  191.7580  177.6850  142.9520 C   0  0  0  0  0  2  0  0  0  0  0  0
  189.0630  177.7820  145.6480 C   0  0  0  0  0  3  0  0  0  0  0  0
  190.7160  177.1750  139.2590 C   0  0  1  0  0  3  0  0  0  0  0  0
  188.6670  177.3430  140.7470 C   0  0  0  0  0  3  0  0  0  0  0  0
  190.9910  178.2600  144.1400 C   0  0  0  0  0  2  0  0  0  0  0  0
  190.0730  175.3070  137.6190 C   0  0  0  0  0  2  0  0  0  0  0  0
  191.4990  177.3950  140.5270 C   0  0  0  0  0  0  0  0  0  0  0  0
  191.1390  175.8690  138.5740 C   0  0  0  0  0  2  0  0  0  0  0  0
  187.2050  177.9080  147.0800 O   0  0  0  0  0  1  0  0  0  0  0  0
  186.8070  177.2890  144.6950 C   0  0  0  0  0  2  0  0  0  0  0  0
  190.9000  177.5360  141.7190 C   0  0  0  0  0  0  0  0  0  0  0  0
  189.1220  176.3890  137.1120 C   0  0  0  0  0  2  0  0  0  0  0  0
  189.2590  177.2210  139.4490 N   0  0  0  0  0  0  0  0  0  0  0  0
  187.6320  178.3010  137.8890 C   0  0  0  0  0  2  0  0  0  0  0  0
  186.1020  178.2130  137.8130 C   0  0  2  0  0  3  0  0  0  0  0  0
  183.4910  177.2220  138.2920 C   0  0  0  0  0  0  0  0  0  0  0  0
  185.3990  178.5130  139.1440 C   0  0  0  0  0  2  0  0  0  0  0  0
  185.6310  176.9160  137.2060 C   0  0  0  0  0  3  0  0  0  0  0  0
  184.3910  176.4690  137.4090 C   0  0  0  0  0  3  0  0  0  0  0  0
  182.2750  176.9100  138.3740 O   0  0  0  0  0  0  0  0  0  0  0  0
  183.9920  178.3010  139.0260 O   0  0  0  0  0  0  0  0  0  0  0  0
  1 21  1  6  0  0  0
  1 20  1  0  0  0  0
  2 17  1  0  0  0  0
  3 14  1  0  0  0  0
  4 12  1  6  0  0  0
  4  9  1  0  0  0  0
  5  7  1  0  0  0  0
  6 16  1  0  0  0  0
  7  2  1  1  0  0  0
  7  4  1  0  0  0  0
  8 12  1  0  0  0  0
  9  6  2  0  0  0  0
 10 15  1  1  0  0  0
 10 20  1  0  0  0  0
 10 14  1  0  0  0  0
 11  5  2  0  0  0  0
 13 15  1  0  0  0  0
 14 18  2  0  0  0  0
 17  6  1  0  0  0  0
 18  5  1  0  0  0  0
 18  8  1  0  0  0  0
 19 13  1  0  0  0  0
 19  1  1  0  0  0  0
 20 11  1  0  0  0  0
 22 21  1  1  0  0  0
 22 24  1  0  0  0  0
 23 27  2  0  0  0  0
 23 28  1  0  0  0  0
 25 26  2  0  0  0  0
 25 22  1  0  0  0  0
 26 23  1  0  0  0  0
 28 24  1  0  0  0  0
M  END
>  <MODEL>
3

>  <REMARK>
 VINA RESULT:      -9.1      2.121      6.400
  Name = 
  2 active torsions:
  status: ('A' for Active; 'I' for Inactive)
    1  A    between atoms: C_1  and  C_2
    2  A    between atoms: C_2  and  C_3
                            x       y       z     vdW  Elec       q    Type
                         _______ _______ _______ _____ _____    ______ ____

>  <TORSDO>
F 2

$$$$
=
 OpenBabel10262420503D

 28 32  0  0  1  0  0  0  0  0999 V2000
  188.9100  177.4130  141.2960 C   0  0  1  0  0  3  0  0  0  0  0  0
  183.7460  177.8780  141.6060 C   0  0  0  0  0  2  0  0  0  0  0  0
  187.8960  178.1170  146.1200 F   0  0  0  0  0  0  0  0  0  0  0  0
  183.4220  178.6100  143.9310 C   0  0  2  0  0  3  0  0  0  0  0  0
  185.7670  178.2910  143.0860 C   0  0  0  0  0  0  0  0  0  0  0  0
  181.5610  178.9820  142.3340 C   0  0  0  0  0  0  0  0  0  0  0  0
  184.3600  178.7100  142.7290 C   0  0  1  0  0  3  0  0  0  0  0  0
  185.2470  178.6580  145.6060 C   0  0  0  0  0  2  0  0  0  0  0  0
  182.0470  179.0930  143.5770 C   0  0  0  0  0  3  0  0  0  0  0  0
  188.5210  177.6880  143.7830 C   0  0  1  0  0  3  0  0  0  0  0  0
  186.6440  178.0420  142.1120 C   0  0  0  0  0  3  0  0  0  0  0  0
  183.9970  179.3780  145.1070 C   0  0  0  0  0  2  0  0  0  0  0  0
  189.7330  175.6290  142.8430 C   0  0  0  0  0  2  0  0  0  0  0  0
  187.4980  178.0650  144.8220 C   0  0  0  0  0  0  0  0  0  0  0  0
  189.1180  176.3060  144.0780 C   0  0  0  0  0  2  0  0  0  0  0  0
  180.2610  179.3990  142.0820 O   0  0  0  0  0  1  0  0  0  0  0  0
  182.4030  178.4860  141.1800 C   0  0  0  0  0  2  0  0  0  0  0  0
  186.2280  178.3550  144.5000 C   0  0  0  0  0  0  0  0  0  0  0  0
  190.1420  176.6390  141.7740 C   0  0  0  0  0  2  0  0  0  0  0  0
  188.0160  177.7580  142.4040 N   0  0  0  0  0  0  0  0  0  0  0  0
  189.2920  178.6340  140.4410 C   0  0  0  0  0  2  0  0  0  0  0  0
  189.0550  178.5200  138.9290 C   0  0  2  0  0  3  0  0  0  0  0  0
  188.4720  177.3060  136.4360 C   0  0  0  0  0  0  0  0  0  0  0  0
  187.6030  178.1970  138.5530 C   0  0  0  0  0  2  0  0  0  0  0  0
  190.0310  177.5820  138.2660 C   0  0  0  0  0  3  0  0  0  0  0  0
  189.7650  177.0370  137.0780 C   0  0  0  0  0  3  0  0  0  0  0  0
  188.2620  176.9350  135.2530 O   0  0  0  0  0  0  0  0  0  0  0  0
  187.4830  177.9930  137.1460 O   0  0  0  0  0  0  0  0  0  0  0  0
  1 21  1  1  0  0  0
  1 19  1  0  0  0  0
  1 20  1  0  0  0  0
  4  9  1  6  0  0  0
  4 12  1  0  0  0  0
  5 18  1  0  0  0  0
  6  9  2  0  0  0  0
  7  2  1  6  0  0  0
  7  5  1  0  0  0  0
  7  4  1  0  0  0  0
 10 15  1  1  0  0  0
 10 14  1  0  0  0  0
 11 20  1  0  0  0  0
 11  5  2  0  0  0  0
 12  8  1  0  0  0  0
 13 15  1  0  0  0  0
 14  3  1  0  0  0  0
 16  6  1  0  0  0  0
 17  2  1  0  0  0  0
 17  6  1  0  0  0  0
 18 14  2  0  0  0  0
 18  8  1  0  0  0  0
 19 13  1  0  0  0  0
 20 10  1  0  0  0  0
 22 21  1  1  0  0  0
 23 26  1  0  0  0  0
 23 28  1  0  0  0  0
 24 22  1  0  0  0  0
 25 22  1  0  0  0  0
 26 25  2  0  0  0  0
 27 23  2  0  0  0  0
 28 24  1  0  0  0  0
M  END
>  <MODEL>
4

>  <REMARK>
 VINA RESULT:      -9.1      2.461      7.125
  Name = 
  2 active torsions:
  status: ('A' for Active; 'I' for Inactive)
    1  A    between atoms: C_1  and  C_2
    2  A    between atoms: C_2  and  C_3
                            x       y       z     vdW  Elec       q    Type
                         _______ _______ _______ _____ _____    ______ ____

>  <TORSDO>
F 2

$$$$
=
 OpenBabel10262420503D

 28 32  0  0  1  0  0  0  0  0999 V2000
  184.2360  178.8050  142.5960 C   0  0  1  0  0  3  0  0  0  0  0  0
  188.8340  178.4160  140.2120 C   0  0  0  0  0  2  0  0  0  0  0  0
  187.3770  176.9610  145.9920 F   0  0  0  0  0  0  0  0  0  0  0  0
  190.1660  177.1420  141.8400 C   0  0  2  0  0  3  0  0  0  0  0  0
  187.7480  177.5970  142.3550 C   0  0  0  0  0  0  0  0  0  0  0  0
  190.9780  177.2250  139.4980 C   0  0  0  0  0  0  0  0  0  0  0  0
  188.7600  177.3170  141.2680 C   0  0  1  0  0  3  0  0  0  0  0  0
  189.3810  176.6340  144.1350 C   0  0  0  0  0  2  0  0  0  0  0  0
  191.1440  176.7980  140.7570 C   0  0  0  0  0  3  0  0  0  0  0  0
  185.7470  177.9360  144.4330 C   0  0  1  0  0  3  0  0  0  0  0  0
  186.5410  178.0550  142.0250 C   0  0  0  0  0  3  0  0  0  0  0  0
  190.1570  176.0930  142.9370 C   0  0  0  0  0  2  0  0  0  0  0  0
  184.4430  180.1300  144.7070 C   0  0  0  0  0  2  0  0  0  0  0  0
  187.1020  177.3420  144.7170 C   0  0  0  0  0  0  0  0  0  0  0  0
  185.5070  179.1860  145.2890 C   0  0  0  0  0  2  0  0  0  0  0  0
  191.9460  176.9170  138.5520 O   0  0  0  0  0  1  0  0  0  0  0  0
  189.7380  177.9670  139.0550 C   0  0  0  0  0  2  0  0  0  0  0  0
  188.0230  177.1740  143.7560 C   0  0  0  0  0  0  0  0  0  0  0  0
  183.4710  179.4040  143.7800 C   0  0  0  0  0  2  0  0  0  0  0  0
  185.5150  178.2210  143.0100 N   0  0  0  0  0  0  0  0  0  0  0  0
  183.3710  177.8220  141.7880 C   0  0  0  0  0  2  0  0  0  0  0  0
  182.8110  178.3320  140.4530 C   0  0  2  0  0  3  0  0  0  0  0  0
  181.8160  180.1730  138.5420 C   0  0  0  0  0  0  0  0  0  0  0  0
  183.7810  179.2370  139.6820 C   0  0  0  0  0  2  0  0  0  0  0  0
  181.4510  178.9640  140.6060 C   0  0  0  0  0  3  0  0  0  0  0  0
  180.9740  179.8060  139.6880 C   0  0  0  0  0  3  0  0  0  0  0  0
  181.3350  180.8360  137.5880 O   0  0  0  0  0  0  0  0  0  0  0  0
  183.1530  179.7630  138.5130 O   0  0  0  0  0  0  0  0  0  0  0  0
  1 21  1  1  0  0  0
  1 20  1  0  0  0  0
  1 19  1  0  0  0  0
  4  9  1  6  0  0  0
  4 12  1  0  0  0  0
  5 18  1  0  0  0  0
  6  9  2  0  0  0  0
  7  2  1  6  0  0  0
  7  4  1  0  0  0  0
  7  5  1  0  0  0  0
 10 14  1  0  0  0  0
 10 15  1  1  0  0  0
 11  5  2  0  0  0  0
 11 20  1  0  0  0  0
 12  8  1  0  0  0  0
 13 15  1  0  0  0  0
 14  3  1  0  0  0  0
 16  6  1  0  0  0  0
 17  6  1  0  0  0  0
 17  2  1  0  0  0  0
 18  8  1  0  0  0  0
 18 14  2  0  0  0  0
 19 13  1  0  0  0  0
 20 10  1  0  0  0  0
 22 25  1  0  0  0  0
 22 21  1  1  0  0  0
 23 26  1  0  0  0  0
 24 22  1  0  0  0  0
 26 25  2  0  0  0  0
 27 23  2  0  0  0  0
 28 23  1  0  0  0  0
 28 24  1  0  0  0  0
M  END
>  <MODEL>
5

>  <REMARK>
 VINA RESULT:      -8.3      3.630      5.687
  Name = 
  2 active torsions:
  status: ('A' for Active; 'I' for Inactive)
    1  A    between atoms: C_1  and  C_2
    2  A    between atoms: C_2  and  C_3
                            x       y       z     vdW  Elec       q    Type
                         _______ _______ _______ _____ _____    ______ ____

>  <TORSDO>
F 2

$$$$
=
 OpenBabel10262420503D

 28 32  0  0  1  0  0  0  0  0999 V2000
  185.7030  178.9220  145.8000 C   0  0  1  0  0  3  0  0  0  0  0  0
  188.5570  178.6650  141.4680 C   0  0  0  0  0  2  0  0  0  0  0  0
  189.6770  176.1500  146.9520 F   0  0  0  0  0  0  0  0  0  0  0  0
  190.2430  176.9710  142.0470 C   0  0  2  0  0  3  0  0  0  0  0  0
  188.4480  177.5050  143.7230 C   0  0  0  0  0  0  0  0  0  0  0  0
  189.8940  177.4780  139.6450 C   0  0  0  0  0  0  0  0  0  0  0  0
  188.7850  177.3780  142.2560 C   0  0  1  0  0  3  0  0  0  0  0  0
  190.5190  176.0580  144.3330 C   0  0  0  0  0  2  0  0  0  0  0  0
  190.5400  176.7830  140.5900 C   0  0  0  0  0  3  0  0  0  0  0  0
  187.7110  177.5630  146.5320 C   0  0  1  0  0  3  0  0  0  0  0  0
  187.3230  178.1210  144.0870 C   0  0  0  0  0  3  0  0  0  0  0  0
  190.5550  175.7190  142.8460 C   0  0  0  0  0  2  0  0  0  0  0  0
  187.0780  179.7510  147.7180 C   0  0  0  0  0  2  0  0  0  0  0  0
  188.9200  176.8130  146.0380 C   0  0  0  0  0  0  0  0  0  0  0  0
  188.1090  178.6210  147.5700 C   0  0  0  0  0  2  0  0  0  0  0  0
  190.2530  177.2980  138.3160 O   0  0  0  0  0  1  0  0  0  0  0  0
  188.7380  178.3980  139.9680 C   0  0  0  0  0  2  0  0  0  0  0  0
  189.2550  176.7760  144.7400 C   0  0  0  0  0  0  0  0  0  0  0  0
  185.6810  179.3190  147.2800 C   0  0  0  0  0  2  0  0  0  0  0  0
  186.9070  178.1610  145.4570 N   0  0  0  0  0  0  0  0  0  0  0  0
  184.4090  178.2060  145.3760 C   0  0  0  0  0  2  0  0  0  0  0  0
  183.6750  178.7760  144.1540 C   0  0  2  0  0  3  0  0  0  0  0  0
  182.1350  178.7950  141.7760 C   0  0  0  0  0  0  0  0  0  0  0  0
  182.1490  178.6280  144.2260 C   0  0  0  0  0  2  0  0  0  0  0  0
  184.2310  178.2530  142.8550 C   0  0  0  0  0  3  0  0  0  0  0  0
  183.5130  178.2920  141.7310 C   0  0  0  0  0  3  0  0  0  0  0  0
  181.4950  178.9890  140.7110 O   0  0  0  0  0  0  0  0  0  0  0  0
  181.5440  179.0730  143.0120 O   0  0  0  0  0  0  0  0  0  0  0  0
  1 21  1  1  0  0  0
  1 19  1  0  0  0  0
  4  9  1  6  0  0  0
  4  7  1  0  0  0  0
  4 12  1  0  0  0  0
  5 11  2  0  0  0  0
  5 18  1  0  0  0  0
  6 17  1  0  0  0  0
  6  9  2  0  0  0  0
  7  2  1  6  0  0  0
  7  5  1  0  0  0  0
  8 18  1  0  0  0  0
 10 15  1  1  0  0  0
 11 20  1  0  0  0  0
 12  8  1  0  0  0  0
 14 10  1  0  0  0  0
 14  3  1  0  0  0  0
 15 13  1  0  0  0  0
 16  6  1  0  0  0  0
 17  2  1  0  0  0  0
 18 14  2  0  0  0  0
 19 13  1  0  0  0  0
 20  1  1  0  0  0  0
 20 10  1  0  0  0  0
 22 24  1  0  0  0  0
 22 21  1  1  0  0  0
 23 28  1  0  0  0  0
 25 22  1  0  0  0  0
 26 23  1  0  0  0  0
 26 25  2  0  0  0  0
 27 23  2  0  0  0  0
 28 24  1  0  0  0  0
M  END
>  <MODEL>
6

>  <REMARK>
 VINA RESULT:      -8.3      2.674      4.634
  Name = 
  2 active torsions:
  status: ('A' for Active; 'I' for Inactive)
    1  A    between atoms: C_1  and  C_2
    2  A    between atoms: C_2  and  C_3
                            x       y       z     vdW  Elec       q    Type
                         _______ _______ _______ _____ _____    ______ ____

>  <TORSDO>
F 2

$$$$
=
 OpenBabel10262420503D

 28 32  0  0  1  0  0  0  0  0999 V2000
  187.6690  177.8280  142.0050 C   0  0  1  0  0  3  0  0  0  0  0  0
  182.8030  177.4960  140.2190 C   0  0  0  0  0  2  0  0  0  0  0  0
  184.7270  178.9630  145.8580 F   0  0  0  0  0  0  0  0  0  0  0  0
  181.4960  178.4540  142.0700 C   0  0  2  0  0  3  0  0  0  0  0  0
  184.0020  178.4110  142.2610 C   0  0  0  0  0  0  0  0  0  0  0  0
  180.4150  178.3190  139.8420 C   0  0  0  0  0  0  0  0  0  0  0  0
  182.8260  178.5500  141.3230 C   0  0  1  0  0  3  0  0  0  0  0  0
  182.4740  179.0040  144.2790 C   0  0  0  0  0  2  0  0  0  0  0  0
  180.3430  178.6630  141.1340 C   0  0  0  0  0  3  0  0  0  0  0  0
  186.2830  178.3490  144.0590 C   0  0  1  0  0  3  0  0  0  0  0  0
  185.2170  178.1840  141.7610 C   0  0  0  0  0  3  0  0  0  0  0  0
  181.4700  179.4460  143.2180 C   0  0  0  0  0  2  0  0  0  0  0  0
  187.9640  176.4080  144.0420 C   0  0  0  0  0  2  0  0  0  0  0  0
  184.8950  178.6850  144.5390 C   0  0  0  0  0  0  0  0  0  0  0  0
  186.8400  177.1280  144.8030 C   0  0  0  0  0  2  0  0  0  0  0  0
  179.2950  178.4880  139.0400 O   0  0  0  0  0  1  0  0  0  0  0  0
  181.6950  177.8230  139.2090 C   0  0  0  0  0  2  0  0  0  0  0  0
  183.8430  178.7250  143.7080 C   0  0  0  0  0  0  0  0  0  0  0  0
  188.6710  177.3280  143.0500 C   0  0  0  0  0  2  0  0  0  0  0  0
  186.3750  178.1630  142.6030 N   0  0  0  0  0  0  0  0  0  0  0  0
  188.2440  178.9770  141.1580 C   0  0  0  0  0  2  0  0  0  0  0  0
  188.6900  178.6280  139.7320 C   0  0  2  0  0  3  0  0  0  0  0  0
  189.2660  177.0240  137.4680 C   0  0  0  0  0  0  0  0  0  0  0  0
  187.5500  178.1320  138.8320 C   0  0  0  0  0  2  0  0  0  0  0  0
  189.8710  177.6910  139.7130 C   0  0  0  0  0  3  0  0  0  0  0  0
  190.1560  176.9610  138.6340 C   0  0  0  0  0  3  0  0  0  0  0  0
  189.5960  176.4720  136.3870 O   0  0  0  0  0  0  0  0  0  0  0  0
  188.0570  177.7200  137.5630 O   0  0  0  0  0  0  0  0  0  0  0  0
  1 21  1  1  0  0  0
  1 20  1  0  0  0  0
  1 19  1  0  0  0  0
  4  9  1  6  0  0  0
  4 12  1  0  0  0  0
  5 18  1  0  0  0  0
  6  9  2  0  0  0  0
  7  2  1  6  0  0  0
  7  4  1  0  0  0  0
  7  5  1  0  0  0  0
 10 14  1  0  0  0  0
 10 15  1  1  0  0  0
 11  5  2  0  0  0  0
 11 20  1  0  0  0  0
 12  8  1  0  0  0  0
 13 15  1  0  0  0  0
 14  3  1  0  0  0  0
 16  6  1  0  0  0  0
 17  6  1  0  0  0  0
 17  2  1  0  0  0  0
 18  8  1  0  0  0  0
 18 14  2  0  0  0  0
 19 13  1  0  0  0  0
 20 10  1  0  0  0  0
 22 21  1  1  0  0  0
 23 28  1  0  0  0  0
 23 26  1  0  0  0  0
 24 22  1  0  0  0  0
 25 22  1  0  0  0  0
 26 25  2  0  0  0  0
 27 23  2  0  0  0  0
 28 24  1  0  0  0  0
M  END
>  <MODEL>
7

>  <REMARK>
 VINA RESULT:      -8.2      3.730      7.364
  Name = 
  2 active torsions:
  status: ('A' for Active; 'I' for Inactive)
    1  A    between atoms: C_1  and  C_2
    2  A    between atoms: C_2  and  C_3
                            x       y       z     vdW  Elec       q    Type
                         _______ _______ _______ _____ _____    ______ ____

>  <TORSDO>
F 2

$$$$
=
 OpenBabel10262420503D

 28 32  0  0  1  0  0  0  0  0999 V2000
  190.2540  176.9550  138.1260 C   0  0  1  0  0  3  0  0  0  0  0  0
  191.0950  177.5300  143.2200 C   0  0  0  0  0  2  0  0  0  0  0  0
  185.9040  178.4050  140.0670 F   0  0  0  0  0  0  0  0  0  0  0  0
  188.8200  177.8470  144.0970 C   0  0  2  0  0  3  0  0  0  0  0  0
  189.1120  177.4030  141.6400 C   0  0  0  0  0  0  0  0  0  0  0  0
  190.5940  177.1910  145.7000 C   0  0  0  0  0  0  0  0  0  0  0  0
  189.6370  177.1210  143.0280 C   0  0  1  0  0  3  0  0  0  0  0  0
  186.8370  178.1600  142.6450 C   0  0  0  0  0  2  0  0  0  0  0  0
  189.3120  177.5020  145.4700 C   0  0  0  0  0  3  0  0  0  0  0  0
  188.0090  177.7590  138.9770 C   0  0  1  0  0  3  0  0  0  0  0  0
  189.8600  177.0940  140.5810 C   0  0  0  0  0  3  0  0  0  0  0  0
  187.3460  177.5240  143.9350 C   0  0  0  0  0  2  0  0  0  0  0  0
  189.2780  179.0400  137.1490 C   0  0  0  0  0  2  0  0  0  0  0  0
  187.1930  178.0040  140.2190 C   0  0  0  0  0  0  0  0  0  0  0  0
  188.0790  179.0230  138.1090 C   0  0  0  0  0  2  0  0  0  0  0  0
  190.9980  176.9340  147.0030 O   0  0  0  0  0  1  0  0  0  0  0  0
  191.6010  177.0390  144.5830 C   0  0  0  0  0  2  0  0  0  0  0  0
  187.6980  177.8290  141.4490 C   0  0  0  0  0  0  0  0  0  0  0  0
  189.7880  177.6350  136.8350 C   0  0  0  0  0  2  0  0  0  0  0  0
  189.3550  177.2340  139.2480 N   0  0  0  0  0  0  0  0  0  0  0  0
  190.5030  175.4490  137.9280 C   0  0  0  0  0  2  0  0  0  0  0  0
  191.9670  174.9900  137.8890 C   0  0  2  0  0  3  0  0  0  0  0  0
  194.6060  174.6730  136.9080 C   0  0  0  0  0  0  0  0  0  0  0  0
  192.9770  176.1370  138.0200 C   0  0  0  0  0  2  0  0  0  0  0  0
  192.2620  174.1120  136.7010 C   0  0  0  0  0  3  0  0  0  0  0  0
  193.5090  173.9420  136.2620 C   0  0  0  0  0  3  0  0  0  0  0  0
  195.8010  174.4120  136.6180 O   0  0  0  0  0  0  0  0  0  0  0  0
  194.3100  175.6520  137.8620 O   0  0  0  0  0  0  0  0  0  0  0  0
  1 21  1  6  0  0  0
  1 20  1  0  0  0  0
  2 17  1  0  0  0  0
  3 14  1  0  0  0  0
  4 12  1  1  0  0  0
  4  9  1  0  0  0  0
  5  7  1  0  0  0  0
  6 16  1  0  0  0  0
  7  2  1  6  0  0  0
  7  4  1  0  0  0  0
  8 12  1  0  0  0  0
  9  6  2  0  0  0  0
 10 15  1  1  0  0  0
 10 20  1  0  0  0  0
 10 14  1  0  0  0  0
 11  5  2  0  0  0  0
 13 15  1  0  0  0  0
 14 18  2  0  0  0  0
 17  6  1  0  0  0  0
 18  5  1  0  0  0  0
 18  8  1  0  0  0  0
 19 13  1  0  0  0  0
 19  1  1  0  0  0  0
 20 11  1  0  0  0  0
 22 21  1  6  0  0  0
 22 24  1  0  0  0  0
 23 28  1  0  0  0  0
 25 22  1  0  0  0  0
 26 25  2  0  0  0  0
 26 23  1  0  0  0  0
 27 23  2  0  0  0  0
 28 24  1  0  0  0  0
M  END
>  <MODEL>
8

>  <REMARK>
 VINA RESULT:      -7.8      3.528      8.505
  Name = 
  2 active torsions:
  status: ('A' for Active; 'I' for Inactive)
    1  A    between atoms: C_1  and  C_2
    2  A    between atoms: C_2  and  C_3
                            x       y       z     vdW  Elec       q    Type
                         _______ _______ _______ _____ _____    ______ ____

>  <TORSDO>
F 2

$$$$
=
 OpenBabel10262420503D

 28 32  0  0  1  0  0  0  0  0999 V2000
  183.0490  177.7650  138.9840 C   0  0  1  0  0  3  0  0  0  0  0  0
  186.7600  178.1870  142.5940 C   0  0  0  0  0  2  0  0  0  0  0  0
  180.7840  179.5010  143.0640 F   0  0  0  0  0  0  0  0  0  0  0  0
  185.4620  178.6570  144.6300 C   0  0  2  0  0  3  0  0  0  0  0  0
  184.2240  178.2360  142.4840 C   0  0  0  0  0  0  0  0  0  0  0  0
  187.7890  177.8440  144.9050 C   0  0  0  0  0  0  0  0  0  0  0  0
  185.4430  177.8920  143.3070 C   0  0  1  0  0  3  0  0  0  0  0  0
  183.0330  179.1430  144.6100 C   0  0  0  0  0  2  0  0  0  0  0  0
  186.6420  178.2530  145.4630 C   0  0  0  0  0  3  0  0  0  0  0  0
  181.7950  178.7200  140.9660 C   0  0  1  0  0  3  0  0  0  0  0  0
  184.1830  177.8910  141.1970 C   0  0  0  0  0  3  0  0  0  0  0  0
  184.1560  178.4480  145.3740 C   0  0  0  0  0  2  0  0  0  0  0  0
  181.8350  179.9340  138.7040 C   0  0  0  0  0  2  0  0  0  0  0  0
  181.8850  179.0030  142.4430 C   0  0  0  0  0  0  0  0  0  0  0  0
  181.4310  179.9900  140.1860 C   0  0  0  0  0  2  0  0  0  0  0  0
  188.8620  177.5340  145.7300 O   0  0  0  0  0  1  0  0  0  0  0  0
  187.9330  177.6360  143.4150 C   0  0  0  0  0  2  0  0  0  0  0  0
  183.0020  178.7690  143.1470 C   0  0  0  0  0  0  0  0  0  0  0  0
  181.9630  178.5010  138.1930 C   0  0  0  0  0  2  0  0  0  0  0  0
  183.0030  178.0910  140.4110 N   0  0  0  0  0  0  0  0  0  0  0  0
  183.0260  176.2490  138.7220 C   0  0  0  0  0  2  0  0  0  0  0  0
  183.8280  175.7460  137.5130 C   0  0  2  0  0  3  0  0  0  0  0  0
  186.0370  174.7540  136.0430 C   0  0  0  0  0  0  0  0  0  0  0  0
  184.1990  174.2590  137.5950 C   0  0  0  0  0  2  0  0  0  0  0  0
  185.0260  176.6110  137.2190 C   0  0  0  0  0  3  0  0  0  0  0  0
  186.0500  176.1490  136.5000 C   0  0  0  0  0  3  0  0  0  0  0  0
  186.9090  174.3420  135.2360 O   0  0  0  0  0  0  0  0  0  0  0  0
  185.0360  173.8910  136.4990 O   0  0  0  0  0  0  0  0  0  0  0  0
  1 21  1  1  0  0  0
  1 20  1  0  0  0  0
  2 17  1  0  0  0  0
  4 12  1  1  0  0  0
  4  9  1  0  0  0  0
  5 18  1  0  0  0  0
  5  7  1  0  0  0  0
  6  9  2  0  0  0  0
  6 16  1  0  0  0  0
  7  2  1  6  0  0  0
  7  4  1  0  0  0  0
  8 12  1  0  0  0  0
 10 15  1  6  0  0  0
 10 14  1  0  0  0  0
 11  5  2  0  0  0  0
 13 15  1  0  0  0  0
 14  3  1  0  0  0  0
 14 18  2  0  0  0  0
 17  6  1  0  0  0  0
 18  8  1  0  0  0  0
 19 13  1  0  0  0  0
 19  1  1  0  0  0  0
 20 10  1  0  0  0  0
 20 11  1  0  0  0  0
 22 24  1  0  0  0  0
 22 21  1  1  0  0  0
 23 28  1  0  0  0  0
 23 26  1  0  0  0  0
 25 22  1  0  0  0  0
 26 25  2  0  0  0  0
 27 23  2  0  0  0  0
 28 24  1  0  0  0  0
M  END
>  <MODEL>
9

>  <REMARK>
 VINA RESULT:      -7.8      4.295      9.026
  Name = 
  2 active torsions:
  status: ('A' for Active; 'I' for Inactive)
    1  A    between atoms: C_1  and  C_2
    2  A    between atoms: C_2  and  C_3
                            x       y       z     vdW  Elec       q    Type
                         _______ _______ _______ _____ _____    ______ ____

>  <TORSDO>
F 2

$$$$
