=
 OpenBabel10262419283D

 31 34  0  0  1  0  0  0  0  0999 V2000
  193.4610  175.6040  135.9580 C   0  0  0  0  0  0  0  0  0  0  0  0
  190.2690  176.9050  137.5460 C   0  0  2  0  0  3  0  0  0  0  0  0
  189.1080  175.9420  137.3260 C   0  0  0  0  0  0  0  0  0  0  0  0
  190.4480  173.9300  136.8890 O   0  0  0  0  0  1  0  0  0  0  0  0
  191.6610  176.3560  137.4030 C   0  0  0  0  0  0  0  0  0  0  0  0
  194.2280  175.2760  137.0790 C   0  0  0  0  0  3  0  0  0  0  0  0
  189.2180  174.5660  137.0040 C   0  0  0  0  0  0  0  0  0  0  0  0
  190.5320  176.8100  140.0420 C   0  0  2  0  0  3  0  0  0  0  0  0
  194.0050  175.3750  134.5940 C   0  0  0  0  0  1  0  0  0  0  0  0
  187.6970  177.9280  137.9050 C   0  0  0  0  0  2  0  0  0  0  0  0
  188.0630  173.8060  136.8020 C   0  0  0  0  0  3  0  0  0  0  0  0
  192.0000  176.3840  139.9310 C   0  0  0  0  0  2  0  0  0  0  0  0
  190.0950  177.6930  138.8620 C   0  0  2  0  0  3  0  0  0  0  0  0
  192.1830  176.1460  136.1190 C   0  0  0  0  0  3  0  0  0  0  0  0
  186.7990  174.3820  136.9340 C   0  0  0  0  0  3  0  0  0  0  0  0
  192.4410  176.0350  138.5360 C   0  0  0  0  0  0  0  0  0  0  0  0
  193.7230  175.5010  138.3620 C   0  0  0  0  0  3  0  0  0  0  0  0
  188.6530  178.2170  139.0700 C   0  0  0  0  0  2  0  0  0  0  0  0
  187.8260  176.4980  137.4870 C   0  0  0  0  0  0  0  0  0  0  0  0
  186.6800  175.7260  137.2820 C   0  0  0  0  0  3  0  0  0  0  0  0
  190.0290  178.9740  143.7770 C   0  0  0  0  0  1  0  0  0  0  0  0
  190.1330  175.5170  142.6040 O   0  0  0  0  0  0  0  0  0  0  0  0
  190.1140  176.7790  142.5710 C   0  0  0  0  0  0  0  0  0  0  0  0
  189.9110  177.5250  143.7800 N   0  0  0  0  0  0  0  0  0  0  0  0
  190.2990  177.4690  141.3260 N   0  0  0  0  0  2  0  0  0  0  0  0
  189.6790  176.8550  145.0540 C   0  0  0  0  0  2  0  0  0  0  0  0
  188.4280  177.3990  145.7260 C   0  0  0  0  0  2  0  0  0  0  0  0
  187.2930  177.0570  144.9710 O   0  0  0  0  0  0  0  0  0  0  0  0
  186.4260  178.1700  144.9170 C   0  0  1  0  0  3  0  0  0  0  0  0
  185.5410  178.0940  143.8340 O   0  0  0  0  0  1  0  0  0  0  0  0
  185.6780  178.3960  146.2250 C   0  0  0  0  0  1  0  0  0  0  0  0
  1 14  2  0  0  0  0
  1  6  1  0  0  0  0
  2  3  1  1  0  0  0
  2 13  1  0  0  0  0
  3 19  1  0  0  0  0
  4  7  1  0  0  0  0
  5  2  1  0  0  0  0
  5 16  2  0  0  0  0
  6 17  2  0  0  0  0
  7  3  2  0  0  0  0
  8 25  1  1  0  0  0
  9  1  1  0  0  0  0
 10 18  1  0  0  0  0
 11 15  2  0  0  0  0
 11  7  1  0  0  0  0
 12  8  1  0  0  0  0
 13 18  1  1  0  0  0
 13  8  1  0  0  0  0
 14  5  1  0  0  0  0
 15 20  1  0  0  0  0
 16 12  1  0  0  0  0
 17 16  1  0  0  0  0
 19 10  1  0  0  0  0
 20 19  2  0  0  0  0
 21 24  1  0  0  0  0
 23 22  2  0  0  0  0
 23 24  1  0  0  0  0
 24 26  1  0  0  0  0
 25 23  1  0  0  0  0
 26 27  1  0  0  0  0
 28 27  1  0  0  0  0
 29 28  1  0  0  0  0
 29 31  1  1  0  0  0
 30 29  1  0  0  0  0
M  END
>  <MODEL>
1

>  <REMARK>
 VINA RESULT:      -6.4      0.000      0.000
  Name = 
  5 active torsions:
  status: ('A' for Active; 'I' for Inactive)
    1  A    between atoms: C_1  and  O_24
    2  A    between atoms: C_6  and  C_19
    3  A    between atoms: C_6  and  N_22
    4  A    between atoms: C_15  and  N_23
    5  A    between atoms: C_19  and  O_24
                            x       y       z     vdW  Elec       q    Type
                         _______ _______ _______ _____ _____    ______ ____

>  <TORSDO>
F 5

$$$$
=
 OpenBabel10262419283D

 31 34  0  0  1  0  0  0  0  0999 V2000
  180.3040  179.0100  142.2250 C   0  0  0  0  0  0  0  0  0  0  0  0
  181.2480  178.2400  138.6310 C   0  0  2  0  0  3  0  0  0  0  0  0
  181.0300  179.4500  137.7300 C   0  0  0  0  0  0  0  0  0  0  0  0
  181.0830  181.1650  139.4870 O   0  0  0  0  0  1  0  0  0  0  0  0
  181.3720  178.4910  140.1080 C   0  0  0  0  0  0  0  0  0  0  0  0
  181.5510  179.0250  142.8550 C   0  0  0  0  0  3  0  0  0  0  0  0
  180.9390  180.7990  138.1550 C   0  0  0  0  0  0  0  0  0  0  0  0
  183.7420  177.9690  138.5090 C   0  0  2  0  0  3  0  0  0  0  0  0
  179.0730  179.2830  143.0120 C   0  0  0  0  0  1  0  0  0  0  0  0
  181.1100  177.7580  135.8850 C   0  0  0  0  0  2  0  0  0  0  0  0
  180.7090  181.8090  137.2170 C   0  0  0  0  0  3  0  0  0  0  0  0
  183.8880  178.0790  140.0310 C   0  0  0  0  0  2  0  0  0  0  0  0
  182.3940  177.3530  138.1010 C   0  0  2  0  0  3  0  0  0  0  0  0
  180.2140  178.7400  140.8570 C   0  0  0  0  0  3  0  0  0  0  0  0
  180.5870  181.5070  135.8600 C   0  0  0  0  0  3  0  0  0  0  0  0
  182.6310  178.4940  140.7460 C   0  0  0  0  0  0  0  0  0  0  0  0
  182.7090  178.7580  142.1190 C   0  0  0  0  0  3  0  0  0  0  0  0
  182.3310  177.1290  136.5700 C   0  0  0  0  0  2  0  0  0  0  0  0
  180.9360  179.1680  136.3540 C   0  0  0  0  0  0  0  0  0  0  0  0
  180.7060  180.1870  135.4280 C   0  0  0  0  0  3  0  0  0  0  0  0
  187.0130  175.5240  137.0210 C   0  0  0  0  0  1  0  0  0  0  0  0
  186.3640  179.0180  137.8640 O   0  0  0  0  0  0  0  0  0  0  0  0
  186.1530  177.7910  137.6570 C   0  0  0  0  0  0  0  0  0  0  0  0
  187.1990  176.9620  137.1290 N   0  0  0  0  0  0  0  0  0  0  0  0
  184.8690  177.2220  137.9520 N   0  0  0  0  0  2  0  0  0  0  0  0
  188.5010  177.5170  136.7800 C   0  0  0  0  0  2  0  0  0  0  0  0
  189.5160  177.2320  137.8760 C   0  0  0  0  0  2  0  0  0  0  0  0
  189.4590  178.2410  138.8540 O   0  0  0  0  0  0  0  0  0  0  0  0
  189.1700  177.6520  140.1040 C   0  0  1  0  0  3  0  0  0  0  0  0
  190.3240  177.4680  140.8760 O   0  0  0  0  0  1  0  0  0  0  0  0
  188.1040  178.4150  140.8810 C   0  0  0  0  0  1  0  0  0  0  0  0
  1  6  1  0  0  0  0
  1  9  1  0  0  0  0
  2  3  1  6  0  0  0
  2  5  1  0  0  0  0
  3  7  1  0  0  0  0
  5 16  2  0  0  0  0
  5 14  1  0  0  0  0
  7  4  1  0  0  0  0
  8 25  1  1  0  0  0
  8 12  1  0  0  0  0
 10 19  1  0  0  0  0
 10 18  1  0  0  0  0
 11  7  2  0  0  0  0
 12 16  1  0  0  0  0
 13 18  1  6  0  0  0
 13  8  1  0  0  0  0
 13  2  1  0  0  0  0
 14  1  2  0  0  0  0
 15 11  1  0  0  0  0
 16 17  1  0  0  0  0
 17  6  2  0  0  0  0
 19  3  2  0  0  0  0
 20 15  2  0  0  0  0
 20 19  1  0  0  0  0
 21 24  1  0  0  0  0
 23 22  2  0  0  0  0
 23 25  1  0  0  0  0
 24 23  1  0  0  0  0
 26 24  1  0  0  0  0
 26 27  1  0  0  0  0
 27 28  1  0  0  0  0
 28 29  1  0  0  0  0
 29 30  1  0  0  0  0
 29 31  1  1  0  0  0
M  END
>  <MODEL>
2

>  <REMARK>
 VINA RESULT:      -6.3      5.576      9.542
  Name = 
  5 active torsions:
  status: ('A' for Active; 'I' for Inactive)
    1  A    between atoms: C_1  and  O_24
    2  A    between atoms: C_6  and  C_19
    3  A    between atoms: C_6  and  N_22
    4  A    between atoms: C_15  and  N_23
    5  A    between atoms: C_19  and  O_24
                            x       y       z     vdW  Elec       q    Type
                         _______ _______ _______ _____ _____    ______ ____

>  <TORSDO>
F 5

$$$$
=
 OpenBabel10262419283D

 31 34  0  0  1  0  0  0  0  0999 V2000
  180.4130  178.8000  143.3720 C   0  0  0  0  0  0  0  0  0  0  0  0
  180.8630  177.9920  139.6910 C   0  0  2  0  0  3  0  0  0  0  0  0
  180.3420  179.1200  138.8080 C   0  0  0  0  0  0  0  0  0  0  0  0
  180.4430  180.9080  140.4900 O   0  0  0  0  0  1  0  0  0  0  0  0
  181.1880  178.3250  141.1210 C   0  0  0  0  0  0  0  0  0  0  0  0
  181.7310  179.0060  143.7860 C   0  0  0  0  0  3  0  0  0  0  0  0
  180.1380  180.4640  139.2090 C   0  0  0  0  0  0  0  0  0  0  0  0
  183.3190  178.0400  139.1650 C   0  0  2  0  0  3  0  0  0  0  0  0
  179.2990  178.9470  144.3440 C   0  0  0  0  0  1  0  0  0  0  0  0
  180.3530  177.3680  137.0180 C   0  0  0  0  0  2  0  0  0  0  0  0
  179.6260  181.3910  138.2970 C   0  0  0  0  0  3  0  0  0  0  0  0
  183.6910  178.2400  140.6390 C   0  0  0  0  0  2  0  0  0  0  0  0
  182.0190  177.2360  139.0010 C   0  0  2  0  0  3  0  0  0  0  0  0
  180.1420  178.4570  142.0450 C   0  0  0  0  0  3  0  0  0  0  0  0
  179.3300  181.0130  136.9870 C   0  0  0  0  0  3  0  0  0  0  0  0
  182.5210  178.5210  141.5420 C   0  0  0  0  0  0  0  0  0  0  0  0
  182.7810  178.8570  142.8750 C   0  0  0  0  0  3  0  0  0  0  0  0
  181.7420  176.9360  137.5080 C   0  0  0  0  0  2  0  0  0  0  0  0
  180.0680  178.7640  137.4750 C   0  0  0  0  0  0  0  0  0  0  0  0
  179.5560  179.7010  136.5750 C   0  0  0  0  0  3  0  0  0  0  0  0
  186.6030  175.9690  137.2130 C   0  0  0  0  0  1  0  0  0  0  0  0
  185.6740  179.3780  138.1360 O   0  0  0  0  0  0  0  0  0  0  0  0
  185.5820  178.1310  137.9660 C   0  0  0  0  0  0  0  0  0  0  0  0
  186.6300  177.4210  137.2890 N   0  0  0  0  0  0  0  0  0  0  0  0
  184.4320  177.4210  138.4490 N   0  0  0  0  0  2  0  0  0  0  0  0
  187.7920  178.1180  136.7500 C   0  0  0  0  0  2  0  0  0  0  0  0
  188.9850  177.9690  137.6810 C   0  0  0  0  0  2  0  0  0  0  0  0
  188.9790  179.0010  138.6350 O   0  0  0  0  0  0  0  0  0  0  0  0
  189.0550  178.4320  139.9250 C   0  0  1  0  0  3  0  0  0  0  0  0
  187.7900  178.2690  140.5020 O   0  0  0  0  0  1  0  0  0  0  0  0
  189.8430  177.1280  139.9460 C   0  0  0  0  0  1  0  0  0  0  0  0
  1  6  1  0  0  0  0
  1  9  1  0  0  0  0
  2  3  1  6  0  0  0
  2  5  1  0  0  0  0
  3  7  1  0  0  0  0
  5 16  2  0  0  0  0
  5 14  1  0  0  0  0
  7  4  1  0  0  0  0
  8 25  1  6  0  0  0
  8 12  1  0  0  0  0
 10 19  1  0  0  0  0
 10 18  1  0  0  0  0
 11  7  2  0  0  0  0
 12 16  1  0  0  0  0
 13 18  1  6  0  0  0
 13  8  1  0  0  0  0
 13  2  1  0  0  0  0
 14  1  2  0  0  0  0
 15 11  1  0  0  0  0
 16 17  1  0  0  0  0
 17  6  2  0  0  0  0
 19  3  2  0  0  0  0
 20 15  2  0  0  0  0
 20 19  1  0  0  0  0
 21 24  1  0  0  0  0
 23 22  2  0  0  0  0
 23 25  1  0  0  0  0
 24 23  1  0  0  0  0
 26 24  1  0  0  0  0
 26 27  1  0  0  0  0
 27 28  1  0  0  0  0
 28 29  1  0  0  0  0
 29 31  1  6  0  0  0
 29 30  1  0  0  0  0
M  END
>  <MODEL>
3

>  <REMARK>
 VINA RESULT:      -6.3      5.748      9.891
  Name = 
  5 active torsions:
  status: ('A' for Active; 'I' for Inactive)
    1  A    between atoms: C_1  and  O_24
    2  A    between atoms: C_6  and  C_19
    3  A    between atoms: C_6  and  N_22
    4  A    between atoms: C_15  and  N_23
    5  A    between atoms: C_19  and  O_24
                            x       y       z     vdW  Elec       q    Type
                         _______ _______ _______ _____ _____    ______ ____

>  <TORSDO>
F 5

$$$$
=
 OpenBabel10262419283D

 31 34  0  0  1  0  0  0  0  0999 V2000
  180.9440  178.6370  143.1730 C   0  0  0  0  0  0  0  0  0  0  0  0
  182.0690  178.0770  139.5920 C   0  0  2  0  0  3  0  0  0  0  0  0
  181.5540  179.1770  138.6710 C   0  0  0  0  0  0  0  0  0  0  0  0
  181.1580  180.8760  140.4000 O   0  0  0  0  0  1  0  0  0  0  0  0
  182.1190  178.3750  141.0650 C   0  0  0  0  0  0  0  0  0  0  0  0
  182.1430  178.9800  143.8030 C   0  0  0  0  0  3  0  0  0  0  0  0
  181.1190  180.4640  139.0740 C   0  0  0  0  0  0  0  0  0  0  0  0
  184.5500  178.4500  139.4750 C   0  0  2  0  0  3  0  0  0  0  0  0
  179.6810  178.5980  143.9550 C   0  0  0  0  0  1  0  0  0  0  0  0
  182.0720  177.5330  136.8540 C   0  0  0  0  0  2  0  0  0  0  0  0
  180.6420  181.3670  138.1190 C   0  0  0  0  0  3  0  0  0  0  0  0
  184.6570  178.6190  140.9950 C   0  0  0  0  0  2  0  0  0  0  0  0
  183.4060  177.5040  139.0770 C   0  0  2  0  0  3  0  0  0  0  0  0
  180.9320  178.3310  141.8100 C   0  0  0  0  0  3  0  0  0  0  0  0
  180.6080  181.0220  136.7680 C   0  0  0  0  0  3  0  0  0  0  0  0
  183.3320  178.7100  141.7030 C   0  0  0  0  0  0  0  0  0  0  0  0
  183.3340  179.0060  143.0710 C   0  0  0  0  0  3  0  0  0  0  0  0
  183.4090  177.2480  137.5500 C   0  0  0  0  0  2  0  0  0  0  0  0
  181.5410  178.8580  137.3000 C   0  0  0  0  0  0  0  0  0  0  0  0
  181.0620  179.7700  136.3580 C   0  0  0  0  0  3  0  0  0  0  0  0
  188.2340  176.8850  137.7820 C   0  0  0  0  0  1  0  0  0  0  0  0
  187.1740  178.9620  140.5920 O   0  0  0  0  0  0  0  0  0  0  0  0
  187.1080  178.2830  139.5300 C   0  0  0  0  0  0  0  0  0  0  0  0
  188.3080  177.7840  138.9220 N   0  0  0  0  0  0  0  0  0  0  0  0
  185.8330  178.0080  138.9310 N   0  0  0  0  0  2  0  0  0  0  0  0
  189.6210  178.0820  139.4820 C   0  0  0  0  0  2  0  0  0  0  0  0
  190.1180  176.9180  140.3260 C   0  0  0  0  0  2  0  0  0  0  0  0
  190.0750  177.2640  141.6880 O   0  0  0  0  0  0  0  0  0  0  0  0
  189.3450  176.2780  142.3870 C   0  0  1  0  0  3  0  0  0  0  0  0
  190.1720  175.2590  142.8740 O   0  0  0  0  0  1  0  0  0  0  0  0
  188.4820  176.8640  143.4980 C   0  0  0  0  0  1  0  0  0  0  0  0
  1  6  1  0  0  0  0
  1  9  1  0  0  0  0
  2  3  1  6  0  0  0
  2  5  1  0  0  0  0
  3  7  1  0  0  0  0
  5 16  2  0  0  0  0
  5 14  1  0  0  0  0
  7  4  1  0  0  0  0
  8 25  1  1  0  0  0
  8 12  1  0  0  0  0
 10 19  1  0  0  0  0
 10 18  1  0  0  0  0
 11  7  2  0  0  0  0
 12 16  1  0  0  0  0
 13 18  1  6  0  0  0
 13  8  1  0  0  0  0
 13  2  1  0  0  0  0
 14  1  2  0  0  0  0
 15 11  1  0  0  0  0
 16 17  1  0  0  0  0
 17  6  2  0  0  0  0
 19  3  2  0  0  0  0
 20 15  2  0  0  0  0
 20 19  1  0  0  0  0
 21 24  1  0  0  0  0
 23 22  2  0  0  0  0
 24 26  1  0  0  0  0
 24 23  1  0  0  0  0
 25 23  1  0  0  0  0
 26 27  1  0  0  0  0
 27 28  1  0  0  0  0
 28 29  1  0  0  0  0
 29 30  1  0  0  0  0
 29 31  1  1  0  0  0
M  END
>  <MODEL>
4

>  <REMARK>
 VINA RESULT:      -6.3      4.809      8.841
  Name = 
  5 active torsions:
  status: ('A' for Active; 'I' for Inactive)
    1  A    between atoms: C_1  and  O_24
    2  A    between atoms: C_6  and  C_19
    3  A    between atoms: C_6  and  N_22
    4  A    between atoms: C_15  and  N_23
    5  A    between atoms: C_19  and  O_24
                            x       y       z     vdW  Elec       q    Type
                         _______ _______ _______ _____ _____    ______ ____

>  <TORSDO>
F 5

$$$$
=
 OpenBabel10262419283D

 31 34  0  0  1  0  0  0  0  0999 V2000
  188.7930  177.9440  136.4450 C   0  0  0  0  0  0  0  0  0  0  0  0
  185.3850  178.4630  138.0300 C   0  0  2  0  0  3  0  0  0  0  0  0
  184.4730  177.2660  137.7880 C   0  0  0  0  0  0  0  0  0  0  0  0
  186.2350  175.6170  137.3300 O   0  0  0  0  0  1  0  0  0  0  0  0
  186.8650  178.2460  137.8890 C   0  0  0  0  0  0  0  0  0  0  0  0
  189.6120  177.7810  137.5660 C   0  0  0  0  0  3  0  0  0  0  0  0
  184.8930  175.9560  137.4460 C   0  0  0  0  0  0  0  0  0  0  0  0
  185.6530  178.3900  140.5260 C   0  0  2  0  0  3  0  0  0  0  0  0
  189.3800  177.8670  135.0820 C   0  0  0  0  0  1  0  0  0  0  0  0
  182.6460  178.8710  138.3860 C   0  0  0  0  0  2  0  0  0  0  0  0
  183.9400  174.9570  137.2250 C   0  0  0  0  0  3  0  0  0  0  0  0
  187.1810  178.3100  140.4190 C   0  0  0  0  0  2  0  0  0  0  0  0
  185.0320  179.1700  139.3560 C   0  0  2  0  0  3  0  0  0  0  0  0
  187.4260  178.1810  136.6050 C   0  0  0  0  0  3  0  0  0  0  0  0
  182.5790  175.2290  137.3570 C   0  0  0  0  0  3  0  0  0  0  0  0
  187.6940  178.0920  139.0220 C   0  0  0  0  0  0  0  0  0  0  0  0
  189.0640  177.8650  138.8490 C   0  0  0  0  0  3  0  0  0  0  0  0
  183.5080  179.3500  139.5620 C   0  0  0  0  0  2  0  0  0  0  0  0
  183.0970  177.5140  137.9480 C   0  0  0  0  0  0  0  0  0  0  0  0
  182.1570  176.5060  137.7240 C   0  0  0  0  0  3  0  0  0  0  0  0
  184.6060  180.3400  144.2660 C   0  0  0  0  0  1  0  0  0  0  0  0
  186.0080  177.1660  143.1280 O   0  0  0  0  0  0  0  0  0  0  0  0
  185.4790  178.3110  143.0830 C   0  0  0  0  0  0  0  0  0  0  0  0
  185.0840  178.9680  144.2960 N   0  0  0  0  0  0  0  0  0  0  0  0
  185.2730  178.9590  141.8180 N   0  0  0  0  0  2  0  0  0  0  0  0
  185.2410  178.3200  145.5930 C   0  0  0  0  0  2  0  0  0  0  0  0
  186.6560  178.5080  146.1170 C   0  0  0  0  0  2  0  0  0  0  0  0
  187.3230  177.2710  146.1450 O   0  0  0  0  0  0  0  0  0  0  0  0
  188.5270  177.4150  146.8690 C   0  0  1  0  0  3  0  0  0  0  0  0
  189.5250  178.0380  146.1090 O   0  0  0  0  0  1  0  0  0  0  0  0
  188.3280  178.1240  148.2030 C   0  0  0  0  0  1  0  0  0  0  0  0
  1 14  2  0  0  0  0
  1  6  1  0  0  0  0
  2  3  1  1  0  0  0
  2 13  1  0  0  0  0
  3 19  1  0  0  0  0
  4  7  1  0  0  0  0
  5  2  1  0  0  0  0
  5 16  2  0  0  0  0
  6 17  2  0  0  0  0
  7  3  2  0  0  0  0
  8 25  1  1  0  0  0
  9  1  1  0  0  0  0
 10 18  1  0  0  0  0
 11 15  2  0  0  0  0
 11  7  1  0  0  0  0
 12  8  1  0  0  0  0
 13 18  1  1  0  0  0
 13  8  1  0  0  0  0
 14  5  1  0  0  0  0
 15 20  1  0  0  0  0
 16 12  1  0  0  0  0
 17 16  1  0  0  0  0
 19 10  1  0  0  0  0
 20 19  2  0  0  0  0
 21 24  1  0  0  0  0
 23 22  2  0  0  0  0
 23 24  1  0  0  0  0
 24 26  1  0  0  0  0
 25 23  1  0  0  0  0
 26 27  1  0  0  0  0
 27 28  1  0  0  0  0
 28 29  1  0  0  0  0
 29 31  1  1  0  0  0
 30 29  1  0  0  0  0
M  END
>  <MODEL>
5

>  <REMARK>
 VINA RESULT:      -5.9      3.251      4.750
  Name = 
  5 active torsions:
  status: ('A' for Active; 'I' for Inactive)
    1  A    between atoms: C_1  and  O_24
    2  A    between atoms: C_6  and  C_19
    3  A    between atoms: C_6  and  N_22
    4  A    between atoms: C_15  and  N_23
    5  A    between atoms: C_19  and  O_24
                            x       y       z     vdW  Elec       q    Type
                         _______ _______ _______ _____ _____    ______ ____

>  <TORSDO>
F 5

$$$$
=
 OpenBabel10262419283D

 31 34  0  0  1  0  0  0  0  0999 V2000
  180.2490  179.0310  142.1310 C   0  0  0  0  0  0  0  0  0  0  0  0
  181.2160  178.3560  138.5240 C   0  0  2  0  0  3  0  0  0  0  0  0
  181.0480  179.6020  137.6630 C   0  0  0  0  0  0  0  0  0  0  0  0
  181.1310  181.2530  139.4800 O   0  0  0  0  0  1  0  0  0  0  0  0
  181.3280  178.5510  140.0100 C   0  0  0  0  0  0  0  0  0  0  0  0
  181.4880  178.9840  142.7760 C   0  0  0  0  0  3  0  0  0  0  0  0
  180.9930  180.9380  138.1340 C   0  0  0  0  0  0  0  0  0  0  0  0
  183.7010  178.0090  138.4220 C   0  0  2  0  0  3  0  0  0  0  0  0
  179.0170  179.3150  142.9120 C   0  0  0  0  0  1  0  0  0  0  0  0
  181.0990  177.9740  135.7610 C   0  0  0  0  0  2  0  0  0  0  0  0
  180.8070  181.9870  137.2290 C   0  0  0  0  0  3  0  0  0  0  0  0
  183.8310  178.0620  139.9490 C   0  0  0  0  0  2  0  0  0  0  0  0
  182.3400  177.4510  137.9770 C   0  0  2  0  0  3  0  0  0  0  0  0
  180.1680  178.8110  140.7540 C   0  0  0  0  0  3  0  0  0  0  0  0
  180.6940  181.7360  135.8610 C   0  0  0  0  0  3  0  0  0  0  0  0
  182.5780  178.4920  140.6630 C   0  0  0  0  0  0  0  0  0  0  0  0
  182.6460  178.7060  142.0450 C   0  0  0  0  0  3  0  0  0  0  0  0
  182.2900  177.2830  136.4380 C   0  0  0  0  0  2  0  0  0  0  0  0
  180.9630  179.3710  136.2770 C   0  0  0  0  0  0  0  0  0  0  0  0
  180.7780  180.4290  135.3850 C   0  0  0  0  0  3  0  0  0  0  0  0
  186.8960  175.5080  136.8670 C   0  0  0  0  0  1  0  0  0  0  0  0
  186.4250  178.9270  138.0580 O   0  0  0  0  0  0  0  0  0  0  0  0
  186.1480  177.7490  137.7020 C   0  0  0  0  0  0  0  0  0  0  0  0
  187.1700  176.9080  137.1470 N   0  0  0  0  0  0  0  0  0  0  0  0
  184.8110  177.2470  137.8530 N   0  0  0  0  0  2  0  0  0  0  0  0
  188.5270  177.4000  136.9420 C   0  0  0  0  0  2  0  0  0  0  0  0
  189.4190  177.0140  138.1110 C   0  0  0  0  0  2  0  0  0  0  0  0
  190.7690  177.1540  137.7480 O   0  0  0  0  0  0  0  0  0  0  0  0
  191.5160  176.1170  138.3500 C   0  0  1  0  0  3  0  0  0  0  0  0
  190.8290  174.8970  138.3290 O   0  0  0  0  0  1  0  0  0  0  0  0
  192.9100  175.9750  137.7530 C   0  0  0  0  0  1  0  0  0  0  0  0
  1  6  1  0  0  0  0
  1  9  1  0  0  0  0
  2  3  1  6  0  0  0
  2  5  1  0  0  0  0
  3  7  1  0  0  0  0
  5 16  2  0  0  0  0
  5 14  1  0  0  0  0
  7  4  1  0  0  0  0
  8 25  1  6  0  0  0
  8 12  1  0  0  0  0
 10 19  1  0  0  0  0
 10 18  1  0  0  0  0
 11  7  2  0  0  0  0
 12 16  1  0  0  0  0
 13 18  1  6  0  0  0
 13  8  1  0  0  0  0
 13  2  1  0  0  0  0
 14  1  2  0  0  0  0
 15 11  1  0  0  0  0
 16 17  1  0  0  0  0
 17  6  2  0  0  0  0
 19  3  2  0  0  0  0
 20 15  2  0  0  0  0
 20 19  1  0  0  0  0
 21 24  1  0  0  0  0
 23 25  1  0  0  0  0
 23 22  2  0  0  0  0
 24 23  1  0  0  0  0
 26 24  1  0  0  0  0
 26 27  1  0  0  0  0
 28 27  1  0  0  0  0
 28 29  1  0  0  0  0
 29 31  1  6  0  0  0
 30 29  1  0  0  0  0
M  END
>  <MODEL>
6

>  <REMARK>
 VINA RESULT:      -5.9      5.566      9.883
  Name = 
  5 active torsions:
  status: ('A' for Active; 'I' for Inactive)
    1  A    between atoms: C_1  and  O_24
    2  A    between atoms: C_6  and  C_19
    3  A    between atoms: C_6  and  N_22
    4  A    between atoms: C_15  and  N_23
    5  A    between atoms: C_19  and  O_24
                            x       y       z     vdW  Elec       q    Type
                         _______ _______ _______ _____ _____    ______ ____

>  <TORSDO>
F 5

$$$$
=
 OpenBabel10262419283D

 31 34  0  0  1  0  0  0  0  0999 V2000
  186.1130  179.0630  146.8710 C   0  0  0  0  0  0  0  0  0  0  0  0
  189.3520  178.2530  145.0660 C   0  0  2  0  0  3  0  0  0  0  0  0
  190.1860  177.2460  145.8500 C   0  0  0  0  0  0  0  0  0  0  0  0
  188.3610  176.3080  147.1990 O   0  0  0  0  0  1  0  0  0  0  0  0
  187.8850  178.3300  145.3810 C   0  0  0  0  0  0  0  0  0  0  0  0
  185.1640  178.4520  146.0480 C   0  0  0  0  0  3  0  0  0  0  0  0
  189.7040  176.3650  146.8500 C   0  0  0  0  0  0  0  0  0  0  0  0
  188.7990  176.9410  142.9980 C   0  0  2  0  0  3  0  0  0  0  0  0
  185.6800  179.7740  148.1020 C   0  0  0  0  0  1  0  0  0  0  0  0
  192.0580  178.0660  144.4010 C   0  0  0  0  0  2  0  0  0  0  0  0
  190.5920  175.5100  147.5100 C   0  0  0  0  0  3  0  0  0  0  0  0
  187.2920  177.1220  143.2140 C   0  0  0  0  0  2  0  0  0  0  0  0
  189.6090  178.1250  143.5500 C   0  0  2  0  0  3  0  0  0  0  0  0
  187.4690  179.0060  146.5360 C   0  0  0  0  0  3  0  0  0  0  0  0
  191.9470  175.4990  147.1810 C   0  0  0  0  0  3  0  0  0  0  0  0
  186.9240  177.7220  144.5430 C   0  0  0  0  0  0  0  0  0  0  0  0
  185.5680  177.7930  144.8830 C   0  0  0  0  0  3  0  0  0  0  0  0
  191.1100  177.9780  143.1980 C   0  0  0  0  0  2  0  0  0  0  0  0
  191.5510  177.1990  145.5100 C   0  0  0  0  0  0  0  0  0  0  0  0
  192.4260  176.3390  146.1770 C   0  0  0  0  0  3  0  0  0  0  0  0
  189.8790  176.1390  138.8650 C   0  0  0  0  0  1  0  0  0  0  0  0
  188.0990  178.6810  140.7900 O   0  0  0  0  0  0  0  0  0  0  0  0
  188.7130  177.6110  140.5250 C   0  0  0  0  0  0  0  0  0  0  0  0
  189.0500  177.2950  139.1660 N   0  0  0  0  0  0  0  0  0  0  0  0
  189.0760  176.7090  141.5810 N   0  0  0  0  0  2  0  0  0  0  0  0
  188.6600  178.1690  138.0660 C   0  0  0  0  0  2  0  0  0  0  0  0
  187.2340  177.8730  137.6280 C   0  0  0  0  0  2  0  0  0  0  0  0
  186.4060  178.9690  137.9250 O   0  0  0  0  0  0  0  0  0  0  0  0
  185.1320  178.4920  138.3050 C   0  0  1  0  0  3  0  0  0  0  0  0
  184.9540  177.1450  137.9660 O   0  0  0  0  0  1  0  0  0  0  0  0
  184.8310  178.7330  139.7790 C   0  0  0  0  0  1  0  0  0  0  0  0
  1  9  1  0  0  0  0
  2  5  1  6  0  0  0
  2  3  1  0  0  0  0
  3  7  1  0  0  0  0
  5 14  2  0  0  0  0
  6  1  2  0  0  0  0
  7  4  1  0  0  0  0
  7 11  2  0  0  0  0
  8 25  1  6  0  0  0
  8 12  1  0  0  0  0
  8 13  1  0  0  0  0
 10 19  1  0  0  0  0
 12 16  1  0  0  0  0
 13 18  1  1  0  0  0
 13  2  1  0  0  0  0
 14  1  1  0  0  0  0
 15 11  1  0  0  0  0
 16 17  2  0  0  0  0
 16  5  1  0  0  0  0
 17  6  1  0  0  0  0
 18 10  1  0  0  0  0
 19  3  2  0  0  0  0
 19 20  1  0  0  0  0
 20 15  2  0  0  0  0
 21 24  1  0  0  0  0
 23 22  2  0  0  0  0
 23 25  1  0  0  0  0
 24 23  1  0  0  0  0
 26 24  1  0  0  0  0
 27 28  1  0  0  0  0
 27 26  1  0  0  0  0
 28 29  1  0  0  0  0
 29 31  1  1  0  0  0
 30 29  1  0  0  0  0
M  END
>  <MODEL>
7

>  <REMARK>
 VINA RESULT:      -5.8      2.971      8.728
  Name = 
  5 active torsions:
  status: ('A' for Active; 'I' for Inactive)
    1  A    between atoms: C_1  and  O_24
    2  A    between atoms: C_6  and  C_19
    3  A    between atoms: C_6  and  N_22
    4  A    between atoms: C_15  and  N_23
    5  A    between atoms: C_19  and  O_24
                            x       y       z     vdW  Elec       q    Type
                         _______ _______ _______ _____ _____    ______ ____

>  <TORSDO>
F 5

$$$$
=
 OpenBabel10262419283D

 31 34  0  0  1  0  0  0  0  0999 V2000
  193.2630  175.9280  135.8850 C   0  0  0  0  0  0  0  0  0  0  0  0
  189.6990  176.3720  137.1100 C   0  0  2  0  0  3  0  0  0  0  0  0
  188.8870  175.0950  136.9280 C   0  0  0  0  0  0  0  0  0  0  0  0
  190.7800  173.5340  136.8080 O   0  0  0  0  0  1  0  0  0  0  0  0
  191.1960  176.2450  137.1190 C   0  0  0  0  0  0  0  0  0  0  0  0
  193.9840  175.9430  137.0820 C   0  0  0  0  0  3  0  0  0  0  0  0
  189.4150  173.7880  136.7710 C   0  0  0  0  0  0  0  0  0  0  0  0
  189.7420  176.5840  139.6120 C   0  0  2  0  0  3  0  0  0  0  0  0
  193.9760  175.7470  134.5930 C   0  0  0  0  0  1  0  0  0  0  0  0
  186.9190  176.6220  137.1860 C   0  0  0  0  0  2  0  0  0  0  0  0
  188.5490  172.7070  136.5850 C   0  0  0  0  0  3  0  0  0  0  0  0
  191.2750  176.6010  139.6430 C   0  0  0  0  0  2  0  0  0  0  0  0
  189.1840  177.1890  138.3130 C   0  0  2  0  0  3  0  0  0  0  0  0
  191.8750  176.0830  135.9020 C   0  0  0  0  0  3  0  0  0  0  0  0
  187.1670  172.8950  136.5700 C   0  0  0  0  0  3  0  0  0  0  0  0
  191.9260  176.2720  138.3270 C   0  0  0  0  0  0  0  0  0  0  0  0
  193.3170  176.1240  138.2970 C   0  0  0  0  0  3  0  0  0  0  0  0
  187.6390  177.2830  138.3680 C   0  0  0  0  0  2  0  0  0  0  0  0
  187.4900  175.2610  136.9420 C   0  0  0  0  0  0  0  0  0  0  0  0
  186.6370  174.1710  136.7550 C   0  0  0  0  0  3  0  0  0  0  0  0
  188.2330  178.8440  143.0030 C   0  0  0  0  0  1  0  0  0  0  0  0
  189.9940  175.7100  142.3620 O   0  0  0  0  0  0  0  0  0  0  0  0
  189.3720  176.7850  142.1400 C   0  0  0  0  0  0  0  0  0  0  0  0
  188.8250  177.5370  143.2340 N   0  0  0  0  0  0  0  0  0  0  0  0
  189.2110  177.2590  140.7950 N   0  0  0  0  0  2  0  0  0  0  0  0
  188.9350  177.0620  144.6080 C   0  0  0  0  0  2  0  0  0  0  0  0
  190.0470  177.7950  145.3410 C   0  0  0  0  0  2  0  0  0  0  0  0
  191.1520  176.9420  145.5080 O   0  0  0  0  0  0  0  0  0  0  0  0
  191.4660  176.8640  146.8830 C   0  0  1  0  0  3  0  0  0  0  0  0
  190.3430  177.0820  147.6910 O   0  0  0  0  0  1  0  0  0  0  0  0
  192.1650  175.5610  147.2520 C   0  0  0  0  0  1  0  0  0  0  0  0
  1 14  2  0  0  0  0
  1  6  1  0  0  0  0
  2  3  1  1  0  0  0
  2  5  1  0  0  0  0
  2 13  1  0  0  0  0
  3 19  1  0  0  0  0
  5 16  2  0  0  0  0
  6 17  2  0  0  0  0
  7  4  1  0  0  0  0
  7  3  2  0  0  0  0
  8 12  1  0  0  0  0
  8 25  1  1  0  0  0
  9  1  1  0  0  0  0
 10 18  1  0  0  0  0
 11  7  1  0  0  0  0
 13 18  1  1  0  0  0
 13  8  1  0  0  0  0
 14  5  1  0  0  0  0
 15 11  2  0  0  0  0
 15 20  1  0  0  0  0
 16 12  1  0  0  0  0
 17 16  1  0  0  0  0
 19 10  1  0  0  0  0
 20 19  2  0  0  0  0
 21 24  1  0  0  0  0
 23 22  2  0  0  0  0
 23 24  1  0  0  0  0
 24 26  1  0  0  0  0
 25 23  1  0  0  0  0
 26 27  1  0  0  0  0
 27 28  1  0  0  0  0
 28 29  1  0  0  0  0
 29 31  1  6  0  0  0
 29 30  1  0  0  0  0
M  END
>  <MODEL>
8

>  <REMARK>
 VINA RESULT:      -5.7      1.688      2.337
  Name = 
  5 active torsions:
  status: ('A' for Active; 'I' for Inactive)
    1  A    between atoms: C_1  and  O_24
    2  A    between atoms: C_6  and  C_19
    3  A    between atoms: C_6  and  N_22
    4  A    between atoms: C_15  and  N_23
    5  A    between atoms: C_19  and  O_24
                            x       y       z     vdW  Elec       q    Type
                         _______ _______ _______ _____ _____    ______ ____

>  <TORSDO>
F 5

$$$$
=
 OpenBabel10262419283D

 31 34  0  0  1  0  0  0  0  0999 V2000
  181.3820  178.9090  142.2490 C   0  0  0  0  0  0  0  0  0  0  0  0
  181.7750  178.1550  138.5500 C   0  0  2  0  0  3  0  0  0  0  0  0
  181.3370  179.3380  137.6940 C   0  0  0  0  0  0  0  0  0  0  0  0
  181.5650  181.0750  139.4160 O   0  0  0  0  0  1  0  0  0  0  0  0
  182.1220  178.4320  139.9860 C   0  0  0  0  0  0  0  0  0  0  0  0
  182.7120  179.0090  142.6660 C   0  0  0  0  0  3  0  0  0  0  0  0
  181.2300  180.6840  138.1260 C   0  0  0  0  0  0  0  0  0  0  0  0
  184.2280  178.0390  138.0220 C   0  0  2  0  0  3  0  0  0  0  0  0
  180.2810  179.1140  143.2260 C   0  0  0  0  0  1  0  0  0  0  0  0
  181.2230  177.6320  135.8640 C   0  0  0  0  0  2  0  0  0  0  0  0
  180.7860  181.6660  137.2360 C   0  0  0  0  0  3  0  0  0  0  0  0
  184.6130  178.1770  139.5000 C   0  0  0  0  0  2  0  0  0  0  0  0
  182.8730  177.3350  137.8420 C   0  0  2  0  0  3  0  0  0  0  0  0
  181.0880  178.6170  140.9150 C   0  0  0  0  0  3  0  0  0  0  0  0
  180.4640  181.3400  135.9180 C   0  0  0  0  0  3  0  0  0  0  0  0
  183.4660  178.5210  140.4100 C   0  0  0  0  0  0  0  0  0  0  0  0
  183.7490  178.8070  141.7510 C   0  0  0  0  0  3  0  0  0  0  0  0
  182.5760  177.0890  136.3420 C   0  0  0  0  0  2  0  0  0  0  0  0
  181.0380  179.0340  136.3530 C   0  0  0  0  0  0  0  0  0  0  0  0
  180.5960  180.0250  135.4750 C   0  0  0  0  0  3  0  0  0  0  0  0
  187.2990  175.7620  135.9560 C   0  0  0  0  0  1  0  0  0  0  0  0
  186.9320  178.9960  137.6130 O   0  0  0  0  0  0  0  0  0  0  0  0
  186.6230  177.8740  137.1240 C   0  0  0  0  0  0  0  0  0  0  0  0
  187.6020  177.1130  136.4010 N   0  0  0  0  0  0  0  0  0  0  0  0
  185.2940  177.3580  137.2900 N   0  0  0  0  0  2  0  0  0  0  0  0
  188.9480  177.6280  136.1780 C   0  0  0  0  0  2  0  0  0  0  0  0
  189.9580  176.8650  137.0190 C   0  0  0  0  0  2  0  0  0  0  0  0
  189.8330  177.2360  138.3690 O   0  0  0  0  0  0  0  0  0  0  0  0
  190.8730  176.6300  139.1090 C   0  0  1  0  0  3  0  0  0  0  0  0
  192.1080  176.7300  138.4570 O   0  0  0  0  0  1  0  0  0  0  0  0
  190.9600  177.1550  140.5370 C   0  0  0  0  0  1  0  0  0  0  0  0
  1  6  1  0  0  0  0
  1  9  1  0  0  0  0
  2  3  1  6  0  0  0
  2  5  1  0  0  0  0
  3  7  1  0  0  0  0
  5 16  2  0  0  0  0
  5 14  1  0  0  0  0
  7  4  1  0  0  0  0
  8 25  1  6  0  0  0
  8 12  1  0  0  0  0
 10 18  1  0  0  0  0
 10 19  1  0  0  0  0
 11  7  2  0  0  0  0
 12 16  1  0  0  0  0
 13 18  1  6  0  0  0
 13  8  1  0  0  0  0
 13  2  1  0  0  0  0
 14  1  2  0  0  0  0
 15 11  1  0  0  0  0
 16 17  1  0  0  0  0
 17  6  2  0  0  0  0
 19  3  2  0  0  0  0
 20 15  2  0  0  0  0
 20 19  1  0  0  0  0
 21 24  1  0  0  0  0
 23 25  1  0  0  0  0
 23 22  2  0  0  0  0
 24 23  1  0  0  0  0
 26 24  1  0  0  0  0
 26 27  1  0  0  0  0
 27 28  1  0  0  0  0
 28 29  1  0  0  0  0
 29 31  1  1  0  0  0
 30 29  1  0  0  0  0
M  END
>  <MODEL>
9

>  <REMARK>
 VINA RESULT:      -5.7      5.260      9.400
  Name = 
  5 active torsions:
  status: ('A' for Active; 'I' for Inactive)
    1  A    between atoms: C_1  and  O_24
    2  A    between atoms: C_6  and  C_19
    3  A    between atoms: C_6  and  N_22
    4  A    between atoms: C_15  and  N_23
    5  A    between atoms: C_19  and  O_24
                            x       y       z     vdW  Elec       q    Type
                         _______ _______ _______ _____ _____    ______ ____

>  <TORSDO>
F 5

$$$$
