=
 OpenBabel10262422333D

 43 49  0  0  1  0  0  0  0  0999 V2000
  186.5080  178.2540  138.2060 C   0  0  0  0  0  0  0  0  0  0  0  0
  184.6960  178.4820  145.5850 C   0  0  0  0  0  0  0  0  0  0  0  0
  186.3250  178.1850  136.9550 O   0  0  0  0  0  0  0  0  0  0  0  0
  183.1920  178.8620  140.7190 C   0  0  0  0  0  0  0  0  0  0  0  0
  185.3990  178.4990  139.0680 N   0  0  0  0  0  0  0  0  0  0  0  0
  183.4530  178.9440  143.5750 C   0  0  0  0  0  0  0  0  0  0  0  0
  185.8130  177.9620  144.7470 C   0  0  0  0  0  3  0  0  0  0  0  0
  184.8280  178.4750  147.0670 C   0  0  0  0  0  1  0  0  0  0  0  0
  184.7430  179.0150  142.7840 C   0  0  1  0  0  3  0  0  0  0  0  0
  183.5600  178.8860  145.0410 C   0  0  0  0  0  3  0  0  0  0  0  0
  185.8150  178.1490  143.4290 C   0  0  0  0  0  3  0  0  0  0  0  0
  185.5940  178.6230  140.4880 C   0  0  0  0  0  3  0  0  0  0  0  0
  184.5480  178.7720  141.3050 C   0  0  0  0  0  0  0  0  0  0  0  0
  182.1260  178.9790  141.5180 C   0  0  0  0  0  3  0  0  0  0  0  0
  183.0510  178.8090  139.2450 C   0  0  0  0  0  0  0  0  0  0  0  0
  184.1110  178.6250  138.5100 N   0  0  0  0  0  0  0  0  0  0  0  0
  182.2600  178.9830  142.9870 C   0  0  0  0  0  3  0  0  0  0  0  0
  187.8130  178.0740  138.7620 N   0  0  0  0  0  0  0  0  0  0  0  0
  187.9910  177.6780  139.9780 C   0  0  0  0  0  3  0  0  0  0  0  0
  190.1570  176.5310  139.6730 C   0  0  0  0  0  2  0  0  0  0  0  0
  189.2880  177.0650  141.9060 N   0  0  1  0  0  0  0  0  0  0  0  0
  191.9800  176.9960  141.9780 C   0  0  0  0  0  2  0  0  0  0  0  0
  189.3670  177.5180  140.5190 C   0  0  2  0  0  3  0  0  0  0  0  0
  191.5940  177.0100  139.4890 C   0  0  0  0  0  2  0  0  0  0  0  0
  190.5800  176.9330  142.6410 C   0  0  1  0  0  0  0  0  0  0  0  0
  189.8380  178.1790  142.7140 C   0  0  0  0  0  2  0  0  0  0  0  0
  192.1210  177.7950  140.6880 C   0  0  0  0  0  2  0  0  0  0  0  0
  190.4750  176.1950  143.8340 O   0  0  0  0  0  0  0  0  0  0  0  0
  190.7430  177.0920  144.8800 C   0  0  2  0  0  3  0  0  0  0  0  0
  189.2560  177.7020  148.0720 N   0  0  0  0  0  1  0  0  0  0  0  0
  191.3060  176.7760  147.2130 C   0  0  0  0  0  2  0  0  0  0  0  0
  189.8040  176.7980  147.0960 C   0  0  2  0  0  3  0  0  0  0  0  0
  191.7910  176.5030  145.8130 C   0  0  0  0  0  2  0  0  0  0  0  0
  189.4900  177.2970  145.7030 C   0  0  0  0  0  2  0  0  0  0  0  0
  181.7260  178.9190  138.5820 C   0  0  0  0  0  2  0  0  0  0  0  0
  180.6320  182.4310  138.2280 C   0  0  0  0  0  2  0  0  0  0  0  0
  180.6740  182.4870  136.7690 N   0  0  0  0  0  0  0  0  0  0  0  0
  180.8740  183.9180  134.9430 O   0  0  0  0  0  0  0  0  0  0  0  0
  180.9270  179.9780  136.6590 C   0  0  0  0  0  2  0  0  0  0  0  0
  180.6650  180.9970  138.7460 C   0  0  0  0  0  2  0  0  0  0  0  0
  181.5880  180.2150  137.9430 N   0  0  0  0  0  0  0  0  0  0  0  0
  180.8520  183.7710  136.1930 C   0  0  0  0  0  3  0  0  0  0  0  0
  180.7090  181.2910  135.8950 C   0  0  0  0  0  2  0  0  0  0  0  0
  1 18  1  0  0  0  0
  1  5  1  0  0  0  0
  2  8  1  0  0  0  0
  3  1  2  0  0  0  0
  4 13  1  0  0  0  0
  4 14  2  0  0  0  0
  5 12  1  0  0  0  0
  6 10  1  0  0  0  0
  7  2  1  0  0  0  0
  9 11  1  1  0  0  0
  9  6  1  0  0  0  0
 10  2  2  0  0  0  0
 11  7  2  0  0  0  0
 12 13  2  0  0  0  0
 13  9  1  0  0  0  0
 14 17  1  0  0  0  0
 15  4  1  0  0  0  0
 16  5  1  0  0  0  0
 16 15  2  0  0  0  0
 17  6  2  0  0  0  0
 18 19  2  0  0  0  0
 20 23  1  0  0  0  0
 21 25  1  0  0  0  0
 21 26  1  1  0  0  0
 22 25  1  0  0  0  0
 23 19  1  6  0  0  0
 23 21  1  0  0  0  0
 24 20  1  0  0  0  0
 24 27  1  0  0  0  0
 25 26  1  0  0  0  0
 25 28  1  1  0  0  0
 27 22  1  0  0  0  0
 29 28  1  6  0  0  0
 29 34  1  0  0  0  0
 29 33  1  0  0  0  0
 32 31  1  0  0  0  0
 32 30  1  1  0  0  0
 33 31  1  0  0  0  0
 34 32  1  0  0  0  0
 35 15  1  0  0  0  0
 36 40  1  0  0  0  0
 37 36  1  0  0  0  0
 38 42  2  0  0  0  0
 39 41  1  0  0  0  0
 41 35  1  0  0  0  0
 41 40  1  0  0  0  0
 42 37  1  0  0  0  0
 43 39  1  0  0  0  0
 43 37  1  0  0  0  0
M  END
>  <MODEL>
1

>  <REMARK>
 VINA RESULT:     -11.4      0.000      0.000
  Name = 
  6 active torsions:
  status: ('A' for Active; 'I' for Inactive)
    1  A    between atoms: C_1  and  C_34
    2  A    between atoms: C_1  and  N_35
    3  A    between atoms: C_2  and  N_6
    4  A    between atoms: C_11  and  O_14
    5  A    between atoms: C_12  and  C_17
    6  A    between atoms: O_14  and  C_22
                            x       y       z     vdW  Elec       q    Type
                         _______ _______ _______ _____ _____    ______ ____

>  <TORSDO>
F 6

$$$$
=
 OpenBabel10262422333D

 43 49  0  0  1  0  0  0  0  0999 V2000
  185.1480  177.9740  138.0080 C   0  0  0  0  0  0  0  0  0  0  0  0
  185.2370  178.5110  145.5910 C   0  0  0  0  0  0  0  0  0  0  0  0
  184.6570  177.8700  136.8460 O   0  0  0  0  0  0  0  0  0  0  0  0
  182.5800  178.7850  141.2380 C   0  0  0  0  0  0  0  0  0  0  0  0
  184.2960  178.2870  139.1080 N   0  0  0  0  0  0  0  0  0  0  0  0
  183.5460  178.9510  143.9340 C   0  0  0  0  0  0  0  0  0  0  0  0
  186.0960  177.9240  144.5240 C   0  0  0  0  0  3  0  0  0  0  0  0
  185.7340  178.5490  146.9930 C   0  0  0  0  0  1  0  0  0  0  0  0
  184.6000  178.9500  142.8460 C   0  0  1  0  0  3  0  0  0  0  0  0
  184.0130  178.9380  145.3290 C   0  0  0  0  0  3  0  0  0  0  0  0
  185.7740  178.0670  143.2400 C   0  0  0  0  0  3  0  0  0  0  0  0
  184.8410  178.4510  140.4280 C   0  0  0  0  0  3  0  0  0  0  0  0
  184.0360  178.6660  141.4720 C   0  0  0  0  0  0  0  0  0  0  0  0
  181.7500  178.9680  142.2700 C   0  0  0  0  0  3  0  0  0  0  0  0
  182.0750  178.6890  139.8480 C   0  0  0  0  0  0  0  0  0  0  0  0
  182.9130  178.4420  138.8810 N   0  0  0  0  0  0  0  0  0  0  0  0
  182.2450  179.0150  143.6590 C   0  0  0  0  0  3  0  0  0  0  0  0
  186.5440  177.7650  138.2310 N   0  0  0  0  0  0  0  0  0  0  0  0
  187.2510  176.9930  137.4740 C   0  0  0  0  0  3  0  0  0  0  0  0
  189.2020  175.5370  137.0590 C   0  0  0  0  0  2  0  0  0  0  0  0
  188.9040  176.7100  139.1950 N   0  0  1  0  0  0  0  0  0  0  0  0
  191.5300  176.3140  138.7420 C   0  0  0  0  0  2  0  0  0  0  0  0
  188.6980  176.7940  137.7510 C   0  0  2  0  0  3  0  0  0  0  0  0
  190.5910  175.7670  136.4700 C   0  0  0  0  0  2  0  0  0  0  0  0
  190.3170  176.5970  139.6640 C   0  0  1  0  0  0  0  0  0  0  0  0
  189.7030  177.9080  139.5490 C   0  0  0  0  0  2  0  0  0  0  0  0
  191.4310  176.7480  137.2830 C   0  0  0  0  0  2  0  0  0  0  0  0
  190.4320  176.1940  141.0070 O   0  0  0  0  0  0  0  0  0  0  0  0
  190.4990  177.3700  141.7700 C   0  0  2  0  0  3  0  0  0  0  0  0
  189.6710  178.1910  145.1480 N   0  0  0  0  0  1  0  0  0  0  0  0
  191.6610  177.9400  143.8150 C   0  0  0  0  0  2  0  0  0  0  0  0
  190.3270  177.3440  144.1880 C   0  0  2  0  0  3  0  0  0  0  0  0
  191.8820  177.5100  142.3890 C   0  0  0  0  0  2  0  0  0  0  0  0
  189.5140  177.2860  142.9140 C   0  0  0  0  0  2  0  0  0  0  0  0
  180.6300  178.8260  139.5300 C   0  0  0  0  0  2  0  0  0  0  0  0
  178.9310  182.0950  139.8090 C   0  0  0  0  0  2  0  0  0  0  0  0
  179.1200  182.5160  138.4240 N   0  0  0  0  0  0  0  0  0  0  0  0
  179.2400  184.3660  137.0160 O   0  0  0  0  0  0  0  0  0  0  0  0
  179.8580  180.1860  137.7940 C   0  0  0  0  0  2  0  0  0  0  0  0
  179.1800  180.6010  139.9920 C   0  0  0  0  0  2  0  0  0  0  0  0
  180.3180  180.2000  139.1840 N   0  0  0  0  0  0  0  0  0  0  0  0
  179.1110  183.9130  138.1840 C   0  0  0  0  0  3  0  0  0  0  0  0
  179.4780  181.5940  137.3200 C   0  0  0  0  0  2  0  0  0  0  0  0
  1 18  1  0  0  0  0
  1  5  1  0  0  0  0
  2  8  1  0  0  0  0
  3  1  2  0  0  0  0
  4 13  1  0  0  0  0
  4 14  2  0  0  0  0
  5 12  1  0  0  0  0
  6 10  1  0  0  0  0
  7  2  1  0  0  0  0
  9 11  1  1  0  0  0
  9  6  1  0  0  0  0
 10  2  2  0  0  0  0
 11  7  2  0  0  0  0
 12 13  2  0  0  0  0
 13  9  1  0  0  0  0
 14 17  1  0  0  0  0
 15  4  1  0  0  0  0
 16  5  1  0  0  0  0
 16 15  2  0  0  0  0
 17  6  2  0  0  0  0
 19 18  2  0  0  0  0
 20 23  1  0  0  0  0
 21 26  1  1  0  0  0
 21 25  1  0  0  0  0
 22 25  1  0  0  0  0
 23 19  1  1  0  0  0
 23 21  1  0  0  0  0
 24 20  1  0  0  0  0
 24 27  1  0  0  0  0
 25 28  1  1  0  0  0
 26 25  1  0  0  0  0
 27 22  1  0  0  0  0
 29 28  1  1  0  0  0
 29 33  1  0  0  0  0
 29 34  1  0  0  0  0
 31 32  1  0  0  0  0
 32 30  1  1  0  0  0
 33 31  1  0  0  0  0
 34 32  1  0  0  0  0
 35 15  1  0  0  0  0
 36 40  1  0  0  0  0
 37 36  1  0  0  0  0
 38 42  2  0  0  0  0
 39 41  1  0  0  0  0
 41 35  1  0  0  0  0
 41 40  1  0  0  0  0
 42 37  1  0  0  0  0
 43 39  1  0  0  0  0
 43 37  1  0  0  0  0
M  END
>  <MODEL>
2

>  <REMARK>
 VINA RESULT:     -11.3      1.625      2.223
  Name = 
  6 active torsions:
  status: ('A' for Active; 'I' for Inactive)
    1  A    between atoms: C_1  and  C_34
    2  A    between atoms: C_1  and  N_35
    3  A    between atoms: C_2  and  N_6
    4  A    between atoms: C_11  and  O_14
    5  A    between atoms: C_12  and  C_17
    6  A    between atoms: O_14  and  C_22
                            x       y       z     vdW  Elec       q    Type
                         _______ _______ _______ _____ _____    ______ ____

>  <TORSDO>
F 6

$$$$
=
 OpenBabel10262422333D

 43 49  0  0  1  0  0  0  0  0999 V2000
  186.5550  178.2810  138.2230 C   0  0  0  0  0  0  0  0  0  0  0  0
  184.7030  178.4770  145.5930 C   0  0  0  0  0  0  0  0  0  0  0  0
  186.3790  178.2130  136.9710 O   0  0  0  0  0  0  0  0  0  0  0  0
  183.2210  178.8530  140.7210 C   0  0  0  0  0  0  0  0  0  0  0  0
  185.4390  178.5140  139.0800 N   0  0  0  0  0  0  0  0  0  0  0  0
  183.4660  178.9310  143.5770 C   0  0  0  0  0  0  0  0  0  0  0  0
  185.8290  177.9700  144.7600 C   0  0  0  0  0  3  0  0  0  0  0  0
  184.8280  178.4690  147.0760 C   0  0  0  0  0  1  0  0  0  0  0  0
  184.7600  179.0160  142.7940 C   0  0  1  0  0  3  0  0  0  0  0  0
  183.5660  178.8720  145.0440 C   0  0  0  0  0  3  0  0  0  0  0  0
  185.8360  178.1590  143.4420 C   0  0  0  0  0  3  0  0  0  0  0  0
  185.6260  178.6370  140.5010 C   0  0  0  0  0  3  0  0  0  0  0  0
  184.5740  178.7750  141.3120 C   0  0  0  0  0  0  0  0  0  0  0  0
  182.1490  178.9580  141.5140 C   0  0  0  0  0  3  0  0  0  0  0  0
  183.0880  178.8010  139.2450 C   0  0  0  0  0  0  0  0  0  0  0  0
  184.1530  178.6280  138.5150 N   0  0  0  0  0  0  0  0  0  0  0  0
  182.2760  178.9600  142.9840 C   0  0  0  0  0  3  0  0  0  0  0  0
  187.8580  178.1130  138.7850 N   0  0  0  0  0  0  0  0  0  0  0  0
  188.0410  177.5700  139.9430 C   0  0  0  0  0  3  0  0  0  0  0  0
  190.2220  176.4490  139.6570 C   0  0  0  0  0  2  0  0  0  0  0  0
  189.3300  176.9770  141.8820 N   0  0  1  0  0  0  0  0  0  0  0  0
  192.0220  176.9410  141.9750 C   0  0  0  0  0  2  0  0  0  0  0  0
  189.4140  177.4280  140.4950 C   0  0  2  0  0  3  0  0  0  0  0  0
  191.6550  176.9450  139.4830 C   0  0  0  0  0  2  0  0  0  0  0  0
  190.6180  176.8630  142.6280 C   0  0  1  0  0  0  0  0  0  0  0  0
  189.8610  178.1000  142.6920 C   0  0  0  0  0  2  0  0  0  0  0  0
  192.1630  177.7390  140.6840 C   0  0  0  0  0  2  0  0  0  0  0  0
  190.5130  176.1260  143.8220 O   0  0  0  0  0  0  0  0  0  0  0  0
  190.7800  177.0250  144.8670 C   0  0  2  0  0  3  0  0  0  0  0  0
  189.2210  177.7150  148.0070 N   0  0  0  0  0  1  0  0  0  0  0  0
  191.2640  176.7150  147.2170 C   0  0  0  0  0  2  0  0  0  0  0  0
  189.7670  176.7850  147.0560 C   0  0  2  0  0  3  0  0  0  0  0  0
  191.7800  176.4120  145.8360 C   0  0  0  0  0  2  0  0  0  0  0  0
  189.5110  177.2790  145.6500 C   0  0  0  0  0  2  0  0  0  0  0  0
  181.7650  178.9000  138.5760 C   0  0  0  0  0  2  0  0  0  0  0  0
  180.2410  176.8450  135.9100 C   0  0  0  0  0  2  0  0  0  0  0  0
  180.3680  175.5540  136.5820 N   0  0  0  0  0  0  0  0  0  0  0  0
  180.4940  173.2550  136.2370 O   0  0  0  0  0  0  0  0  0  0  0  0
  180.9570  176.7130  138.7450 C   0  0  0  0  0  2  0  0  0  0  0  0
  180.4300  178.0110  136.8740 C   0  0  0  0  0  2  0  0  0  0  0  0
  181.4980  177.6980  137.8070 N   0  0  0  0  0  0  0  0  0  0  0  0
  180.4120  174.4100  135.7440 C   0  0  0  0  0  3  0  0  0  0  0  0
  180.6170  175.3970  138.0340 C   0  0  0  0  0  2  0  0  0  0  0  0
  1 18  1  0  0  0  0
  1  5  1  0  0  0  0
  2  8  1  0  0  0  0
  3  1  2  0  0  0  0
  4 13  1  0  0  0  0
  4 14  2  0  0  0  0
  5 12  1  0  0  0  0
  6 10  1  0  0  0  0
  7  2  1  0  0  0  0
  9 11  1  1  0  0  0
  9  6  1  0  0  0  0
 10  2  2  0  0  0  0
 11  7  2  0  0  0  0
 12 13  2  0  0  0  0
 13  9  1  0  0  0  0
 14 17  1  0  0  0  0
 15  4  1  0  0  0  0
 16  5  1  0  0  0  0
 16 15  2  0  0  0  0
 17  6  2  0  0  0  0
 18 19  2  0  0  0  0
 20 23  1  0  0  0  0
 21 25  1  0  0  0  0
 21 26  1  1  0  0  0
 22 25  1  0  0  0  0
 23 19  1  6  0  0  0
 23 21  1  0  0  0  0
 24 20  1  0  0  0  0
 24 27  1  0  0  0  0
 25 26  1  0  0  0  0
 25 28  1  1  0  0  0
 27 22  1  0  0  0  0
 29 28  1  6  0  0  0
 29 34  1  0  0  0  0
 29 33  1  0  0  0  0
 32 31  1  0  0  0  0
 32 30  1  1  0  0  0
 33 31  1  0  0  0  0
 34 32  1  0  0  0  0
 35 15  1  0  0  0  0
 36 37  1  0  0  0  0
 36 40  1  0  0  0  0
 37 43  1  0  0  0  0
 40 41  1  0  0  0  0
 41 35  1  0  0  0  0
 41 39  1  0  0  0  0
 42 38  2  0  0  0  0
 42 37  1  0  0  0  0
 43 39  1  0  0  0  0
M  END
>  <MODEL>
3

>  <REMARK>
 VINA RESULT:     -10.6      1.952      2.900
  Name = 
  6 active torsions:
  status: ('A' for Active; 'I' for Inactive)
    1  A    between atoms: C_1  and  C_34
    2  A    between atoms: C_1  and  N_35
    3  A    between atoms: C_2  and  N_6
    4  A    between atoms: C_11  and  O_14
    5  A    between atoms: C_12  and  C_17
    6  A    between atoms: O_14  and  C_22
                            x       y       z     vdW  Elec       q    Type
                         _______ _______ _______ _____ _____    ______ ____

>  <TORSDO>
F 6

$$$$
=
 OpenBabel10262422333D

 43 49  0  0  1  0  0  0  0  0999 V2000
  191.1090  177.4910  141.0200 C   0  0  0  0  0  0  0  0  0  0  0  0
  183.6090  178.5880  141.6060 C   0  0  0  0  0  0  0  0  0  0  0  0
  192.2150  177.2280  140.4640 O   0  0  0  0  0  0  0  0  0  0  0  0
  187.7210  178.1270  138.6120 C   0  0  0  0  0  0  0  0  0  0  0  0
  189.9590  177.7480  140.2160 N   0  0  0  0  0  0  0  0  0  0  0  0
  185.1340  178.6380  139.7430 C   0  0  0  0  0  0  0  0  0  0  0  0
  184.7100  178.0650  142.4630 C   0  0  0  0  0  3  0  0  0  0  0  0
  182.2610  178.8050  142.1970 C   0  0  0  0  0  1  0  0  0  0  0  0
  186.3090  178.7210  140.6970 C   0  0  0  0  0  0  0  0  0  0  0  0
  183.7870  178.8000  140.3130 C   0  0  0  0  0  2  0  0  0  0  0  0
  185.9670  178.0620  142.0250 C   0  0  0  0  0  3  0  0  0  0  0  0
  188.7040  178.0900  140.8280 C   0  0  0  0  0  3  0  0  0  0  0  0
  187.6080  178.2530  140.0820 C   0  0  0  0  0  0  0  0  0  0  0  0
  186.6320  178.2530  137.8450 C   0  0  0  0  0  3  0  0  0  0  0  0
  189.0530  177.8520  138.0230 C   0  0  0  0  0  0  0  0  0  0  0  0
  190.0720  177.6680  138.8130 N   0  0  0  0  0  0  0  0  0  0  0  0
  185.2970  178.4780  138.4330 C   0  0  0  0  0  3  0  0  0  0  0  0
  190.9980  177.5190  142.4450 N   0  0  0  0  0  0  0  0  0  0  0  0
  191.2590  176.4850  143.1730 C   0  0  0  0  0  3  0  0  0  0  0  0
  191.6630  175.2910  145.2970 C   0  0  0  0  0  2  0  0  0  0  0  0
  189.7080  176.7420  144.9900 N   0  0  1  0  0  0  0  0  0  0  0  0
  190.3830  176.6780  147.5970 C   0  0  0  0  0  2  0  0  0  0  0  0
  191.1170  176.5550  144.6510 C   0  0  2  0  0  3  0  0  0  0  0  0
  192.4300  175.6280  146.5730 C   0  0  0  0  0  2  0  0  0  0  0  0
  189.3850  176.9230  146.4370 C   0  0  1  0  0  0  0  0  0  0  0  0
  189.6270  178.0890  145.6060 C   0  0  0  0  0  2  0  0  0  0  0  0
  191.8700  176.8450  147.3040 C   0  0  0  0  0  2  0  0  0  0  0  0
  188.0180  176.7690  146.7310 O   0  0  0  0  0  0  0  0  0  0  0  0
  187.4070  177.9970  146.4290 C   0  0  2  0  0  3  0  0  0  0  0  0
  184.0390  179.0030  145.7880 N   0  0  0  0  0  1  0  0  0  0  0  0
  185.6810  179.2880  147.5270 C   0  0  0  0  0  2  0  0  0  0  0  0
  185.0090  178.3120  146.5950 C   0  0  2  0  0  3  0  0  0  0  0  0
  187.0710  178.7400  147.7130 C   0  0  0  0  0  2  0  0  0  0  0  0
  186.0990  177.7450  145.7120 C   0  0  0  0  0  2  0  0  0  0  0  0
  189.2500  177.7390  136.5550 C   0  0  0  0  0  2  0  0  0  0  0  0
  191.0200  174.9480  134.9020 C   0  0  0  0  0  2  0  0  0  0  0  0
  189.8990  174.0130  134.8760 N   0  0  0  0  0  0  0  0  0  0  0  0
  189.3280  171.7580  134.7730 O   0  0  0  0  0  0  0  0  0  0  0  0
  188.3110  175.8650  135.5220 C   0  0  0  0  0  2  0  0  0  0  0  0
  190.5660  176.3770  135.1830 C   0  0  0  0  0  2  0  0  0  0  0  0
  189.5170  176.3600  136.1870 N   0  0  0  0  0  0  0  0  0  0  0  0
  190.2300  172.6350  134.8250 C   0  0  0  0  0  3  0  0  0  0  0  0
  188.4840  174.4100  135.0670 C   0  0  0  0  0  2  0  0  0  0  0  0
  1 18  1  0  0  0  0
  2  8  1  0  0  0  0
  2  7  2  0  0  0  0
  3  1  2  0  0  0  0
  4 13  1  0  0  0  0
  5 12  1  0  0  0  0
  5  1  1  0  0  0  0
  6 10  1  0  0  0  0
  6  9  1  0  0  0  0
  9 11  2  0  0  0  0
 10  2  1  0  0  0  0
 11  7  1  0  0  0  0
 13  9  1  0  0  0  0
 13 12  2  0  0  0  0
 14 17  1  0  0  0  0
 14  4  2  0  0  0  0
 15  4  1  0  0  0  0
 15 16  2  0  0  0  0
 16  5  1  0  0  0  0
 17  6  2  0  0  0  0
 18 19  2  0  0  0  0
 20 24  1  0  0  0  0
 21 26  1  6  0  0  0
 21 25  1  0  0  0  0
 23 19  1  6  0  0  0
 23 21  1  0  0  0  0
 23 20  1  0  0  0  0
 24 27  1  0  0  0  0
 25 28  1  1  0  0  0
 25 22  1  0  0  0  0
 26 25  1  0  0  0  0
 27 22  1  0  0  0  0
 29 28  1  1  0  0  0
 29 33  1  0  0  0  0
 31 33  1  0  0  0  0
 32 30  1  6  0  0  0
 32 31  1  0  0  0  0
 34 29  1  0  0  0  0
 34 32  1  0  0  0  0
 35 15  1  0  0  0  0
 36 40  1  0  0  0  0
 37 36  1  0  0  0  0
 37 43  1  0  0  0  0
 38 42  2  0  0  0  0
 39 41  1  0  0  0  0
 40 41  1  0  0  0  0
 41 35  1  0  0  0  0
 42 37  1  0  0  0  0
 43 39  1  0  0  0  0
M  END
>  <MODEL>
4

>  <REMARK>
 VINA RESULT:     -10.5      4.087      6.908
  Name = 
  6 active torsions:
  status: ('A' for Active; 'I' for Inactive)
    1  A    between atoms: C_1  and  C_34
    2  A    between atoms: C_1  and  N_35
    3  A    between atoms: C_2  and  N_6
    4  A    between atoms: C_11  and  O_14
    5  A    between atoms: C_12  and  C_17
    6  A    between atoms: O_14  and  C_22
                            x       y       z     vdW  Elec       q    Type
                         _______ _______ _______ _____ _____    ______ ____

>  <TORSDO>
F 6

$$$$
=
 OpenBabel10262422333D

 43 49  0  0  1  0  0  0  0  0999 V2000
  185.2440  178.7120  139.7110 C   0  0  0  0  0  0  0  0  0  0  0  0
  190.3080  176.7520  145.0320 C   0  0  0  0  0  0  0  0  0  0  0  0
  184.1110  178.9730  139.2110 O   0  0  0  0  0  0  0  0  0  0  0  0
  185.5870  178.3240  143.8840 C   0  0  0  0  0  0  0  0  0  0  0  0
  185.3840  178.6160  141.1270 N   0  0  0  0  0  0  0  0  0  0  0  0
  188.0730  177.6400  145.1410 C   0  0  0  0  0  0  0  0  0  0  0  0
  190.1420  176.5790  143.5610 C   0  0  0  0  0  3  0  0  0  0  0  0
  191.5880  176.3500  145.6760 C   0  0  0  0  0  1  0  0  0  0  0  0
  188.1490  178.0350  143.6810 C   0  0  1  0  0  3  0  0  0  0  0  0
  189.3160  177.1920  145.7880 C   0  0  0  0  0  3  0  0  0  0  0  0
  189.1030  177.1190  142.9280 C   0  0  0  0  0  3  0  0  0  0  0  0
  186.6710  178.3610  141.7160 C   0  0  0  0  0  3  0  0  0  0  0  0
  186.7910  178.1920  143.0360 C   0  0  0  0  0  0  0  0  0  0  0  0
  185.6740  178.1270  145.2040 C   0  0  0  0  0  3  0  0  0  0  0  0
  184.2970  178.6660  143.2380 C   0  0  0  0  0  0  0  0  0  0  0  0
  184.2450  178.7800  141.9420 N   0  0  0  0  0  0  0  0  0  0  0  0
  186.9460  177.7380  145.8430 C   0  0  0  0  0  3  0  0  0  0  0  0
  186.3800  178.4980  138.8700 N   0  0  0  0  0  0  0  0  0  0  0  0
  186.3960  177.5820  137.9600 C   0  0  0  0  0  3  0  0  0  0  0  0
  187.2740  176.5200  135.9110 C   0  0  0  0  0  2  0  0  0  0  0  0
  188.6580  176.7720  137.9220 N   0  0  1  0  0  0  0  0  0  0  0  0
  190.2360  176.7460  135.7390 C   0  0  0  0  0  2  0  0  0  0  0  0
  187.6050  177.3860  137.1170 C   0  0  2  0  0  3  0  0  0  0  0  0
  187.9790  177.0450  134.6630 C   0  0  0  0  0  2  0  0  0  0  0  0
  189.9820  176.5790  137.2590 C   0  0  1  0  0  0  0  0  0  0  0  0
  189.7280  177.7940  138.0140 C   0  0  0  0  0  2  0  0  0  0  0  0
  189.3270  177.6940  134.9650 C   0  0  0  0  0  2  0  0  0  0  0  0
  190.8360  175.7040  137.9540 O   0  0  0  0  0  0  0  0  0  0  0  0
  191.9270  175.4580  137.1060 C   0  0  2  0  0  3  0  0  0  0  0  0
  195.4600  175.2510  137.5990 N   0  0  0  0  0  1  0  0  0  0  0  0
  193.6450  173.7530  137.0890 C   0  0  0  0  0  2  0  0  0  0  0  0
  194.1190  174.8830  137.9670 C   0  0  2  0  0  3  0  0  0  0  0  0
  192.1570  173.9590  136.9770 C   0  0  0  0  0  2  0  0  0  0  0  0
  193.1820  176.0430  137.7150 C   0  0  0  0  0  2  0  0  0  0  0  0
  183.0500  178.8410  144.0270 C   0  0  0  0  0  2  0  0  0  0  0  0
  179.6830  180.1260  143.2120 C   0  0  0  0  0  2  0  0  0  0  0  0
  179.7770  179.9740  141.7630 N   0  0  0  0  0  0  0  0  0  0  0  0
  178.9430  180.7430  139.7290 O   0  0  0  0  0  0  0  0  0  0  0  0
  181.8750  178.5950  142.0220 C   0  0  0  0  0  2  0  0  0  0  0  0
  180.7670  179.3380  143.9410 C   0  0  0  0  0  2  0  0  0  0  0  0
  182.0150  179.4430  143.2060 N   0  0  0  0  0  0  0  0  0  0  0  0
  178.9480  180.8230  140.9860 C   0  0  0  0  0  3  0  0  0  0  0  0
  180.7860  179.1280  141.0820 C   0  0  0  0  0  2  0  0  0  0  0  0
  1  5  1  0  0  0  0
  2  8  1  0  0  0  0
  2 10  2  0  0  0  0
  3  1  2  0  0  0  0
  4 14  2  0  0  0  0
  5 12  1  0  0  0  0
  5 16  1  0  0  0  0
  6 10  1  0  0  0  0
  6 17  2  0  0  0  0
  7  2  1  0  0  0  0
  9 11  1  6  0  0  0
  9  6  1  0  0  0  0
 11  7  2  0  0  0  0
 12 13  2  0  0  0  0
 13  9  1  0  0  0  0
 13  4  1  0  0  0  0
 14 17  1  0  0  0  0
 15  4  1  0  0  0  0
 15 35  1  0  0  0  0
 16 15  2  0  0  0  0
 18  1  1  0  0  0  0
 19 18  2  0  0  0  0
 20 23  1  0  0  0  0
 21 26  1  1  0  0  0
 22 25  1  0  0  0  0
 23 21  1  0  0  0  0
 23 19  1  1  0  0  0
 24 27  1  0  0  0  0
 24 20  1  0  0  0  0
 25 21  1  0  0  0  0
 25 28  1  1  0  0  0
 25 26  1  0  0  0  0
 27 22  1  0  0  0  0
 29 34  1  0  0  0  0
 29 28  1  1  0  0  0
 31 32  1  0  0  0  0
 32 30  1  6  0  0  0
 33 31  1  0  0  0  0
 33 29  1  0  0  0  0
 34 32  1  0  0  0  0
 36 40  1  0  0  0  0
 37 36  1  0  0  0  0
 38 42  2  0  0  0  0
 39 41  1  0  0  0  0
 41 40  1  0  0  0  0
 41 35  1  0  0  0  0
 42 37  1  0  0  0  0
 43 37  1  0  0  0  0
 43 39  1  0  0  0  0
M  END
>  <MODEL>
5

>  <REMARK>
 VINA RESULT:     -10.1      3.072      5.890
  Name = 
  6 active torsions:
  status: ('A' for Active; 'I' for Inactive)
    1  A    between atoms: C_1  and  C_34
    2  A    between atoms: C_1  and  N_35
    3  A    between atoms: C_2  and  N_6
    4  A    between atoms: C_11  and  O_14
    5  A    between atoms: C_12  and  C_17
    6  A    between atoms: O_14  and  C_22
                            x       y       z     vdW  Elec       q    Type
                         _______ _______ _______ _____ _____    ______ ____

>  <TORSDO>
F 6

$$$$
=
 OpenBabel10262422333D

 43 49  0  0  1  0  0  0  0  0999 V2000
  189.5580  177.7640  140.3460 C   0  0  0  0  0  0  0  0  0  0  0  0
  183.4570  177.2510  135.8390 C   0  0  0  0  0  0  0  0  0  0  0  0
  190.7600  177.6140  140.7130 O   0  0  0  0  0  0  0  0  0  0  0  0
  188.5270  176.9180  136.3580 C   0  0  0  0  0  0  0  0  0  0  0  0
  189.2000  177.5190  138.9870 N   0  0  0  0  0  0  0  0  0  0  0  0
  185.8250  177.1240  135.4170 C   0  0  0  0  0  0  0  0  0  0  0  0
  183.7420  177.2520  137.3010 C   0  0  0  0  0  3  0  0  0  0  0  0
  182.0480  177.3130  135.3670 C   0  0  0  0  0  1  0  0  0  0  0  0
  186.1070  177.7330  136.7750 C   0  0  0  0  0  0  0  0  0  0  0  0
  184.4290  177.1280  134.9500 C   0  0  0  0  0  2  0  0  0  0  0  0
  184.9850  177.4120  137.7500 C   0  0  0  0  0  3  0  0  0  0  0  0
  187.8490  177.7240  138.5410 C   0  0  0  0  0  3  0  0  0  0  0  0
  187.4940  177.4200  137.2900 C   0  0  0  0  0  0  0  0  0  0  0  0
  188.1910  176.5750  135.1100 C   0  0  0  0  0  3  0  0  0  0  0  0
  189.9230  176.7990  136.8420 C   0  0  0  0  0  0  0  0  0  0  0  0
  190.1910  177.0790  138.0860 N   0  0  0  0  0  0  0  0  0  0  0  0
  186.7940  176.6460  134.6400 C   0  0  0  0  0  3  0  0  0  0  0  0
  188.5540  178.1620  141.2820 N   0  0  0  0  0  0  0  0  0  0  0  0
  188.1990  177.4080  142.2690 C   0  0  0  0  0  3  0  0  0  0  0  0
  187.1460  176.9940  144.4640 C   0  0  0  0  0  2  0  0  0  0  0  0
  185.8430  177.7930  142.5430 N   0  0  1  0  0  0  0  0  0  0  0  0
  184.6860  178.6290  144.8270 C   0  0  0  0  0  2  0  0  0  0  0  0
  187.1410  177.8570  143.2110 C   0  0  2  0  0  3  0  0  0  0  0  0
  186.9140  177.8490  145.7070 C   0  0  0  0  0  2  0  0  0  0  0  0
  184.6670  178.2920  143.3150 C   0  0  1  0  0  0  0  0  0  0  0  0
  185.3860  179.1990  142.4370 C   0  0  0  0  0  2  0  0  0  0  0  0
  186.0140  179.0540  145.4450 C   0  0  0  0  0  2  0  0  0  0  0  0
  183.4300  177.9090  142.7650 O   0  0  0  0  0  0  0  0  0  0  0  0
  182.5620  178.9970  142.9430 C   0  0  2  0  0  3  0  0  0  0  0  0
  179.5840  180.0940  141.3000 N   0  0  0  0  0  1  0  0  0  0  0  0
  180.1970  179.1510  143.4300 C   0  0  0  0  0  2  0  0  0  0  0  0
  180.3580  179.0610  141.9340 C   0  0  2  0  0  3  0  0  0  0  0  0
  181.5060  178.6550  143.9840 C   0  0  0  0  0  2  0  0  0  0  0  0
  181.8280  179.2740  141.6490 C   0  0  0  0  0  2  0  0  0  0  0  0
  191.0190  176.3290  135.9580 C   0  0  0  0  0  2  0  0  0  0  0  0
  194.4760  175.7110  137.1080 C   0  0  0  0  0  2  0  0  0  0  0  0
  194.2600  174.3570  137.6110 N   0  0  0  0  0  0  0  0  0  0  0  0
  195.0560  172.7470  139.0930 O   0  0  0  0  0  0  0  0  0  0  0  0
  192.0030  174.2760  136.4830 C   0  0  0  0  0  2  0  0  0  0  0  0
  193.3400  176.1720  136.2010 C   0  0  0  0  0  2  0  0  0  0  0  0
  192.0740  175.7140  136.7440 N   0  0  0  0  0  0  0  0  0  0  0  0
  195.1510  173.9100  138.6200 C   0  0  0  0  0  3  0  0  0  0  0  0
  193.0920  173.5180  137.2530 C   0  0  0  0  0  2  0  0  0  0  0  0
  1  3  2  0  0  0  0
  1 18  1  0  0  0  0
  2  7  2  0  0  0  0
  4 15  1  0  0  0  0
  4 13  1  0  0  0  0
  5  1  1  0  0  0  0
  6  9  1  0  0  0  0
  7 11  1  0  0  0  0
  8  2  1  0  0  0  0
  9 13  1  0  0  0  0
  9 11  2  0  0  0  0
 10  6  1  0  0  0  0
 10  2  1  0  0  0  0
 12  5  1  0  0  0  0
 13 12  2  0  0  0  0
 14  4  2  0  0  0  0
 15 16  2  0  0  0  0
 16  5  1  0  0  0  0
 17 14  1  0  0  0  0
 17  6  2  0  0  0  0
 18 19  2  0  0  0  0
 20 24  1  0  0  0  0
 21 26  1  6  0  0  0
 21 23  1  0  0  0  0
 21 25  1  0  0  0  0
 22 27  1  0  0  0  0
 23 19  1  6  0  0  0
 23 20  1  0  0  0  0
 25 28  1  6  0  0  0
 25 22  1  0  0  0  0
 26 25  1  0  0  0  0
 27 24  1  0  0  0  0
 29 28  1  6  0  0  0
 29 33  1  0  0  0  0
 31 33  1  0  0  0  0
 32 30  1  6  0  0  0
 32 31  1  0  0  0  0
 34 32  1  0  0  0  0
 34 29  1  0  0  0  0
 35 41  1  0  0  0  0
 35 15  1  0  0  0  0
 36 37  1  0  0  0  0
 37 42  1  0  0  0  0
 39 41  1  0  0  0  0
 39 43  1  0  0  0  0
 40 41  1  0  0  0  0
 40 36  1  0  0  0  0
 42 38  2  0  0  0  0
 43 37  1  0  0  0  0
M  END
>  <MODEL>
6

>  <REMARK>
 VINA RESULT:      -9.4      3.513      9.601
  Name = 
  6 active torsions:
  status: ('A' for Active; 'I' for Inactive)
    1  A    between atoms: C_1  and  C_34
    2  A    between atoms: C_1  and  N_35
    3  A    between atoms: C_2  and  N_6
    4  A    between atoms: C_11  and  O_14
    5  A    between atoms: C_12  and  C_17
    6  A    between atoms: O_14  and  C_22
                            x       y       z     vdW  Elec       q    Type
                         _______ _______ _______ _____ _____    ______ ____

>  <TORSDO>
F 6

$$$$
=
 OpenBabel10262422333D

 43 49  0  0  1  0  0  0  0  0999 V2000
  187.4100  178.0950  138.3910 C   0  0  0  0  0  0  0  0  0  0  0  0
  188.6380  177.2960  145.8500 C   0  0  0  0  0  0  0  0  0  0  0  0
  187.6910  178.2410  137.1650 O   0  0  0  0  0  0  0  0  0  0  0  0
  190.4980  177.1850  141.0950 C   0  0  0  0  0  0  0  0  0  0  0  0
  188.4390  177.7480  139.3140 N   0  0  0  0  0  0  0  0  0  0  0  0
  190.0150  176.9210  143.9100 C   0  0  0  0  0  0  0  0  0  0  0  0
  187.6080  177.9160  144.9700 C   0  0  0  0  0  3  0  0  0  0  0  0
  188.3920  177.2080  147.3150 C   0  0  0  0  0  1  0  0  0  0  0  0
  188.7880  176.9560  143.0230 C   0  0  1  0  0  3  0  0  0  0  0  0
  189.7970  176.8840  145.3650 C   0  0  0  0  0  3  0  0  0  0  0  0
  187.7010  177.8190  143.6450 C   0  0  0  0  0  3  0  0  0  0  0  0
  188.1310  177.5360  140.7030 C   0  0  0  0  0  3  0  0  0  0  0  0
  189.1050  177.2900  141.5830 C   0  0  0  0  0  0  0  0  0  0  0  0
  191.4940  176.9710  141.9610 C   0  0  0  0  0  3  0  0  0  0  0  0
  190.7540  177.3310  139.6430 C   0  0  0  0  0  0  0  0  0  0  0  0
  189.7620  177.6080  138.8450 N   0  0  0  0  0  0  0  0  0  0  0  0
  191.2470  176.8740  143.4120 C   0  0  0  0  0  3  0  0  0  0  0  0
  186.0730  178.2890  138.8590 N   0  0  0  0  0  0  0  0  0  0  0  0
  185.0570  177.7430  138.2790 C   0  0  0  0  0  3  0  0  0  0  0  0
  182.8090  176.7600  138.5620 C   0  0  0  0  0  2  0  0  0  0  0  0
  183.1190  179.1560  138.1260 N   0  0  1  0  0  0  0  0  0  0  0  0
  180.8400  178.7790  139.5110 C   0  0  0  0  0  2  0  0  0  0  0  0
  183.6830  177.9840  138.7920 C   0  0  2  0  0  3  0  0  0  0  0  0
  181.9050  176.5110  139.7660 C   0  0  0  0  0  2  0  0  0  0  0  0
  181.7690  179.6010  138.5830 C   0  0  1  0  0  0  0  0  0  0  0  0
  182.9570  180.1730  139.1920 C   0  0  0  0  0  2  0  0  0  0  0  0
  181.4890  177.7950  140.4790 C   0  0  0  0  0  2  0  0  0  0  0  0
  181.1490  180.5060  137.7030 O   0  0  0  0  0  0  0  0  0  0  0  0
  180.8750  181.6620  138.4520 C   0  0  2  0  0  3  0  0  0  0  0  0
  180.2420  185.0770  137.6070 N   0  0  0  0  0  1  0  0  0  0  0  0
  179.0070  183.2010  138.4760 C   0  0  0  0  0  2  0  0  0  0  0  0
  179.9850  183.6730  137.4300 C   0  0  2  0  0  3  0  0  0  0  0  0
  179.3810  181.7630  138.7230 C   0  0  0  0  0  2  0  0  0  0  0  0
  181.2580  182.8860  137.6490 C   0  0  0  0  0  2  0  0  0  0  0  0
  192.1220  177.2130  139.0750 C   0  0  0  0  0  2  0  0  0  0  0  0
  193.8600  174.2760  137.6580 C   0  0  0  0  0  2  0  0  0  0  0  0
  192.9180  174.0140  136.5730 N   0  0  0  0  0  0  0  0  0  0  0  0
  192.1070  172.3700  135.1370 O   0  0  0  0  0  0  0  0  0  0  0  0
  191.8060  176.2440  136.9720 C   0  0  0  0  0  2  0  0  0  0  0  0
  193.6730  175.6670  138.2540 C   0  0  0  0  0  2  0  0  0  0  0  0
  192.2550  175.9690  138.3370 N   0  0  0  0  0  0  0  0  0  0  0  0
  192.8710  172.6820  136.0890 C   0  0  0  0  0  3  0  0  0  0  0  0
  191.9210  174.9970  136.0870 C   0  0  0  0  0  2  0  0  0  0  0  0
  1 18  1  0  0  0  0
  1  5  1  0  0  0  0
  2  8  1  0  0  0  0
  3  1  2  0  0  0  0
  4 13  1  0  0  0  0
  4 14  2  0  0  0  0
  5 12  1  0  0  0  0
  6 10  1  0  0  0  0
  7  2  1  0  0  0  0
  9 11  1  1  0  0  0
  9  6  1  0  0  0  0
 10  2  2  0  0  0  0
 11  7  2  0  0  0  0
 12 13  2  0  0  0  0
 13  9  1  0  0  0  0
 14 17  1  0  0  0  0
 15  4  1  0  0  0  0
 16  5  1  0  0  0  0
 16 15  2  0  0  0  0
 17  6  2  0  0  0  0
 19 18  2  0  0  0  0
 20 23  1  0  0  0  0
 20 24  1  0  0  0  0
 21 25  1  0  0  0  0
 21 23  1  0  0  0  0
 21 26  1  1  0  0  0
 22 27  1  0  0  0  0
 23 19  1  6  0  0  0
 24 27  1  0  0  0  0
 25 28  1  6  0  0  0
 25 26  1  0  0  0  0
 25 22  1  0  0  0  0
 29 28  1  6  0  0  0
 29 33  1  0  0  0  0
 31 33  1  0  0  0  0
 32 30  1  1  0  0  0
 32 34  1  0  0  0  0
 32 31  1  0  0  0  0
 34 29  1  0  0  0  0
 35 15  1  0  0  0  0
 36 40  1  0  0  0  0
 37 36  1  0  0  0  0
 38 42  2  0  0  0  0
 39 41  1  0  0  0  0
 40 41  1  0  0  0  0
 41 35  1  0  0  0  0
 42 37  1  0  0  0  0
 43 37  1  0  0  0  0
 43 39  1  0  0  0  0
M  END
>  <MODEL>
7

>  <REMARK>
 VINA RESULT:      -9.4      2.718     10.079
  Name = 
  6 active torsions:
  status: ('A' for Active; 'I' for Inactive)
    1  A    between atoms: C_1  and  C_34
    2  A    between atoms: C_1  and  N_35
    3  A    between atoms: C_2  and  N_6
    4  A    between atoms: C_11  and  O_14
    5  A    between atoms: C_12  and  C_17
    6  A    between atoms: O_14  and  C_22
                            x       y       z     vdW  Elec       q    Type
                         _______ _______ _______ _____ _____    ______ ____

>  <TORSDO>
F 6

$$$$
=
 OpenBabel10262422333D

 43 49  0  0  1  0  0  0  0  0999 V2000
  184.5520  179.1910  139.0170 C   0  0  0  0  0  0  0  0  0  0  0  0
  183.6480  172.0130  136.6800 C   0  0  0  0  0  0  0  0  0  0  0  0
  184.3320  180.4350  139.0940 O   0  0  0  0  0  0  0  0  0  0  0  0
  181.7760  176.7530  137.0090 C   0  0  0  0  0  0  0  0  0  0  0  0
  183.6010  178.3450  138.3730 N   0  0  0  0  0  0  0  0  0  0  0  0
  182.1970  173.9350  136.6780 C   0  0  0  0  0  0  0  0  0  0  0  0
  184.7720  172.8920  137.1110 C   0  0  0  0  0  3  0  0  0  0  0  0
  183.8940  170.5610  136.4690 C   0  0  0  0  0  1  0  0  0  0  0  0
  183.1110  174.6360  137.6620 C   0  0  0  0  0  0  0  0  0  0  0  0
  182.4520  172.5100  136.4150 C   0  0  0  0  0  2  0  0  0  0  0  0
  184.5410  174.1400  137.5110 C   0  0  0  0  0  3  0  0  0  0  0  0
  183.8130  176.9240  138.3120 C   0  0  0  0  0  3  0  0  0  0  0  0
  182.9640  176.1410  137.6420 C   0  0  0  0  0  0  0  0  0  0  0  0
  180.9290  175.9950  136.3040 C   0  0  0  0  0  3  0  0  0  0  0  0
  181.5600  178.2110  137.1670 C   0  0  0  0  0  0  0  0  0  0  0  0
  182.4470  178.9210  137.8030 N   0  0  0  0  0  0  0  0  0  0  0  0
  181.1690  174.5530  136.1040 C   0  0  0  0  0  3  0  0  0  0  0  0
  185.7510  178.6280  139.5550 N   0  0  0  0  0  0  0  0  0  0  0  0
  186.8630  178.6280  138.8990 C   0  0  0  0  0  3  0  0  0  0  0  0
  188.4810  176.7710  138.7200 C   0  0  0  0  0  2  0  0  0  0  0  0
  187.8260  177.7000  140.8950 N   0  0  1  0  0  0  0  0  0  0  0  0
  190.3150  176.6830  141.0620 C   0  0  0  0  0  2  0  0  0  0  0  0
  188.0830  178.0190  139.4930 C   0  0  2  0  0  3  0  0  0  0  0  0
  189.9980  176.6970  138.5630 C   0  0  0  0  0  2  0  0  0  0  0  0
  188.9750  177.1580  141.6800 C   0  0  1  0  0  0  0  0  0  0  0  0
  188.7250  178.5880  141.6710 C   0  0  0  0  0  2  0  0  0  0  0  0
  190.7520  177.3080  139.7420 C   0  0  0  0  0  2  0  0  0  0  0  0
  188.5950  176.5720  142.9010 O   0  0  0  0  0  0  0  0  0  0  0  0
  188.8370  177.5330  143.8940 C   0  0  2  0  0  3  0  0  0  0  0  0
  187.7570  177.9360  147.2770 N   0  0  0  0  0  1  0  0  0  0  0  0
  189.7960  177.3990  146.1130 C   0  0  0  0  0  2  0  0  0  0  0  0
  188.3170  177.1270  146.2280 C   0  0  2  0  0  3  0  0  0  0  0  0
  190.1090  177.1840  144.6550 C   0  0  0  0  0  2  0  0  0  0  0  0
  187.7070  177.5160  144.9000 C   0  0  0  0  0  2  0  0  0  0  0  0
  180.3760  178.8930  136.5830 C   0  0  0  0  0  2  0  0  0  0  0  0
  179.7570  182.3840  137.6220 C   0  0  0  0  0  2  0  0  0  0  0  0
  180.2770  183.0270  136.4170 N   0  0  0  0  0  0  0  0  0  0  0  0
  181.1800  184.9990  135.5740 O   0  0  0  0  0  0  0  0  0  0  0  0
  180.3390  180.7990  135.2320 C   0  0  0  0  0  2  0  0  0  0  0  0
  179.4980  180.8970  137.4110 C   0  0  0  0  0  2  0  0  0  0  0  0
  180.5640  180.3320  136.6010 N   0  0  0  0  0  0  0  0  0  0  0  0
  180.7410  184.3590  136.5640 C   0  0  0  0  0  3  0  0  0  0  0  0
  180.4940  182.3220  135.1320 C   0  0  0  0  0  2  0  0  0  0  0  0
  1  3  2  0  0  0  0
  1 18  1  0  0  0  0
  2  7  2  0  0  0  0
  4 15  1  0  0  0  0
  4 13  1  0  0  0  0
  5  1  1  0  0  0  0
  6  9  1  0  0  0  0
  7 11  1  0  0  0  0
  8  2  1  0  0  0  0
 10  6  1  0  0  0  0
 10  2  1  0  0  0  0
 11  9  2  0  0  0  0
 12  5  1  0  0  0  0
 13  9  1  0  0  0  0
 13 12  2  0  0  0  0
 14  4  2  0  0  0  0
 15 16  2  0  0  0  0
 16  5  1  0  0  0  0
 17 14  1  0  0  0  0
 17  6  2  0  0  0  0
 19 18  2  0  0  0  0
 20 23  1  0  0  0  0
 21 26  1  1  0  0  0
 21 25  1  0  0  0  0
 22 25  1  0  0  0  0
 23 19  1  6  0  0  0
 23 21  1  0  0  0  0
 24 20  1  0  0  0  0
 24 27  1  0  0  0  0
 25 28  1  1  0  0  0
 26 25  1  0  0  0  0
 27 22  1  0  0  0  0
 29 28  1  6  0  0  0
 29 33  1  0  0  0  0
 29 34  1  0  0  0  0
 31 32  1  0  0  0  0
 32 30  1  1  0  0  0
 33 31  1  0  0  0  0
 34 32  1  0  0  0  0
 35 41  1  0  0  0  0
 35 15  1  0  0  0  0
 37 42  1  0  0  0  0
 37 36  1  0  0  0  0
 38 42  2  0  0  0  0
 39 41  1  0  0  0  0
 40 36  1  0  0  0  0
 41 40  1  0  0  0  0
 43 39  1  0  0  0  0
 43 37  1  0  0  0  0
M  END
>  <MODEL>
8

>  <REMARK>
 VINA RESULT:      -9.3      3.039      4.701
  Name = 
  6 active torsions:
  status: ('A' for Active; 'I' for Inactive)
    1  A    between atoms: C_1  and  C_34
    2  A    between atoms: C_1  and  N_35
    3  A    between atoms: C_2  and  N_6
    4  A    between atoms: C_11  and  O_14
    5  A    between atoms: C_12  and  C_17
    6  A    between atoms: O_14  and  C_22
                            x       y       z     vdW  Elec       q    Type
                         _______ _______ _______ _____ _____    ______ ____

>  <TORSDO>
F 6

$$$$
=
 OpenBabel10262422333D

 43 49  0  0  1  0  0  0  0  0999 V2000
  190.4060  176.8620  141.4920 C   0  0  0  0  0  0  0  0  0  0  0  0
  185.8250  177.0290  135.4280 C   0  0  0  0  0  0  0  0  0  0  0  0
  191.4740  176.6930  142.1510 O   0  0  0  0  0  0  0  0  0  0  0  0
  190.5760  176.8230  137.2910 C   0  0  0  0  0  0  0  0  0  0  0  0
  190.4530  176.8910  140.0680 N   0  0  0  0  0  0  0  0  0  0  0  0
  188.2190  177.0990  135.6790 C   0  0  0  0  0  0  0  0  0  0  0  0
  185.7050  176.7370  136.8840 C   0  0  0  0  0  3  0  0  0  0  0  0
  184.5950  177.1250  134.5960 C   0  0  0  0  0  1  0  0  0  0  0  0
  188.0630  177.4230  137.1510 C   0  0  0  0  0  0  0  0  0  0  0  0
  187.0070  177.1380  134.8450 C   0  0  0  0  0  2  0  0  0  0  0  0
  186.7590  176.8550  137.6880 C   0  0  0  0  0  3  0  0  0  0  0  0
  189.2580  177.1240  139.3040 C   0  0  0  0  0  3  0  0  0  0  0  0
  189.2850  177.0720  137.9690 C   0  0  0  0  0  0  0  0  0  0  0  0
  190.6230  176.7340  135.9580 C   0  0  0  0  0  3  0  0  0  0  0  0
  191.7940  176.6680  138.1200 C   0  0  0  0  0  0  0  0  0  0  0  0
  191.6890  176.6930  139.4180 N   0  0  0  0  0  0  0  0  0  0  0  0
  189.4040  176.8380  135.1340 C   0  0  0  0  0  3  0  0  0  0  0  0
  189.1520  177.0100  142.1640 N   0  0  0  0  0  0  0  0  0  0  0  0
  188.7900  178.1270  142.7010 C   0  0  0  0  0  3  0  0  0  0  0  0
  187.3840  177.1820  144.4980 C   0  0  0  0  0  2  0  0  0  0  0  0
  186.4040  178.0710  142.4300 N   0  0  1  0  0  0  0  0  0  0  0  0
  184.6300  178.3090  144.4440 C   0  0  0  0  0  2  0  0  0  0  0  0
  187.4830  178.2320  143.4010 C   0  0  2  0  0  3  0  0  0  0  0  0
  186.7190  177.7650  145.7420 C   0  0  0  0  0  2  0  0  0  0  0  0
  185.0110  178.2340  142.9430 C   0  0  1  0  0  0  0  0  0  0  0  0
  185.7110  179.3810  142.3910 C   0  0  0  0  0  2  0  0  0  0  0  0
  185.6780  178.8340  145.4190 C   0  0  0  0  0  2  0  0  0  0  0  0
  184.0270  177.7520  142.0610 O   0  0  0  0  0  0  0  0  0  0  0  0
  183.3090  178.8740  141.6170 C   0  0  2  0  0  3  0  0  0  0  0  0
  181.8210  179.7990  138.5020 N   0  0  0  0  0  1  0  0  0  0  0  0
  181.0860  179.1450  140.7000 C   0  0  0  0  0  2  0  0  0  0  0  0
  182.0260  178.8460  139.5610 C   0  0  2  0  0  3  0  0  0  0  0  0
  181.8300  178.7010  141.9320 C   0  0  0  0  0  2  0  0  0  0  0  0
  183.4260  178.9860  140.1130 C   0  0  0  0  0  2  0  0  0  0  0  0
  193.1300  176.4420  137.5110 C   0  0  0  0  0  2  0  0  0  0  0  0
  195.0490  173.3980  138.3490 C   0  0  0  0  0  2  0  0  0  0  0  0
  194.6180  172.5930  137.2090 N   0  0  0  0  0  0  0  0  0  0  0  0
  194.3370  170.4130  136.4400 O   0  0  0  0  0  0  0  0  0  0  0  0
  193.6290  174.6390  136.1110 C   0  0  0  0  0  2  0  0  0  0  0  0
  194.7490  174.8800  138.1480 C   0  0  0  0  0  2  0  0  0  0  0  0
  193.4530  175.0270  137.5110 N   0  0  0  0  0  0  0  0  0  0  0  0
  194.6650  171.1860  137.3790 C   0  0  0  0  0  3  0  0  0  0  0  0
  193.9940  173.1540  135.9880 C   0  0  0  0  0  2  0  0  0  0  0  0
  1  3  2  0  0  0  0
  1 18  1  0  0  0  0
  2  7  2  0  0  0  0
  4 13  1  0  0  0  0
  4 15  1  0  0  0  0
  5  1  1  0  0  0  0
  6  9  1  0  0  0  0
  7 11  1  0  0  0  0
  8  2  1  0  0  0  0
  9 11  2  0  0  0  0
  9 13  1  0  0  0  0
 10  2  1  0  0  0  0
 10  6  1  0  0  0  0
 12  5  1  0  0  0  0
 13 12  2  0  0  0  0
 14  4  2  0  0  0  0
 15 16  2  0  0  0  0
 16  5  1  0  0  0  0
 17  6  2  0  0  0  0
 17 14  1  0  0  0  0
 18 19  2  0  0  0  0
 20 24  1  0  0  0  0
 21 26  1  6  0  0  0
 21 25  1  0  0  0  0
 21 23  1  0  0  0  0
 22 27  1  0  0  0  0
 23 19  1  6  0  0  0
 23 20  1  0  0  0  0
 25 28  1  6  0  0  0
 25 22  1  0  0  0  0
 26 25  1  0  0  0  0
 27 24  1  0  0  0  0
 29 33  1  0  0  0  0
 29 28  1  6  0  0  0
 31 33  1  0  0  0  0
 32 30  1  6  0  0  0
 32 34  1  0  0  0  0
 32 31  1  0  0  0  0
 34 29  1  0  0  0  0
 35 15  1  0  0  0  0
 37 42  1  0  0  0  0
 37 36  1  0  0  0  0
 38 42  2  0  0  0  0
 39 41  1  0  0  0  0
 40 36  1  0  0  0  0
 41 35  1  0  0  0  0
 41 40  1  0  0  0  0
 43 39  1  0  0  0  0
 43 37  1  0  0  0  0
M  END
>  <MODEL>
9

>  <REMARK>
 VINA RESULT:      -9.3      3.595     10.280
  Name = 
  6 active torsions:
  status: ('A' for Active; 'I' for Inactive)
    1  A    between atoms: C_1  and  C_34
    2  A    between atoms: C_1  and  N_35
    3  A    between atoms: C_2  and  N_6
    4  A    between atoms: C_11  and  O_14
    5  A    between atoms: C_12  and  C_17
    6  A    between atoms: O_14  and  C_22
                            x       y       z     vdW  Elec       q    Type
                         _______ _______ _______ _____ _____    ______ ____

>  <TORSDO>
F 6

$$$$
