=
 OpenBabel10262422573D

 37 42  0  0  1  0  0  0  0  0999 V2000
  189.8410  176.3500  139.1490 C   0  0  1  0  0  3  0  0  0  0  0  0
  187.9090  179.0470  138.0390 O   0  0  0  0  0  1  0  0  0  0  0  0
  189.2300  177.3380  141.0810 C   0  0  1  0  0  3  0  0  0  0  0  0
  188.5420  178.4800  140.2860 C   0  0  1  0  0  3  0  0  0  0  0  0
  188.3230  177.9880  138.8500 C   0  0  2  0  0  3  0  0  0  0  0  0
  190.3360  176.8340  140.3730 O   0  0  0  0  0  0  0  0  0  0  0  0
  189.5080  177.4400  138.3230 O   0  0  0  0  0  0  0  0  0  0  0  0
  189.0010  176.7260  146.6920 C   0  0  0  0  0  2  0  0  0  0  0  0
  189.6530  177.6820  142.4580 N   0  0  1  0  0  0  0  0  0  0  0  0
  190.3420  176.5690  144.5280 C   0  0  1  0  0  3  0  0  0  0  0  0
  189.2620  176.6680  143.4380 C   0  0  1  0  0  3  0  0  0  0  0  0
  191.6060  177.1100  143.8550 C   0  0  2  0  0  3  0  0  0  0  0  0
  187.7750  176.6900  143.8070 C   0  0  0  0  0  2  0  0  0  0  0  0
  186.8600  177.4650  145.8450 O   0  0  0  0  0  0  0  0  0  0  0  0
  192.0420  177.7780  141.3750 C   0  0  0  0  0  1  0  0  0  0  0  0
  191.5850  178.6400  143.7230 C   0  0  0  0  0  2  0  0  0  0  0  0
  187.3660  177.9080  144.6180 C   0  0  0  0  0  2  0  0  0  0  0  0
  191.1140  177.7760  142.5850 C   0  0  1  0  0  0  0  0  0  0  0  0
  190.0790  177.3480  145.8240 C   0  0  0  0  0  2  0  0  0  0  0  0
  187.8510  177.7220  146.8040 C   0  0  0  0  0  2  0  0  0  0  0  0
  190.8990  175.4910  138.4690 C   0  0  1  0  0  3  0  0  0  0  0  0
  190.3010  174.3580  137.9110 O   0  0  0  0  0  0  0  0  0  0  0  0
  188.6230  174.3410  136.2280 C   0  0  0  0  0  1  0  0  0  0  0  0
  190.0510  174.7030  136.5820 C   0  0  0  0  0  2  0  0  0  0  0  0
  191.5270  176.2260  137.4600 O   0  0  0  0  0  0  0  0  0  0  0  0
  193.6420  175.1620  137.6120 C   0  0  0  0  0  2  0  0  0  0  0  0
  192.8360  176.4090  137.9090 C   0  0  0  0  0  3  0  0  0  0  0  0
  193.7780  176.3770  136.7230 C   0  0  0  0  0  2  0  0  0  0  0  0
  187.2110  178.8560  140.9140 C   0  0  0  0  0  2  0  0  0  0  0  0
  186.0720  178.2720  140.1010 C   0  0  0  0  0  2  0  0  0  0  0  0
  183.5770  178.4170  140.1490 C   0  0  0  0  0  3  0  0  0  0  0  0
  184.7930  178.4240  140.8440 C   0  0  0  0  0  0  0  0  0  0  0  0
  184.8030  178.6100  142.2310 C   0  0  0  0  0  3  0  0  0  0  0  0
  183.6140  179.0130  144.6920 S   0  0  0  0  0  1  0  0  0  0  0  0
  182.3860  178.7660  142.2290 C   0  0  0  0  0  3  0  0  0  0  0  0
  183.6000  178.7780  142.9220 C   0  0  0  0  0  0  0  0  0  0  0  0
  182.3750  178.5860  140.8420 C   0  0  0  0  0  3  0  0  0  0  0  0
  1 21  1  6  0  0  0
  1  6  1  0  0  0  0
  3  6  1  6  0  0  0
  4 29  1  1  0  0  0
  4  3  1  0  0  0  0
  5  2  1  6  0  0  0
  5  4  1  0  0  0  0
  7  5  1  0  0  0  0
  7  1  1  0  0  0  0
  8 20  1  0  0  0  0
  9  3  1  6  0  0  0
  9 18  1  0  0  0  0
  9 11  1  0  0  0  0
 10 19  1  1  0  0  0
 11 13  1  1  0  0  0
 11 10  1  0  0  0  0
 12 16  1  1  0  0  0
 12 10  1  0  0  0  0
 13 17  1  0  0  0  0
 14 20  1  0  0  0  0
 17 14  1  0  0  0  0
 18 15  1  6  0  0  0
 18 16  1  0  0  0  0
 18 12  1  0  0  0  0
 19  8  1  0  0  0  0
 21 25  1  6  0  0  0
 22 21  1  0  0  0  0
 23 24  1  0  0  0  0
 24 22  1  0  0  0  0
 25 27  1  0  0  0  0
 26 27  1  0  0  0  0
 28 26  1  0  0  0  0
 28 27  1  0  0  0  0
 30 32  1  0  0  0  0
 30 29  1  0  0  0  0
 31 37  2  0  0  0  0
 31 32  1  0  0  0  0
 32 33  2  0  0  0  0
 33 36  1  0  0  0  0
 35 36  2  0  0  0  0
 36 34  1  0  0  0  0
 37 35  1  0  0  0  0
M  END
>  <MODEL>
1

>  <REMARK>
 VINA RESULT:      -8.3      0.000      0.000
  Name = 
  9 active torsions:
  status: ('A' for Active; 'I' for Inactive)
    1  A    between atoms: C_1  and  C_33
    2  A    between atoms: N_4  and  C_10
    3  A    between atoms: O_5  and  C_23
    4  A    between atoms: O_5  and  C_33
    5  A    between atoms: C_6  and  C_31
    6  A    between atoms: C_14  and  C_37
    7  A    between atoms: O_17  and  C_26
    8  A    between atoms: O_17  and  C_33
    9  A    between atoms: C_31  and  C_37
                            x       y       z     vdW  Elec       q    Type
                         _______ _______ _______ _____ _____    ______ ____

>  <TORSDO>
F 9

$$$$
=
 OpenBabel10262422573D

 37 42  0  0  1  0  0  0  0  0999 V2000
  189.1480  177.0710  139.4200 C   0  0  1  0  0  3  0  0  0  0  0  0
  186.1790  178.9180  139.2900 O   0  0  0  0  0  1  0  0  0  0  0  0
  188.7470  177.5020  141.5960 C   0  0  1  0  0  3  0  0  0  0  0  0
  187.5240  178.3740  141.2040 C   0  0  1  0  0  3  0  0  0  0  0  0
  187.1300  178.0140  139.7660 C   0  0  2  0  0  3  0  0  0  0  0  0
  189.7390  177.5580  140.5990 O   0  0  0  0  0  0  0  0  0  0  0  0
  188.2540  178.0370  138.9190 O   0  0  0  0  0  0  0  0  0  0  0  0
  189.2960  176.7720  147.1700 C   0  0  0  0  0  2  0  0  0  0  0  0
  189.3610  177.8140  142.9070 N   0  0  1  0  0  0  0  0  0  0  0  0
  190.3210  176.6520  144.8380 C   0  0  1  0  0  3  0  0  0  0  0  0
  189.1000  176.7810  143.9120 C   0  0  1  0  0  3  0  0  0  0  0  0
  191.4840  177.1990  144.0060 C   0  0  2  0  0  3  0  0  0  0  0  0
  187.6800  176.8050  144.4850 C   0  0  0  0  0  2  0  0  0  0  0  0
  187.0650  177.5410  146.6460 O   0  0  0  0  0  0  0  0  0  0  0  0
  191.5770  177.9170  141.5040 C   0  0  0  0  0  1  0  0  0  0  0  0
  191.4590  178.7320  143.9090 C   0  0  0  0  0  2  0  0  0  0  0  0
  187.3990  178.0080  145.3690 C   0  0  0  0  0  2  0  0  0  0  0  0
  190.8270  177.8950  142.8310 C   0  0  1  0  0  0  0  0  0  0  0  0
  190.2490  177.4040  146.1730 C   0  0  0  0  0  2  0  0  0  0  0  0
  188.1820  177.7720  147.4620 C   0  0  0  0  0  2  0  0  0  0  0  0
  190.2260  176.7800  138.3850 C   0  0  1  0  0  3  0  0  0  0  0  0
  190.9260  175.6250  138.7420 O   0  0  0  0  0  0  0  0  0  0  0  0
  192.7570  174.6710  137.5640 C   0  0  0  0  0  1  0  0  0  0  0  0
  192.2410  175.8650  138.3420 C   0  0  0  0  0  2  0  0  0  0  0  0
  189.6390  176.5960  137.1300 O   0  0  0  0  0  0  0  0  0  0  0  0
  187.7810  175.3200  136.3870 C   0  0  0  0  0  2  0  0  0  0  0  0
  189.0700  175.3220  137.1820 C   0  0  0  0  0  3  0  0  0  0  0  0
  189.0390  174.7320  135.7870 C   0  0  0  0  0  2  0  0  0  0  0  0
  186.3540  178.1240  142.1410 C   0  0  0  0  0  2  0  0  0  0  0  0
  185.6930  179.4380  142.5040 C   0  0  0  0  0  2  0  0  0  0  0  0
  183.9630  179.1500  144.2870 C   0  0  0  0  0  3  0  0  0  0  0  0
  184.2870  179.1960  142.9250 C   0  0  0  0  0  0  0  0  0  0  0  0
  183.2940  178.9760  141.9640 C   0  0  0  0  0  3  0  0  0  0  0  0
  180.7110  178.4440  141.1370 S   0  0  0  0  0  1  0  0  0  0  0  0
  181.6550  178.6830  143.7230 C   0  0  0  0  0  3  0  0  0  0  0  0
  181.9790  178.7220  142.3640 C   0  0  0  0  0  0  0  0  0  0  0  0
  182.6480  178.8970  144.6850 C   0  0  0  0  0  3  0  0  0  0  0  0
  1 21  1  6  0  0  0
  1  6  1  0  0  0  0
  3  6  1  6  0  0  0
  4  3  1  0  0  0  0
  4 29  1  1  0  0  0
  5  2  1  6  0  0  0
  5  4  1  0  0  0  0
  7  1  1  0  0  0  0
  7  5  1  0  0  0  0
  8 20  1  0  0  0  0
  9  3  1  6  0  0  0
  9 11  1  0  0  0  0
 10 19  1  1  0  0  0
 11 13  1  1  0  0  0
 11 10  1  0  0  0  0
 12 16  1  1  0  0  0
 12 10  1  0  0  0  0
 13 17  1  0  0  0  0
 14 20  1  0  0  0  0
 17 14  1  0  0  0  0
 18 15  1  6  0  0  0
 18  9  1  0  0  0  0
 18 16  1  0  0  0  0
 18 12  1  0  0  0  0
 19  8  1  0  0  0  0
 21 25  1  6  0  0  0
 21 22  1  0  0  0  0
 23 24  1  0  0  0  0
 24 22  1  0  0  0  0
 25 27  1  0  0  0  0
 26 27  1  0  0  0  0
 28 26  1  0  0  0  0
 28 27  1  0  0  0  0
 29 30  1  0  0  0  0
 30 32  1  0  0  0  0
 31 37  1  0  0  0  0
 32 31  2  0  0  0  0
 33 36  2  0  0  0  0
 33 32  1  0  0  0  0
 34 36  1  0  0  0  0
 35 37  2  0  0  0  0
 36 35  1  0  0  0  0
M  END
>  <MODEL>
2

>  <REMARK>
 VINA RESULT:      -8.2      1.322      2.381
  Name = 
  9 active torsions:
  status: ('A' for Active; 'I' for Inactive)
    1  A    between atoms: C_1  and  C_33
    2  A    between atoms: N_4  and  C_10
    3  A    between atoms: O_5  and  C_23
    4  A    between atoms: O_5  and  C_33
    5  A    between atoms: C_6  and  C_31
    6  A    between atoms: C_14  and  C_37
    7  A    between atoms: O_17  and  C_26
    8  A    between atoms: O_17  and  C_33
    9  A    between atoms: C_31  and  C_37
                            x       y       z     vdW  Elec       q    Type
                         _______ _______ _______ _____ _____    ______ ____

>  <TORSDO>
F 9

$$$$
=
 OpenBabel10262422573D

 37 42  0  0  1  0  0  0  0  0999 V2000
  187.8660  177.2210  139.6710 C   0  0  1  0  0  3  0  0  0  0  0  0
  185.4020  179.7020  139.5680 O   0  0  0  0  0  1  0  0  0  0  0  0
  187.7350  177.8660  141.8270 C   0  0  1  0  0  3  0  0  0  0  0  0
  186.7220  178.9760  141.4390 C   0  0  1  0  0  3  0  0  0  0  0  0
  186.1520  178.6310  140.0580 C   0  0  2  0  0  3  0  0  0  0  0  0
  188.6380  177.6260  140.7740 O   0  0  0  0  0  0  0  0  0  0  0  0
  187.1860  178.3370  139.1490 O   0  0  0  0  0  0  0  0  0  0  0  0
  188.8190  176.9380  147.2930 C   0  0  0  0  0  2  0  0  0  0  0  0
  188.4990  178.1050  143.0730 N   0  0  1  0  0  0  0  0  0  0  0  0
  189.5880  176.8350  144.8630 C   0  0  1  0  0  3  0  0  0  0  0  0
  188.2870  177.0570  144.0740 C   0  0  1  0  0  3  0  0  0  0  0  0
  190.6870  177.3440  143.9270 C   0  0  2  0  0  3  0  0  0  0  0  0
  186.9370  177.1390  144.7940 C   0  0  0  0  0  2  0  0  0  0  0  0
  186.5930  177.8410  147.0250 O   0  0  0  0  0  0  0  0  0  0  0  0
  190.5600  178.1320  141.4470 C   0  0  0  0  0  1  0  0  0  0  0  0
  190.7390  178.8780  143.8710 C   0  0  0  0  0  2  0  0  0  0  0  0
  186.8180  178.3280  145.7320 C   0  0  0  0  0  2  0  0  0  0  0  0
  189.9510  178.1100  142.8450 C   0  0  1  0  0  0  0  0  0  0  0  0
  189.6970  177.5490  146.2170 C   0  0  0  0  0  2  0  0  0  0  0  0
  187.8000  177.9870  147.7240 C   0  0  0  0  0  2  0  0  0  0  0  0
  188.7700  176.6210  138.6020 C   0  0  1  0  0  3  0  0  0  0  0  0
  188.2430  176.8830  137.3350 O   0  0  0  0  0  0  0  0  0  0  0  0
  186.9530  175.8810  135.6080 C   0  0  0  0  0  1  0  0  0  0  0  0
  187.5080  175.7420  137.0110 C   0  0  0  0  0  2  0  0  0  0  0  0
  190.0480  177.1810  138.6960 O   0  0  0  0  0  0  0  0  0  0  0  0
  191.6300  176.2970  137.1640 C   0  0  0  0  0  2  0  0  0  0  0  0
  190.9250  176.1140  138.4920 C   0  0  0  0  0  3  0  0  0  0  0  0
  192.3460  176.6380  138.4520 C   0  0  0  0  0  2  0  0  0  0  0  0
  185.5970  179.0650  142.4570 C   0  0  0  0  0  2  0  0  0  0  0  0
  184.6050  177.9410  142.2310 C   0  0  0  0  0  2  0  0  0  0  0  0
  182.7200  178.6960  143.6890 C   0  0  0  0  0  3  0  0  0  0  0  0
  183.2180  178.4500  142.4040 C   0  0  0  0  0  0  0  0  0  0  0  0
  182.3990  178.6480  141.2880 C   0  0  0  0  0  3  0  0  0  0  0  0
  180.0420  179.3580  140.0300 S   0  0  0  0  0  1  0  0  0  0  0  0
  180.5920  179.3540  142.7380 C   0  0  0  0  0  3  0  0  0  0  0  0
  181.0870  179.1020  141.4550 C   0  0  0  0  0  0  0  0  0  0  0  0
  181.4080  179.1500  143.8560 C   0  0  0  0  0  3  0  0  0  0  0  0
  1 21  1  6  0  0  0
  1  6  1  0  0  0  0
  3  6  1  6  0  0  0
  4  3  1  0  0  0  0
  4 29  1  1  0  0  0
  5  2  1  6  0  0  0
  5  4  1  0  0  0  0
  7  1  1  0  0  0  0
  7  5  1  0  0  0  0
  8 20  1  0  0  0  0
  9  3  1  6  0  0  0
  9 11  1  0  0  0  0
 10 19  1  1  0  0  0
 11 13  1  1  0  0  0
 11 10  1  0  0  0  0
 12 16  1  1  0  0  0
 12 10  1  0  0  0  0
 13 17  1  0  0  0  0
 14 20  1  0  0  0  0
 17 14  1  0  0  0  0
 18 15  1  6  0  0  0
 18  9  1  0  0  0  0
 18 16  1  0  0  0  0
 18 12  1  0  0  0  0
 19  8  1  0  0  0  0
 21 22  1  6  0  0  0
 21 25  1  0  0  0  0
 23 24  1  0  0  0  0
 24 22  1  0  0  0  0
 26 28  1  0  0  0  0
 26 27  1  0  0  0  0
 27 25  1  0  0  0  0
 28 27  1  0  0  0  0
 30 32  1  0  0  0  0
 30 29  1  0  0  0  0
 31 37  1  0  0  0  0
 32 31  2  0  0  0  0
 33 36  2  0  0  0  0
 33 32  1  0  0  0  0
 34 36  1  0  0  0  0
 35 37  2  0  0  0  0
 36 35  1  0  0  0  0
M  END
>  <MODEL>
3

>  <REMARK>
 VINA RESULT:      -7.7      1.669      2.320
  Name = 
  9 active torsions:
  status: ('A' for Active; 'I' for Inactive)
    1  A    between atoms: C_1  and  C_33
    2  A    between atoms: N_4  and  C_10
    3  A    between atoms: O_5  and  C_23
    4  A    between atoms: O_5  and  C_33
    5  A    between atoms: C_6  and  C_31
    6  A    between atoms: C_14  and  C_37
    7  A    between atoms: O_17  and  C_26
    8  A    between atoms: O_17  and  C_33
    9  A    between atoms: C_31  and  C_37
                            x       y       z     vdW  Elec       q    Type
                         _______ _______ _______ _____ _____    ______ ____

>  <TORSDO>
F 9

$$$$
=
 OpenBabel10262422573D

 37 42  0  0  1  0  0  0  0  0999 V2000
  184.2860  178.8680  142.4740 C   0  0  1  0  0  3  0  0  0  0  0  0
  187.1030  179.0060  140.4040 O   0  0  0  0  0  1  0  0  0  0  0  0
  183.4300  178.3530  140.4520 C   0  0  1  0  0  3  0  0  0  0  0  0
  184.8130  178.6070  139.7960 C   0  0  1  0  0  3  0  0  0  0  0  0
  185.8740  178.5700  140.9030 C   0  0  2  0  0  3  0  0  0  0  0  0
  183.2510  179.1830  141.5750 O   0  0  0  0  0  0  0  0  0  0  0  0
  185.4980  179.3900  141.9830 O   0  0  0  0  0  0  0  0  0  0  0  0
  180.5950  180.9040  136.2860 C   0  0  0  0  0  2  0  0  0  0  0  0
  182.2600  178.4960  139.5550 N   0  0  1  0  0  0  0  0  0  0  0  0
  181.7630  178.8210  137.1790 C   0  0  1  0  0  3  0  0  0  0  0  0
  182.5380  179.3490  138.3980 C   0  0  1  0  0  3  0  0  0  0  0  0
  181.5110  177.3470  137.5040 C   0  0  2  0  0  3  0  0  0  0  0  0
  182.5750  180.8470  138.7160 C   0  0  0  0  0  2  0  0  0  0  0  0
  180.9210  182.4320  138.1300 O   0  0  0  0  0  0  0  0  0  0  0  0
  182.3920  175.8760  139.4650 C   0  0  0  0  0  1  0  0  0  0  0  0
  180.4000  177.1630  138.5490 C   0  0  0  0  0  2  0  0  0  0  0  0
  181.2160  181.4300  139.0620 C   0  0  0  0  0  2  0  0  0  0  0  0
  181.8410  177.2110  138.9770 C   0  0  1  0  0  0  0  0  0  0  0  0
  180.4300  179.5110  136.8640 C   0  0  0  0  0  2  0  0  0  0  0  0
  179.9640  181.8980  137.2560 C   0  0  0  0  0  2  0  0  0  0  0  0
  183.9810  179.4660  143.8410 C   0  0  1  0  0  3  0  0  0  0  0  0
  182.6260  179.7950  143.9220 O   0  0  0  0  0  0  0  0  0  0  0  0
  180.5510  178.6360  143.8910 C   0  0  0  0  0  1  0  0  0  0  0  0
  181.9970  178.6220  144.3410 C   0  0  0  0  0  2  0  0  0  0  0  0
  184.2930  178.5410  144.8410 O   0  0  0  0  0  0  0  0  0  0  0  0
  185.5230  178.6280  146.8680 C   0  0  0  0  0  2  0  0  0  0  0  0
  185.4840  179.0050  145.4020 C   0  0  0  0  0  3  0  0  0  0  0  0
  186.3120  177.8210  145.8620 C   0  0  0  0  0  2  0  0  0  0  0  0
  185.1200  177.5510  138.7470 C   0  0  0  0  0  2  0  0  0  0  0  0
  185.6980  178.2060  137.5080 C   0  0  0  0  0  2  0  0  0  0  0  0
  188.1290  178.6080  137.0850 C   0  0  0  0  0  3  0  0  0  0  0  0
  187.0770  177.7020  137.2690 C   0  0  0  0  0  0  0  0  0  0  0  0
  187.3190  176.3260  137.1890 C   0  0  0  0  0  3  0  0  0  0  0  0
  188.9200  174.1020  136.8400 S   0  0  0  0  0  1  0  0  0  0  0  0
  189.6630  176.7620  136.7610 C   0  0  0  0  0  3  0  0  0  0  0  0
  188.6120  175.8580  136.9380 C   0  0  0  0  0  0  0  0  0  0  0  0
  189.4210  178.1380  136.8340 C   0  0  0  0  0  3  0  0  0  0  0  0
  1 21  1  1  0  0  0
  3  6  1  1  0  0  0
  4 29  1  6  0  0  0
  4  3  1  0  0  0  0
  4  5  1  0  0  0  0
  5  2  1  6  0  0  0
  5  7  1  0  0  0  0
  6  1  1  0  0  0  0
  7  1  1  0  0  0  0
  8 19  1  0  0  0  0
  8 20  1  0  0  0  0
  9  3  1  6  0  0  0
 10 19  1  1  0  0  0
 10 12  1  0  0  0  0
 10 11  1  0  0  0  0
 11 13  1  1  0  0  0
 11  9  1  0  0  0  0
 12 16  1  1  0  0  0
 12 18  1  0  0  0  0
 13 17  1  0  0  0  0
 14 17  1  0  0  0  0
 16 18  1  0  0  0  0
 18 15  1  1  0  0  0
 18  9  1  0  0  0  0
 20 14  1  0  0  0  0
 21 22  1  6  0  0  0
 21 25  1  0  0  0  0
 22 24  1  0  0  0  0
 23 24  1  0  0  0  0
 25 27  1  0  0  0  0
 27 28  1  0  0  0  0
 27 26  1  0  0  0  0
 28 26  1  0  0  0  0
 30 29  1  0  0  0  0
 31 32  1  0  0  0  0
 32 30  1  0  0  0  0
 33 32  2  0  0  0  0
 34 36  1  0  0  0  0
 35 37  1  0  0  0  0
 35 36  2  0  0  0  0
 36 33  1  0  0  0  0
 37 31  2  0  0  0  0
M  END
>  <MODEL>
4

>  <REMARK>
 VINA RESULT:      -7.1      3.997      9.393
  Name = 
  9 active torsions:
  status: ('A' for Active; 'I' for Inactive)
    1  A    between atoms: C_1  and  C_33
    2  A    between atoms: N_4  and  C_10
    3  A    between atoms: O_5  and  C_23
    4  A    between atoms: O_5  and  C_33
    5  A    between atoms: C_6  and  C_31
    6  A    between atoms: C_14  and  C_37
    7  A    between atoms: O_17  and  C_26
    8  A    between atoms: O_17  and  C_33
    9  A    between atoms: C_31  and  C_37
                            x       y       z     vdW  Elec       q    Type
                         _______ _______ _______ _____ _____    ______ ____

>  <TORSDO>
F 9

$$$$
=
 OpenBabel10262422573D

 37 42  0  0  1  0  0  0  0  0999 V2000
  181.2260  180.6070  138.0930 C   0  0  1  0  0  3  0  0  0  0  0  0
  184.5070  180.1410  139.2140 O   0  0  0  0  0  1  0  0  0  0  0  0
  181.2010  178.4640  138.7950 C   0  0  1  0  0  3  0  0  0  0  0  0
  182.7230  178.5370  139.0900 C   0  0  1  0  0  3  0  0  0  0  0  0
  183.1170  180.0170  139.1670 C   0  0  2  0  0  3  0  0  0  0  0  0
  180.8620  179.3020  137.7160 O   0  0  0  0  0  0  0  0  0  0  0  0
  182.6280  180.7240  138.0520 O   0  0  0  0  0  0  0  0  0  0  0  0
  181.6600  173.1720  136.8760 C   0  0  0  0  0  2  0  0  0  0  0  0
  180.6620  177.1090  138.5410 N   0  0  1  0  0  0  0  0  0  0  0  0
  181.3050  174.7630  138.8370 C   0  0  1  0  0  3  0  0  0  0  0  0
  181.7130  176.1290  138.2580 C   0  0  1  0  0  3  0  0  0  0  0  0
  180.3010  175.1070  139.9400 C   0  0  2  0  0  3  0  0  0  0  0  0
  182.3130  176.2380  136.8530 C   0  0  0  0  0  2  0  0  0  0  0  0
  181.9320  174.7440  135.0600 O   0  0  0  0  0  0  0  0  0  0  0  0
  179.5960  177.4160  140.9200 C   0  0  0  0  0  1  0  0  0  0  0  0
  178.9310  175.5100  139.3750 C   0  0  0  0  0  2  0  0  0  0  0  0
  181.3580  175.8190  135.7480 C   0  0  0  0  0  2  0  0  0  0  0  0
  179.9510  176.5640  139.7060 C   0  0  1  0  0  0  0  0  0  0  0  0
  180.6680  173.7680  137.8580 C   0  0  0  0  0  2  0  0  0  0  0  0
  181.2450  173.5920  135.4700 C   0  0  0  0  0  2  0  0  0  0  0  0
  180.5960  181.6140  137.1390 C   0  0  1  0  0  3  0  0  0  0  0  0
  179.3710  181.1260  136.6770 O   0  0  0  0  0  0  0  0  0  0  0  0
  180.4580  180.7660  134.5950 C   0  0  0  0  0  1  0  0  0  0  0  0
  179.3350  181.4720  135.3260 C   0  0  0  0  0  2  0  0  0  0  0  0
  180.3900  182.8270  137.8030 O   0  0  0  0  0  0  0  0  0  0  0  0
  180.5610  185.1690  137.4590 C   0  0  0  0  0  2  0  0  0  0  0  0
  180.9670  183.7930  136.9750 C   0  0  0  0  0  3  0  0  0  0  0  0
  181.9350  184.6300  137.7860 C   0  0  0  0  0  2  0  0  0  0  0  0
  183.0570  177.8420  140.3990 C   0  0  0  0  0  2  0  0  0  0  0  0
  182.4850  178.6280  141.5620 C   0  0  0  0  0  2  0  0  0  0  0  0
  183.0130  179.0020  143.9770 C   0  0  0  0  0  3  0  0  0  0  0  0
  183.4390  178.6060  142.7030 C   0  0  0  0  0  0  0  0  0  0  0  0
  184.7700  178.2270  142.4990 C   0  0  0  0  0  3  0  0  0  0  0  0
  187.3680  177.7450  143.3070 S   0  0  0  0  0  1  0  0  0  0  0  0
  185.2430  178.6220  144.8410 C   0  0  0  0  0  3  0  0  0  0  0  0
  185.6700  178.2320  143.5680 C   0  0  0  0  0  0  0  0  0  0  0  0
  183.9140  179.0070  145.0450 C   0  0  0  0  0  3  0  0  0  0  0  0
  1 21  1  6  0  0  0
  3  6  1  6  0  0  0
  3  4  1  0  0  0  0
  4  5  1  0  0  0  0
  4 29  1  1  0  0  0
  5  2  1  6  0  0  0
  6  1  1  0  0  0  0
  7  1  1  0  0  0  0
  7  5  1  0  0  0  0
  8 19  1  0  0  0  0
  9  3  1  1  0  0  0
  9 18  1  0  0  0  0
 10 19  1  6  0  0  0
 10 12  1  0  0  0  0
 11 13  1  6  0  0  0
 11  9  1  0  0  0  0
 11 10  1  0  0  0  0
 12 16  1  6  0  0  0
 14 20  1  0  0  0  0
 14 17  1  0  0  0  0
 16 18  1  0  0  0  0
 17 13  1  0  0  0  0
 18 12  1  0  0  0  0
 18 15  1  1  0  0  0
 20  8  1  0  0  0  0
 21 22  1  1  0  0  0
 21 25  1  0  0  0  0
 23 24  1  0  0  0  0
 24 22  1  0  0  0  0
 26 28  1  0  0  0  0
 27 26  1  0  0  0  0
 27 28  1  0  0  0  0
 27 25  1  0  0  0  0
 29 30  1  0  0  0  0
 30 32  1  0  0  0  0
 31 37  1  0  0  0  0
 32 31  2  0  0  0  0
 33 32  1  0  0  0  0
 33 36  2  0  0  0  0
 34 36  1  0  0  0  0
 35 37  2  0  0  0  0
 36 35  1  0  0  0  0
M  END
>  <MODEL>
5

>  <REMARK>
 VINA RESULT:      -7.0      5.843     10.046
  Name = 
  9 active torsions:
  status: ('A' for Active; 'I' for Inactive)
    1  A    between atoms: C_1  and  C_33
    2  A    between atoms: N_4  and  C_10
    3  A    between atoms: O_5  and  C_23
    4  A    between atoms: O_5  and  C_33
    5  A    between atoms: C_6  and  C_31
    6  A    between atoms: C_14  and  C_37
    7  A    between atoms: O_17  and  C_26
    8  A    between atoms: O_17  and  C_33
    9  A    between atoms: C_31  and  C_37
                            x       y       z     vdW  Elec       q    Type
                         _______ _______ _______ _____ _____    ______ ____

>  <TORSDO>
F 9

$$$$
=
 OpenBabel10262422573D

 37 42  0  0  1  0  0  0  0  0999 V2000
  184.3500  177.0390  137.9050 C   0  0  1  0  0  3  0  0  0  0  0  0
  182.7830  179.5460  139.7760 O   0  0  0  0  0  1  0  0  0  0  0  0
  186.0590  177.8940  139.1010 C   0  0  1  0  0  3  0  0  0  0  0  0
  185.1160  178.9800  139.6840 C   0  0  1  0  0  3  0  0  0  0  0  0
  183.6710  178.5130  139.4680 C   0  0  2  0  0  3  0  0  0  0  0  0
  185.6610  177.5350  137.8000 O   0  0  0  0  0  0  0  0  0  0  0  0
  183.4680  178.1130  138.1340 O   0  0  0  0  0  0  0  0  0  0  0  0
  191.4060  177.1210  140.7500 C   0  0  0  0  0  2  0  0  0  0  0  0
  187.5000  178.2370  139.0890 N   0  0  1  0  0  0  0  0  0  0  0  0
  189.6760  177.1330  138.8760 C   0  0  1  0  0  3  0  0  0  0  0  0
  188.3390  177.1680  139.6340 C   0  0  1  0  0  3  0  0  0  0  0  0
  189.3640  177.7960  137.5320 C   0  0  2  0  0  3  0  0  0  0  0  0
  188.2990  177.0550  141.1610 C   0  0  0  0  0  2  0  0  0  0  0  0
  190.0230  177.6960  142.6470 O   0  0  0  0  0  0  0  0  0  0  0  0
  187.0900  178.5620  136.5160 C   0  0  0  0  0  1  0  0  0  0  0  0
  189.2340  179.3220  137.6520 C   0  0  0  0  0  2  0  0  0  0  0  0
  188.9750  178.2130  141.8760 C   0  0  0  0  0  2  0  0  0  0  0  0
  188.0100  178.4500  137.7270 C   0  0  1  0  0  0  0  0  0  0  0  0
  190.8570  177.8530  139.5400 C   0  0  0  0  0  2  0  0  0  0  0  0
  191.2110  178.0120  141.9720 C   0  0  0  0  0  2  0  0  0  0  0  0
  183.9650  176.3220  136.6180 C   0  0  1  0  0  3  0  0  0  0  0  0
  184.1180  177.1850  135.5300 O   0  0  0  0  0  0  0  0  0  0  0  0
  181.9180  177.8730  134.9490 C   0  0  0  0  0  1  0  0  0  0  0  0
  183.0440  176.8940  134.6880 C   0  0  0  0  0  2  0  0  0  0  0  0
  184.7840  175.2030  136.4380 O   0  0  0  0  0  0  0  0  0  0  0  0
  184.2000  172.9270  136.7720 C   0  0  0  0  0  2  0  0  0  0  0  0
  184.3660  174.2910  137.4090 C   0  0  0  0  0  3  0  0  0  0  0  0
  185.4340  173.2320  137.5910 C   0  0  0  0  0  2  0  0  0  0  0  0
  185.3770  179.1890  141.1660 C   0  0  0  0  0  2  0  0  0  0  0  0
  184.5620  178.2040  141.9790 C   0  0  0  0  0  2  0  0  0  0  0  0
  184.0120  178.8700  144.3250 C   0  0  0  0  0  3  0  0  0  0  0  0
  184.9230  178.3160  143.4180 C   0  0  0  0  0  0  0  0  0  0  0  0
  186.1850  177.9050  143.8590 C   0  0  0  0  0  3  0  0  0  0  0  0
  188.1410  177.5080  145.7710 S   0  0  0  0  0  1  0  0  0  0  0  0
  185.6190  178.5840  146.1140 C   0  0  0  0  0  3  0  0  0  0  0  0
  186.5310  178.0360  145.2070 C   0  0  0  0  0  0  0  0  0  0  0  0
  184.3590  179.0010  145.6730 C   0  0  0  0  0  3  0  0  0  0  0  0
  1 21  1  6  0  0  0
  1  7  1  0  0  0  0
  3  6  1  6  0  0  0
  3  4  1  0  0  0  0
  4 29  1  1  0  0  0
  5  4  1  0  0  0  0
  5  2  1  6  0  0  0
  6  1  1  0  0  0  0
  7  5  1  0  0  0  0
  8 20  1  0  0  0  0
  9  3  1  6  0  0  0
  9 11  1  0  0  0  0
 10 19  1  1  0  0  0
 10 11  1  0  0  0  0
 11 13  1  1  0  0  0
 12 16  1  1  0  0  0
 12 18  1  0  0  0  0
 12 10  1  0  0  0  0
 13 17  1  0  0  0  0
 16 18  1  0  0  0  0
 17 14  1  0  0  0  0
 18 15  1  6  0  0  0
 18  9  1  0  0  0  0
 19  8  1  0  0  0  0
 20 14  1  0  0  0  0
 21 22  1  6  0  0  0
 24 23  1  0  0  0  0
 24 22  1  0  0  0  0
 25 21  1  0  0  0  0
 25 27  1  0  0  0  0
 26 27  1  0  0  0  0
 26 28  1  0  0  0  0
 27 28  1  0  0  0  0
 29 30  1  0  0  0  0
 30 32  1  0  0  0  0
 31 37  1  0  0  0  0
 32 33  1  0  0  0  0
 32 31  2  0  0  0  0
 33 36  2  0  0  0  0
 36 34  1  0  0  0  0
 36 35  1  0  0  0  0
 37 35  2  0  0  0  0
M  END
>  <MODEL>
6

>  <REMARK>
 VINA RESULT:      -7.0      3.063      5.733
  Name = 
  9 active torsions:
  status: ('A' for Active; 'I' for Inactive)
    1  A    between atoms: C_1  and  C_33
    2  A    between atoms: N_4  and  C_10
    3  A    between atoms: O_5  and  C_23
    4  A    between atoms: O_5  and  C_33
    5  A    between atoms: C_6  and  C_31
    6  A    between atoms: C_14  and  C_37
    7  A    between atoms: O_17  and  C_26
    8  A    between atoms: O_17  and  C_33
    9  A    between atoms: C_31  and  C_37
                            x       y       z     vdW  Elec       q    Type
                         _______ _______ _______ _____ _____    ______ ____

>  <TORSDO>
F 9

$$$$
=
 OpenBabel10262422573D

 37 42  0  0  1  0  0  0  0  0999 V2000
  183.5050  178.4160  142.5830 C   0  0  1  0  0  3  0  0  0  0  0  0
  186.5710  179.3220  141.1640 O   0  0  0  0  0  1  0  0  0  0  0  0
  183.1390  178.0860  140.3830 C   0  0  1  0  0  3  0  0  0  0  0  0
  184.5450  178.6580  140.0580 C   0  0  1  0  0  3  0  0  0  0  0  0
  185.3770  178.6220  141.3460 C   0  0  2  0  0  3  0  0  0  0  0  0
  182.6080  178.6940  141.5360 O   0  0  0  0  0  0  0  0  0  0  0  0
  184.6650  179.1950  142.4170 O   0  0  0  0  0  0  0  0  0  0  0  0
  180.7740  180.6870  135.9610 C   0  0  0  0  0  2  0  0  0  0  0  0
  182.1440  178.1740  139.2890 N   0  0  1  0  0  0  0  0  0  0  0  0
  182.0480  178.6850  136.8960 C   0  0  1  0  0  3  0  0  0  0  0  0
  182.5020  179.1730  138.2810 C   0  0  1  0  0  3  0  0  0  0  0  0
  181.9550  177.1640  137.0450 C   0  0  2  0  0  3  0  0  0  0  0  0
  182.2650  180.6220  138.7180 C   0  0  0  0  0  2  0  0  0  0  0  0
  180.5350  182.0390  137.9500 O   0  0  0  0  0  0  0  0  0  0  0  0
  182.6660  175.6160  139.0170 C   0  0  0  0  0  1  0  0  0  0  0  0
  180.7100  176.7320  137.8350 C   0  0  0  0  0  2  0  0  0  0  0  0
  180.7960  180.9890  138.8390 C   0  0  0  0  0  2  0  0  0  0  0  0
  182.0270  176.9160  138.5390 C   0  0  1  0  0  0  0  0  0  0  0  0
  180.7090  179.2310  136.3830 C   0  0  0  0  0  2  0  0  0  0  0  0
  179.8410  181.4840  136.8660 C   0  0  0  0  0  2  0  0  0  0  0  0
  182.8520  178.7400  143.9200 C   0  0  1  0  0  3  0  0  0  0  0  0
  183.6870  179.5780  144.6640 O   0  0  0  0  0  0  0  0  0  0  0  0
  185.6600  178.9860  145.8490 C   0  0  0  0  0  1  0  0  0  0  0  0
  184.1670  178.7760  145.7000 C   0  0  0  0  0  2  0  0  0  0  0  0
  181.6270  179.3800  143.7050 O   0  0  0  0  0  0  0  0  0  0  0  0
  179.3670  179.0310  144.3350 C   0  0  0  0  0  2  0  0  0  0  0  0
  180.6640  178.3870  143.8920 C   0  0  0  0  0  3  0  0  0  0  0  0
  179.5390  178.5910  142.8980 C   0  0  0  0  0  2  0  0  0  0  0  0
  185.2290  177.8380  138.9760 C   0  0  0  0  0  2  0  0  0  0  0  0
  185.8750  178.7600  137.9610 C   0  0  0  0  0  2  0  0  0  0  0  0
  187.6330  178.1760  136.2820 C   0  0  0  0  0  3  0  0  0  0  0  0
  187.2350  178.2620  137.6220 C   0  0  0  0  0  0  0  0  0  0  0  0
  188.1030  177.8430  138.6360 C   0  0  0  0  0  3  0  0  0  0  0  0
  190.4790  176.8210  139.6080 S   0  0  0  0  0  1  0  0  0  0  0  0
  189.7700  177.2720  136.9750 C   0  0  0  0  0  3  0  0  0  0  0  0
  189.3710  177.3520  138.3120 C   0  0  0  0  0  0  0  0  0  0  0  0
  188.9010  177.6840  135.9600 C   0  0  0  0  0  3  0  0  0  0  0  0
  1 21  1  1  0  0  0
  3  6  1  1  0  0  0
  4 29  1  6  0  0  0
  4  3  1  0  0  0  0
  4  5  1  0  0  0  0
  5  2  1  6  0  0  0
  5  7  1  0  0  0  0
  6  1  1  0  0  0  0
  7  1  1  0  0  0  0
  8 19  1  0  0  0  0
  8 20  1  0  0  0  0
  9  3  1  1  0  0  0
 10 19  1  1  0  0  0
 10 12  1  0  0  0  0
 10 11  1  0  0  0  0
 11 13  1  1  0  0  0
 11  9  1  0  0  0  0
 12 16  1  1  0  0  0
 12 18  1  0  0  0  0
 13 17  1  0  0  0  0
 14 17  1  0  0  0  0
 16 18  1  0  0  0  0
 18 15  1  1  0  0  0
 18  9  1  0  0  0  0
 20 14  1  0  0  0  0
 21 25  1  6  0  0  0
 21 22  1  0  0  0  0
 22 24  1  0  0  0  0
 24 23  1  0  0  0  0
 25 27  1  0  0  0  0
 27 26  1  0  0  0  0
 28 27  1  0  0  0  0
 28 26  1  0  0  0  0
 30 29  1  0  0  0  0
 31 32  1  0  0  0  0
 32 30  1  0  0  0  0
 32 33  2  0  0  0  0
 35 36  2  0  0  0  0
 36 33  1  0  0  0  0
 36 34  1  0  0  0  0
 37 31  2  0  0  0  0
 37 35  1  0  0  0  0
M  END
>  <MODEL>
7

>  <REMARK>
 VINA RESULT:      -7.0      4.137      9.793
  Name = 
  9 active torsions:
  status: ('A' for Active; 'I' for Inactive)
    1  A    between atoms: C_1  and  C_33
    2  A    between atoms: N_4  and  C_10
    3  A    between atoms: O_5  and  C_23
    4  A    between atoms: O_5  and  C_33
    5  A    between atoms: C_6  and  C_31
    6  A    between atoms: C_14  and  C_37
    7  A    between atoms: O_17  and  C_26
    8  A    between atoms: O_17  and  C_33
    9  A    between atoms: C_31  and  C_37
                            x       y       z     vdW  Elec       q    Type
                         _______ _______ _______ _____ _____    ______ ____

>  <TORSDO>
F 9

$$$$
=
 OpenBabel10262422573D

 37 42  0  0  1  0  0  0  0  0999 V2000
  184.5770  178.4630  139.7590 C   0  0  1  0  0  3  0  0  0  0  0  0
  185.2800  179.8450  142.8950 O   0  0  0  0  0  1  0  0  0  0  0  0
  186.8130  178.2130  139.9110 C   0  0  1  0  0  3  0  0  0  0  0  0
  186.8130  178.9830  141.2590 C   0  0  1  0  0  3  0  0  0  0  0  0
  185.3780  178.9850  141.8000 C   0  0  2  0  0  3  0  0  0  0  0  0
  185.7840  178.6800  139.0710 O   0  0  0  0  0  0  0  0  0  0  0  0
  184.4690  179.3970  140.8070 O   0  0  0  0  0  0  0  0  0  0  0  0
  192.0090  176.2790  138.8310 C   0  0  0  0  0  2  0  0  0  0  0  0
  188.0920  178.2310  139.1640 N   0  0  1  0  0  0  0  0  0  0  0  0
  189.6160  176.6760  138.0430 C   0  0  1  0  0  3  0  0  0  0  0  0
  188.8670  177.0030  139.3460 C   0  0  1  0  0  3  0  0  0  0  0  0
  188.8110  177.3930  136.9570 C   0  0  2  0  0  3  0  0  0  0  0  0
  189.5710  176.8980  140.7020 C   0  0  0  0  0  2  0  0  0  0  0  0
  191.8920  177.1420  141.0860 O   0  0  0  0  0  0  0  0  0  0  0  0
  186.5290  178.6430  137.0960 C   0  0  0  0  0  1  0  0  0  0  0  0
  189.0540  178.9100  136.9590 C   0  0  0  0  0  2  0  0  0  0  0  0
  190.7210  177.8770  140.8700 C   0  0  0  0  0  2  0  0  0  0  0  0
  187.8880  178.3300  137.7120 C   0  0  1  0  0  0  0  0  0  0  0  0
  191.0830  177.1170  137.9680 C   0  0  0  0  0  2  0  0  0  0  0  0
  192.6220  177.1890  139.8900 C   0  0  0  0  0  2  0  0  0  0  0  0
  183.4030  178.6220  138.8020 C   0  0  1  0  0  3  0  0  0  0  0  0
  182.9180  177.3640  138.4350 O   0  0  0  0  0  0  0  0  0  0  0  0
  181.5230  175.7460  139.4760 C   0  0  0  0  0  1  0  0  0  0  0  0
  182.6840  176.7040  139.6420 C   0  0  0  0  0  2  0  0  0  0  0  0
  182.3820  179.3470  139.4240 O   0  0  0  0  0  0  0  0  0  0  0  0
  180.2990  179.7950  138.3800 C   0  0  0  0  0  2  0  0  0  0  0  0
  181.7860  180.0820  138.3980 C   0  0  0  0  0  3  0  0  0  0  0  0
  180.8130  181.0760  138.9980 C   0  0  0  0  0  2  0  0  0  0  0  0
  187.7440  178.3230  142.2620 C   0  0  0  0  0  2  0  0  0  0  0  0
  186.9480  177.4470  143.2090 C   0  0  0  0  0  2  0  0  0  0  0  0
  186.8610  177.7290  145.6910 C   0  0  0  0  0  3  0  0  0  0  0  0
  187.6030  177.4220  144.5440 C   0  0  0  0  0  0  0  0  0  0  0  0
  188.9670  177.1290  144.6520 C   0  0  0  0  0  3  0  0  0  0  0  0
  191.3250  176.7550  146.0430 S   0  0  0  0  0  1  0  0  0  0  0  0
  188.8430  177.4320  147.0520 C   0  0  0  0  0  3  0  0  0  0  0  0
  189.5850  177.1320  145.9060 C   0  0  0  0  0  0  0  0  0  0  0  0
  187.4800  177.7310  146.9440 C   0  0  0  0  0  3  0  0  0  0  0  0
  1 21  1  6  0  0  0
  1  7  1  0  0  0  0
  3  6  1  6  0  0  0
  3  4  1  0  0  0  0
  4  5  1  0  0  0  0
  4 29  1  1  0  0  0
  5  2  1  1  0  0  0
  6  1  1  0  0  0  0
  7  5  1  0  0  0  0
  8 20  1  0  0  0  0
  9 11  1  0  0  0  0
  9  3  1  1  0  0  0
 10 19  1  1  0  0  0
 10 11  1  0  0  0  0
 11 13  1  1  0  0  0
 12 16  1  6  0  0  0
 12 18  1  0  0  0  0
 12 10  1  0  0  0  0
 13 17  1  0  0  0  0
 16 18  1  0  0  0  0
 17 14  1  0  0  0  0
 18 15  1  6  0  0  0
 18  9  1  0  0  0  0
 19  8  1  0  0  0  0
 20 14  1  0  0  0  0
 21 22  1  1  0  0  0
 21 25  1  0  0  0  0
 22 24  1  0  0  0  0
 23 24  1  0  0  0  0
 26 27  1  0  0  0  0
 26 28  1  0  0  0  0
 27 28  1  0  0  0  0
 27 25  1  0  0  0  0
 29 30  1  0  0  0  0
 30 32  1  0  0  0  0
 31 37  1  0  0  0  0
 32 33  1  0  0  0  0
 32 31  2  0  0  0  0
 33 36  2  0  0  0  0
 36 34  1  0  0  0  0
 36 35  1  0  0  0  0
 37 35  2  0  0  0  0
M  END
>  <MODEL>
8

>  <REMARK>
 VINA RESULT:      -6.9      2.731      7.256
  Name = 
  9 active torsions:
  status: ('A' for Active; 'I' for Inactive)
    1  A    between atoms: C_1  and  C_33
    2  A    between atoms: N_4  and  C_10
    3  A    between atoms: O_5  and  C_23
    4  A    between atoms: O_5  and  C_33
    5  A    between atoms: C_6  and  C_31
    6  A    between atoms: C_14  and  C_37
    7  A    between atoms: O_17  and  C_26
    8  A    between atoms: O_17  and  C_33
    9  A    between atoms: C_31  and  C_37
                            x       y       z     vdW  Elec       q    Type
                         _______ _______ _______ _____ _____    ______ ____

>  <TORSDO>
F 9

$$$$
=
 OpenBabel10262422573D

 37 42  0  0  1  0  0  0  0  0999 V2000
  183.5570  178.6210  142.3170 C   0  0  1  0  0  3  0  0  0  0  0  0
  180.4040  180.1190  142.5390 O   0  0  0  0  0  1  0  0  0  0  0  0
  182.6170  178.0700  140.3430 C   0  0  1  0  0  3  0  0  0  0  0  0
  181.2850  178.7320  140.7870 C   0  0  1  0  0  3  0  0  0  0  0  0
  181.5920  179.6660  141.9640 C   0  0  2  0  0  3  0  0  0  0  0  0
  183.3040  177.5420  141.4520 O   0  0  0  0  0  0  0  0  0  0  0  0
  182.3560  179.0030  142.9420 O   0  0  0  0  0  0  0  0  0  0  0  0
  179.6100  174.5240  137.1350 C   0  0  0  0  0  2  0  0  0  0  0  0
  182.4950  177.0200  139.3060 N   0  0  1  0  0  0  0  0  0  0  0  0
  181.1790  176.5270  137.3000 C   0  0  1  0  0  3  0  0  0  0  0  0
  181.1300  176.8900  138.7930 C   0  0  1  0  0  3  0  0  0  0  0  0
  182.5530  177.0200  136.8380 C   0  0  2  0  0  3  0  0  0  0  0  0
  180.1670  176.1710  139.7430 C   0  0  0  0  0  2  0  0  0  0  0  0
  179.3270  173.9780  139.4730 O   0  0  0  0  0  0  0  0  0  0  0  0
  184.3500  178.4280  138.0940 C   0  0  0  0  0  1  0  0  0  0  0  0
  183.6900  176.1000  137.3110 C   0  0  0  0  0  2  0  0  0  0  0  0
  180.4560  174.6880  139.8970 C   0  0  0  0  0  2  0  0  0  0  0  0
  183.3110  177.3120  138.1180 C   0  0  1  0  0  0  0  0  0  0  0  0
  181.0250  175.0410  136.9500 C   0  0  0  0  0  2  0  0  0  0  0  0
  179.6380  173.4450  138.2140 C   0  0  0  0  0  2  0  0  0  0  0  0
  184.5800  178.2110  143.3680 C   0  0  1  0  0  3  0  0  0  0  0  0
  185.7840  177.8660  142.7490 O   0  0  0  0  0  0  0  0  0  0  0  0
  187.0800  178.6280  140.9090 C   0  0  0  0  0  1  0  0  0  0  0  0
  186.1720  179.0140  142.0570 C   0  0  0  0  0  2  0  0  0  0  0  0
  184.8010  179.2720  144.2510 O   0  0  0  0  0  0  0  0  0  0  0  0
  185.9770  178.0060  145.8790 C   0  0  0  0  0  2  0  0  0  0  0  0
  184.6840  178.7110  145.5250 C   0  0  0  0  0  3  0  0  0  0  0  0
  185.6810  179.3730  146.4540 C   0  0  0  0  0  2  0  0  0  0  0  0
  180.6630  179.5210  139.6470 C   0  0  0  0  0  2  0  0  0  0  0  0
  181.6230  180.5980  139.1800 C   0  0  0  0  0  2  0  0  0  0  0  0
  180.8070  180.2430  136.8440 C   0  0  0  0  0  3  0  0  0  0  0  0
  181.1830  181.1280  137.8620 C   0  0  0  0  0  0  0  0  0  0  0  0
  181.1810  182.5070  137.6240 C   0  0  0  0  0  3  0  0  0  0  0  0
  180.7870  184.7590  136.0720 S   0  0  0  0  0  1  0  0  0  0  0  0
  180.4110  182.1160  135.3610 C   0  0  0  0  0  3  0  0  0  0  0  0
  180.7920  182.9990  136.3750 C   0  0  0  0  0  0  0  0  0  0  0  0
  180.4180  180.7370  135.5960 C   0  0  0  0  0  3  0  0  0  0  0  0
  1  7  1  0  0  0  0
  1 21  1  1  0  0  0
  3  4  1  0  0  0  0
  3  6  1  1  0  0  0
  4 29  1  6  0  0  0
  4  5  1  0  0  0  0
  5  2  1  1  0  0  0
  5  7  1  0  0  0  0
  6  1  1  0  0  0  0
  8 20  1  0  0  0  0
  9  3  1  1  0  0  0
 10 19  1  1  0  0  0
 10 11  1  0  0  0  0
 11  9  1  0  0  0  0
 11 13  1  1  0  0  0
 12 10  1  0  0  0  0
 12 16  1  1  0  0  0
 12 18  1  0  0  0  0
 13 17  1  0  0  0  0
 14 17  1  0  0  0  0
 16 18  1  0  0  0  0
 18 15  1  1  0  0  0
 18  9  1  0  0  0  0
 19  8  1  0  0  0  0
 20 14  1  0  0  0  0
 21 22  1  6  0  0  0
 21 25  1  0  0  0  0
 23 24  1  0  0  0  0
 24 22  1  0  0  0  0
 25 27  1  0  0  0  0
 26 28  1  0  0  0  0
 27 26  1  0  0  0  0
 27 28  1  0  0  0  0
 30 29  1  0  0  0  0
 31 32  1  0  0  0  0
 32 30  1  0  0  0  0
 33 32  2  0  0  0  0
 34 36  1  0  0  0  0
 35 37  1  0  0  0  0
 35 36  2  0  0  0  0
 36 33  1  0  0  0  0
 37 31  2  0  0  0  0
M  END
>  <MODEL>
9

>  <REMARK>
 VINA RESULT:      -6.8      4.956      9.137
  Name = 
  9 active torsions:
  status: ('A' for Active; 'I' for Inactive)
    1  A    between atoms: C_1  and  C_33
    2  A    between atoms: N_4  and  C_10
    3  A    between atoms: O_5  and  C_23
    4  A    between atoms: O_5  and  C_33
    5  A    between atoms: C_6  and  C_31
    6  A    between atoms: C_14  and  C_37
    7  A    between atoms: O_17  and  C_26
    8  A    between atoms: O_17  and  C_33
    9  A    between atoms: C_31  and  C_37
                            x       y       z     vdW  Elec       q    Type
                         _______ _______ _______ _____ _____    ______ ____

>  <TORSDO>
F 9

$$$$
