=
 OpenBabel10262420123D

 27 30  0  0  1  0  0  0  0  0999 V2000
  187.9230  178.7510  141.5410 C   0  0  0  0  0  2  0  0  0  0  0  0
  188.5020  177.8020  143.8280 C   0  0  2  0  0  3  0  0  0  0  0  0
  189.9680  176.5540  142.2980 C   0  0  0  0  0  2  0  0  0  0  0  0
  190.3540  176.8420  138.5520 C   0  0  0  0  0  3  0  0  0  0  0  0
  189.3830  177.7810  138.2060 C   0  0  0  0  0  0  0  0  0  0  0  0
  187.4480  177.8730  142.6890 C   0  0  1  0  0  3  0  0  0  0  0  0
  188.7530  178.0070  140.5410 C   0  0  0  0  0  0  0  0  0  0  0  0
  189.8820  177.5610  143.3710 N   0  0  1  0  0  0  0  0  0  0  0  0
  190.5320  176.4860  139.8900 C   0  0  0  0  0  3  0  0  0  0  0  0
  189.1610  178.2350  136.5310 Cl  0  0  0  0  0  0  0  0  0  0  0  0
  188.5920  178.3650  139.1980 C   0  0  0  0  0  3  0  0  0  0  0  0
  189.7540  177.0690  140.8960 C   0  0  0  0  0  0  0  0  0  0  0  0
  184.7630  179.5420  144.8140 C   0  0  0  0  0  3  0  0  0  0  0  0
  186.1240  178.3810  143.1720 C   0  0  0  0  0  0  0  0  0  0  0  0
  184.9890  178.1850  142.3780 C   0  0  0  0  0  3  0  0  0  0  0  0
  183.7440  178.6590  142.8020 C   0  0  0  0  0  3  0  0  0  0  0  0
  183.6310  179.3350  144.0210 C   0  0  0  0  0  3  0  0  0  0  0  0
  186.0080  179.0680  144.3910 C   0  0  0  0  0  3  0  0  0  0  0  0
  190.8140  179.6000  144.3280 C   0  0  0  0  0  2  0  0  0  0  0  0
  191.9450  178.8200  143.6970 C   0  0  0  0  0  2  0  0  0  0  0  0
  190.5690  178.8130  143.0530 C   0  0  0  0  0  3  0  0  0  0  0  0
  188.1650  176.8050  144.9510 C   0  0  2  0  0  3  0  0  0  0  0  0
  186.6860  176.4420  145.0260 C   0  0  0  0  0  1  0  0  0  0  0  0
  189.8850  176.7840  146.6220 O   0  0  0  0  0  0  0  0  0  0  0  0
  188.7440  177.1970  146.2830 C   0  0  0  0  0  0  0  0  0  0  0  0
  188.1490  177.8710  148.5830 C   0  0  0  0  0  1  0  0  0  0  0  0
  188.0280  178.0000  147.1740 O   0  0  0  0  0  0  0  0  0  0  0  0
  1  6  1  0  0  0  0
  2 22  1  1  0  0  0
  3  8  1  0  0  0  0
  4  9  1  0  0  0  0
  5  4  2  0  0  0  0
  5 11  1  0  0  0  0
  6 14  1  1  0  0  0
  6  2  1  0  0  0  0
  7 12  1  0  0  0  0
  7  1  1  0  0  0  0
  8 21  1  6  0  0  0
  8  2  1  0  0  0  0
  9 12  2  0  0  0  0
 10  5  1  0  0  0  0
 11  7  2  0  0  0  0
 12  3  1  0  0  0  0
 14 18  2  0  0  0  0
 15 16  2  0  0  0  0
 15 14  1  0  0  0  0
 16 17  1  0  0  0  0
 17 13  2  0  0  0  0
 18 13  1  0  0  0  0
 20 19  1  0  0  0  0
 21 20  1  0  0  0  0
 21 19  1  0  0  0  0
 22 23  1  1  0  0  0
 22 25  1  0  0  0  0
 25 24  2  0  0  0  0
 25 27  1  0  0  0  0
 27 26  1  0  0  0  0
M  END
>  <MODEL>
1

>  <REMARK>
 VINA RESULT:      -7.4      0.000      0.000
  Name = 
  5 active torsions:
  status: ('A' for Active; 'I' for Inactive)
    1  A    between atoms: C_2  and  C_6
    2  A    between atoms: C_6  and  C_17
    3  A    between atoms: C_9  and  C_15
    4  A    between atoms: C_14  and  N_19
    5  A    between atoms: O_16  and  C_17
                            x       y       z     vdW  Elec       q    Type
                         _______ _______ _______ _____ _____    ______ ____

>  <TORSDO>
F 5

$$$$
=
 OpenBabel10262420123D

 27 30  0  0  1  0  0  0  0  0999 V2000
  182.8240  180.0100  139.3220 C   0  0  0  0  0  2  0  0  0  0  0  0
  182.0710  177.5820  139.3520 C   0  0  2  0  0  3  0  0  0  0  0  0
  180.3840  178.6900  137.9480 C   0  0  0  0  0  2  0  0  0  0  0  0
  180.1270  182.3040  136.8830 C   0  0  0  0  0  3  0  0  0  0  0  0
  181.1860  182.9090  137.5600 C   0  0  0  0  0  0  0  0  0  0  0  0
  182.2030  178.9020  140.1590 C   0  0  1  0  0  3  0  0  0  0  0  0
  181.8160  180.7660  138.5130 C   0  0  0  0  0  0  0  0  0  0  0  0
  181.5140  177.7440  137.9980 N   0  0  1  0  0  0  0  0  0  0  0  0
  179.9110  180.9310  137.0130 C   0  0  0  0  0  3  0  0  0  0  0  0
  181.4620  184.6290  137.3950 Cl  0  0  0  0  0  0  0  0  0  0  0  0
  182.0280  182.1410  138.3650 C   0  0  0  0  0  3  0  0  0  0  0  0
  180.7540  180.1470  137.8080 C   0  0  0  0  0  0  0  0  0  0  0  0
  185.0990  178.1970  142.5310 C   0  0  0  0  0  3  0  0  0  0  0  0
  183.0120  178.7260  141.4070 C   0  0  0  0  0  0  0  0  0  0  0  0
  182.4140  178.9720  142.6480 C   0  0  0  0  0  3  0  0  0  0  0  0
  183.1510  178.8250  143.8260 C   0  0  0  0  0  3  0  0  0  0  0  0
  184.4930  178.4350  143.7680 C   0  0  0  0  0  3  0  0  0  0  0  0
  184.3620  178.3430  141.3520 C   0  0  0  0  0  3  0  0  0  0  0  0
  183.7290  177.0860  137.2230 C   0  0  0  0  0  2  0  0  0  0  0  0
  182.7480  176.8360  136.1010 C   0  0  0  0  0  2  0  0  0  0  0  0
  182.5620  178.0330  137.0170 C   0  0  0  0  0  3  0  0  0  0  0  0
  181.3050  176.4620  140.0780 C   0  0  2  0  0  3  0  0  0  0  0  0
  181.3870  175.1090  139.3780 C   0  0  0  0  0  1  0  0  0  0  0  0
  178.9310  176.4670  139.7420 O   0  0  0  0  0  0  0  0  0  0  0  0
  179.9000  176.8500  140.4490 C   0  0  0  0  0  0  0  0  0  0  0  0
  178.9370  178.8820  141.4680 C   0  0  0  0  0  1  0  0  0  0  0  0
  179.6430  177.6540  141.5620 O   0  0  0  0  0  0  0  0  0  0  0  0
  1  6  1  0  0  0  0
  2 22  1  1  0  0  0
  2  6  1  0  0  0  0
  3  8  1  0  0  0  0
  4  9  2  0  0  0  0
  4  5  1  0  0  0  0
  5 11  2  0  0  0  0
  6 14  1  1  0  0  0
  7  1  1  0  0  0  0
  8 21  1  6  0  0  0
  8  2  1  0  0  0  0
  9 12  1  0  0  0  0
 10  5  1  0  0  0  0
 11  7  1  0  0  0  0
 12  3  1  0  0  0  0
 12  7  2  0  0  0  0
 13 17  1  0  0  0  0
 14 15  2  0  0  0  0
 15 16  1  0  0  0  0
 17 16  2  0  0  0  0
 18 14  1  0  0  0  0
 18 13  2  0  0  0  0
 20 21  1  0  0  0  0
 20 19  1  0  0  0  0
 21 19  1  0  0  0  0
 22 23  1  6  0  0  0
 22 25  1  0  0  0  0
 24 25  2  0  0  0  0
 25 27  1  0  0  0  0
 26 27  1  0  0  0  0
M  END
>  <MODEL>
2

>  <REMARK>
 VINA RESULT:      -6.7      6.073      8.782
  Name = 
  5 active torsions:
  status: ('A' for Active; 'I' for Inactive)
    1  A    between atoms: C_2  and  C_6
    2  A    between atoms: C_6  and  C_17
    3  A    between atoms: C_9  and  C_15
    4  A    between atoms: C_14  and  N_19
    5  A    between atoms: O_16  and  C_17
                            x       y       z     vdW  Elec       q    Type
                         _______ _______ _______ _____ _____    ______ ____

>  <TORSDO>
F 5

$$$$
=
 OpenBabel10262420123D

 27 30  0  0  1  0  0  0  0  0999 V2000
  183.5150  178.2860  140.1920 C   0  0  0  0  0  2  0  0  0  0  0  0
  181.3310  178.0620  138.9100 C   0  0  2  0  0  3  0  0  0  0  0  0
  180.6020  178.4250  141.2300 C   0  0  0  0  0  2  0  0  0  0  0  0
  182.6600  179.0030  144.3440 C   0  0  0  0  0  3  0  0  0  0  0  0
  183.9710  178.8700  143.8860 C   0  0  0  0  0  0  0  0  0  0  0  0
  182.5830  177.3290  139.4650 C   0  0  1  0  0  3  0  0  0  0  0  0
  183.1540  178.4710  141.6330 C   0  0  0  0  0  0  0  0  0  0  0  0
  180.6830  178.9780  139.8660 N   0  0  1  0  0  0  0  0  0  0  0  0
  181.5940  178.8760  143.4510 C   0  0  0  0  0  3  0  0  0  0  0  0
  185.3090  179.0340  145.0010 Cl  0  0  0  0  0  0  0  0  0  0  0  0
  184.2140  178.6120  142.5360 C   0  0  0  0  0  3  0  0  0  0  0  0
  181.8240  178.6280  142.0940 C   0  0  0  0  0  0  0  0  0  0  0  0
  184.1460  174.5940  137.3220 C   0  0  0  0  0  3  0  0  0  0  0  0
  183.3530  176.6270  138.3880 C   0  0  0  0  0  0  0  0  0  0  0  0
  183.9850  177.3860  137.3970 C   0  0  0  0  0  3  0  0  0  0  0  0
  184.7010  176.7540  136.3770 C   0  0  0  0  0  3  0  0  0  0  0  0
  184.7830  175.3590  136.3400 C   0  0  0  0  0  3  0  0  0  0  0  0
  183.4310  175.2260  138.3430 C   0  0  0  0  0  3  0  0  0  0  0  0
  181.4130  180.7540  138.3650 C   0  0  0  0  0  2  0  0  0  0  0  0
  180.2770  181.2890  139.2070 C   0  0  0  0  0  2  0  0  0  0  0  0
  181.2730  180.3160  139.8110 C   0  0  0  0  0  3  0  0  0  0  0  0
  180.2640  177.1350  138.3030 C   0  0  2  0  0  3  0  0  0  0  0  0
  180.0850  175.8240  139.0610 C   0  0  0  0  0  1  0  0  0  0  0  0
  180.5430  177.9390  136.0600 O   0  0  0  0  0  0  0  0  0  0  0  0
  180.4230  176.9410  136.8190 C   0  0  0  0  0  0  0  0  0  0  0  0
  181.2250  175.3220  135.1360 C   0  0  0  0  0  1  0  0  0  0  0  0
  180.4180  175.6640  136.2530 O   0  0  0  0  0  0  0  0  0  0  0  0
  1  7  1  0  0  0  0
  2 22  1  1  0  0  0
  2  6  1  0  0  0  0
  2  8  1  0  0  0  0
  3 12  1  0  0  0  0
  5  4  1  0  0  0  0
  5 10  1  0  0  0  0
  6 14  1  6  0  0  0
  6  1  1  0  0  0  0
  7 12  2  0  0  0  0
  7 11  1  0  0  0  0
  8 21  1  1  0  0  0
  8  3  1  0  0  0  0
  9  4  2  0  0  0  0
 11  5  2  0  0  0  0
 12  9  1  0  0  0  0
 13 18  1  0  0  0  0
 15 14  1  0  0  0  0
 16 15  2  0  0  0  0
 17 16  1  0  0  0  0
 17 13  2  0  0  0  0
 18 14  2  0  0  0  0
 19 20  1  0  0  0  0
 19 21  1  0  0  0  0
 20 21  1  0  0  0  0
 22 23  1  1  0  0  0
 24 25  2  0  0  0  0
 25 22  1  0  0  0  0
 26 27  1  0  0  0  0
 27 25  1  0  0  0  0
M  END
>  <MODEL>
3

>  <REMARK>
 VINA RESULT:      -6.5      6.424      9.563
  Name = 
  5 active torsions:
  status: ('A' for Active; 'I' for Inactive)
    1  A    between atoms: C_2  and  C_6
    2  A    between atoms: C_6  and  C_17
    3  A    between atoms: C_9  and  C_15
    4  A    between atoms: C_14  and  N_19
    5  A    between atoms: O_16  and  C_17
                            x       y       z     vdW  Elec       q    Type
                         _______ _______ _______ _____ _____    ______ ____

>  <TORSDO>
F 5

$$$$
=
 OpenBabel10262420123D

 27 30  0  0  1  0  0  0  0  0999 V2000
  188.3270  178.4550  142.7680 C   0  0  0  0  0  2  0  0  0  0  0  0
  189.7400  177.5530  144.6800 C   0  0  2  0  0  3  0  0  0  0  0  0
  190.7290  176.5030  142.6890 C   0  0  0  0  0  2  0  0  0  0  0  0
  189.7980  176.8790  139.0480 C   0  0  0  0  0  3  0  0  0  0  0  0
  188.6730  177.7020  139.0930 C   0  0  0  0  0  0  0  0  0  0  0  0
  188.3640  177.5130  143.9630 C   0  0  1  0  0  3  0  0  0  0  0  0
  188.8460  177.8250  141.5130 C   0  0  0  0  0  0  0  0  0  0  0  0
  190.9040  177.4810  143.7790 N   0  0  1  0  0  0  0  0  0  0  0  0
  190.4530  176.5300  140.2300 C   0  0  0  0  0  3  0  0  0  0  0  0
  187.8530  178.1460  137.6130 Cl  0  0  0  0  0  0  0  0  0  0  0  0
  188.2050  178.1770  140.3200 C   0  0  0  0  0  3  0  0  0  0  0  0
  190.0020  177.0070  141.4660 C   0  0  0  0  0  0  0  0  0  0  0  0
  186.4000  178.6650  147.0180 C   0  0  0  0  0  3  0  0  0  0  0  0
  187.2330  177.8570  144.8850 C   0  0  0  0  0  0  0  0  0  0  0  0
  185.9170  177.7130  144.4320 C   0  0  0  0  0  3  0  0  0  0  0  0
  184.8470  178.0370  145.2690 C   0  0  0  0  0  3  0  0  0  0  0  0
  185.0870  178.5110  146.5620 C   0  0  0  0  0  3  0  0  0  0  0  0
  187.4720  178.3410  146.1810 C   0  0  0  0  0  3  0  0  0  0  0  0
  190.9640  179.8450  144.3680 C   0  0  0  0  0  2  0  0  0  0  0  0
  192.3890  179.3630  144.2220 C   0  0  0  0  0  2  0  0  0  0  0  0
  191.3060  178.8090  143.3130 C   0  0  0  0  0  3  0  0  0  0  0  0
  189.9090  176.5110  145.8000 C   0  0  2  0  0  3  0  0  0  0  0  0
  189.1350  176.8430  147.0700 C   0  0  0  0  0  1  0  0  0  0  0  0
  191.9470  175.3470  145.3020 O   0  0  0  0  0  0  0  0  0  0  0  0
  191.3470  176.1520  146.0620 C   0  0  0  0  0  0  0  0  0  0  0  0
  192.6650  175.8610  148.1300 C   0  0  0  0  0  1  0  0  0  0  0  0
  192.0350  176.6810  147.1570 O   0  0  0  0  0  0  0  0  0  0  0  0
  1  6  1  0  0  0  0
  2 22  1  1  0  0  0
  3  8  1  0  0  0  0
  4  5  2  0  0  0  0
  4  9  1  0  0  0  0
  5 11  1  0  0  0  0
  6  2  1  0  0  0  0
  6 14  1  1  0  0  0
  7  1  1  0  0  0  0
  8 21  1  6  0  0  0
  8  2  1  0  0  0  0
  9 12  2  0  0  0  0
 10  5  1  0  0  0  0
 11  7  2  0  0  0  0
 12  7  1  0  0  0  0
 12  3  1  0  0  0  0
 14 18  1  0  0  0  0
 15 14  2  0  0  0  0
 15 16  1  0  0  0  0
 16 17  2  0  0  0  0
 17 13  1  0  0  0  0
 18 13  2  0  0  0  0
 20 19  1  0  0  0  0
 21 20  1  0  0  0  0
 21 19  1  0  0  0  0
 22 25  1  0  0  0  0
 22 23  1  1  0  0  0
 24 25  2  0  0  0  0
 25 27  1  0  0  0  0
 27 26  1  0  0  0  0
M  END
>  <MODEL>
4

>  <REMARK>
 VINA RESULT:      -6.5      1.686      2.205
  Name = 
  5 active torsions:
  status: ('A' for Active; 'I' for Inactive)
    1  A    between atoms: C_2  and  C_6
    2  A    between atoms: C_6  and  C_17
    3  A    between atoms: C_9  and  C_15
    4  A    between atoms: C_14  and  N_19
    5  A    between atoms: O_16  and  C_17
                            x       y       z     vdW  Elec       q    Type
                         _______ _______ _______ _____ _____    ______ ____

>  <TORSDO>
F 5

$$$$
=
 OpenBabel10262420123D

 27 30  0  0  1  0  0  0  0  0999 V2000
  191.6830  177.1100  139.1920 C   0  0  0  0  0  2  0  0  0  0  0  0
  190.0940  176.2240  137.4170 C   0  0  2  0  0  3  0  0  0  0  0  0
  188.6810  176.3920  139.4220 C   0  0  0  0  0  2  0  0  0  0  0  0
  189.5490  177.6090  142.8900 C   0  0  0  0  0  3  0  0  0  0  0  0
  190.9170  177.8650  142.8020 C   0  0  0  0  0  0  0  0  0  0  0  0
  191.2970  175.9070  138.3450 C   0  0  1  0  0  3  0  0  0  0  0  0
  190.9010  177.2030  140.4660 C   0  0  0  0  0  0  0  0  0  0  0  0
  188.9760  176.9210  138.0780 N   0  0  1  0  0  0  0  0  0  0  0  0
  188.8510  177.1560  141.7690 C   0  0  0  0  0  3  0  0  0  0  0  0
  191.7920  178.4400  144.2040 Cl  0  0  0  0  0  0  0  0  0  0  0  0
  191.5860  177.6690  141.5930 C   0  0  0  0  0  3  0  0  0  0  0  0
  189.5070  176.9650  140.5480 C   0  0  0  0  0  0  0  0  0  0  0  0
  194.0240  173.7000  136.8600 C   0  0  0  0  0  3  0  0  0  0  0  0
  192.5000  175.4490  137.5780 C   0  0  0  0  0  0  0  0  0  0  0  0
  193.2170  176.3780  136.8160 C   0  0  0  0  0  3  0  0  0  0  0  0
  194.3360  175.9720  136.0840 C   0  0  0  0  0  3  0  0  0  0  0  0
  194.7410  174.6350  136.1080 C   0  0  0  0  0  3  0  0  0  0  0  0
  192.9050  174.1040  137.5940 C   0  0  0  0  0  3  0  0  0  0  0  0
  189.4300  178.8240  136.6250 C   0  0  0  0  0  2  0  0  0  0  0  0
  188.0520  179.0070  137.2180 C   0  0  0  0  0  2  0  0  0  0  0  0
  189.1550  178.3730  138.0470 C   0  0  0  0  0  3  0  0  0  0  0  0
  189.5420  175.0110  136.6470 C   0  0  2  0  0  3  0  0  0  0  0  0
  190.2340  174.7640  135.3110 C   0  0  0  0  0  1  0  0  0  0  0  0
  187.3610  174.1910  137.2180 O   0  0  0  0  0  0  0  0  0  0  0  0
  188.0410  175.0090  136.5430 C   0  0  0  0  0  0  0  0  0  0  0  0
  186.0070  176.2290  135.8550 C   0  0  0  0  0  1  0  0  0  0  0  0
  187.3750  175.8890  135.6860 O   0  0  0  0  0  0  0  0  0  0  0  0
  1  7  1  0  0  0  0
  2 22  1  1  0  0  0
  2  8  1  0  0  0  0
  2  6  1  0  0  0  0
  3 12  1  0  0  0  0
  5  4  1  0  0  0  0
  5 10  1  0  0  0  0
  6 14  1  6  0  0  0
  6  1  1  0  0  0  0
  7 12  2  0  0  0  0
  7 11  1  0  0  0  0
  8 21  1  1  0  0  0
  8  3  1  0  0  0  0
  9  4  2  0  0  0  0
 11  5  2  0  0  0  0
 12  9  1  0  0  0  0
 13 18  1  0  0  0  0
 14 18  2  0  0  0  0
 15 14  1  0  0  0  0
 16 17  1  0  0  0  0
 16 15  2  0  0  0  0
 17 13  2  0  0  0  0
 19 20  1  0  0  0  0
 19 21  1  0  0  0  0
 20 21  1  0  0  0  0
 22 23  1  6  0  0  0
 25 22  1  0  0  0  0
 25 24  2  0  0  0  0
 27 26  1  0  0  0  0
 27 25  1  0  0  0  0
M  END
>  <MODEL>
5

>  <REMARK>
 VINA RESULT:      -6.0      4.495      8.556
  Name = 
  5 active torsions:
  status: ('A' for Active; 'I' for Inactive)
    1  A    between atoms: C_2  and  C_6
    2  A    between atoms: C_6  and  C_17
    3  A    between atoms: C_9  and  C_15
    4  A    between atoms: C_14  and  N_19
    5  A    between atoms: O_16  and  C_17
                            x       y       z     vdW  Elec       q    Type
                         _______ _______ _______ _____ _____    ______ ____

>  <TORSDO>
F 5

$$$$
=
 OpenBabel10262420123D

 27 30  0  0  1  0  0  0  0  0999 V2000
  183.3090  177.1570  139.7310 C   0  0  0  0  0  2  0  0  0  0  0  0
  181.0820  178.1380  140.4670 C   0  0  2  0  0  3  0  0  0  0  0  0
  180.9780  178.2520  138.0130 C   0  0  0  0  0  2  0  0  0  0  0  0
  183.4980  177.1220  135.4360 C   0  0  0  0  0  3  0  0  0  0  0  0
  184.5740  176.6940  136.2130 C   0  0  0  0  0  0  0  0  0  0  0  0
  182.6170  178.3520  140.3680 C   0  0  1  0  0  3  0  0  0  0  0  0
  183.3410  177.2290  138.2360 C   0  0  0  0  0  0  0  0  0  0  0  0
  180.4550  177.6200  139.2380 N   0  0  1  0  0  0  0  0  0  0  0  0
  182.3400  177.5980  136.0530 C   0  0  0  0  0  3  0  0  0  0  0  0
  186.0250  176.0910  135.4430 Cl  0  0  0  0  0  0  0  0  0  0  0  0
  184.4910  176.7420  137.6050 C   0  0  0  0  0  3  0  0  0  0  0  0
  182.2380  177.6420  137.4480 C   0  0  0  0  0  0  0  0  0  0  0  0
  183.0800  178.8490  144.1170 C   0  0  0  0  0  3  0  0  0  0  0  0
  183.2400  178.6180  141.7050 C   0  0  0  0  0  0  0  0  0  0  0  0
  184.6170  178.8540  141.7790 C   0  0  0  0  0  3  0  0  0  0  0  0
  185.2230  179.0940  143.0150 C   0  0  0  0  0  3  0  0  0  0  0  0
  184.4550  179.0930  144.1830 C   0  0  0  0  0  3  0  0  0  0  0  0
  182.4720  178.6100  142.8800 C   0  0  0  0  0  3  0  0  0  0  0  0
  179.9620  175.6020  140.5120 C   0  0  0  0  0  2  0  0  0  0  0  0
  179.0620  175.6190  139.2970 C   0  0  0  0  0  2  0  0  0  0  0  0
  180.4790  176.1570  139.1970 C   0  0  0  0  0  3  0  0  0  0  0  0
  180.2930  179.3670  140.9510 C   0  0  2  0  0  3  0  0  0  0  0  0
  178.9690  179.0220  141.6230 C   0  0  0  0  0  1  0  0  0  0  0  0
  179.0420  180.6700  139.3740 O   0  0  0  0  0  0  0  0  0  0  0  0
  180.1610  180.4370  139.9020 C   0  0  0  0  0  0  0  0  0  0  0  0
  181.2400  182.0000  138.3240 C   0  0  0  0  0  1  0  0  0  0  0  0
  181.2700  181.1730  139.4770 O   0  0  0  0  0  0  0  0  0  0  0  0
  1  6  1  0  0  0  0
  2 22  1  6  0  0  0
  3  8  1  0  0  0  0
  4  9  2  0  0  0  0
  4  5  1  0  0  0  0
  5 11  2  0  0  0  0
  6  2  1  0  0  0  0
  6 14  1  1  0  0  0
  7  1  1  0  0  0  0
  8 21  1  6  0  0  0
  8  2  1  0  0  0  0
  9 12  1  0  0  0  0
 10  5  1  0  0  0  0
 11  7  1  0  0  0  0
 12  3  1  0  0  0  0
 12  7  2  0  0  0  0
 13 17  1  0  0  0  0
 14 15  2  0  0  0  0
 14 18  1  0  0  0  0
 15 16  1  0  0  0  0
 16 17  2  0  0  0  0
 18 13  2  0  0  0  0
 20 19  1  0  0  0  0
 21 20  1  0  0  0  0
 21 19  1  0  0  0  0
 22 23  1  6  0  0  0
 24 25  2  0  0  0  0
 25 22  1  0  0  0  0
 26 27  1  0  0  0  0
 27 25  1  0  0  0  0
M  END
>  <MODEL>
6

>  <REMARK>
 VINA RESULT:      -5.9      5.609      8.386
  Name = 
  5 active torsions:
  status: ('A' for Active; 'I' for Inactive)
    1  A    between atoms: C_2  and  C_6
    2  A    between atoms: C_6  and  C_17
    3  A    between atoms: C_9  and  C_15
    4  A    between atoms: C_14  and  N_19
    5  A    between atoms: O_16  and  C_17
                            x       y       z     vdW  Elec       q    Type
                         _______ _______ _______ _____ _____    ______ ____

>  <TORSDO>
F 5

$$$$
=
 OpenBabel10262420123D

 27 30  0  0  1  0  0  0  0  0999 V2000
  191.2790  175.2720  138.2430 C   0  0  0  0  0  2  0  0  0  0  0  0
  189.1930  176.5570  137.5610 C   0  0  2  0  0  3  0  0  0  0  0  0
  190.4700  176.3780  135.4680 C   0  0  0  0  0  2  0  0  0  0  0  0
  193.7810  174.6900  134.7970 C   0  0  0  0  0  3  0  0  0  0  0  0
  194.1760  174.2540  136.0610 C   0  0  0  0  0  0  0  0  0  0  0  0
  190.5430  176.6010  138.3290 C   0  0  1  0  0  3  0  0  0  0  0  0
  192.1350  175.1560  137.0200 C   0  0  0  0  0  0  0  0  0  0  0  0
  189.2720  175.9590  136.2170 N   0  0  1  0  0  0  0  0  0  0  0  0
  192.5640  175.3540  134.6370 C   0  0  0  0  0  3  0  0  0  0  0  0
  195.6990  173.4170  136.2630 Cl  0  0  0  0  0  0  0  0  0  0  0  0
  193.3520  174.4810  137.1650 C   0  0  0  0  0  3  0  0  0  0  0  0
  191.7230  175.5790  135.7320 C   0  0  0  0  0  0  0  0  0  0  0  0
  189.0040  177.0880  141.7790 C   0  0  0  0  0  3  0  0  0  0  0  0
  190.3640  176.9640  139.7710 C   0  0  0  0  0  0  0  0  0  0  0  0
  191.4450  177.5030  140.4770 C   0  0  0  0  0  3  0  0  0  0  0  0
  191.3060  177.8390  141.8270 C   0  0  0  0  0  3  0  0  0  0  0  0
  190.0850  177.6340  142.4770 C   0  0  0  0  0  3  0  0  0  0  0  0
  189.1420  176.7520  140.4300 C   0  0  0  0  0  3  0  0  0  0  0  0
  187.7920  174.1780  136.9770 C   0  0  0  0  0  2  0  0  0  0  0  0
  187.8560  174.1200  135.4680 C   0  0  0  0  0  2  0  0  0  0  0  0
  189.0900  174.5070  136.2640 C   0  0  0  0  0  3  0  0  0  0  0  0
  188.4670  177.9100  137.4650 C   0  0  2  0  0  3  0  0  0  0  0  0
  189.3100  179.0940  137.9300 C   0  0  0  0  0  1  0  0  0  0  0  0
  186.8270  178.6280  139.0610 O   0  0  0  0  0  0  0  0  0  0  0  0
  187.0930  177.8890  138.0760 C   0  0  0  0  0  0  0  0  0  0  0  0
  185.6110  177.1280  136.2530 C   0  0  0  0  0  1  0  0  0  0  0  0
  186.0960  177.0420  137.5840 O   0  0  0  0  0  0  0  0  0  0  0  0
  1  6  1  0  0  0  0
  2 22  1  6  0  0  0
  2  6  1  0  0  0  0
  3 12  1  0  0  0  0
  3  8  1  0  0  0  0
  4  5  1  0  0  0  0
  5 10  1  0  0  0  0
  5 11  2  0  0  0  0
  6 14  1  1  0  0  0
  7 11  1  0  0  0  0
  7  1  1  0  0  0  0
  8 21  1  1  0  0  0
  8  2  1  0  0  0  0
  9  4  2  0  0  0  0
  9 12  1  0  0  0  0
 12  7  2  0  0  0  0
 13 17  1  0  0  0  0
 14 18  1  0  0  0  0
 14 15  2  0  0  0  0
 15 16  1  0  0  0  0
 16 17  2  0  0  0  0
 18 13  2  0  0  0  0
 20 21  1  0  0  0  0
 20 19  1  0  0  0  0
 21 19  1  0  0  0  0
 22 23  1  1  0  0  0
 22 25  1  0  0  0  0
 25 24  2  0  0  0  0
 26 27  1  0  0  0  0
 27 25  1  0  0  0  0
M  END
>  <MODEL>
7

>  <REMARK>
 VINA RESULT:      -5.7      4.429      7.487
  Name = 
  5 active torsions:
  status: ('A' for Active; 'I' for Inactive)
    1  A    between atoms: C_2  and  C_6
    2  A    between atoms: C_6  and  C_17
    3  A    between atoms: C_9  and  C_15
    4  A    between atoms: C_14  and  N_19
    5  A    between atoms: O_16  and  C_17
                            x       y       z     vdW  Elec       q    Type
                         _______ _______ _______ _____ _____    ______ ____

>  <TORSDO>
F 5

$$$$
=
 OpenBabel10262420123D

 27 30  0  0  1  0  0  0  0  0999 V2000
  183.4780  177.1850  139.6570 C   0  0  0  0  0  2  0  0  0  0  0  0
  181.0850  177.7320  140.3230 C   0  0  2  0  0  3  0  0  0  0  0  0
  181.0270  177.7900  137.8650 C   0  0  0  0  0  2  0  0  0  0  0  0
  183.7830  177.1290  135.3700 C   0  0  0  0  0  3  0  0  0  0  0  0
  184.9000  176.9250  136.1790 C   0  0  0  0  0  0  0  0  0  0  0  0
  182.5530  178.2350  140.2560 C   0  0  1  0  0  3  0  0  0  0  0  0
  183.5340  177.2410  138.1620 C   0  0  0  0  0  0  0  0  0  0  0  0
  180.6010  177.0870  139.0890 N   0  0  1  0  0  0  0  0  0  0  0  0
  182.5400  177.3820  135.9500 C   0  0  0  0  0  3  0  0  0  0  0  0
  186.4600  176.6010  135.4540 Cl  0  0  0  0  0  0  0  0  0  0  0  0
  184.7730  176.9750  137.5680 C   0  0  0  0  0  3  0  0  0  0  0  0
  182.3950  177.4250  137.3410 C   0  0  0  0  0  0  0  0  0  0  0  0
  182.7690  178.9920  143.9830 C   0  0  0  0  0  3  0  0  0  0  0  0
  183.0780  178.6320  141.6020 C   0  0  0  0  0  0  0  0  0  0  0  0
  184.4250  178.9910  141.7280 C   0  0  0  0  0  3  0  0  0  0  0  0
  184.9410  179.3560  142.9750 C   0  0  0  0  0  3  0  0  0  0  0  0
  184.1130  179.3580  144.1010 C   0  0  0  0  0  3  0  0  0  0  0  0
  182.2520  178.6280  142.7370 C   0  0  0  0  0  3  0  0  0  0  0  0
  180.1230  174.9570  140.1730 C   0  0  0  0  0  2  0  0  0  0  0  0
  179.6510  174.8690  138.7400 C   0  0  0  0  0  2  0  0  0  0  0  0
  180.9050  175.6560  139.0760 C   0  0  0  0  0  3  0  0  0  0  0  0
  180.0640  178.7940  140.7660 C   0  0  2  0  0  3  0  0  0  0  0  0
  180.5850  180.2240  140.6720 C   0  0  0  0  0  1  0  0  0  0  0  0
  179.3110  177.2910  142.4770 O   0  0  0  0  0  0  0  0  0  0  0  0
  179.4270  178.4850  142.0940 C   0  0  0  0  0  0  0  0  0  0  0  0
  178.9490  179.4170  144.3300 C   0  0  0  0  0  1  0  0  0  0  0  0
  178.9350  179.5040  142.9130 O   0  0  0  0  0  0  0  0  0  0  0  0
  1  6  1  0  0  0  0
  2 22  1  6  0  0  0
  3  8  1  0  0  0  0
  4  9  2  0  0  0  0
  4  5  1  0  0  0  0
  5 11  2  0  0  0  0
  6  2  1  0  0  0  0
  6 14  1  1  0  0  0
  7  1  1  0  0  0  0
  8 21  1  6  0  0  0
  8  2  1  0  0  0  0
  9 12  1  0  0  0  0
 10  5  1  0  0  0  0
 11  7  1  0  0  0  0
 12  3  1  0  0  0  0
 12  7  2  0  0  0  0
 13 17  1  0  0  0  0
 14 15  2  0  0  0  0
 14 18  1  0  0  0  0
 15 16  1  0  0  0  0
 16 17  2  0  0  0  0
 18 13  2  0  0  0  0
 20 21  1  0  0  0  0
 20 19  1  0  0  0  0
 21 19  1  0  0  0  0
 22 23  1  1  0  0  0
 22 25  1  0  0  0  0
 25 24  2  0  0  0  0
 25 27  1  0  0  0  0
 27 26  1  0  0  0  0
M  END
>  <MODEL>
8

>  <REMARK>
 VINA RESULT:      -5.4      5.486      7.982
  Name = 
  5 active torsions:
  status: ('A' for Active; 'I' for Inactive)
    1  A    between atoms: C_2  and  C_6
    2  A    between atoms: C_6  and  C_17
    3  A    between atoms: C_9  and  C_15
    4  A    between atoms: C_14  and  N_19
    5  A    between atoms: O_16  and  C_17
                            x       y       z     vdW  Elec       q    Type
                         _______ _______ _______ _____ _____    ______ ____

>  <TORSDO>
F 5

$$$$
=
 OpenBabel10262420123D

 27 30  0  0  1  0  0  0  0  0999 V2000
  184.2620  175.0670  136.3120 C   0  0  0  0  0  2  0  0  0  0  0  0
  185.6000  177.0140  137.2520 C   0  0  2  0  0  3  0  0  0  0  0  0
  187.2200  175.1640  137.2220 C   0  0  0  0  0  2  0  0  0  0  0  0
  186.7940  171.6030  136.0370 C   0  0  0  0  0  3  0  0  0  0  0  0
  185.4440  171.5440  135.6940 C   0  0  0  0  0  0  0  0  0  0  0  0
  184.4800  175.9710  137.5170 C   0  0  1  0  0  3  0  0  0  0  0  0
  185.1760  173.8800  136.2990 C   0  0  0  0  0  0  0  0  0  0  0  0
  186.8220  176.4610  136.6430 N   0  0  1  0  0  0  0  0  0  0  0  0
  187.3410  172.7990  136.5060 C   0  0  0  0  0  3  0  0  0  0  0  0
  184.7560  170.0480  135.1010 Cl  0  0  0  0  0  0  0  0  0  0  0  0
  184.6420  172.6790  135.8190 C   0  0  0  0  0  3  0  0  0  0  0  0
  186.5530  173.9480  136.6260 C   0  0  0  0  0  0  0  0  0  0  0  0
  181.2780  178.0260  137.3340 C   0  0  0  0  0  3  0  0  0  0  0  0
  183.1780  176.6150  137.8800 C   0  0  0  0  0  0  0  0  0  0  0  0
  182.6220  176.3640  139.1400 C   0  0  0  0  0  3  0  0  0  0  0  0
  181.4030  176.9460  139.4980 C   0  0  0  0  0  3  0  0  0  0  0  0
  180.7320  177.7780  138.5970 C   0  0  0  0  0  3  0  0  0  0  0  0
  182.4980  177.4450  136.9740 C   0  0  0  0  0  3  0  0  0  0  0  0
  186.4150  177.8410  134.6760 C   0  0  0  0  0  2  0  0  0  0  0  0
  187.8310  177.3180  134.5960 C   0  0  0  0  0  2  0  0  0  0  0  0
  186.7350  176.4470  135.1820 C   0  0  0  0  0  3  0  0  0  0  0  0
  185.9900  177.8580  138.4780 C   0  0  2  0  0  3  0  0  0  0  0  0
  185.0680  179.0480  138.7230 C   0  0  0  0  0  1  0  0  0  0  0  0
  187.9180  179.0080  137.6330 O   0  0  0  0  0  0  0  0  0  0  0  0
  187.4480  178.2270  138.5030 C   0  0  0  0  0  0  0  0  0  0  0  0
  188.3130  178.1480  140.8150 C   0  0  0  0  0  1  0  0  0  0  0  0
  188.3110  177.7000  139.4680 O   0  0  0  0  0  0  0  0  0  0  0  0
  1  6  1  0  0  0  0
  2  6  1  0  0  0  0
  2 22  1  1  0  0  0
  4  9  1  0  0  0  0
  5 11  1  0  0  0  0
  5  4  2  0  0  0  0
  6 14  1  6  0  0  0
  7  1  1  0  0  0  0
  7 12  1  0  0  0  0
  8 21  1  6  0  0  0
  8  3  1  0  0  0  0
  8  2  1  0  0  0  0
  9 12  2  0  0  0  0
 10  5  1  0  0  0  0
 11  7  2  0  0  0  0
 12  3  1  0  0  0  0
 13 17  1  0  0  0  0
 14 15  2  0  0  0  0
 15 16  1  0  0  0  0
 17 16  2  0  0  0  0
 18 13  2  0  0  0  0
 18 14  1  0  0  0  0
 19 21  1  0  0  0  0
 20 19  1  0  0  0  0
 20 21  1  0  0  0  0
 22 25  1  0  0  0  0
 22 23  1  6  0  0  0
 24 25  2  0  0  0  0
 25 27  1  0  0  0  0
 27 26  1  0  0  0  0
M  END
>  <MODEL>
9

>  <REMARK>
 VINA RESULT:      -5.4      5.685      7.557
  Name = 
  5 active torsions:
  status: ('A' for Active; 'I' for Inactive)
    1  A    between atoms: C_2  and  C_6
    2  A    between atoms: C_6  and  C_17
    3  A    between atoms: C_9  and  C_15
    4  A    between atoms: C_14  and  N_19
    5  A    between atoms: O_16  and  C_17
                            x       y       z     vdW  Elec       q    Type
                         _______ _______ _______ _____ _____    ______ ____

>  <TORSDO>
F 5

$$$$
