=
 OpenBabel10262422243D

 43 48  0  0  1  0  0  0  0  0999 V2000
  191.7080  176.4270  146.8220 C   0  0  2  0  0  3  0  0  0  0  0  0
  187.3200  178.1850  144.7020 C   0  0  0  0  0  0  0  0  0  0  0  0
  187.7900  178.3400  141.8530 C   0  0  2  0  0  3  0  0  0  0  0  0
  189.3170  177.1230  146.4330 C   0  0  0  0  0  0  0  0  0  0  0  0
  191.6860  175.8950  145.4000 C   0  0  0  0  0  2  0  0  0  0  0  0
  192.5680  175.5320  147.6870 C   0  0  0  0  0  1  0  0  0  0  0  0
  189.5530  177.2180  145.1070 C   0  0  0  0  0  0  0  0  0  0  0  0
  190.2860  176.4540  147.3710 C   0  0  0  0  0  2  0  0  0  0  0  0
  190.8970  176.8590  144.5190 C   0  0  0  0  0  2  0  0  0  0  0  0
  188.7100  177.7040  142.7890 N   0  0  0  0  0  2  0  0  0  0  0  0
  188.4960  177.7400  144.2070 C   0  0  0  0  0  0  0  0  0  0  0  0
  187.1550  178.3930  146.1850 C   0  0  0  0  0  2  0  0  0  0  0  0
  186.2380  178.7020  143.7730 C   0  0  1  0  0  3  0  0  0  0  0  0
  186.3600  178.1720  142.3410 C   0  0  0  0  0  2  0  0  0  0  0  0
  188.0450  177.5230  146.9480 N   0  0  0  0  0  2  0  0  0  0  0  0
  184.8940  178.4580  144.3060 N   0  0  0  0  0  0  0  0  0  0  0  0
  182.4130  178.7910  141.5710 C   0  0  0  0  0  2  0  0  0  0  0  0
  181.2390  179.2280  142.4440 C   0  0  2  0  0  3  0  0  0  0  0  0
  182.5090  178.3570  144.3810 C   0  0  0  0  0  3  0  0  0  0  0  0
  183.7280  179.1640  142.2560 C   0  0  0  0  0  2  0  0  0  0  0  0
  183.7710  178.6360  143.6720 C   0  0  0  0  0  0  0  0  0  0  0  0
  181.3290  178.5990  143.8070 C   0  0  0  0  0  3  0  0  0  0  0  0
  180.0330  178.8790  141.8350 O   0  0  0  0  0  0  0  0  0  0  0  0
  179.0540  179.2020  142.7740 C   0  0  0  0  0  1  0  0  0  0  0  0
  187.9550  177.7520  140.4910 C   0  0  0  0  0  0  0  0  0  0  0  0
  188.3820  176.9020  137.6520 N   0  0  0  0  0  2  0  0  0  0  0  0
  187.5110  178.4970  139.3530 N   0  0  0  0  0  2  0  0  0  0  0  0
  188.4670  176.6070  140.3600 O   0  0  0  0  0  0  0  0  0  0  0  0
  187.6800  178.1020  137.9870 C   0  0  0  0  0  0  0  0  0  0  0  0
  187.2130  178.8340  137.0750 O   0  0  0  0  0  0  0  0  0  0  0  0
  188.6080  176.4960  136.2720 C   0  0  1  0  0  3  0  0  0  0  0  0
  190.1010  177.4950  134.5980 C   0  0  0  0  0  2  0  0  0  0  0  0
  190.0500  176.7690  135.8850 C   0  0  2  0  0  3  0  0  0  0  0  0
  190.3350  176.1100  134.6760 O   0  0  0  0  0  0  0  0  0  0  0  0
  188.2560  175.0180  136.0610 C   0  0  2  0  0  3  0  0  0  0  0  0
  186.7790  174.7740  136.1390 C   0  0  0  0  0  0  0  0  0  0  0  0
  184.9260  173.5490  137.1140 C   0  0  0  0  0  3  0  0  0  0  0  0
  184.5090  175.1870  135.3790 C   0  0  0  0  0  3  0  0  0  0  0  0
  184.0320  174.2330  136.2860 C   0  0  0  0  0  3  0  0  0  0  0  0
  185.8780  175.4540  135.3040 C   0  0  0  0  0  3  0  0  0  0  0  0
  186.2960  173.8170  137.0400 C   0  0  0  0  0  3  0  0  0  0  0  0
  189.1990  173.8920  137.1510 S   0  0  0  0  0  0  0  0  0  0  0  0
  189.7750  172.9000  135.7440 C   0  0  0  0  0  1  0  0  0  0  0  0
  1  8  1  0  0  0  0
  1  6  1  1  0  0  0
  2 12  1  0  0  0  0
  3 25  1  6  0  0  0
  3 14  1  0  0  0  0
  3 10  1  0  0  0  0
  4 15  1  0  0  0  0
  4  8  1  0  0  0  0
  5  1  1  0  0  0  0
  7  4  2  0  0  0  0
  9  7  1  0  0  0  0
  9  5  1  0  0  0  0
 10 11  1  0  0  0  0
 11  2  2  0  0  0  0
 11  7  1  0  0  0  0
 12 15  1  0  0  0  0
 13 16  1  1  0  0  0
 13  2  1  0  0  0  0
 14 13  1  0  0  0  0
 17 20  1  0  0  0  0
 17 18  1  0  0  0  0
 18 23  1  6  0  0  0
 18 22  1  0  0  0  0
 20 21  1  0  0  0  0
 21 16  2  0  0  0  0
 21 19  1  0  0  0  0
 22 19  2  0  0  0  0
 23 24  1  0  0  0  0
 26 29  1  0  0  0  0
 27 25  1  0  0  0  0
 28 25  2  0  0  0  0
 29 27  1  0  0  0  0
 30 29  2  0  0  0  0
 31 26  1  1  0  0  0
 32 34  1  0  0  0  0
 32 33  1  0  0  0  0
 33 31  1  6  0  0  0
 34 33  1  0  0  0  0
 35 36  1  0  0  0  0
 35 31  1  0  0  0  0
 35 42  1  1  0  0  0
 36 41  1  0  0  0  0
 38 39  2  0  0  0  0
 39 37  1  0  0  0  0
 40 38  1  0  0  0  0
 40 36  2  0  0  0  0
 41 37  2  0  0  0  0
 43 42  1  0  0  0  0
M  END
>  <MODEL>
1

>  <REMARK>
 VINA RESULT:      -8.1      0.000      0.000
  Name = 
  8 active torsions:
  status: ('A' for Active; 'I' for Inactive)
    1  A    between atoms: N_1  and  C_34
    2  A    between atoms: C_2  and  C_13
    3  A    between atoms: N_3  and  C_4
    4  A    between atoms: C_4  and  C_15
    5  A    between atoms: C_4  and  C_22
    6  A    between atoms: C_11  and  C_22
    7  A    between atoms: S_14  and  C_22
    8  A    between atoms: C_19  and  O_25
                            x       y       z     vdW  Elec       q    Type
                         _______ _______ _______ _____ _____    ______ ____

>  <TORSDO>
F 8

$$$$
=
 OpenBabel10262422243D

 43 48  0  0  1  0  0  0  0  0999 V2000
  188.7230  177.6010  145.8920 C   0  0  2  0  0  3  0  0  0  0  0  0
  187.8900  178.2170  140.8150 C   0  0  0  0  0  0  0  0  0  0  0  0
  190.3930  177.6270  139.4960 C   0  0  2  0  0  3  0  0  0  0  0  0
  187.6410  177.8990  143.6360 C   0  0  0  0  0  0  0  0  0  0  0  0
  189.7210  176.6970  145.1890 C   0  0  0  0  0  2  0  0  0  0  0  0
  188.4570  177.0800  147.2870 C   0  0  0  0  0  1  0  0  0  0  0  0
  188.8200  177.6480  143.0280 C   0  0  0  0  0  0  0  0  0  0  0  0
  187.4210  177.6250  145.0990 C   0  0  0  0  0  2  0  0  0  0  0  0
  190.0530  177.2880  143.8220 C   0  0  0  0  0  2  0  0  0  0  0  0
  190.1510  177.3780  140.9120 N   0  0  0  0  0  2  0  0  0  0  0  0
  188.9340  177.7820  141.5560 C   0  0  0  0  0  0  0  0  0  0  0  0
  186.6800  178.8080  141.4910 C   0  0  0  0  0  2  0  0  0  0  0  0
  188.0090  178.3360  139.3080 C   0  0  1  0  0  3  0  0  0  0  0  0
  189.1040  177.4470  138.7110 C   0  0  0  0  0  2  0  0  0  0  0  0
  186.5140  178.2850  142.8440 N   0  0  0  0  0  2  0  0  0  0  0  0
  186.7260  178.1050  138.6360 N   0  0  0  0  0  0  0  0  0  0  0  0
  186.8920  174.9220  136.7440 C   0  0  0  0  0  2  0  0  0  0  0  0
  185.8780  175.3000  135.6650 C   0  0  2  0  0  3  0  0  0  0  0  0
  185.1210  177.1060  137.1780 C   0  0  0  0  0  3  0  0  0  0  0  0
  187.5270  176.1890  137.3160 C   0  0  0  0  0  2  0  0  0  0  0  0
  186.4700  177.1700  137.7680 C   0  0  0  0  0  0  0  0  0  0  0  0
  184.8280  176.2200  136.2240 C   0  0  0  0  0  3  0  0  0  0  0  0
  185.2800  174.1500  135.1470 O   0  0  0  0  0  0  0  0  0  0  0  0
  185.4920  173.1720  136.1180 C   0  0  0  0  0  1  0  0  0  0  0  0
  191.4520  176.7060  138.9880 C   0  0  0  0  0  0  0  0  0  0  0  0
  193.3870  174.8450  137.6610 N   0  0  0  0  0  2  0  0  0  0  0  0
  191.0700  175.5690  138.2060 N   0  0  0  0  0  2  0  0  0  0  0  0
  192.6620  176.9280  139.2620 O   0  0  0  0  0  0  0  0  0  0  0  0
  191.9730  174.6510  137.5830 C   0  0  0  0  0  0  0  0  0  0  0  0
  191.5070  173.6690  136.9470 O   0  0  0  0  0  0  0  0  0  0  0  0
  194.3310  173.9530  137.0020 C   0  0  1  0  0  3  0  0  0  0  0  0
  194.7400  174.8330  134.7460 C   0  0  0  0  0  2  0  0  0  0  0  0
  195.2720  174.7580  136.1240 C   0  0  2  0  0  3  0  0  0  0  0  0
  195.7620  173.9320  135.0960 O   0  0  0  0  0  0  0  0  0  0  0  0
  195.1160  173.1180  138.0220 C   0  0  2  0  0  3  0  0  0  0  0  0
  196.2860  173.8700  138.5820 C   0  0  0  0  0  0  0  0  0  0  0  0
  198.6340  174.4600  138.4410 C   0  0  0  0  0  3  0  0  0  0  0  0
  197.2930  175.2820  140.2830 C   0  0  0  0  0  3  0  0  0  0  0  0
  198.5220  175.2050  139.6180 C   0  0  0  0  0  3  0  0  0  0  0  0
  196.1790  174.6140  139.7680 C   0  0  0  0  0  3  0  0  0  0  0  0
  197.5200  173.7930  137.9260 C   0  0  0  0  0  3  0  0  0  0  0  0
  195.5940  171.4720  137.3880 S   0  0  0  0  0  0  0  0  0  0  0  0
  194.0270  171.2830  136.4920 C   0  0  0  0  0  1  0  0  0  0  0  0
  1  6  1  1  0  0  0
  2 12  1  0  0  0  0
  2 11  2  0  0  0  0
  3 25  1  6  0  0  0
  3 10  1  0  0  0  0
  4  8  1  0  0  0  0
  5  1  1  0  0  0  0
  7  4  2  0  0  0  0
  7  9  1  0  0  0  0
  8  1  1  0  0  0  0
  9  5  1  0  0  0  0
 10 11  1  0  0  0  0
 11  7  1  0  0  0  0
 12 15  1  0  0  0  0
 13 16  1  6  0  0  0
 13  2  1  0  0  0  0
 14 13  1  0  0  0  0
 14  3  1  0  0  0  0
 15  4  1  0  0  0  0
 17 20  1  0  0  0  0
 18 23  1  1  0  0  0
 18 22  1  0  0  0  0
 18 17  1  0  0  0  0
 19 21  1  0  0  0  0
 20 21  1  0  0  0  0
 21 16  2  0  0  0  0
 22 19  2  0  0  0  0
 23 24  1  0  0  0  0
 25 28  2  0  0  0  0
 27 25  1  0  0  0  0
 29 26  1  0  0  0  0
 29 27  1  0  0  0  0
 30 29  2  0  0  0  0
 31 26  1  1  0  0  0
 31 35  1  0  0  0  0
 32 34  1  0  0  0  0
 32 33  1  0  0  0  0
 33 31  1  1  0  0  0
 34 33  1  0  0  0  0
 35 42  1  6  0  0  0
 35 36  1  0  0  0  0
 36 40  1  0  0  0  0
 37 39  2  0  0  0  0
 39 38  1  0  0  0  0
 40 38  2  0  0  0  0
 41 37  1  0  0  0  0
 41 36  2  0  0  0  0
 43 42  1  0  0  0  0
M  END
>  <MODEL>
2

>  <REMARK>
 VINA RESULT:      -8.0      4.270      7.130
  Name = 
  8 active torsions:
  status: ('A' for Active; 'I' for Inactive)
    1  A    between atoms: N_1  and  C_34
    2  A    between atoms: C_2  and  C_13
    3  A    between atoms: N_3  and  C_4
    4  A    between atoms: C_4  and  C_15
    5  A    between atoms: C_4  and  C_22
    6  A    between atoms: C_11  and  C_22
    7  A    between atoms: S_14  and  C_22
    8  A    between atoms: C_19  and  O_25
                            x       y       z     vdW  Elec       q    Type
                         _______ _______ _______ _____ _____    ______ ____

>  <TORSDO>
F 8

$$$$
=
 OpenBabel10262422243D

 43 48  0  0  1  0  0  0  0  0999 V2000
  190.1440  176.2960  135.7580 C   0  0  2  0  0  3  0  0  0  0  0  0
  189.6590  177.6420  140.7380 C   0  0  0  0  0  0  0  0  0  0  0  0
  186.9920  178.7150  141.0410 C   0  0  2  0  0  3  0  0  0  0  0  0
  190.4990  176.5620  138.2390 C   0  0  0  0  0  0  0  0  0  0  0  0
  188.6610  176.2090  136.0750 C   0  0  0  0  0  2  0  0  0  0  0  0
  190.4700  175.3870  134.5940 C   0  0  0  0  0  1  0  0  0  0  0  0
  189.2610  177.0860  138.3680 C   0  0  0  0  0  0  0  0  0  0  0  0
  190.9450  175.8650  136.9820 C   0  0  0  0  0  2  0  0  0  0  0  0
  188.3290  177.2020  137.1850 C   0  0  0  0  0  2  0  0  0  0  0  0
  187.4560  178.0400  139.8350 N   0  0  0  0  0  2  0  0  0  0  0  0
  188.8180  177.6160  139.6800 C   0  0  0  0  0  0  0  0  0  0  0  0
  191.1280  177.3700  140.5420 C   0  0  0  0  0  2  0  0  0  0  0  0
  189.1930  178.1710  142.0810 C   0  0  1  0  0  3  0  0  0  0  0  0
  187.6730  178.1190  142.2620 C   0  0  0  0  0  2  0  0  0  0  0  0
  191.3620  176.5200  139.3780 N   0  0  0  0  0  2  0  0  0  0  0  0
  189.8740  177.5080  143.1980 N   0  0  0  0  0  0  0  0  0  0  0  0
  187.6470  177.5060  146.1620 C   0  0  0  0  0  2  0  0  0  0  0  0
  188.7510  177.4960  147.2180 C   0  0  2  0  0  3  0  0  0  0  0  0
  190.2930  176.7600  145.4270 C   0  0  0  0  0  3  0  0  0  0  0  0
  188.1790  178.1290  144.8710 C   0  0  0  0  0  2  0  0  0  0  0  0
  189.4590  177.4560  144.4300 C   0  0  0  0  0  0  0  0  0  0  0  0
  189.9550  176.7460  146.7180 C   0  0  0  0  0  3  0  0  0  0  0  0
  188.2810  176.9150  148.3960 O   0  0  0  0  0  0  0  0  0  0  0  0
  187.7980  177.9850  149.1500 C   0  0  0  0  0  1  0  0  0  0  0  0
  185.5080  178.5970  141.1560 C   0  0  0  0  0  0  0  0  0  0  0  0
  182.5530  178.6180  141.6370 N   0  0  0  0  0  2  0  0  0  0  0  0
  184.9040  178.6460  142.4530 N   0  0  0  0  0  2  0  0  0  0  0  0
  184.8090  178.4420  140.1190 O   0  0  0  0  0  0  0  0  0  0  0  0
  183.4960  178.6310  142.7110 C   0  0  0  0  0  0  0  0  0  0  0  0
  183.0920  178.6460  143.9040 O   0  0  0  0  0  0  0  0  0  0  0  0
  181.1150  178.6460  141.8670 C   0  0  1  0  0  3  0  0  0  0  0  0
  179.7210  179.5680  143.6670 C   0  0  0  0  0  2  0  0  0  0  0  0
  180.7450  179.8930  142.6510 C   0  0  2  0  0  3  0  0  0  0  0  0
  179.3830  180.1780  142.4450 O   0  0  0  0  0  0  0  0  0  0  0  0
  180.3370  178.5800  140.5470 C   0  0  2  0  0  3  0  0  0  0  0  0
  180.2140  177.1760  140.0360 C   0  0  0  0  0  0  0  0  0  0  0  0
  178.9360  175.1180  139.9050 C   0  0  0  0  0  3  0  0  0  0  0  0
  181.1110  175.2550  138.8500 C   0  0  0  0  0  3  0  0  0  0  0  0
  179.9570  174.5260  139.1570 C   0  0  0  0  0  3  0  0  0  0  0  0
  181.2410  176.5750  139.2900 C   0  0  0  0  0  3  0  0  0  0  0  0
  179.0650  176.4390  140.3450 C   0  0  0  0  0  3  0  0  0  0  0  0
  180.9830  179.7220  139.2740 S   0  0  0  0  0  0  0  0  0  0  0  0
  179.3100  180.2140  138.7660 C   0  0  0  0  0  1  0  0  0  0  0  0
  1  6  1  6  0  0  0
  1  5  1  0  0  0  0
  1  8  1  0  0  0  0
  2 13  1  0  0  0  0
  3 25  1  1  0  0  0
  3 14  1  0  0  0  0
  4  7  2  0  0  0  0
  4 15  1  0  0  0  0
  5  9  1  0  0  0  0
  7 11  1  0  0  0  0
  8  4  1  0  0  0  0
  9  7  1  0  0  0  0
 10  3  1  0  0  0  0
 11 10  1  0  0  0  0
 11  2  2  0  0  0  0
 12  2  1  0  0  0  0
 13 14  1  0  0  0  0
 13 16  1  1  0  0  0
 15 12  1  0  0  0  0
 16 21  2  0  0  0  0
 17 18  1  0  0  0  0
 18 23  1  1  0  0  0
 19 22  2  0  0  0  0
 20 17  1  0  0  0  0
 21 20  1  0  0  0  0
 21 19  1  0  0  0  0
 22 18  1  0  0  0  0
 23 24  1  0  0  0  0
 25 27  1  0  0  0  0
 26 29  1  0  0  0  0
 27 29  1  0  0  0  0
 28 25  2  0  0  0  0
 29 30  2  0  0  0  0
 31 26  1  6  0  0  0
 33 31  1  6  0  0  0
 33 32  1  0  0  0  0
 34 33  1  0  0  0  0
 34 32  1  0  0  0  0
 35 42  1  6  0  0  0
 35 31  1  0  0  0  0
 36 41  1  0  0  0  0
 36 35  1  0  0  0  0
 37 41  2  0  0  0  0
 38 39  2  0  0  0  0
 38 40  1  0  0  0  0
 39 37  1  0  0  0  0
 40 36  2  0  0  0  0
 43 42  1  0  0  0  0
M  END
>  <MODEL>
3

>  <REMARK>
 VINA RESULT:      -7.8      3.092      8.261
  Name = 
  8 active torsions:
  status: ('A' for Active; 'I' for Inactive)
    1  A    between atoms: N_1  and  C_34
    2  A    between atoms: C_2  and  C_13
    3  A    between atoms: N_3  and  C_4
    4  A    between atoms: C_4  and  C_15
    5  A    between atoms: C_4  and  C_22
    6  A    between atoms: C_11  and  C_22
    7  A    between atoms: S_14  and  C_22
    8  A    between atoms: C_19  and  O_25
                            x       y       z     vdW  Elec       q    Type
                         _______ _______ _______ _____ _____    ______ ____

>  <TORSDO>
F 8

$$$$
=
 OpenBabel10262422243D

 43 48  0  0  1  0  0  0  0  0999 V2000
  191.0550  176.7560  146.6740 C   0  0  2  0  0  3  0  0  0  0  0  0
  187.3010  178.1900  143.4030 C   0  0  0  0  0  0  0  0  0  0  0  0
  188.5570  178.5620  140.8260 C   0  0  2  0  0  3  0  0  0  0  0  0
  188.8170  177.2320  145.6170 C   0  0  0  0  0  0  0  0  0  0  0  0
  191.5070  176.3110  145.2940 C   0  0  0  0  0  2  0  0  0  0  0  0
  191.7220  175.9010  147.7290 C   0  0  0  0  0  1  0  0  0  0  0  0
  189.4150  177.4290  144.4220 C   0  0  0  0  0  0  0  0  0  0  0  0
  189.5410  176.6080  146.7800 C   0  0  0  0  0  2  0  0  0  0  0  0
  190.9030  177.2420  144.2470 C   0  0  0  0  0  2  0  0  0  0  0  0
  189.2320  177.9660  141.9730 N   0  0  0  0  0  2  0  0  0  0  0  0
  188.6130  177.8950  143.2650 C   0  0  0  0  0  0  0  0  0  0  0  0
  186.6910  178.2910  144.7770 C   0  0  0  0  0  2  0  0  0  0  0  0
  186.4840  178.6510  142.2110 C   0  0  1  0  0  3  0  0  0  0  0  0
  187.0760  178.2220  140.8650 C   0  0  0  0  0  2  0  0  0  0  0  0
  187.4130  177.4700  145.7440 N   0  0  0  0  0  2  0  0  0  0  0  0
  185.0800  178.2420  142.3170 N   0  0  0  0  0  0  0  0  0  0  0  0
  183.3050  179.1390  139.1880 C   0  0  0  0  0  2  0  0  0  0  0  0
  181.9210  179.3150  139.8100 C   0  0  2  0  0  3  0  0  0  0  0  0
  182.7660  178.0470  141.7600 C   0  0  0  0  0  3  0  0  0  0  0  0
  184.3780  179.3800  140.2500 C   0  0  0  0  0  2  0  0  0  0  0  0
  184.1300  178.5290  141.4750 C   0  0  0  0  0  0  0  0  0  0  0  0
  181.7400  178.3810  140.9740 C   0  0  0  0  0  3  0  0  0  0  0  0
  180.9330  179.0830  138.8520 O   0  0  0  0  0  0  0  0  0  0  0  0
  181.5370  178.2420  137.9170 C   0  0  0  0  0  1  0  0  0  0  0  0
  189.1760  178.0750  139.5570 C   0  0  0  0  0  0  0  0  0  0  0  0
  190.3360  176.7650  137.1270 N   0  0  0  0  0  2  0  0  0  0  0  0
  190.0000  176.9050  139.5890 N   0  0  0  0  0  2  0  0  0  0  0  0
  188.9800  178.7020  138.4820 O   0  0  0  0  0  0  0  0  0  0  0  0
  190.5870  176.2740  138.4460 C   0  0  0  0  0  0  0  0  0  0  0  0
  191.3220  175.2650  138.6130 O   0  0  0  0  0  0  0  0  0  0  0  0
  190.8840  176.1200  135.9420 C   0  0  1  0  0  3  0  0  0  0  0  0
  193.3370  176.1570  135.8450 C   0  0  0  0  0  2  0  0  0  0  0  0
  192.1630  175.3850  136.3020 C   0  0  2  0  0  3  0  0  0  0  0  0
  192.8510  175.0530  135.1220 O   0  0  0  0  0  0  0  0  0  0  0  0
  189.8660  175.1660  135.3060 C   0  0  2  0  0  3  0  0  0  0  0  0
  188.5090  175.7910  135.1820 C   0  0  0  0  0  0  0  0  0  0  0  0
  187.1570  177.7170  134.5940 C   0  0  0  0  0  3  0  0  0  0  0  0
  186.0990  175.7270  135.4800 C   0  0  0  0  0  3  0  0  0  0  0  0
  186.0030  177.0320  134.9860 C   0  0  0  0  0  3  0  0  0  0  0  0
  187.3480  175.1090  135.5810 C   0  0  0  0  0  3  0  0  0  0  0  0
  188.4060  177.0990  134.6930 C   0  0  0  0  0  3  0  0  0  0  0  0
  189.8000  173.5330  136.1260 S   0  0  0  0  0  0  0  0  0  0  0  0
  190.2400  172.6660  134.5940 C   0  0  0  0  0  1  0  0  0  0  0  0
  1  8  1  0  0  0  0
  1  6  1  1  0  0  0
  2 12  1  0  0  0  0
  3 25  1  6  0  0  0
  3 14  1  0  0  0  0
  3 10  1  0  0  0  0
  4 15  1  0  0  0  0
  4  8  1  0  0  0  0
  5  1  1  0  0  0  0
  7  4  2  0  0  0  0
  9  7  1  0  0  0  0
  9  5  1  0  0  0  0
 10 11  1  0  0  0  0
 11  2  2  0  0  0  0
 11  7  1  0  0  0  0
 12 15  1  0  0  0  0
 13 16  1  1  0  0  0
 13  2  1  0  0  0  0
 14 13  1  0  0  0  0
 17 18  1  0  0  0  0
 17 20  1  0  0  0  0
 18 23  1  6  0  0  0
 18 22  1  0  0  0  0
 20 21  1  0  0  0  0
 21 19  1  0  0  0  0
 21 16  2  0  0  0  0
 22 19  2  0  0  0  0
 24 23  1  0  0  0  0
 25 27  1  0  0  0  0
 26 29  1  0  0  0  0
 28 25  2  0  0  0  0
 29 30  2  0  0  0  0
 29 27  1  0  0  0  0
 31 26  1  1  0  0  0
 32 33  1  0  0  0  0
 33 31  1  6  0  0  0
 34 32  1  0  0  0  0
 34 33  1  0  0  0  0
 35 31  1  0  0  0  0
 35 42  1  1  0  0  0
 36 35  1  0  0  0  0
 36 40  1  0  0  0  0
 37 41  1  0  0  0  0
 37 39  2  0  0  0  0
 38 40  2  0  0  0  0
 39 38  1  0  0  0  0
 41 36  2  0  0  0  0
 43 42  1  0  0  0  0
M  END
>  <MODEL>
4

>  <REMARK>
 VINA RESULT:      -7.7      1.821      2.562
  Name = 
  8 active torsions:
  status: ('A' for Active; 'I' for Inactive)
    1  A    between atoms: N_1  and  C_34
    2  A    between atoms: C_2  and  C_13
    3  A    between atoms: N_3  and  C_4
    4  A    between atoms: C_4  and  C_15
    5  A    between atoms: C_4  and  C_22
    6  A    between atoms: C_11  and  C_22
    7  A    between atoms: S_14  and  C_22
    8  A    between atoms: C_19  and  O_25
                            x       y       z     vdW  Elec       q    Type
                         _______ _______ _______ _____ _____    ______ ____

>  <TORSDO>
F 8

$$$$
=
 OpenBabel10262422243D

 43 48  0  0  1  0  0  0  0  0999 V2000
  181.9640  178.2350  137.1230 C   0  0  2  0  0  3  0  0  0  0  0  0
  186.9750  177.0290  136.5850 C   0  0  0  0  0  0  0  0  0  0  0  0
  188.3040  177.9610  138.9770 C   0  0  2  0  0  3  0  0  0  0  0  0
  184.1460  177.2480  136.3330 C   0  0  0  0  0  0  0  0  0  0  0  0
  182.5140  178.0850  138.5300 C   0  0  0  0  0  2  0  0  0  0  0  0
  180.4720  177.9860  137.1290 C   0  0  0  0  0  1  0  0  0  0  0  0
  184.7640  177.7100  137.4420 C   0  0  0  0  0  0  0  0  0  0  0  0
  182.6460  177.2240  136.2060 C   0  0  0  0  0  2  0  0  0  0  0  0
  184.0000  178.4330  138.5260 C   0  0  0  0  0  2  0  0  0  0  0  0
  186.8540  177.9300  138.8210 N   0  0  0  0  0  2  0  0  0  0  0  0
  186.2330  177.5620  137.5810 C   0  0  0  0  0  0  0  0  0  0  0  0
  186.3650  176.8070  135.2250 C   0  0  0  0  0  2  0  0  0  0  0  0
  188.4740  176.8660  136.7420 C   0  0  1  0  0  3  0  0  0  0  0  0
  188.9320  176.8130  138.2030 C   0  0  0  0  0  2  0  0  0  0  0  0
  184.9210  176.6150  135.3120 N   0  0  0  0  0  2  0  0  0  0  0  0
  188.9820  175.7100  135.9960 N   0  0  0  0  0  0  0  0  0  0  0  0
  192.5760  175.2350  136.7710 C   0  0  0  0  0  2  0  0  0  0  0  0
  192.9630  174.5860  135.4440 C   0  0  2  0  0  3  0  0  0  0  0  0
  190.5530  174.1580  135.0860 C   0  0  0  0  0  3  0  0  0  0  0  0
  191.3410  176.1140  136.5710 C   0  0  0  0  0  2  0  0  0  0  0  0
  190.2270  175.3400  135.9050 C   0  0  0  0  0  0  0  0  0  0  0  0
  191.8180  173.7820  134.8940 C   0  0  0  0  0  3  0  0  0  0  0  0
  194.0820  173.7700  135.6190 O   0  0  0  0  0  0  0  0  0  0  0  0
  194.5370  174.0640  136.9040 C   0  0  0  0  0  1  0  0  0  0  0  0
  188.6650  177.8810  140.4240 C   0  0  0  0  0  0  0  0  0  0  0  0
  189.7130  177.6060  143.2150 N   0  0  0  0  0  2  0  0  0  0  0  0
  189.4330  176.7670  140.8890 N   0  0  0  0  0  2  0  0  0  0  0  0
  188.2810  178.7820  141.2170 O   0  0  0  0  0  0  0  0  0  0  0  0
  189.9240  176.5980  142.2220 C   0  0  0  0  0  0  0  0  0  0  0  0
  190.5630  175.5520  142.5130 O   0  0  0  0  0  0  0  0  0  0  0  0
  190.2380  177.4830  144.5680 C   0  0  1  0  0  3  0  0  0  0  0  0
  191.1370  179.6780  143.9310 C   0  0  0  0  0  2  0  0  0  0  0  0
  190.6940  178.8430  145.0670 C   0  0  2  0  0  3  0  0  0  0  0  0
  192.0560  179.0120  144.7610 O   0  0  0  0  0  0  0  0  0  0  0  0
  189.1980  176.8740  145.5160 C   0  0  2  0  0  3  0  0  0  0  0  0
  187.8460  177.4990  145.3450 C   0  0  0  0  0  0  0  0  0  0  0  0
  186.0400  178.8270  146.2730 C   0  0  0  0  0  3  0  0  0  0  0  0
  185.8240  177.8810  144.0540 C   0  0  0  0  0  3  0  0  0  0  0  0
  185.2970  178.6410  145.1040 C   0  0  0  0  0  3  0  0  0  0  0  0
  187.0930  177.3090  144.1750 C   0  0  0  0  0  3  0  0  0  0  0  0
  187.3100  178.2560  146.3940 C   0  0  0  0  0  3  0  0  0  0  0  0
  189.7360  176.8640  147.2640 S   0  0  0  0  0  0  0  0  0  0  0  0
  191.2830  176.0060  146.8550 C   0  0  0  0  0  1  0  0  0  0  0  0
  1  6  1  1  0  0  0
  1  5  1  0  0  0  0
  2 13  1  0  0  0  0
  2 11  2  0  0  0  0
  3 25  1  1  0  0  0
  4  7  2  0  0  0  0
  7 11  1  0  0  0  0
  7  9  1  0  0  0  0
  8  4  1  0  0  0  0
  8  1  1  0  0  0  0
  9  5  1  0  0  0  0
 10  3  1  0  0  0  0
 11 10  1  0  0  0  0
 12 15  1  0  0  0  0
 12  2  1  0  0  0  0
 13 16  1  6  0  0  0
 13 14  1  0  0  0  0
 14  3  1  0  0  0  0
 15  4  1  0  0  0  0
 18 23  1  1  0  0  0
 18 17  1  0  0  0  0
 19 21  1  0  0  0  0
 20 17  1  0  0  0  0
 21 16  2  0  0  0  0
 21 20  1  0  0  0  0
 22 19  2  0  0  0  0
 22 18  1  0  0  0  0
 23 24  1  0  0  0  0
 25 27  1  0  0  0  0
 25 28  2  0  0  0  0
 27 29  1  0  0  0  0
 29 30  2  0  0  0  0
 29 26  1  0  0  0  0
 31 26  1  6  0  0  0
 31 35  1  0  0  0  0
 32 34  1  0  0  0  0
 32 33  1  0  0  0  0
 33 31  1  6  0  0  0
 34 33  1  0  0  0  0
 35 42  1  1  0  0  0
 36 35  1  0  0  0  0
 36 41  1  0  0  0  0
 37 41  2  0  0  0  0
 38 40  1  0  0  0  0
 38 39  2  0  0  0  0
 39 37  1  0  0  0  0
 40 36  2  0  0  0  0
 43 42  1  0  0  0  0
M  END
>  <MODEL>
5

>  <REMARK>
 VINA RESULT:      -7.5      3.254     10.321
  Name = 
  8 active torsions:
  status: ('A' for Active; 'I' for Inactive)
    1  A    between atoms: N_1  and  C_34
    2  A    between atoms: C_2  and  C_13
    3  A    between atoms: N_3  and  C_4
    4  A    between atoms: C_4  and  C_15
    5  A    between atoms: C_4  and  C_22
    6  A    between atoms: C_11  and  C_22
    7  A    between atoms: S_14  and  C_22
    8  A    between atoms: C_19  and  O_25
                            x       y       z     vdW  Elec       q    Type
                         _______ _______ _______ _____ _____    ______ ____

>  <TORSDO>
F 8

$$$$
=
 OpenBabel10262422243D

 43 48  0  0  1  0  0  0  0  0999 V2000
  181.5910  178.4530  137.6350 C   0  0  2  0  0  3  0  0  0  0  0  0
  186.5940  177.4640  136.7160 C   0  0  0  0  0  0  0  0  0  0  0  0
  188.0370  178.2640  139.0910 C   0  0  2  0  0  3  0  0  0  0  0  0
  183.7490  177.6040  136.6470 C   0  0  0  0  0  0  0  0  0  0  0  0
  182.2300  178.2190  138.9920 C   0  0  0  0  0  2  0  0  0  0  0  0
  180.1100  178.1540  137.7090 C   0  0  0  0  0  1  0  0  0  0  0  0
  184.4190  178.0030  137.7490 C   0  0  0  0  0  0  0  0  0  0  0  0
  182.2460  177.5370  136.6060 C   0  0  0  0  0  2  0  0  0  0  0  0
  183.7010  178.6180  138.9270 C   0  0  0  0  0  2  0  0  0  0  0  0
  186.5820  178.1930  139.0170 N   0  0  0  0  0  2  0  0  0  0  0  0
  185.8980  177.8960  137.7910 C   0  0  0  0  0  0  0  0  0  0  0  0
  185.9090  177.3220  135.3820 C   0  0  0  0  0  2  0  0  0  0  0  0
  188.1040  177.3420  136.7730 C   0  0  1  0  0  3  0  0  0  0  0  0
  188.6510  177.1980  138.1970 C   0  0  0  0  0  2  0  0  0  0  0  0
  184.4790  177.0740  135.5380 N   0  0  0  0  0  2  0  0  0  0  0  0
  188.6000  176.2630  135.9130 N   0  0  0  0  0  0  0  0  0  0  0  0
  186.7060  173.1580  136.6290 C   0  0  0  0  0  2  0  0  0  0  0  0
  187.8130  172.1780  136.2440 C   0  0  2  0  0  3  0  0  0  0  0  0
  188.8970  174.0560  135.0510 C   0  0  0  0  0  3  0  0  0  0  0  0
  187.3250  174.4910  137.0490 C   0  0  0  0  0  2  0  0  0  0  0  0
  188.2760  175.0050  135.9930 C   0  0  0  0  0  0  0  0  0  0  0  0
  188.6620  172.7450  135.1400 C   0  0  0  0  0  3  0  0  0  0  0  0
  187.2570  170.9620  135.8440 O   0  0  0  0  0  0  0  0  0  0  0  0
  185.9400  171.2690  135.5040 C   0  0  0  0  0  1  0  0  0  0  0  0
  188.4870  178.0900  140.5030 C   0  0  0  0  0  0  0  0  0  0  0  0
  189.7080  177.6370  143.1990 N   0  0  0  0  0  2  0  0  0  0  0  0
  189.2890  176.9540  140.8430 N   0  0  0  0  0  2  0  0  0  0  0  0
  188.1480  178.9310  141.3780 O   0  0  0  0  0  0  0  0  0  0  0  0
  189.8630  176.7010  142.1300 C   0  0  0  0  0  0  0  0  0  0  0  0
  190.5240  175.6440  142.3090 O   0  0  0  0  0  0  0  0  0  0  0  0
  190.3160  177.4290  144.5070 C   0  0  1  0  0  3  0  0  0  0  0  0
  190.9690  179.7200  143.9100 C   0  0  0  0  0  2  0  0  0  0  0  0
  190.9160  178.7310  145.0070 C   0  0  2  0  0  3  0  0  0  0  0  0
  192.1060  178.9900  144.3040 O   0  0  0  0  0  0  0  0  0  0  0  0
  189.3010  176.8730  145.5120 C   0  0  2  0  0  3  0  0  0  0  0  0
  187.9380  177.4710  145.3250 C   0  0  0  0  0  0  0  0  0  0  0  0
  186.0970  178.7660  146.2290 C   0  0  0  0  0  3  0  0  0  0  0  0
  185.9230  177.8090  144.0110 C   0  0  0  0  0  3  0  0  0  0  0  0
  185.3700  178.5620  145.0530 C   0  0  0  0  0  3  0  0  0  0  0  0
  187.2020  177.2630  144.1470 C   0  0  0  0  0  3  0  0  0  0  0  0
  187.3770  178.2210  146.3650 C   0  0  0  0  0  3  0  0  0  0  0  0
  189.8700  176.9860  147.2460 S   0  0  0  0  0  0  0  0  0  0  0  0
  191.3730  176.0340  146.8880 C   0  0  0  0  0  1  0  0  0  0  0  0
  1  6  1  1  0  0  0
  1  5  1  0  0  0  0
  2 13  1  0  0  0  0
  2 11  2  0  0  0  0
  3 25  1  1  0  0  0
  4  7  2  0  0  0  0
  7 11  1  0  0  0  0
  7  9  1  0  0  0  0
  8  4  1  0  0  0  0
  8  1  1  0  0  0  0
  9  5  1  0  0  0  0
 10  3  1  0  0  0  0
 11 10  1  0  0  0  0
 12 15  1  0  0  0  0
 12  2  1  0  0  0  0
 13 16  1  6  0  0  0
 13 14  1  0  0  0  0
 14  3  1  0  0  0  0
 15  4  1  0  0  0  0
 16 21  2  0  0  0  0
 17 20  1  0  0  0  0
 18 23  1  6  0  0  0
 18 17  1  0  0  0  0
 19 22  2  0  0  0  0
 19 21  1  0  0  0  0
 21 20  1  0  0  0  0
 22 18  1  0  0  0  0
 24 23  1  0  0  0  0
 25 27  1  0  0  0  0
 25 28  2  0  0  0  0
 27 29  1  0  0  0  0
 29 30  2  0  0  0  0
 29 26  1  0  0  0  0
 31 26  1  6  0  0  0
 31 35  1  0  0  0  0
 32 34  1  0  0  0  0
 32 33  1  0  0  0  0
 33 31  1  6  0  0  0
 34 33  1  0  0  0  0
 35 42  1  1  0  0  0
 36 35  1  0  0  0  0
 36 41  1  0  0  0  0
 37 41  2  0  0  0  0
 38 40  1  0  0  0  0
 38 39  2  0  0  0  0
 39 37  1  0  0  0  0
 40 36  2  0  0  0  0
 43 42  1  0  0  0  0
M  END
>  <MODEL>
6

>  <REMARK>
 VINA RESULT:      -7.5      3.184      9.659
  Name = 
  8 active torsions:
  status: ('A' for Active; 'I' for Inactive)
    1  A    between atoms: N_1  and  C_34
    2  A    between atoms: C_2  and  C_13
    3  A    between atoms: N_3  and  C_4
    4  A    between atoms: C_4  and  C_15
    5  A    between atoms: C_4  and  C_22
    6  A    between atoms: C_11  and  C_22
    7  A    between atoms: S_14  and  C_22
    8  A    between atoms: C_19  and  O_25
                            x       y       z     vdW  Elec       q    Type
                         _______ _______ _______ _____ _____    ______ ____

>  <TORSDO>
F 8

$$$$
=
 OpenBabel10262422243D

 43 48  0  0  1  0  0  0  0  0999 V2000
  188.1040  177.9770  147.3140 C   0  0  2  0  0  3  0  0  0  0  0  0
  185.2640  178.7660  143.0520 C   0  0  0  0  0  0  0  0  0  0  0  0
  187.0910  178.6470  140.8150 C   0  0  2  0  0  3  0  0  0  0  0  0
  186.1900  178.2430  145.6950 C   0  0  0  0  0  0  0  0  0  0  0  0
  188.8400  177.2810  146.1830 C   0  0  0  0  0  2  0  0  0  0  0  0
  188.4740  177.3370  148.6340 C   0  0  0  0  0  1  0  0  0  0  0  0
  187.0530  178.2120  144.6580 C   0  0  0  0  0  0  0  0  0  0  0  0
  186.6010  177.8500  147.0890 C   0  0  0  0  0  2  0  0  0  0  0  0
  188.5330  177.9970  144.8710 C   0  0  0  0  0  2  0  0  0  0  0  0
  187.4590  178.2780  142.1770 N   0  0  0  0  0  2  0  0  0  0  0  0
  186.5580  178.4520  143.2800 C   0  0  0  0  0  0  0  0  0  0  0  0
  184.3600  179.1230  144.2040 C   0  0  0  0  0  2  0  0  0  0  0  0
  184.7620  178.9940  141.6390 C   0  0  1  0  0  3  0  0  0  0  0  0
  185.6270  178.3200  140.5700 C   0  0  0  0  0  2  0  0  0  0  0  0
  184.8060  178.5000  145.4460 N   0  0  0  0  0  2  0  0  0  0  0  0
  183.3540  178.6110  141.4880 N   0  0  0  0  0  0  0  0  0  0  0  0
  182.1950  179.5270  138.0880 C   0  0  0  0  0  2  0  0  0  0  0  0
  180.7240  179.7310  138.4480 C   0  0  2  0  0  3  0  0  0  0  0  0
  181.1770  178.4560  140.5200 C   0  0  0  0  0  3  0  0  0  0  0  0
  183.0610  179.7530  139.3280 C   0  0  0  0  0  2  0  0  0  0  0  0
  182.5780  178.9120  140.4880 C   0  0  0  0  0  0  0  0  0  0  0  0
  180.3180  178.8050  139.5600 C   0  0  0  0  0  3  0  0  0  0  0  0
  179.9230  179.5130  137.3260 O   0  0  0  0  0  0  0  0  0  0  0  0
  180.6640  180.0170  136.2570 C   0  0  0  0  0  1  0  0  0  0  0  0
  187.9620  177.9310  139.8370 C   0  0  0  0  0  0  0  0  0  0  0  0
  189.8780  176.8100  137.8280 N   0  0  0  0  0  2  0  0  0  0  0  0
  188.3260  178.5870  138.6180 N   0  0  0  0  0  2  0  0  0  0  0  0
  188.3550  176.7590  140.0870 O   0  0  0  0  0  0  0  0  0  0  0  0
  189.2180  178.0620  137.6300 C   0  0  0  0  0  0  0  0  0  0  0  0
  189.4300  178.7270  136.5810 O   0  0  0  0  0  0  0  0  0  0  0  0
  190.8250  176.2700  136.8610 C   0  0  1  0  0  3  0  0  0  0  0  0
  193.0210  176.7520  137.8480 C   0  0  0  0  0  2  0  0  0  0  0  0
  192.0260  175.6900  137.5870 C   0  0  2  0  0  3  0  0  0  0  0  0
  193.1690  175.8460  136.7820 O   0  0  0  0  0  0  0  0  0  0  0  0
  190.1660  175.2150  135.9650 C   0  0  2  0  0  3  0  0  0  0  0  0
  188.6820  175.4040  135.8700 C   0  0  0  0  0  0  0  0  0  0  0  0
  186.4710  174.9500  136.7590 C   0  0  0  0  0  3  0  0  0  0  0  0
  186.7120  176.2600  134.7370 C   0  0  0  0  0  3  0  0  0  0  0  0
  185.8960  175.6740  135.7100 C   0  0  0  0  0  3  0  0  0  0  0  0
  188.1000  176.1240  134.8140 C   0  0  0  0  0  3  0  0  0  0  0  0
  187.8600  174.8140  136.8380 C   0  0  0  0  0  3  0  0  0  0  0  0
  190.6150  173.5020  136.4220 S   0  0  0  0  0  0  0  0  0  0  0  0
  190.1640  172.8720  134.7800 C   0  0  0  0  0  1  0  0  0  0  0  0
  1  6  1  1  0  0  0
  2 11  2  0  0  0  0
  2 12  1  0  0  0  0
  3 25  1  6  0  0  0
  3 10  1  0  0  0  0
  4  8  1  0  0  0  0
  5  1  1  0  0  0  0
  7  9  1  0  0  0  0
  7  4  2  0  0  0  0
  8  1  1  0  0  0  0
  9  5  1  0  0  0  0
 10 11  1  0  0  0  0
 11  7  1  0  0  0  0
 12 15  1  0  0  0  0
 13 16  1  1  0  0  0
 13  2  1  0  0  0  0
 14  3  1  0  0  0  0
 14 13  1  0  0  0  0
 15  4  1  0  0  0  0
 17 18  1  0  0  0  0
 17 20  1  0  0  0  0
 18 23  1  6  0  0  0
 18 22  1  0  0  0  0
 20 21  1  0  0  0  0
 21 19  1  0  0  0  0
 21 16  2  0  0  0  0
 22 19  2  0  0  0  0
 24 23  1  0  0  0  0
 25 28  2  0  0  0  0
 27 25  1  0  0  0  0
 29 26  1  0  0  0  0
 29 27  1  0  0  0  0
 30 29  2  0  0  0  0
 31 26  1  1  0  0  0
 33 31  1  6  0  0  0
 33 32  1  0  0  0  0
 34 33  1  0  0  0  0
 34 32  1  0  0  0  0
 35 42  1  1  0  0  0
 35 31  1  0  0  0  0
 36 35  1  0  0  0  0
 36 41  1  0  0  0  0
 37 41  2  0  0  0  0
 38 40  1  0  0  0  0
 38 39  2  0  0  0  0
 39 37  1  0  0  0  0
 40 36  2  0  0  0  0
 43 42  1  0  0  0  0
M  END
>  <MODEL>
7

>  <REMARK>
 VINA RESULT:      -7.4      2.116      3.046
  Name = 
  8 active torsions:
  status: ('A' for Active; 'I' for Inactive)
    1  A    between atoms: N_1  and  C_34
    2  A    between atoms: C_2  and  C_13
    3  A    between atoms: N_3  and  C_4
    4  A    between atoms: C_4  and  C_15
    5  A    between atoms: C_4  and  C_22
    6  A    between atoms: C_11  and  C_22
    7  A    between atoms: S_14  and  C_22
    8  A    between atoms: C_19  and  O_25
                            x       y       z     vdW  Elec       q    Type
                         _______ _______ _______ _____ _____    ______ ____

>  <TORSDO>
F 8

$$$$
=
 OpenBabel10262422243D

 43 48  0  0  1  0  0  0  0  0999 V2000
  184.3950  177.1470  135.8770 C   0  0  2  0  0  3  0  0  0  0  0  0
  189.3180  175.5940  136.3270 C   0  0  0  0  0  0  0  0  0  0  0  0
  190.3160  176.7380  138.7870 C   0  0  2  0  0  3  0  0  0  0  0  0
  186.5910  175.9450  135.5810 C   0  0  0  0  0  0  0  0  0  0  0  0
  184.7000  177.1410  137.3640 C   0  0  0  0  0  2  0  0  0  0  0  0
  182.9060  176.9880  135.6610 C   0  0  0  0  0  1  0  0  0  0  0  0
  187.0580  176.5040  136.7180 C   0  0  0  0  0  0  0  0  0  0  0  0
  185.1330  175.9920  135.2080 C   0  0  0  0  0  2  0  0  0  0  0  0
  186.1890  177.3990  137.5700 C   0  0  0  0  0  2  0  0  0  0  0  0
  188.9120  176.7720  138.3940 N   0  0  0  0  0  2  0  0  0  0  0  0
  188.4700  176.2890  137.1180 C   0  0  0  0  0  0  0  0  0  0  0  0
  188.9170  175.2410  134.9180 C   0  0  0  0  0  2  0  0  0  0  0  0
  190.7560  175.3650  136.7510 C   0  0  1  0  0  3  0  0  0  0  0  0
  190.9690  175.4690  138.2640 C   0  0  0  0  0  2  0  0  0  0  0  0
  187.4670  175.1450  134.7830 N   0  0  0  0  0  2  0  0  0  0  0  0
  191.2850  174.0980  136.2360 N   0  0  0  0  0  0  0  0  0  0  0  0
  194.9870  174.2690  136.1350 C   0  0  0  0  0  2  0  0  0  0  0  0
  195.1810  173.2910  134.9770 C   0  0  2  0  0  3  0  0  0  0  0  0
  192.8680  172.5190  135.3960 C   0  0  0  0  0  3  0  0  0  0  0  0
  193.6010  174.9070  136.0390 C   0  0  0  0  0  2  0  0  0  0  0  0
  192.5240  173.8530  135.9230 C   0  0  0  0  0  0  0  0  0  0  0  0
  194.1060  172.2400  134.9850 C   0  0  0  0  0  3  0  0  0  0  0  0
  196.4380  172.6910  135.0640 O   0  0  0  0  0  0  0  0  0  0  0  0
  196.6170  172.4370  136.4240 C   0  0  0  0  0  1  0  0  0  0  0  0
  190.4350  176.8180  140.2730 C   0  0  0  0  0  0  0  0  0  0  0  0
  190.5240  176.6490  143.2610 N   0  0  0  0  0  2  0  0  0  0  0  0
  189.3610  176.3290  141.0840 N   0  0  0  0  0  2  0  0  0  0  0  0
  191.4650  177.3240  140.7950 O   0  0  0  0  0  0  0  0  0  0  0  0
  189.3680  176.2610  142.5140 C   0  0  0  0  0  0  0  0  0  0  0  0
  188.3430  175.8390  143.1120 O   0  0  0  0  0  0  0  0  0  0  0  0
  190.5770  176.5510  144.7140 C   0  0  1  0  0  3  0  0  0  0  0  0
  191.7500  175.1790  146.3790 C   0  0  0  0  0  2  0  0  0  0  0  0
  191.9130  175.9690  145.1400 C   0  0  2  0  0  3  0  0  0  0  0  0
  192.2600  176.4890  146.4000 O   0  0  0  0  0  0  0  0  0  0  0  0
  190.3390  177.9140  145.3740 C   0  0  2  0  0  3  0  0  0  0  0  0
  189.0660  177.9410  146.1660 C   0  0  0  0  0  0  0  0  0  0  0  0
  187.9660  177.9470  148.3280 C   0  0  0  0  0  3  0  0  0  0  0  0
  186.6410  177.9170  146.3010 C   0  0  0  0  0  3  0  0  0  0  0  0
  186.7180  177.9310  147.6980 C   0  0  0  0  0  3  0  0  0  0  0  0
  187.8100  177.9190  145.5370 C   0  0  0  0  0  3  0  0  0  0  0  0
  189.1360  177.9500  147.5640 C   0  0  0  0  0  3  0  0  0  0  0  0
  190.4490  179.3110  144.2000 S   0  0  0  0  0  0  0  0  0  0  0  0
  192.2630  179.3120  144.2620 C   0  0  0  0  0  1  0  0  0  0  0  0
  1  6  1  1  0  0  0
  1  5  1  0  0  0  0
  2 13  1  0  0  0  0
  2 11  2  0  0  0  0
  3 25  1  1  0  0  0
  4  7  2  0  0  0  0
  5  9  1  0  0  0  0
  7 11  1  0  0  0  0
  7  9  1  0  0  0  0
  8  4  1  0  0  0  0
  8  1  1  0  0  0  0
 10  3  1  0  0  0  0
 11 10  1  0  0  0  0
 12  2  1  0  0  0  0
 13 16  1  1  0  0  0
 13 14  1  0  0  0  0
 14  3  1  0  0  0  0
 15 12  1  0  0  0  0
 15  4  1  0  0  0  0
 18 22  1  0  0  0  0
 18 23  1  1  0  0  0
 18 17  1  0  0  0  0
 19 21  1  0  0  0  0
 20 17  1  0  0  0  0
 21 20  1  0  0  0  0
 21 16  2  0  0  0  0
 22 19  2  0  0  0  0
 23 24  1  0  0  0  0
 25 28  2  0  0  0  0
 25 27  1  0  0  0  0
 27 29  1  0  0  0  0
 29 30  2  0  0  0  0
 29 26  1  0  0  0  0
 31 26  1  6  0  0  0
 31 35  1  0  0  0  0
 32 34  1  0  0  0  0
 33 31  1  1  0  0  0
 33 32  1  0  0  0  0
 33 34  1  0  0  0  0
 35 42  1  6  0  0  0
 35 36  1  0  0  0  0
 36 41  1  0  0  0  0
 38 39  2  0  0  0  0
 39 37  1  0  0  0  0
 40 36  2  0  0  0  0
 40 38  1  0  0  0  0
 41 37  2  0  0  0  0
 42 43  1  0  0  0  0
M  END
>  <MODEL>
8

>  <REMARK>
 VINA RESULT:      -7.3      3.840     11.255
  Name = 
  8 active torsions:
  status: ('A' for Active; 'I' for Inactive)
    1  A    between atoms: N_1  and  C_34
    2  A    between atoms: C_2  and  C_13
    3  A    between atoms: N_3  and  C_4
    4  A    between atoms: C_4  and  C_15
    5  A    between atoms: C_4  and  C_22
    6  A    between atoms: C_11  and  C_22
    7  A    between atoms: S_14  and  C_22
    8  A    between atoms: C_19  and  O_25
                            x       y       z     vdW  Elec       q    Type
                         _______ _______ _______ _____ _____    ______ ____

>  <TORSDO>
F 8

$$$$
=
 OpenBabel10262422243D

 43 48  0  0  1  0  0  0  0  0999 V2000
  182.7780  176.7520  135.0350 C   0  0  2  0  0  3  0  0  0  0  0  0
  187.7680  176.2210  136.3280 C   0  0  0  0  0  0  0  0  0  0  0  0
  188.1440  177.7150  138.7750 C   0  0  2  0  0  3  0  0  0  0  0  0
  185.1740  175.9800  135.1750 C   0  0  0  0  0  0  0  0  0  0  0  0
  182.8420  176.9150  136.5440 C   0  0  0  0  0  2  0  0  0  0  0  0
  181.3950  176.2920  134.6300 C   0  0  0  0  0  1  0  0  0  0  0  0
  185.3480  176.7010  136.3030 C   0  0  0  0  0  0  0  0  0  0  0  0
  183.8090  175.7170  134.5980 C   0  0  0  0  0  2  0  0  0  0  0  0
  184.2090  177.4710  136.9290 C   0  0  0  0  0  2  0  0  0  0  0  0
  186.8370  177.4460  138.1880 N   0  0  0  0  0  2  0  0  0  0  0  0
  186.6950  176.7940  136.9170 C   0  0  0  0  0  0  0  0  0  0  0  0
  187.6640  175.6950  134.9210 C   0  0  0  0  0  2  0  0  0  0  0  0
  189.1390  176.3070  136.9710 C   0  0  1  0  0  3  0  0  0  0  0  0
  189.0890  176.5610  138.4810 C   0  0  0  0  0  2  0  0  0  0  0  0
  186.2950  175.3100  134.5940 N   0  0  0  0  0  2  0  0  0  0  0  0
  189.9620  175.1330  136.6670 N   0  0  0  0  0  0  0  0  0  0  0  0
  193.4710  175.8090  137.6550 C   0  0  0  0  0  2  0  0  0  0  0  0
  194.1280  174.8850  136.6310 C   0  0  2  0  0  3  0  0  0  0  0  0
  191.9210  173.7980  136.3710 C   0  0  0  0  0  3  0  0  0  0  0  0
  192.1020  176.2530  137.1390 C   0  0  0  0  0  2  0  0  0  0  0  0
  191.2600  175.0630  136.7390 C   0  0  0  0  0  0  0  0  0  0  0  0
  193.2510  173.6970  136.3500 C   0  0  0  0  0  3  0  0  0  0  0  0
  195.3730  174.4610  137.0990 O   0  0  0  0  0  0  0  0  0  0  0  0
  195.0810  173.6250  138.1760 C   0  0  0  0  0  1  0  0  0  0  0  0
  188.0110  177.9250  140.2470 C   0  0  0  0  0  0  0  0  0  0  0  0
  187.3900  178.2920  143.1530 N   0  0  0  0  0  2  0  0  0  0  0  0
  186.9050  178.6860  140.7440 N   0  0  0  0  0  2  0  0  0  0  0  0
  188.8750  177.4460  141.0300 O   0  0  0  0  0  0  0  0  0  0  0  0
  186.6010  178.8980  142.1260 C   0  0  0  0  0  0  0  0  0  0  0  0
  185.6130  179.6170  142.4330 O   0  0  0  0  0  0  0  0  0  0  0  0
  187.0800  178.4530  144.5670 C   0  0  1  0  0  3  0  0  0  0  0  0
  184.6770  178.2250  145.0210 C   0  0  0  0  0  2  0  0  0  0  0  0
  185.9650  177.5010  144.9600 C   0  0  2  0  0  3  0  0  0  0  0  0
  185.4110  177.9210  146.1820 O   0  0  0  0  0  0  0  0  0  0  0  0
  188.3210  178.2300  145.4390 C   0  0  2  0  0  3  0  0  0  0  0  0
  189.5010  177.7730  144.6340 C   0  0  0  0  0  0  0  0  0  0  0  0
  190.6520  175.9830  143.4710 C   0  0  0  0  0  3  0  0  0  0  0  0
  191.6670  178.1770  143.6110 C   0  0  0  0  0  3  0  0  0  0  0  0
  191.7090  176.8480  143.1750 C   0  0  0  0  0  3  0  0  0  0  0  0
  190.5680  178.6380  144.3410 C   0  0  0  0  0  3  0  0  0  0  0  0
  189.5520  176.4430  144.1990 C   0  0  0  0  0  3  0  0  0  0  0  0
  188.0060  177.1430  146.8750 S   0  0  0  0  0  0  0  0  0  0  0  0
  189.0440  178.1600  147.9620 C   0  0  0  0  0  1  0  0  0  0  0  0
  1  6  1  1  0  0  0
  1  5  1  0  0  0  0
  2 11  2  0  0  0  0
  2 13  1  0  0  0  0
  3 25  1  1  0  0  0
  4  7  2  0  0  0  0
  5  9  1  0  0  0  0
  7 11  1  0  0  0  0
  7  9  1  0  0  0  0
  8  1  1  0  0  0  0
  8  4  1  0  0  0  0
 10  3  1  0  0  0  0
 11 10  1  0  0  0  0
 12  2  1  0  0  0  0
 13 16  1  1  0  0  0
 13 14  1  0  0  0  0
 14  3  1  0  0  0  0
 15 12  1  0  0  0  0
 15  4  1  0  0  0  0
 16 21  2  0  0  0  0
 18 23  1  1  0  0  0
 18 17  1  0  0  0  0
 19 21  1  0  0  0  0
 20 17  1  0  0  0  0
 21 20  1  0  0  0  0
 22 19  2  0  0  0  0
 22 18  1  0  0  0  0
 23 24  1  0  0  0  0
 25 27  1  0  0  0  0
 25 28  2  0  0  0  0
 27 29  1  0  0  0  0
 29 30  2  0  0  0  0
 29 26  1  0  0  0  0
 31 26  1  6  0  0  0
 31 35  1  0  0  0  0
 32 34  1  0  0  0  0
 33 31  1  6  0  0  0
 33 32  1  0  0  0  0
 33 34  1  0  0  0  0
 35 42  1  1  0  0  0
 36 35  1  0  0  0  0
 37 41  1  0  0  0  0
 38 40  2  0  0  0  0
 39 37  2  0  0  0  0
 39 38  1  0  0  0  0
 40 36  1  0  0  0  0
 41 36  2  0  0  0  0
 42 43  1  0  0  0  0
M  END
>  <MODEL>
9

>  <REMARK>
 VINA RESULT:      -6.7      3.160     10.747
  Name = 
  8 active torsions:
  status: ('A' for Active; 'I' for Inactive)
    1  A    between atoms: N_1  and  C_34
    2  A    between atoms: C_2  and  C_13
    3  A    between atoms: N_3  and  C_4
    4  A    between atoms: C_4  and  C_15
    5  A    between atoms: C_4  and  C_22
    6  A    between atoms: C_11  and  C_22
    7  A    between atoms: S_14  and  C_22
    8  A    between atoms: C_19  and  O_25
                            x       y       z     vdW  Elec       q    Type
                         _______ _______ _______ _____ _____    ______ ____

>  <TORSDO>
F 8

$$$$
