=
 OpenBabel10262419213D

 31 36  0  0  1  0  0  0  0  0999 V2000
  182.2620  178.7210  143.9590 C   0  0  0  0  0  0  0  0  0  0  0  0
  184.0080  178.1830  140.6900 N   0  0  0  0  0  0  0  0  0  0  0  0
  183.0260  177.7880  139.7020 C   0  0  2  0  0  3  0  0  0  0  0  0
  181.2340  176.1410  139.1040 C   0  0  0  0  0  2  0  0  0  0  0  0
  183.7460  178.5590  142.0450 C   0  0  0  0  0  0  0  0  0  0  0  0
  183.2570  179.4020  144.6690 C   0  0  0  0  0  3  0  0  0  0  0  0
  182.5290  176.3650  139.8950 C   0  0  0  0  0  2  0  0  0  0  0  0
  186.4230  178.9700  140.9240 C   0  0  2  0  0  3  0  0  0  0  0  0
  181.0570  178.4890  144.5350 F   0  0  0  0  0  0  0  0  0  0  0  0
  185.1150  178.5470  138.5760 C   0  0  2  0  0  3  0  0  0  0  0  0
  181.3760  176.3720  137.5860 C   0  0  0  0  0  2  0  0  0  0  0  0
  186.0040  179.4990  142.1910 O   0  0  0  0  0  0  0  0  0  0  0  0
  185.2030  178.6740  140.0420 C   0  0  1  0  0  0  0  0  0  0  0  0
  182.5010  178.3050  142.6460 C   0  0  0  0  0  3  0  0  0  0  0  0
  181.4770  177.8690  137.2380 C   0  0  0  0  0  2  0  0  0  0  0  0
  184.7520  179.2260  142.7740 C   0  0  0  0  0  0  0  0  0  0  0  0
  184.4970  179.6540  144.0780 C   0  0  0  0  0  3  0  0  0  0  0  0
  184.9080  179.7830  139.2240 O   0  0  0  0  0  0  0  0  0  0  0  0
  183.7740  177.8280  138.3710 C   0  0  2  0  0  3  0  0  0  0  0  0
  182.9160  178.4270  137.2590 C   0  0  0  0  0  2  0  0  0  0  0  0
  188.6970  178.0070  140.3590 C   0  0  0  0  0  2  0  0  0  0  0  0
  188.6960  178.2010  141.8630 C   0  0  1  0  0  3  0  0  0  0  0  0
  187.4110  177.8080  141.1480 C   0  0  1  0  0  3  0  0  0  0  0  0
  189.2540  176.9630  142.5400 C   0  0  0  0  0  2  0  0  0  0  0  0
  189.6030  177.2120  144.0070 C   0  0  0  0  0  2  0  0  0  0  0  0
  191.7540  177.8590  143.2350 O   0  0  0  0  0  0  0  0  0  0  0  0
  191.0570  177.5260  144.2310 C   0  0  0  0  0  0  0  0  0  0  0  0
  191.6740  177.4720  145.5230 N   0  0  0  0  0  2  0  0  0  0  0  0
  191.2030  176.7740  146.6830 C   0  0  0  0  0  0  0  0  0  0  0  0
  190.0690  177.2860  147.3760 N   0  0  0  0  0  1  0  0  0  0  0  0
  192.1640  175.6840  147.4450 S   0  0  0  0  0  0  0  0  0  0  0  0
  1  9  1  0  0  0  0
  1  6  1  0  0  0  0
  2  5  1  0  0  0  0
  3  7  1  1  0  0  0
  3  2  1  0  0  0  0
  4  7  1  0  0  0  0
  5 14  1  0  0  0  0
  5 16  2  0  0  0  0
  8 23  1  0  0  0  0
  8 12  1  1  0  0  0
 10 18  1  6  0  0  0
 10 13  1  0  0  0  0
 11  4  1  0  0  0  0
 12 16  1  0  0  0  0
 13 18  1  1  0  0  0
 13  2  1  0  0  0  0
 13  8  1  0  0  0  0
 14  1  2  0  0  0  0
 15 20  1  0  0  0  0
 15 11  1  0  0  0  0
 16 17  1  0  0  0  0
 17  6  2  0  0  0  0
 19 20  1  6  0  0  0
 19 10  1  0  0  0  0
 19  3  1  0  0  0  0
 21 22  1  0  0  0  0
 22 24  1  1  0  0  0
 23 21  1  6  0  0  0
 23 22  1  0  0  0  0
 24 25  1  0  0  0  0
 25 27  1  0  0  0  0
 26 27  2  0  0  0  0
 27 28  1  0  0  0  0
 28 29  1  0  0  0  0
 29 30  1  0  0  0  0
 29 31  2  0  0  0  0
M  END
>  <MODEL>
1

>  <REMARK>
 VINA RESULT:      -8.1      0.000      0.000
  Name = 
  5 active torsions:
  status: ('A' for Active; 'I' for Inactive)
    1  A    between atoms: C_1  and  N_24
    2  A    between atoms: C_3  and  C_9
    3  A    between atoms: C_3  and  C_22
    4  A    between atoms: C_15  and  C_23
    5  A    between atoms: C_19  and  C_22
                            x       y       z     vdW  Elec       q    Type
                         _______ _______ _______ _____ _____    ______ ____

>  <TORSDO>
F 5

$$$$
=
 OpenBabel10262419213D

 31 36  0  0  1  0  0  0  0  0999 V2000
  183.4220  178.1750  138.8170 C   0  0  0  0  0  0  0  0  0  0  0  0
  187.1270  177.6620  138.6140 N   0  0  0  0  0  0  0  0  0  0  0  0
  187.4520  177.1690  137.2920 C   0  0  2  0  0  3  0  0  0  0  0  0
  187.0330  175.3840  135.5830 C   0  0  0  0  0  2  0  0  0  0  0  0
  185.8330  178.0590  139.0780 C   0  0  0  0  0  0  0  0  0  0  0  0
  183.3360  178.9450  139.9820 C   0  0  0  0  0  3  0  0  0  0  0  0
  187.0420  175.7220  137.0800 C   0  0  0  0  0  2  0  0  0  0  0  0
  188.1920  178.6220  140.7230 C   0  0  2  0  0  3  0  0  0  0  0  0
  182.3000  177.8770  138.1180 F   0  0  0  0  0  0  0  0  0  0  0  0
  189.5020  178.0380  138.4110 C   0  0  2  0  0  3  0  0  0  0  0  0
  188.3950  175.5780  134.8870 C   0  0  0  0  0  2  0  0  0  0  0  0
  186.8890  179.1580  140.9960 O   0  0  0  0  0  0  0  0  0  0  0  0
  188.3020  178.2140  139.2480 C   0  0  1  0  0  0  0  0  0  0  0  0
  184.6690  177.7370  138.3590 C   0  0  0  0  0  3  0  0  0  0  0  0
  188.7280  177.0680  134.6770 C   0  0  0  0  0  2  0  0  0  0  0  0
  185.7370  178.8160  140.2630 C   0  0  0  0  0  0  0  0  0  0  0  0
  184.4900  179.2650  140.7020 C   0  0  0  0  0  3  0  0  0  0  0  0
  188.8290  179.2750  138.4840 O   0  0  0  0  0  0  0  0  0  0  0  0
  188.9770  177.2210  137.2210 C   0  0  2  0  0  3  0  0  0  0  0  0
  189.4630  177.7250  135.8640 C   0  0  0  0  0  2  0  0  0  0  0  0
  189.9640  177.0400  141.6040 C   0  0  0  0  0  2  0  0  0  0  0  0
  189.6080  177.9440  142.7670 C   0  0  1  0  0  3  0  0  0  0  0  0
  188.5360  177.5380  141.7650 C   0  0  1  0  0  3  0  0  0  0  0  0
  189.4150  177.1140  144.0220 C   0  0  0  0  0  2  0  0  0  0  0  0
  189.4210  177.9680  145.2890 C   0  0  0  0  0  2  0  0  0  0  0  0
  189.3070  176.4080  147.0780 O   0  0  0  0  0  0  0  0  0  0  0  0
  188.7110  177.3230  146.4490 C   0  0  0  0  0  0  0  0  0  0  0  0
  187.3980  177.7130  146.8700 N   0  0  0  0  0  2  0  0  0  0  0  0
  186.4140  178.4210  146.1060 C   0  0  0  0  0  0  0  0  0  0  0  0
  185.5840  179.3700  146.7690 N   0  0  0  0  0  1  0  0  0  0  0  0
  185.9550  177.8730  144.6290 S   0  0  0  0  0  0  0  0  0  0  0  0
  1  6  1  0  0  0  0
  2  5  1  0  0  0  0
  2 13  1  0  0  0  0
  3  7  1  1  0  0  0
  3  2  1  0  0  0  0
  4  7  1  0  0  0  0
  5 16  2  0  0  0  0
  6 17  2  0  0  0  0
  8 12  1  1  0  0  0
  8 23  1  0  0  0  0
  9  1  1  0  0  0  0
 10 18  1  6  0  0  0
 10 13  1  0  0  0  0
 11  4  1  0  0  0  0
 13 18  1  6  0  0  0
 13  8  1  0  0  0  0
 14  1  2  0  0  0  0
 14  5  1  0  0  0  0
 15 11  1  0  0  0  0
 15 20  1  0  0  0  0
 16 17  1  0  0  0  0
 16 12  1  0  0  0  0
 19 20  1  6  0  0  0
 19  3  1  0  0  0  0
 19 10  1  0  0  0  0
 21 22  1  0  0  0  0
 22 24  1  1  0  0  0
 23 21  1  6  0  0  0
 23 22  1  0  0  0  0
 24 25  1  0  0  0  0
 25 27  1  0  0  0  0
 27 28  1  0  0  0  0
 27 26  2  0  0  0  0
 29 30  1  0  0  0  0
 29 28  1  0  0  0  0
 31 29  2  0  0  0  0
M  END
>  <MODEL>
2

>  <REMARK>
 VINA RESULT:      -8.0      3.390      4.666
  Name = 
  5 active torsions:
  status: ('A' for Active; 'I' for Inactive)
    1  A    between atoms: C_1  and  N_24
    2  A    between atoms: C_3  and  C_9
    3  A    between atoms: C_3  and  C_22
    4  A    between atoms: C_15  and  C_23
    5  A    between atoms: C_19  and  C_22
                            x       y       z     vdW  Elec       q    Type
                         _______ _______ _______ _____ _____    ______ ____

>  <TORSDO>
F 5

$$$$
=
 OpenBabel10262419213D

 31 36  0  0  1  0  0  0  0  0999 V2000
  189.2760  178.1910  148.4530 C   0  0  0  0  0  0  0  0  0  0  0  0
  188.5260  177.7910  144.8060 N   0  0  0  0  0  0  0  0  0  0  0  0
  189.7790  177.7310  144.0810 C   0  0  2  0  0  3  0  0  0  0  0  0
  191.9450  178.8900  143.5880 C   0  0  0  0  0  2  0  0  0  0  0  0
  188.3690  177.8620  146.2260 C   0  0  0  0  0  0  0  0  0  0  0  0
  188.0250  177.8930  149.0040 C   0  0  0  0  0  3  0  0  0  0  0  0
  190.4770  179.0770  143.9910 C   0  0  0  0  0  2  0  0  0  0  0  0
  186.0230  177.3830  144.5350 C   0  0  2  0  0  3  0  0  0  0  0  0
  190.3230  178.4750  149.2650 F   0  0  0  0  0  0  0  0  0  0  0  0
  187.9250  176.8630  142.6610 C   0  0  2  0  0  3  0  0  0  0  0  0
  192.1390  178.1840  142.2310 C   0  0  0  0  0  2  0  0  0  0  0  0
  186.0070  177.2650  145.9650 O   0  0  0  0  0  0  0  0  0  0  0  0
  187.4560  177.2410  144.0050 C   0  0  1  0  0  0  0  0  0  0  0  0
  189.4520  178.1700  147.0660 C   0  0  0  0  0  3  0  0  0  0  0  0
  191.8400  176.6750  142.3180 C   0  0  0  0  0  2  0  0  0  0  0  0
  187.1050  177.5840  146.7860 C   0  0  0  0  0  0  0  0  0  0  0  0
  186.9440  177.5890  148.1730 C   0  0  0  0  0  3  0  0  0  0  0  0
  187.7240  175.8990  143.6700 O   0  0  0  0  0  0  0  0  0  0  0  0
  189.3880  177.3290  142.6600 C   0  0  2  0  0  3  0  0  0  0  0  0
  190.3610  176.3090  142.0740 C   0  0  0  0  0  2  0  0  0  0  0  0
  185.2410  178.8170  142.5990 C   0  0  0  0  0  2  0  0  0  0  0  0
  183.9810  178.3800  143.3200 C   0  0  1  0  0  3  0  0  0  0  0  0
  185.2530  178.6500  144.1110 C   0  0  1  0  0  3  0  0  0  0  0  0
  183.0550  179.5690  143.5010 C   0  0  0  0  0  2  0  0  0  0  0  0
  181.5910  179.1490  143.6270 C   0  0  0  0  0  2  0  0  0  0  0  0
  180.0420  180.7720  142.8450 O   0  0  0  0  0  0  0  0  0  0  0  0
  180.7060  179.7380  142.5630 C   0  0  0  0  0  0  0  0  0  0  0  0
  180.5980  179.1830  141.2470 N   0  0  0  0  0  2  0  0  0  0  0  0
  180.9380  177.8530  140.8340 C   0  0  0  0  0  0  0  0  0  0  0  0
  182.2200  177.6200  140.2600 N   0  0  0  0  0  1  0  0  0  0  0  0
  179.7660  176.7230  140.6240 S   0  0  0  0  0  0  0  0  0  0  0  0
  1  6  1  0  0  0  0
  1  9  1  0  0  0  0
  2  5  1  0  0  0  0
  3  7  1  6  0  0  0
  3  2  1  0  0  0  0
  4  7  1  0  0  0  0
  5 16  2  0  0  0  0
  5 14  1  0  0  0  0
  8 12  1  1  0  0  0
 10 18  1  1  0  0  0
 10 13  1  0  0  0  0
 11 15  1  0  0  0  0
 11  4  1  0  0  0  0
 12 16  1  0  0  0  0
 13 18  1  1  0  0  0
 13  8  1  0  0  0  0
 13  2  1  0  0  0  0
 14  1  2  0  0  0  0
 16 17  1  0  0  0  0
 17  6  2  0  0  0  0
 19 20  1  1  0  0  0
 19 10  1  0  0  0  0
 19  3  1  0  0  0  0
 20 15  1  0  0  0  0
 21 22  1  0  0  0  0
 22 24  1  1  0  0  0
 22 23  1  0  0  0  0
 23 21  1  6  0  0  0
 23  8  1  0  0  0  0
 24 25  1  0  0  0  0
 27 26  2  0  0  0  0
 27 25  1  0  0  0  0
 28 27  1  0  0  0  0
 29 28  1  0  0  0  0
 30 29  1  0  0  0  0
 31 29  2  0  0  0  0
M  END
>  <MODEL>
3

>  <REMARK>
 VINA RESULT:      -8.0      4.166      8.572
  Name = 
  5 active torsions:
  status: ('A' for Active; 'I' for Inactive)
    1  A    between atoms: C_1  and  N_24
    2  A    between atoms: C_3  and  C_9
    3  A    between atoms: C_3  and  C_22
    4  A    between atoms: C_15  and  C_23
    5  A    between atoms: C_19  and  C_22
                            x       y       z     vdW  Elec       q    Type
                         _______ _______ _______ _____ _____    ______ ____

>  <TORSDO>
F 5

$$$$
=
 OpenBabel10262419213D

 31 36  0  0  1  0  0  0  0  0999 V2000
  183.6800  178.0420  137.6760 C   0  0  0  0  0  0  0  0  0  0  0  0
  187.2680  177.4370  138.5650 N   0  0  0  0  0  0  0  0  0  0  0  0
  187.9280  176.8270  137.4280 C   0  0  2  0  0  3  0  0  0  0  0  0
  187.9250  174.9130  135.8100 C   0  0  0  0  0  2  0  0  0  0  0  0
  185.9140  177.8980  138.6140 C   0  0  0  0  0  0  0  0  0  0  0  0
  183.3060  178.9090  138.7090 C   0  0  0  0  0  3  0  0  0  0  0  0
  187.5300  175.3760  137.2190 C   0  0  0  0  0  2  0  0  0  0  0  0
  187.7430  178.5480  140.8100 C   0  0  2  0  0  3  0  0  0  0  0  0
  182.7860  177.7090  136.7130 F   0  0  0  0  0  0  0  0  0  0  0  0
  189.6190  177.7450  139.0110 C   0  0  2  0  0  3  0  0  0  0  0  0
  189.4340  175.0200  135.5130 C   0  0  0  0  0  2  0  0  0  0  0  0
  186.4400  179.1330  140.6630 O   0  0  0  0  0  0  0  0  0  0  0  0
  188.2420  178.0160  139.4600 C   0  0  1  0  0  0  0  0  0  0  0  0
  184.9840  177.5410  137.6220 C   0  0  0  0  0  3  0  0  0  0  0  0
  189.8770  176.4790  135.2940 C   0  0  0  0  0  2  0  0  0  0  0  0
  185.5240  178.7550  139.6640 C   0  0  0  0  0  0  0  0  0  0  0  0
  184.2250  179.2640  139.6980 C   0  0  0  0  0  3  0  0  0  0  0  0
  189.0070  178.9970  138.7980 O   0  0  0  0  0  0  0  0  0  0  0  0
  189.4120  176.8420  137.7870 C   0  0  2  0  0  3  0  0  0  0  0  0
  190.2790  177.2180  136.5870 C   0  0  0  0  0  2  0  0  0  0  0  0
  188.9840  176.6820  141.9910 C   0  0  0  0  0  2  0  0  0  0  0  0
  188.8260  177.7850  143.0200 C   0  0  1  0  0  3  0  0  0  0  0  0
  187.7340  177.5500  141.9850 C   0  0  1  0  0  3  0  0  0  0  0  0
  188.3580  177.1940  144.3370 C   0  0  0  0  0  2  0  0  0  0  0  0
  188.8040  178.0270  145.5370 C   0  0  0  0  0  2  0  0  0  0  0  0
  187.5870  177.3830  147.4730 O   0  0  0  0  0  0  0  0  0  0  0  0
  188.6780  177.3010  146.8490 C   0  0  0  0  0  0  0  0  0  0  0  0
  189.7390  176.5160  147.4080 N   0  0  0  0  0  2  0  0  0  0  0  0
  191.1350  176.5900  147.0910 C   0  0  0  0  0  0  0  0  0  0  0  0
  192.0370  177.0810  148.0780 N   0  0  0  0  0  1  0  0  0  0  0  0
  191.6370  176.5250  145.5300 S   0  0  0  0  0  0  0  0  0  0  0  0
  1  6  1  0  0  0  0
  2  5  1  0  0  0  0
  2 13  1  0  0  0  0
  3  7  1  1  0  0  0
  3 19  1  0  0  0  0
  3  2  1  0  0  0  0
  4  7  1  0  0  0  0
  5 16  2  0  0  0  0
  6 17  2  0  0  0  0
  8 12  1  6  0  0  0
  8 23  1  0  0  0  0
  9  1  1  0  0  0  0
 10 18  1  6  0  0  0
 10 13  1  0  0  0  0
 11  4  1  0  0  0  0
 13 18  1  6  0  0  0
 13  8  1  0  0  0  0
 14  1  2  0  0  0  0
 14  5  1  0  0  0  0
 15 11  1  0  0  0  0
 15 20  1  0  0  0  0
 16 17  1  0  0  0  0
 16 12  1  0  0  0  0
 19 20  1  6  0  0  0
 19 10  1  0  0  0  0
 21 22  1  0  0  0  0
 22 24  1  1  0  0  0
 23 21  1  6  0  0  0
 23 22  1  0  0  0  0
 24 25  1  0  0  0  0
 25 27  1  0  0  0  0
 27 28  1  0  0  0  0
 27 26  2  0  0  0  0
 29 28  1  0  0  0  0
 29 30  1  0  0  0  0
 31 29  2  0  0  0  0
M  END
>  <MODEL>
4

>  <REMARK>
 VINA RESULT:      -7.7      3.195      4.844
  Name = 
  5 active torsions:
  status: ('A' for Active; 'I' for Inactive)
    1  A    between atoms: C_1  and  N_24
    2  A    between atoms: C_3  and  C_9
    3  A    between atoms: C_3  and  C_22
    4  A    between atoms: C_15  and  C_23
    5  A    between atoms: C_19  and  C_22
                            x       y       z     vdW  Elec       q    Type
                         _______ _______ _______ _____ _____    ______ ____

>  <TORSDO>
F 5

$$$$
=
 OpenBabel10262419213D

 31 36  0  0  1  0  0  0  0  0999 V2000
  190.2550  177.5060  141.2140 C   0  0  0  0  0  0  0  0  0  0  0  0
  186.6950  178.0940  142.2200 N   0  0  0  0  0  0  0  0  0  0  0  0
  186.6240  178.1250  143.6670 C   0  0  2  0  0  3  0  0  0  0  0  0
  187.1030  176.8880  145.7930 C   0  0  0  0  0  2  0  0  0  0  0  0
  187.8820  177.9700  141.4310 C   0  0  0  0  0  0  0  0  0  0  0  0
  190.1930  177.8400  139.8560 C   0  0  0  0  0  3  0  0  0  0  0  0
  186.7830  176.7530  144.2990 C   0  0  0  0  0  2  0  0  0  0  0  0
  185.3410  178.6290  140.1270 C   0  0  2  0  0  3  0  0  0  0  0  0
  191.4360  177.1400  141.7680 F   0  0  0  0  0  0  0  0  0  0  0  0
  184.5700  179.1380  142.6860 C   0  0  2  0  0  3  0  0  0  0  0  0
  186.0260  177.6400  146.6010 C   0  0  0  0  0  2  0  0  0  0  0  0
  186.6120  178.6890  139.4630 O   0  0  0  0  0  0  0  0  0  0  0  0
  185.5300  178.7270  141.6470 C   0  0  1  0  0  0  0  0  0  0  0  0
  189.1040  177.5770  142.0040 C   0  0  0  0  0  3  0  0  0  0  0  0
  186.0560  179.1570  146.3290 C   0  0  0  0  0  2  0  0  0  0  0  0
  187.8220  178.2840  140.0580 C   0  0  0  0  0  0  0  0  0  0  0  0
  188.9810  178.2280  139.2810 C   0  0  0  0  0  3  0  0  0  0  0  0
  185.4320  180.0680  142.0680 O   0  0  0  0  0  0  0  0  0  0  0  0
  185.2080  178.6040  143.9770 C   0  0  2  0  0  3  0  0  0  0  0  0
  185.1890  179.6010  145.1330 C   0  0  0  0  0  2  0  0  0  0  0  0
  183.0500  177.7220  139.5390 C   0  0  0  0  0  2  0  0  0  0  0  0
  183.8630  177.6410  138.2620 C   0  0  1  0  0  3  0  0  0  0  0  0
  184.5400  177.4190  139.6070 C   0  0  1  0  0  3  0  0  0  0  0  0
  183.6610  176.2860  137.6100 C   0  0  0  0  0  2  0  0  0  0  0  0
  184.5360  176.1020  136.3710 C   0  0  0  0  0  2  0  0  0  0  0  0
  186.6870  177.0970  136.5380 O   0  0  0  0  0  0  0  0  0  0  0  0
  186.0070  176.0450  136.6820 C   0  0  0  0  0  0  0  0  0  0  0  0
  186.6600  174.8550  137.1420 N   0  0  0  0  0  2  0  0  0  0  0  0
  186.1970  173.5050  137.0120 C   0  0  0  0  0  0  0  0  0  0  0  0
  185.2680  173.0040  137.9680 N   0  0  0  0  0  1  0  0  0  0  0  0
  187.0110  172.4340  136.0720 S   0  0  0  0  0  0  0  0  0  0  0  0
  1  9  1  0  0  0  0
  1 14  1  0  0  0  0
  2  3  1  0  0  0  0
  3 19  1  0  0  0  0
  3  7  1  1  0  0  0
  4 11  1  0  0  0  0
  5 14  2  0  0  0  0
  5  2  1  0  0  0  0
  6  1  2  0  0  0  0
  7  4  1  0  0  0  0
  8 12  1  6  0  0  0
  8 13  1  0  0  0  0
 10 18  1  1  0  0  0
 10 19  1  0  0  0  0
 12 16  1  0  0  0  0
 13 18  1  6  0  0  0
 13  2  1  0  0  0  0
 13 10  1  0  0  0  0
 15 11  1  0  0  0  0
 16  5  1  0  0  0  0
 17  6  1  0  0  0  0
 17 16  2  0  0  0  0
 19 20  1  1  0  0  0
 20 15  1  0  0  0  0
 22 24  1  6  0  0  0
 22 21  1  0  0  0  0
 22 23  1  0  0  0  0
 23 21  1  1  0  0  0
 23  8  1  0  0  0  0
 25 27  1  0  0  0  0
 25 24  1  0  0  0  0
 26 27  2  0  0  0  0
 27 28  1  0  0  0  0
 29 28  1  0  0  0  0
 29 30  1  0  0  0  0
 31 29  2  0  0  0  0
M  END
>  <MODEL>
5

>  <REMARK>
 VINA RESULT:      -7.3      3.989      7.622
  Name = 
  5 active torsions:
  status: ('A' for Active; 'I' for Inactive)
    1  A    between atoms: C_1  and  N_24
    2  A    between atoms: C_3  and  C_9
    3  A    between atoms: C_3  and  C_22
    4  A    between atoms: C_15  and  C_23
    5  A    between atoms: C_19  and  C_22
                            x       y       z     vdW  Elec       q    Type
                         _______ _______ _______ _____ _____    ______ ____

>  <TORSDO>
F 5

$$$$
=
 OpenBabel10262419213D

 31 36  0  0  1  0  0  0  0  0999 V2000
  185.7310  176.8290  137.0240 C   0  0  0  0  0  0  0  0  0  0  0  0
  189.2540  176.0790  138.0510 N   0  0  0  0  0  0  0  0  0  0  0  0
  189.8470  175.2040  137.0600 C   0  0  2  0  0  3  0  0  0  0  0  0
  189.6550  173.0240  135.8390 C   0  0  0  0  0  2  0  0  0  0  0  0
  187.9490  176.6630  137.9960 C   0  0  0  0  0  0  0  0  0  0  0  0
  185.4450  177.9090  137.8670 C   0  0  0  0  0  3  0  0  0  0  0  0
  189.3150  173.7820  137.1280 C   0  0  0  0  0  2  0  0  0  0  0  0
  189.8450  177.5530  140.0460 C   0  0  2  0  0  3  0  0  0  0  0  0
  184.8030  176.4010  136.1330 F   0  0  0  0  0  0  0  0  0  0  0  0
  191.6260  176.2490  138.4550 C   0  0  2  0  0  3  0  0  0  0  0  0
  191.1660  172.9320  135.5440 C   0  0  0  0  0  2  0  0  0  0  0  0
  188.6010  178.2150  139.7760 O   0  0  0  0  0  0  0  0  0  0  0  0
  190.2840  176.7270  138.8290 C   0  0  1  0  0  0  0  0  0  0  0  0
  186.9830  176.2100  137.0820 C   0  0  0  0  0  3  0  0  0  0  0  0
  191.7400  174.2750  135.0530 C   0  0  0  0  0  2  0  0  0  0  0  0
  187.6470  177.7380  138.8580 C   0  0  0  0  0  0  0  0  0  0  0  0
  186.4010  178.3610  138.7790 C   0  0  0  0  0  3  0  0  0  0  0  0
  191.1310  177.4880  137.9990 O   0  0  0  0  0  0  0  0  0  0  0  0
  191.3290  175.1510  137.4250 C   0  0  2  0  0  3  0  0  0  0  0  0
  192.2180  175.2090  136.1850 C   0  0  0  0  0  2  0  0  0  0  0  0
  191.1120  176.7030  142.0690 C   0  0  0  0  0  2  0  0  0  0  0  0
  190.0660  177.6580  142.6110 C   0  0  1  0  0  3  0  0  0  0  0  0
  189.7530  176.8040  141.3910 C   0  0  1  0  0  3  0  0  0  0  0  0
  189.3740  177.0340  143.8090 C   0  0  0  0  0  2  0  0  0  0  0  0
  189.1480  178.0410  144.9370 C   0  0  0  0  0  2  0  0  0  0  0  0
  189.3830  176.5700  146.7870 O   0  0  0  0  0  0  0  0  0  0  0  0
  188.6460  177.4120  146.2080 C   0  0  0  0  0  0  0  0  0  0  0  0
  187.3780  177.7390  146.7890 N   0  0  0  0  0  2  0  0  0  0  0  0
  186.2530  178.3450  146.1380 C   0  0  0  0  0  0  0  0  0  0  0  0
  185.2880  179.0270  146.9330 N   0  0  0  0  0  1  0  0  0  0  0  0
  185.8500  177.9180  144.6060 S   0  0  0  0  0  0  0  0  0  0  0  0
  1 14  2  0  0  0  0
  1  6  1  0  0  0  0
  2 13  1  0  0  0  0
  3  7  1  1  0  0  0
  3 19  1  0  0  0  0
  3  2  1  0  0  0  0
  4  7  1  0  0  0  0
  5  2  1  0  0  0  0
  5 16  2  0  0  0  0
  6 17  2  0  0  0  0
  8 12  1  6  0  0  0
  8 23  1  0  0  0  0
  9  1  1  0  0  0  0
 10 18  1  6  0  0  0
 10 13  1  0  0  0  0
 11  4  1  0  0  0  0
 13 18  1  6  0  0  0
 13  8  1  0  0  0  0
 14  5  1  0  0  0  0
 15 11  1  0  0  0  0
 15 20  1  0  0  0  0
 16 12  1  0  0  0  0
 17 16  1  0  0  0  0
 19 20  1  6  0  0  0
 19 10  1  0  0  0  0
 21 22  1  0  0  0  0
 22 24  1  1  0  0  0
 23 21  1  6  0  0  0
 23 22  1  0  0  0  0
 24 25  1  0  0  0  0
 25 27  1  0  0  0  0
 27 26  2  0  0  0  0
 27 28  1  0  0  0  0
 29 28  1  0  0  0  0
 29 30  1  0  0  0  0
 31 29  2  0  0  0  0
M  END
>  <MODEL>
6

>  <REMARK>
 VINA RESULT:      -7.2      4.462      6.573
  Name = 
  5 active torsions:
  status: ('A' for Active; 'I' for Inactive)
    1  A    between atoms: C_1  and  N_24
    2  A    between atoms: C_3  and  C_9
    3  A    between atoms: C_3  and  C_22
    4  A    between atoms: C_15  and  C_23
    5  A    between atoms: C_19  and  C_22
                            x       y       z     vdW  Elec       q    Type
                         _______ _______ _______ _____ _____    ______ ____

>  <TORSDO>
F 5

$$$$
=
 OpenBabel10262419213D

 31 36  0  0  1  0  0  0  0  0999 V2000
  190.1140  177.4750  141.1190 C   0  0  0  0  0  0  0  0  0  0  0  0
  186.5820  178.1260  142.1800 N   0  0  0  0  0  0  0  0  0  0  0  0
  186.5320  178.1480  143.6280 C   0  0  2  0  0  3  0  0  0  0  0  0
  187.0150  176.8860  145.7390 C   0  0  0  0  0  2  0  0  0  0  0  0
  187.7550  177.9850  141.3730 C   0  0  0  0  0  0  0  0  0  0  0  0
  190.0400  177.8200  139.7650 C   0  0  0  0  0  3  0  0  0  0  0  0
  186.6710  176.7680  144.2480 C   0  0  0  0  0  2  0  0  0  0  0  0
  185.2100  178.7050  140.1100 C   0  0  2  0  0  3  0  0  0  0  0  0
  191.2960  177.0810  141.6540 F   0  0  0  0  0  0  0  0  0  0  0  0
  184.4850  179.2100  142.6840 C   0  0  2  0  0  3  0  0  0  0  0  0
  185.9660  177.6540  146.5670 C   0  0  0  0  0  2  0  0  0  0  0  0
  186.4720  178.7430  139.4290 O   0  0  0  0  0  0  0  0  0  0  0  0
  185.4220  178.7870  141.6280 C   0  0  1  0  0  0  0  0  0  0  0  0
  188.9760  177.5630  141.9260 C   0  0  0  0  0  3  0  0  0  0  0  0
  186.0220  179.1710  146.3060 C   0  0  0  0  0  2  0  0  0  0  0  0
  187.6820  178.3100  140.0030 C   0  0  0  0  0  0  0  0  0  0  0  0
  188.8280  178.2370  139.2100 C   0  0  0  0  0  3  0  0  0  0  0  0
  185.3570  180.1260  142.0610 O   0  0  0  0  0  0  0  0  0  0  0  0
  185.1300  178.6540  143.9610 C   0  0  2  0  0  3  0  0  0  0  0  0
  185.1480  179.6420  145.1250 C   0  0  0  0  0  2  0  0  0  0  0  0
  183.1140  177.3160  140.4180 C   0  0  0  0  0  2  0  0  0  0  0  0
  183.0190  177.8960  139.0210 C   0  0  1  0  0  3  0  0  0  0  0  0
  184.3770  177.5150  139.5930 C   0  0  1  0  0  3  0  0  0  0  0  0
  182.6020  176.8140  138.0420 C   0  0  0  0  0  2  0  0  0  0  0  0
  181.2330  176.2250  138.3790 C   0  0  0  0  0  2  0  0  0  0  0  0
  179.9730  177.9120  137.2790 O   0  0  0  0  0  0  0  0  0  0  0  0
  180.1190  177.2360  138.3320 C   0  0  0  0  0  0  0  0  0  0  0  0
  179.2180  177.4500  139.4250 N   0  0  0  0  0  2  0  0  0  0  0  0
  179.4190  177.0970  140.8000 C   0  0  0  0  0  0  0  0  0  0  0  0
  179.0280  175.8000  141.2380 N   0  0  0  0  0  1  0  0  0  0  0  0
  179.6860  178.2610  141.9260 S   0  0  0  0  0  0  0  0  0  0  0  0
  1  9  1  0  0  0  0
  1 14  1  0  0  0  0
  2  3  1  0  0  0  0
  3 19  1  0  0  0  0
  3  7  1  1  0  0  0
  4 11  1  0  0  0  0
  5 14  2  0  0  0  0
  5  2  1  0  0  0  0
  6  1  2  0  0  0  0
  7  4  1  0  0  0  0
  8 12  1  6  0  0  0
  8 13  1  0  0  0  0
 10 18  1  1  0  0  0
 10 19  1  0  0  0  0
 12 16  1  0  0  0  0
 13 18  1  6  0  0  0
 13  2  1  0  0  0  0
 13 10  1  0  0  0  0
 15 11  1  0  0  0  0
 16  5  1  0  0  0  0
 17  6  1  0  0  0  0
 17 16  2  0  0  0  0
 19 20  1  1  0  0  0
 20 15  1  0  0  0  0
 22 24  1  6  0  0  0
 22 23  1  0  0  0  0
 22 21  1  0  0  0  0
 23  8  1  0  0  0  0
 23 21  1  1  0  0  0
 24 25  1  0  0  0  0
 26 27  2  0  0  0  0
 27 25  1  0  0  0  0
 27 28  1  0  0  0  0
 28 29  1  0  0  0  0
 29 30  1  0  0  0  0
 29 31  2  0  0  0  0
M  END
>  <MODEL>
7

>  <REMARK>
 VINA RESULT:      -7.0      4.057      8.388
  Name = 
  5 active torsions:
  status: ('A' for Active; 'I' for Inactive)
    1  A    between atoms: C_1  and  N_24
    2  A    between atoms: C_3  and  C_9
    3  A    between atoms: C_3  and  C_22
    4  A    between atoms: C_15  and  C_23
    5  A    between atoms: C_19  and  C_22
                            x       y       z     vdW  Elec       q    Type
                         _______ _______ _______ _____ _____    ______ ____

>  <TORSDO>
F 5

$$$$
=
 OpenBabel10262419213D

 31 36  0  0  1  0  0  0  0  0999 V2000
  189.3590  177.8250  140.8770 C   0  0  0  0  0  0  0  0  0  0  0  0
  186.2290  178.1560  142.9060 N   0  0  0  0  0  0  0  0  0  0  0  0
  186.5850  178.1390  144.3100 C   0  0  2  0  0  3  0  0  0  0  0  0
  187.7310  176.8690  146.1430 C   0  0  0  0  0  2  0  0  0  0  0  0
  187.1360  178.1320  141.8000 C   0  0  0  0  0  0  0  0  0  0  0  0
  188.8840  178.1950  139.6150 C   0  0  0  0  0  3  0  0  0  0  0  0
  186.9920  176.7600  144.8020 C   0  0  0  0  0  2  0  0  0  0  0  0
  184.2930  178.6700  141.3270 C   0  0  2  0  0  3  0  0  0  0  0  0
  190.6690  177.5160  141.0450 F   0  0  0  0  0  0  0  0  0  0  0  0
  184.2850  179.0510  144.0210 C   0  0  2  0  0  3  0  0  0  0  0  0
  186.9030  177.5280  147.2640 C   0  0  0  0  0  2  0  0  0  0  0  0
  185.3080  178.8290  140.3250 O   0  0  0  0  0  0  0  0  0  0  0  0
  184.9160  178.7320  142.7290 C   0  0  1  0  0  0  0  0  0  0  0  0
  188.4900  177.7990  141.9720 C   0  0  0  0  0  3  0  0  0  0  0  0
  186.7740  179.0500  147.0690 C   0  0  0  0  0  2  0  0  0  0  0  0
  186.6580  178.4840  140.5200 C   0  0  0  0  0  0  0  0  0  0  0  0
  187.5380  178.5240  139.4380 C   0  0  0  0  0  3  0  0  0  0  0  0
  184.8780  180.0510  143.2240 O   0  0  0  0  0  0  0  0  0  0  0  0
  185.3000  178.5190  145.0430 C   0  0  2  0  0  3  0  0  0  0  0  0
  185.5720  179.4760  146.2010 C   0  0  0  0  0  2  0  0  0  0  0  0
  182.0120  177.8120  140.6350 C   0  0  0  0  0  2  0  0  0  0  0  0
  182.9720  177.3390  139.5610 C   0  0  1  0  0  3  0  0  0  0  0  0
  183.4370  177.4290  141.0070 C   0  0  1  0  0  3  0  0  0  0  0  0
  182.7070  175.8790  139.2430 C   0  0  0  0  0  2  0  0  0  0  0  0
  182.5200  175.6360  137.7470 C   0  0  0  0  0  2  0  0  0  0  0  0
  180.8010  173.9960  137.7410 O   0  0  0  0  0  0  0  0  0  0  0  0
  181.9910  174.2640  137.4250 C   0  0  0  0  0  0  0  0  0  0  0  0
  182.7770  173.2620  136.7680 N   0  0  0  0  0  2  0  0  0  0  0  0
  184.2060  173.2040  136.6700 C   0  0  0  0  0  0  0  0  0  0  0  0
  184.9620  172.9170  137.8420 N   0  0  0  0  0  1  0  0  0  0  0  0
  184.9780  173.8580  135.3770 S   0  0  0  0  0  0  0  0  0  0  0  0
  1  9  1  0  0  0  0
  1 14  1  0  0  0  0
  2  3  1  0  0  0  0
  3  7  1  1  0  0  0
  3 19  1  0  0  0  0
  4 11  1  0  0  0  0
  5 14  2  0  0  0  0
  5  2  1  0  0  0  0
  6  1  2  0  0  0  0
  7  4  1  0  0  0  0
  8 12  1  6  0  0  0
  8 13  1  0  0  0  0
 10 18  1  1  0  0  0
 10 19  1  0  0  0  0
 12 16  1  0  0  0  0
 13  2  1  0  0  0  0
 13 18  1  6  0  0  0
 13 10  1  0  0  0  0
 15 11  1  0  0  0  0
 16  5  1  0  0  0  0
 17  6  1  0  0  0  0
 17 16  2  0  0  0  0
 19 20  1  1  0  0  0
 20 15  1  0  0  0  0
 22 24  1  1  0  0  0
 22 21  1  0  0  0  0
 22 23  1  0  0  0  0
 23 21  1  1  0  0  0
 23  8  1  0  0  0  0
 25 24  1  0  0  0  0
 27 26  2  0  0  0  0
 27 25  1  0  0  0  0
 28 27  1  0  0  0  0
 29 28  1  0  0  0  0
 29 30  1  0  0  0  0
 31 29  2  0  0  0  0
M  END
>  <MODEL>
8

>  <REMARK>
 VINA RESULT:      -6.8      4.220      8.362
  Name = 
  5 active torsions:
  status: ('A' for Active; 'I' for Inactive)
    1  A    between atoms: C_1  and  N_24
    2  A    between atoms: C_3  and  C_9
    3  A    between atoms: C_3  and  C_22
    4  A    between atoms: C_15  and  C_23
    5  A    between atoms: C_19  and  C_22
                            x       y       z     vdW  Elec       q    Type
                         _______ _______ _______ _____ _____    ______ ____

>  <TORSDO>
F 5

$$$$
=
 OpenBabel10262419213D

 31 36  0  0  1  0  0  0  0  0999 V2000
  184.7280  176.7290  136.5470 C   0  0  0  0  0  0  0  0  0  0  0  0
  188.3050  176.4580  137.6240 N   0  0  0  0  0  0  0  0  0  0  0  0
  189.0250  175.6750  136.6410 C   0  0  2  0  0  3  0  0  0  0  0  0
  189.1480  173.4920  135.4150 C   0  0  0  0  0  2  0  0  0  0  0  0
  186.9340  176.8610  137.5510 C   0  0  0  0  0  0  0  0  0  0  0  0
  184.2870  177.7580  137.3870 C   0  0  0  0  0  3  0  0  0  0  0  0
  188.6900  174.1940  136.7000 C   0  0  0  0  0  2  0  0  0  0  0  0
  188.6640  177.9920  139.6300 C   0  0  2  0  0  3  0  0  0  0  0  0
  183.8800  176.1830  135.6430 F   0  0  0  0  0  0  0  0  0  0  0  0
  190.6270  176.9460  138.0630 C   0  0  2  0  0  3  0  0  0  0  0  0
  190.6600  173.6070  135.1410 C   0  0  0  0  0  2  0  0  0  0  0  0
  187.3460  178.4810  139.3420 O   0  0  0  0  0  0  0  0  0  0  0  0
  189.2270  177.2370  138.4180 C   0  0  1  0  0  0  0  0  0  0  0  0
  186.0520  176.2840  136.6220 C   0  0  0  0  0  3  0  0  0  0  0  0
  191.0550  175.0160  134.6610 C   0  0  0  0  0  2  0  0  0  0  0  0
  186.4780  177.8820  138.4090 C   0  0  0  0  0  0  0  0  0  0  0  0
  185.1600  178.3320  138.3140 C   0  0  0  0  0  3  0  0  0  0  0  0
  189.9750  178.1090  137.6020 O   0  0  0  0  0  0  0  0  0  0  0  0
  190.4950  175.8210  137.0270 C   0  0  2  0  0  3  0  0  0  0  0  0
  191.3860  176.0030  135.8000 C   0  0  0  0  0  2  0  0  0  0  0  0
  190.0010  176.5840  141.2560 C   0  0  0  0  0  2  0  0  0  0  0  0
  189.5780  177.8160  142.0320 C   0  0  1  0  0  3  0  0  0  0  0  0
  188.6550  177.2340  140.9720 C   0  0  1  0  0  3  0  0  0  0  0  0
  189.0460  177.4080  143.3930 C   0  0  0  0  0  2  0  0  0  0  0  0
  189.5560  178.3160  144.5110 C   0  0  0  0  0  2  0  0  0  0  0  0
  191.7660  178.7940  143.7820 O   0  0  0  0  0  0  0  0  0  0  0  0
  191.0500  178.2750  144.6810 C   0  0  0  0  0  0  0  0  0  0  0  0
  191.6870  177.6850  145.8200 N   0  0  0  0  0  2  0  0  0  0  0  0
  191.1260  176.7340  146.7340 C   0  0  0  0  0  0  0  0  0  0  0  0
  189.8950  177.0470  147.3780 N   0  0  0  0  0  1  0  0  0  0  0  0
  192.0530  175.5300  147.3540 S   0  0  0  0  0  0  0  0  0  0  0  0
  1 14  2  0  0  0  0
  1  6  1  0  0  0  0
  2 13  1  0  0  0  0
  3  7  1  1  0  0  0
  3 19  1  0  0  0  0
  3  2  1  0  0  0  0
  4  7  1  0  0  0  0
  5  2  1  0  0  0  0
  5 16  2  0  0  0  0
  6 17  2  0  0  0  0
  8 12  1  6  0  0  0
  8 23  1  0  0  0  0
  9  1  1  0  0  0  0
 10 18  1  6  0  0  0
 10 13  1  0  0  0  0
 11  4  1  0  0  0  0
 13 18  1  6  0  0  0
 13  8  1  0  0  0  0
 14  5  1  0  0  0  0
 15 11  1  0  0  0  0
 15 20  1  0  0  0  0
 16 12  1  0  0  0  0
 17 16  1  0  0  0  0
 19 20  1  6  0  0  0
 19 10  1  0  0  0  0
 21 22  1  0  0  0  0
 22 24  1  1  0  0  0
 23 21  1  6  0  0  0
 23 22  1  0  0  0  0
 24 25  1  0  0  0  0
 25 27  1  0  0  0  0
 26 27  2  0  0  0  0
 27 28  1  0  0  0  0
 28 29  1  0  0  0  0
 29 31  2  0  0  0  0
 29 30  1  0  0  0  0
M  END
>  <MODEL>
9

>  <REMARK>
 VINA RESULT:      -6.7      3.823      5.762
  Name = 
  5 active torsions:
  status: ('A' for Active; 'I' for Inactive)
    1  A    between atoms: C_1  and  N_24
    2  A    between atoms: C_3  and  C_9
    3  A    between atoms: C_3  and  C_22
    4  A    between atoms: C_15  and  C_23
    5  A    between atoms: C_19  and  C_22
                            x       y       z     vdW  Elec       q    Type
                         _______ _______ _______ _____ _____    ______ ____

>  <TORSDO>
F 5

$$$$
