=
 OpenBabel10262421393D

 32 36  0  0  1  0  0  0  0  0999 V2000
  183.2870  178.8510  143.9170 C   0  0  0  0  0  3  0  0  0  0  0  0
  183.6100  178.7720  145.2700 C   0  0  0  0  0  3  0  0  0  0  0  0
  184.2620  178.5960  142.9530 C   0  0  0  0  0  3  0  0  0  0  0  0
  185.5730  178.2640  143.3270 C   0  0  0  0  0  0  0  0  0  0  0  0
  184.9100  178.4430  145.6580 C   0  0  0  0  0  3  0  0  0  0  0  0
  185.9110  178.1920  144.7040 C   0  0  0  0  0  0  0  0  0  0  0  0
  188.9480  177.7770  146.9920 C   0  0  0  0  0  0  0  0  0  0  0  0
  189.8450  177.2160  146.0830 C   0  0  0  0  0  0  0  0  0  0  0  0
  190.5770  176.4340  144.1710 C   0  0  0  0  0  0  0  0  0  0  0  0
  187.2830  177.8720  145.1830 C   0  0  0  0  0  0  0  0  0  0  0  0
  191.5730  176.3500  145.1360 C   0  0  0  0  0  3  0  0  0  0  0  0
  191.1160  176.8350  146.3180 N   0  0  0  0  0  0  0  0  0  0  0  0
  188.2190  177.2940  144.2950 C   0  0  0  0  0  3  0  0  0  0  0  0
  189.3250  178.0280  148.4100 C   0  0  0  0  0  1  0  0  0  0  0  0
  190.6710  176.0440  142.8760 F   0  0  0  0  0  0  0  0  0  0  0  0
  187.6600  178.0980  146.5310 C   0  0  0  0  0  2  0  0  0  0  0  0
  189.4860  176.9860  144.7850 C   0  0  0  0  0  0  0  0  0  0  0  0
  186.5440  177.9530  142.3190 N   0  0  0  0  0  2  0  0  0  0  0  0
  188.4820  177.8780  136.9040 C   0  0  0  0  0  2  0  0  0  0  0  0
  188.6510  178.5190  139.5940 C   0  0  2  0  0  3  0  0  0  0  0  0
  186.3260  178.6900  140.0120 C   0  0  0  0  0  2  0  0  0  0  0  0
  187.1530  178.1010  137.6640 C   0  0  0  0  0  2  0  0  0  0  0  0
  187.0420  178.9120  141.3430 C   0  0  2  0  0  3  0  0  0  0  0  0
  189.5360  177.0640  137.6960 C   0  0  1  0  0  3  0  0  0  0  0  0
  187.3310  177.9480  139.1710 C   0  0  1  0  0  3  0  0  0  0  0  0
  189.7780  177.6030  139.1260 C   0  0  0  0  0  2  0  0  0  0  0  0
  188.5310  178.6580  141.0910 C   0  0  0  0  0  2  0  0  0  0  0  0
  189.1550  175.5930  137.7640 C   0  0  0  0  0  2  0  0  0  0  0  0
  190.0790  174.7640  136.8920 C   0  0  0  0  0  2  0  0  0  0  0  0
  191.1430  174.2070  137.7090 N   0  0  0  0  0  2  0  0  0  0  0  0
  193.1620  175.9670  137.8550 S   0  0  0  0  0  1  0  0  0  0  0  0
  192.3970  174.5290  137.0520 C   0  0  0  0  0  2  0  0  0  0  0  0
  1  2  1  0  0  0  0
  2  5  2  0  0  0  0
  3  4  1  0  0  0  0
  3  1  2  0  0  0  0
  4  6  2  0  0  0  0
  6 10  1  0  0  0  0
  6  5  1  0  0  0  0
  7 14  1  0  0  0  0
  8 12  1  0  0  0  0
  8  7  2  0  0  0  0
  9 17  2  0  0  0  0
  9 11  1  0  0  0  0
 10 16  1  0  0  0  0
 11 12  2  0  0  0  0
 13 17  1  0  0  0  0
 13 10  2  0  0  0  0
 15  9  1  0  0  0  0
 16  7  1  0  0  0  0
 17  8  1  0  0  0  0
 18  4  1  0  0  0  0
 19 22  1  0  0  0  0
 19 24  1  0  0  0  0
 20 26  1  1  0  0  0
 20 27  1  0  0  0  0
 21 23  1  0  0  0  0
 23 18  1  1  0  0  0
 24 28  1  1  0  0  0
 24 26  1  0  0  0  0
 25 22  1  6  0  0  0
 25 20  1  0  0  0  0
 25 21  1  0  0  0  0
 27 23  1  0  0  0  0
 29 30  1  0  0  0  0
 29 28  1  0  0  0  0
 32 30  1  0  0  0  0
 32 31  1  0  0  0  0
M  END
>  <MODEL>
1

>  <REMARK>
 VINA RESULT:      -9.6      0.000      0.000
  Name = 
  7 active torsions:
  status: ('A' for Active; 'I' for Inactive)
    1  A    between atoms: N_3  and  C_14
    2  A    between atoms: N_3  and  C_15
    3  A    between atoms: C_10  and  N_20
    4  A    between atoms: C_10  and  C_24
    5  A    between atoms: C_16  and  C_26
    6  A    between atoms: C_17  and  N_20
    7  A    between atoms: C_19  and  C_24
                            x       y       z     vdW  Elec       q    Type
                         _______ _______ _______ _____ _____    ______ ____

>  <TORSDO>
F 7

$$$$
=
 OpenBabel10262421393D

 32 36  0  0  1  0  0  0  0  0999 V2000
  183.9430  178.6610  142.8850 C   0  0  0  0  0  3  0  0  0  0  0  0
  183.9020  178.7990  144.2710 C   0  0  0  0  0  3  0  0  0  0  0  0
  185.1160  178.2360  142.2620 C   0  0  0  0  0  3  0  0  0  0  0  0
  186.2650  177.9480  143.0150 C   0  0  0  0  0  0  0  0  0  0  0  0
  185.0360  178.5170  145.0330 C   0  0  0  0  0  3  0  0  0  0  0  0
  186.2330  178.0970  144.4260 C   0  0  0  0  0  0  0  0  0  0  0  0
  188.4550  177.7590  147.5210 C   0  0  0  0  0  0  0  0  0  0  0  0
  189.6220  177.2940  146.9150 C   0  0  0  0  0  0  0  0  0  0  0  0
  190.9520  176.6440  145.2990 C   0  0  0  0  0  0  0  0  0  0  0  0
  187.4150  177.8370  145.2930 C   0  0  0  0  0  0  0  0  0  0  0  0
  191.6120  176.5750  146.5190 C   0  0  0  0  0  3  0  0  0  0  0  0
  190.7860  176.9790  147.5170 N   0  0  0  0  0  2  0  0  0  0  0  0
  188.6130  177.3560  144.7190 C   0  0  0  0  0  3  0  0  0  0  0  0
  188.3670  177.9690  148.9920 C   0  0  0  0  0  1  0  0  0  0  0  0
  191.4610  176.3180  144.0850 F   0  0  0  0  0  0  0  0  0  0  0  0
  187.3480  178.0250  146.6960 C   0  0  0  0  0  3  0  0  0  0  0  0
  189.6910  177.1020  145.5640 C   0  0  0  0  0  0  0  0  0  0  0  0
  187.4420  177.4610  142.3580 N   0  0  0  0  0  2  0  0  0  0  0  0
  189.7720  177.5840  137.1000 C   0  0  0  0  0  2  0  0  0  0  0  0
  189.8840  177.6230  139.8680 C   0  0  2  0  0  3  0  0  0  0  0  0
  187.7680  178.6180  140.2430 C   0  0  0  0  0  2  0  0  0  0  0  0
  188.5540  178.1730  137.8500 C   0  0  0  0  0  2  0  0  0  0  0  0
  188.3680  178.3030  141.6120 C   0  0  2  0  0  3  0  0  0  0  0  0
  190.3470  176.2960  137.7410 C   0  0  1  0  0  3  0  0  0  0  0  0
  188.4990  177.7000  139.2990 C   0  0  1  0  0  3  0  0  0  0  0  0
  190.6230  176.4350  139.2560 C   0  0  0  0  0  2  0  0  0  0  0  0
  189.6670  177.5320  141.3580 C   0  0  0  0  0  2  0  0  0  0  0  0
  189.4320  175.1050  137.4970 C   0  0  0  0  0  2  0  0  0  0  0  0
  189.1370  174.9570  136.0160 C   0  0  0  0  0  2  0  0  0  0  0  0
  187.7060  174.7990  135.8230 N   0  0  0  0  0  2  0  0  0  0  0  0
  185.9970  173.2830  137.2300 S   0  0  0  0  0  1  0  0  0  0  0  0
  187.1030  174.7210  137.1420 C   0  0  0  0  0  2  0  0  0  0  0  0
  1  2  1  0  0  0  0
  2  5  2  0  0  0  0
  3  1  2  0  0  0  0
  3  4  1  0  0  0  0
  4  6  2  0  0  0  0
  6  5  1  0  0  0  0
  6 10  1  0  0  0  0
  7 14  1  0  0  0  0
  8 12  1  0  0  0  0
  8  7  1  0  0  0  0
  9 17  1  0  0  0  0
  9 11  2  0  0  0  0
 10 16  1  0  0  0  0
 11 12  1  0  0  0  0
 13 10  2  0  0  0  0
 13 17  1  0  0  0  0
 15  9  1  0  0  0  0
 16  7  2  0  0  0  0
 17  8  2  0  0  0  0
 18  4  1  0  0  0  0
 19 24  1  0  0  0  0
 19 22  1  0  0  0  0
 20 26  1  6  0  0  0
 20 27  1  0  0  0  0
 21 23  1  0  0  0  0
 23 18  1  1  0  0  0
 24 28  1  1  0  0  0
 24 26  1  0  0  0  0
 25 22  1  6  0  0  0
 25 20  1  0  0  0  0
 25 21  1  0  0  0  0
 27 23  1  0  0  0  0
 29 28  1  0  0  0  0
 30 29  1  0  0  0  0
 30 32  1  0  0  0  0
 32 31  1  0  0  0  0
M  END
>  <MODEL>
2

>  <REMARK>
 VINA RESULT:      -9.6      1.833      2.091
  Name = 
  7 active torsions:
  status: ('A' for Active; 'I' for Inactive)
    1  A    between atoms: N_3  and  C_14
    2  A    between atoms: N_3  and  C_15
    3  A    between atoms: C_10  and  N_20
    4  A    between atoms: C_10  and  C_24
    5  A    between atoms: C_16  and  C_26
    6  A    between atoms: C_17  and  N_20
    7  A    between atoms: C_19  and  C_24
                            x       y       z     vdW  Elec       q    Type
                         _______ _______ _______ _____ _____    ______ ____

>  <TORSDO>
F 7

$$$$
=
 OpenBabel10262421393D

 32 36  0  0  1  0  0  0  0  0999 V2000
  183.3560  178.9610  144.1310 C   0  0  0  0  0  3  0  0  0  0  0  0
  183.8090  178.7860  145.4360 C   0  0  0  0  0  3  0  0  0  0  0  0
  184.2040  178.6900  143.0570 C   0  0  0  0  0  3  0  0  0  0  0  0
  185.5180  178.2450  143.2740 C   0  0  0  0  0  0  0  0  0  0  0  0
  185.1130  178.3450  145.6680 C   0  0  0  0  0  3  0  0  0  0  0  0
  185.9890  178.0760  144.6020 C   0  0  0  0  0  0  0  0  0  0  0  0
  189.5150  176.6470  144.2090 C   0  0  0  0  0  0  0  0  0  0  0  0
  189.9910  176.8530  145.5040 C   0  0  0  0  0  0  0  0  0  0  0  0
  189.9640  177.4860  147.6010 C   0  0  0  0  0  0  0  0  0  0  0  0
  187.3740  177.6320  144.9160 C   0  0  0  0  0  0  0  0  0  0  0  0
  191.2000  176.9390  147.2830 C   0  0  0  0  0  3  0  0  0  0  0  0
  191.2130  176.5480  145.9820 N   0  0  0  0  0  0  0  0  0  0  0  0
  187.8980  177.8320  146.2140 C   0  0  0  0  0  3  0  0  0  0  0  0
  190.3610  176.0290  143.1520 C   0  0  0  0  0  1  0  0  0  0  0  0
  189.5870  177.9830  148.8050 F   0  0  0  0  0  0  0  0  0  0  0  0
  188.1980  177.0470  143.9220 C   0  0  0  0  0  3  0  0  0  0  0  0
  189.2060  177.4250  146.4640 C   0  0  1  0  0  3  0  0  0  0  0  0
  186.3520  177.9220  142.1550 N   0  0  0  0  0  2  0  0  0  0  0  0
  188.2860  177.8930  136.7380 C   0  0  0  0  0  2  0  0  0  0  0  0
  188.4360  178.5490  139.4250 C   0  0  2  0  0  3  0  0  0  0  0  0
  186.1070  178.6420  139.8450 C   0  0  0  0  0  2  0  0  0  0  0  0
  186.9510  178.0720  137.4980 C   0  0  0  0  0  2  0  0  0  0  0  0
  186.8160  178.8930  141.1740 C   0  0  2  0  0  3  0  0  0  0  0  0
  189.3680  177.1180  137.5320 C   0  0  1  0  0  3  0  0  0  0  0  0
  187.1360  177.9310  139.0050 C   0  0  1  0  0  3  0  0  0  0  0  0
  189.5940  177.6700  138.9590 C   0  0  0  0  0  2  0  0  0  0  0  0
  188.3130  178.6900  140.9210 C   0  0  0  0  0  2  0  0  0  0  0  0
  189.0380  175.6350  137.6050 C   0  0  0  0  0  2  0  0  0  0  0  0
  190.0600  174.8240  136.8320 C   0  0  0  0  0  2  0  0  0  0  0  0
  191.0000  174.2200  137.7600 N   0  0  0  0  0  2  0  0  0  0  0  0
  192.9680  176.0390  137.8860 S   0  0  0  0  0  1  0  0  0  0  0  0
  192.3330  174.4660  137.2370 C   0  0  0  0  0  2  0  0  0  0  0  0
  1  2  1  0  0  0  0
  2  5  2  0  0  0  0
  3  4  1  0  0  0  0
  3  1  2  0  0  0  0
  4  6  2  0  0  0  0
  6 10  1  0  0  0  0
  6  5  1  0  0  0  0
  7  8  1  0  0  0  0
  8 12  2  0  0  0  0
  8 17  1  0  0  0  0
  9 15  1  0  0  0  0
 10 13  2  0  0  0  0
 11  9  2  0  0  0  0
 12 11  1  0  0  0  0
 14  7  1  0  0  0  0
 16  7  2  0  0  0  0
 16 10  1  0  0  0  0
 17 13  1  6  0  0  0
 17  9  1  0  0  0  0
 18  4  1  0  0  0  0
 19 22  1  0  0  0  0
 19 24  1  0  0  0  0
 20 26  1  1  0  0  0
 20 27  1  0  0  0  0
 21 23  1  0  0  0  0
 23 18  1  1  0  0  0
 24 28  1  1  0  0  0
 24 26  1  0  0  0  0
 25 22  1  6  0  0  0
 25 20  1  0  0  0  0
 25 21  1  0  0  0  0
 27 23  1  0  0  0  0
 29 28  1  0  0  0  0
 29 30  1  0  0  0  0
 32 30  1  0  0  0  0
 32 31  1  0  0  0  0
M  END
>  <MODEL>
3

>  <REMARK>
 VINA RESULT:      -9.5      1.241      1.918
  Name = 
  7 active torsions:
  status: ('A' for Active; 'I' for Inactive)
    1  A    between atoms: N_3  and  C_14
    2  A    between atoms: N_3  and  C_15
    3  A    between atoms: C_10  and  N_20
    4  A    between atoms: C_10  and  C_24
    5  A    between atoms: C_16  and  C_26
    6  A    between atoms: C_17  and  N_20
    7  A    between atoms: C_19  and  C_24
                            x       y       z     vdW  Elec       q    Type
                         _______ _______ _______ _____ _____    ______ ____

>  <TORSDO>
F 7

$$$$
=
 OpenBabel10262421393D

 32 36  0  0  1  0  0  0  0  0999 V2000
  189.2660  177.5000  148.1130 C   0  0  0  0  0  3  0  0  0  0  0  0
  187.9190  177.6950  148.4100 C   0  0  0  0  0  3  0  0  0  0  0  0
  189.7020  177.5520  146.7900 C   0  0  0  0  0  3  0  0  0  0  0  0
  188.7970  177.7940  145.7440 C   0  0  0  0  0  0  0  0  0  0  0  0
  187.0070  177.9370  147.3810 C   0  0  0  0  0  3  0  0  0  0  0  0
  187.4220  177.9830  146.0390 C   0  0  0  0  0  0  0  0  0  0  0  0
  184.0630  178.6510  144.3350 C   0  0  0  0  0  0  0  0  0  0  0  0
  184.4880  178.7150  143.0080 C   0  0  0  0  0  0  0  0  0  0  0  0
  185.8800  178.6700  141.3170 C   0  0  0  0  0  0  0  0  0  0  0  0
  186.3960  178.2190  144.9870 C   0  0  0  0  0  0  0  0  0  0  0  0
  184.5890  178.9140  140.8670 C   0  0  0  0  0  3  0  0  0  0  0  0
  183.7290  178.9410  141.9180 N   0  0  0  0  0  0  0  0  0  0  0  0
  186.7870  178.3000  143.6310 C   0  0  0  0  0  3  0  0  0  0  0  0
  182.6350  178.8390  144.7100 C   0  0  0  0  0  1  0  0  0  0  0  0
  186.9970  178.5760  140.5540 F   0  0  0  0  0  0  0  0  0  0  0  0
  185.0320  178.4060  145.3240 C   0  0  0  0  0  2  0  0  0  0  0  0
  185.8020  178.5450  142.6770 C   0  0  0  0  0  0  0  0  0  0  0  0
  189.2770  177.8960  144.3980 N   0  0  0  0  0  2  0  0  0  0  0  0
  191.6670  177.0610  139.2330 C   0  0  0  0  0  2  0  0  0  0  0  0
  190.0970  176.3210  141.3920 C   0  0  2  0  0  3  0  0  0  0  0  0
  191.2710  177.5370  143.0510 C   0  0  0  0  0  2  0  0  0  0  0  0
  192.0530  177.6320  140.6170 C   0  0  0  0  0  2  0  0  0  0  0  0
  190.0770  176.8750  143.7360 C   0  0  2  0  0  3  0  0  0  0  0  0
  190.1430  177.0570  138.9510 C   0  0  1  0  0  3  0  0  0  0  0  0
  190.8840  177.5800  141.5950 C   0  0  1  0  0  3  0  0  0  0  0  0
  189.3120  176.4140  140.0860 C   0  0  0  0  0  2  0  0  0  0  0  0
  189.2470  176.2110  142.6330 C   0  0  0  0  0  2  0  0  0  0  0  0
  189.6320  178.4650  138.6800 C   0  0  0  0  0  2  0  0  0  0  0  0
  189.1820  178.5970  137.2380 C   0  0  0  0  0  2  0  0  0  0  0  0
  187.7640  178.9050  137.2010 N   0  0  0  0  0  2  0  0  0  0  0  0
  185.4430  177.5840  137.4570 S   0  0  0  0  0  1  0  0  0  0  0  0
  187.0850  177.7260  136.6930 C   0  0  0  0  0  2  0  0  0  0  0  0
  1  2  1  0  0  0  0
  3  1  2  0  0  0  0
  4  6  2  0  0  0  0
  4  3  1  0  0  0  0
  5  2  2  0  0  0  0
  6  5  1  0  0  0  0
  7 14  1  0  0  0  0
  7 16  1  0  0  0  0
  8  7  2  0  0  0  0
  9 17  2  0  0  0  0
 10 16  1  0  0  0  0
 10  6  1  0  0  0  0
 11  9  1  0  0  0  0
 11 12  2  0  0  0  0
 12  8  1  0  0  0  0
 13 10  2  0  0  0  0
 15  9  1  0  0  0  0
 17  8  1  0  0  0  0
 17 13  1  0  0  0  0
 18  4  1  0  0  0  0
 19 22  1  0  0  0  0
 20 26  1  6  0  0  0
 20 25  1  0  0  0  0
 20 27  1  0  0  0  0
 21 23  1  0  0  0  0
 23 18  1  6  0  0  0
 24 28  1  1  0  0  0
 24 19  1  0  0  0  0
 24 26  1  0  0  0  0
 25 22  1  6  0  0  0
 25 21  1  0  0  0  0
 27 23  1  0  0  0  0
 29 28  1  0  0  0  0
 30 29  1  0  0  0  0
 32 30  1  0  0  0  0
 32 31  1  0  0  0  0
M  END
>  <MODEL>
4

>  <REMARK>
 VINA RESULT:      -9.3      2.510      5.161
  Name = 
  7 active torsions:
  status: ('A' for Active; 'I' for Inactive)
    1  A    between atoms: N_3  and  C_14
    2  A    between atoms: N_3  and  C_15
    3  A    between atoms: C_10  and  N_20
    4  A    between atoms: C_10  and  C_24
    5  A    between atoms: C_16  and  C_26
    6  A    between atoms: C_17  and  N_20
    7  A    between atoms: C_19  and  C_24
                            x       y       z     vdW  Elec       q    Type
                         _______ _______ _______ _____ _____    ______ ____

>  <TORSDO>
F 7

$$$$
=
 OpenBabel10262421393D

 32 36  0  0  1  0  0  0  0  0999 V2000
  185.4750  178.5450  147.0050 C   0  0  0  0  0  3  0  0  0  0  0  0
  186.8000  178.2550  147.3270 C   0  0  0  0  0  3  0  0  0  0  0  0
  185.0470  178.4630  145.6810 C   0  0  0  0  0  3  0  0  0  0  0  0
  185.9370  178.0950  144.6590 C   0  0  0  0  0  0  0  0  0  0  0  0
  187.6960  177.8880  146.3220 C   0  0  0  0  0  3  0  0  0  0  0  0
  187.2900  177.8090  144.9790 C   0  0  0  0  0  0  0  0  0  0  0  0
  190.4350  176.3780  143.3400 C   0  0  0  0  0  0  0  0  0  0  0  0
  190.1650  176.6960  142.0090 C   0  0  0  0  0  0  0  0  0  0  0  0
  189.0590  177.5010  140.2970 C   0  0  0  0  0  0  0  0  0  0  0  0
  188.3000  177.4370  143.9520 C   0  0  0  0  0  0  0  0  0  0  0  0
  190.2490  176.9260  139.8700 C   0  0  0  0  0  3  0  0  0  0  0  0
  190.9320  176.4290  140.9330 N   0  0  0  0  0  0  0  0  0  0  0  0
  188.0600  177.7330  142.5910 C   0  0  0  0  0  3  0  0  0  0  0  0
  191.6790  175.6630  143.7370 C   0  0  0  0  0  1  0  0  0  0  0  0
  188.1230  178.0950  139.5160 F   0  0  0  0  0  0  0  0  0  0  0  0
  189.4880  176.7510  144.3090 C   0  0  0  0  0  2  0  0  0  0  0  0
  189.0180  177.3490  141.6560 C   0  0  0  0  0  0  0  0  0  0  0  0
  185.4600  177.9650  143.3140 N   0  0  0  0  0  2  0  0  0  0  0  0
  182.3000  178.4860  138.5360 C   0  0  0  0  0  2  0  0  0  0  0  0
  184.4100  179.1510  140.2020 C   0  0  2  0  0  3  0  0  0  0  0  0
  183.3640  178.5950  142.2530 C   0  0  0  0  0  2  0  0  0  0  0  0
  182.0920  178.2870  140.0550 C   0  0  0  0  0  2  0  0  0  0  0  0
  184.7920  179.0290  142.5780 C   0  0  2  0  0  3  0  0  0  0  0  0
  183.6930  178.0390  138.0230 C   0  0  1  0  0  3  0  0  0  0  0  0
  183.4190  178.1990  140.8010 C   0  0  1  0  0  3  0  0  0  0  0  0
  184.8650  178.6290  138.8420 C   0  0  0  0  0  2  0  0  0  0  0  0
  185.5020  179.2490  141.2390 C   0  0  0  0  0  2  0  0  0  0  0  0
  183.8050  176.5220  137.9920 C   0  0  0  0  0  2  0  0  0  0  0  0
  184.9470  176.0930  137.0900 C   0  0  0  0  0  2  0  0  0  0  0  0
  185.0230  174.6430  137.0640 N   0  0  0  0  0  2  0  0  0  0  0  0
  187.4540  175.7770  137.0990 S   0  0  0  0  0  1  0  0  0  0  0  0
  186.4220  174.2870  137.2180 C   0  0  0  0  0  2  0  0  0  0  0  0
  1  2  1  0  0  0  0
  3  1  2  0  0  0  0
  4  6  2  0  0  0  0
  4  3  1  0  0  0  0
  5  2  2  0  0  0  0
  6  5  1  0  0  0  0
  7 14  1  0  0  0  0
  7 16  1  0  0  0  0
  8  7  2  0  0  0  0
  9 17  2  0  0  0  0
 10 16  1  0  0  0  0
 10  6  1  0  0  0  0
 11  9  1  0  0  0  0
 11 12  2  0  0  0  0
 12  8  1  0  0  0  0
 13 10  2  0  0  0  0
 15  9  1  0  0  0  0
 17  8  1  0  0  0  0
 17 13  1  0  0  0  0
 18  4  1  0  0  0  0
 19 22  1  0  0  0  0
 20 26  1  6  0  0  0
 20 25  1  0  0  0  0
 20 27  1  0  0  0  0
 21 23  1  0  0  0  0
 23 18  1  6  0  0  0
 24 28  1  1  0  0  0
 24 19  1  0  0  0  0
 24 26  1  0  0  0  0
 25 22  1  6  0  0  0
 25 21  1  0  0  0  0
 27 23  1  0  0  0  0
 29 28  1  0  0  0  0
 30 29  1  0  0  0  0
 30 32  1  0  0  0  0
 31 32  1  0  0  0  0
M  END
>  <MODEL>
5

>  <REMARK>
 VINA RESULT:      -9.1      2.644      4.364
  Name = 
  7 active torsions:
  status: ('A' for Active; 'I' for Inactive)
    1  A    between atoms: N_3  and  C_14
    2  A    between atoms: N_3  and  C_15
    3  A    between atoms: C_10  and  N_20
    4  A    between atoms: C_10  and  C_24
    5  A    between atoms: C_16  and  C_26
    6  A    between atoms: C_17  and  N_20
    7  A    between atoms: C_19  and  C_24
                            x       y       z     vdW  Elec       q    Type
                         _______ _______ _______ _____ _____    ______ ____

>  <TORSDO>
F 7

$$$$
=
 OpenBabel10262421393D

 32 36  0  0  1  0  0  0  0  0999 V2000
  191.6800  176.3730  145.4430 C   0  0  0  0  0  3  0  0  0  0  0  0
  190.8740  176.7540  146.5140 C   0  0  0  0  0  3  0  0  0  0  0  0
  191.1710  176.3960  144.1460 C   0  0  0  0  0  3  0  0  0  0  0  0
  189.8480  176.7950  143.9000 C   0  0  0  0  0  0  0  0  0  0  0  0
  189.5560  177.1520  146.2860 C   0  0  0  0  0  3  0  0  0  0  0  0
  189.0180  177.1740  144.9880 C   0  0  0  0  0  0  0  0  0  0  0  0
  185.4300  178.2370  145.7770 C   0  0  0  0  0  0  0  0  0  0  0  0
  184.9500  178.4070  144.4780 C   0  0  0  0  0  0  0  0  0  0  0  0
  184.9860  178.4390  142.2880 C   0  0  0  0  0  0  0  0  0  0  0  0
  187.5980  177.5840  144.8150 C   0  0  0  0  0  0  0  0  0  0  0  0
  183.7320  178.8140  142.7510 C   0  0  0  0  0  3  0  0  0  0  0  0
  183.7130  178.7930  144.1080 N   0  0  0  0  0  0  0  0  0  0  0  0
  187.0760  177.7760  143.5150 C   0  0  0  0  0  3  0  0  0  0  0  0
  184.5700  178.4820  146.9680 C   0  0  0  0  0  1  0  0  0  0  0  0
  185.3750  178.3480  140.9920 F   0  0  0  0  0  0  0  0  0  0  0  0
  186.7650  177.8280  145.9360 C   0  0  0  0  0  2  0  0  0  0  0  0
  185.7500  178.1830  143.3930 C   0  0  0  0  0  0  0  0  0  0  0  0
  189.3630  176.8620  142.5530 N   0  0  0  0  0  2  0  0  0  0  0  0
  188.8560  177.6480  136.8780 C   0  0  0  0  0  2  0  0  0  0  0  0
  190.2970  177.3120  139.2190 C   0  0  2  0  0  3  0  0  0  0  0  0
  188.7180  178.2870  140.6910 C   0  0  0  0  0  2  0  0  0  0  0  0
  188.2060  178.1540  138.1870 C   0  0  0  0  0  2  0  0  0  0  0  0
  189.8780  177.7790  141.5450 C   0  0  2  0  0  3  0  0  0  0  0  0
  189.5610  176.2750  137.0090 C   0  0  1  0  0  3  0  0  0  0  0  0
  188.8220  177.4910  139.4150 C   0  0  1  0  0  3  0  0  0  0  0  0
  190.5470  176.2040  138.2000 C   0  0  0  0  0  2  0  0  0  0  0  0
  190.8220  177.0260  140.6040 C   0  0  0  0  0  2  0  0  0  0  0  0
  188.5470  175.1460  137.1190 C   0  0  0  0  0  2  0  0  0  0  0  0
  188.0520  174.7420  135.7440 C   0  0  0  0  0  2  0  0  0  0  0  0
  186.6160  174.5300  135.7910 N   0  0  0  0  0  2  0  0  0  0  0  0
  185.3430  173.0040  137.5930 S   0  0  0  0  0  1  0  0  0  0  0  0
  186.2300  174.5370  137.1910 C   0  0  0  0  0  2  0  0  0  0  0  0
  1  2  1  0  0  0  0
  3  1  2  0  0  0  0
  4  3  1  0  0  0  0
  4  6  2  0  0  0  0
  5  2  2  0  0  0  0
  6  5  1  0  0  0  0
  7 16  1  0  0  0  0
  7 14  1  0  0  0  0
  8  7  2  0  0  0  0
  9 11  1  0  0  0  0
  9 17  2  0  0  0  0
 10  6  1  0  0  0  0
 10 16  1  0  0  0  0
 11 12  2  0  0  0  0
 12  8  1  0  0  0  0
 13 10  2  0  0  0  0
 15  9  1  0  0  0  0
 17 13  1  0  0  0  0
 17  8  1  0  0  0  0
 18  4  1  0  0  0  0
 19 24  1  0  0  0  0
 19 22  1  0  0  0  0
 20 26  1  6  0  0  0
 20 25  1  0  0  0  0
 20 27  1  0  0  0  0
 21 23  1  0  0  0  0
 23 18  1  1  0  0  0
 24 28  1  1  0  0  0
 24 26  1  0  0  0  0
 25 22  1  6  0  0  0
 25 21  1  0  0  0  0
 27 23  1  0  0  0  0
 29 30  1  0  0  0  0
 29 28  1  0  0  0  0
 30 32  1  0  0  0  0
 32 31  1  0  0  0  0
M  END
>  <MODEL>
6

>  <REMARK>
 VINA RESULT:      -8.9      2.504      4.781
  Name = 
  7 active torsions:
  status: ('A' for Active; 'I' for Inactive)
    1  A    between atoms: N_3  and  C_14
    2  A    between atoms: N_3  and  C_15
    3  A    between atoms: C_10  and  N_20
    4  A    between atoms: C_10  and  C_24
    5  A    between atoms: C_16  and  C_26
    6  A    between atoms: C_17  and  N_20
    7  A    between atoms: C_19  and  C_24
                            x       y       z     vdW  Elec       q    Type
                         _______ _______ _______ _____ _____    ______ ____

>  <TORSDO>
F 7

$$$$
=
 OpenBabel10262421393D

 32 36  0  0  1  0  0  0  0  0999 V2000
  188.8290  177.3520  146.5670 C   0  0  0  0  0  3  0  0  0  0  0  0
  187.6080  177.8460  147.0190 C   0  0  0  0  0  3  0  0  0  0  0  0
  189.0280  177.1250  145.2060 C   0  0  0  0  0  3  0  0  0  0  0  0
  188.0070  177.3850  144.2780 C   0  0  0  0  0  0  0  0  0  0  0  0
  186.5830  178.1090  146.1090 C   0  0  0  0  0  3  0  0  0  0  0  0
  186.7570  177.8780  144.7330 C   0  0  0  0  0  0  0  0  0  0  0  0
  183.2300  178.6320  143.4600 C   0  0  0  0  0  0  0  0  0  0  0  0
  183.4950  178.7260  142.0940 C   0  0  0  0  0  0  0  0  0  0  0  0
  184.6750  178.7090  140.2480 C   0  0  0  0  0  0  0  0  0  0  0  0
  185.6170  178.1550  143.8170 C   0  0  0  0  0  0  0  0  0  0  0  0
  183.3430  178.9810  139.9620 C   0  0  0  0  0  3  0  0  0  0  0  0
  182.6150  178.9900  141.1070 N   0  0  0  0  0  0  0  0  0  0  0  0
  185.8450  178.2670  142.4270 C   0  0  0  0  0  3  0  0  0  0  0  0
  181.8590  178.8270  144.0070 C   0  0  0  0  0  1  0  0  0  0  0  0
  185.6910  178.6220  139.3540 F   0  0  0  0  0  0  0  0  0  0  0  0
  184.3050  178.3490  144.3190 C   0  0  0  0  0  2  0  0  0  0  0  0
  184.7580  178.5500  141.6030 C   0  0  0  0  0  0  0  0  0  0  0  0
  188.2540  177.1950  142.8790 N   0  0  0  0  0  2  0  0  0  0  0  0
  189.8000  177.8940  137.3830 C   0  0  0  0  0  2  0  0  0  0  0  0
  190.2660  177.2050  140.0260 C   0  0  2  0  0  3  0  0  0  0  0  0
  188.6930  178.6820  141.0050 C   0  0  0  0  0  2  0  0  0  0  0  0
  188.9690  178.6260  138.4620 C   0  0  0  0  0  2  0  0  0  0  0  0
  189.3130  177.8650  142.1380 C   0  0  2  0  0  3  0  0  0  0  0  0
  189.9660  176.3740  137.6340 C   0  0  1  0  0  3  0  0  0  0  0  0
  188.9350  177.8480  139.7730 C   0  0  1  0  0  3  0  0  0  0  0  0
  190.4610  176.0390  139.0610 C   0  0  0  0  0  2  0  0  0  0  0  0
  190.2190  176.8190  141.4830 C   0  0  0  0  0  2  0  0  0  0  0  0
  188.6700  175.6270  137.3550 C   0  0  0  0  0  2  0  0  0  0  0  0
  188.2510  175.8130  135.9100 C   0  0  0  0  0  2  0  0  0  0  0  0
  186.9350  176.4250  135.8640 N   0  0  0  0  0  2  0  0  0  0  0  0
  184.8250  175.0910  136.8470 S   0  0  0  0  0  1  0  0  0  0  0  0
  186.2850  176.1340  137.1290 C   0  0  0  0  0  2  0  0  0  0  0  0
  1  2  1  0  0  0  0
  3  1  2  0  0  0  0
  4  6  2  0  0  0  0
  4  3  1  0  0  0  0
  5  2  2  0  0  0  0
  6  5  1  0  0  0  0
  7 14  1  0  0  0  0
  7 16  1  0  0  0  0
  8  7  2  0  0  0  0
  9 17  2  0  0  0  0
 10 16  1  0  0  0  0
 10  6  1  0  0  0  0
 11  9  1  0  0  0  0
 11 12  2  0  0  0  0
 12  8  1  0  0  0  0
 13 10  2  0  0  0  0
 15  9  1  0  0  0  0
 17  8  1  0  0  0  0
 17 13  1  0  0  0  0
 18  4  1  0  0  0  0
 19 24  1  0  0  0  0
 19 22  1  0  0  0  0
 20 26  1  6  0  0  0
 20 27  1  0  0  0  0
 21 23  1  0  0  0  0
 23 18  1  6  0  0  0
 24 28  1  1  0  0  0
 24 26  1  0  0  0  0
 25 22  1  6  0  0  0
 25 20  1  0  0  0  0
 25 21  1  0  0  0  0
 27 23  1  0  0  0  0
 29 28  1  0  0  0  0
 30 29  1  0  0  0  0
 30 32  1  0  0  0  0
 31 32  1  0  0  0  0
M  END
>  <MODEL>
7

>  <REMARK>
 VINA RESULT:      -8.9      2.621      5.112
  Name = 
  7 active torsions:
  status: ('A' for Active; 'I' for Inactive)
    1  A    between atoms: N_3  and  C_14
    2  A    between atoms: N_3  and  C_15
    3  A    between atoms: C_10  and  N_20
    4  A    between atoms: C_10  and  C_24
    5  A    between atoms: C_16  and  C_26
    6  A    between atoms: C_17  and  N_20
    7  A    between atoms: C_19  and  C_24
                            x       y       z     vdW  Elec       q    Type
                         _______ _______ _______ _____ _____    ______ ____

>  <TORSDO>
F 7

$$$$
=
 OpenBabel10262421393D

 32 36  0  0  1  0  0  0  0  0999 V2000
  191.6810  176.2790  144.6320 C   0  0  0  0  0  3  0  0  0  0  0  0
  190.9210  176.7500  145.7010 C   0  0  0  0  0  3  0  0  0  0  0  0
  191.1530  176.2960  143.3420 C   0  0  0  0  0  3  0  0  0  0  0  0
  189.8570  176.7790  143.1020 C   0  0  0  0  0  0  0  0  0  0  0  0
  189.6300  177.2330  145.4790 C   0  0  0  0  0  3  0  0  0  0  0  0
  189.0730  177.2490  144.1880 C   0  0  0  0  0  0  0  0  0  0  0  0
  185.8490  178.5260  142.5750 C   0  0  0  0  0  0  0  0  0  0  0  0
  185.0540  178.6460  143.7160 C   0  0  0  0  0  0  0  0  0  0  0  0
  184.5210  178.5530  145.8390 C   0  0  0  0  0  0  0  0  0  0  0  0
  187.6830  177.7530  144.0220 C   0  0  0  0  0  0  0  0  0  0  0  0
  183.4380  179.0000  145.0930 C   0  0  0  0  0  3  0  0  0  0  0  0
  183.7720  179.0560  143.7780 N   0  0  0  0  0  0  0  0  0  0  0  0
  186.8420  177.8790  145.1510 C   0  0  0  0  0  3  0  0  0  0  0  0
  185.3300  178.8610  141.2210 C   0  0  0  0  0  1  0  0  0  0  0  0
  184.5560  178.3700  147.1820 F   0  0  0  0  0  0  0  0  0  0  0  0
  187.1680  178.0710  142.7400 C   0  0  0  0  0  3  0  0  0  0  0  0
  185.5400  178.3310  144.9530 C   0  0  1  0  0  3  0  0  0  0  0  0
  189.3560  176.8360  141.7600 N   0  0  0  0  0  2  0  0  0  0  0  0
  188.5670  177.6070  136.1160 C   0  0  0  0  0  2  0  0  0  0  0  0
  190.0410  176.8570  138.3370 C   0  0  2  0  0  3  0  0  0  0  0  0
  189.0420  178.3480  139.8820 C   0  0  0  0  0  2  0  0  0  0  0  0
  188.2640  178.3360  137.4450 C   0  0  0  0  0  2  0  0  0  0  0  0
  190.0440  177.4960  140.6600 C   0  0  2  0  0  3  0  0  0  0  0  0
  188.7770  176.0790  136.2640 C   0  0  1  0  0  3  0  0  0  0  0  0
  188.7410  177.5340  138.6510 C   0  0  1  0  0  3  0  0  0  0  0  0
  189.7970  175.7050  137.3660 C   0  0  0  0  0  2  0  0  0  0  0  0
  190.5780  176.4430  139.6850 C   0  0  0  0  0  2  0  0  0  0  0  0
  187.4590  175.3670  136.5280 C   0  0  0  0  0  2  0  0  0  0  0  0
  186.6070  175.3450  135.2730 C   0  0  0  0  0  2  0  0  0  0  0  0
  185.3410  176.0050  135.5370 N   0  0  0  0  0  2  0  0  0  0  0  0
  184.5320  177.5030  137.6110 S   0  0  0  0  0  1  0  0  0  0  0  0
  185.0960  175.9020  136.9650 C   0  0  0  0  0  2  0  0  0  0  0  0
  1  2  1  0  0  0  0
  3  1  2  0  0  0  0
  4  3  1  0  0  0  0
  4  6  2  0  0  0  0
  5  2  2  0  0  0  0
  6  5  1  0  0  0  0
  7 16  2  0  0  0  0
  7  8  1  0  0  0  0
  8 12  2  0  0  0  0
  8 17  1  0  0  0  0
  9 15  1  0  0  0  0
 10  6  1  0  0  0  0
 10 13  2  0  0  0  0
 11  9  2  0  0  0  0
 12 11  1  0  0  0  0
 14  7  1  0  0  0  0
 16 10  1  0  0  0  0
 17 13  1  6  0  0  0
 17  9  1  0  0  0  0
 18  4  1  0  0  0  0
 19 24  1  0  0  0  0
 19 22  1  0  0  0  0
 20 26  1  6  0  0  0
 20 25  1  0  0  0  0
 20 27  1  0  0  0  0
 21 23  1  0  0  0  0
 23 18  1  1  0  0  0
 24 28  1  1  0  0  0
 24 26  1  0  0  0  0
 25 22  1  6  0  0  0
 25 21  1  0  0  0  0
 27 23  1  0  0  0  0
 29 30  1  0  0  0  0
 29 28  1  0  0  0  0
 30 32  1  0  0  0  0
 32 31  1  0  0  0  0
M  END
>  <MODEL>
8

>  <REMARK>
 VINA RESULT:      -8.9      2.802      5.322
  Name = 
  7 active torsions:
  status: ('A' for Active; 'I' for Inactive)
    1  A    between atoms: N_3  and  C_14
    2  A    between atoms: N_3  and  C_15
    3  A    between atoms: C_10  and  N_20
    4  A    between atoms: C_10  and  C_24
    5  A    between atoms: C_16  and  C_26
    6  A    between atoms: C_17  and  N_20
    7  A    between atoms: C_19  and  C_24
                            x       y       z     vdW  Elec       q    Type
                         _______ _______ _______ _____ _____    ______ ____

>  <TORSDO>
F 7

$$$$
=
 OpenBabel10262421393D

 32 36  0  0  1  0  0  0  0  0999 V2000
  188.2080  177.5080  146.5290 C   0  0  0  0  0  3  0  0  0  0  0  0
  186.9690  178.0150  146.9150 C   0  0  0  0  0  3  0  0  0  0  0  0
  188.4720  177.2670  145.1810 C   0  0  0  0  0  3  0  0  0  0  0  0
  187.5000  177.5250  144.2010 C   0  0  0  0  0  0  0  0  0  0  0  0
  185.9930  178.2770  145.9530 C   0  0  0  0  0  3  0  0  0  0  0  0
  186.2320  178.0320  144.5900 C   0  0  0  0  0  0  0  0  0  0  0  0
  184.3680  178.6050  141.3000 C   0  0  0  0  0  0  0  0  0  0  0  0
  183.0750  178.7730  141.7950 C   0  0  0  0  0  0  0  0  0  0  0  0
  181.4710  178.9090  143.2820 C   0  0  0  0  0  0  0  0  0  0  0  0
  185.1410  178.3080  143.6170 C   0  0  0  0  0  0  0  0  0  0  0  0
  180.9560  179.0910  142.0050 C   0  0  0  0  0  3  0  0  0  0  0  0
  181.9530  179.0060  141.0870 N   0  0  0  0  0  0  0  0  0  0  0  0
  183.8150  178.4750  144.0780 C   0  0  0  0  0  3  0  0  0  0  0  0
  184.6620  178.6680  139.8420 C   0  0  0  0  0  1  0  0  0  0  0  0
  180.7730  178.9260  144.4440 F   0  0  0  0  0  0  0  0  0  0  0  0
  185.4000  178.3660  142.2240 C   0  0  0  0  0  2  0  0  0  0  0  0
  182.8160  178.7090  143.1350 C   0  0  0  0  0  0  0  0  0  0  0  0
  187.8130  177.3200  142.8180 N   0  0  0  0  0  2  0  0  0  0  0  0
  189.5710  178.0060  137.3850 C   0  0  0  0  0  2  0  0  0  0  0  0
  189.9380  177.3400  140.0480 C   0  0  2  0  0  3  0  0  0  0  0  0
  188.3080  178.8010  140.9540 C   0  0  0  0  0  2  0  0  0  0  0  0
  188.6870  178.7340  138.4240 C   0  0  0  0  0  2  0  0  0  0  0  0
  188.8920  178.0000  142.1160 C   0  0  2  0  0  3  0  0  0  0  0  0
  189.7460  176.4900  137.6520 C   0  0  1  0  0  3  0  0  0  0  0  0
  188.6100  177.9640  139.7380 C   0  0  1  0  0  3  0  0  0  0  0  0
  190.1870  176.1700  139.1000 C   0  0  0  0  0  2  0  0  0  0  0  0
  189.8380  176.9610  141.5040 C   0  0  0  0  0  2  0  0  0  0  0  0
  188.4730  175.7240  137.3260 C   0  0  0  0  0  2  0  0  0  0  0  0
  188.8000  174.3040  136.9060 C   0  0  0  0  0  2  0  0  0  0  0  0
  187.6960  173.7630  136.1330 N   0  0  0  0  0  2  0  0  0  0  0  0
  185.5760  173.0030  137.5910 S   0  0  0  0  0  1  0  0  0  0  0  0
  186.4730  174.3060  136.6980 C   0  0  0  0  0  2  0  0  0  0  0  0
  1  2  1  0  0  0  0
  3  1  2  0  0  0  0
  4  6  2  0  0  0  0
  4  3  1  0  0  0  0
  5  2  2  0  0  0  0
  6  5  1  0  0  0  0
  7  8  2  0  0  0  0
  7 16  1  0  0  0  0
  8 17  1  0  0  0  0
  9 15  1  0  0  0  0
 10 13  2  0  0  0  0
 10  6  1  0  0  0  0
 11  9  1  0  0  0  0
 12  8  1  0  0  0  0
 12 11  2  0  0  0  0
 14  7  1  0  0  0  0
 16 10  1  0  0  0  0
 17  9  2  0  0  0  0
 17 13  1  0  0  0  0
 18  4  1  0  0  0  0
 19 24  1  0  0  0  0
 19 22  1  0  0  0  0
 20 26  1  6  0  0  0
 20 27  1  0  0  0  0
 21 23  1  0  0  0  0
 23 18  1  6  0  0  0
 24 28  1  1  0  0  0
 24 26  1  0  0  0  0
 25 22  1  6  0  0  0
 25 20  1  0  0  0  0
 25 21  1  0  0  0  0
 27 23  1  0  0  0  0
 29 28  1  0  0  0  0
 30 32  1  0  0  0  0
 30 29  1  0  0  0  0
 32 31  1  0  0  0  0
M  END
>  <MODEL>
9

>  <REMARK>
 VINA RESULT:      -8.7      2.937      5.560
  Name = 
  7 active torsions:
  status: ('A' for Active; 'I' for Inactive)
    1  A    between atoms: N_3  and  C_14
    2  A    between atoms: N_3  and  C_15
    3  A    between atoms: C_10  and  N_20
    4  A    between atoms: C_10  and  C_24
    5  A    between atoms: C_16  and  C_26
    6  A    between atoms: C_17  and  N_20
    7  A    between atoms: C_19  and  C_24
                            x       y       z     vdW  Elec       q    Type
                         _______ _______ _______ _____ _____    ______ ____

>  <TORSDO>
F 7

$$$$
