=
 OpenBabel10262419423D

 31 34  0  0  1  0  0  0  0  0999 V2000
  187.7080  177.8280  143.7930 C   0  0  0  0  0  0  0  0  0  0  0  0
  186.4890  178.1270  144.4730 C   0  0  0  0  0  0  0  0  0  0  0  0
  185.1640  178.3090  146.5160 C   0  0  0  0  0  3  0  0  0  0  0  0
  188.8960  177.4010  144.4480 C   0  0  0  0  0  0  0  0  0  0  0  0
  190.5960  177.2290  146.1630 C   0  0  2  0  0  3  0  0  0  0  0  0
  186.3640  178.0140  145.8690 C   0  0  0  0  0  3  0  0  0  0  0  0
  188.9340  177.6850  141.6540 C   0  0  0  0  0  0  0  0  0  0  0  0
  185.4310  178.6750  142.3450 C   0  0  0  0  0  3  0  0  0  0  0  0
  184.0590  178.7250  145.7780 C   0  0  0  0  0  3  0  0  0  0  0  0
  190.0730  177.2550  142.3430 C   0  0  0  0  0  3  0  0  0  0  0  0
  187.7520  177.9660  142.3720 C   0  0  0  0  0  0  0  0  0  0  0  0
  189.0920  177.2240  145.9130 C   0  0  0  0  0  2  0  0  0  0  0  0
  183.0280  179.2650  143.6760 O   0  0  0  0  0  1  0  0  0  0  0  0
  190.0340  177.1060  143.7220 C   0  0  0  0  0  0  0  0  0  0  0  0
  191.4370  176.5780  144.6760 S   0  0  0  0  0  0  0  0  0  0  0  0
  186.6130  178.3870  141.6760 C   0  0  0  0  0  3  0  0  0  0  0  0
  185.3530  178.5510  143.7310 C   0  0  0  0  0  0  0  0  0  0  0  0
  184.1470  178.8480  144.3900 C   0  0  0  0  0  0  0  0  0  0  0  0
  190.4270  176.1090  139.6460 O   0  0  0  0  0  0  0  0  0  0  0  0
  189.6910  177.0600  139.2740 C   0  0  0  0  0  0  0  0  0  0  0  0
  188.9530  177.8430  140.2240 N   0  0  0  0  0  2  0  0  0  0  0  0
  189.0290  178.7610  137.5870 C   0  0  0  0  0  1  0  0  0  0  0  0
  189.5830  177.3640  137.8140 C   0  0  2  0  0  3  0  0  0  0  0  0
  189.4450  175.5770  135.9890 C   0  0  0  0  0  1  0  0  0  0  0  0
  188.7750  176.3320  137.0900 C   0  0  0  0  0  0  0  0  0  0  0  0
  187.5380  176.1150  137.4410 N   0  0  0  0  0  0  0  0  0  0  0  0
  186.6180  175.1680  136.8750 C   0  0  0  0  0  0  0  0  0  0  0  0
  186.5480  173.9820  137.2920 O   0  0  0  0  0  0  0  0  0  0  0  0
  185.7270  175.6020  135.7680 C   0  0  0  0  0  1  0  0  0  0  0  0
  190.9170  176.3800  147.3790 C   0  0  0  0  0  2  0  0  0  0  0  0
  192.2610  175.7000  147.2070 C   0  0  0  0  0  1  0  0  0  0  0  0
  1  4  1  0  0  0  0
  1  2  1  0  0  0  0
  2  6  2  0  0  0  0
  4 12  1  0  0  0  0
  5 30  1  1  0  0  0
  6  3  1  0  0  0  0
  7 10  2  0  0  0  0
  7 11  1  0  0  0  0
  8 17  1  0  0  0  0
  9  3  2  0  0  0  0
 10 14  1  0  0  0  0
 11  1  2  0  0  0  0
 12  5  1  0  0  0  0
 13 18  1  0  0  0  0
 14  4  2  0  0  0  0
 14 15  1  0  0  0  0
 15  5  1  0  0  0  0
 16  8  2  0  0  0  0
 16 11  1  0  0  0  0
 17 18  2  0  0  0  0
 17  2  1  0  0  0  0
 18  9  1  0  0  0  0
 20 19  2  0  0  0  0
 20 21  1  0  0  0  0
 21  7  1  0  0  0  0
 23 22  1  1  0  0  0
 23 20  1  0  0  0  0
 24 25  1  0  0  0  0
 25 26  2  0  0  0  0
 25 23  1  0  0  0  0
 27 28  2  0  0  0  0
 27 26  1  0  0  0  0
 29 27  1  0  0  0  0
 31 30  1  0  0  0  0
M  END
>  <MODEL>
1

>  <REMARK>
 VINA RESULT:     -10.4      0.000      0.000
  Name = 
  5 active torsions:
  status: ('A' for Active; 'I' for Inactive)
    1  A    between atoms: C_1  and  N_24
    2  A    between atoms: C_2  and  C_13
    3  A    between atoms: C_9  and  C_22
    4  A    between atoms: C_15  and  N_23
    5  A    between atoms: C_19  and  C_22
                            x       y       z     vdW  Elec       q    Type
                         _______ _______ _______ _____ _____    ______ ____

>  <TORSDO>
F 5

$$$$
=
 OpenBabel10262419423D

 31 34  0  0  1  0  0  0  0  0999 V2000
  187.8340  177.5610  144.2360 C   0  0  0  0  0  0  0  0  0  0  0  0
  186.7710  177.9740  145.0940 C   0  0  0  0  0  0  0  0  0  0  0  0
  185.8690  178.4540  147.3120 C   0  0  0  0  0  3  0  0  0  0  0  0
  189.1290  177.1970  144.6990 C   0  0  0  0  0  0  0  0  0  0  0  0
  191.1310  177.2140  146.0590 C   0  0  2  0  0  3  0  0  0  0  0  0
  186.9210  178.0490  146.4900 C   0  0  0  0  0  3  0  0  0  0  0  0
  188.6190  177.1100  141.9380 C   0  0  0  0  0  0  0  0  0  0  0  0
  185.3150  178.2610  143.1580 C   0  0  0  0  0  3  0  0  0  0  0  0
  184.6400  178.7940  146.7540 C   0  0  0  0  0  3  0  0  0  0  0  0
  189.8720  176.7490  142.4450 C   0  0  0  0  0  3  0  0  0  0  0  0
  187.5990  177.5100  142.8290 C   0  0  0  0  0  0  0  0  0  0  0  0
  189.6080  177.2110  146.1090 C   0  0  0  0  0  2  0  0  0  0  0  0
  183.2160  179.0760  144.8390 O   0  0  0  0  0  1  0  0  0  0  0  0
  190.1040  176.7830  143.8130 C   0  0  0  0  0  0  0  0  0  0  0  0
  191.6680  176.3540  144.5370 S   0  0  0  0  0  0  0  0  0  0  0  0
  186.3440  177.8610  142.3170 C   0  0  0  0  0  3  0  0  0  0  0  0
  185.5100  178.3230  144.5370 C   0  0  0  0  0  0  0  0  0  0  0  0
  184.4540  178.7310  145.3720 C   0  0  0  0  0  0  0  0  0  0  0  0
  189.0480  179.2440  139.9370 O   0  0  0  0  0  0  0  0  0  0  0  0
  188.5770  178.1330  139.5760 C   0  0  0  0  0  0  0  0  0  0  0  0
  188.3580  177.0780  140.5250 N   0  0  0  0  0  2  0  0  0  0  0  0
  189.1450  178.7650  137.2410 C   0  0  0  0  0  1  0  0  0  0  0  0
  188.2530  177.9180  138.1330 C   0  0  2  0  0  3  0  0  0  0  0  0
  186.3030  177.8300  136.4800 C   0  0  0  0  0  1  0  0  0  0  0  0
  186.8030  178.1640  137.8470 C   0  0  0  0  0  0  0  0  0  0  0  0
  186.0310  178.6420  138.7830 N   0  0  0  0  0  0  0  0  0  0  0  0
  184.6270  178.9320  138.6990 C   0  0  0  0  0  0  0  0  0  0  0  0
  184.1830  180.1020  138.8440 O   0  0  0  0  0  0  0  0  0  0  0  0
  183.6760  177.8230  138.4340 C   0  0  0  0  0  1  0  0  0  0  0  0
  191.6870  176.5260  147.2920 C   0  0  0  0  0  2  0  0  0  0  0  0
  192.4500  175.2760  146.8990 C   0  0  0  0  0  1  0  0  0  0  0  0
  1  4  1  0  0  0  0
  1  2  2  0  0  0  0
  2  6  1  0  0  0  0
  4 12  1  0  0  0  0
  5 12  1  0  0  0  0
  5 30  1  1  0  0  0
  6  3  2  0  0  0  0
  7 10  2  0  0  0  0
  7 11  1  0  0  0  0
  8 17  2  0  0  0  0
  9  3  1  0  0  0  0
 10 14  1  0  0  0  0
 11  1  1  0  0  0  0
 13 18  1  0  0  0  0
 14 15  1  0  0  0  0
 14  4  2  0  0  0  0
 15  5  1  0  0  0  0
 16 11  2  0  0  0  0
 16  8  1  0  0  0  0
 17  2  1  0  0  0  0
 17 18  1  0  0  0  0
 18  9  2  0  0  0  0
 20 19  2  0  0  0  0
 20 21  1  0  0  0  0
 21  7  1  0  0  0  0
 23 22  1  6  0  0  0
 23 20  1  0  0  0  0
 24 25  1  0  0  0  0
 25 23  1  0  0  0  0
 25 26  2  0  0  0  0
 27 26  1  0  0  0  0
 27 28  2  0  0  0  0
 29 27  1  0  0  0  0
 31 30  1  0  0  0  0
M  END
>  <MODEL>
2

>  <REMARK>
 VINA RESULT:     -10.3      1.863      2.172
  Name = 
  5 active torsions:
  status: ('A' for Active; 'I' for Inactive)
    1  A    between atoms: C_1  and  N_24
    2  A    between atoms: C_2  and  C_13
    3  A    between atoms: C_9  and  C_22
    4  A    between atoms: C_15  and  N_23
    5  A    between atoms: C_19  and  C_22
                            x       y       z     vdW  Elec       q    Type
                         _______ _______ _______ _____ _____    ______ ____

>  <TORSDO>
F 5

$$$$
=
 OpenBabel10262419423D

 31 34  0  0  1  0  0  0  0  0999 V2000
  187.6700  177.6060  143.9160 C   0  0  0  0  0  0  0  0  0  0  0  0
  186.5150  178.0180  144.6470 C   0  0  0  0  0  0  0  0  0  0  0  0
  185.3640  178.4930  146.7480 C   0  0  0  0  0  3  0  0  0  0  0  0
  188.9030  177.2420  144.5250 C   0  0  0  0  0  0  0  0  0  0  0  0
  190.7360  177.2570  146.1060 C   0  0  2  0  0  3  0  0  0  0  0  0
  186.5030  178.0900  146.0510 C   0  0  0  0  0  3  0  0  0  0  0  0
  188.7140  177.1600  141.7240 C   0  0  0  0  0  0  0  0  0  0  0  0
  185.2910  178.3080  142.5570 C   0  0  0  0  0  3  0  0  0  0  0  0
  184.2060  178.8340  146.0520 C   0  0  0  0  0  3  0  0  0  0  0  0
  189.9010  176.7980  142.3700 C   0  0  0  0  0  3  0  0  0  0  0  0
  187.5980  177.5580  142.4910 C   0  0  0  0  0  0  0  0  0  0  0  0
  189.2160  177.2530  145.9810 C   0  0  0  0  0  2  0  0  0  0  0  0
  183.0130  179.1180  143.9870 O   0  0  0  0  0  1  0  0  0  0  0  0
  189.9730  176.8300  143.7560 C   0  0  0  0  0  0  0  0  0  0  0  0
  191.4440  176.4000  144.6550 S   0  0  0  0  0  0  0  0  0  0  0  0
  186.4110  177.9100  141.8390 C   0  0  0  0  0  3  0  0  0  0  0  0
  185.3260  178.3680  143.9490 C   0  0  0  0  0  0  0  0  0  0  0  0
  184.1810  178.7740  144.6580 C   0  0  0  0  0  0  0  0  0  0  0  0
  189.0750  179.3830  139.8070 O   0  0  0  0  0  0  0  0  0  0  0  0
  188.7980  178.2300  139.3830 C   0  0  0  0  0  0  0  0  0  0  0  0
  188.6170  177.1310  140.2890 N   0  0  0  0  0  2  0  0  0  0  0  0
  187.2820  177.4940  137.5570 C   0  0  0  0  0  1  0  0  0  0  0  0
  188.6670  178.0120  137.9100 C   0  0  2  0  0  3  0  0  0  0  0  0
  189.6870  176.7410  135.9380 C   0  0  0  0  0  1  0  0  0  0  0  0
  189.7390  177.1070  137.3860 C   0  0  0  0  0  0  0  0  0  0  0  0
  190.6760  176.6810  138.1870 N   0  0  0  0  0  0  0  0  0  0  0  0
  191.7810  175.8220  137.8660 C   0  0  0  0  0  0  0  0  0  0  0  0
  191.6860  174.5670  137.9310 O   0  0  0  0  0  0  0  0  0  0  0  0
  193.0690  176.4310  137.4460 C   0  0  0  0  0  1  0  0  0  0  0  0
  191.1460  176.5670  147.3940 C   0  0  0  0  0  2  0  0  0  0  0  0
  192.3000  175.6170  147.1380 C   0  0  0  0  0  1  0  0  0  0  0  0
  1  4  1  0  0  0  0
  1  2  2  0  0  0  0
  2  6  1  0  0  0  0
  4 12  1  0  0  0  0
  5 30  1  1  0  0  0
  6  3  2  0  0  0  0
  7 10  2  0  0  0  0
  7 11  1  0  0  0  0
  8 17  2  0  0  0  0
  9  3  1  0  0  0  0
 10 14  1  0  0  0  0
 11  1  1  0  0  0  0
 12  5  1  0  0  0  0
 13 18  1  0  0  0  0
 14  4  2  0  0  0  0
 14 15  1  0  0  0  0
 15  5  1  0  0  0  0
 16 11  2  0  0  0  0
 16  8  1  0  0  0  0
 17  2  1  0  0  0  0
 17 18  1  0  0  0  0
 18  9  2  0  0  0  0
 20 19  2  0  0  0  0
 20 21  1  0  0  0  0
 21  7  1  0  0  0  0
 23 22  1  1  0  0  0
 23 20  1  0  0  0  0
 24 25  1  0  0  0  0
 25 23  1  0  0  0  0
 25 26  2  0  0  0  0
 27 28  2  0  0  0  0
 27 26  1  0  0  0  0
 29 27  1  0  0  0  0
 31 30  1  0  0  0  0
M  END
>  <MODEL>
3

>  <REMARK>
 VINA RESULT:     -10.0      1.492      2.199
  Name = 
  5 active torsions:
  status: ('A' for Active; 'I' for Inactive)
    1  A    between atoms: C_1  and  N_24
    2  A    between atoms: C_2  and  C_13
    3  A    between atoms: C_9  and  C_22
    4  A    between atoms: C_15  and  N_23
    5  A    between atoms: C_19  and  C_22
                            x       y       z     vdW  Elec       q    Type
                         _______ _______ _______ _____ _____    ______ ____

>  <TORSDO>
F 5

$$$$
=
 OpenBabel10262419423D

 31 34  0  0  1  0  0  0  0  0999 V2000
  188.5100  177.8210  142.8920 C   0  0  0  0  0  0  0  0  0  0  0  0
  188.9500  177.5540  144.2230 C   0  0  0  0  0  0  0  0  0  0  0  0
  188.5270  177.3430  146.6190 C   0  0  0  0  0  3  0  0  0  0  0  0
  187.1690  178.1550  142.5540 C   0  0  0  0  0  0  0  0  0  0  0  0
  184.7490  178.1560  142.6360 C   0  0  2  0  0  3  0  0  0  0  0  0
  188.0780  177.6060  145.3250 C   0  0  0  0  0  3  0  0  0  0  0  0
  189.0730  178.0020  140.4950 C   0  0  0  0  0  0  0  0  0  0  0  0
  191.2130  177.1640  143.4010 C   0  0  0  0  0  3  0  0  0  0  0  0
  189.8630  177.0200  146.8410 C   0  0  0  0  0  3  0  0  0  0  0  0
  187.7450  178.3390  140.2150 C   0  0  0  0  0  3  0  0  0  0  0  0
  189.4600  177.7490  141.8290 C   0  0  0  0  0  0  0  0  0  0  0  0
  186.0120  178.2500  143.4860 C   0  0  0  0  0  2  0  0  0  0  0  0
  192.0880  176.6360  146.0180 O   0  0  0  0  0  1  0  0  0  0  0  0
  186.8190  178.4240  141.2450 C   0  0  0  0  0  0  0  0  0  0  0  0
  185.1110  178.8320  140.9760 S   0  0  0  0  0  0  0  0  0  0  0  0
  190.7920  177.4210  142.1040 C   0  0  0  0  0  3  0  0  0  0  0  0
  190.3120  177.2240  144.4630 C   0  0  0  0  0  0  0  0  0  0  0  0
  190.7580  176.9590  145.7710 C   0  0  0  0  0  0  0  0  0  0  0  0
  189.9770  175.6030  139.0220 O   0  0  0  0  0  0  0  0  0  0  0  0
  190.4670  176.7290  138.7440 C   0  0  0  0  0  0  0  0  0  0  0  0
  190.0480  177.9120  139.4420 N   0  0  0  0  0  2  0  0  0  0  0  0
  191.0210  176.1310  136.3960 C   0  0  0  0  0  1  0  0  0  0  0  0
  191.4950  176.8250  137.6630 C   0  0  2  0  0  3  0  0  0  0  0  0
  193.3820  176.8300  139.3900 C   0  0  0  0  0  1  0  0  0  0  0  0
  192.8230  176.2970  138.1110 C   0  0  0  0  0  0  0  0  0  0  0  0
  193.4360  175.3950  137.3960 N   0  0  0  0  0  0  0  0  0  0  0  0
  194.7000  174.7700  137.6680 C   0  0  0  0  0  0  0  0  0  0  0  0
  195.7920  175.3480  137.4220 O   0  0  0  0  0  0  0  0  0  0  0  0
  194.7180  173.4060  138.2560 C   0  0  0  0  0  1  0  0  0  0  0  0
  183.6240  178.9280  143.3000 C   0  0  0  0  0  2  0  0  0  0  0  0
  183.7820  178.8960  144.8080 C   0  0  0  0  0  1  0  0  0  0  0  0
  1  2  2  0  0  0  0
  2 17  1  0  0  0  0
  2  6  1  0  0  0  0
  3  9  1  0  0  0  0
  4  1  1  0  0  0  0
  4 12  1  0  0  0  0
  5 30  1  1  0  0  0
  5 12  1  0  0  0  0
  6  3  2  0  0  0  0
  7 11  1  0  0  0  0
  8 17  2  0  0  0  0
 10  7  2  0  0  0  0
 10 14  1  0  0  0  0
 11 16  2  0  0  0  0
 11  1  1  0  0  0  0
 14  4  2  0  0  0  0
 15 14  1  0  0  0  0
 15  5  1  0  0  0  0
 16  8  1  0  0  0  0
 17 18  1  0  0  0  0
 18 13  1  0  0  0  0
 18  9  2  0  0  0  0
 20 19  2  0  0  0  0
 20 21  1  0  0  0  0
 21  7  1  0  0  0  0
 23 22  1  6  0  0  0
 23 25  1  0  0  0  0
 23 20  1  0  0  0  0
 25 24  1  0  0  0  0
 26 27  1  0  0  0  0
 26 25  2  0  0  0  0
 27 29  1  0  0  0  0
 28 27  2  0  0  0  0
 30 31  1  0  0  0  0
M  END
>  <MODEL>
4

>  <REMARK>
 VINA RESULT:     -10.0      3.068      5.570
  Name = 
  5 active torsions:
  status: ('A' for Active; 'I' for Inactive)
    1  A    between atoms: C_1  and  N_24
    2  A    between atoms: C_2  and  C_13
    3  A    between atoms: C_9  and  C_22
    4  A    between atoms: C_15  and  N_23
    5  A    between atoms: C_19  and  C_22
                            x       y       z     vdW  Elec       q    Type
                         _______ _______ _______ _____ _____    ______ ____

>  <TORSDO>
F 5

$$$$
=
 OpenBabel10262419423D

 31 34  0  0  1  0  0  0  0  0999 V2000
  188.0430  177.8890  143.6480 C   0  0  0  0  0  0  0  0  0  0  0  0
  188.6370  177.5310  144.8950 C   0  0  0  0  0  0  0  0  0  0  0  0
  188.5050  177.1600  147.3050 C   0  0  0  0  0  3  0  0  0  0  0  0
  186.6750  178.2490  143.4970 C   0  0  0  0  0  0  0  0  0  0  0  0
  184.2830  178.2520  143.8720 C   0  0  2  0  0  3  0  0  0  0  0  0
  187.9060  177.5120  146.0950 C   0  0  0  0  0  3  0  0  0  0  0  0
  188.3150  178.2300  141.2170 C   0  0  0  0  0  0  0  0  0  0  0  0
  190.7800  177.1900  143.7800 C   0  0  0  0  0  3  0  0  0  0  0  0
  189.8550  176.8190  147.3400 C   0  0  0  0  0  3  0  0  0  0  0  0
  186.9660  178.5900  141.1230 C   0  0  0  0  0  3  0  0  0  0  0  0
  188.8560  177.8860  142.4740 C   0  0  0  0  0  0  0  0  0  0  0  0
  185.6400  178.2850  144.5670 C   0  0  0  0  0  2  0  0  0  0  0  0
  191.9590  176.4840  146.2300 O   0  0  0  0  0  1  0  0  0  0  0  0
  186.1720  178.6080  142.2620 C   0  0  0  0  0  0  0  0  0  0  0  0
  184.4490  179.0390  142.2300 S   0  0  0  0  0  0  0  0  0  0  0  0
  190.2090  177.5360  142.5630 C   0  0  0  0  0  3  0  0  0  0  0  0
  190.0150  177.1820  144.9450 C   0  0  0  0  0  0  0  0  0  0  0  0
  190.6120  176.8280  146.1680 C   0  0  0  0  0  0  0  0  0  0  0  0
  187.6020  177.4700  138.4490 O   0  0  0  0  0  0  0  0  0  0  0  0
  188.7780  177.8330  138.7160 C   0  0  0  0  0  0  0  0  0  0  0  0
  189.1540  178.2080  140.0490 N   0  0  0  0  0  2  0  0  0  0  0  0
  189.1380  178.2450  136.2910 C   0  0  0  0  0  1  0  0  0  0  0  0
  189.7890  177.8780  137.6150 C   0  0  2  0  0  3  0  0  0  0  0  0
  191.7730  176.4470  138.3620 C   0  0  0  0  0  1  0  0  0  0  0  0
  190.5540  176.5950  137.5110 C   0  0  0  0  0  0  0  0  0  0  0  0
  190.1370  175.6560  136.7090 N   0  0  0  0  0  0  0  0  0  0  0  0
  190.7290  174.3660  136.4850 C   0  0  0  0  0  0  0  0  0  0  0  0
  190.4590  173.3780  137.2180 O   0  0  0  0  0  0  0  0  0  0  0  0
  191.6820  174.1960  135.3590 C   0  0  0  0  0  1  0  0  0  0  0  0
  183.2550  178.9810  144.7180 C   0  0  0  0  0  2  0  0  0  0  0  0
  181.9130  179.0030  144.0140 C   0  0  0  0  0  1  0  0  0  0  0  0
  1  2  2  0  0  0  0
  2 17  1  0  0  0  0
  2  6  1  0  0  0  0
  3  9  1  0  0  0  0
  4  1  1  0  0  0  0
  4 12  1  0  0  0  0
  5 12  1  0  0  0  0
  5 30  1  1  0  0  0
  6  3  2  0  0  0  0
  7 11  1  0  0  0  0
  8 17  2  0  0  0  0
 10  7  2  0  0  0  0
 10 14  1  0  0  0  0
 11 16  2  0  0  0  0
 11  1  1  0  0  0  0
 14  4  2  0  0  0  0
 15 14  1  0  0  0  0
 15  5  1  0  0  0  0
 16  8  1  0  0  0  0
 17 18  1  0  0  0  0
 18 13  1  0  0  0  0
 18  9  2  0  0  0  0
 19 20  2  0  0  0  0
 20 21  1  0  0  0  0
 21  7  1  0  0  0  0
 23 22  1  6  0  0  0
 23 20  1  0  0  0  0
 25 23  1  0  0  0  0
 25 24  1  0  0  0  0
 26 25  2  0  0  0  0
 27 26  1  0  0  0  0
 27 28  2  0  0  0  0
 29 27  1  0  0  0  0
 31 30  1  0  0  0  0
M  END
>  <MODEL>
5

>  <REMARK>
 VINA RESULT:      -9.7      2.619      4.915
  Name = 
  5 active torsions:
  status: ('A' for Active; 'I' for Inactive)
    1  A    between atoms: C_1  and  N_24
    2  A    between atoms: C_2  and  C_13
    3  A    between atoms: C_9  and  C_22
    4  A    between atoms: C_15  and  N_23
    5  A    between atoms: C_19  and  C_22
                            x       y       z     vdW  Elec       q    Type
                         _______ _______ _______ _____ _____    ______ ____

>  <TORSDO>
F 5

$$$$
=
 OpenBabel10262419423D

 31 34  0  0  1  0  0  0  0  0999 V2000
  186.7220  178.2520  142.8100 C   0  0  0  0  0  0  0  0  0  0  0  0
  186.7820  178.0860  144.2260 C   0  0  0  0  0  0  0  0  0  0  0  0
  187.9890  177.5020  146.2670 C   0  0  0  0  0  3  0  0  0  0  0  0
  187.8200  178.0140  141.9380 C   0  0  0  0  0  0  0  0  0  0  0  0
  190.1100  177.9280  141.1570 C   0  0  2  0  0  3  0  0  0  0  0  0
  187.9500  177.6600  144.8820 C   0  0  0  0  0  3  0  0  0  0  0  0
  185.3870  178.8680  140.8260 C   0  0  0  0  0  0  0  0  0  0  0  0
  184.4490  178.7740  144.4100 C   0  0  0  0  0  3  0  0  0  0  0  0
  186.8550  177.7670  147.0300 C   0  0  0  0  0  3  0  0  0  0  0  0
  186.4920  178.6080  140.0090 C   0  0  0  0  0  3  0  0  0  0  0  0
  185.4960  178.6860  142.2220 C   0  0  0  0  0  0  0  0  0  0  0  0
  189.1950  177.5940  142.3300 C   0  0  0  0  0  2  0  0  0  0  0  0
  184.5570  178.4500  147.1980 O   0  0  0  0  0  1  0  0  0  0  0  0
  187.6840  178.1720  140.5730 C   0  0  0  0  0  0  0  0  0  0  0  0
  189.1380  177.8320  139.6110 S   0  0  0  0  0  0  0  0  0  0  0  0
  184.3830  178.9390  143.0330 C   0  0  0  0  0  3  0  0  0  0  0  0
  185.6310  178.3520  145.0170 C   0  0  0  0  0  0  0  0  0  0  0  0
  185.6760  178.1920  146.4140 C   0  0  0  0  0  0  0  0  0  0  0  0
  183.1130  177.2450  139.8540 O   0  0  0  0  0  0  0  0  0  0  0  0
  183.0550  178.5020  139.7970 C   0  0  0  0  0  0  0  0  0  0  0  0
  184.1420  179.3160  140.2610 N   0  0  0  0  0  2  0  0  0  0  0  0
  182.1590  180.4630  138.5610 C   0  0  0  0  0  1  0  0  0  0  0  0
  181.8250  179.1460  139.2430 C   0  0  2  0  0  3  0  0  0  0  0  0
  179.3450  179.1960  139.8680 C   0  0  0  0  0  1  0  0  0  0  0  0
  180.7720  179.3250  140.2920 C   0  0  0  0  0  0  0  0  0  0  0  0
  181.1210  179.5710  141.5240 N   0  0  0  0  0  0  0  0  0  0  0  0
  180.2600  179.7620  142.6590 C   0  0  0  0  0  0  0  0  0  0  0  0
  179.7200  180.8740  142.9000 O   0  0  0  0  0  0  0  0  0  0  0  0
  180.0030  178.6170  143.5690 C   0  0  0  0  0  1  0  0  0  0  0  0
  191.2750  176.9570  141.1230 C   0  0  0  0  0  2  0  0  0  0  0  0
  192.3910  177.5020  140.2520 C   0  0  0  0  0  1  0  0  0  0  0  0
  1  2  2  0  0  0  0
  2  6  1  0  0  0  0
  2 17  1  0  0  0  0
  3  9  1  0  0  0  0
  4 12  1  0  0  0  0
  4  1  1  0  0  0  0
  5 30  1  6  0  0  0
  5 12  1  0  0  0  0
  6  3  2  0  0  0  0
  7 11  1  0  0  0  0
  8 17  2  0  0  0  0
 10 14  1  0  0  0  0
 10  7  2  0  0  0  0
 11  1  1  0  0  0  0
 11 16  2  0  0  0  0
 14  4  2  0  0  0  0
 15 14  1  0  0  0  0
 15  5  1  0  0  0  0
 16  8  1  0  0  0  0
 17 18  1  0  0  0  0
 18  9  2  0  0  0  0
 18 13  1  0  0  0  0
 20 19  2  0  0  0  0
 20 21  1  0  0  0  0
 21  7  1  0  0  0  0
 23 22  1  1  0  0  0
 23 20  1  0  0  0  0
 23 25  1  0  0  0  0
 24 25  1  0  0  0  0
 25 26  2  0  0  0  0
 26 27  1  0  0  0  0
 27 28  2  0  0  0  0
 27 29  1  0  0  0  0
 31 30  1  0  0  0  0
M  END
>  <MODEL>
6

>  <REMARK>
 VINA RESULT:      -9.4      3.465      6.059
  Name = 
  5 active torsions:
  status: ('A' for Active; 'I' for Inactive)
    1  A    between atoms: C_1  and  N_24
    2  A    between atoms: C_2  and  C_13
    3  A    between atoms: C_9  and  C_22
    4  A    between atoms: C_15  and  N_23
    5  A    between atoms: C_19  and  C_22
                            x       y       z     vdW  Elec       q    Type
                         _______ _______ _______ _____ _____    ______ ____

>  <TORSDO>
F 5

$$$$
=
 OpenBabel10262419423D

 31 34  0  0  1  0  0  0  0  0999 V2000
  187.9120  177.8480  143.7430 C   0  0  0  0  0  0  0  0  0  0  0  0
  188.5980  177.4970  144.9440 C   0  0  0  0  0  0  0  0  0  0  0  0
  190.5920  176.7330  146.1290 C   0  0  0  0  0  3  0  0  0  0  0  0
  188.5080  177.8110  142.4520 C   0  0  0  0  0  0  0  0  0  0  0  0
  190.2090  178.0000  140.7400 C   0  0  2  0  0  3  0  0  0  0  0  0
  189.9390  177.0730  144.9440 C   0  0  0  0  0  3  0  0  0  0  0  0
  185.8290  178.6280  142.6700 C   0  0  0  0  0  0  0  0  0  0  0  0
  186.5890  177.9820  146.2390 C   0  0  0  0  0  3  0  0  0  0  0  0
  189.9160  176.8090  147.3440 C   0  0  0  0  0  3  0  0  0  0  0  0
  186.4560  178.5620  141.4210 C   0  0  0  0  0  3  0  0  0  0  0  0
  186.5500  178.2670  143.8290 C   0  0  0  0  0  0  0  0  0  0  0  0
  189.9140  177.4440  142.1290 C   0  0  0  0  0  2  0  0  0  0  0  0
  187.9310  177.2930  148.6080 O   0  0  0  0  0  1  0  0  0  0  0  0
  187.7760  178.1420  141.3280 C   0  0  0  0  0  0  0  0  0  0  0  0
  188.6500  178.0430  139.7850 S   0  0  0  0  0  0  0  0  0  0  0  0
  185.9150  178.3270  145.0750 C   0  0  0  0  0  3  0  0  0  0  0  0
  187.9200  177.5700  146.1910 C   0  0  0  0  0  0  0  0  0  0  0  0
  188.5840  177.2260  147.3820 C   0  0  0  0  0  0  0  0  0  0  0  0
  183.4430  177.5750  141.2760 O   0  0  0  0  0  0  0  0  0  0  0  0
  183.3220  178.5240  142.0940 C   0  0  0  0  0  0  0  0  0  0  0  0
  184.4610  179.0560  142.7870 N   0  0  0  0  0  2  0  0  0  0  0  0
  181.4170  178.6260  143.6880 C   0  0  0  0  0  1  0  0  0  0  0  0
  181.9620  179.0930  142.3480 C   0  0  2  0  0  3  0  0  0  0  0  0
  179.9900  177.7200  141.4750 C   0  0  0  0  0  1  0  0  0  0  0  0
  181.0140  178.7800  141.2330 C   0  0  0  0  0  0  0  0  0  0  0  0
  181.0960  179.4360  140.1090 N   0  0  0  0  0  0  0  0  0  0  0  0
  180.2750  179.2820  138.9400 C   0  0  0  0  0  0  0  0  0  0  0  0
  180.5370  178.4260  138.0550 O   0  0  0  0  0  0  0  0  0  0  0  0
  179.0860  180.1580  138.7750 C   0  0  0  0  0  1  0  0  0  0  0  0
  191.2420  177.1300  140.0470 C   0  0  0  0  0  2  0  0  0  0  0  0
  190.6060  176.3680  138.9010 C   0  0  0  0  0  1  0  0  0  0  0  0
  1 11  1  0  0  0  0
  1  2  2  0  0  0  0
  2  6  1  0  0  0  0
  2 17  1  0  0  0  0
  3  9  1  0  0  0  0
  4  1  1  0  0  0  0
  5 30  1  6  0  0  0
  5 12  1  0  0  0  0
  6  3  2  0  0  0  0
  7 21  1  0  0  0  0
  7 11  1  0  0  0  0
  9 18  2  0  0  0  0
 10  7  2  0  0  0  0
 11 16  2  0  0  0  0
 12  4  1  0  0  0  0
 14 10  1  0  0  0  0
 14  4  2  0  0  0  0
 15  5  1  0  0  0  0
 15 14  1  0  0  0  0
 16  8  1  0  0  0  0
 17  8  2  0  0  0  0
 17 18  1  0  0  0  0
 18 13  1  0  0  0  0
 19 20  2  0  0  0  0
 20 23  1  0  0  0  0
 20 21  1  0  0  0  0
 23 22  1  1  0  0  0
 25 24  1  0  0  0  0
 25 23  1  0  0  0  0
 26 25  2  0  0  0  0
 27 26  1  0  0  0  0
 28 27  2  0  0  0  0
 29 27  1  0  0  0  0
 31 30  1  0  0  0  0
M  END
>  <MODEL>
7

>  <REMARK>
 VINA RESULT:      -9.1      3.597      6.323
  Name = 
  5 active torsions:
  status: ('A' for Active; 'I' for Inactive)
    1  A    between atoms: C_1  and  N_24
    2  A    between atoms: C_2  and  C_13
    3  A    between atoms: C_9  and  C_22
    4  A    between atoms: C_15  and  N_23
    5  A    between atoms: C_19  and  C_22
                            x       y       z     vdW  Elec       q    Type
                         _______ _______ _______ _____ _____    ______ ____

>  <TORSDO>
F 5

$$$$
=
 OpenBabel10262419423D

 31 34  0  0  1  0  0  0  0  0999 V2000
  189.1380  177.4210  143.5880 C   0  0  0  0  0  0  0  0  0  0  0  0
  189.7370  177.2170  144.8670 C   0  0  0  0  0  0  0  0  0  0  0  0
  191.6790  176.7710  146.2790 C   0  0  0  0  0  3  0  0  0  0  0  0
  189.8620  177.4020  142.3630 C   0  0  0  0  0  0  0  0  0  0  0  0
  191.6920  177.7280  140.8130 C   0  0  2  0  0  3  0  0  0  0  0  0
  191.1120  176.9690  145.0200 C   0  0  0  0  0  3  0  0  0  0  0  0
  187.0950  177.8760  142.2780 C   0  0  0  0  0  0  0  0  0  0  0  0
  187.5620  177.4990  145.9340 C   0  0  0  0  0  3  0  0  0  0  0  0
  190.8780  176.8160  147.4180 C   0  0  0  0  0  3  0  0  0  0  0  0
  187.8490  177.8340  141.1000 C   0  0  0  0  0  3  0  0  0  0  0  0
  187.7330  177.6650  143.5190 C   0  0  0  0  0  0  0  0  0  0  0  0
  191.3290  177.2040  142.1980 C   0  0  0  0  0  2  0  0  0  0  0  0
  188.7310  177.0980  148.4570 O   0  0  0  0  0  1  0  0  0  0  0  0
  189.2130  177.5840  141.1580 C   0  0  0  0  0  0  0  0  0  0  0  0
  190.2450  177.5260  139.7140 S   0  0  0  0  0  0  0  0  0  0  0  0
  186.9720  177.7000  144.6940 C   0  0  0  0  0  3  0  0  0  0  0  0
  188.9310  177.2590  146.0380 C   0  0  0  0  0  0  0  0  0  0  0  0
  189.5090  177.0590  147.3050 C   0  0  0  0  0  0  0  0  0  0  0  0
  185.5480  179.3740  140.2520 O   0  0  0  0  0  0  0  0  0  0  0  0
  184.9560  178.8630  141.2390 C   0  0  0  0  0  0  0  0  0  0  0  0
  185.6800  178.1300  142.2390 N   0  0  0  0  0  2  0  0  0  0  0  0
  182.9960  178.6530  142.7520 C   0  0  0  0  0  1  0  0  0  0  0  0
  183.4740  179.0220  141.3570 C   0  0  2  0  0  3  0  0  0  0  0  0
  181.9240  179.0080  139.3230 C   0  0  0  0  0  1  0  0  0  0  0  0
  182.7480  178.2410  140.3060 C   0  0  0  0  0  0  0  0  0  0  0  0
  182.8600  176.9430  140.2700 N   0  0  0  0  0  0  0  0  0  0  0  0
  182.2510  176.0350  139.3380 C   0  0  0  0  0  0  0  0  0  0  0  0
  181.0570  175.6530  139.4700 O   0  0  0  0  0  0  0  0  0  0  0  0
  183.0500  175.5350  138.1910 C   0  0  0  0  0  1  0  0  0  0  0  0
  192.8890  176.9670  140.2740 C   0  0  0  0  0  2  0  0  0  0  0  0
  192.9460  177.0750  138.7630 C   0  0  0  0  0  1  0  0  0  0  0  0
  1  2  2  0  0  0  0
  2  6  1  0  0  0  0
  2 17  1  0  0  0  0
  3  9  1  0  0  0  0
  4  1  1  0  0  0  0
  5 30  1  6  0  0  0
  5 12  1  0  0  0  0
  6  3  2  0  0  0  0
  7 11  1  0  0  0  0
  8 17  2  0  0  0  0
 10 14  1  0  0  0  0
 10  7  2  0  0  0  0
 11  1  1  0  0  0  0
 11 16  2  0  0  0  0
 12  4  1  0  0  0  0
 14  4  2  0  0  0  0
 15  5  1  0  0  0  0
 15 14  1  0  0  0  0
 16  8  1  0  0  0  0
 17 18  1  0  0  0  0
 18  9  2  0  0  0  0
 18 13  1  0  0  0  0
 19 20  2  0  0  0  0
 20 23  1  0  0  0  0
 20 21  1  0  0  0  0
 21  7  1  0  0  0  0
 23 22  1  1  0  0  0
 24 25  1  0  0  0  0
 25 23  1  0  0  0  0
 26 25  2  0  0  0  0
 27 28  2  0  0  0  0
 27 26  1  0  0  0  0
 29 27  1  0  0  0  0
 31 30  1  0  0  0  0
M  END
>  <MODEL>
8

>  <REMARK>
 VINA RESULT:      -9.0      3.149      5.523
  Name = 
  5 active torsions:
  status: ('A' for Active; 'I' for Inactive)
    1  A    between atoms: C_1  and  N_24
    2  A    between atoms: C_2  and  C_13
    3  A    between atoms: C_9  and  C_22
    4  A    between atoms: C_15  and  N_23
    5  A    between atoms: C_19  and  C_22
                            x       y       z     vdW  Elec       q    Type
                         _______ _______ _______ _____ _____    ______ ____

>  <TORSDO>
F 5

$$$$
=
 OpenBabel10262419423D

 31 34  0  0  1  0  0  0  0  0999 V2000
  188.7550  177.4800  144.3670 C   0  0  0  0  0  0  0  0  0  0  0  0
  189.0970  177.5440  145.7510 C   0  0  0  0  0  0  0  0  0  0  0  0
  188.5530  178.0800  148.0710 C   0  0  0  0  0  3  0  0  0  0  0  0
  187.4960  177.8830  143.8430 C   0  0  0  0  0  0  0  0  0  0  0  0
  185.1040  178.2360  143.7270 C   0  0  2  0  0  3  0  0  0  0  0  0
  188.2010  178.0240  146.7220 C   0  0  0  0  0  3  0  0  0  0  0  0
  189.4330  176.8960  142.0660 C   0  0  0  0  0  0  0  0  0  0  0  0
  191.3040  176.6330  145.2530 C   0  0  0  0  0  3  0  0  0  0  0  0
  189.8150  177.6550  148.4790 C   0  0  0  0  0  3  0  0  0  0  0  0
  188.1840  177.3170  141.5980 C   0  0  0  0  0  3  0  0  0  0  0  0
  189.7240  176.9810  143.4440 C   0  0  0  0  0  0  0  0  0  0  0  0
  186.3310  178.3950  144.6170 C   0  0  0  0  0  2  0  0  0  0  0  0
  191.9850  176.7550  147.9760 O   0  0  0  0  0  1  0  0  0  0  0  0
  187.2420  177.8160  142.4870 C   0  0  0  0  0  0  0  0  0  0  0  0
  185.6290  178.3590  141.9800 S   0  0  0  0  0  0  0  0  0  0  0  0
  190.9790  176.5670  143.9050 C   0  0  0  0  0  3  0  0  0  0  0  0
  190.3820  177.1140  146.1820 C   0  0  0  0  0  0  0  0  0  0  0  0
  190.7310  177.1720  147.5430 C   0  0  0  0  0  0  0  0  0  0  0  0
  190.1520  177.8730  139.3690 O   0  0  0  0  0  0  0  0  0  0  0  0
  190.7500  176.8770  139.8530 C   0  0  0  0  0  0  0  0  0  0  0  0
  190.4240  176.3790  141.1600 N   0  0  0  0  0  2  0  0  0  0  0  0
  193.0300  177.1230  138.8960 C   0  0  0  0  0  1  0  0  0  0  0  0
  191.8220  176.2140  139.0490 C   0  0  2  0  0  3  0  0  0  0  0  0
  190.3000  174.6560  137.7080 C   0  0  0  0  0  1  0  0  0  0  0  0
  191.3130  175.7540  137.7180 C   0  0  0  0  0  0  0  0  0  0  0  0
  191.7470  176.3210  136.6270 N   0  0  0  0  0  0  0  0  0  0  0  0
  191.3710  176.0230  135.2730 C   0  0  0  0  0  0  0  0  0  0  0  0
  191.9710  175.1460  134.5970 O   0  0  0  0  0  0  0  0  0  0  0  0
  190.2440  176.7690  134.6570 C   0  0  0  0  0  1  0  0  0  0  0  0
  184.0850  179.3100  144.0610 C   0  0  0  0  0  2  0  0  0  0  0  0
  182.6980  178.7050  144.1690 C   0  0  0  0  0  1  0  0  0  0  0  0
  1  2  2  0  0  0  0
  2 17  1  0  0  0  0
  2  6  1  0  0  0  0
  3  9  1  0  0  0  0
  4  1  1  0  0  0  0
  4 12  1  0  0  0  0
  5 30  1  1  0  0  0
  5 12  1  0  0  0  0
  6  3  2  0  0  0  0
  7 11  1  0  0  0  0
  8 17  2  0  0  0  0
 10  7  2  0  0  0  0
 10 14  1  0  0  0  0
 11 16  2  0  0  0  0
 11  1  1  0  0  0  0
 14  4  2  0  0  0  0
 15 14  1  0  0  0  0
 15  5  1  0  0  0  0
 16  8  1  0  0  0  0
 17 18  1  0  0  0  0
 18 13  1  0  0  0  0
 18  9  2  0  0  0  0
 19 20  2  0  0  0  0
 20 21  1  0  0  0  0
 21  7  1  0  0  0  0
 23 22  1  6  0  0  0
 23 20  1  0  0  0  0
 24 25  1  0  0  0  0
 25 23  1  0  0  0  0
 26 25  2  0  0  0  0
 27 26  1  0  0  0  0
 28 27  2  0  0  0  0
 29 27  1  0  0  0  0
 30 31  1  0  0  0  0
M  END
>  <MODEL>
9

>  <REMARK>
 VINA RESULT:      -9.0      2.906      5.034
  Name = 
  5 active torsions:
  status: ('A' for Active; 'I' for Inactive)
    1  A    between atoms: C_1  and  N_24
    2  A    between atoms: C_2  and  C_13
    3  A    between atoms: C_9  and  C_22
    4  A    between atoms: C_15  and  N_23
    5  A    between atoms: C_19  and  C_22
                            x       y       z     vdW  Elec       q    Type
                         _______ _______ _______ _____ _____    ______ ____

>  <TORSDO>
F 5

$$$$
