=
 OpenBabel10262420493D

 28 32  0  0  1  0  0  0  0  0999 V2000
  190.2110  176.3650  143.4850 C   0  0  0  0  0  0  0  0  0  0  0  0
  185.2220  177.7690  143.0800 C   0  0  0  0  0  3  0  0  0  0  0  0
  189.0170  177.8490  148.0810 C   0  0  0  0  0  1  0  0  0  0  0  0
  184.8670  178.9710  145.1600 C   0  0  0  0  0  0  0  0  0  0  0  0
  187.0370  177.7870  144.8210 C   0  0  0  0  0  0  0  0  0  0  0  0
  183.1340  178.9330  143.4670 C   0  0  0  0  0  0  0  0  0  0  0  0
  185.6930  178.1790  144.3370 C   0  0  0  0  0  0  0  0  0  0  0  0
  186.3260  178.4940  147.1300 C   0  0  0  0  0  2  0  0  0  0  0  0
  183.5980  179.3540  144.7160 C   0  0  0  0  0  3  0  0  0  0  0  0
  189.6100  177.1050  145.7400 C   0  0  0  0  0  0  0  0  0  0  0  0
  187.9780  177.2420  143.9430 C   0  0  0  0  0  3  0  0  0  0  0  0
  185.3840  179.4980  146.4650 C   0  0  0  0  0  2  0  0  0  0  0  0
  191.8290  176.2200  145.2880 C   0  0  0  0  0  3  0  0  0  0  0  0
  188.6640  177.6460  146.6370 C   0  0  0  0  0  0  0  0  0  0  0  0
  190.8980  176.7570  146.1770 C   0  0  0  0  0  3  0  0  0  0  0  0
  181.9010  179.2990  143.0440 F   0  0  0  0  0  0  0  0  0  0  0  0
  183.9460  178.1430  142.6480 C   0  0  0  0  0  3  0  0  0  0  0  0
  187.3800  177.9950  146.1720 C   0  0  0  0  0  0  0  0  0  0  0  0
  191.4870  176.0270  143.9490 C   0  0  0  0  0  3  0  0  0  0  0  0
  189.2630  176.9020  144.3810 C   0  0  0  0  0  0  0  0  0  0  0  0
  189.9000  176.1600  142.0270 C   0  0  0  0  0  2  0  0  0  0  0  0
  190.1940  177.3960  141.1700 C   0  0  2  0  0  3  0  0  0  0  0  0
  190.4380  177.7570  138.8560 N   0  0  0  0  0  0  0  0  0  0  0  0
  189.0110  177.9820  140.7120 O   0  0  0  0  0  0  0  0  0  0  0  0
  192.4570  177.5490  140.1830 C   0  0  0  0  0  1  0  0  0  0  0  0
  191.0370  177.0590  139.9690 C   0  0  1  0  0  3  0  0  0  0  0  0
  189.8820  176.7460  137.9720 C   0  0  0  0  0  1  0  0  0  0  0  0
  189.3140  178.4830  139.4340 C   0  0  0  0  0  2  0  0  0  0  0  0
  1 19  2  0  0  0  0
  1 20  1  0  0  0  0
  2  7  1  0  0  0  0
  4 12  1  0  0  0  0
  5 18  1  0  0  0  0
  6  9  2  0  0  0  0
  7  5  1  0  0  0  0
  7  4  2  0  0  0  0
  9  4  1  0  0  0  0
 10 15  1  0  0  0  0
 10 14  1  0  0  0  0
 11 20  1  0  0  0  0
 11  5  2  0  0  0  0
 12  8  1  0  0  0  0
 13 15  2  0  0  0  0
 14  3  1  0  0  0  0
 16  6  1  0  0  0  0
 17  2  2  0  0  0  0
 17  6  1  0  0  0  0
 18 14  2  0  0  0  0
 18  8  1  0  0  0  0
 19 13  1  0  0  0  0
 20 10  2  0  0  0  0
 21  1  1  0  0  0  0
 22 21  1  6  0  0  0
 23 28  1  0  0  0  0
 23 26  1  0  0  0  0
 24 22  1  0  0  0  0
 26 25  1  1  0  0  0
 26 22  1  0  0  0  0
 27 23  1  0  0  0  0
 28 24  1  0  0  0  0
M  END
>  <MODEL>
1

>  <REMARK>
 VINA RESULT:     -11.9      0.000      0.000
  Name = 
  2 active torsions:
  status: ('A' for Active; 'I' for Inactive)
    1  A    between atoms: C_1  and  C_2
    2  A    between atoms: C_2  and  C_3
                            x       y       z     vdW  Elec       q    Type
                         _______ _______ _______ _____ _____    ______ ____

>  <TORSDO>
F 2

$$$$
=
 OpenBabel10262420493D

 28 32  0  0  1  0  0  0  0  0999 V2000
  189.4320  177.1990  141.4290 C   0  0  0  0  0  0  0  0  0  0  0  0
  184.4820  178.0880  142.7470 C   0  0  0  0  0  3  0  0  0  0  0  0
  189.5550  177.4810  146.3940 C   0  0  0  0  0  1  0  0  0  0  0  0
  184.6910  178.7510  145.0740 C   0  0  0  0  0  0  0  0  0  0  0  0
  186.7210  177.9230  143.8800 C   0  0  0  0  0  0  0  0  0  0  0  0
  182.5460  178.8950  143.9580 C   0  0  0  0  0  0  0  0  0  0  0  0
  185.2780  178.2590  143.8900 C   0  0  0  0  0  0  0  0  0  0  0  0
  186.6780  178.0150  146.3960 C   0  0  0  0  0  2  0  0  0  0  0  0
  183.3330  179.0770  145.0980 C   0  0  0  0  0  3  0  0  0  0  0  0
  189.4770  177.3470  143.8720 C   0  0  0  0  0  0  0  0  0  0  0  0
  187.3900  177.6960  142.6750 C   0  0  0  0  0  3  0  0  0  0  0  0
  185.5410  179.0290  146.2770 C   0  0  0  0  0  2  0  0  0  0  0  0
  191.5070  176.8400  142.6340 C   0  0  0  0  0  3  0  0  0  0  0  0
  188.8090  177.5650  145.0960 C   0  0  0  0  0  0  0  0  0  0  0  0
  190.8500  177.0570  143.8450 C   0  0  0  0  0  3  0  0  0  0  0  0
  181.2280  179.2050  143.9870 F   0  0  0  0  0  0  0  0  0  0  0  0
  183.1210  178.4030  142.7820 C   0  0  0  0  0  3  0  0  0  0  0  0
  187.4310  177.8630  145.0970 C   0  0  0  0  0  0  0  0  0  0  0  0
  190.8000  176.9120  141.4330 C   0  0  0  0  0  3  0  0  0  0  0  0
  188.7600  177.4140  142.6520 C   0  0  0  0  0  0  0  0  0  0  0  0
  188.7210  177.2900  140.1060 C   0  0  0  0  0  2  0  0  0  0  0  0
  189.5340  178.0270  139.0360 C   0  0  2  0  0  3  0  0  0  0  0  0
  189.5120  178.0260  136.6810 N   0  0  0  0  0  0  0  0  0  0  0  0
  188.8810  179.1920  138.6230 O   0  0  0  0  0  0  0  0  0  0  0  0
  191.2020  176.6900  137.7930 C   0  0  0  0  0  1  0  0  0  0  0  0
  189.7650  177.1720  137.8180 C   0  0  1  0  0  3  0  0  0  0  0  0
  188.3090  177.5280  136.0370 C   0  0  0  0  0  1  0  0  0  0  0  0
  189.1810  179.3240  137.2570 C   0  0  0  0  0  2  0  0  0  0  0  0
  1 19  2  0  0  0  0
  1 20  1  0  0  0  0
  2 17  2  0  0  0  0
  2  7  1  0  0  0  0
  4  9  1  0  0  0  0
  4 12  1  0  0  0  0
  5  7  1  0  0  0  0
  5 18  1  0  0  0  0
  6 16  1  0  0  0  0
  6  9  2  0  0  0  0
  7  4  2  0  0  0  0
 10 14  1  0  0  0  0
 11  5  2  0  0  0  0
 12  8  1  0  0  0  0
 13 15  2  0  0  0  0
 14 18  2  0  0  0  0
 14  3  1  0  0  0  0
 15 10  1  0  0  0  0
 17  6  1  0  0  0  0
 18  8  1  0  0  0  0
 19 13  1  0  0  0  0
 20 11  1  0  0  0  0
 20 10  2  0  0  0  0
 21  1  1  0  0  0  0
 22 21  1  1  0  0  0
 23 28  1  0  0  0  0
 23 26  1  0  0  0  0
 24 22  1  0  0  0  0
 26 25  1  6  0  0  0
 26 22  1  0  0  0  0
 27 23  1  0  0  0  0
 28 24  1  0  0  0  0
M  END
>  <MODEL>
2

>  <REMARK>
 VINA RESULT:     -11.5      1.278      1.875
  Name = 
  2 active torsions:
  status: ('A' for Active; 'I' for Inactive)
    1  A    between atoms: C_1  and  C_2
    2  A    between atoms: C_2  and  C_3
                            x       y       z     vdW  Elec       q    Type
                         _______ _______ _______ _____ _____    ______ ____

>  <TORSDO>
F 2

$$$$
=
 OpenBabel10262420493D

 28 32  0  0  1  0  0  0  0  0999 V2000
  184.6490  178.8380  143.9620 C   0  0  0  0  0  0  0  0  0  0  0  0
  188.2210  178.2760  140.2270 C   0  0  0  0  0  3  0  0  0  0  0  0
  188.6030  177.0070  146.3630 C   0  0  0  0  0  1  0  0  0  0  0  0
  189.8900  176.8980  141.3290 C   0  0  0  0  0  0  0  0  0  0  0  0
  187.9790  177.7680  142.6780 C   0  0  0  0  0  0  0  0  0  0  0  0
  190.1010  177.4080  138.9700 C   0  0  0  0  0  0  0  0  0  0  0  0
  188.6990  177.6480  141.3880 C   0  0  0  0  0  0  0  0  0  0  0  0
  190.0490  176.9030  143.8220 C   0  0  0  0  0  2  0  0  0  0  0  0
  190.5780  176.7720  140.1190 C   0  0  0  0  0  3  0  0  0  0  0  0
  186.6010  177.9300  145.1280 C   0  0  0  0  0  0  0  0  0  0  0  0
  186.6740  178.2650  142.7210 C   0  0  0  0  0  3  0  0  0  0  0  0
  190.3670  176.1440  142.5330 C   0  0  0  0  0  2  0  0  0  0  0  0
  184.5910  178.5120  146.3660 C   0  0  0  0  0  3  0  0  0  0  0  0
  187.9230  177.4360  145.0970 C   0  0  0  0  0  0  0  0  0  0  0  0
  185.8960  178.0210  146.3390 C   0  0  0  0  0  3  0  0  0  0  0  0
  190.7740  177.2900  137.8010 F   0  0  0  0  0  0  0  0  0  0  0  0
  188.9220  178.1570  139.0230 C   0  0  0  0  0  3  0  0  0  0  0  0
  188.6070  177.3470  143.8680 C   0  0  0  0  0  0  0  0  0  0  0  0
  183.9720  178.9170  145.1830 C   0  0  0  0  0  3  0  0  0  0  0  0
  185.9720  178.3470  143.9290 C   0  0  0  0  0  0  0  0  0  0  0  0
  183.9280  179.2630  142.7120 C   0  0  0  0  0  2  0  0  0  0  0  0
  182.7450  178.3540  142.3610 C   0  0  2  0  0  3  0  0  0  0  0  0
  180.6670  178.7110  141.3120 N   0  0  0  0  0  0  0  0  0  0  0  0
  182.8510  177.8770  141.0510 O   0  0  0  0  0  0  0  0  0  0  0  0
  180.7040  178.6080  143.7340 C   0  0  0  0  0  1  0  0  0  0  0  0
  181.4280  179.0730  142.4850 C   0  0  1  0  0  3  0  0  0  0  0  0
  180.5380  179.9120  140.5040 C   0  0  0  0  0  1  0  0  0  0  0  0
  181.5300  177.7940  140.5770 C   0  0  0  0  0  2  0  0  0  0  0  0
  1 19  1  0  0  0  0
  2  7  1  0  0  0  0
  4  7  2  0  0  0  0
  4 12  1  0  0  0  0
  5 11  2  0  0  0  0
  5 18  1  0  0  0  0
  6 17  1  0  0  0  0
  6  9  2  0  0  0  0
  7  5  1  0  0  0  0
  8 18  1  0  0  0  0
  9  4  1  0  0  0  0
 10 15  2  0  0  0  0
 11 20  1  0  0  0  0
 12  8  1  0  0  0  0
 14 10  1  0  0  0  0
 14  3  1  0  0  0  0
 15 13  1  0  0  0  0
 16  6  1  0  0  0  0
 17  2  2  0  0  0  0
 18 14  2  0  0  0  0
 19 13  2  0  0  0  0
 20  1  2  0  0  0  0
 20 10  1  0  0  0  0
 21  1  1  0  0  0  0
 22 26  1  0  0  0  0
 22 21  1  6  0  0  0
 23 26  1  0  0  0  0
 24 22  1  0  0  0  0
 26 25  1  1  0  0  0
 27 23  1  0  0  0  0
 28 24  1  0  0  0  0
 28 23  1  0  0  0  0
M  END
>  <MODEL>
3

>  <REMARK>
 VINA RESULT:     -10.8      3.325      6.957
  Name = 
  2 active torsions:
  status: ('A' for Active; 'I' for Inactive)
    1  A    between atoms: C_1  and  C_2
    2  A    between atoms: C_2  and  C_3
                            x       y       z     vdW  Elec       q    Type
                         _______ _______ _______ _____ _____    ______ ____

>  <TORSDO>
F 2

$$$$
=
 OpenBabel10262420493D

 28 32  0  0  1  0  0  0  0  0999 V2000
  188.8240  176.9340  143.5550 C   0  0  0  0  0  0  0  0  0  0  0  0
  184.1700  177.5850  141.3310 C   0  0  0  0  0  3  0  0  0  0  0  0
  186.0120  178.8080  147.2060 C   0  0  0  0  0  1  0  0  0  0  0  0
  183.0250  178.9800  142.9560 C   0  0  0  0  0  0  0  0  0  0  0  0
  185.2740  178.0680  143.5380 C   0  0  0  0  0  0  0  0  0  0  0  0
  181.9830  178.4940  140.8240 C   0  0  0  0  0  0  0  0  0  0  0  0
  184.1470  178.2100  142.5870 C   0  0  0  0  0  0  0  0  0  0  0  0
  183.7610  178.9570  145.3430 C   0  0  0  0  0  2  0  0  0  0  0  0
  181.9560  179.1280  142.0690 C   0  0  0  0  0  3  0  0  0  0  0  0
  187.4290  177.8630  145.3390 C   0  0  0  0  0  0  0  0  0  0  0  0
  186.5010  177.5500  143.1140 C   0  0  0  0  0  3  0  0  0  0  0  0
  183.0200  179.7320  144.2530 C   0  0  0  0  0  2  0  0  0  0  0  0
  189.7370  177.2380  145.7820 C   0  0  0  0  0  3  0  0  0  0  0  0
  186.1920  178.3790  145.7800 C   0  0  0  0  0  0  0  0  0  0  0  0
  188.5160  177.7500  146.2200 C   0  0  0  0  0  3  0  0  0  0  0  0
  180.9410  178.6330  139.9700 F   0  0  0  0  0  0  0  0  0  0  0  0
  183.0900  177.7250  140.4540 C   0  0  0  0  0  3  0  0  0  0  0  0
  185.1170  178.4890  144.8740 C   0  0  0  0  0  0  0  0  0  0  0  0
  189.8890  176.8340  144.4550 C   0  0  0  0  0  3  0  0  0  0  0  0
  187.5840  177.4460  143.9940 C   0  0  0  0  0  0  0  0  0  0  0  0
  189.0470  176.5080  142.1290 C   0  0  0  0  0  2  0  0  0  0  0  0
  189.5890  177.6330  141.2420 C   0  0  2  0  0  3  0  0  0  0  0  0
  190.2480  177.7600  138.9840 N   0  0  0  0  0  0  0  0  0  0  0  0
  188.5560  178.2610  140.5400 O   0  0  0  0  0  0  0  0  0  0  0  0
  191.9890  177.5250  140.6550 C   0  0  0  0  0  1  0  0  0  0  0  0
  190.5870  177.1250  140.2360 C   0  0  1  0  0  3  0  0  0  0  0  0
  189.7580  176.7160  138.0990 C   0  0  0  0  0  1  0  0  0  0  0  0
  189.1120  178.6180  139.2990 C   0  0  0  0  0  2  0  0  0  0  0  0
  1 20  2  0  0  0  0
  1 19  1  0  0  0  0
  2  7  1  0  0  0  0
  4 12  1  0  0  0  0
  5 18  1  0  0  0  0
  6  9  2  0  0  0  0
  7  4  2  0  0  0  0
  7  5  1  0  0  0  0
  9  4  1  0  0  0  0
 10 14  1  0  0  0  0
 10 15  2  0  0  0  0
 11  5  2  0  0  0  0
 11 20  1  0  0  0  0
 12  8  1  0  0  0  0
 13 15  1  0  0  0  0
 14  3  1  0  0  0  0
 16  6  1  0  0  0  0
 17  6  1  0  0  0  0
 17  2  2  0  0  0  0
 18  8  1  0  0  0  0
 18 14  2  0  0  0  0
 19 13  2  0  0  0  0
 20 10  1  0  0  0  0
 21  1  1  0  0  0  0
 22 21  1  6  0  0  0
 23 28  1  0  0  0  0
 23 26  1  0  0  0  0
 24 22  1  0  0  0  0
 26 25  1  1  0  0  0
 26 22  1  0  0  0  0
 27 23  1  0  0  0  0
 28 24  1  0  0  0  0
M  END
>  <MODEL>
4

>  <REMARK>
 VINA RESULT:     -10.8      1.193      2.199
  Name = 
  2 active torsions:
  status: ('A' for Active; 'I' for Inactive)
    1  A    between atoms: C_1  and  C_2
    2  A    between atoms: C_2  and  C_3
                            x       y       z     vdW  Elec       q    Type
                         _______ _______ _______ _____ _____    ______ ____

>  <TORSDO>
F 2

$$$$
=
 OpenBabel10262420493D

 28 32  0  0  1  0  0  0  0  0999 V2000
  187.0610  178.2620  140.8920 C   0  0  0  0  0  0  0  0  0  0  0  0
  190.4210  177.3400  144.7510 C   0  0  0  0  0  3  0  0  0  0  0  0
  184.3570  178.9440  145.0120 C   0  0  0  0  0  1  0  0  0  0  0  0
  188.9440  177.1490  146.6700 C   0  0  0  0  0  0  0  0  0  0  0  0
  187.9740  177.8560  144.4820 C   0  0  0  0  0  0  0  0  0  0  0  0
  191.3060  176.6630  146.9010 C   0  0  0  0  0  0  0  0  0  0  0  0
  189.1340  177.4400  145.3040 C   0  0  0  0  0  0  0  0  0  0  0  0
  186.7000  178.2450  146.6180 C   0  0  0  0  0  2  0  0  0  0  0  0
  190.0270  176.7500  147.4570 C   0  0  0  0  0  3  0  0  0  0  0  0
  185.7420  178.5870  142.9290 C   0  0  0  0  0  0  0  0  0  0  0  0
  188.0650  177.8890  143.0880 C   0  0  0  0  0  3  0  0  0  0  0  0
  187.5650  177.1590  147.2580 C   0  0  0  0  0  2  0  0  0  0  0  0
  184.7460  178.9710  140.7440 C   0  0  0  0  0  3  0  0  0  0  0  0
  185.6420  178.5670  144.3360 C   0  0  0  0  0  0  0  0  0  0  0  0
  184.6430  178.9500  142.1350 C   0  0  0  0  0  3  0  0  0  0  0  0
  192.3550  176.2840  147.6700 F   0  0  0  0  0  0  0  0  0  0  0  0
  191.5020  176.9540  145.5480 C   0  0  0  0  0  3  0  0  0  0  0  0
  186.7580  178.1910  145.1110 C   0  0  0  0  0  0  0  0  0  0  0  0
  185.9490  178.6280  140.1270 C   0  0  0  0  0  3  0  0  0  0  0  0
  186.9650  178.2440  142.3000 C   0  0  0  0  0  0  0  0  0  0  0  0
  188.3280  177.8760  140.1780 C   0  0  0  0  0  2  0  0  0  0  0  0
  188.1380  177.7010  138.6680 C   0  0  2  0  0  3  0  0  0  0  0  0
  189.5820  177.1390  136.8940 N   0  0  0  0  0  0  0  0  0  0  0  0
  187.9010  176.3610  138.3440 O   0  0  0  0  0  0  0  0  0  0  0  0
  189.0550  179.4830  137.2190 C   0  0  0  0  0  1  0  0  0  0  0  0
  189.3460  178.1550  137.8920 C   0  0  1  0  0  3  0  0  0  0  0  0
  190.8290  176.4800  137.2480 C   0  0  0  0  0  1  0  0  0  0  0  0
  188.5150  176.1660  137.0950 C   0  0  0  0  0  2  0  0  0  0  0  0
  1 20  1  0  0  0  0
  2  7  2  0  0  0  0
  2 17  1  0  0  0  0
  4 12  1  0  0  0  0
  4  9  2  0  0  0  0
  5 18  1  0  0  0  0
  5  7  1  0  0  0  0
  6  9  1  0  0  0  0
  6 16  1  0  0  0  0
  7  4  1  0  0  0  0
  8 12  1  0  0  0  0
 10 14  1  0  0  0  0
 11  5  2  0  0  0  0
 13 15  2  0  0  0  0
 14  3  1  0  0  0  0
 14 18  2  0  0  0  0
 15 10  1  0  0  0  0
 17  6  2  0  0  0  0
 18  8  1  0  0  0  0
 19 13  1  0  0  0  0
 19  1  2  0  0  0  0
 20 10  2  0  0  0  0
 20 11  1  0  0  0  0
 21  1  1  0  0  0  0
 22 21  1  1  0  0  0
 23 28  1  0  0  0  0
 23 27  1  0  0  0  0
 23 26  1  0  0  0  0
 24 22  1  0  0  0  0
 26 25  1  6  0  0  0
 26 22  1  0  0  0  0
 28 24  1  0  0  0  0
M  END
>  <MODEL>
5

>  <REMARK>
 VINA RESULT:     -10.8      2.770      5.348
  Name = 
  2 active torsions:
  status: ('A' for Active; 'I' for Inactive)
    1  A    between atoms: C_1  and  C_2
    2  A    between atoms: C_2  and  C_3
                            x       y       z     vdW  Elec       q    Type
                         _______ _______ _______ _____ _____    ______ ____

>  <TORSDO>
F 2

$$$$
=
 OpenBabel10262420493D

 28 32  0  0  1  0  0  0  0  0999 V2000
  189.7670  177.6570  141.5160 C   0  0  0  0  0  0  0  0  0  0  0  0
  184.6780  178.3560  142.3170 C   0  0  0  0  0  3  0  0  0  0  0  0
  189.2410  177.0500  146.4250 C   0  0  0  0  0  1  0  0  0  0  0  0
  184.5760  178.5920  144.7310 C   0  0  0  0  0  0  0  0  0  0  0  0
  186.7520  177.9650  143.6830 C   0  0  0  0  0  0  0  0  0  0  0  0
  182.5920  178.9570  143.3900 C   0  0  0  0  0  0  0  0  0  0  0  0
  185.3160  178.3120  143.5660 C   0  0  0  0  0  0  0  0  0  0  0  0
  186.3830  177.6090  146.1480 C   0  0  0  0  0  2  0  0  0  0  0  0
  183.2220  178.9250  144.6360 C   0  0  0  0  0  3  0  0  0  0  0  0
  189.4930  177.3680  143.9310 C   0  0  0  0  0  0  0  0  0  0  0  0
  187.5750  177.9480  142.5540 C   0  0  0  0  0  3  0  0  0  0  0  0
  185.2580  178.6420  146.0650 C   0  0  0  0  0  2  0  0  0  0  0  0
  191.6720  177.0660  142.8960 C   0  0  0  0  0  3  0  0  0  0  0  0
  188.6690  177.3730  145.0770 C   0  0  0  0  0  0  0  0  0  0  0  0
  190.8610  177.0720  144.0310 C   0  0  0  0  0  3  0  0  0  0  0  0
  181.2780  179.2720  143.3030 F   0  0  0  0  0  0  0  0  0  0  0  0
  183.3200  178.6760  142.2300 C   0  0  0  0  0  3  0  0  0  0  0  0
  187.2990  177.6820  144.9520 C   0  0  0  0  0  0  0  0  0  0  0  0
  191.1270  177.3580  141.6460 C   0  0  0  0  0  3  0  0  0  0  0  0
  188.9400  177.6590  142.6590 C   0  0  0  0  0  0  0  0  0  0  0  0
  189.2330  177.9900  140.1490 C   0  0  0  0  0  2  0  0  0  0  0  0
  189.0160  176.7540  139.2700 C   0  0  2  0  0  3  0  0  0  0  0  0
  189.3260  176.3060  136.9780 N   0  0  0  0  0  0  0  0  0  0  0  0
  190.1960  176.0140  139.1440 O   0  0  0  0  0  0  0  0  0  0  0  0
  187.0780  176.8110  137.7340 C   0  0  0  0  0  1  0  0  0  0  0  0
  188.5540  177.1230  137.8850 C   0  0  1  0  0  3  0  0  0  0  0  0
  190.2090  177.2000  136.2490 C   0  0  0  0  0  1  0  0  0  0  0  0
  190.1670  175.4860  137.8420 C   0  0  0  0  0  2  0  0  0  0  0  0
  1 19  2  0  0  0  0
  1 20  1  0  0  0  0
  2  7  1  0  0  0  0
  4 12  1  0  0  0  0
  5 18  1  0  0  0  0
  6  9  2  0  0  0  0
  7  5  1  0  0  0  0
  7  4  2  0  0  0  0
  9  4  1  0  0  0  0
 10 15  1  0  0  0  0
 10 14  1  0  0  0  0
 11 20  1  0  0  0  0
 11  5  2  0  0  0  0
 12  8  1  0  0  0  0
 13 15  2  0  0  0  0
 14  3  1  0  0  0  0
 16  6  1  0  0  0  0
 17  2  2  0  0  0  0
 17  6  1  0  0  0  0
 18 14  2  0  0  0  0
 18  8  1  0  0  0  0
 19 13  1  0  0  0  0
 20 10  2  0  0  0  0
 21  1  1  0  0  0  0
 22 21  1  1  0  0  0
 23 28  1  0  0  0  0
 23 26  1  0  0  0  0
 24 22  1  0  0  0  0
 26 25  1  1  0  0  0
 26 22  1  0  0  0  0
 27 23  1  0  0  0  0
 28 24  1  0  0  0  0
M  END
>  <MODEL>
6

>  <REMARK>
 VINA RESULT:     -10.7      1.364      2.224
  Name = 
  2 active torsions:
  status: ('A' for Active; 'I' for Inactive)
    1  A    between atoms: C_1  and  C_2
    2  A    between atoms: C_2  and  C_3
                            x       y       z     vdW  Elec       q    Type
                         _______ _______ _______ _____ _____    ______ ____

>  <TORSDO>
F 2

$$$$
=
 OpenBabel10262420493D

 28 32  0  0  1  0  0  0  0  0999 V2000
  183.8050  178.5560  142.1060 C   0  0  0  0  0  0  0  0  0  0  0  0
  188.9440  177.7680  142.0420 C   0  0  0  0  0  3  0  0  0  0  0  0
  185.0610  178.5030  146.9200 C   0  0  0  0  0  1  0  0  0  0  0  0
  189.3970  177.2120  144.3620 C   0  0  0  0  0  0  0  0  0  0  0  0
  187.1010  177.9680  143.7410 C   0  0  0  0  0  0  0  0  0  0  0  0
  191.1540  177.0330  142.7040 C   0  0  0  0  0  0  0  0  0  0  0  0
  188.4970  177.6440  143.3670 C   0  0  0  0  0  0  0  0  0  0  0  0
  187.8370  177.9930  146.1490 C   0  0  0  0  0  2  0  0  0  0  0  0
  190.7160  176.8980  144.0240 C   0  0  0  0  0  3  0  0  0  0  0  0
  184.4380  178.5210  144.4710 C   0  0  0  0  0  0  0  0  0  0  0  0
  186.1210  178.1330  142.7600 C   0  0  0  0  0  3  0  0  0  0  0  0
  188.9180  176.9830  145.7640 C   0  0  0  0  0  2  0  0  0  0  0  0
  182.1350  178.9530  143.8210 C   0  0  0  0  0  3  0  0  0  0  0  0
  185.4220  178.3650  145.4710 C   0  0  0  0  0  0  0  0  0  0  0  0
  183.1050  178.7980  144.8110 C   0  0  0  0  0  3  0  0  0  0  0  0
  192.4360  176.7360  142.3820 F   0  0  0  0  0  0  0  0  0  0  0  0
  190.2680  177.4650  141.7130 C   0  0  0  0  0  3  0  0  0  0  0  0
  186.7520  178.0780  145.1030 C   0  0  0  0  0  0  0  0  0  0  0  0
  182.4850  178.8320  142.4760 C   0  0  0  0  0  3  0  0  0  0  0  0
  184.7920  178.4030  143.1030 C   0  0  0  0  0  0  0  0  0  0  0  0
  184.1250  178.4090  140.6430 C   0  0  0  0  0  2  0  0  0  0  0  0
  182.9520  177.8660  139.8220 C   0  0  2  0  0  3  0  0  0  0  0  0
  182.7190  177.1250  137.5980 N   0  0  0  0  0  0  0  0  0  0  0  0
  182.9240  176.4680  139.8470 O   0  0  0  0  0  0  0  0  0  0  0  0
  181.9960  179.3810  138.1160 C   0  0  0  0  0  1  0  0  0  0  0  0
  183.0250  178.2990  138.3810 C   0  0  1  0  0  3  0  0  0  0  0  0
  183.9380  176.7510  136.9010 C   0  0  0  0  0  1  0  0  0  0  0  0
  182.4530  176.0820  138.5810 C   0  0  0  0  0  2  0  0  0  0  0  0
  1 19  2  0  0  0  0
  1 20  1  0  0  0  0
  2  7  1  0  0  0  0
  4 12  1  0  0  0  0
  5 18  1  0  0  0  0
  6  9  2  0  0  0  0
  7  5  1  0  0  0  0
  7  4  2  0  0  0  0
  9  4  1  0  0  0  0
 10 15  1  0  0  0  0
 10 14  1  0  0  0  0
 11 20  1  0  0  0  0
 11  5  2  0  0  0  0
 12  8  1  0  0  0  0
 13 15  2  0  0  0  0
 14  3  1  0  0  0  0
 16  6  1  0  0  0  0
 17  2  2  0  0  0  0
 17  6  1  0  0  0  0
 18 14  2  0  0  0  0
 18  8  1  0  0  0  0
 19 13  1  0  0  0  0
 20 10  2  0  0  0  0
 21  1  1  0  0  0  0
 22 24  1  0  0  0  0
 22 21  1  1  0  0  0
 23 26  1  0  0  0  0
 23 28  1  0  0  0  0
 26 25  1  1  0  0  0
 26 22  1  0  0  0  0
 27 23  1  0  0  0  0
 28 24  1  0  0  0  0
M  END
>  <MODEL>
7

>  <REMARK>
 VINA RESULT:     -10.5      3.548      6.626
  Name = 
  2 active torsions:
  status: ('A' for Active; 'I' for Inactive)
    1  A    between atoms: C_1  and  C_2
    2  A    between atoms: C_2  and  C_3
                            x       y       z     vdW  Elec       q    Type
                         _______ _______ _______ _____ _____    ______ ____

>  <TORSDO>
F 2

$$$$
=
 OpenBabel10262420493D

 28 32  0  0  1  0  0  0  0  0999 V2000
  187.0730  178.3450  140.1060 C   0  0  0  0  0  0  0  0  0  0  0  0
  187.1880  177.6290  145.2540 C   0  0  0  0  0  3  0  0  0  0  0  0
  191.8050  177.1190  141.0310 C   0  0  0  0  0  1  0  0  0  0  0  0
  189.5740  177.5800  145.7030 C   0  0  0  0  0  0  0  0  0  0  0  0
  188.8060  177.6440  143.3290 C   0  0  0  0  0  0  0  0  0  0  0  0
  187.9920  177.5610  147.5370 C   0  0  0  0  0  0  0  0  0  0  0  0
  188.5090  177.6210  144.7800 C   0  0  0  0  0  0  0  0  0  0  0  0
  191.1630  176.9520  143.8810 C   0  0  0  0  0  2  0  0  0  0  0  0
  189.3100  177.5620  147.0750 C   0  0  0  0  0  3  0  0  0  0  0  0
  189.4000  177.7470  140.5790 C   0  0  0  0  0  0  0  0  0  0  0  0
  187.8070  177.9550  142.4030 C   0  0  0  0  0  3  0  0  0  0  0  0
  190.9910  177.6650  145.2230 C   0  0  0  0  0  2  0  0  0  0  0  0
  188.6670  178.1220  138.2900 C   0  0  0  0  0  3  0  0  0  0  0  0
  190.4140  177.4220  141.5040 C   0  0  0  0  0  0  0  0  0  0  0  0
  189.6730  177.8030  139.2030 C   0  0  0  0  0  3  0  0  0  0  0  0
  187.7400  177.5360  148.8680 F   0  0  0  0  0  0  0  0  0  0  0  0
  186.9310  177.5970  146.6280 C   0  0  0  0  0  3  0  0  0  0  0  0
  190.1170  177.3810  142.8810 C   0  0  0  0  0  0  0  0  0  0  0  0
  187.3750  178.3920  138.7410 C   0  0  0  0  0  3  0  0  0  0  0  0
  188.0850  178.0170  141.0330 C   0  0  0  0  0  0  0  0  0  0  0  0
  185.6700  178.6690  140.5430 C   0  0  0  0  0  2  0  0  0  0  0  0
  184.7020  178.8530  139.3690 C   0  0  2  0  0  3  0  0  0  0  0  0
  182.3550  178.8560  139.1740 N   0  0  0  0  0  0  0  0  0  0  0  0
  184.2940  180.1850  139.2590 O   0  0  0  0  0  0  0  0  0  0  0  0
  183.5330  176.8260  138.5670 C   0  0  0  0  0  1  0  0  0  0  0  0
  183.4680  178.0040  139.5200 C   0  0  1  0  0  3  0  0  0  0  0  0
  181.5960  179.0780  140.3940 C   0  0  0  0  0  1  0  0  0  0  0  0
  182.9620  180.1310  138.8120 C   0  0  0  0  0  2  0  0  0  0  0  0
  1 21  1  0  0  0  0
  1 20  1  0  0  0  0
  2 17  1  0  0  0  0
  3 14  1  0  0  0  0
  4  9  2  0  0  0  0
  5  7  1  0  0  0  0
  6 16  1  0  0  0  0
  7  2  2  0  0  0  0
  7  4  1  0  0  0  0
  8 12  1  0  0  0  0
  9  6  1  0  0  0  0
 10 20  2  0  0  0  0
 10 14  1  0  0  0  0
 11  5  2  0  0  0  0
 12  4  1  0  0  0  0
 13 19  1  0  0  0  0
 13 15  2  0  0  0  0
 14 18  2  0  0  0  0
 15 10  1  0  0  0  0
 17  6  2  0  0  0  0
 18  5  1  0  0  0  0
 18  8  1  0  0  0  0
 19  1  2  0  0  0  0
 20 11  1  0  0  0  0
 22 26  1  0  0  0  0
 22 21  1  1  0  0  0
 23 26  1  0  0  0  0
 23 27  1  0  0  0  0
 24 22  1  0  0  0  0
 26 25  1  6  0  0  0
 28 23  1  0  0  0  0
 28 24  1  0  0  0  0
M  END
>  <MODEL>
8

>  <REMARK>
 VINA RESULT:     -10.1      3.148      6.153
  Name = 
  2 active torsions:
  status: ('A' for Active; 'I' for Inactive)
    1  A    between atoms: C_1  and  C_2
    2  A    between atoms: C_2  and  C_3
                            x       y       z     vdW  Elec       q    Type
                         _______ _______ _______ _____ _____    ______ ____

>  <TORSDO>
F 2

$$$$
=
 OpenBabel10262420493D

 28 32  0  0  1  0  0  0  0  0999 V2000
  185.2040  178.5280  140.4430 C   0  0  0  0  0  0  0  0  0  0  0  0
  189.1760  177.8820  143.7340 C   0  0  0  0  0  3  0  0  0  0  0  0
  183.1100  178.9620  144.9350 C   0  0  0  0  0  1  0  0  0  0  0  0
  188.0300  177.5590  145.8510 C   0  0  0  0  0  0  0  0  0  0  0  0
  186.6830  178.1890  143.8460 C   0  0  0  0  0  0  0  0  0  0  0  0
  190.4320  177.2760  145.7140 C   0  0  0  0  0  0  0  0  0  0  0  0
  187.9850  177.8700  144.4770 C   0  0  0  0  0  0  0  0  0  0  0  0
  185.7200  178.4600  146.1570 C   0  0  0  0  0  2  0  0  0  0  0  0
  189.2500  177.2520  146.4590 C   0  0  0  0  0  3  0  0  0  0  0  0
  184.1870  178.7320  142.6610 C   0  0  0  0  0  0  0  0  0  0  0  0
  186.5570  178.2340  142.4550 C   0  0  0  0  0  3  0  0  0  0  0  0
  186.7600  177.4490  146.6410 C   0  0  0  0  0  2  0  0  0  0  0  0
  182.8410  179.0370  140.6590 C   0  0  0  0  0  3  0  0  0  0  0  0
  184.3040  178.6980  144.0670 C   0  0  0  0  0  0  0  0  0  0  0  0
  182.9530  179.0030  142.0490 C   0  0  0  0  0  3  0  0  0  0  0  0
  191.6130  176.9850  146.3090 F   0  0  0  0  0  0  0  0  0  0  0  0
  190.3950  177.5880  144.3520 C   0  0  0  0  0  3  0  0  0  0  0  0
  185.5520  178.4160  144.6580 C   0  0  0  0  0  0  0  0  0  0  0  0
  183.9620  178.8000  139.8620 C   0  0  0  0  0  3  0  0  0  0  0  0
  185.3240  178.4970  141.8490 C   0  0  0  0  0  0  0  0  0  0  0  0
  186.3750  178.2540  139.5390 C   0  0  0  0  0  2  0  0  0  0  0  0
  185.9700  178.0440  138.0760 C   0  0  2  0  0  3  0  0  0  0  0  0
  186.6950  176.5870  136.3740 N   0  0  0  0  0  0  0  0  0  0  0  0
  185.0150  177.0300  137.9600 O   0  0  0  0  0  0  0  0  0  0  0  0
  187.5560  178.8530  136.3590 C   0  0  0  0  0  1  0  0  0  0  0  0
  187.1470  177.6700  137.2160 C   0  0  1  0  0  3  0  0  0  0  0  0
  187.4140  175.3960  136.7940 C   0  0  0  0  0  1  0  0  0  0  0  0
  185.2970  176.3910  136.7410 C   0  0  0  0  0  2  0  0  0  0  0  0
  1 20  1  0  0  0  0
  2 17  2  0  0  0  0
  2  7  1  0  0  0  0
  4  9  1  0  0  0  0
  4 12  1  0  0  0  0
  5  7  1  0  0  0  0
  5 18  1  0  0  0  0
  6 16  1  0  0  0  0
  6  9  2  0  0  0  0
  7  4  2  0  0  0  0
  8 12  1  0  0  0  0
 10 14  1  0  0  0  0
 11  5  2  0  0  0  0
 13 15  2  0  0  0  0
 14 18  2  0  0  0  0
 14  3  1  0  0  0  0
 15 10  1  0  0  0  0
 17  6  1  0  0  0  0
 18  8  1  0  0  0  0
 19  1  2  0  0  0  0
 19 13  1  0  0  0  0
 20 11  1  0  0  0  0
 20 10  2  0  0  0  0
 21  1  1  0  0  0  0
 22 21  1  1  0  0  0
 23 28  1  0  0  0  0
 23 27  1  0  0  0  0
 23 26  1  0  0  0  0
 24 22  1  0  0  0  0
 26 25  1  6  0  0  0
 26 22  1  0  0  0  0
 28 24  1  0  0  0  0
M  END
>  <MODEL>
9

>  <REMARK>
 VINA RESULT:      -9.2      3.107      5.857
  Name = 
  2 active torsions:
  status: ('A' for Active; 'I' for Inactive)
    1  A    between atoms: C_1  and  C_2
    2  A    between atoms: C_2  and  C_3
                            x       y       z     vdW  Elec       q    Type
                         _______ _______ _______ _____ _____    ______ ____

>  <TORSDO>
F 2

$$$$
