=
 OpenBabel10262420213D

 55 60  0  0  1  0  0  0  0  0999 V2000
  187.0470  178.1920  140.2600 C   0  0  0  0  0  2  0  0  0  0  0  0
  185.6700  174.5150  136.0500 C   0  0  0  0  0  2  0  0  0  0  0  0
  189.0210  172.4820  135.7990 O   0  0  0  0  0  0  0  0  0  0  0  0
  183.8520  176.3510  137.1210 C   0  0  0  0  0  2  0  0  0  0  0  0
  183.7420  177.3740  134.8520 C   0  0  0  0  0  2  0  0  0  0  0  0
  190.1340  175.1650  135.4380 C   0  0  0  0  0  2  0  0  0  0  0  0
  180.6450  174.0830  135.0620 C   0  0  0  0  0  2  0  0  0  0  0  0
  181.1140  173.2300  137.4050 C   0  0  2  0  0  3  0  0  0  0  0  0
  180.7160  174.3930  138.1020 O   0  0  0  0  0  0  0  0  0  0  0  0
  190.5450  176.3700  134.5940 C   0  0  0  0  0  2  0  0  0  0  0  0
  190.1650  176.5780  137.4790 C   0  0  2  0  0  3  0  0  0  0  0  0
  190.5660  177.8010  136.6620 C   0  0  0  0  0  2  0  0  0  0  0  0
  187.8820  175.0090  138.6360 C   0  0  0  0  0  2  0  0  0  0  0  0
  181.6550  176.4500  135.9020 C   0  0  1  0  0  3  0  0  0  0  0  0
  182.4110  176.6750  134.5940 C   0  0  0  0  0  2  0  0  0  0  0  0
  191.3560  177.3580  135.4310 C   0  0  0  0  0  2  0  0  0  0  0  0
  185.0000  180.3890  138.8730 C   0  0  0  0  0  2  0  0  0  0  0  0
  180.0150  175.7330  135.5290 S   0  0  0  0  0  0  0  0  0  0  0  0
  189.3010  175.6350  136.6290 C   0  0  2  0  0  3  0  0  0  0  0  0
  186.5670  179.4380  137.2510 C   0  0  0  0  0  0  0  0  0  0  0  0
  187.5070  176.8110  140.2840 N   0  0  2  0  0  0  0  0  0  0  0  0
  180.3050  173.0360  136.1180 C   0  0  1  0  0  3  0  0  0  0  0  0
  187.7240  179.4050  136.7540 O   0  0  0  0  0  0  0  0  0  0  0  0
  190.3640  176.4740  139.9820 C   0  0  2  0  0  3  0  0  0  0  0  0
  188.5320  176.7550  141.3410 C   0  0  0  0  0  2  0  0  0  0  0  0
  184.9480  175.3340  135.1620 O   0  0  0  0  0  0  0  0  0  0  0  0
  189.5180  176.9850  138.8070 C   0  0  2  0  0  3  0  0  0  0  0  0
  186.9180  173.9940  135.3770 C   0  0  0  0  0  2  0  0  0  0  0  0
  187.9320  173.1680  136.6130 S   0  0  2  0  0  0  0  0  0  0  0  0
  185.0870  179.7040  140.2350 C   0  0  0  0  0  2  0  0  0  0  0  0
  182.5100  175.6340  136.9060 C   0  0  2  0  0  3  0  0  0  0  0  0
  184.6250  176.5610  135.7990 C   0  0  2  0  0  0  0  0  0  0  0  0
  185.5360  178.2540  140.1290 C   0  0  0  0  0  2  0  0  0  0  0  0
  188.7950  174.4870  137.5140 C   0  0  2  0  0  3  0  0  0  0  0  0
  188.0570  176.5080  138.9520 C   0  0  1  0  0  3  0  0  0  0  0  0
  178.9310  173.0200  136.3700 O   0  0  0  0  0  1  0  0  0  0  0  0
  185.8960  177.3810  136.0570 C   0  0  0  0  0  2  0  0  0  0  0  0
  189.5870  175.8800  141.0070 O   0  0  0  0  0  0  0  0  0  0  0  0
  181.8030  175.2990  138.2670 C   0  0  1  0  0  0  0  0  0  0  0  0
  185.5980  178.5150  136.8590 O   0  0  0  0  0  0  0  0  0  0  0  0
  186.2590  180.3970  138.2130 O   0  0  0  0  0  0  0  0  0  0  0  0
  181.2370  176.5750  138.8480 C   0  0  0  0  0  0  0  0  0  0  0  0
  179.8750  176.8420  138.7660 O   0  0  0  0  0  0  0  0  0  0  0  0
  181.9960  177.4290  139.3830 O   0  0  0  0  0  1  0  0  0  0  0  0
  181.8650  170.8340  137.7710 C   0  0  0  0  0  1  0  0  0  0  0  0
  181.0430  171.9950  138.3070 C   0  0  0  0  0  2  0  0  0  0  0  0
  182.7850  174.7470  139.3340 C   0  0  0  0  0  2  0  0  0  0  0  0
  183.9260  173.9040  138.7780 C   0  0  0  0  0  1  0  0  0  0  0  0
  191.2780  177.5690  140.5170 C   0  0  0  0  0  2  0  0  0  0  0  0
  192.5290  176.9560  141.1210 C   0  0  0  0  0  2  0  0  0  0  0  0
  193.4220  178.2430  139.2090 C   0  0  0  0  0  1  0  0  0  0  0  0
  193.7010  177.1040  140.1680 C   0  0  2  0  0  3  0  0  0  0  0  0
  193.8850  175.8740  139.4140 N   0  0  0  0  0  2  0  0  0  0  0  0
  193.6540  176.1960  138.0170 C   0  0  0  0  0  2  0  0  0  0  0  0
  193.7940  174.9430  137.1800 C   0  0  0  0  0  1  0  0  0  0  0  0
  3 29  2  0  0  0  0
  5 32  1  0  0  0  0
  7 18  1  0  0  0  0
  7 22  1  0  0  0  0
  8  9  1  0  0  0  0
  8 46  1  1  0  0  0
  9 39  1  0  0  0  0
 10 16  1  0  0  0  0
 10  6  1  0  0  0  0
 11 12  1  6  0  0  0
 11 27  1  0  0  0  0
 13 35  1  0  0  0  0
 14 15  1  6  0  0  0
 14 31  1  0  0  0  0
 15  5  1  0  0  0  0
 16 12  1  0  0  0  0
 17 30  1  0  0  0  0
 18 14  1  0  0  0  0
 19  6  1  6  0  0  0
 19 11  1  0  0  0  0
 19 34  1  0  0  0  0
 20 41  1  0  0  0  0
 21  1  1  6  0  0  0
 21 25  1  0  0  0  0
 22 36  1  1  0  0  0
 22  8  1  0  0  0  0
 23 20  2  0  0  0  0
 24 49  1  1  0  0  0
 24 38  1  0  0  0  0
 26 32  1  0  0  0  0
 26  2  1  0  0  0  0
 27 35  1  0  0  0  0
 27 24  1  0  0  0  0
 28  2  1  0  0  0  0
 28 29  1  0  0  0  0
 29 34  1  0  0  0  0
 31  4  1  0  0  0  0
 31 39  1  0  0  0  0
 32 37  1  0  0  0  0
 32  4  1  0  0  0  0
 33 30  1  0  0  0  0
 33  1  1  0  0  0  0
 34 13  1  0  0  0  0
 35 21  1  0  0  0  0
 37 40  1  0  0  0  0
 38 25  1  0  0  0  0
 39 42  1  0  0  0  0
 39 47  1  0  0  0  0
 40 20  1  0  0  0  0
 41 17  1  0  0  0  0
 42 44  1  0  0  0  0
 43 42  2  0  0  0  0
 45 46  1  0  0  0  0
 48 47  1  0  0  0  0
 49 50  1  0  0  0  0
 51 52  1  0  0  0  0
 52 50  1  0  0  0  0
 53 52  1  0  0  0  0
 54 53  1  0  0  0  0
 55 54  1  0  0  0  0
M  END
>  <MODEL>
1

>  <REMARK>
 VINA RESULT:      12.2      0.000      0.000
  Name = 
  8 active torsions:
  status: ('A' for Active; 'I' for Inactive)
    1  A    between atoms: C_1  and  C_53
    2  A    between atoms: C_6  and  C_53
    3  A    between atoms: C_12  and  C_38
    4  A    between atoms: C_13  and  C_33
    5  A    between atoms: C_13  and  C_48
    6  A    between atoms: C_18  and  N_39
    7  A    between atoms: C_32  and  N_39
    8  A    between atoms: C_32  and  C_48
                            x       y       z     vdW  Elec       q    Type
                         _______ _______ _______ _____ _____    ______ ____

>  <TORSDO>
F 8

$$$$
=
 OpenBabel10262420213D

 55 60  0  0  1  0  0  0  0  0999 V2000
  187.5270  178.2730  140.1350 C   0  0  0  0  0  2  0  0  0  0  0  0
  185.8530  174.4360  136.1830 C   0  0  0  0  0  2  0  0  0  0  0  0
  189.0430  172.1490  136.0610 O   0  0  0  0  0  0  0  0  0  0  0  0
  184.1830  176.4690  137.1340 C   0  0  0  0  0  2  0  0  0  0  0  0
  184.1310  177.3440  134.8020 C   0  0  0  0  0  2  0  0  0  0  0  0
  190.3480  174.7130  135.5180 C   0  0  0  0  0  2  0  0  0  0  0  0
  180.8030  174.3120  135.2390 C   0  0  0  0  0  2  0  0  0  0  0  0
  181.2250  173.5840  137.6330 C   0  0  2  0  0  3  0  0  0  0  0  0
  180.9180  174.8170  138.2510 O   0  0  0  0  0  0  0  0  0  0  0  0
  190.8400  175.8250  134.5930 C   0  0  0  0  0  2  0  0  0  0  0  0
  190.4970  176.2520  137.4600 C   0  0  2  0  0  3  0  0  0  0  0  0
  190.9820  177.3850  136.5620 C   0  0  0  0  0  2  0  0  0  0  0  0
  188.1150  174.9370  138.7250 C   0  0  0  0  0  2  0  0  0  0  0  0
  181.9900  176.6480  135.9160 C   0  0  1  0  0  3  0  0  0  0  0  0
  182.7510  176.7290  134.5940 C   0  0  0  0  0  2  0  0  0  0  0  0
  191.7280  176.8040  135.3610 C   0  0  0  0  0  2  0  0  0  0  0  0
  185.6370  180.5190  138.6090 C   0  0  0  0  0  2  0  0  0  0  0  0
  180.2990  176.0320  135.5960 S   0  0  0  0  0  0  0  0  0  0  0  0
  189.5600  175.3210  136.6760 C   0  0  2  0  0  3  0  0  0  0  0  0
  187.1180  179.3480  137.0490 C   0  0  0  0  0  0  0  0  0  0  0  0
  187.8850  176.8660  140.2500 N   0  0  2  0  0  0  0  0  0  0  0  0
  180.3950  173.3650  136.3630 C   0  0  1  0  0  3  0  0  0  0  0  0
  188.2660  179.1970  136.5530 O   0  0  0  0  0  0  0  0  0  0  0  0
  190.7070  176.3010  139.9630 C   0  0  2  0  0  3  0  0  0  0  0  0
  188.9110  176.8060  141.3050 C   0  0  0  0  0  2  0  0  0  0  0  0
  185.1860  175.2460  135.2440 O   0  0  0  0  0  0  0  0  0  0  0  0
  189.8920  176.7930  138.7590 C   0  0  2  0  0  3  0  0  0  0  0  0
  187.0530  173.7810  135.5430 C   0  0  0  0  0  2  0  0  0  0  0  0
  188.0140  172.9660  136.8300 S   0  0  2  0  0  0  0  0  0  0  0  0
  185.6840  179.9220  140.0120 C   0  0  0  0  0  2  0  0  0  0  0  0
  182.7900  175.8410  136.9700 C   0  0  2  0  0  3  0  0  0  0  0  0
  184.9590  176.5330  135.7990 C   0  0  2  0  0  0  0  0  0  0  0  0
  186.0250  178.4380  140.0030 C   0  0  0  0  0  2  0  0  0  0  0  0
  188.9780  174.2750  137.6380 C   0  0  2  0  0  3  0  0  0  0  0  0
  188.4010  176.4360  138.9390 C   0  0  1  0  0  3  0  0  0  0  0  0
  179.0240  173.4680  136.6190 O   0  0  0  0  0  1  0  0  0  0  0  0
  186.2890  177.2720  135.9980 C   0  0  0  0  0  2  0  0  0  0  0  0
  189.8960  175.8350  141.0280 O   0  0  0  0  0  0  0  0  0  0  0  0
  182.0710  175.6490  138.3530 C   0  0  1  0  0  0  0  0  0  0  0  0
  186.0810  178.4760  136.7220 O   0  0  0  0  0  0  0  0  0  0  0  0
  186.8890  180.3900  137.9460 O   0  0  0  0  0  0  0  0  0  0  0  0
  181.6040  177.0000  138.8480 C   0  0  0  0  0  0  0  0  0  0  0  0
  180.3010  177.1710  139.3000 O   0  0  0  0  0  1  0  0  0  0  0  0
  182.3800  177.9940  138.8260 O   0  0  0  0  0  0  0  0  0  0  0  0
  181.4200  171.0800  137.9910 C   0  0  0  0  0  1  0  0  0  0  0  0
  181.0700  172.4210  138.6150 C   0  0  0  0  0  2  0  0  0  0  0  0
  183.0170  175.0990  139.4510 C   0  0  0  0  0  2  0  0  0  0  0  0
  182.5660  175.3730  140.8800 C   0  0  0  0  0  1  0  0  0  0  0  0
  191.7030  177.3590  140.4220 C   0  0  0  0  0  2  0  0  0  0  0  0
  192.4230  176.8900  141.6740 C   0  0  0  0  0  2  0  0  0  0  0  0
  192.0680  178.0770  143.8130 C   0  0  0  0  0  1  0  0  0  0  0  0
  191.5140  177.0160  142.8820 C   0  0  2  0  0  3  0  0  0  0  0  0
  191.4470  175.7460  143.5880 N   0  0  0  0  0  2  0  0  0  0  0  0
  190.8080  176.0050  144.8660 C   0  0  0  0  0  2  0  0  0  0  0  0
  189.4360  176.5990  144.6330 C   0  0  0  0  0  1  0  0  0  0  0  0
  3 29  2  0  0  0  0
  5 32  1  0  0  0  0
  7 18  1  0  0  0  0
  7 22  1  0  0  0  0
  8  9  1  0  0  0  0
  8 46  1  1  0  0  0
  9 39  1  0  0  0  0
 10 16  1  0  0  0  0
 10  6  1  0  0  0  0
 11 12  1  6  0  0  0
 11 27  1  0  0  0  0
 13 35  1  0  0  0  0
 14 15  1  6  0  0  0
 14 31  1  0  0  0  0
 15  5  1  0  0  0  0
 16 12  1  0  0  0  0
 17 30  1  0  0  0  0
 18 14  1  0  0  0  0
 19  6  1  6  0  0  0
 19 11  1  0  0  0  0
 19 34  1  0  0  0  0
 20 41  1  0  0  0  0
 21  1  1  6  0  0  0
 21 25  1  0  0  0  0
 22 36  1  1  0  0  0
 22  8  1  0  0  0  0
 23 20  2  0  0  0  0
 24 49  1  1  0  0  0
 24 38  1  0  0  0  0
 26 32  1  0  0  0  0
 26  2  1  0  0  0  0
 27 35  1  0  0  0  0
 27 24  1  0  0  0  0
 28  2  1  0  0  0  0
 28 29  1  0  0  0  0
 29 34  1  0  0  0  0
 31  4  1  0  0  0  0
 31 39  1  0  0  0  0
 32 37  1  0  0  0  0
 32  4  1  0  0  0  0
 33 30  1  0  0  0  0
 33  1  1  0  0  0  0
 34 13  1  0  0  0  0
 35 21  1  0  0  0  0
 37 40  1  0  0  0  0
 38 25  1  0  0  0  0
 39 42  1  0  0  0  0
 39 47  1  0  0  0  0
 40 20  1  0  0  0  0
 41 17  1  0  0  0  0
 42 43  1  0  0  0  0
 44 42  2  0  0  0  0
 45 46  1  0  0  0  0
 47 48  1  0  0  0  0
 49 50  1  0  0  0  0
 50 52  1  0  0  0  0
 52 53  1  0  0  0  0
 52 51  1  0  0  0  0
 53 54  1  0  0  0  0
 55 54  1  0  0  0  0
M  END
>  <MODEL>
2

>  <REMARK>
 VINA RESULT:      13.7      1.208      1.958
  Name = 
  8 active torsions:
  status: ('A' for Active; 'I' for Inactive)
    1  A    between atoms: C_1  and  C_53
    2  A    between atoms: C_6  and  C_53
    3  A    between atoms: C_12  and  C_38
    4  A    between atoms: C_13  and  C_33
    5  A    between atoms: C_13  and  C_48
    6  A    between atoms: C_18  and  N_39
    7  A    between atoms: C_32  and  N_39
    8  A    between atoms: C_32  and  C_48
                            x       y       z     vdW  Elec       q    Type
                         _______ _______ _______ _____ _____    ______ ____

>  <TORSDO>
F 8

$$$$
=
 OpenBabel10262420213D

 55 60  0  0  1  0  0  0  0  0999 V2000
  186.7690  173.5210  136.6330 C   0  0  0  0  0  2  0  0  0  0  0  0
  185.3640  177.9980  139.9680 C   0  0  0  0  0  2  0  0  0  0  0  0
  181.4540  177.6340  139.9860 O   0  0  0  0  0  0  0  0  0  0  0  0
  188.0110  177.2630  139.4450 C   0  0  0  0  0  2  0  0  0  0  0  0
  188.2810  179.4870  138.3540 C   0  0  0  0  0  2  0  0  0  0  0  0
  181.8520  177.7130  137.0860 C   0  0  0  0  0  2  0  0  0  0  0  0
  189.2110  179.9570  142.7570 C   0  0  0  0  0  2  0  0  0  0  0  0
  188.7400  177.5860  143.5290 C   0  0  2  0  0  3  0  0  0  0  0  0
  189.7870  176.9560  142.8190 O   0  0  0  0  0  0  0  0  0  0  0  0
  181.9990  178.4340  135.7480 C   0  0  0  0  0  2  0  0  0  0  0  0
  182.8770  175.6750  136.1070 C   0  0  2  0  0  3  0  0  0  0  0  0
  183.0460  176.3700  134.7610 C   0  0  0  0  0  2  0  0  0  0  0  0
  184.1630  175.0190  138.7380 C   0  0  0  0  0  2  0  0  0  0  0  0
  189.7190  178.8850  140.3240 C   0  0  1  0  0  3  0  0  0  0  0  0
  188.9970  180.0150  139.5940 C   0  0  0  0  0  2  0  0  0  0  0  0
  181.9600  177.4330  134.5940 C   0  0  0  0  0  2  0  0  0  0  0  0
  189.4130  175.2330  135.6220 C   0  0  0  0  0  2  0  0  0  0  0  0
  190.6700  179.5870  141.7200 S   0  0  0  0  0  0  0  0  0  0  0  0
  182.9820  176.6980  137.2470 C   0  0  2  0  0  3  0  0  0  0  0  0
  187.3480  176.5390  135.4510 C   0  0  0  0  0  0  0  0  0  0  0  0
  185.6700  173.4380  137.5850 N   0  0  2  0  0  0  0  0  0  0  0  0
  189.1190  179.0110  143.9500 C   0  0  1  0  0  3  0  0  0  0  0  0
  186.2810  176.8010  134.8350 O   0  0  0  0  0  0  0  0  0  0  0  0
  183.0460  173.1840  136.3940 C   0  0  2  0  0  3  0  0  0  0  0  0
  184.9440  172.2030  137.2400 C   0  0  0  0  0  2  0  0  0  0  0  0
  186.2570  178.9920  139.5270 O   0  0  0  0  0  0  0  0  0  0  0  0
  183.8390  174.4900  136.2440 C   0  0  2  0  0  3  0  0  0  0  0  0
  183.9400  178.4260  139.7040 C   0  0  0  0  0  2  0  0  0  0  0  0
  182.8510  177.0330  140.0460 S   0  0  2  0  0  0  0  0  0  0  0  0
  189.1970  173.8960  136.3260 C   0  0  0  0  0  2  0  0  0  0  0  0
  188.7350  177.7520  140.7090 C   0  0  2  0  0  3  0  0  0  0  0  0
  187.2640  178.4030  138.7170 C   0  0  2  0  0  0  0  0  0  0  0  0
  188.0510  173.9440  137.3260 C   0  0  0  0  0  2  0  0  0  0  0  0
  182.9500  175.9530  138.5900 C   0  0  2  0  0  3  0  0  0  0  0  0
  184.8430  174.6440  137.4070 C   0  0  1  0  0  3  0  0  0  0  0  0
  190.3060  179.0320  144.6870 O   0  0  0  0  0  1  0  0  0  0  0  0
  186.6600  177.8840  137.4050 C   0  0  0  0  0  2  0  0  0  0  0  0
  183.5510  172.3430  137.4160 O   0  0  0  0  0  0  0  0  0  0  0  0
  189.3670  176.5620  141.5160 C   0  0  1  0  0  0  0  0  0  0  0  0
  187.6240  177.1330  136.6820 O   0  0  0  0  0  0  0  0  0  0  0  0
  188.2550  175.6350  134.9010 O   0  0  0  0  0  0  0  0  0  0  0  0
  190.5960  176.0750  140.7800 C   0  0  0  0  0  0  0  0  0  0  0  0
  191.8450  176.1210  141.3880 O   0  0  0  0  0  1  0  0  0  0  0  0
  190.5080  175.6540  139.5940 O   0  0  0  0  0  0  0  0  0  0  0  0
  187.3380  177.4850  145.6420 C   0  0  0  0  0  1  0  0  0  0  0  0
  188.3010  176.7430  144.7280 C   0  0  0  0  0  2  0  0  0  0  0  0
  188.4220  175.3360  141.6190 C   0  0  0  0  0  2  0  0  0  0  0  0
  188.2000  174.8170  143.0340 C   0  0  0  0  0  1  0  0  0  0  0  0
  182.9280  172.4570  135.0600 C   0  0  0  0  0  2  0  0  0  0  0  0
  181.6510  171.6370  135.0230 C   0  0  0  0  0  2  0  0  0  0  0  0
  179.7380  171.3100  136.5540 C   0  0  0  0  0  1  0  0  0  0  0  0
  180.5510  172.3410  135.7970 C   0  0  2  0  0  3  0  0  0  0  0  0
  179.6800  173.0600  134.8810 N   0  0  0  0  0  2  0  0  0  0  0  0
  179.6640  174.4460  135.3130 C   0  0  0  0  0  2  0  0  0  0  0  0
  179.5400  174.5040  136.8200 C   0  0  0  0  0  1  0  0  0  0  0  0
  1 33  1  0  0  0  0
  3 29  2  0  0  0  0
  4 31  1  0  0  0  0
  5 32  1  0  0  0  0
  5 15  1  0  0  0  0
  7 22  1  0  0  0  0
  8 22  1  0  0  0  0
  8 46  1  1  0  0  0
  9  8  1  0  0  0  0
 10  6  1  0  0  0  0
 11 12  1  6  0  0  0
 11 27  1  0  0  0  0
 11 19  1  0  0  0  0
 14 15  1  1  0  0  0
 14 31  1  0  0  0  0
 14 18  1  0  0  0  0
 16 12  1  0  0  0  0
 16 10  1  0  0  0  0
 17 30  1  0  0  0  0
 18  7  1  0  0  0  0
 19  6  1  1  0  0  0
 19 34  1  0  0  0  0
 20 40  1  0  0  0  0
 21  1  1  6  0  0  0
 22 36  1  6  0  0  0
 23 20  2  0  0  0  0
 24 49  1  6  0  0  0
 24 38  1  0  0  0  0
 25 38  1  0  0  0  0
 25 21  1  0  0  0  0
 26  2  1  0  0  0  0
 27 24  1  0  0  0  0
 27 35  1  0  0  0  0
 28  2  1  0  0  0  0
 28 29  1  0  0  0  0
 30 33  1  0  0  0  0
 31 39  1  0  0  0  0
 32  4  1  0  0  0  0
 32 26  1  0  0  0  0
 34 13  1  0  0  0  0
 34 29  1  0  0  0  0
 35 21  1  0  0  0  0
 35 13  1  0  0  0  0
 37 32  1  0  0  0  0
 39 47  1  0  0  0  0
 39  9  1  0  0  0  0
 40 37  1  0  0  0  0
 41 20  1  0  0  0  0
 41 17  1  0  0  0  0
 42 43  1  0  0  0  0
 42 39  1  0  0  0  0
 44 42  2  0  0  0  0
 46 45  1  0  0  0  0
 47 48  1  0  0  0  0
 50 49  1  0  0  0  0
 50 52  1  0  0  0  0
 52 51  1  0  0  0  0
 53 54  1  0  0  0  0
 53 52  1  0  0  0  0
 54 55  1  0  0  0  0
M  END
>  <MODEL>
3

>  <REMARK>
 VINA RESULT:      14.1      2.906      9.195
  Name = 
  8 active torsions:
  status: ('A' for Active; 'I' for Inactive)
    1  A    between atoms: C_1  and  C_53
    2  A    between atoms: C_6  and  C_53
    3  A    between atoms: C_12  and  C_38
    4  A    between atoms: C_13  and  C_33
    5  A    between atoms: C_13  and  C_48
    6  A    between atoms: C_18  and  N_39
    7  A    between atoms: C_32  and  N_39
    8  A    between atoms: C_32  and  C_48
                            x       y       z     vdW  Elec       q    Type
                         _______ _______ _______ _____ _____    ______ ____

>  <TORSDO>
F 8

$$$$
=
 OpenBabel10262420213D

 55 60  0  0  1  0  0  0  0  0999 V2000
  185.9820  174.9990  137.5550 C   0  0  0  0  0  2  0  0  0  0  0  0
  185.3470  178.7200  141.9020 C   0  0  0  0  0  2  0  0  0  0  0  0
  181.4270  178.8780  142.0960 O   0  0  0  0  0  0  0  0  0  0  0  0
  187.8420  177.7850  141.0520 C   0  0  0  0  0  2  0  0  0  0  0  0
  188.3890  180.1470  140.4770 C   0  0  0  0  0  2  0  0  0  0  0  0
  181.7330  179.5770  139.2690 C   0  0  0  0  0  2  0  0  0  0  0  0
  189.5270  179.4520  144.8000 C   0  0  0  0  0  2  0  0  0  0  0  0
  188.7490  177.0500  145.0460 C   0  0  2  0  0  3  0  0  0  0  0  0
  189.6700  176.4700  144.1440 O   0  0  0  0  0  0  0  0  0  0  0  0
  181.9360  180.5650  138.1220 C   0  0  0  0  0  2  0  0  0  0  0  0
  182.4220  177.7070  137.7880 C   0  0  2  0  0  3  0  0  0  0  0  0
  182.6430  178.6690  136.6270 C   0  0  0  0  0  2  0  0  0  0  0  0
  183.6910  176.2940  140.1130 C   0  0  0  0  0  2  0  0  0  0  0  0
  189.7940  178.9200  142.1590 C   0  0  1  0  0  3  0  0  0  0  0  0
  189.2160  180.2740  141.7530 C   0  0  0  0  0  2  0  0  0  0  0  0
  181.7150  179.8750  136.7760 C   0  0  0  0  0  2  0  0  0  0  0  0
  188.8080  176.5370  136.7850 C   0  0  0  0  0  2  0  0  0  0  0  0
  190.8820  179.1450  143.6120 S   0  0  0  0  0  0  0  0  0  0  0  0
  182.7120  178.4140  139.1210 C   0  0  2  0  0  3  0  0  0  0  0  0
  186.9460  178.1060  137.0500 C   0  0  0  0  0  0  0  0  0  0  0  0
  184.9160  174.8410  138.5340 N   0  0  2  0  0  0  0  0  0  0  0  0
  189.3410  178.2740  145.7510 C   0  0  1  0  0  3  0  0  0  0  0  0
  185.9070  178.6420  136.5820 O   0  0  0  0  0  0  0  0  0  0  0  0
  182.2430  175.2180  137.4930 C   0  0  2  0  0  3  0  0  0  0  0  0
  184.0090  173.8270  137.9680 C   0  0  0  0  0  2  0  0  0  0  0  0
  186.3570  179.6630  141.6380 O   0  0  0  0  0  0  0  0  0  0  0  0
  183.2090  176.4080  137.5900 C   0  0  2  0  0  3  0  0  0  0  0  0
  183.9900  179.3800  141.8360 C   0  0  0  0  0  2  0  0  0  0  0  0
  182.7260  178.1020  141.9260 S   0  0  2  0  0  0  0  0  0  0  0  0
  188.4270  175.1130  137.1810 C   0  0  0  0  0  2  0  0  0  0  0  0
  188.6710  177.8670  142.3430 C   0  0  2  0  0  3  0  0  0  0  0  0
  187.2410  179.1520  140.6520 C   0  0  2  0  0  0  0  0  0  0  0  0
  187.3340  175.0760  138.2400 C   0  0  0  0  0  2  0  0  0  0  0  0
  182.6190  177.3870  140.2600 C   0  0  2  0  0  3  0  0  0  0  0  0
  184.2640  176.1530  138.6890 C   0  0  1  0  0  3  0  0  0  0  0  0
  190.5440  177.9670  146.3940 O   0  0  0  0  0  1  0  0  0  0  0  0
  186.5250  179.0370  139.3000 C   0  0  0  0  0  2  0  0  0  0  0  0
  182.6570  174.1040  138.2630 O   0  0  0  0  0  0  0  0  0  0  0  0
  189.1540  176.4500  142.8160 C   0  0  1  0  0  0  0  0  0  0  0  0
  187.3460  178.3550  138.3630 O   0  0  0  0  0  0  0  0  0  0  0  0
  187.6950  177.2440  136.2510 O   0  0  0  0  0  0  0  0  0  0  0  0
  190.2740  175.9910  141.9090 C   0  0  0  0  0  0  0  0  0  0  0  0
  190.1120  176.0030  140.5290 O   0  0  0  0  0  0  0  0  0  0  0  0
  191.3560  175.5600  142.3940 O   0  0  0  0  0  1  0  0  0  0  0  0
  187.9440  176.6200  147.4140 C   0  0  0  0  0  1  0  0  0  0  0  0
  188.2340  176.0150  146.0500 C   0  0  0  0  0  2  0  0  0  0  0  0
  188.0470  175.3680  142.7020 C   0  0  0  0  0  2  0  0  0  0  0  0
  186.8080  175.6300  143.5480 C   0  0  0  0  0  1  0  0  0  0  0  0
  181.9770  174.8440  136.0400 C   0  0  0  0  0  2  0  0  0  0  0  0
  180.5710  174.2920  135.8920 C   0  0  0  0  0  2  0  0  0  0  0  0
  180.1550  172.0730  136.9000 C   0  0  0  0  0  1  0  0  0  0  0  0
  180.6160  172.7940  135.6490 C   0  0  2  0  0  3  0  0  0  0  0  0
  181.9740  172.3840  135.3310 N   0  0  0  0  0  2  0  0  0  0  0  0
  182.0650  170.9630  135.6170 C   0  0  0  0  0  2  0  0  0  0  0  0
  183.4390  170.6450  136.1660 C   0  0  0  0  0  1  0  0  0  0  0  0
  1 33  1  0  0  0  0
  4 31  1  0  0  0  0
  5 32  1  0  0  0  0
  5 15  1  0  0  0  0
  7 22  1  0  0  0  0
  8 22  1  0  0  0  0
  8 46  1  1  0  0  0
  9  8  1  0  0  0  0
 10  6  1  0  0  0  0
 11 12  1  6  0  0  0
 11 19  1  0  0  0  0
 12 16  1  0  0  0  0
 13 34  1  0  0  0  0
 14 15  1  1  0  0  0
 14 31  1  0  0  0  0
 14 18  1  0  0  0  0
 16 10  1  0  0  0  0
 17 30  1  0  0  0  0
 18  7  1  0  0  0  0
 19  6  1  1  0  0  0
 19 34  1  0  0  0  0
 20 40  1  0  0  0  0
 21  1  1  6  0  0  0
 21 35  1  0  0  0  0
 22 36  1  6  0  0  0
 23 20  2  0  0  0  0
 24 49  1  6  0  0  0
 24 27  1  0  0  0  0
 24 38  1  0  0  0  0
 25 38  1  0  0  0  0
 25 21  1  0  0  0  0
 26  2  1  0  0  0  0
 27 11  1  0  0  0  0
 27 35  1  0  0  0  0
 28  2  1  0  0  0  0
 28 29  1  0  0  0  0
 29  3  2  0  0  0  0
 30 33  1  0  0  0  0
 31 39  1  0  0  0  0
 32  4  1  0  0  0  0
 32 26  1  0  0  0  0
 34 29  1  0  0  0  0
 35 13  1  0  0  0  0
 37 32  1  0  0  0  0
 39  9  1  0  0  0  0
 40 37  1  0  0  0  0
 41 17  1  0  0  0  0
 41 20  1  0  0  0  0
 42 44  1  0  0  0  0
 42 39  1  0  0  0  0
 43 42  2  0  0  0  0
 46 45  1  0  0  0  0
 47 39  1  0  0  0  0
 47 48  1  0  0  0  0
 50 49  1  0  0  0  0
 52 50  1  0  0  0  0
 52 51  1  0  0  0  0
 53 54  1  0  0  0  0
 53 52  1  0  0  0  0
 54 55  1  0  0  0  0
M  END
>  <MODEL>
4

>  <REMARK>
 VINA RESULT:      14.5      3.236      9.379
  Name = 
  8 active torsions:
  status: ('A' for Active; 'I' for Inactive)
    1  A    between atoms: C_1  and  C_53
    2  A    between atoms: C_6  and  C_53
    3  A    between atoms: C_12  and  C_38
    4  A    between atoms: C_13  and  C_33
    5  A    between atoms: C_13  and  C_48
    6  A    between atoms: C_18  and  N_39
    7  A    between atoms: C_32  and  N_39
    8  A    between atoms: C_32  and  C_48
                            x       y       z     vdW  Elec       q    Type
                         _______ _______ _______ _____ _____    ______ ____

>  <TORSDO>
F 8

$$$$
