=
 OpenBabel10262420503D

 28 32  0  0  1  0  0  0  0  0999 V2000
  187.4250  178.2220  147.8580 C   0  0  0  0  0  2  0  0  0  0  0  0
  188.7430  177.1850  145.2950 C   0  0  2  0  0  3  0  0  0  0  0  0
  188.5540  177.2040  147.8180 C   0  0  0  0  0  2  0  0  0  0  0  0
  185.6490  178.7490  146.2560 C   0  0  1  0  0  3  0  0  0  0  0  0
  187.5960  178.1710  145.0890 C   0  0  0  0  0  2  0  0  0  0  0  0
  186.2040  177.6960  147.0980 C   0  0  1  0  0  3  0  0  0  0  0  0
  189.4570  177.4550  146.6170 C   0  0  0  0  0  2  0  0  0  0  0  0
  186.3480  177.6220  145.6160 N   0  0  1  0  0  0  0  0  0  0  0  0
  190.8170  178.1270  144.2000 C   0  0  0  0  0  3  0  0  0  0  0  0
  189.5700  176.3880  143.0600 C   0  0  0  0  0  0  0  0  0  0  0  0
  191.5650  177.3170  142.0480 C   0  0  0  0  0  0  0  0  0  0  0  0
  189.7220  177.2480  144.1600 C   0  0  0  0  0  0  0  0  0  0  0  0
  190.4880  176.4280  142.0060 C   0  0  0  0  0  3  0  0  0  0  0  0
  188.5390  175.5070  143.0080 F   0  0  0  0  0  0  0  0  0  0  0  0
  192.4530  177.3530  141.0240 F   0  0  0  0  0  0  0  0  0  0  0  0
  191.7320  178.1620  143.1460 C   0  0  0  0  0  3  0  0  0  0  0  0
  184.1520  178.5600  146.1160 C   0  0  0  0  0  2  0  0  0  0  0  0
  183.6640  179.3290  144.9000 C   0  0  0  0  0  2  0  0  0  0  0  0
  182.2980  178.8400  142.9560 C   0  0  0  0  0  2  0  0  0  0  0  0
  183.6500  179.1320  142.4580 N   0  0  0  0  0  0  0  0  0  0  0  0
  183.4570  178.3960  143.7200 C   0  0  1  0  0  3  0  0  0  0  0  0
  183.9140  178.2070  141.5010 O   0  0  0  0  0  0  0  0  0  0  0  0
  183.6620  179.5970  139.4200 C   0  0  2  0  0  0  0  0  0  0  0  0
  185.8330  179.3570  140.6410 O   0  0  0  0  0  1  0  0  0  0  0  0
  184.3020  178.2580  139.0950 C   0  0  0  0  0  2  0  0  0  0  0  0
  184.5230  178.9100  140.4510 C   0  0  1  0  0  0  0  0  0  0  0  0
  182.2920  179.5910  139.6050 F   0  0  0  0  0  0  0  0  0  0  0  0
  184.2430  180.6800  138.7620 O   0  0  0  0  0  1  0  0  0  0  0  0
  2 12  1  6  0  0  0
  2  7  1  0  0  0  0
  3  1  1  0  0  0  0
  4 17  1  6  0  0  0
  4  6  1  0  0  0  0
  5  2  1  0  0  0  0
  6  1  1  1  0  0  0
  7  3  1  0  0  0  0
  8  5  1  1  0  0  0
  8  4  1  0  0  0  0
  8  6  1  0  0  0  0
 10 12  2  0  0  0  0
 11 16  1  0  0  0  0
 12  9  1  0  0  0  0
 13 11  2  0  0  0  0
 13 10  1  0  0  0  0
 14 10  1  0  0  0  0
 15 11  1  0  0  0  0
 16  9  2  0  0  0  0
 18 17  1  0  0  0  0
 19 21  1  0  0  0  0
 20 19  1  0  0  0  0
 20 21  1  0  0  0  0
 21 18  1  1  0  0  0
 22 20  1  0  0  0  0
 23 28  1  6  0  0  0
 23 27  1  0  0  0  0
 23 26  1  0  0  0  0
 25 23  1  0  0  0  0
 25 26  1  0  0  0  0
 26 24  1  1  0  0  0
 26 22  1  0  0  0  0
M  END
>  <MODEL>
1

>  <REMARK>
 VINA RESULT:      -9.1      0.000      0.000
  Name = 
  6 active torsions:
  status: ('A' for Active; 'I' for Inactive)
    1  A    between atoms: O_2  and  N_3
    2  A    between atoms: O_2  and  C_11
    3  A    between atoms: C_10  and  C_13
    4  A    between atoms: C_16  and  C_21
    5  A    between atoms: C_19  and  C_21
    6  A    between atoms: C_19  and  C_26
                            x       y       z     vdW  Elec       q    Type
                         _______ _______ _______ _____ _____    ______ ____

>  <TORSDO>
F 6

$$$$
=
 OpenBabel10262420503D

 28 32  0  0  1  0  0  0  0  0999 V2000
  188.2350  177.2850  147.3300 C   0  0  0  0  0  2  0  0  0  0  0  0
  186.3240  178.5720  145.3110 C   0  0  2  0  0  3  0  0  0  0  0  0
  187.2030  178.3490  147.6730 C   0  0  0  0  0  2  0  0  0  0  0  0
  189.4610  176.8130  145.2630 C   0  0  1  0  0  3  0  0  0  0  0  0
  187.3070  177.5590  144.7290 C   0  0  0  0  0  2  0  0  0  0  0  0
  189.2270  177.8180  146.2920 C   0  0  1  0  0  3  0  0  0  0  0  0
  185.9890  178.2290  146.7600 C   0  0  0  0  0  2  0  0  0  0  0  0
  188.6840  178.0140  144.9180 N   0  0  1  0  0  0  0  0  0  0  0  0
  183.8130  178.7800  145.1130 C   0  0  0  0  0  3  0  0  0  0  0  0
  185.1430  178.6030  143.0930 C   0  0  0  0  0  0  0  0  0  0  0  0
  182.7330  178.8060  142.9490 C   0  0  0  0  0  0  0  0  0  0  0  0
  185.0670  178.6380  144.4950 C   0  0  0  0  0  0  0  0  0  0  0  0
  183.9770  178.6810  142.3250 C   0  0  0  0  0  3  0  0  0  0  0  0
  186.3430  178.4980  142.4680 F   0  0  0  0  0  0  0  0  0  0  0  0
  181.6060  178.8820  142.2010 F   0  0  0  0  0  0  0  0  0  0  0  0
  182.6520  178.8600  144.3410 C   0  0  0  0  0  3  0  0  0  0  0  0
  190.8690  176.9510  144.7210 C   0  0  0  0  0  2  0  0  0  0  0  0
  190.8980  178.0580  143.6820 C   0  0  0  0  0  2  0  0  0  0  0  0
  190.2750  176.3690  142.0550 C   0  0  0  0  0  2  0  0  0  0  0  0
  189.9870  177.6730  141.4400 N   0  0  0  0  0  0  0  0  0  0  0  0
  191.1710  177.4930  142.2990 C   0  0  1  0  0  3  0  0  0  0  0  0
  190.4180  177.5950  140.1560 O   0  0  0  0  0  0  0  0  0  0  0  0
  188.9150  176.8070  138.2990 C   0  0  2  0  0  0  0  0  0  0  0  0
  188.2920  178.6590  139.8620 O   0  0  0  0  0  1  0  0  0  0  0  0
  189.6280  178.0900  137.9040 C   0  0  0  0  0  2  0  0  0  0  0  0
  189.2850  177.8140  139.3600 C   0  0  1  0  0  0  0  0  0  0  0  0
  189.6600  175.6460  138.2150 F   0  0  0  0  0  0  0  0  0  0  0  0
  187.5700  176.7680  137.9350 O   0  0  0  0  0  1  0  0  0  0  0  0
  1  3  1  0  0  0  0
  2 12  1  6  0  0  0
  2  7  1  0  0  0  0
  4 17  1  6  0  0  0
  4  6  1  0  0  0  0
  5  2  1  0  0  0  0
  6  1  1  1  0  0  0
  7  3  1  0  0  0  0
  8  5  1  1  0  0  0
  8  4  1  0  0  0  0
  8  6  1  0  0  0  0
 10 12  2  0  0  0  0
 11 16  1  0  0  0  0
 12  9  1  0  0  0  0
 13 11  2  0  0  0  0
 13 10  1  0  0  0  0
 14 10  1  0  0  0  0
 15 11  1  0  0  0  0
 16  9  2  0  0  0  0
 18 17  1  0  0  0  0
 19 21  1  0  0  0  0
 20 19  1  0  0  0  0
 20 21  1  0  0  0  0
 21 18  1  1  0  0  0
 22 20  1  0  0  0  0
 23 28  1  6  0  0  0
 23 26  1  0  0  0  0
 25 23  1  0  0  0  0
 25 26  1  0  0  0  0
 26 24  1  1  0  0  0
 26 22  1  0  0  0  0
 27 23  1  0  0  0  0
M  END
>  <MODEL>
2

>  <REMARK>
 VINA RESULT:      -9.0      2.597      6.069
  Name = 
  6 active torsions:
  status: ('A' for Active; 'I' for Inactive)
    1  A    between atoms: O_2  and  N_3
    2  A    between atoms: O_2  and  C_11
    3  A    between atoms: C_10  and  C_13
    4  A    between atoms: C_16  and  C_21
    5  A    between atoms: C_19  and  C_21
    6  A    between atoms: C_19  and  C_26
                            x       y       z     vdW  Elec       q    Type
                         _______ _______ _______ _____ _____    ______ ____

>  <TORSDO>
F 6

$$$$
=
 OpenBabel10262420503D

 28 32  0  0  1  0  0  0  0  0999 V2000
  188.2530  177.2860  147.3360 C   0  0  0  0  0  2  0  0  0  0  0  0
  186.3610  178.5630  145.2940 C   0  0  2  0  0  3  0  0  0  0  0  0
  187.2390  178.3720  147.6590 C   0  0  0  0  0  2  0  0  0  0  0  0
  189.4690  176.7530  145.2780 C   0  0  1  0  0  3  0  0  0  0  0  0
  187.3260  177.5230  144.7310 C   0  0  0  0  0  2  0  0  0  0  0  0
  189.2520  177.7820  146.2870 C   0  0  1  0  0  3  0  0  0  0  0  0
  186.0220  178.2540  146.7500 C   0  0  0  0  0  2  0  0  0  0  0  0
  188.7100  177.9590  144.9100 N   0  0  1  0  0  0  0  0  0  0  0  0
  183.8500  178.7770  145.0960 C   0  0  0  0  0  3  0  0  0  0  0  0
  185.1790  178.5990  143.0760 C   0  0  0  0  0  0  0  0  0  0  0  0
  182.7700  178.8080  142.9320 C   0  0  0  0  0  0  0  0  0  0  0  0
  185.1040  178.6330  144.4780 C   0  0  0  0  0  0  0  0  0  0  0  0
  184.0140  178.6820  142.3080 C   0  0  0  0  0  3  0  0  0  0  0  0
  186.3790  178.4920  142.4510 F   0  0  0  0  0  0  0  0  0  0  0  0
  181.6430  178.8880  142.1850 F   0  0  0  0  0  0  0  0  0  0  0  0
  182.6890  178.8610  144.3250 C   0  0  0  0  0  3  0  0  0  0  0  0
  190.8780  176.8570  144.7320 C   0  0  0  0  0  2  0  0  0  0  0  0
  190.9160  176.2700  143.3320 C   0  0  0  0  0  2  0  0  0  0  0  0
  191.8220  177.4710  141.4290 C   0  0  0  0  0  2  0  0  0  0  0  0
  190.6400  176.7440  140.9440 N   0  0  0  0  0  0  0  0  0  0  0  0
  190.6530  177.3430  142.2890 C   0  0  1  0  0  3  0  0  0  0  0  0
  189.9650  177.6030  140.1380 O   0  0  0  0  0  0  0  0  0  0  0  0
  189.4890  177.7380  137.6720 C   0  0  2  0  0  0  0  0  0  0  0  0
  190.4580  175.7050  138.7620 O   0  0  0  0  0  1  0  0  0  0  0  0
  188.4000  176.9550  138.3860 C   0  0  0  0  0  2  0  0  0  0  0  0
  189.8280  176.9430  138.9090 C   0  0  1  0  0  0  0  0  0  0  0  0
  189.4210  179.1140  137.7800 F   0  0  0  0  0  0  0  0  0  0  0  0
  189.8880  177.1810  136.4580 O   0  0  0  0  0  1  0  0  0  0  0  0
  1  3  1  0  0  0  0
  2 12  1  6  0  0  0
  2  7  1  0  0  0  0
  4 17  1  6  0  0  0
  4  6  1  0  0  0  0
  5  2  1  0  0  0  0
  6  1  1  1  0  0  0
  7  3  1  0  0  0  0
  8  5  1  1  0  0  0
  8  4  1  0  0  0  0
  8  6  1  0  0  0  0
 10 12  2  0  0  0  0
 11 16  1  0  0  0  0
 12  9  1  0  0  0  0
 13 11  2  0  0  0  0
 13 10  1  0  0  0  0
 14 10  1  0  0  0  0
 15 11  1  0  0  0  0
 16  9  2  0  0  0  0
 18 17  1  0  0  0  0
 19 21  1  0  0  0  0
 20 19  1  0  0  0  0
 20 21  1  0  0  0  0
 21 18  1  1  0  0  0
 22 20  1  0  0  0  0
 23 28  1  6  0  0  0
 23 27  1  0  0  0  0
 23 25  1  0  0  0  0
 23 26  1  0  0  0  0
 25 26  1  0  0  0  0
 26 24  1  6  0  0  0
 26 22  1  0  0  0  0
M  END
>  <MODEL>
3

>  <REMARK>
 VINA RESULT:      -8.8      3.034      6.268
  Name = 
  6 active torsions:
  status: ('A' for Active; 'I' for Inactive)
    1  A    between atoms: O_2  and  N_3
    2  A    between atoms: O_2  and  C_11
    3  A    between atoms: C_10  and  C_13
    4  A    between atoms: C_16  and  C_21
    5  A    between atoms: C_19  and  C_21
    6  A    between atoms: C_19  and  C_26
                            x       y       z     vdW  Elec       q    Type
                         _______ _______ _______ _____ _____    ______ ____

>  <TORSDO>
F 6

$$$$
=
 OpenBabel10262420503D

 28 32  0  0  1  0  0  0  0  0999 V2000
  189.1360  176.7730  147.0600 C   0  0  0  0  0  2  0  0  0  0  0  0
  186.9950  178.3200  145.5100 C   0  0  2  0  0  3  0  0  0  0  0  0
  188.0630  177.6390  147.7000 C   0  0  0  0  0  2  0  0  0  0  0  0
  190.2340  176.8900  144.8740 C   0  0  1  0  0  3  0  0  0  0  0  0
  187.9990  177.5530  144.6520 C   0  0  0  0  0  2  0  0  0  0  0  0
  190.0090  177.6110  146.1210 C   0  0  1  0  0  3  0  0  0  0  0  0
  186.7950  177.6280  146.8550 C   0  0  0  0  0  2  0  0  0  0  0  0
  189.3510  178.0670  144.8640 N   0  0  1  0  0  0  0  0  0  0  0  0
  185.5770  178.2560  143.4190 C   0  0  0  0  0  3  0  0  0  0  0  0
  184.5230  178.7690  145.5420 C   0  0  0  0  0  0  0  0  0  0  0  0
  183.2000  178.6950  143.5130 C   0  0  0  0  0  0  0  0  0  0  0  0
  185.6790  178.4640  144.8050 C   0  0  0  0  0  0  0  0  0  0  0  0
  183.2890  178.8880  144.8940 C   0  0  0  0  0  3  0  0  0  0  0  0
  184.5860  178.9440  146.8860 F   0  0  0  0  0  0  0  0  0  0  0  0
  182.0030  178.8120  142.8900 F   0  0  0  0  0  0  0  0  0  0  0  0
  184.3420  178.3750  142.7770 C   0  0  0  0  0  3  0  0  0  0  0  0
  191.5840  177.2660  144.2990 C   0  0  0  0  0  2  0  0  0  0  0  0
  191.7360  176.6350  142.9260 C   0  0  0  0  0  2  0  0  0  0  0  0
  192.0810  177.5770  140.7170 C   0  0  0  0  0  2  0  0  0  0  0  0
  190.8640  176.7550  140.6400 N   0  0  0  0  0  0  0  0  0  0  0  0
  191.1640  177.5410  141.8490 C   0  0  1  0  0  3  0  0  0  0  0  0
  189.9630  177.4710  139.9200 O   0  0  0  0  0  0  0  0  0  0  0  0
  189.5230  177.5820  137.4460 C   0  0  2  0  0  0  0  0  0  0  0  0
  190.4410  175.5470  138.5750 O   0  0  0  0  0  1  0  0  0  0  0  0
  188.4110  176.8280  138.1550 C   0  0  0  0  0  2  0  0  0  0  0  0
  189.8320  176.7970  138.6980 C   0  0  1  0  0  0  0  0  0  0  0  0
  189.4780  178.9610  137.5350 F   0  0  0  0  0  0  0  0  0  0  0  0
  189.9290  177.0020  136.2450 O   0  0  0  0  0  1  0  0  0  0  0  0
  1  3  1  0  0  0  0
  2 12  1  6  0  0  0
  2  7  1  0  0  0  0
  4 17  1  6  0  0  0
  4  6  1  0  0  0  0
  5  2  1  0  0  0  0
  6  1  1  1  0  0  0
  7  3  1  0  0  0  0
  8  5  1  1  0  0  0
  8  4  1  0  0  0  0
  8  6  1  0  0  0  0
  9 12  1  0  0  0  0
 10 14  1  0  0  0  0
 11 13  2  0  0  0  0
 12 10  2  0  0  0  0
 13 10  1  0  0  0  0
 15 11  1  0  0  0  0
 16  9  2  0  0  0  0
 16 11  1  0  0  0  0
 18 17  1  0  0  0  0
 19 21  1  0  0  0  0
 20 19  1  0  0  0  0
 20 21  1  0  0  0  0
 21 18  1  1  0  0  0
 22 20  1  0  0  0  0
 23 28  1  6  0  0  0
 23 27  1  0  0  0  0
 23 25  1  0  0  0  0
 23 26  1  0  0  0  0
 25 26  1  0  0  0  0
 26 24  1  6  0  0  0
 26 22  1  0  0  0  0
M  END
>  <MODEL>
4

>  <REMARK>
 VINA RESULT:      -8.7      3.321      6.424
  Name = 
  6 active torsions:
  status: ('A' for Active; 'I' for Inactive)
    1  A    between atoms: O_2  and  N_3
    2  A    between atoms: O_2  and  C_11
    3  A    between atoms: C_10  and  C_13
    4  A    between atoms: C_16  and  C_21
    5  A    between atoms: C_19  and  C_21
    6  A    between atoms: C_19  and  C_26
                            x       y       z     vdW  Elec       q    Type
                         _______ _______ _______ _____ _____    ______ ____

>  <TORSDO>
F 6

$$$$
=
 OpenBabel10262420503D

 28 32  0  0  1  0  0  0  0  0999 V2000
  183.9800  179.4330  144.4010 C   0  0  0  0  0  2  0  0  0  0  0  0
  186.4670  177.6570  144.5990 C   0  0  2  0  0  3  0  0  0  0  0  0
  184.3640  178.6180  145.6260 C   0  0  0  0  0  2  0  0  0  0  0  0
  184.4180  179.0920  142.0150 C   0  0  1  0  0  3  0  0  0  0  0  0
  186.2600  178.3460  143.2530 C   0  0  0  0  0  2  0  0  0  0  0  0
  183.7770  178.5160  143.1910 C   0  0  1  0  0  3  0  0  0  0  0  0
  185.8790  178.4950  145.7310 C   0  0  0  0  0  2  0  0  0  0  0  0
  185.0130  177.8980  142.6340 N   0  0  1  0  0  0  0  0  0  0  0  0
  188.5130  177.7520  146.0790 C   0  0  0  0  0  3  0  0  0  0  0  0
  188.6960  176.7450  143.8810 C   0  0  0  0  0  0  0  0  0  0  0  0
  190.6320  176.8550  145.3330 C   0  0  0  0  0  0  0  0  0  0  0  0
  187.9220  177.3940  144.8560 C   0  0  0  0  0  0  0  0  0  0  0  0
  190.0480  176.4810  144.1200 C   0  0  0  0  0  3  0  0  0  0  0  0
  188.1440  176.3610  142.7020 F   0  0  0  0  0  0  0  0  0  0  0  0
  191.9430  176.5980  145.5610 F   0  0  0  0  0  0  0  0  0  0  0  0
  189.8640  177.4850  146.3140 C   0  0  0  0  0  3  0  0  0  0  0  0
  183.6590  178.6890  140.7670 C   0  0  0  0  0  2  0  0  0  0  0  0
  184.4400  179.1350  139.5430 C   0  0  0  0  0  2  0  0  0  0  0  0
  185.5300  178.0650  137.6580 C   0  0  0  0  0  2  0  0  0  0  0  0
  186.5930  178.6840  138.4640 N   0  0  0  0  0  0  0  0  0  0  0  0
  185.4250  178.0620  139.1120 C   0  0  1  0  0  3  0  0  0  0  0  0
  187.6040  177.7810  138.5250 O   0  0  0  0  0  0  0  0  0  0  0  0
  188.8290  177.2790  136.3860 C   0  0  2  0  0  0  0  0  0  0  0  0
  188.7910  179.5520  137.4320 O   0  0  0  0  0  1  0  0  0  0  0  0
  189.7950  177.3340  137.5570 C   0  0  0  0  0  2  0  0  0  0  0  0
  188.5340  178.1850  137.5570 C   0  0  1  0  0  0  0  0  0  0  0  0
  188.0900  176.1170  136.2590 F   0  0  0  0  0  0  0  0  0  0  0  0
  189.2960  177.9050  135.2320 O   0  0  0  0  0  1  0  0  0  0  0  0
  1  3  1  0  0  0  0
  2 12  1  1  0  0  0
  2  7  1  0  0  0  0
  3  7  1  0  0  0  0
  4 17  1  6  0  0  0
  4  8  1  0  0  0  0
  4  6  1  0  0  0  0
  5  2  1  0  0  0  0
  6  1  1  1  0  0  0
  8  6  1  0  0  0  0
  8  5  1  1  0  0  0
  9 16  1  0  0  0  0
 10 13  2  0  0  0  0
 10 12  1  0  0  0  0
 11 15  1  0  0  0  0
 11 16  2  0  0  0  0
 12  9  2  0  0  0  0
 13 11  1  0  0  0  0
 14 10  1  0  0  0  0
 18 17  1  0  0  0  0
 19 20  1  0  0  0  0
 19 21  1  0  0  0  0
 20 22  1  0  0  0  0
 20 21  1  0  0  0  0
 21 18  1  6  0  0  0
 23 28  1  6  0  0  0
 23 26  1  0  0  0  0
 23 25  1  0  0  0  0
 26 24  1  6  0  0  0
 26 25  1  0  0  0  0
 26 22  1  0  0  0  0
 27 23  1  0  0  0  0
M  END
>  <MODEL>
5

>  <REMARK>
 VINA RESULT:      -8.5      3.038      4.575
  Name = 
  6 active torsions:
  status: ('A' for Active; 'I' for Inactive)
    1  A    between atoms: O_2  and  N_3
    2  A    between atoms: O_2  and  C_11
    3  A    between atoms: C_10  and  C_13
    4  A    between atoms: C_16  and  C_21
    5  A    between atoms: C_19  and  C_21
    6  A    between atoms: C_19  and  C_26
                            x       y       z     vdW  Elec       q    Type
                         _______ _______ _______ _____ _____    ______ ____

>  <TORSDO>
F 6

$$$$
=
 OpenBabel10262420503D

 28 32  0  0  1  0  0  0  0  0999 V2000
  188.8620  177.8790  147.7800 C   0  0  0  0  0  2  0  0  0  0  0  0
  189.3910  176.9900  144.8970 C   0  0  2  0  0  3  0  0  0  0  0  0
  189.8400  176.7850  147.3790 C   0  0  0  0  0  2  0  0  0  0  0  0
  186.8040  178.6900  146.7280 C   0  0  1  0  0  3  0  0  0  0  0  0
  188.3320  178.0770  145.0630 C   0  0  0  0  0  2  0  0  0  0  0  0
  187.4450  177.5230  147.3230 C   0  0  1  0  0  3  0  0  0  0  0  0
  190.4350  177.0780  146.0070 C   0  0  0  0  0  2  0  0  0  0  0  0
  187.2070  177.5780  145.8530 N   0  0  1  0  0  0  0  0  0  0  0  0
  191.4110  177.4450  143.4480 C   0  0  0  0  0  3  0  0  0  0  0  0
  189.3360  176.7630  142.3950 C   0  0  0  0  0  0  0  0  0  0  0  0
  191.2970  177.2080  141.0440 C   0  0  0  0  0  0  0  0  0  0  0  0
  190.0580  177.0830  143.5560 C   0  0  0  0  0  0  0  0  0  0  0  0
  189.9550  176.8310  141.1430 C   0  0  0  0  0  3  0  0  0  0  0  0
  188.0360  176.3800  142.4720 F   0  0  0  0  0  0  0  0  0  0  0  0
  191.8940  177.2720  139.8290 F   0  0  0  0  0  0  0  0  0  0  0  0
  192.0260  177.5090  142.1960 C   0  0  0  0  0  3  0  0  0  0  0  0
  185.3090  178.6320  146.9640 C   0  0  0  0  0  2  0  0  0  0  0  0
  184.6290  178.0820  145.7220 C   0  0  0  0  0  2  0  0  0  0  0  0
  184.3280  179.0660  143.5260 C   0  0  0  0  0  2  0  0  0  0  0  0
  182.9990  178.6270  143.9770 N   0  0  0  0  0  0  0  0  0  0  0  0
  183.9660  179.1960  144.9310 C   0  0  1  0  0  3  0  0  0  0  0  0
  182.1360  179.6230  143.6520 O   0  0  0  0  0  0  0  0  0  0  0  0
  180.9090  178.6430  141.6870 C   0  0  2  0  0  0  0  0  0  0  0  0
  180.1990  178.2730  144.0570 O   0  0  0  0  0  1  0  0  0  0  0  0
  180.1830  179.8690  142.2150 C   0  0  0  0  0  2  0  0  0  0  0  0
  180.9910  178.9860  143.1550 C   0  0  1  0  0  0  0  0  0  0  0  0
  182.0190  178.8830  140.8990 F   0  0  0  0  0  0  0  0  0  0  0  0
  180.0680  177.5830  141.3530 O   0  0  0  0  0  1  0  0  0  0  0  0
  2 12  1  6  0  0  0
  2  5  1  0  0  0  0
  2  7  1  0  0  0  0
  3  1  1  0  0  0  0
  4 17  1  1  0  0  0
  4  6  1  0  0  0  0
  6  1  1  6  0  0  0
  7  3  1  0  0  0  0
  8  5  1  6  0  0  0
  8  4  1  0  0  0  0
  8  6  1  0  0  0  0
  9 12  1  0  0  0  0
 10 14  1  0  0  0  0
 10 12  2  0  0  0  0
 11 13  2  0  0  0  0
 11 16  1  0  0  0  0
 13 10  1  0  0  0  0
 15 11  1  0  0  0  0
 16  9  2  0  0  0  0
 18 17  1  0  0  0  0
 19 20  1  0  0  0  0
 19 21  1  0  0  0  0
 20 21  1  0  0  0  0
 21 18  1  1  0  0  0
 22 20  1  0  0  0  0
 23 27  1  6  0  0  0
 23 25  1  0  0  0  0
 23 26  1  0  0  0  0
 25 26  1  0  0  0  0
 26 22  1  0  0  0  0
 26 24  1  1  0  0  0
 28 23  1  0  0  0  0
M  END
>  <MODEL>
6

>  <REMARK>
 VINA RESULT:      -8.4      2.129      2.593
  Name = 
  6 active torsions:
  status: ('A' for Active; 'I' for Inactive)
    1  A    between atoms: O_2  and  N_3
    2  A    between atoms: O_2  and  C_11
    3  A    between atoms: C_10  and  C_13
    4  A    between atoms: C_16  and  C_21
    5  A    between atoms: C_19  and  C_21
    6  A    between atoms: C_19  and  C_26
                            x       y       z     vdW  Elec       q    Type
                         _______ _______ _______ _____ _____    ______ ____

>  <TORSDO>
F 6

$$$$
=
 OpenBabel10262420503D

 28 32  0  0  1  0  0  0  0  0999 V2000
  183.9280  179.6610  144.2460 C   0  0  0  0  0  2  0  0  0  0  0  0
  186.3220  177.8540  144.8660 C   0  0  2  0  0  3  0  0  0  0  0  0
  184.1860  179.0010  145.5920 C   0  0  0  0  0  2  0  0  0  0  0  0
  184.5320  179.0030  141.9660 C   0  0  1  0  0  3  0  0  0  0  0  0
  186.2450  178.3690  143.4320 C   0  0  0  0  0  2  0  0  0  0  0  0
  183.7820  178.6020  143.1500 C   0  0  1  0  0  3  0  0  0  0  0  0
  185.6830  178.8470  145.8330 C   0  0  0  0  0  2  0  0  0  0  0  0
  185.0320  177.8810  142.7770 N   0  0  1  0  0  0  0  0  0  0  0  0
  188.7620  177.5060  144.3080 C   0  0  0  0  0  3  0  0  0  0  0  0
  188.0660  177.4500  146.6300 C   0  0  0  0  0  0  0  0  0  0  0  0
  190.3960  177.1240  146.0500 C   0  0  0  0  0  0  0  0  0  0  0  0
  187.7410  177.5840  145.2700 C   0  0  0  0  0  0  0  0  0  0  0  0
  189.3890  177.2160  147.0150 C   0  0  0  0  0  3  0  0  0  0  0  0
  187.1060  177.5510  147.5840 F   0  0  0  0  0  0  0  0  0  0  0  0
  191.6770  176.8970  146.4280 F   0  0  0  0  0  0  0  0  0  0  0  0
  190.0830  177.2740  144.6980 C   0  0  0  0  0  3  0  0  0  0  0  0
  183.8550  178.4640  140.7220 C   0  0  0  0  0  2  0  0  0  0  0  0
  184.5830  178.9820  139.4940 C   0  0  0  0  0  2  0  0  0  0  0  0
  185.8320  178.1960  137.5680 C   0  0  0  0  0  2  0  0  0  0  0  0
  186.8220  178.6260  138.5670 N   0  0  0  0  0  0  0  0  0  0  0  0
  185.5780  177.9550  138.9830 C   0  0  1  0  0  3  0  0  0  0  0  0
  187.7970  177.6820  138.5700 O   0  0  0  0  0  0  0  0  0  0  0  0
  188.9770  177.2230  136.3970 C   0  0  2  0  0  0  0  0  0  0  0  0
  189.0260  179.4540  137.5270 O   0  0  0  0  0  1  0  0  0  0  0  0
  189.9600  177.2030  137.5550 C   0  0  0  0  0  2  0  0  0  0  0  0
  188.7270  178.0920  137.6050 C   0  0  1  0  0  0  0  0  0  0  0  0
  188.2000  176.0900  136.2370 F   0  0  0  0  0  0  0  0  0  0  0  0
  189.4490  177.8770  135.2600 O   0  0  0  0  0  1  0  0  0  0  0  0
  1  3  1  0  0  0  0
  2 12  1  1  0  0  0
  2  7  1  0  0  0  0
  3  7  1  0  0  0  0
  4 17  1  6  0  0  0
  4  8  1  0  0  0  0
  4  6  1  0  0  0  0
  5  2  1  0  0  0  0
  6  1  1  1  0  0  0
  8  6  1  0  0  0  0
  8  5  1  1  0  0  0
  9 16  2  0  0  0  0
  9 12  1  0  0  0  0
 10 13  1  0  0  0  0
 10 14  1  0  0  0  0
 11 15  1  0  0  0  0
 11 13  2  0  0  0  0
 12 10  2  0  0  0  0
 16 11  1  0  0  0  0
 18 17  1  0  0  0  0
 19 20  1  0  0  0  0
 19 21  1  0  0  0  0
 20 22  1  0  0  0  0
 20 21  1  0  0  0  0
 21 18  1  1  0  0  0
 23 28  1  6  0  0  0
 23 25  1  0  0  0  0
 23 26  1  0  0  0  0
 25 26  1  0  0  0  0
 26 24  1  6  0  0  0
 26 22  1  0  0  0  0
 27 23  1  0  0  0  0
M  END
>  <MODEL>
7

>  <REMARK>
 VINA RESULT:      -8.3      3.238      4.914
  Name = 
  6 active torsions:
  status: ('A' for Active; 'I' for Inactive)
    1  A    between atoms: O_2  and  N_3
    2  A    between atoms: O_2  and  C_11
    3  A    between atoms: C_10  and  C_13
    4  A    between atoms: C_16  and  C_21
    5  A    between atoms: C_19  and  C_21
    6  A    between atoms: C_19  and  C_26
                            x       y       z     vdW  Elec       q    Type
                         _______ _______ _______ _____ _____    ______ ____

>  <TORSDO>
F 6

$$$$
=
 OpenBabel10262420503D

 28 32  0  0  1  0  0  0  0  0999 V2000
  184.8810  178.0980  146.5590 C   0  0  0  0  0  2  0  0  0  0  0  0
  184.9980  178.8240  143.5850 C   0  0  2  0  0  3  0  0  0  0  0  0
  183.9100  179.0380  145.8600 C   0  0  0  0  0  2  0  0  0  0  0  0
  187.2230  177.5430  146.1040 C   0  0  1  0  0  3  0  0  0  0  0  0
  186.1060  177.8960  144.0770 C   0  0  0  0  0  2  0  0  0  0  0  0
  186.3130  178.6290  146.4470 C   0  0  1  0  0  3  0  0  0  0  0  0
  183.7250  178.6280  144.4040 C   0  0  0  0  0  2  0  0  0  0  0  0
  186.9230  178.5640  145.0890 N   0  0  1  0  0  0  0  0  0  0  0  0
  183.4530  178.1490  141.7030 C   0  0  0  0  0  3  0  0  0  0  0  0
  185.6980  178.8940  141.1730 C   0  0  0  0  0  0  0  0  0  0  0  0
  184.1830  178.2390  139.3990 C   0  0  0  0  0  0  0  0  0  0  0  0
  184.7120  178.6030  142.1290 C   0  0  0  0  0  0  0  0  0  0  0  0
  185.4330  178.7060  139.8130 C   0  0  0  0  0  3  0  0  0  0  0  0
  186.9140  179.3630  141.5530 F   0  0  0  0  0  0  0  0  0  0  0  0
  183.9300  178.0590  138.0800 F   0  0  0  0  0  0  0  0  0  0  0  0
  183.1920  177.9650  140.3440 C   0  0  0  0  0  3  0  0  0  0  0  0
  188.5900  177.8090  146.7010 C   0  0  0  0  0  2  0  0  0  0  0  0
  189.6390  177.0560  145.9010 C   0  0  0  0  0  2  0  0  0  0  0  0
  191.6600  177.8540  144.8230 C   0  0  0  0  0  2  0  0  0  0  0  0
  190.9120  177.0970  143.8080 N   0  0  0  0  0  0  0  0  0  0  0  0
  190.2050  177.9310  144.7960 C   0  0  1  0  0  3  0  0  0  0  0  0
  190.9820  177.8200  142.6620 O   0  0  0  0  0  0  0  0  0  0  0  0
  190.9400  177.0870  140.2560 C   0  0  2  0  0  0  0  0  0  0  0  0
  189.7380  175.8580  142.0740 O   0  0  0  0  0  1  0  0  0  0  0  0
  189.6550  177.8110  140.6180 C   0  0  0  0  0  2  0  0  0  0  0  0
  190.4120  177.0120  141.6680 C   0  0  1  0  0  0  0  0  0  0  0  0
  192.0430  177.8860  140.0140 F   0  0  0  0  0  0  0  0  0  0  0  0
  190.7530  175.9500  139.4720 O   0  0  0  0  0  1  0  0  0  0  0  0
  2 12  1  6  0  0  0
  2  5  1  0  0  0  0
  2  7  1  0  0  0  0
  3  1  1  0  0  0  0
  4  6  1  0  0  0  0
  4 17  1  1  0  0  0
  6  1  1  6  0  0  0
  7  3  1  0  0  0  0
  8  5  1  6  0  0  0
  8  4  1  0  0  0  0
  8  6  1  0  0  0  0
  9 12  1  0  0  0  0
 10 14  1  0  0  0  0
 10 12  2  0  0  0  0
 11 13  2  0  0  0  0
 11 16  1  0  0  0  0
 13 10  1  0  0  0  0
 15 11  1  0  0  0  0
 16  9  2  0  0  0  0
 18 17  1  0  0  0  0
 20 21  1  0  0  0  0
 20 19  1  0  0  0  0
 21 19  1  0  0  0  0
 21 18  1  1  0  0  0
 22 20  1  0  0  0  0
 23 28  1  6  0  0  0
 23 25  1  0  0  0  0
 23 26  1  0  0  0  0
 25 26  1  0  0  0  0
 26 24  1  1  0  0  0
 26 22  1  0  0  0  0
 27 23  1  0  0  0  0
M  END
>  <MODEL>
8

>  <REMARK>
 VINA RESULT:      -8.2      2.737      6.375
  Name = 
  6 active torsions:
  status: ('A' for Active; 'I' for Inactive)
    1  A    between atoms: O_2  and  N_3
    2  A    between atoms: O_2  and  C_11
    3  A    between atoms: C_10  and  C_13
    4  A    between atoms: C_16  and  C_21
    5  A    between atoms: C_19  and  C_21
    6  A    between atoms: C_19  and  C_26
                            x       y       z     vdW  Elec       q    Type
                         _______ _______ _______ _____ _____    ______ ____

>  <TORSDO>
F 6

$$$$
=
 OpenBabel10262420503D

 28 32  0  0  1  0  0  0  0  0999 V2000
  183.8690  179.4490  144.7820 C   0  0  0  0  0  2  0  0  0  0  0  0
  186.3830  177.7040  144.6810 C   0  0  2  0  0  3  0  0  0  0  0  0
  184.4290  178.6720  145.9630 C   0  0  0  0  0  2  0  0  0  0  0  0
  183.9790  179.0470  142.3680 C   0  0  1  0  0  3  0  0  0  0  0  0
  185.9840  178.3540  143.3590 C   0  0  0  0  0  2  0  0  0  0  0  0
  183.5140  178.4970  143.6360 C   0  0  1  0  0  3  0  0  0  0  0  0
  185.9450  178.5670  145.8610 C   0  0  0  0  0  2  0  0  0  0  0  0
  184.6700  177.8760  142.9300 N   0  0  1  0  0  0  0  0  0  0  0  0
  188.5930  177.7500  145.9070 C   0  0  0  0  0  3  0  0  0  0  0  0
  188.5240  176.9040  143.6360 C   0  0  0  0  0  0  0  0  0  0  0  0
  190.6210  176.9640  144.8490 C   0  0  0  0  0  0  0  0  0  0  0  0
  187.8630  177.4630  144.7410 C   0  0  0  0  0  0  0  0  0  0  0  0
  189.9000  176.6610  143.6910 C   0  0  0  0  0  3  0  0  0  0  0  0
  187.8390  176.5880  142.5080 F   0  0  0  0  0  0  0  0  0  0  0  0
  191.9540  176.7270  144.8980 F   0  0  0  0  0  0  0  0  0  0  0  0
  189.9670  177.5040  145.9580 C   0  0  0  0  0  3  0  0  0  0  0  0
  183.0610  178.6030  141.2480 C   0  0  0  0  0  2  0  0  0  0  0  0
  183.6420  179.0530  139.9190 C   0  0  0  0  0  2  0  0  0  0  0  0
  184.0140  177.8860  137.8250 C   0  0  0  0  0  2  0  0  0  0  0  0
  185.3120  178.4460  138.2320 N   0  0  0  0  0  0  0  0  0  0  0  0
  184.3760  177.9120  139.2370 C   0  0  1  0  0  3  0  0  0  0  0  0
  186.2360  177.4800  138.0020 O   0  0  0  0  0  0  0  0  0  0  0  0
  188.1540  178.7220  136.9510 C   0  0  2  0  0  0  0  0  0  0  0  0
  187.8370  178.5520  139.4270 O   0  0  0  0  0  1  0  0  0  0  0  0
  188.6050  177.3580  137.4460 C   0  0  0  0  0  2  0  0  0  0  0  0
  187.4830  178.1030  138.1520 C   0  0  1  0  0  0  0  0  0  0  0  0
  187.4620  178.7380  135.7540 F   0  0  0  0  0  0  0  0  0  0  0  0
  189.0550  179.7510  137.2160 O   0  0  0  0  0  1  0  0  0  0  0  0
  1  3  1  0  0  0  0
  2 12  1  6  0  0  0
  2  7  1  0  0  0  0
  4 17  1  6  0  0  0
  4  8  1  0  0  0  0
  4  6  1  0  0  0  0
  5  2  1  0  0  0  0
  6  1  1  1  0  0  0
  7  3  1  0  0  0  0
  8  5  1  1  0  0  0
  8  6  1  0  0  0  0
  9 16  1  0  0  0  0
 10 13  2  0  0  0  0
 10 12  1  0  0  0  0
 11 15  1  0  0  0  0
 11 16  2  0  0  0  0
 12  9  2  0  0  0  0
 13 11  1  0  0  0  0
 14 10  1  0  0  0  0
 18 17  1  0  0  0  0
 19 20  1  0  0  0  0
 19 21  1  0  0  0  0
 20 21  1  0  0  0  0
 21 18  1  1  0  0  0
 22 26  1  0  0  0  0
 22 20  1  0  0  0  0
 23 27  1  6  0  0  0
 23 28  1  0  0  0  0
 23 25  1  0  0  0  0
 23 26  1  0  0  0  0
 25 26  1  0  0  0  0
 26 24  1  1  0  0  0
M  END
>  <MODEL>
9

>  <REMARK>
 VINA RESULT:      -8.2      2.654      4.026
  Name = 
  6 active torsions:
  status: ('A' for Active; 'I' for Inactive)
    1  A    between atoms: O_2  and  N_3
    2  A    between atoms: O_2  and  C_11
    3  A    between atoms: C_10  and  C_13
    4  A    between atoms: C_16  and  C_21
    5  A    between atoms: C_19  and  C_21
    6  A    between atoms: C_19  and  C_26
                            x       y       z     vdW  Elec       q    Type
                         _______ _______ _______ _____ _____    ______ ____

>  <TORSDO>
F 6

$$$$
