=
 OpenBabel10262421403D

 32 33  0  0  1  0  0  0  0  0999 V2000
  185.6300  179.0640  141.4760 C   0  0  2  0  0  3  0  0  0  0  0  0
  183.6610  178.7510  143.1850 C   0  0  0  0  0  2  0  0  0  0  0  0
  185.1340  178.5900  142.8490 C   0  0  0  0  0  0  0  0  0  0  0  0
  184.6830  179.7220  143.7520 C   0  0  0  0  0  2  0  0  0  0  0  0
  185.8640  177.6180  143.5610 O   0  0  0  0  0  0  0  0  0  0  0  0
  185.9630  178.0760  144.8810 C   0  0  0  0  0  2  0  0  0  0  0  0
  187.3550  177.8190  145.4170 C   0  0  0  0  0  2  0  0  0  0  0  0
  187.2580  177.5510  146.9070 C   0  0  0  0  0  2  0  0  0  0  0  0
  188.6150  177.1720  147.4750 C   0  0  2  0  0  3  0  0  0  0  0  0
  189.1220  178.2840  148.3790 C   0  0  0  0  0  1  0  0  0  0  0  0
  189.5890  176.9600  146.3200 C   0  0  0  0  0  2  0  0  0  0  0  0
  191.0530  177.0540  146.7500 C   0  0  1  0  0  3  0  0  0  0  0  0
  191.5530  175.7370  147.3150 C   0  0  0  0  0  1  0  0  0  0  0  0
  191.8600  177.4570  145.6840 O   0  0  0  0  0  0  0  0  0  0  0  0
  190.9730  177.7310  144.6410 C   0  0  0  0  0  2  0  0  0  0  0  0
  191.4330  178.9720  143.9090 C   0  0  0  0  0  1  0  0  0  0  0  0
  184.5980  178.9010  140.3990 C   0  0  0  0  0  0  0  0  0  0  0  0
  184.1770  177.6940  140.1400 N   0  0  0  0  0  0  0  0  0  0  0  0
  184.1870  180.0590  139.6460 N   0  0  0  0  0  2  0  0  0  0  0  0
  182.1100  176.4910  139.7710 C   0  0  0  0  0  2  0  0  0  0  0  0
  183.8240  176.3600  138.1550 C   0  0  1  0  0  3  0  0  0  0  0  0
  183.0430  175.1300  138.1700 N   0  0  0  0  0  2  0  0  0  0  0  0
  181.8430  175.3920  138.8590 N   0  0  0  0  0  2  0  0  0  0  0  0
  183.7940  176.9660  136.7680 C   0  0  0  0  0  1  0  0  0  0  0  0
  183.1970  177.3100  139.1370 C   0  0  2  0  0  3  0  0  0  0  0  0
  183.3420  180.0800  138.4630 C   0  0  0  0  0  2  0  0  0  0  0  0
  182.1120  180.9170  138.7350 C   0  0  0  0  0  1  0  0  0  0  0  0
  186.9990  178.4910  141.0960 C   0  0  0  0  0  2  0  0  0  0  0  0
  187.2350  178.6150  139.7230 O   0  0  0  0  0  0  0  0  0  0  0  0
  188.5200  178.1030  139.5410 C   0  0  0  0  0  2  0  0  0  0  0  0
  189.1000  178.6220  138.2430 C   0  0  0  0  0  2  0  0  0  0  0  0
  189.9790  177.6800  137.7050 O   0  0  0  0  0  1  0  0  0  0  0  0
  1 28  1  6  0  0  0
  1  3  1  0  0  0  0
  2  4  1  0  0  0  0
  3  2  1  0  0  0  0
  3  5  1  0  0  0  0
  3  4  1  0  0  0  0
  5  6  1  0  0  0  0
  6  7  1  0  0  0  0
  7  8  1  0  0  0  0
  8  9  1  0  0  0  0
  9 10  1  1  0  0  0
 11 12  1  0  0  0  0
 11  9  1  0  0  0  0
 12 13  1  6  0  0  0
 14 12  1  0  0  0  0
 15 14  1  0  0  0  0
 16 15  1  0  0  0  0
 17  1  1  0  0  0  0
 18 17  2  0  0  0  0
 19 17  1  0  0  0  0
 21 24  1  6  0  0  0
 21 22  1  0  0  0  0
 21 25  1  0  0  0  0
 22 23  1  0  0  0  0
 23 20  1  0  0  0  0
 25 20  1  0  0  0  0
 25 18  1  1  0  0  0
 26 27  1  0  0  0  0
 26 19  1  0  0  0  0
 29 28  1  0  0  0  0
 30 29  1  0  0  0  0
 31 30  1  0  0  0  0
 32 31  1  0  0  0  0
M  END
>  <MODEL>
1

>  <REMARK>
 VINA RESULT:      -6.5      0.000      0.000
  Name = 
  17 active torsions:
  status: ('A' for Active; 'I' for Inactive)
    1  A    between atoms: C_1  and  O_20
    2  A    between atoms: C_2  and  C_9
    3  A    between atoms: C_2  and  C_23
    4  A    between atoms: C_4  and  C_5
    5  A    between atoms: C_4  and  O_13
    6  A    between atoms: C_6  and  N_31
    7  A    between atoms: C_8  and  C_23
    8  A    between atoms: C_8  and  O_28
    9  A    between atoms: C_9  and  C_10
   10  A    between atoms: C_10  and  C_19
   11  A    between atoms: O_13  and  C_15
   12  A    between atoms: C_14  and  C_26
   13  A    between atoms: C_14  and  O_28
   14  A    between atoms: C_15  and  C_26
   15  A    between atoms: C_16  and  C_26
   16  A    between atoms: C_19  and  O_20
   17  A    between atoms: N_27  and  C_32
                            x       y       z     vdW  Elec       q    Type
                         _______ _______ _______ _____ _____    ______ ____

>  <TORSDO>
F 17

$$$$
=
 OpenBabel10262421403D

 32 33  0  0  1  0  0  0  0  0999 V2000
  184.7820  179.1070  141.7410 C   0  0  2  0  0  3  0  0  0  0  0  0
  183.0620  178.8280  143.7060 C   0  0  0  0  0  2  0  0  0  0  0  0
  184.4940  178.7490  143.2060 C   0  0  0  0  0  0  0  0  0  0  0  0
  184.0480  179.9340  144.0410 C   0  0  0  0  0  2  0  0  0  0  0  0
  185.3890  177.9230  143.9150 O   0  0  0  0  0  0  0  0  0  0  0  0
  185.4430  178.4190  145.2240 C   0  0  0  0  0  2  0  0  0  0  0  0
  186.5040  177.6840  146.0140 C   0  0  0  0  0  2  0  0  0  0  0  0
  187.6600  177.3600  145.0870 C   0  0  0  0  0  2  0  0  0  0  0  0
  188.9590  177.2450  145.8660 C   0  0  2  0  0  3  0  0  0  0  0  0
  188.7380  177.6900  147.3030 C   0  0  0  0  0  1  0  0  0  0  0  0
  190.0090  178.1320  145.2050 C   0  0  0  0  0  2  0  0  0  0  0  0
  191.2050  177.3440  144.6710 C   0  0  1  0  0  3  0  0  0  0  0  0
  191.7390  176.3730  145.7080 C   0  0  0  0  0  1  0  0  0  0  0  0
  190.8690  176.6600  143.5010 O   0  0  0  0  0  0  0  0  0  0  0  0
  191.5710  177.3130  142.4850 C   0  0  0  0  0  2  0  0  0  0  0  0
  190.8220  177.1550  141.1810 C   0  0  0  0  0  1  0  0  0  0  0  0
  183.7080  178.6310  140.8070 C   0  0  0  0  0  0  0  0  0  0  0  0
  182.9040  179.5250  140.3030 N   0  0  0  0  0  0  0  0  0  0  0  0
  183.5600  177.2160  140.5790 N   0  0  0  0  0  2  0  0  0  0  0  0
  182.0000  180.0560  138.1220 C   0  0  0  0  0  2  0  0  0  0  0  0
  180.5360  179.8740  139.9630 C   0  0  1  0  0  3  0  0  0  0  0  0
  180.0200  180.8330  138.9940 N   0  0  0  0  0  2  0  0  0  0  0  0
  180.7100  180.6330  137.7830 N   0  0  0  0  0  2  0  0  0  0  0  0
  179.5160  178.7800  140.1890 C   0  0  0  0  0  1  0  0  0  0  0  0
  181.7950  179.2840  139.3930 C   0  0  2  0  0  3  0  0  0  0  0  0
  182.4850  176.5540  139.8580 C   0  0  0  0  0  2  0  0  0  0  0  0
  183.0570  175.7980  138.6790 C   0  0  0  0  0  1  0  0  0  0  0  0
  186.1940  178.7180  141.2900 C   0  0  0  0  0  2  0  0  0  0  0  0
  186.3220  178.8080  139.9000 O   0  0  0  0  0  0  0  0  0  0  0  0
  187.5380  178.1850  139.6200 C   0  0  0  0  0  2  0  0  0  0  0  0
  187.7400  178.1020  138.1220 C   0  0  0  0  0  2  0  0  0  0  0  0
  186.7540  178.8420  137.4680 O   0  0  0  0  0  1  0  0  0  0  0  0
  1 28  1  6  0  0  0
  1  3  1  0  0  0  0
  2  4  1  0  0  0  0
  3  2  1  0  0  0  0
  3  5  1  0  0  0  0
  3  4  1  0  0  0  0
  5  6  1  0  0  0  0
  6  7  1  0  0  0  0
  8  9  1  0  0  0  0
  8  7  1  0  0  0  0
  9 10  1  1  0  0  0
 11  9  1  0  0  0  0
 12 11  1  0  0  0  0
 12 13  1  1  0  0  0
 14 12  1  0  0  0  0
 15 14  1  0  0  0  0
 16 15  1  0  0  0  0
 17  1  1  0  0  0  0
 18 17  2  0  0  0  0
 19 17  1  0  0  0  0
 20 25  1  0  0  0  0
 21 24  1  6  0  0  0
 22 21  1  0  0  0  0
 23 20  1  0  0  0  0
 23 22  1  0  0  0  0
 25 21  1  0  0  0  0
 25 18  1  1  0  0  0
 26 19  1  0  0  0  0
 27 26  1  0  0  0  0
 29 28  1  0  0  0  0
 30 29  1  0  0  0  0
 31 30  1  0  0  0  0
 32 31  1  0  0  0  0
M  END
>  <MODEL>
2

>  <REMARK>
 VINA RESULT:      -6.2      1.776      2.920
  Name = 
  17 active torsions:
  status: ('A' for Active; 'I' for Inactive)
    1  A    between atoms: C_1  and  O_20
    2  A    between atoms: C_2  and  C_9
    3  A    between atoms: C_2  and  C_23
    4  A    between atoms: C_4  and  C_5
    5  A    between atoms: C_4  and  O_13
    6  A    between atoms: C_6  and  N_31
    7  A    between atoms: C_8  and  C_23
    8  A    between atoms: C_8  and  O_28
    9  A    between atoms: C_9  and  C_10
   10  A    between atoms: C_10  and  C_19
   11  A    between atoms: O_13  and  C_15
   12  A    between atoms: C_14  and  C_26
   13  A    between atoms: C_14  and  O_28
   14  A    between atoms: C_15  and  C_26
   15  A    between atoms: C_16  and  C_26
   16  A    between atoms: C_19  and  O_20
   17  A    between atoms: N_27  and  C_32
                            x       y       z     vdW  Elec       q    Type
                         _______ _______ _______ _____ _____    ______ ____

>  <TORSDO>
F 17

$$$$
=
 OpenBabel10262421403D

 32 33  0  0  1  0  0  0  0  0999 V2000
  184.5940  179.0730  141.6230 C   0  0  2  0  0  3  0  0  0  0  0  0
  182.8120  178.6670  143.5100 C   0  0  0  0  0  2  0  0  0  0  0  0
  184.2690  178.7210  143.0820 C   0  0  0  0  0  0  0  0  0  0  0  0
  183.6660  179.8740  143.8620 C   0  0  0  0  0  2  0  0  0  0  0  0
  185.2040  178.0050  143.8560 O   0  0  0  0  0  0  0  0  0  0  0  0
  185.1480  178.5380  145.1500 C   0  0  0  0  0  2  0  0  0  0  0  0
  186.1150  177.8060  146.0550 C   0  0  0  0  0  2  0  0  0  0  0  0
  187.3820  177.5150  145.2740 C   0  0  0  0  0  2  0  0  0  0  0  0
  188.5240  177.1650  146.2130 C   0  0  2  0  0  3  0  0  0  0  0  0
  188.1720  177.5890  147.6300 C   0  0  0  0  0  1  0  0  0  0  0  0
  189.7810  177.8950  145.7520 C   0  0  0  0  0  2  0  0  0  0  0  0
  190.9050  176.9450  145.3370 C   0  0  1  0  0  3  0  0  0  0  0  0
  191.3740  177.2230  143.9210 C   0  0  0  0  0  1  0  0  0  0  0  0
  191.9800  177.0280  146.2240 O   0  0  0  0  0  0  0  0  0  0  0  0
  192.1640  175.7250  146.6920 C   0  0  0  0  0  2  0  0  0  0  0  0
  192.6520  175.7740  148.1230 C   0  0  0  0  0  1  0  0  0  0  0  0
  183.5820  178.5280  140.6580 C   0  0  0  0  0  0  0  0  0  0  0  0
  182.7470  179.3690  140.1140 N   0  0  0  0  0  0  0  0  0  0  0  0
  183.5220  177.1040  140.4420 N   0  0  0  0  0  2  0  0  0  0  0  0
  181.9100  179.8060  137.8860 C   0  0  0  0  0  2  0  0  0  0  0  0
  180.3820  179.6050  139.6730 C   0  0  1  0  0  3  0  0  0  0  0  0
  179.8650  180.5150  138.6600 N   0  0  0  0  0  2  0  0  0  0  0  0
  180.6110  180.3160  137.4820 N   0  0  0  0  0  2  0  0  0  0  0  0
  179.4020  178.4720  139.8890 C   0  0  0  0  0  1  0  0  0  0  0  0
  181.6880  179.0570  139.1690 C   0  0  2  0  0  3  0  0  0  0  0  0
  182.5120  176.3750  139.6920 C   0  0  0  0  0  2  0  0  0  0  0  0
  183.1630  175.6730  138.5200 C   0  0  0  0  0  1  0  0  0  0  0  0
  186.0390  178.7540  141.2310 C   0  0  0  0  0  2  0  0  0  0  0  0
  186.2210  178.8520  139.8480 O   0  0  0  0  0  0  0  0  0  0  0  0
  187.3960  178.1430  139.5980 C   0  0  0  0  0  2  0  0  0  0  0  0
  187.6870  178.1380  138.1130 C   0  0  0  0  0  2  0  0  0  0  0  0
  186.8100  179.0010  137.4540 O   0  0  0  0  0  1  0  0  0  0  0  0
  1 28  1  6  0  0  0
  1  3  1  0  0  0  0
  2  4  1  0  0  0  0
  3  2  1  0  0  0  0
  3  5  1  0  0  0  0
  3  4  1  0  0  0  0
  5  6  1  0  0  0  0
  6  7  1  0  0  0  0
  8  7  1  0  0  0  0
  8  9  1  0  0  0  0
  9 10  1  1  0  0  0
 11  9  1  0  0  0  0
 12 13  1  6  0  0  0
 12 11  1  0  0  0  0
 12 14  1  0  0  0  0
 14 15  1  0  0  0  0
 15 16  1  0  0  0  0
 17  1  1  0  0  0  0
 18 17  2  0  0  0  0
 19 17  1  0  0  0  0
 20 25  1  0  0  0  0
 21 24  1  6  0  0  0
 22 21  1  0  0  0  0
 23 20  1  0  0  0  0
 23 22  1  0  0  0  0
 25 21  1  0  0  0  0
 25 18  1  1  0  0  0
 26 19  1  0  0  0  0
 27 26  1  0  0  0  0
 29 28  1  0  0  0  0
 30 29  1  0  0  0  0
 31 30  1  0  0  0  0
 32 31  1  0  0  0  0
M  END
>  <MODEL>
3

>  <REMARK>
 VINA RESULT:      -6.1      1.688      3.016
  Name = 
  17 active torsions:
  status: ('A' for Active; 'I' for Inactive)
    1  A    between atoms: C_1  and  O_20
    2  A    between atoms: C_2  and  C_9
    3  A    between atoms: C_2  and  C_23
    4  A    between atoms: C_4  and  C_5
    5  A    between atoms: C_4  and  O_13
    6  A    between atoms: C_6  and  N_31
    7  A    between atoms: C_8  and  C_23
    8  A    between atoms: C_8  and  O_28
    9  A    between atoms: C_9  and  C_10
   10  A    between atoms: C_10  and  C_19
   11  A    between atoms: O_13  and  C_15
   12  A    between atoms: C_14  and  C_26
   13  A    between atoms: C_14  and  O_28
   14  A    between atoms: C_15  and  C_26
   15  A    between atoms: C_16  and  C_26
   16  A    between atoms: C_19  and  O_20
   17  A    between atoms: N_27  and  C_32
                            x       y       z     vdW  Elec       q    Type
                         _______ _______ _______ _____ _____    ______ ____

>  <TORSDO>
F 17

$$$$
=
 OpenBabel10262421403D

 32 33  0  0  1  0  0  0  0  0999 V2000
  184.8970  178.7100  140.3640 C   0  0  2  0  0  3  0  0  0  0  0  0
  184.6680  178.0780  142.9030 C   0  0  0  0  0  2  0  0  0  0  0  0
  185.5560  178.4400  141.7240 C   0  0  0  0  0  0  0  0  0  0  0  0
  185.2260  179.4860  142.7730 C   0  0  0  0  0  2  0  0  0  0  0  0
  186.9100  178.0550  141.7840 O   0  0  0  0  0  0  0  0  0  0  0  0
  187.1930  177.7860  143.1290 C   0  0  0  0  0  2  0  0  0  0  0  0
  187.8930  176.4500  143.2550 C   0  0  0  0  0  2  0  0  0  0  0  0
  189.3440  176.6960  143.6210 C   0  0  0  0  0  2  0  0  0  0  0  0
  189.4580  177.8120  144.6460 C   0  0  2  0  0  3  0  0  0  0  0  0
  190.6340  178.7100  144.2980 C   0  0  0  0  0  1  0  0  0  0  0  0
  189.6690  177.1940  146.0240 C   0  0  0  0  0  2  0  0  0  0  0  0
  188.5140  177.4720  146.9860 C   0  0  1  0  0  3  0  0  0  0  0  0
  188.9970  178.1520  148.2540 C   0  0  0  0  0  1  0  0  0  0  0  0
  187.5290  178.2470  146.3710 O   0  0  0  0  0  0  0  0  0  0  0  0
  186.4250  178.1720  147.2220 C   0  0  0  0  0  2  0  0  0  0  0  0
  185.1890  178.6220  146.4760 C   0  0  0  0  0  1  0  0  0  0  0  0
  183.4310  178.3920  140.3570 C   0  0  0  0  0  0  0  0  0  0  0  0
  182.6110  179.2980  140.8110 N   0  0  0  0  0  0  0  0  0  0  0  0
  183.0050  177.0810  139.9360 N   0  0  0  0  0  2  0  0  0  0  0  0
  180.5190  180.2870  140.1040 C   0  0  0  0  0  2  0  0  0  0  0  0
  180.7270  179.4890  142.3140 C   0  0  1  0  0  3  0  0  0  0  0  0
  179.7990  180.6100  142.2630 N   0  0  0  0  0  2  0  0  0  0  0  0
  179.4310  180.8020  140.9170 N   0  0  0  0  0  2  0  0  0  0  0  0
  180.0310  178.2780  142.8970 C   0  0  0  0  0  1  0  0  0  0  0  0
  181.1640  179.1940  140.9070 C   0  0  2  0  0  3  0  0  0  0  0  0
  181.6640  176.5270  140.0240 C   0  0  0  0  0  2  0  0  0  0  0  0
  181.4280  175.5870  138.8620 C   0  0  0  0  0  1  0  0  0  0  0  0
  185.6580  178.0880  139.1890 C   0  0  0  0  0  2  0  0  0  0  0  0
  185.8790  179.0260  138.1760 O   0  0  0  0  0  0  0  0  0  0  0  0
  186.8800  178.4610  137.3860 C   0  0  0  0  0  2  0  0  0  0  0  0
  188.0700  178.0960  138.2480 C   0  0  0  0  0  2  0  0  0  0  0  0
  188.9540  179.1740  138.3180 O   0  0  0  0  0  1  0  0  0  0  0  0
  1 28  1  6  0  0  0
  1  3  1  0  0  0  0
  3  5  1  0  0  0  0
  3  4  1  0  0  0  0
  3  2  1  0  0  0  0
  4  2  1  0  0  0  0
  5  6  1  0  0  0  0
  6  7  1  0  0  0  0
  7  8  1  0  0  0  0
  8  9  1  0  0  0  0
  9 10  1  6  0  0  0
  9 11  1  0  0  0  0
 11 12  1  0  0  0  0
 12 13  1  1  0  0  0
 14 12  1  0  0  0  0
 14 15  1  0  0  0  0
 16 15  1  0  0  0  0
 17  1  1  0  0  0  0
 17 18  2  0  0  0  0
 19 26  1  0  0  0  0
 19 17  1  0  0  0  0
 20 25  1  0  0  0  0
 20 23  1  0  0  0  0
 21 24  1  6  0  0  0
 22 21  1  0  0  0  0
 23 22  1  0  0  0  0
 25 18  1  1  0  0  0
 25 21  1  0  0  0  0
 27 26  1  0  0  0  0
 29 28  1  0  0  0  0
 30 29  1  0  0  0  0
 30 31  1  0  0  0  0
 31 32  1  0  0  0  0
M  END
>  <MODEL>
4

>  <REMARK>
 VINA RESULT:      -6.1      2.226      3.876
  Name = 
  17 active torsions:
  status: ('A' for Active; 'I' for Inactive)
    1  A    between atoms: C_1  and  O_20
    2  A    between atoms: C_2  and  C_9
    3  A    between atoms: C_2  and  C_23
    4  A    between atoms: C_4  and  C_5
    5  A    between atoms: C_4  and  O_13
    6  A    between atoms: C_6  and  N_31
    7  A    between atoms: C_8  and  C_23
    8  A    between atoms: C_8  and  O_28
    9  A    between atoms: C_9  and  C_10
   10  A    between atoms: C_10  and  C_19
   11  A    between atoms: O_13  and  C_15
   12  A    between atoms: C_14  and  C_26
   13  A    between atoms: C_14  and  O_28
   14  A    between atoms: C_15  and  C_26
   15  A    between atoms: C_16  and  C_26
   16  A    between atoms: C_19  and  O_20
   17  A    between atoms: N_27  and  C_32
                            x       y       z     vdW  Elec       q    Type
                         _______ _______ _______ _____ _____    ______ ____

>  <TORSDO>
F 17

$$$$
=
 OpenBabel10262421403D

 32 33  0  0  1  0  0  0  0  0999 V2000
  183.4500  178.3130  141.2730 C   0  0  2  0  0  3  0  0  0  0  0  0
  183.7270  179.7740  139.1080 C   0  0  0  0  0  2  0  0  0  0  0  0
  184.3580  179.0890  140.3080 C   0  0  0  0  0  0  0  0  0  0  0  0
  184.4600  178.4550  138.9340 C   0  0  0  0  0  2  0  0  0  0  0  0
  185.6070  179.5670  140.7530 O   0  0  0  0  0  0  0  0  0  0  0  0
  186.4760  178.4690  140.7700 C   0  0  0  0  0  2  0  0  0  0  0  0
  187.6070  178.7170  141.7440 C   0  0  0  0  0  2  0  0  0  0  0  0
  187.5400  177.6690  142.8390 C   0  0  0  0  0  2  0  0  0  0  0  0
  188.9250  177.3830  143.3930 C   0  0  2  0  0  3  0  0  0  0  0  0
  189.3060  175.9400  143.1030 C   0  0  0  0  0  1  0  0  0  0  0  0
  188.9110  177.6210  144.9000 C   0  0  0  0  0  2  0  0  0  0  0  0
  189.9840  176.8250  145.6410 C   0  0  1  0  0  3  0  0  0  0  0  0
  191.3650  177.4200  145.4270 C   0  0  0  0  0  1  0  0  0  0  0  0
  189.6990  176.7520  147.0050 O   0  0  0  0  0  0  0  0  0  0  0  0
  188.4880  177.4310  147.1590 C   0  0  0  0  0  2  0  0  0  0  0  0
  188.4650  178.1090  148.5100 C   0  0  0  0  0  1  0  0  0  0  0  0
  182.1060  178.0040  140.6810 C   0  0  0  0  0  0  0  0  0  0  0  0
  181.9760  176.8860  140.0220 N   0  0  0  0  0  0  0  0  0  0  0  0
  181.0550  178.9830  140.7900 N   0  0  0  0  0  2  0  0  0  0  0  0
  180.3360  175.1070  139.9880 C   0  0  0  0  0  2  0  0  0  0  0  0
  181.0980  176.0100  137.9460 C   0  0  1  0  0  3  0  0  0  0  0  0
  180.7410  174.6070  137.7820 N   0  0  0  0  0  2  0  0  0  0  0  0
  179.9620  174.2290  138.8930 N   0  0  0  0  0  2  0  0  0  0  0  0
  180.2920  176.8580  136.9870 C   0  0  0  0  0  1  0  0  0  0  0  0
  180.7750  176.3990  139.3620 C   0  0  2  0  0  3  0  0  0  0  0  0
  179.7550  178.9490  140.1400 C   0  0  0  0  0  2  0  0  0  0  0  0
  179.7000  180.0090  139.0620 C   0  0  0  0  0  1  0  0  0  0  0  0
  183.3680  178.9440  142.6660 C   0  0  0  0  0  2  0  0  0  0  0  0
  184.2230  178.2990  143.5640 O   0  0  0  0  0  0  0  0  0  0  0  0
  184.4650  179.2450  144.5600 C   0  0  0  0  0  2  0  0  0  0  0  0
  184.8260  178.5490  145.8540 C   0  0  0  0  0  2  0  0  0  0  0  0
  185.5280  179.4230  146.6850 O   0  0  0  0  0  1  0  0  0  0  0  0
  1 28  1  1  0  0  0
  2  3  1  0  0  0  0
  3  5  1  0  0  0  0
  3  1  1  0  0  0  0
  4  2  1  0  0  0  0
  4  3  1  0  0  0  0
  5  6  1  0  0  0  0
  6  7  1  0  0  0  0
  7  8  1  0  0  0  0
  8  9  1  0  0  0  0
  9 10  1  1  0  0  0
  9 11  1  0  0  0  0
 11 12  1  0  0  0  0
 12 13  1  1  0  0  0
 12 14  1  0  0  0  0
 14 15  1  0  0  0  0
 15 16  1  0  0  0  0
 17 19  1  0  0  0  0
 17  1  1  0  0  0  0
 18 17  2  0  0  0  0
 21 24  1  6  0  0  0
 21 25  1  0  0  0  0
 22 21  1  0  0  0  0
 22 23  1  0  0  0  0
 23 20  1  0  0  0  0
 25 20  1  0  0  0  0
 25 18  1  1  0  0  0
 26 19  1  0  0  0  0
 27 26  1  0  0  0  0
 28 29  1  0  0  0  0
 29 30  1  0  0  0  0
 30 31  1  0  0  0  0
 31 32  1  0  0  0  0
M  END
>  <MODEL>
5

>  <REMARK>
 VINA RESULT:      -5.7      2.117      4.261
  Name = 
  17 active torsions:
  status: ('A' for Active; 'I' for Inactive)
    1  A    between atoms: C_1  and  O_20
    2  A    between atoms: C_2  and  C_9
    3  A    between atoms: C_2  and  C_23
    4  A    between atoms: C_4  and  C_5
    5  A    between atoms: C_4  and  O_13
    6  A    between atoms: C_6  and  N_31
    7  A    between atoms: C_8  and  C_23
    8  A    between atoms: C_8  and  O_28
    9  A    between atoms: C_9  and  C_10
   10  A    between atoms: C_10  and  C_19
   11  A    between atoms: O_13  and  C_15
   12  A    between atoms: C_14  and  C_26
   13  A    between atoms: C_14  and  O_28
   14  A    between atoms: C_15  and  C_26
   15  A    between atoms: C_16  and  C_26
   16  A    between atoms: C_19  and  O_20
   17  A    between atoms: N_27  and  C_32
                            x       y       z     vdW  Elec       q    Type
                         _______ _______ _______ _____ _____    ______ ____

>  <TORSDO>
F 17

$$$$
=
 OpenBabel10262421403D

 32 33  0  0  1  0  0  0  0  0999 V2000
  183.5240  178.3700  142.9650 C   0  0  2  0  0  3  0  0  0  0  0  0
  185.2580  178.3860  144.9380 C   0  0  0  0  0  2  0  0  0  0  0  0
  184.9820  178.3250  143.4450 C   0  0  0  0  0  0  0  0  0  0  0  0
  185.4500  179.6220  144.0760 C   0  0  0  0  0  2  0  0  0  0  0  0
  185.9750  177.7610  142.6200 O   0  0  0  0  0  0  0  0  0  0  0  0
  187.1720  177.8020  143.3450 C   0  0  0  0  0  2  0  0  0  0  0  0
  187.8970  176.4790  143.2260 C   0  0  0  0  0  2  0  0  0  0  0  0
  189.3890  176.7470  143.1760 C   0  0  0  0  0  2  0  0  0  0  0  0
  189.7810  177.7970  144.2010 C   0  0  2  0  0  3  0  0  0  0  0  0
  190.7090  178.8180  143.5620 C   0  0  0  0  0  1  0  0  0  0  0  0
  190.4910  177.1090  145.3630 C   0  0  0  0  0  2  0  0  0  0  0  0
  189.9560  177.5380  146.7280 C   0  0  1  0  0  3  0  0  0  0  0  0
  188.4950  177.1610  146.8960 C   0  0  0  0  0  1  0  0  0  0  0  0
  190.7160  176.9830  147.7590 O   0  0  0  0  0  0  0  0  0  0  0  0
  191.6820  176.2050  147.1180 C   0  0  0  0  0  2  0  0  0  0  0  0
  192.6870  175.7180  148.1380 C   0  0  0  0  0  1  0  0  0  0  0  0
  183.4070  178.3640  141.4690 C   0  0  0  0  0  0  0  0  0  0  0  0
  182.6210  177.4760  140.9250 N   0  0  0  0  0  0  0  0  0  0  0  0
  184.2240  179.2700  140.7030 N   0  0  0  0  0  2  0  0  0  0  0  0
  180.9780  177.7300  139.1680 C   0  0  0  0  0  2  0  0  0  0  0  0
  182.3600  175.8180  139.1850 C   0  0  1  0  0  3  0  0  0  0  0  0
  181.0660  175.5060  138.5940 N   0  0  0  0  0  2  0  0  0  0  0  0
  180.4360  176.7230  138.2710 N   0  0  0  0  0  2  0  0  0  0  0  0
  183.4620  175.5020  138.1970 C   0  0  0  0  0  1  0  0  0  0  0  0
  182.3720  177.2870  139.5060 C   0  0  2  0  0  3  0  0  0  0  0  0
  184.3840  179.2960  139.2580 C   0  0  0  0  0  2  0  0  0  0  0  0
  185.6210  178.5150  138.8720 C   0  0  0  0  0  1  0  0  0  0  0  0
  182.7010  179.4760  143.6330 C   0  0  0  0  0  2  0  0  0  0  0  0
  181.5050  179.7010  142.9450 O   0  0  0  0  0  0  0  0  0  0  0  0
  180.5700  178.8920  143.5920 C   0  0  0  0  0  2  0  0  0  0  0  0
  179.4570  178.5250  142.6350 C   0  0  0  0  0  2  0  0  0  0  0  0
  179.2890  179.5390  141.6900 O   0  0  0  0  0  1  0  0  0  0  0  0
  1  3  1  0  0  0  0
  1 28  1  6  0  0  0
  3  4  1  0  0  0  0
  3  2  1  0  0  0  0
  4  2  1  0  0  0  0
  5  6  1  0  0  0  0
  5  3  1  0  0  0  0
  7  6  1  0  0  0  0
  8  7  1  0  0  0  0
  8  9  1  0  0  0  0
  9 10  1  6  0  0  0
  9 11  1  0  0  0  0
 11 12  1  0  0  0  0
 12 13  1  1  0  0  0
 12 14  1  0  0  0  0
 15 14  1  0  0  0  0
 15 16  1  0  0  0  0
 17  1  1  0  0  0  0
 18 17  2  0  0  0  0
 19 17  1  0  0  0  0
 20 25  1  0  0  0  0
 21 24  1  6  0  0  0
 21 25  1  0  0  0  0
 22 21  1  0  0  0  0
 23 22  1  0  0  0  0
 23 20  1  0  0  0  0
 25 18  1  1  0  0  0
 26 19  1  0  0  0  0
 27 26  1  0  0  0  0
 29 30  1  0  0  0  0
 29 28  1  0  0  0  0
 31 30  1  0  0  0  0
 32 31  1  0  0  0  0
M  END
>  <MODEL>
6

>  <REMARK>
 VINA RESULT:      -5.7      2.226      4.285
  Name = 
  17 active torsions:
  status: ('A' for Active; 'I' for Inactive)
    1  A    between atoms: C_1  and  O_20
    2  A    between atoms: C_2  and  C_9
    3  A    between atoms: C_2  and  C_23
    4  A    between atoms: C_4  and  C_5
    5  A    between atoms: C_4  and  O_13
    6  A    between atoms: C_6  and  N_31
    7  A    between atoms: C_8  and  C_23
    8  A    between atoms: C_8  and  O_28
    9  A    between atoms: C_9  and  C_10
   10  A    between atoms: C_10  and  C_19
   11  A    between atoms: O_13  and  C_15
   12  A    between atoms: C_14  and  C_26
   13  A    between atoms: C_14  and  O_28
   14  A    between atoms: C_15  and  C_26
   15  A    between atoms: C_16  and  C_26
   16  A    between atoms: C_19  and  O_20
   17  A    between atoms: N_27  and  C_32
                            x       y       z     vdW  Elec       q    Type
                         _______ _______ _______ _____ _____    ______ ____

>  <TORSDO>
F 17

$$$$
=
 OpenBabel10262421403D

 32 33  0  0  1  0  0  0  0  0999 V2000
  186.8920  177.5650  137.1920 C   0  0  2  0  0  3  0  0  0  0  0  0
  189.0340  179.0210  137.6310 C   0  0  0  0  0  2  0  0  0  0  0  0
  188.2350  177.7590  137.9100 C   0  0  0  0  0  0  0  0  0  0  0  0
  189.4310  177.7070  136.9790 C   0  0  0  0  0  2  0  0  0  0  0  0
  188.4880  177.0800  139.1190 O   0  0  0  0  0  0  0  0  0  0  0  0
  189.4030  177.8610  139.8360 C   0  0  0  0  0  2  0  0  0  0  0  0
  188.9570  177.9920  141.2760 C   0  0  0  0  0  2  0  0  0  0  0  0
  190.1060  177.5820  142.1770 C   0  0  0  0  0  2  0  0  0  0  0  0
  189.9200  178.1450  143.5760 C   0  0  2  0  0  3  0  0  0  0  0  0
  191.1000  179.0330  143.9340 C   0  0  0  0  0  1  0  0  0  0  0  0
  189.8270  176.9860  144.5630 C   0  0  0  0  0  2  0  0  0  0  0  0
  189.3620  177.4210  145.9520 C   0  0  1  0  0  3  0  0  0  0  0  0
  187.8530  177.5840  146.0090 C   0  0  0  0  0  1  0  0  0  0  0  0
  189.7830  176.5150  146.9270 O   0  0  0  0  0  0  0  0  0  0  0  0
  191.0640  176.9400  147.2880 C   0  0  0  0  0  2  0  0  0  0  0  0
  191.9930  175.7480  147.3260 C   0  0  0  0  0  1  0  0  0  0  0  0
  185.7140  177.8190  138.0860 C   0  0  0  0  0  0  0  0  0  0  0  0
  184.5520  177.3690  137.7020 N   0  0  0  0  0  0  0  0  0  0  0  0
  185.9000  178.6150  139.2730 N   0  0  0  0  0  2  0  0  0  0  0  0
  182.7220  176.1590  138.7230 C   0  0  0  0  0  2  0  0  0  0  0  0
  182.2630  178.1130  137.4830 C   0  0  1  0  0  3  0  0  0  0  0  0
  181.1450  177.1820  137.4000 N   0  0  0  0  0  2  0  0  0  0  0  0
  181.3020  176.2300  138.4260 N   0  0  0  0  0  2  0  0  0  0  0  0
  181.7840  179.4350  138.0430 C   0  0  0  0  0  1  0  0  0  0  0  0
  183.2870  177.5130  138.4040 C   0  0  2  0  0  3  0  0  0  0  0  0
  184.8650  179.1150  140.1630 C   0  0  0  0  0  2  0  0  0  0  0  0
  185.3880  179.1420  141.5820 C   0  0  0  0  0  1  0  0  0  0  0  0
  186.8000  176.2390  136.4300 C   0  0  0  0  0  2  0  0  0  0  0  0
  186.9650  175.1490  137.2910 O   0  0  0  0  0  0  0  0  0  0  0  0
  187.4540  174.1290  136.4750 C   0  0  0  0  0  2  0  0  0  0  0  0
  186.5580  172.9140  136.5790 C   0  0  0  0  0  2  0  0  0  0  0  0
  185.8820  172.9250  137.8000 O   0  0  0  0  0  1  0  0  0  0  0  0
  1 28  1  1  0  0  0
  1  3  1  0  0  0  0
  1 17  1  0  0  0  0
  2  3  1  0  0  0  0
  3  5  1  0  0  0  0
  4  2  1  0  0  0  0
  4  3  1  0  0  0  0
  5  6  1  0  0  0  0
  6  7  1  0  0  0  0
  7  8  1  0  0  0  0
  8  9  1  0  0  0  0
  9 10  1  1  0  0  0
  9 11  1  0  0  0  0
 11 12  1  0  0  0  0
 12 13  1  6  0  0  0
 12 14  1  0  0  0  0
 14 15  1  0  0  0  0
 15 16  1  0  0  0  0
 17 19  1  0  0  0  0
 18 17  2  0  0  0  0
 19 26  1  0  0  0  0
 21 24  1  1  0  0  0
 21 25  1  0  0  0  0
 22 21  1  0  0  0  0
 22 23  1  0  0  0  0
 23 20  1  0  0  0  0
 25 18  1  6  0  0  0
 25 20  1  0  0  0  0
 26 27  1  0  0  0  0
 28 29  1  0  0  0  0
 30 31  1  0  0  0  0
 30 29  1  0  0  0  0
 31 32  1  0  0  0  0
M  END
>  <MODEL>
7

>  <REMARK>
 VINA RESULT:      -5.7      2.362      4.462
  Name = 
  17 active torsions:
  status: ('A' for Active; 'I' for Inactive)
    1  A    between atoms: C_1  and  O_20
    2  A    between atoms: C_2  and  C_9
    3  A    between atoms: C_2  and  C_23
    4  A    between atoms: C_4  and  C_5
    5  A    between atoms: C_4  and  O_13
    6  A    between atoms: C_6  and  N_31
    7  A    between atoms: C_8  and  C_23
    8  A    between atoms: C_8  and  O_28
    9  A    between atoms: C_9  and  C_10
   10  A    between atoms: C_10  and  C_19
   11  A    between atoms: O_13  and  C_15
   12  A    between atoms: C_14  and  C_26
   13  A    between atoms: C_14  and  O_28
   14  A    between atoms: C_15  and  C_26
   15  A    between atoms: C_16  and  C_26
   16  A    between atoms: C_19  and  O_20
   17  A    between atoms: N_27  and  C_32
                            x       y       z     vdW  Elec       q    Type
                         _______ _______ _______ _____ _____    ______ ____

>  <TORSDO>
F 17

$$$$
=
 OpenBabel10262421403D

 32 33  0  0  1  0  0  0  0  0999 V2000
  189.5550  177.8780  139.8070 C   0  0  2  0  0  3  0  0  0  0  0  0
  189.4430  177.9860  142.4290 C   0  0  0  0  0  2  0  0  0  0  0  0
  188.7250  178.0210  141.0910 C   0  0  0  0  0  0  0  0  0  0  0  0
  188.6950  176.7600  141.9340 C   0  0  0  0  0  2  0  0  0  0  0  0
  187.4610  178.6420  141.0440 O   0  0  0  0  0  0  0  0  0  0  0  0
  186.6540  177.9840  141.9800 C   0  0  0  0  0  2  0  0  0  0  0  0
  185.2650  178.5860  141.9810 C   0  0  0  0  0  2  0  0  0  0  0  0
  185.1210  179.4680  143.2060 C   0  0  0  0  0  2  0  0  0  0  0  0
  184.6430  178.6590  144.3990 C   0  0  2  0  0  3  0  0  0  0  0  0
  183.1630  178.9180  144.6360 C   0  0  0  0  0  1  0  0  0  0  0  0
  185.4440  179.0760  145.6280 C   0  0  0  0  0  2  0  0  0  0  0  0
  186.2410  177.9230  146.2390 C   0  0  1  0  0  3  0  0  0  0  0  0
  187.3670  177.4780  145.3230 C   0  0  0  0  0  1  0  0  0  0  0  0
  186.7520  178.2780  147.4890 O   0  0  0  0  0  0  0  0  0  0  0  0
  187.9060  177.5060  147.6420 C   0  0  0  0  0  2  0  0  0  0  0  0
  188.8730  178.2300  148.5510 C   0  0  0  0  0  1  0  0  0  0  0  0
  188.7080  177.8800  138.5680 C   0  0  0  0  0  0  0  0  0  0  0  0
  187.6340  177.1410  138.5650 N   0  0  0  0  0  0  0  0  0  0  0  0
  189.1600  178.6210  137.4170 N   0  0  0  0  0  2  0  0  0  0  0  0
  185.3380  177.5000  137.8920 C   0  0  0  0  0  2  0  0  0  0  0  0
  186.4410  175.5260  137.2190 C   0  0  1  0  0  3  0  0  0  0  0  0
  185.0130  175.2840  137.3740 N   0  0  0  0  0  2  0  0  0  0  0  0
  184.3660  176.5350  137.4070 N   0  0  0  0  0  2  0  0  0  0  0  0
  186.8660  175.1760  135.8090 C   0  0  0  0  0  1  0  0  0  0  0  0
  186.6860  176.9870  137.4740 C   0  0  2  0  0  3  0  0  0  0  0  0
  188.5810  178.6060  136.0840 C   0  0  0  0  0  2  0  0  0  0  0  0
  189.4620  177.7940  135.1600 C   0  0  0  0  0  1  0  0  0  0  0  0
  190.5530  176.7170  139.8580 C   0  0  0  0  0  2  0  0  0  0  0  0
  190.3690  175.8460  138.7790 O   0  0  0  0  0  0  0  0  0  0  0  0
  191.6200  175.7800  138.1660 C   0  0  0  0  0  2  0  0  0  0  0  0
  192.5160  176.8750  138.7040 C   0  0  0  0  0  2  0  0  0  0  0  0
  193.8020  176.3770  138.9140 O   0  0  0  0  0  1  0  0  0  0  0  0
  1 28  1  1  0  0  0
  1  3  1  0  0  0  0
  3  4  1  0  0  0  0
  3  2  1  0  0  0  0
  4  2  1  0  0  0  0
  5  3  1  0  0  0  0
  5  6  1  0  0  0  0
  6  7  1  0  0  0  0
  7  8  1  0  0  0  0
  8  9  1  0  0  0  0
  9 10  1  1  0  0  0
  9 11  1  0  0  0  0
 11 12  1  0  0  0  0
 12 13  1  6  0  0  0
 12 14  1  0  0  0  0
 14 15  1  0  0  0  0
 15 16  1  0  0  0  0
 17  1  1  0  0  0  0
 18 17  2  0  0  0  0
 19 17  1  0  0  0  0
 21 24  1  6  0  0  0
 21 22  1  0  0  0  0
 21 25  1  0  0  0  0
 22 23  1  0  0  0  0
 23 20  1  0  0  0  0
 25 20  1  0  0  0  0
 25 18  1  1  0  0  0
 26 19  1  0  0  0  0
 27 26  1  0  0  0  0
 29 28  1  0  0  0  0
 30 31  1  0  0  0  0
 30 29  1  0  0  0  0
 31 32  1  0  0  0  0
M  END
>  <MODEL>
8

>  <REMARK>
 VINA RESULT:      -5.6      2.563      4.720
  Name = 
  17 active torsions:
  status: ('A' for Active; 'I' for Inactive)
    1  A    between atoms: C_1  and  O_20
    2  A    between atoms: C_2  and  C_9
    3  A    between atoms: C_2  and  C_23
    4  A    between atoms: C_4  and  C_5
    5  A    between atoms: C_4  and  O_13
    6  A    between atoms: C_6  and  N_31
    7  A    between atoms: C_8  and  C_23
    8  A    between atoms: C_8  and  O_28
    9  A    between atoms: C_9  and  C_10
   10  A    between atoms: C_10  and  C_19
   11  A    between atoms: O_13  and  C_15
   12  A    between atoms: C_14  and  C_26
   13  A    between atoms: C_14  and  O_28
   14  A    between atoms: C_15  and  C_26
   15  A    between atoms: C_16  and  C_26
   16  A    between atoms: C_19  and  O_20
   17  A    between atoms: N_27  and  C_32
                            x       y       z     vdW  Elec       q    Type
                         _______ _______ _______ _____ _____    ______ ____

>  <TORSDO>
F 17

$$$$
=
 OpenBabel10262421403D

 32 33  0  0  1  0  0  0  0  0999 V2000
  184.2530  177.9860  141.1410 C   0  0  2  0  0  3  0  0  0  0  0  0
  184.4290  179.4610  138.9750 C   0  0  0  0  0  2  0  0  0  0  0  0
  185.1180  178.6510  140.0610 C   0  0  0  0  0  0  0  0  0  0  0  0
  184.9240  178.0540  138.6790 C   0  0  0  0  0  2  0  0  0  0  0  0
  186.4750  178.9270  140.3200 O   0  0  0  0  0  0  0  0  0  0  0  0
  187.2160  178.2670  139.3320 C   0  0  0  0  0  2  0  0  0  0  0  0
  188.6390  178.0610  139.8020 C   0  0  0  0  0  2  0  0  0  0  0  0
  188.6120  177.6500  141.2610 C   0  0  0  0  0  2  0  0  0  0  0  0
  190.0220  177.5130  141.8090 C   0  0  2  0  0  3  0  0  0  0  0  0
  190.9770  177.1500  140.6830 C   0  0  0  0  0  1  0  0  0  0  0  0
  190.0340  176.4170  142.8700 C   0  0  0  0  0  2  0  0  0  0  0  0
  190.2830  176.9530  144.2790 C   0  0  1  0  0  3  0  0  0  0  0  0
  191.2460  178.1270  144.2650 C   0  0  0  0  0  1  0  0  0  0  0  0
  189.0840  177.3230  144.8910 O   0  0  0  0  0  0  0  0  0  0  0  0
  189.3330  177.2290  146.2620 C   0  0  0  0  0  2  0  0  0  0  0  0
  188.0530  177.4980  147.0200 C   0  0  0  0  0  1  0  0  0  0  0  0
  182.7900  178.0040  140.8050 C   0  0  0  0  0  0  0  0  0  0  0  0
  182.1050  179.0640  141.1350 N   0  0  0  0  0  0  0  0  0  0  0  0
  182.1960  176.8300  140.2180 N   0  0  0  0  0  2  0  0  0  0  0  0
  180.4880  180.3370  139.8630 C   0  0  0  0  0  2  0  0  0  0  0  0
  180.0740  179.9000  142.1440 C   0  0  1  0  0  3  0  0  0  0  0  0
  179.4720  181.1670  141.7500 N   0  0  0  0  0  2  0  0  0  0  0  0
  179.4230  181.2000  140.3430 N   0  0  0  0  0  2  0  0  0  0  0  0
  179.0080  178.9810  142.7000 C   0  0  0  0  0  1  0  0  0  0  0  0
  180.6850  179.2850  140.9170 C   0  0  2  0  0  3  0  0  0  0  0  0
  180.7810  176.5890  139.9850 C   0  0  0  0  0  2  0  0  0  0  0  0
  180.5940  175.9550  138.6240 C   0  0  0  0  0  1  0  0  0  0  0  0
  184.5560  178.4900  142.5550 C   0  0  0  0  0  2  0  0  0  0  0  0
  185.6880  177.8620  143.0830 O   0  0  0  0  0  0  0  0  0  0  0  0
  185.5090  177.9210  144.4650 C   0  0  0  0  0  2  0  0  0  0  0  0
  184.3820  178.8750  144.7970 C   0  0  0  0  0  2  0  0  0  0  0  0
  184.2570  179.0000  146.1820 O   0  0  0  0  0  1  0  0  0  0  0  0
  1 28  1  1  0  0  0
  2  3  1  0  0  0  0
  3  5  1  0  0  0  0
  3  1  1  0  0  0  0
  4  2  1  0  0  0  0
  4  3  1  0  0  0  0
  6  7  1  0  0  0  0
  6  5  1  0  0  0  0
  7  8  1  0  0  0  0
  8  9  1  0  0  0  0
  9 10  1  6  0  0  0
  9 11  1  0  0  0  0
 11 12  1  0  0  0  0
 12 13  1  6  0  0  0
 12 14  1  0  0  0  0
 14 15  1  0  0  0  0
 15 16  1  0  0  0  0
 17 18  2  0  0  0  0
 17  1  1  0  0  0  0
 19 17  1  0  0  0  0
 20 23  1  0  0  0  0
 20 25  1  0  0  0  0
 21 24  1  6  0  0  0
 22 21  1  0  0  0  0
 23 22  1  0  0  0  0
 25 18  1  1  0  0  0
 25 21  1  0  0  0  0
 26 19  1  0  0  0  0
 27 26  1  0  0  0  0
 28 29  1  0  0  0  0
 29 30  1  0  0  0  0
 30 31  1  0  0  0  0
 31 32  1  0  0  0  0
M  END
>  <MODEL>
9

>  <REMARK>
 VINA RESULT:      -5.6      2.398      5.246
  Name = 
  17 active torsions:
  status: ('A' for Active; 'I' for Inactive)
    1  A    between atoms: C_1  and  O_20
    2  A    between atoms: C_2  and  C_9
    3  A    between atoms: C_2  and  C_23
    4  A    between atoms: C_4  and  C_5
    5  A    between atoms: C_4  and  O_13
    6  A    between atoms: C_6  and  N_31
    7  A    between atoms: C_8  and  C_23
    8  A    between atoms: C_8  and  O_28
    9  A    between atoms: C_9  and  C_10
   10  A    between atoms: C_10  and  C_19
   11  A    between atoms: O_13  and  C_15
   12  A    between atoms: C_14  and  C_26
   13  A    between atoms: C_14  and  O_28
   14  A    between atoms: C_15  and  C_26
   15  A    between atoms: C_16  and  C_26
   16  A    between atoms: C_19  and  O_20
   17  A    between atoms: N_27  and  C_32
                            x       y       z     vdW  Elec       q    Type
                         _______ _______ _______ _____ _____    ______ ____

>  <TORSDO>
F 17

$$$$
