=
 OpenBabel10262421103D

 32 36  0  0  1  0  0  0  0  0999 V2000
  182.3670  177.3360  139.6130 C   0  0  0  0  0  0  0  0  0  0  0  0
  181.5190  179.5200  138.6430 C   0  0  2  0  0  3  0  0  0  0  0  0
  182.2130  175.9570  139.8010 C   0  0  0  0  0  3  0  0  0  0  0  0
  181.3420  178.0730  138.9960 C   0  0  0  0  0  0  0  0  0  0  0  0
  181.4550  179.6950  137.1270 C   0  0  0  0  0  2  0  0  0  0  0  0
  182.7800  180.1590  139.2460 C   0  0  0  0  0  2  0  0  0  0  0  0
  180.1900  177.4170  138.5410 C   0  0  0  0  0  0  0  0  0  0  0  0
  178.9310  178.3470  137.6600 S   0  0  0  0  0  0  0  0  0  0  0  0
  180.0500  176.0390  138.7180 C   0  0  0  0  0  3  0  0  0  0  0  0
  183.9440  179.2650  139.3130 N   0  0  0  0  0  0  0  0  0  0  0  0
  183.6570  178.0040  140.0160 C   0  0  1  0  0  3  0  0  0  0  0  0
  180.1150  179.2050  136.5280 C   0  0  2  0  0  3  0  0  0  0  0  0
  181.0550  175.3100  139.3580 C   0  0  0  0  0  3  0  0  0  0  0  0
  185.7080  178.4870  143.3380 C   0  0  2  0  0  3  0  0  0  0  0  0
  183.4030  179.1280  145.7140 F   0  0  0  0  0  0  0  0  0  0  0  0
  186.6800  177.5060  143.2590 F   0  0  0  0  0  0  0  0  0  0  0  0
  182.6410  179.0600  143.4840 C   0  0  0  0  0  3  0  0  0  0  0  0
  183.9370  178.0980  141.5250 C   0  0  2  0  0  3  0  0  0  0  0  0
  184.6740  178.0320  144.1780 O   0  0  0  0  0  0  0  0  0  0  0  0
  182.7040  178.6420  142.2090 C   0  0  0  0  0  3  0  0  0  0  0  0
  185.2140  178.8680  141.9240 C   0  0  2  0  0  3  0  0  0  0  0  0
  186.2420  178.7100  141.0130 F   0  0  0  0  0  0  0  0  0  0  0  0
  183.8300  179.1260  144.4000 C   0  0  2  0  0  3  0  0  0  0  0  0
  180.2430  178.5950  135.2650 O   0  0  0  0  0  0  0  0  0  0  0  0
  181.5540  178.1160  135.1370 C   0  0  0  0  0  1  0  0  0  0  0  0
  184.4270  178.9740  137.9660 C   0  0  0  0  0  2  0  0  0  0  0  0
  184.8150  176.7680  136.8940 C   0  0  0  0  0  2  0  0  0  0  0  0
  187.0000  177.5090  136.2570 N   0  0  0  0  0  0  0  0  0  0  0  0
  186.6720  178.0630  137.5110 C   0  0  0  0  0  0  0  0  0  0  0  0
  187.4870  178.7570  138.1740 O   0  0  0  0  0  0  0  0  0  0  0  0
  185.8570  176.7620  135.7680 C   0  0  0  0  0  3  0  0  0  0  0  0
  185.3070  177.7320  137.9710 C   0  0  1  0  0  3  0  0  0  0  0  0
  1  3  1  0  0  0  0
  2  5  1  6  0  0  0
  2  4  1  0  0  0  0
  2  6  1  0  0  0  0
  4  1  2  0  0  0  0
  6 10  1  0  0  0  0
  7  9  2  0  0  0  0
  7  4  1  0  0  0  0
  8  7  1  0  0  0  0
  9 13  1  0  0  0  0
 10 11  1  0  0  0  0
 11  1  1  1  0  0  0
 11 18  1  0  0  0  0
 12 24  1  6  0  0  0
 12  5  1  0  0  0  0
 12  8  1  0  0  0  0
 13  3  2  0  0  0  0
 14 16  1  6  0  0  0
 14 19  1  0  0  0  0
 17 23  1  0  0  0  0
 18 21  1  0  0  0  0
 18 20  1  1  0  0  0
 19 23  1  0  0  0  0
 20 17  2  0  0  0  0
 21 22  1  6  0  0  0
 21 14  1  0  0  0  0
 23 15  1  1  0  0  0
 25 24  1  0  0  0  0
 26 10  1  0  0  0  0
 27 32  1  0  0  0  0
 28 29  1  0  0  0  0
 29 32  1  0  0  0  0
 29 30  2  0  0  0  0
 31 28  2  0  0  0  0
 31 27  1  0  0  0  0
 32 26  1  6  0  0  0
M  END
>  <MODEL>
1

>  <REMARK>
 VINA RESULT:      -6.4      0.000      0.000
  Name = 
  4 active torsions:
  status: ('A' for Active; 'I' for Inactive)
    1  A    between atoms: O_13  and  C_29
    2  A    between atoms: C_16  and  C_27
    3  A    between atoms: N_24  and  C_28
    4  A    between atoms: C_28  and  C_32
                            x       y       z     vdW  Elec       q    Type
                         _______ _______ _______ _____ _____    ______ ____

>  <TORSDO>
F 4

$$$$
=
 OpenBabel10262421103D

 32 36  0  0  1  0  0  0  0  0999 V2000
  183.3980  177.5060  139.0950 C   0  0  0  0  0  0  0  0  0  0  0  0
  181.3190  176.0580  138.9890 C   0  0  2  0  0  3  0  0  0  0  0  0
  184.6500  177.8620  138.5770 C   0  0  0  0  0  3  0  0  0  0  0  0
  182.7210  176.3930  138.5710 C   0  0  0  0  0  0  0  0  0  0  0  0
  180.3780  176.1800  137.7920 C   0  0  0  0  0  2  0  0  0  0  0  0
  180.8220  176.8630  140.2000 C   0  0  0  0  0  2  0  0  0  0  0  0
  183.2840  175.6690  137.5110 C   0  0  0  0  0  0  0  0  0  0  0  0
  182.3660  174.3120  136.7750 S   0  0  0  0  0  0  0  0  0  0  0  0
  184.5260  176.0400  136.9900 C   0  0  0  0  0  3  0  0  0  0  0  0
  181.2970  178.2530  140.2460 N   0  0  0  0  0  0  0  0  0  0  0  0
  182.7620  178.3590  140.1630 C   0  0  1  0  0  3  0  0  0  0  0  0
  180.7760  175.2450  136.6250 C   0  0  2  0  0  3  0  0  0  0  0  0
  185.2150  177.1280  137.5310 C   0  0  0  0  0  3  0  0  0  0  0  0
  185.5760  178.7730  142.8810 C   0  0  2  0  0  3  0  0  0  0  0  0
  183.9500  178.8340  145.8340 F   0  0  0  0  0  0  0  0  0  0  0  0
  186.5880  177.9510  142.4200 F   0  0  0  0  0  0  0  0  0  0  0  0
  182.6220  178.8940  143.8870 C   0  0  0  0  0  3  0  0  0  0  0  0
  183.4310  178.3320  141.5480 C   0  0  2  0  0  3  0  0  0  0  0  0
  184.8640  178.0930  143.8870 O   0  0  0  0  0  0  0  0  0  0  0  0
  182.3790  178.6240  142.5940 C   0  0  0  0  0  3  0  0  0  0  0  0
  184.6780  179.2270  141.7080 C   0  0  2  0  0  3  0  0  0  0  0  0
  185.4300  179.3100  140.5510 F   0  0  0  0  0  0  0  0  0  0  0  0
  184.0010  179.0300  144.4670 C   0  0  2  0  0  3  0  0  0  0  0  0
  180.5580  175.8010  135.3490 O   0  0  0  0  0  0  0  0  0  0  0  0
  180.5310  177.1970  135.4740 C   0  0  0  0  0  1  0  0  0  0  0  0
  180.6890  179.0220  139.1640 C   0  0  0  0  0  2  0  0  0  0  0  0
  181.2820  181.0130  137.8030 C   0  0  0  0  0  2  0  0  0  0  0  0
  179.4940  182.2100  138.8530 N   0  0  0  0  0  0  0  0  0  0  0  0
  180.0690  181.3250  139.7870 C   0  0  0  0  0  0  0  0  0  0  0  0
  179.7060  181.2890  140.9920 O   0  0  0  0  0  0  0  0  0  0  0  0
  180.1380  182.0100  137.5690 C   0  0  0  0  0  3  0  0  0  0  0  0
  181.1390  180.4750  139.2250 C   0  0  1  0  0  3  0  0  0  0  0  0
  2  5  1  6  0  0  0
  2  6  1  0  0  0  0
  3  1  1  0  0  0  0
  4  2  1  0  0  0  0
  4  1  2  0  0  0  0
  6 10  1  0  0  0  0
  7  4  1  0  0  0  0
  8  7  1  0  0  0  0
  9  7  2  0  0  0  0
  9 13  1  0  0  0  0
 11  1  1  6  0  0  0
 11 10  1  0  0  0  0
 11 18  1  0  0  0  0
 12 24  1  6  0  0  0
 12  8  1  0  0  0  0
 12  5  1  0  0  0  0
 13  3  2  0  0  0  0
 14 16  1  6  0  0  0
 14 19  1  0  0  0  0
 17 23  1  0  0  0  0
 18 21  1  0  0  0  0
 18 20  1  1  0  0  0
 19 23  1  0  0  0  0
 20 17  2  0  0  0  0
 21 22  1  6  0  0  0
 21 14  1  0  0  0  0
 23 15  1  1  0  0  0
 24 25  1  0  0  0  0
 26 10  1  0  0  0  0
 27 32  1  0  0  0  0
 28 29  1  0  0  0  0
 29 30  2  0  0  0  0
 31 27  1  0  0  0  0
 31 28  2  0  0  0  0
 32 26  1  6  0  0  0
 32 29  1  0  0  0  0
M  END
>  <MODEL>
2

>  <REMARK>
 VINA RESULT:      -6.0      2.311      4.127
  Name = 
  4 active torsions:
  status: ('A' for Active; 'I' for Inactive)
    1  A    between atoms: O_13  and  C_29
    2  A    between atoms: C_16  and  C_27
    3  A    between atoms: N_24  and  C_28
    4  A    between atoms: C_28  and  C_32
                            x       y       z     vdW  Elec       q    Type
                         _______ _______ _______ _____ _____    ______ ____

>  <TORSDO>
F 4

$$$$
=
 OpenBabel10262421103D

 32 36  0  0  1  0  0  0  0  0999 V2000
  182.6620  177.2550  139.8520 C   0  0  0  0  0  0  0  0  0  0  0  0
  183.9700  178.5940  138.1430 C   0  0  2  0  0  3  0  0  0  0  0  0
  181.9200  176.1130  140.1820 C   0  0  0  0  0  3  0  0  0  0  0  0
  183.0550  177.4670  138.5210 C   0  0  0  0  0  0  0  0  0  0  0  0
  185.2810  178.0360  137.5930 C   0  0  0  0  0  2  0  0  0  0  0  0
  184.2020  179.6130  139.2690 C   0  0  0  0  0  2  0  0  0  0  0  0
  182.7360  176.5170  137.5400 C   0  0  0  0  0  0  0  0  0  0  0  0
  183.3320  176.7420  135.8600 S   0  0  0  0  0  0  0  0  0  0  0  0
  182.0090  175.3740  137.8800 C   0  0  0  0  0  3  0  0  0  0  0  0
  184.2630  179.0280  140.6170 N   0  0  0  0  0  0  0  0  0  0  0  0
  183.0840  178.2100  140.9390 C   0  0  1  0  0  3  0  0  0  0  0  0
  185.0710  177.1380  136.3500 C   0  0  2  0  0  3  0  0  0  0  0  0
  181.5910  175.1770  139.1980 C   0  0  0  0  0  3  0  0  0  0  0  0
  179.8120  180.3740  141.2340 C   0  0  2  0  0  3  0  0  0  0  0  0
  178.9310  180.2050  144.4840 F   0  0  0  0  0  0  0  0  0  0  0  0
  180.0740  181.4620  140.4210 F   0  0  0  0  0  0  0  0  0  0  0  0
  180.6910  178.8010  143.7850 C   0  0  0  0  0  3  0  0  0  0  0  0
  181.9650  179.0310  141.6010 C   0  0  2  0  0  3  0  0  0  0  0  0
  180.0400  180.7450  142.5730 O   0  0  0  0  0  0  0  0  0  0  0  0
  181.7270  178.4840  142.9900 C   0  0  0  0  0  3  0  0  0  0  0  0
  180.6570  179.1580  140.7920 C   0  0  2  0  0  3  0  0  0  0  0  0
  180.8740  179.2140  139.4270 F   0  0  0  0  0  0  0  0  0  0  0  0
  179.5590  179.6960  143.3640 C   0  0  2  0  0  3  0  0  0  0  0  0
  185.9480  176.0380  136.2850 O   0  0  0  0  0  0  0  0  0  0  0  0
  187.1080  176.3550  137.0070 C   0  0  0  0  0  1  0  0  0  0  0  0
  185.4720  178.2190  140.7540 C   0  0  0  0  0  2  0  0  0  0  0  0
  185.9680  178.2230  143.1870 C   0  0  0  0  0  2  0  0  0  0  0  0
  188.1660  177.4120  142.6960 N   0  0  0  0  0  0  0  0  0  0  0  0
  187.7590  178.2900  141.6720 C   0  0  0  0  0  0  0  0  0  0  0  0
  188.5190  178.6190  140.7240 O   0  0  0  0  0  0  0  0  0  0  0  0
  187.0700  177.2500  143.6310 C   0  0  0  0  0  3  0  0  0  0  0  0
  186.3790  178.7950  141.8320 C   0  0  1  0  0  3  0  0  0  0  0  0
  1  3  1  0  0  0  0
  2  5  1  1  0  0  0
  2  4  1  0  0  0  0
  2  6  1  0  0  0  0
  4  1  2  0  0  0  0
  6 10  1  0  0  0  0
  7  9  2  0  0  0  0
  7  4  1  0  0  0  0
  8 12  1  0  0  0  0
  8  7  1  0  0  0  0
  9 13  1  0  0  0  0
 10 26  1  0  0  0  0
 10 11  1  0  0  0  0
 11  1  1  6  0  0  0
 11 18  1  0  0  0  0
 12 24  1  1  0  0  0
 12  5  1  0  0  0  0
 13  3  2  0  0  0  0
 14 16  1  6  0  0  0
 14 19  1  0  0  0  0
 18 20  1  1  0  0  0
 19 23  1  0  0  0  0
 20 17  2  0  0  0  0
 21 22  1  6  0  0  0
 21 14  1  0  0  0  0
 21 18  1  0  0  0  0
 23 17  1  0  0  0  0
 23 15  1  1  0  0  0
 24 25  1  0  0  0  0
 27 31  1  0  0  0  0
 28 31  2  0  0  0  0
 29 32  1  0  0  0  0
 29 28  1  0  0  0  0
 30 29  2  0  0  0  0
 32 26  1  6  0  0  0
 32 27  1  0  0  0  0
M  END
>  <MODEL>
3

>  <REMARK>
 VINA RESULT:      -5.9      3.109      4.435
  Name = 
  4 active torsions:
  status: ('A' for Active; 'I' for Inactive)
    1  A    between atoms: O_13  and  C_29
    2  A    between atoms: C_16  and  C_27
    3  A    between atoms: N_24  and  C_28
    4  A    between atoms: C_28  and  C_32
                            x       y       z     vdW  Elec       q    Type
                         _______ _______ _______ _____ _____    ______ ____

>  <TORSDO>
F 4

$$$$
=
 OpenBabel10262421103D

 32 36  0  0  1  0  0  0  0  0999 V2000
  183.3040  177.0580  139.0240 C   0  0  0  0  0  0  0  0  0  0  0  0
  185.3190  178.4400  138.3450 C   0  0  2  0  0  3  0  0  0  0  0  0
  182.5110  175.9160  138.8580 C   0  0  0  0  0  3  0  0  0  0  0  0
  184.3540  177.3120  138.1260 C   0  0  0  0  0  0  0  0  0  0  0  0
  186.7230  177.8840  138.5720 C   0  0  0  0  0  2  0  0  0  0  0  0
  184.8960  179.4150  139.4560 C   0  0  0  0  0  2  0  0  0  0  0  0
  184.6240  176.4030  137.0940 C   0  0  0  0  0  0  0  0  0  0  0  0
  186.0320  176.6790  136.0140 S   0  0  0  0  0  0  0  0  0  0  0  0
  183.8380  175.2580  136.9440 C   0  0  0  0  0  3  0  0  0  0  0  0
  184.2230  178.7820  140.5990 N   0  0  0  0  0  0  0  0  0  0  0  0
  183.0630  177.9690  140.2010 C   0  0  1  0  0  3  0  0  0  0  0  0
  187.2260  177.0350  137.3810 C   0  0  2  0  0  3  0  0  0  0  0  0
  182.7750  175.0200  137.8180 C   0  0  0  0  0  3  0  0  0  0  0  0
  179.8070  179.6990  141.5700 C   0  0  2  0  0  3  0  0  0  0  0  0
  178.9310  181.9330  139.2010 F   0  0  0  0  0  0  0  0  0  0  0  0
  179.1010  178.6520  142.1330 F   0  0  0  0  0  0  0  0  0  0  0  0
  181.0140  180.8610  138.9340 C   0  0  0  0  0  3  0  0  0  0  0  0
  181.7570  178.7810  140.1830 C   0  0  2  0  0  3  0  0  0  0  0  0
  179.2750  179.9680  140.2940 O   0  0  0  0  0  0  0  0  0  0  0  0
  181.8630  179.8350  139.1050 C   0  0  0  0  0  3  0  0  0  0  0  0
  181.3170  179.3730  141.5380 C   0  0  2  0  0  3  0  0  0  0  0  0
  181.6400  178.5610  142.6100 F   0  0  0  0  0  0  0  0  0  0  0  0
  179.8670  181.1590  139.8590 C   0  0  2  0  0  3  0  0  0  0  0  0
  188.0080  175.9250  137.7600 O   0  0  0  0  0  0  0  0  0  0  0  0
  187.9910  174.9950  136.7110 C   0  0  0  0  0  1  0  0  0  0  0  0
  185.1720  177.9530  141.3380 C   0  0  0  0  0  2  0  0  0  0  0  0
  184.8080  179.3860  143.3330 C   0  0  0  0  0  2  0  0  0  0  0  0
  186.0650  177.8190  144.6350 N   0  0  0  0  0  0  0  0  0  0  0  0
  186.6120  177.8850  143.3370 C   0  0  0  0  0  0  0  0  0  0  0  0
  187.6540  177.2570  143.0120 O   0  0  0  0  0  0  0  0  0  0  0  0
  184.8840  178.6590  144.6830 C   0  0  0  0  0  3  0  0  0  0  0  0
  185.8650  178.7700  142.4190 C   0  0  1  0  0  3  0  0  0  0  0  0
  2  5  1  1  0  0  0
  2  6  1  0  0  0  0
  3  1  1  0  0  0  0
  4  2  1  0  0  0  0
  4  1  2  0  0  0  0
  6 10  1  0  0  0  0
  7  4  1  0  0  0  0
  8  7  1  0  0  0  0
  8 12  1  0  0  0  0
  9  7  2  0  0  0  0
  9 13  1  0  0  0  0
 10 26  1  0  0  0  0
 11  1  1  6  0  0  0
 11 10  1  0  0  0  0
 12 24  1  1  0  0  0
 12  5  1  0  0  0  0
 13  3  2  0  0  0  0
 14 16  1  6  0  0  0
 17 20  2  0  0  0  0
 17 23  1  0  0  0  0
 18 20  1  6  0  0  0
 18 11  1  0  0  0  0
 18 21  1  0  0  0  0
 19 14  1  0  0  0  0
 21 14  1  0  0  0  0
 21 22  1  1  0  0  0
 23 15  1  6  0  0  0
 23 19  1  0  0  0  0
 25 24  1  0  0  0  0
 27 31  1  0  0  0  0
 28 31  2  0  0  0  0
 29 28  1  0  0  0  0
 30 29  2  0  0  0  0
 32 26  1  6  0  0  0
 32 27  1  0  0  0  0
 32 29  1  0  0  0  0
M  END
>  <MODEL>
4

>  <REMARK>
 VINA RESULT:      -5.7      3.108      5.575
  Name = 
  4 active torsions:
  status: ('A' for Active; 'I' for Inactive)
    1  A    between atoms: O_13  and  C_29
    2  A    between atoms: C_16  and  C_27
    3  A    between atoms: N_24  and  C_28
    4  A    between atoms: C_28  and  C_32
                            x       y       z     vdW  Elec       q    Type
                         _______ _______ _______ _____ _____    ______ ____

>  <TORSDO>
F 4

$$$$
=
 OpenBabel10262421103D

 32 36  0  0  1  0  0  0  0  0999 V2000
  187.0010  178.3110  142.2370 C   0  0  0  0  0  0  0  0  0  0  0  0
  187.7230  176.7600  144.1090 C   0  0  2  0  0  3  0  0  0  0  0  0
  186.0830  179.2320  141.7190 C   0  0  0  0  0  3  0  0  0  0  0  0
  186.7120  177.6440  143.4390 C   0  0  0  0  0  0  0  0  0  0  0  0
  188.1060  177.3450  145.4650 C   0  0  0  0  0  2  0  0  0  0  0  0
  188.9540  176.4530  143.2420 C   0  0  0  0  0  2  0  0  0  0  0  0
  185.5260  177.9310  144.1290 C   0  0  0  0  0  0  0  0  0  0  0  0
  185.2120  177.1530  145.7170 S   0  0  0  0  0  0  0  0  0  0  0  0
  184.6230  178.8630  143.6130 C   0  0  0  0  0  3  0  0  0  0  0  0
  189.3930  177.5690  142.3910 N   0  0  0  0  0  0  0  0  0  0  0  0
  188.3170  178.0920  141.5350 C   0  0  1  0  0  3  0  0  0  0  0  0
  186.8910  177.5020  146.4110 C   0  0  2  0  0  3  0  0  0  0  0  0
  184.8950  179.5050  142.4020 C   0  0  0  0  0  3  0  0  0  0  0  0
  187.1510  177.3190  137.8580 C   0  0  2  0  0  3  0  0  0  0  0  0
  189.5980  175.4120  136.5380 F   0  0  0  0  0  0  0  0  0  0  0  0
  185.7950  177.0870  137.9950 F   0  0  0  0  0  0  0  0  0  0  0  0
  190.0160  176.3630  138.6540 C   0  0  0  0  0  3  0  0  0  0  0  0
  188.2550  177.3840  140.1710 C   0  0  2  0  0  3  0  0  0  0  0  0
  187.8170  176.0810  137.7850 O   0  0  0  0  0  0  0  0  0  0  0  0
  189.6310  176.8490  139.8460 C   0  0  0  0  0  3  0  0  0  0  0  0
  187.6620  178.2120  139.0110 C   0  0  2  0  0  3  0  0  0  0  0  0
  186.6530  179.0640  139.4220 F   0  0  0  0  0  0  0  0  0  0  0  0
  189.1420  176.3610  137.4320 C   0  0  2  0  0  3  0  0  0  0  0  0
  186.9450  178.6500  147.2260 O   0  0  0  0  0  0  0  0  0  0  0  0
  187.8230  178.3940  148.2890 C   0  0  0  0  0  1  0  0  0  0  0  0
  189.9270  178.6460  143.2180 C   0  0  0  0  0  2  0  0  0  0  0  0
  191.3650  177.8800  145.0930 C   0  0  0  0  0  2  0  0  0  0  0  0
  192.0560  176.0240  143.7480 N   0  0  0  0  0  0  0  0  0  0  0  0
  191.8620  177.1470  142.9190 C   0  0  0  0  0  0  0  0  0  0  0  0
  192.1180  177.1280  141.6870 O   0  0  0  0  0  0  0  0  0  0  0  0
  191.6800  176.3780  145.1030 C   0  0  0  0  0  3  0  0  0  0  0  0
  191.3580  178.3380  143.6360 C   0  0  1  0  0  3  0  0  0  0  0  0
  1  4  1  0  0  0  0
  2  6  1  6  0  0  0
  2  5  1  0  0  0  0
  3  1  2  0  0  0  0
  3 13  1  0  0  0  0
  4  2  1  0  0  0  0
  4  7  2  0  0  0  0
  5 12  1  0  0  0  0
  7  8  1  0  0  0  0
  8 12  1  0  0  0  0
  9  7  1  0  0  0  0
 10 26  1  0  0  0  0
 10  6  1  0  0  0  0
 11  1  1  1  0  0  0
 11 10  1  0  0  0  0
 12 24  1  6  0  0  0
 13  9  2  0  0  0  0
 14 16  1  1  0  0  0
 14 21  1  0  0  0  0
 17 20  2  0  0  0  0
 18 20  1  6  0  0  0
 18 11  1  0  0  0  0
 19 14  1  0  0  0  0
 21 22  1  1  0  0  0
 21 18  1  0  0  0  0
 23 15  1  6  0  0  0
 23 19  1  0  0  0  0
 23 17  1  0  0  0  0
 24 25  1  0  0  0  0
 27 31  1  0  0  0  0
 28 31  2  0  0  0  0
 29 32  1  0  0  0  0
 29 28  1  0  0  0  0
 30 29  2  0  0  0  0
 32 26  1  6  0  0  0
 32 27  1  0  0  0  0
M  END
>  <MODEL>
5

>  <REMARK>
 VINA RESULT:      -4.9      4.950      8.475
  Name = 
  4 active torsions:
  status: ('A' for Active; 'I' for Inactive)
    1  A    between atoms: O_13  and  C_29
    2  A    between atoms: C_16  and  C_27
    3  A    between atoms: N_24  and  C_28
    4  A    between atoms: C_28  and  C_32
                            x       y       z     vdW  Elec       q    Type
                         _______ _______ _______ _____ _____    ______ ____

>  <TORSDO>
F 4

$$$$
=
 OpenBabel10262421103D

 32 36  0  0  1  0  0  0  0  0999 V2000
  190.8550  176.1410  137.8260 C   0  0  0  0  0  0  0  0  0  0  0  0
  189.6190  176.6870  135.6810 C   0  0  2  0  0  3  0  0  0  0  0  0
  191.0610  176.3660  139.1930 C   0  0  0  0  0  3  0  0  0  0  0  0
  189.9830  176.9740  137.1080 C   0  0  0  0  0  0  0  0  0  0  0  0
  188.1250  176.3880  135.5780 C   0  0  0  0  0  2  0  0  0  0  0  0
  190.4750  175.5890  135.0290 C   0  0  0  0  0  2  0  0  0  0  0  0
  189.2970  178.0020  137.7700 C   0  0  0  0  0  0  0  0  0  0  0  0
  188.1030  178.9970  136.8690 S   0  0  0  0  0  0  0  0  0  0  0  0
  189.4950  178.2110  139.1370 C   0  0  0  0  0  3  0  0  0  0  0  0
  190.8540  174.4940  135.9330 N   0  0  0  0  0  0  0  0  0  0  0  0
  191.5230  174.9670  137.1550 C   0  0  1  0  0  3  0  0  0  0  0  0
  187.2470  177.5600  136.0790 C   0  0  2  0  0  3  0  0  0  0  0  0
  190.3860  177.4010  139.8460 C   0  0  0  0  0  3  0  0  0  0  0  0
  195.2360  173.7290  136.7670 C   0  0  2  0  0  3  0  0  0  0  0  0
  196.9320  176.3840  135.5680 F   0  0  0  0  0  0  0  0  0  0  0  0
  195.4370  172.9610  137.9000 F   0  0  0  0  0  0  0  0  0  0  0  0
  194.5860  176.5830  135.6790 C   0  0  0  0  0  3  0  0  0  0  0  0
  193.0500  175.0490  136.9930 C   0  0  2  0  0  3  0  0  0  0  0  0
  195.8030  175.0000  136.9760 O   0  0  0  0  0  0  0  0  0  0  0  0
  193.3830  176.2910  136.1990 C   0  0  0  0  0  3  0  0  0  0  0  0
  193.7320  173.7890  136.4190 C   0  0  2  0  0  3  0  0  0  0  0  0
  193.1150  172.6160  136.8170 F   0  0  0  0  0  0  0  0  0  0  0  0
  195.7700  175.6600  135.7420 C   0  0  2  0  0  3  0  0  0  0  0  0
  186.0780  177.1520  136.7500 O   0  0  0  0  0  0  0  0  0  0  0  0
  186.1250  175.7600  136.9110 C   0  0  0  0  0  1  0  0  0  0  0  0
  189.6730  173.7140  136.2920 C   0  0  0  0  0  2  0  0  0  0  0  0
  190.1670  171.9710  134.5940 C   0  0  0  0  0  2  0  0  0  0  0  0
  188.2650  170.7390  135.3670 N   0  0  0  0  0  0  0  0  0  0  0  0
  187.9890  172.1190  135.4570 C   0  0  0  0  0  0  0  0  0  0  0  0
  186.8650  172.5590  135.8130 O   0  0  0  0  0  0  0  0  0  0  0  0
  189.6350  170.5690  134.9210 C   0  0  0  0  0  3  0  0  0  0  0  0
  189.1270  172.9810  135.0750 C   0  0  1  0  0  3  0  0  0  0  0  0
  1  3  1  0  0  0  0
  2  6  1  1  0  0  0
  2  4  1  0  0  0  0
  3 13  2  0  0  0  0
  4  7  1  0  0  0  0
  4  1  2  0  0  0  0
  5  2  1  0  0  0  0
  5 12  1  0  0  0  0
  6 10  1  0  0  0  0
  7  9  2  0  0  0  0
  8  7  1  0  0  0  0
  9 13  1  0  0  0  0
 10 26  1  0  0  0  0
 10 11  1  0  0  0  0
 11  1  1  6  0  0  0
 12 24  1  1  0  0  0
 12  8  1  0  0  0  0
 14 19  1  0  0  0  0
 14 16  1  1  0  0  0
 17 23  1  0  0  0  0
 17 20  2  0  0  0  0
 18 20  1  6  0  0  0
 18 11  1  0  0  0  0
 21 14  1  0  0  0  0
 21 22  1  1  0  0  0
 21 18  1  0  0  0  0
 23 15  1  1  0  0  0
 23 19  1  0  0  0  0
 24 25  1  0  0  0  0
 27 31  1  0  0  0  0
 27 32  1  0  0  0  0
 28 29  1  0  0  0  0
 29 30  2  0  0  0  0
 31 28  2  0  0  0  0
 32 29  1  0  0  0  0
 32 26  1  1  0  0  0
M  END
>  <MODEL>
6

>  <REMARK>
 VINA RESULT:      -4.9      6.710      9.934
  Name = 
  4 active torsions:
  status: ('A' for Active; 'I' for Inactive)
    1  A    between atoms: O_13  and  C_29
    2  A    between atoms: C_16  and  C_27
    3  A    between atoms: N_24  and  C_28
    4  A    between atoms: C_28  and  C_32
                            x       y       z     vdW  Elec       q    Type
                         _______ _______ _______ _____ _____    ______ ____

>  <TORSDO>
F 4

$$$$
=
 OpenBabel10262421103D

 32 36  0  0  1  0  0  0  0  0999 V2000
  189.5150  174.6330  136.8470 C   0  0  0  0  0  0  0  0  0  0  0  0
  191.0200  176.6700  136.7320 C   0  0  2  0  0  3  0  0  0  0  0  0
  189.3280  173.2570  136.6660 C   0  0  0  0  0  3  0  0  0  0  0  0
  190.7140  175.2330  136.4300 C   0  0  0  0  0  0  0  0  0  0  0  0
  192.2370  176.7590  137.6500 C   0  0  0  0  0  2  0  0  0  0  0  0
  189.8220  177.4600  137.2810 C   0  0  0  0  0  2  0  0  0  0  0  0
  191.7290  174.4440  135.8690 C   0  0  0  0  0  0  0  0  0  0  0  0
  193.3000  175.1990  135.4350 S   0  0  0  0  0  0  0  0  0  0  0  0
  191.5410  173.0700  135.7060 C   0  0  0  0  0  3  0  0  0  0  0  0
  188.9370  176.6890  138.1650 N   0  0  0  0  0  0  0  0  0  0  0  0
  188.4530  175.4450  137.5460 C   0  0  1  0  0  3  0  0  0  0  0  0
  193.4980  176.1100  137.0320 C   0  0  2  0  0  3  0  0  0  0  0  0
  190.3370  172.4780  136.0930 C   0  0  0  0  0  3  0  0  0  0  0  0
  184.8900  174.5980  136.1110 C   0  0  2  0  0  3  0  0  0  0  0  0
  183.5310  177.5760  135.3060 F   0  0  0  0  0  0  0  0  0  0  0  0
  185.1150  173.4670  135.3460 F   0  0  0  0  0  0  0  0  0  0  0  0
  185.5710  177.6220  136.4860 C   0  0  0  0  0  3  0  0  0  0  0  0
  187.1320  175.6430  136.7850 C   0  0  2  0  0  3  0  0  0  0  0  0
  184.8410  175.7170  135.2590 O   0  0  0  0  0  0  0  0  0  0  0  0
  186.7570  177.1060  136.8480 C   0  0  0  0  0  3  0  0  0  0  0  0
  185.9680  174.7230  137.2110 C   0  0  2  0  0  3  0  0  0  0  0  0
  186.3920  173.4640  137.5940 F   0  0  0  0  0  0  0  0  0  0  0  0
  184.4010  176.7920  136.0380 C   0  0  2  0  0  3  0  0  0  0  0  0
  194.3190  175.4510  137.9680 O   0  0  0  0  0  0  0  0  0  0  0  0
  195.1150  174.5230  137.2810 C   0  0  0  0  0  1  0  0  0  0  0  0
  189.6280  176.3780  139.4130 C   0  0  0  0  0  2  0  0  0  0  0  0
  188.3220  178.2520  140.3870 C   0  0  0  0  0  2  0  0  0  0  0  0
  188.8860  177.4540  142.5720 N   0  0  0  0  0  0  0  0  0  0  0  0
  189.9710  177.2250  141.7030 C   0  0  0  0  0  0  0  0  0  0  0  0
  191.0670  176.7520  142.1030 O   0  0  0  0  0  0  0  0  0  0  0  0
  187.7880  178.0090  141.8050 C   0  0  0  0  0  3  0  0  0  0  0  0
  189.7060  177.6120  140.3010 C   0  0  1  0  0  3  0  0  0  0  0  0
  2  6  1  1  0  0  0
  2  5  1  0  0  0  0
  3  1  1  0  0  0  0
  4  2  1  0  0  0  0
  4  1  2  0  0  0  0
  6 10  1  0  0  0  0
  7  4  1  0  0  0  0
  8  7  1  0  0  0  0
  8 12  1  0  0  0  0
  9  7  2  0  0  0  0
  9 13  1  0  0  0  0
 10 26  1  0  0  0  0
 11  1  1  6  0  0  0
 11 10  1  0  0  0  0
 12  5  1  0  0  0  0
 12 24  1  1  0  0  0
 13  3  2  0  0  0  0
 14 16  1  6  0  0  0
 14 21  1  0  0  0  0
 17 20  2  0  0  0  0
 18 20  1  1  0  0  0
 18 21  1  0  0  0  0
 18 11  1  0  0  0  0
 19 23  1  0  0  0  0
 19 14  1  0  0  0  0
 21 22  1  6  0  0  0
 23 15  1  6  0  0  0
 23 17  1  0  0  0  0
 25 24  1  0  0  0  0
 27 31  1  0  0  0  0
 29 30  2  0  0  0  0
 29 28  1  0  0  0  0
 31 28  2  0  0  0  0
 32 26  1  6  0  0  0
 32 27  1  0  0  0  0
 32 29  1  0  0  0  0
M  END
>  <MODEL>
7

>  <REMARK>
 VINA RESULT:      -4.8      5.640      9.191
  Name = 
  4 active torsions:
  status: ('A' for Active; 'I' for Inactive)
    1  A    between atoms: O_13  and  C_29
    2  A    between atoms: C_16  and  C_27
    3  A    between atoms: N_24  and  C_28
    4  A    between atoms: C_28  and  C_32
                            x       y       z     vdW  Elec       q    Type
                         _______ _______ _______ _____ _____    ______ ____

>  <TORSDO>
F 4

$$$$
=
 OpenBabel10262421103D

 32 36  0  0  1  0  0  0  0  0999 V2000
  186.0540  178.5660  144.8210 C   0  0  0  0  0  0  0  0  0  0  0  0
  187.7240  176.7010  144.4200 C   0  0  2  0  0  3  0  0  0  0  0  0
  185.4380  179.4690  145.6970 C   0  0  0  0  0  3  0  0  0  0  0  0
  186.9300  177.5930  145.3280 C   0  0  0  0  0  0  0  0  0  0  0  0
  189.2150  176.9760  144.5960 C   0  0  0  0  0  2  0  0  0  0  0  0
  187.2920  176.7700  142.9460 C   0  0  0  0  0  2  0  0  0  0  0  0
  187.2110  177.5560  146.7010 C   0  0  0  0  0  0  0  0  0  0  0  0
  188.4130  176.3780  147.3290 S   0  0  0  0  0  0  0  0  0  0  0  0
  186.6050  178.4700  147.5670 C   0  0  0  0  0  3  0  0  0  0  0  0
  186.8760  178.1060  142.4950 N   0  0  0  0  0  0  0  0  0  0  0  0
  185.8190  178.6890  143.3360 C   0  0  1  0  0  3  0  0  0  0  0  0
  189.6950  176.7460  146.0490 C   0  0  2  0  0  3  0  0  0  0  0  0
  185.7090  179.4180  147.0670 C   0  0  0  0  0  3  0  0  0  0  0  0
  181.9040  178.8570  142.9990 C   0  0  2  0  0  3  0  0  0  0  0  0
  181.1990  177.2950  140.0960 F   0  0  0  0  0  0  0  0  0  0  0  0
  181.4620  178.6190  144.2880 F   0  0  0  0  0  0  0  0  0  0  0  0
  183.4750  177.6930  140.5640 C   0  0  0  0  0  3  0  0  0  0  0  0
  184.4090  178.3380  142.8350 C   0  0  2  0  0  3  0  0  0  0  0  0
  181.8010  177.6650  142.2580 O   0  0  0  0  0  0  0  0  0  0  0  0
  184.5110  177.8780  141.3990 C   0  0  0  0  0  3  0  0  0  0  0  0
  183.3380  179.4330  143.0220 C   0  0  2  0  0  3  0  0  0  0  0  0
  183.5240  180.1730  144.1750 F   0  0  0  0  0  0  0  0  0  0  0  0
  182.0490  178.0030  140.9230 C   0  0  2  0  0  3  0  0  0  0  0  0
  190.6840  177.6550  146.4740 O   0  0  0  0  0  0  0  0  0  0  0  0
  191.3060  177.1280  147.6150 C   0  0  0  0  0  1  0  0  0  0  0  0
  188.0280  179.0020  142.4640 C   0  0  0  0  0  2  0  0  0  0  0  0
  189.9420  178.1280  141.1450 C   0  0  0  0  0  2  0  0  0  0  0  0
  188.3870  177.0290  139.6960 N   0  0  0  0  0  0  0  0  0  0  0  0
  187.8330  178.2530  140.1240 C   0  0  0  0  0  0  0  0  0  0  0  0
  186.7270  178.6770  139.6980 O   0  0  0  0  0  0  0  0  0  0  0  0
  189.6610  176.8390  140.3600 C   0  0  0  0  0  3  0  0  0  0  0  0
  188.6800  178.9860  141.0890 C   0  0  1  0  0  3  0  0  0  0  0  0
  1  4  2  0  0  0  0
  1  3  1  0  0  0  0
  2  6  1  6  0  0  0
  2  5  1  0  0  0  0
  2  4  1  0  0  0  0
  3 13  2  0  0  0  0
  4  7  1  0  0  0  0
  5 12  1  0  0  0  0
  7  8  1  0  0  0  0
  7  9  2  0  0  0  0
 10  6  1  0  0  0  0
 10 11  1  0  0  0  0
 11  1  1  1  0  0  0
 12 24  1  1  0  0  0
 12  8  1  0  0  0  0
 13  9  1  0  0  0  0
 14 21  1  0  0  0  0
 14 16  1  1  0  0  0
 17 23  1  0  0  0  0
 17 20  2  0  0  0  0
 18 20  1  6  0  0  0
 18 21  1  0  0  0  0
 18 11  1  0  0  0  0
 19 14  1  0  0  0  0
 21 22  1  1  0  0  0
 23 15  1  6  0  0  0
 23 19  1  0  0  0  0
 24 25  1  0  0  0  0
 26 10  1  0  0  0  0
 28 29  1  0  0  0  0
 28 31  2  0  0  0  0
 29 32  1  0  0  0  0
 30 29  2  0  0  0  0
 31 27  1  0  0  0  0
 32 27  1  0  0  0  0
 32 26  1  1  0  0  0
M  END
>  <MODEL>
8

>  <REMARK>
 VINA RESULT:      -4.4      4.165      7.862
  Name = 
  4 active torsions:
  status: ('A' for Active; 'I' for Inactive)
    1  A    between atoms: O_13  and  C_29
    2  A    between atoms: C_16  and  C_27
    3  A    between atoms: N_24  and  C_28
    4  A    between atoms: C_28  and  C_32
                            x       y       z     vdW  Elec       q    Type
                         _______ _______ _______ _____ _____    ______ ____

>  <TORSDO>
F 4

$$$$
=
 OpenBabel10262421103D

 32 36  0  0  1  0  0  0  0  0999 V2000
  184.5130  178.0660  139.2950 C   0  0  0  0  0  0  0  0  0  0  0  0
  182.5070  176.5740  138.8740 C   0  0  2  0  0  3  0  0  0  0  0  0
  185.7280  178.6090  138.8580 C   0  0  0  0  0  3  0  0  0  0  0  0
  183.8750  177.0800  138.5250 C   0  0  0  0  0  0  0  0  0  0  0  0
  181.5220  176.9340  137.7640 C   0  0  0  0  0  2  0  0  0  0  0  0
  182.0100  177.0250  140.2560 C   0  0  0  0  0  2  0  0  0  0  0  0
  184.4390  176.6740  137.3080 C   0  0  0  0  0  0  0  0  0  0  0  0
  183.5660  175.4900  136.2760 S   0  0  0  0  0  0  0  0  0  0  0  0
  185.6430  177.2310  136.8710 C   0  0  0  0  0  3  0  0  0  0  0  0
  182.4160  178.3850  140.6370 N   0  0  0  0  0  0  0  0  0  0  0  0
  183.8710  178.5910  140.5550 C   0  0  1  0  0  3  0  0  0  0  0  0
  181.9270  176.3410  136.3930 C   0  0  2  0  0  3  0  0  0  0  0  0
  186.2940  178.1890  137.6510 C   0  0  0  0  0  3  0  0  0  0  0  0
  186.8330  178.1310  143.1010 C   0  0  2  0  0  3  0  0  0  0  0  0
  185.3830  178.0860  146.1450 F   0  0  0  0  0  0  0  0  0  0  0  0
  187.6540  177.2110  142.4740 F   0  0  0  0  0  0  0  0  0  0  0  0
  184.0020  178.6410  144.3160 C   0  0  0  0  0  3  0  0  0  0  0  0
  184.5850  178.2610  141.8760 C   0  0  2  0  0  3  0  0  0  0  0  0
  186.0540  177.4600  144.0630 O   0  0  0  0  0  0  0  0  0  0  0  0
  183.6550  178.5930  143.0200 C   0  0  0  0  0  3  0  0  0  0  0  0
  185.9830  178.8900  142.0580 C   0  0  2  0  0  3  0  0  0  0  0  0
  186.6840  178.9920  140.8710 F   0  0  0  0  0  0  0  0  0  0  0  0
  185.4080  178.4500  144.8120 C   0  0  2  0  0  3  0  0  0  0  0  0
  181.6400  177.1810  135.2990 O   0  0  0  0  0  0  0  0  0  0  0  0
  181.1120  178.3820  135.7930 C   0  0  0  0  0  1  0  0  0  0  0  0
  181.7360  179.3630  139.7920 C   0  0  0  0  0  2  0  0  0  0  0  0
  179.3310  178.7530  139.8940 C   0  0  0  0  0  2  0  0  0  0  0  0
  179.5540  178.4450  142.2580 N   0  0  0  0  0  0  0  0  0  0  0  0
  180.3870  179.5060  141.8500 C   0  0  0  0  0  0  0  0  0  0  0  0
  181.0480  180.1970  142.6690 O   0  0  0  0  0  0  0  0  0  0  0  0
  178.9310  177.8670  141.0830 C   0  0  0  0  0  3  0  0  0  0  0  0
  180.3880  179.7380  140.3900 C   0  0  1  0  0  3  0  0  0  0  0  0
  2  5  1  6  0  0  0
  2  6  1  0  0  0  0
  3  1  1  0  0  0  0
  4  2  1  0  0  0  0
  4  1  2  0  0  0  0
  6 10  1  0  0  0  0
  7  4  1  0  0  0  0
  8 12  1  0  0  0  0
  8  7  1  0  0  0  0
  9  7  2  0  0  0  0
  9 13  1  0  0  0  0
 11  1  1  6  0  0  0
 11 10  1  0  0  0  0
 11 18  1  0  0  0  0
 12 24  1  6  0  0  0
 12  5  1  0  0  0  0
 13  3  2  0  0  0  0
 14 16  1  6  0  0  0
 14 19  1  0  0  0  0
 17 23  1  0  0  0  0
 18 21  1  0  0  0  0
 18 20  1  1  0  0  0
 19 23  1  0  0  0  0
 20 17  2  0  0  0  0
 21 22  1  6  0  0  0
 21 14  1  0  0  0  0
 23 15  1  1  0  0  0
 24 25  1  0  0  0  0
 26 10  1  0  0  0  0
 27 32  1  0  0  0  0
 27 31  1  0  0  0  0
 29 28  1  0  0  0  0
 29 30  2  0  0  0  0
 31 28  2  0  0  0  0
 32 26  1  6  0  0  0
 32 29  1  0  0  0  0
M  END
>  <MODEL>
9

>  <REMARK>
 VINA RESULT:      -4.4      2.280      4.372
  Name = 
  4 active torsions:
  status: ('A' for Active; 'I' for Inactive)
    1  A    between atoms: O_13  and  C_29
    2  A    between atoms: C_16  and  C_27
    3  A    between atoms: N_24  and  C_28
    4  A    between atoms: C_28  and  C_32
                            x       y       z     vdW  Elec       q    Type
                         _______ _______ _______ _____ _____    ______ ____

>  <TORSDO>
F 4

$$$$
