=
 OpenBabel10262421203D

 32 34  0  0  1  0  0  0  0  0999 V2000
  186.9150  178.8150  141.1040 C   0  0  0  0  0  2  0  0  0  0  0  0
  187.1890  178.1740  139.7440 C   0  0  2  0  0  3  0  0  0  0  0  0
  188.6750  178.1330  139.3740 C   0  0  2  0  0  3  0  0  0  0  0  0
  188.9890  179.0360  138.1610 C   0  0  0  0  0  2  0  0  0  0  0  0
  190.4150  174.4180  137.2990 C   0  0  0  0  0  2  0  0  0  0  0  0
  189.2410  176.6990  139.2990 C   0  0  0  0  0  2  0  0  0  0  0  0
  190.1460  176.3160  135.7020 C   0  0  0  0  0  2  0  0  0  0  0  0
  189.9860  177.1250  136.9600 C   0  0  0  0  0  0  0  0  0  0  0  0
  189.2700  178.2530  136.9060 C   0  0  0  0  0  3  0  0  0  0  0  0
  190.4150  176.6130  138.3270 C   0  0  2  0  0  3  0  0  0  0  0  0
  190.8070  174.9640  135.9380 C   0  0  0  0  0  2  0  0  0  0  0  0
  191.0050  175.2680  138.3280 N   0  0  0  0  0  2  0  0  0  0  0  0
  186.4470  178.8070  138.7400 O   0  0  0  0  0  0  0  0  0  0  0  0
  185.3750  177.9510  138.4830 C   0  0  1  0  0  3  0  0  0  0  0  0
  184.0720  178.7040  138.6890 C   0  0  0  0  0  1  0  0  0  0  0  0
  186.1490  176.3510  136.7850 C   0  0  0  0  0  2  0  0  0  0  0  0
  185.4610  177.4520  137.0770 C   0  0  0  0  0  3  0  0  0  0  0  0
  186.1590  177.9560  141.9200 O   0  0  0  0  0  0  0  0  0  0  0  0
  186.6160  178.0700  143.2490 C   0  0  1  0  0  3  0  0  0  0  0  0
  185.5840  177.8660  144.1750 O   0  0  0  0  0  1  0  0  0  0  0  0
  187.8270  177.2140  143.5350 C   0  0  0  0  0  0  0  0  0  0  0  0
  187.8250  176.0300  143.2360 O   0  0  0  0  0  0  0  0  0  0  0  0
  189.8920  176.7880  144.8680 C   0  0  2  0  0  3  0  0  0  0  0  0
  189.0680  177.8300  144.1300 C   0  0  2  0  0  3  0  0  0  0  0  0
  189.1500  177.8410  145.6660 C   0  0  1  0  0  3  0  0  0  0  0  0
  191.9090  177.1740  146.0730 O   0  0  0  0  0  1  0  0  0  0  0  0
  191.5140  178.5270  144.1640 C   0  0  0  0  0  1  0  0  0  0  0  0
  191.3620  177.1560  144.7910 C   0  0  2  0  0  3  0  0  0  0  0  0
  187.9890  177.1780  146.3960 C   0  0  0  0  0  2  0  0  0  0  0  0
  187.5130  178.0680  147.4900 C   0  0  0  0  0  0  0  0  0  0  0  0
  188.2710  178.2160  148.6450 O   0  0  0  0  0  1  0  0  0  0  0  0
  186.4390  178.7110  147.3570 O   0  0  0  0  0  0  0  0  0  0  0  0
  1 18  1  0  0  0  0
  2  1  1  1  0  0  0
  3  2  1  6  0  0  0
  4  3  1  0  0  0  0
  5 12  1  0  0  0  0
  6  3  1  0  0  0  0
  7 11  1  0  0  0  0
  7  8  1  0  0  0  0
  8 10  1  0  0  0  0
  9  8  2  0  0  0  0
  9  4  1  0  0  0  0
 10 12  1  0  0  0  0
 10  6  1  1  0  0  0
 11  5  1  0  0  0  0
 13  2  1  0  0  0  0
 14 15  1  6  0  0  0
 14 13  1  0  0  0  0
 16 17  2  0  0  0  0
 17 14  1  0  0  0  0
 18 19  1  0  0  0  0
 19 21  1  0  0  0  0
 19 20  1  1  0  0  0
 22 21  2  0  0  0  0
 23 28  1  6  0  0  0
 23 25  1  0  0  0  0
 24 21  1  1  0  0  0
 24 23  1  0  0  0  0
 24 25  1  0  0  0  0
 25 29  1  1  0  0  0
 28 27  1  1  0  0  0
 28 26  1  0  0  0  0
 29 30  1  0  0  0  0
 30 31  1  0  0  0  0
 32 30  2  0  0  0  0
M  END
>  <MODEL>
1

>  <REMARK>
 VINA RESULT:      -7.0      0.000      0.000
  Name = 
  12 active torsions:
  status: ('A' for Active; 'I' for Inactive)
    1  A    between atoms: C_1  and  C_5
    2  A    between atoms: C_1  and  O_30
    3  A    between atoms: C_2  and  C_5
    4  A    between atoms: C_3  and  C_8
    5  A    between atoms: C_3  and  C_20
    6  A    between atoms: C_4  and  C_24
    7  A    between atoms: C_4  and  O_30
    8  A    between atoms: C_5  and  O_14
    9  A    between atoms: C_13  and  O_14
   10  A    between atoms: C_13  and  C_29
   11  A    between atoms: C_15  and  C_26
   12  A    between atoms: C_16  and  C_24
                            x       y       z     vdW  Elec       q    Type
                         _______ _______ _______ _____ _____    ______ ____

>  <TORSDO>
F 12

$$$$
=
 OpenBabel10262421203D

 32 34  0  0  1  0  0  0  0  0999 V2000
  186.6960  178.6680  140.6710 C   0  0  0  0  0  2  0  0  0  0  0  0
  187.0860  178.0390  139.3330 C   0  0  2  0  0  3  0  0  0  0  0  0
  188.5920  178.0790  139.0540 C   0  0  2  0  0  3  0  0  0  0  0  0
  188.9220  178.9380  137.8140 C   0  0  0  0  0  2  0  0  0  0  0  0
  190.6910  174.3880  137.2930 C   0  0  0  0  0  2  0  0  0  0  0  0
  189.2520  176.6840  139.0910 C   0  0  0  0  0  2  0  0  0  0  0  0
  190.4010  176.1790  135.5800 C   0  0  0  0  0  2  0  0  0  0  0  0
  190.1120  177.0380  136.7800 C   0  0  0  0  0  0  0  0  0  0  0  0
  189.3300  178.1120  136.6220 C   0  0  0  0  0  3  0  0  0  0  0  0
  190.4870  176.6280  138.1960 C   0  0  2  0  0  3  0  0  0  0  0  0
  191.1310  174.8880  135.9300 C   0  0  0  0  0  2  0  0  0  0  0  0
  191.1600  175.3270  138.3060 N   0  0  0  0  0  2  0  0  0  0  0  0
  186.3730  178.6280  138.2830 O   0  0  0  0  0  0  0  0  0  0  0  0
  185.4590  177.6570  137.8710 C   0  0  1  0  0  3  0  0  0  0  0  0
  184.0470  178.1600  138.1210 C   0  0  0  0  0  1  0  0  0  0  0  0
  186.2540  176.2590  136.0140 C   0  0  0  0  0  2  0  0  0  0  0  0
  185.6520  177.3740  136.4170 C   0  0  0  0  0  3  0  0  0  0  0  0
  187.6530  178.3770  141.6580 O   0  0  0  0  0  0  0  0  0  0  0  0
  186.9860  178.0380  142.8540 C   0  0  1  0  0  3  0  0  0  0  0  0
  185.6070  177.8800  142.6530 O   0  0  0  0  0  1  0  0  0  0  0  0
  187.6050  176.8590  143.5650 C   0  0  0  0  0  0  0  0  0  0  0  0
  188.2020  176.0030  142.9280 O   0  0  0  0  0  0  0  0  0  0  0  0
  187.5460  178.1460  145.7010 C   0  0  2  0  0  3  0  0  0  0  0  0
  187.5490  176.7640  145.0680 C   0  0  2  0  0  3  0  0  0  0  0  0
  188.7830  177.2820  145.8270 C   0  0  1  0  0  3  0  0  0  0  0  0
  185.8320  179.1410  147.0210 O   0  0  0  0  0  1  0  0  0  0  0  0
  187.7170  178.2720  148.1710 C   0  0  0  0  0  1  0  0  0  0  0  0
  186.7670  178.1070  147.0020 C   0  0  2  0  0  3  0  0  0  0  0  0
  189.8900  177.8760  144.9660 C   0  0  0  0  0  2  0  0  0  0  0  0
  191.1350  177.0770  145.1290 C   0  0  0  0  0  0  0  0  0  0  0  0
  191.8130  177.0890  146.3420 O   0  0  0  0  0  1  0  0  0  0  0  0
  191.5580  176.3670  144.1800 O   0  0  0  0  0  0  0  0  0  0  0  0
  1 18  1  0  0  0  0
  2  1  1  1  0  0  0
  3  6  1  0  0  0  0
  3  2  1  6  0  0  0
  4  3  1  0  0  0  0
  5 12  1  0  0  0  0
  7 11  1  0  0  0  0
  7  8  1  0  0  0  0
  8 10  1  0  0  0  0
  9  8  2  0  0  0  0
  9  4  1  0  0  0  0
 10 12  1  0  0  0  0
 10  6  1  1  0  0  0
 11  5  1  0  0  0  0
 13  2  1  0  0  0  0
 14 15  1  6  0  0  0
 14 13  1  0  0  0  0
 16 17  2  0  0  0  0
 17 14  1  0  0  0  0
 18 19  1  0  0  0  0
 19 20  1  6  0  0  0
 19 21  1  0  0  0  0
 22 21  2  0  0  0  0
 23 25  1  0  0  0  0
 23 28  1  1  0  0  0
 24 21  1  6  0  0  0
 24 23  1  0  0  0  0
 24 25  1  0  0  0  0
 25 29  1  6  0  0  0
 28 26  1  0  0  0  0
 28 27  1  1  0  0  0
 29 30  1  0  0  0  0
 30 31  1  0  0  0  0
 32 30  2  0  0  0  0
M  END
>  <MODEL>
2

>  <REMARK>
 VINA RESULT:      -7.0      0.895      2.549
  Name = 
  12 active torsions:
  status: ('A' for Active; 'I' for Inactive)
    1  A    between atoms: C_1  and  C_5
    2  A    between atoms: C_1  and  O_30
    3  A    between atoms: C_2  and  C_5
    4  A    between atoms: C_3  and  C_8
    5  A    between atoms: C_3  and  C_20
    6  A    between atoms: C_4  and  C_24
    7  A    between atoms: C_4  and  O_30
    8  A    between atoms: C_5  and  O_14
    9  A    between atoms: C_13  and  O_14
   10  A    between atoms: C_13  and  C_29
   11  A    between atoms: C_15  and  C_26
   12  A    between atoms: C_16  and  C_24
                            x       y       z     vdW  Elec       q    Type
                         _______ _______ _______ _____ _____    ______ ____

>  <TORSDO>
F 12

$$$$
=
 OpenBabel10262421203D

 32 34  0  0  1  0  0  0  0  0999 V2000
  186.0390  178.7040  142.0560 C   0  0  0  0  0  2  0  0  0  0  0  0
  186.1900  178.2590  143.5110 C   0  0  2  0  0  3  0  0  0  0  0  0
  187.2510  177.1720  143.7120 C   0  0  2  0  0  3  0  0  0  0  0  0
  188.0110  177.3530  145.0440 C   0  0  0  0  0  2  0  0  0  0  0  0
  191.1360  177.2860  141.2580 C   0  0  0  0  0  2  0  0  0  0  0  0
  188.1350  176.9510  142.4660 C   0  0  0  0  0  2  0  0  0  0  0  0
  191.5240  177.9960  143.6180 C   0  0  0  0  0  2  0  0  0  0  0  0
  190.1660  177.3890  143.8410 C   0  0  0  0  0  0  0  0  0  0  0  0
  189.4200  177.8500  144.8500 C   0  0  0  0  0  3  0  0  0  0  0  0
  189.5190  176.4330  142.8490 C   0  0  2  0  0  3  0  0  0  0  0  0
  192.1850  177.5280  142.3270 C   0  0  0  0  0  2  0  0  0  0  0  0
  190.3230  176.1410  141.6560 N   0  0  0  0  0  2  0  0  0  0  0  0
  184.9580  177.8500  144.0330 O   0  0  0  0  0  0  0  0  0  0  0  0
  184.5540  178.8890  144.8740 C   0  0  1  0  0  3  0  0  0  0  0  0
  183.0900  179.2000  144.6170 C   0  0  0  0  0  1  0  0  0  0  0  0
  185.6910  179.0500  147.0460 C   0  0  0  0  0  2  0  0  0  0  0  0
  184.7500  178.4820  146.2990 C   0  0  0  0  0  3  0  0  0  0  0  0
  184.7520  178.4100  141.5740 O   0  0  0  0  0  0  0  0  0  0  0  0
  184.5610  179.0800  140.3480 C   0  0  1  0  0  3  0  0  0  0  0  0
  185.6920  178.9910  139.5240 O   0  0  0  0  0  1  0  0  0  0  0  0
  183.2940  178.6670  139.6370 C   0  0  0  0  0  0  0  0  0  0  0  0
  182.9490  179.2430  138.6160 O   0  0  0  0  0  0  0  0  0  0  0  0
  181.1030  177.4820  139.5140 C   0  0  2  0  0  3  0  0  0  0  0  0
  182.4850  177.5010  140.1450 C   0  0  2  0  0  3  0  0  0  0  0  0
  181.2400  177.8500  140.9770 C   0  0  1  0  0  3  0  0  0  0  0  0
  179.8840  175.8960  138.2220 O   0  0  0  0  0  1  0  0  0  0  0  0
  179.7370  175.7090  140.5830 C   0  0  0  0  0  1  0  0  0  0  0  0
  180.6170  176.0490  139.3980 C   0  0  2  0  0  3  0  0  0  0  0  0
  180.9480  179.3360  141.1400 C   0  0  0  0  0  2  0  0  0  0  0  0
  180.0820  179.5480  142.3320 C   0  0  0  0  0  0  0  0  0  0  0  0
  179.2760  178.5150  142.7970 O   0  0  0  0  0  0  0  0  0  0  0  0
  180.1000  180.6510  142.9370 O   0  0  0  0  0  1  0  0  0  0  0  0
  2  1  1  6  0  0  0
  2 13  1  0  0  0  0
  3  2  1  6  0  0  0
  3  4  1  0  0  0  0
  5 12  1  0  0  0  0
  5 11  1  0  0  0  0
  6  3  1  0  0  0  0
  7  8  1  0  0  0  0
  8  9  2  0  0  0  0
  9  4  1  0  0  0  0
 10  6  1  6  0  0  0
 10  8  1  0  0  0  0
 11  7  1  0  0  0  0
 12 10  1  0  0  0  0
 13 14  1  0  0  0  0
 14 15  1  1  0  0  0
 14 17  1  0  0  0  0
 17 16  2  0  0  0  0
 18  1  1  0  0  0  0
 19 20  1  6  0  0  0
 19 18  1  0  0  0  0
 21 19  1  0  0  0  0
 22 21  2  0  0  0  0
 23 28  1  1  0  0  0
 23 24  1  0  0  0  0
 23 25  1  0  0  0  0
 24 21  1  6  0  0  0
 24 25  1  0  0  0  0
 25 29  1  6  0  0  0
 26 28  1  0  0  0  0
 28 27  1  1  0  0  0
 29 30  1  0  0  0  0
 30 31  2  0  0  0  0
 30 32  1  0  0  0  0
M  END
>  <MODEL>
3

>  <REMARK>
 VINA RESULT:      -7.0      3.396      7.778
  Name = 
  12 active torsions:
  status: ('A' for Active; 'I' for Inactive)
    1  A    between atoms: C_1  and  C_5
    2  A    between atoms: C_1  and  O_30
    3  A    between atoms: C_2  and  C_5
    4  A    between atoms: C_3  and  C_8
    5  A    between atoms: C_3  and  C_20
    6  A    between atoms: C_4  and  C_24
    7  A    between atoms: C_4  and  O_30
    8  A    between atoms: C_5  and  O_14
    9  A    between atoms: C_13  and  O_14
   10  A    between atoms: C_13  and  C_29
   11  A    between atoms: C_15  and  C_26
   12  A    between atoms: C_16  and  C_24
                            x       y       z     vdW  Elec       q    Type
                         _______ _______ _______ _____ _____    ______ ____

>  <TORSDO>
F 12

$$$$
=
 OpenBabel10262421203D

 32 34  0  0  1  0  0  0  0  0999 V2000
  186.0420  178.6740  141.8750 C   0  0  0  0  0  2  0  0  0  0  0  0
  186.1550  178.3350  143.3610 C   0  0  2  0  0  3  0  0  0  0  0  0
  187.2260  177.2830  143.6690 C   0  0  2  0  0  3  0  0  0  0  0  0
  187.9760  177.5960  144.9820 C   0  0  0  0  0  2  0  0  0  0  0  0
  191.1250  177.2070  141.2350 C   0  0  0  0  0  2  0  0  0  0  0  0
  188.1200  176.9560  142.4540 C   0  0  0  0  0  2  0  0  0  0  0  0
  191.4910  178.1400  143.5200 C   0  0  0  0  0  2  0  0  0  0  0  0
  190.1380  177.5430  143.7910 C   0  0  0  0  0  0  0  0  0  0  0  0
  189.3810  178.0880  144.7500 C   0  0  0  0  0  3  0  0  0  0  0  0
  189.5070  176.4910  142.8910 C   0  0  2  0  0  3  0  0  0  0  0  0
  192.1640  177.5600  142.2820 C   0  0  0  0  0  2  0  0  0  0  0  0
  190.3210  176.0970  141.7340 N   0  0  0  0  0  2  0  0  0  0  0  0
  184.9140  177.9420  143.8740 O   0  0  0  0  0  0  0  0  0  0  0  0
  184.5610  178.9410  144.7830 C   0  0  1  0  0  3  0  0  0  0  0  0
  183.1100  179.3320  144.5580 C   0  0  0  0  0  1  0  0  0  0  0  0
  185.6440  178.9880  146.9880 C   0  0  0  0  0  2  0  0  0  0  0  0
  184.7460  178.4370  146.1770 C   0  0  0  0  0  3  0  0  0  0  0  0
  184.8870  179.4360  141.6220 O   0  0  0  0  0  0  0  0  0  0  0  0
  184.0460  178.7110  140.7530 C   0  0  1  0  0  3  0  0  0  0  0  0
  182.7540  178.5680  141.2780 O   0  0  0  0  0  1  0  0  0  0  0  0
  184.0400  179.2550  139.3440 C   0  0  0  0  0  0  0  0  0  0  0  0
  184.3860  180.4070  139.1300 O   0  0  0  0  0  0  0  0  0  0  0  0
  184.0570  176.9180  138.4710 C   0  0  2  0  0  3  0  0  0  0  0  0
  183.6720  178.3600  138.1870 C   0  0  2  0  0  3  0  0  0  0  0  0
  184.8430  177.7010  137.4400 C   0  0  1  0  0  3  0  0  0  0  0  0
  182.6870  176.5530  136.5580 O   0  0  0  0  0  1  0  0  0  0  0  0
  181.8720  175.7580  138.6410 C   0  0  0  0  0  1  0  0  0  0  0  0
  183.0890  175.9860  137.7670 C   0  0  2  0  0  3  0  0  0  0  0  0
  186.2310  177.9920  137.9950 C   0  0  0  0  0  2  0  0  0  0  0  0
  187.1160  178.4770  136.9010 C   0  0  0  0  0  0  0  0  0  0  0  0
  186.8810  178.0800  135.5910 O   0  0  0  0  0  0  0  0  0  0  0  0
  188.0600  179.2690  137.1580 O   0  0  0  0  0  1  0  0  0  0  0  0
  2  1  1  6  0  0  0
  2 13  1  0  0  0  0
  3  2  1  6  0  0  0
  3  4  1  0  0  0  0
  5 12  1  0  0  0  0
  5 11  1  0  0  0  0
  6  3  1  0  0  0  0
  7  8  1  0  0  0  0
  8  9  2  0  0  0  0
  9  4  1  0  0  0  0
 10  6  1  6  0  0  0
 10  8  1  0  0  0  0
 11  7  1  0  0  0  0
 12 10  1  0  0  0  0
 13 14  1  0  0  0  0
 14 15  1  1  0  0  0
 14 17  1  0  0  0  0
 17 16  2  0  0  0  0
 18  1  1  0  0  0  0
 19 20  1  1  0  0  0
 19 18  1  0  0  0  0
 21 19  1  0  0  0  0
 22 21  2  0  0  0  0
 23 28  1  6  0  0  0
 24 23  1  0  0  0  0
 24 21  1  1  0  0  0
 25 29  1  1  0  0  0
 25 24  1  0  0  0  0
 25 23  1  0  0  0  0
 26 28  1  0  0  0  0
 28 27  1  1  0  0  0
 30 32  1  0  0  0  0
 30 29  1  0  0  0  0
 31 30  2  0  0  0  0
M  END
>  <MODEL>
4

>  <REMARK>
 VINA RESULT:      -6.9      2.930      7.742
  Name = 
  12 active torsions:
  status: ('A' for Active; 'I' for Inactive)
    1  A    between atoms: C_1  and  C_5
    2  A    between atoms: C_1  and  O_30
    3  A    between atoms: C_2  and  C_5
    4  A    between atoms: C_3  and  C_8
    5  A    between atoms: C_3  and  C_20
    6  A    between atoms: C_4  and  C_24
    7  A    between atoms: C_4  and  O_30
    8  A    between atoms: C_5  and  O_14
    9  A    between atoms: C_13  and  O_14
   10  A    between atoms: C_13  and  C_29
   11  A    between atoms: C_15  and  C_26
   12  A    between atoms: C_16  and  C_24
                            x       y       z     vdW  Elec       q    Type
                         _______ _______ _______ _____ _____    ______ ____

>  <TORSDO>
F 12

$$$$
=
 OpenBabel10262421203D

 32 34  0  0  1  0  0  0  0  0999 V2000
  189.0340  177.4000  140.1730 C   0  0  0  0  0  2  0  0  0  0  0  0
  190.0940  177.3960  139.0700 C   0  0  2  0  0  3  0  0  0  0  0  0
  189.5070  177.3100  137.6580 C   0  0  2  0  0  3  0  0  0  0  0  0
  188.8170  178.6270  137.2420 C   0  0  0  0  0  2  0  0  0  0  0  0
  185.6910  174.8560  136.9130 C   0  0  0  0  0  2  0  0  0  0  0  0
  188.6830  176.0250  137.4220 C   0  0  0  0  0  2  0  0  0  0  0  0
  185.2250  177.3070  136.8760 C   0  0  0  0  0  2  0  0  0  0  0  0
  186.7210  177.4140  136.7690 C   0  0  0  0  0  0  0  0  0  0  0  0
  187.3150  178.5220  137.2250 C   0  0  0  0  0  3  0  0  0  0  0  0
  187.6030  176.2420  136.3650 C   0  0  2  0  0  3  0  0  0  0  0  0
  184.6940  175.9260  136.5080 C   0  0  0  0  0  2  0  0  0  0  0  0
  186.8830  174.9940  136.0820 N   0  0  0  0  0  2  0  0  0  0  0  0
  191.0240  176.3730  139.2820 O   0  0  0  0  0  0  0  0  0  0  0  0
  192.2150  176.8410  138.7240 C   0  0  1  0  0  3  0  0  0  0  0  0
  193.1590  177.2600  139.8390 C   0  0  0  0  0  1  0  0  0  0  0  0
  192.1810  174.6360  137.6400 C   0  0  0  0  0  2  0  0  0  0  0  0
  192.8410  175.7600  137.9030 C   0  0  0  0  0  3  0  0  0  0  0  0
  189.6180  177.6510  141.4270 O   0  0  0  0  0  0  0  0  0  0  0  0
  188.6190  178.1090  142.3100 C   0  0  1  0  0  3  0  0  0  0  0  0
  187.3990  178.3200  141.6520 O   0  0  0  0  0  1  0  0  0  0  0  0
  188.4710  177.2430  143.5380 C   0  0  0  0  0  0  0  0  0  0  0  0
  188.0990  176.0840  143.4290 O   0  0  0  0  0  0  0  0  0  0  0  0
  188.2920  176.8970  146.0020 C   0  0  2  0  0  3  0  0  0  0  0  0
  188.8420  177.7820  144.8960 C   0  0  2  0  0  3  0  0  0  0  0  0
  187.6760  178.2620  145.7770 C   0  0  1  0  0  3  0  0  0  0  0  0
  189.0440  178.1610  147.8740 O   0  0  0  0  0  1  0  0  0  0  0  0
  190.6570  176.8370  146.7450 C   0  0  0  0  0  1  0  0  0  0  0  0
  189.2180  176.9510  147.2030 C   0  0  2  0  0  3  0  0  0  0  0  0
  186.2830  178.0830  145.1880 C   0  0  0  0  0  2  0  0  0  0  0  0
  185.2920  178.8270  146.0130 C   0  0  0  0  0  0  0  0  0  0  0  0
  185.6810  179.3970  147.2190 O   0  0  0  0  0  1  0  0  0  0  0  0
  184.1100  178.9670  145.6040 O   0  0  0  0  0  0  0  0  0  0  0  0
  1 18  1  0  0  0  0
  2 13  1  0  0  0  0
  2  1  1  1  0  0  0
  3  2  1  1  0  0  0
  4  3  1  0  0  0  0
  6  3  1  0  0  0  0
  8  7  1  0  0  0  0
  8  9  2  0  0  0  0
  9  4  1  0  0  0  0
 10  8  1  0  0  0  0
 10  6  1  1  0  0  0
 11  7  1  0  0  0  0
 11  5  1  0  0  0  0
 12 10  1  0  0  0  0
 12  5  1  0  0  0  0
 14 13  1  0  0  0  0
 14 15  1  1  0  0  0
 16 17  2  0  0  0  0
 17 14  1  0  0  0  0
 18 19  1  0  0  0  0
 19 20  1  6  0  0  0
 19 21  1  0  0  0  0
 22 21  2  0  0  0  0
 23 28  1  1  0  0  0
 24 21  1  6  0  0  0
 24 25  1  0  0  0  0
 24 23  1  0  0  0  0
 25 29  1  6  0  0  0
 25 23  1  0  0  0  0
 28 27  1  6  0  0  0
 28 26  1  0  0  0  0
 29 30  1  0  0  0  0
 30 31  1  0  0  0  0
 32 30  2  0  0  0  0
M  END
>  <MODEL>
5

>  <REMARK>
 VINA RESULT:      -6.8      2.046      4.037
  Name = 
  12 active torsions:
  status: ('A' for Active; 'I' for Inactive)
    1  A    between atoms: C_1  and  C_5
    2  A    between atoms: C_1  and  O_30
    3  A    between atoms: C_2  and  C_5
    4  A    between atoms: C_3  and  C_8
    5  A    between atoms: C_3  and  C_20
    6  A    between atoms: C_4  and  C_24
    7  A    between atoms: C_4  and  O_30
    8  A    between atoms: C_5  and  O_14
    9  A    between atoms: C_13  and  O_14
   10  A    between atoms: C_13  and  C_29
   11  A    between atoms: C_15  and  C_26
   12  A    between atoms: C_16  and  C_24
                            x       y       z     vdW  Elec       q    Type
                         _______ _______ _______ _____ _____    ______ ____

>  <TORSDO>
F 12

$$$$
=
 OpenBabel10262421203D

 32 34  0  0  1  0  0  0  0  0999 V2000
  185.4540  178.9250  141.7680 C   0  0  0  0  0  2  0  0  0  0  0  0
  183.9780  178.5260  141.7620 C   0  0  2  0  0  3  0  0  0  0  0  0
  183.3690  178.4510  140.3580 C   0  0  2  0  0  3  0  0  0  0  0  0
  182.1810  177.4670  140.2990 C   0  0  0  0  0  2  0  0  0  0  0  0
  185.6120  176.2390  137.0090 C   0  0  0  0  0  2  0  0  0  0  0  0
  184.4280  178.2810  139.2470 C   0  0  0  0  0  2  0  0  0  0  0  0
  183.6690  174.9130  137.8400 C   0  0  0  0  0  2  0  0  0  0  0  0
  183.2680  176.2190  138.4680 C   0  0  0  0  0  0  0  0  0  0  0  0
  182.5130  176.1900  139.5730 C   0  0  0  0  0  3  0  0  0  0  0  0
  183.8530  177.5550  138.0340 C   0  0  2  0  0  3  0  0  0  0  0  0
  184.6840  175.0750  136.7150 C   0  0  0  0  0  2  0  0  0  0  0  0
  184.8390  177.4760  136.9490 N   0  0  0  0  0  2  0  0  0  0  0  0
  183.2310  179.3820  142.5790 O   0  0  0  0  0  0  0  0  0  0  0  0
  182.8480  178.6030  143.6720 C   0  0  1  0  0  3  0  0  0  0  0  0
  183.6200  179.0520  144.9010 C   0  0  0  0  0  1  0  0  0  0  0  0
  180.6190  179.4260  143.0440 C   0  0  0  0  0  2  0  0  0  0  0  0
  181.3800  178.7560  143.9050 C   0  0  0  0  0  3  0  0  0  0  0  0
  186.1960  178.0810  142.6130 O   0  0  0  0  0  0  0  0  0  0  0  0
  187.4130  177.7590  141.9770 C   0  0  1  0  0  3  0  0  0  0  0  0
  188.0080  178.8840  141.3900 O   0  0  0  0  0  1  0  0  0  0  0  0
  188.3660  177.0010  142.8710 C   0  0  0  0  0  0  0  0  0  0  0  0
  188.3000  175.7840  142.9450 O   0  0  0  0  0  0  0  0  0  0  0  0
  190.0580  176.8520  144.6990 C   0  0  2  0  0  3  0  0  0  0  0  0
  189.4450  177.7360  143.6250 C   0  0  2  0  0  3  0  0  0  0  0  0
  189.1680  178.0050  145.1150 C   0  0  1  0  0  3  0  0  0  0  0  0
  191.8100  177.2340  146.2650 O   0  0  0  0  0  1  0  0  0  0  0  0
  191.7590  178.6200  144.3390 C   0  0  0  0  0  1  0  0  0  0  0  0
  191.5120  177.2350  144.9030 C   0  0  2  0  0  3  0  0  0  0  0  0
  187.8590  177.4470  145.6570 C   0  0  0  0  0  2  0  0  0  0  0  0
  187.7030  177.8340  147.0850 C   0  0  0  0  0  0  0  0  0  0  0  0
  186.5270  178.4340  147.5170 O   0  0  0  0  0  0  0  0  0  0  0  0
  188.6240  177.5920  147.9080 O   0  0  0  0  0  1  0  0  0  0  0  0
  1 18  1  0  0  0  0
  2  1  1  6  0  0  0
  2 13  1  0  0  0  0
  3  2  1  1  0  0  0
  4  3  1  0  0  0  0
  6  3  1  0  0  0  0
  7  8  1  0  0  0  0
  8  9  2  0  0  0  0
  9  4  1  0  0  0  0
 10  8  1  0  0  0  0
 10  6  1  1  0  0  0
 11  5  1  0  0  0  0
 11  7  1  0  0  0  0
 12  5  1  0  0  0  0
 12 10  1  0  0  0  0
 13 14  1  0  0  0  0
 14 17  1  0  0  0  0
 14 15  1  1  0  0  0
 16 17  2  0  0  0  0
 19 20  1  1  0  0  0
 19 18  1  0  0  0  0
 19 21  1  0  0  0  0
 21 22  2  0  0  0  0
 23 28  1  1  0  0  0
 23 25  1  0  0  0  0
 24 21  1  6  0  0  0
 24 23  1  0  0  0  0
 24 25  1  0  0  0  0
 25 29  1  6  0  0  0
 28 27  1  1  0  0  0
 28 26  1  0  0  0  0
 29 30  1  0  0  0  0
 30 31  2  0  0  0  0
 30 32  1  0  0  0  0
M  END
>  <MODEL>
6

>  <REMARK>
 VINA RESULT:      -6.8      2.817      4.697
  Name = 
  12 active torsions:
  status: ('A' for Active; 'I' for Inactive)
    1  A    between atoms: C_1  and  C_5
    2  A    between atoms: C_1  and  O_30
    3  A    between atoms: C_2  and  C_5
    4  A    between atoms: C_3  and  C_8
    5  A    between atoms: C_3  and  C_20
    6  A    between atoms: C_4  and  C_24
    7  A    between atoms: C_4  and  O_30
    8  A    between atoms: C_5  and  O_14
    9  A    between atoms: C_13  and  O_14
   10  A    between atoms: C_13  and  C_29
   11  A    between atoms: C_15  and  C_26
   12  A    between atoms: C_16  and  C_24
                            x       y       z     vdW  Elec       q    Type
                         _______ _______ _______ _____ _____    ______ ____

>  <TORSDO>
F 12

$$$$
=
 OpenBabel10262421203D

 32 34  0  0  1  0  0  0  0  0999 V2000
  188.2900  178.5970  140.1930 C   0  0  0  0  0  2  0  0  0  0  0  0
  188.1350  178.0070  138.7920 C   0  0  2  0  0  3  0  0  0  0  0  0
  189.4290  178.0280  137.9720 C   0  0  2  0  0  3  0  0  0  0  0  0
  189.1510  178.2280  136.4660 C   0  0  0  0  0  2  0  0  0  0  0  0
  191.7290  174.1190  137.2230 C   0  0  0  0  0  2  0  0  0  0  0  0
  190.3880  176.8710  138.3230 C   0  0  0  0  0  2  0  0  0  0  0  0
  190.5100  174.8690  135.1790 C   0  0  0  0  0  2  0  0  0  0  0  0
  190.3960  176.1650  135.9340 C   0  0  0  0  0  0  0  0  0  0  0  0
  189.3670  176.9740  135.6600 C   0  0  0  0  0  3  0  0  0  0  0  0
  191.2700  176.4980  137.1340 C   0  0  2  0  0  3  0  0  0  0  0  0
  191.6020  173.9540  135.7200 C   0  0  0  0  0  2  0  0  0  0  0  0
  192.2390  175.4580  137.5020 N   0  0  0  0  0  2  0  0  0  0  0  0
  187.1000  178.6440  138.0980 O   0  0  0  0  0  0  0  0  0  0  0  0
  185.9750  177.8440  138.3050 C   0  0  1  0  0  3  0  0  0  0  0  0
  184.7690  178.7320  138.5630 C   0  0  0  0  0  1  0  0  0  0  0  0
  184.5120  176.5800  136.7890 C   0  0  0  0  0  2  0  0  0  0  0  0
  185.7370  176.9950  137.0980 C   0  0  0  0  0  3  0  0  0  0  0  0
  188.3350  177.5800  141.1630 O   0  0  0  0  0  0  0  0  0  0  0  0
  187.7420  178.0570  142.3500 C   0  0  1  0  0  3  0  0  0  0  0  0
  186.3540  178.1990  142.2180 O   0  0  0  0  0  1  0  0  0  0  0  0
  188.1270  177.2520  143.5690 C   0  0  0  0  0  0  0  0  0  0  0  0
  188.1070  176.0310  143.5290 O   0  0  0  0  0  0  0  0  0  0  0  0
  188.4350  177.0540  146.0370 C   0  0  2  0  0  3  0  0  0  0  0  0
  188.5990  177.9490  144.8200 C   0  0  2  0  0  3  0  0  0  0  0  0
  187.5220  178.2520  145.8750 C   0  0  1  0  0  3  0  0  0  0  0  0
  190.2420  176.2210  147.3450 O   0  0  0  0  0  1  0  0  0  0  0  0
  188.8810  177.9010  148.3240 C   0  0  0  0  0  1  0  0  0  0  0  0
  189.5160  177.3750  147.0520 C   0  0  2  0  0  3  0  0  0  0  0  0
  186.1180  177.7610  145.5490 C   0  0  0  0  0  2  0  0  0  0  0  0
  185.1140  178.6560  146.1860 C   0  0  0  0  0  0  0  0  0  0  0  0
  183.9360  178.9640  145.5190 O   0  0  0  0  0  0  0  0  0  0  0  0
  185.3180  179.1100  147.3420 O   0  0  0  0  0  1  0  0  0  0  0  0
  1 18  1  0  0  0  0
  2  1  1  1  0  0  0
  3  6  1  0  0  0  0
  3  2  1  1  0  0  0
  4  3  1  0  0  0  0
  5 12  1  0  0  0  0
  7 11  1  0  0  0  0
  7  8  1  0  0  0  0
  8 10  1  0  0  0  0
  9  8  2  0  0  0  0
  9  4  1  0  0  0  0
 10 12  1  0  0  0  0
 10  6  1  1  0  0  0
 11  5  1  0  0  0  0
 13 14  1  0  0  0  0
 13  2  1  0  0  0  0
 14 15  1  6  0  0  0
 16 17  2  0  0  0  0
 17 14  1  0  0  0  0
 18 19  1  0  0  0  0
 19 20  1  6  0  0  0
 19 21  1  0  0  0  0
 22 21  2  0  0  0  0
 23 28  1  1  0  0  0
 24 21  1  6  0  0  0
 24 25  1  0  0  0  0
 24 23  1  0  0  0  0
 25 29  1  6  0  0  0
 25 23  1  0  0  0  0
 28 26  1  0  0  0  0
 28 27  1  1  0  0  0
 29 30  1  0  0  0  0
 30 32  1  0  0  0  0
 31 30  2  0  0  0  0
M  END
>  <MODEL>
7

>  <REMARK>
 VINA RESULT:      -6.7      1.448      2.049
  Name = 
  12 active torsions:
  status: ('A' for Active; 'I' for Inactive)
    1  A    between atoms: C_1  and  C_5
    2  A    between atoms: C_1  and  O_30
    3  A    between atoms: C_2  and  C_5
    4  A    between atoms: C_3  and  C_8
    5  A    between atoms: C_3  and  C_20
    6  A    between atoms: C_4  and  C_24
    7  A    between atoms: C_4  and  O_30
    8  A    between atoms: C_5  and  O_14
    9  A    between atoms: C_13  and  O_14
   10  A    between atoms: C_13  and  C_29
   11  A    between atoms: C_15  and  C_26
   12  A    between atoms: C_16  and  C_24
                            x       y       z     vdW  Elec       q    Type
                         _______ _______ _______ _____ _____    ______ ____

>  <TORSDO>
F 12

$$$$
=
 OpenBabel10262421203D

 32 34  0  0  1  0  0  0  0  0999 V2000
  185.5270  179.0280  141.8990 C   0  0  0  0  0  2  0  0  0  0  0  0
  184.1010  178.4950  142.0370 C   0  0  2  0  0  3  0  0  0  0  0  0
  183.4340  178.1770  140.6950 C   0  0  2  0  0  3  0  0  0  0  0  0
  184.2260  178.7670  139.5070 C   0  0  0  0  0  2  0  0  0  0  0  0
  179.5880  180.3780  139.4720 C   0  0  0  0  0  2  0  0  0  0  0  0
  181.9170  178.4620  140.6890 C   0  0  0  0  0  2  0  0  0  0  0  0
  181.5660  181.2200  138.2040 C   0  0  0  0  0  2  0  0  0  0  0  0
  182.2150  179.9680  138.7280 C   0  0  0  0  0  0  0  0  0  0  0  0
  183.5440  179.9560  138.8830 C   0  0  0  0  0  3  0  0  0  0  0  0
  181.4180  178.7990  139.2870 C   0  0  2  0  0  3  0  0  0  0  0  0
  180.0440  181.1750  138.2630 C   0  0  0  0  0  2  0  0  0  0  0  0
  179.9610  178.9810  139.2740 N   0  0  0  0  0  2  0  0  0  0  0  0
  183.3130  179.3800  142.7820 O   0  0  0  0  0  0  0  0  0  0  0  0
  182.8810  178.6420  143.8860 C   0  0  1  0  0  3  0  0  0  0  0  0
  183.7730  178.9530  145.0760 C   0  0  0  0  0  1  0  0  0  0  0  0
  180.4770  178.1380  143.9700 C   0  0  0  0  0  2  0  0  0  0  0  0
  181.4640  178.9990  144.2020 C   0  0  0  0  0  3  0  0  0  0  0  0
  186.3810  178.4190  142.8360 O   0  0  0  0  0  0  0  0  0  0  0  0
  187.3250  177.6310  142.1470 C   0  0  1  0  0  3  0  0  0  0  0  0
  188.0170  178.3730  141.1790 O   0  0  0  0  0  1  0  0  0  0  0  0
  188.2530  176.8750  143.0680 C   0  0  0  0  0  0  0  0  0  0  0  0
  188.1200  175.6700  143.2190 O   0  0  0  0  0  0  0  0  0  0  0  0
  189.9800  176.7350  144.8630 C   0  0  2  0  0  3  0  0  0  0  0  0
  189.3880  177.5920  143.7560 C   0  0  2  0  0  3  0  0  0  0  0  0
  189.1630  177.9560  145.2330 C   0  0  1  0  0  3  0  0  0  0  0  0
  191.7840  177.1320  146.3660 O   0  0  0  0  0  1  0  0  0  0  0  0
  191.7670  178.3750  144.3440 C   0  0  0  0  0  1  0  0  0  0  0  0
  191.4570  177.0510  145.0130 C   0  0  2  0  0  3  0  0  0  0  0  0
  187.8410  177.4990  145.8350 C   0  0  0  0  0  2  0  0  0  0  0  0
  187.7860  177.8830  147.2720 C   0  0  0  0  0  0  0  0  0  0  0  0
  188.8490  177.5770  148.1130 O   0  0  0  0  0  1  0  0  0  0  0  0
  186.7920  178.5100  147.7200 O   0  0  0  0  0  0  0  0  0  0  0  0
  1 18  1  0  0  0  0
  2  1  1  6  0  0  0
  2 13  1  0  0  0  0
  3  2  1  1  0  0  0
  4  3  1  0  0  0  0
  6  3  1  0  0  0  0
  7 11  1  0  0  0  0
  7  8  1  0  0  0  0
  8  9  2  0  0  0  0
  8 10  1  0  0  0  0
  9  4  1  0  0  0  0
 10  6  1  1  0  0  0
 11  5  1  0  0  0  0
 12 10  1  0  0  0  0
 12  5  1  0  0  0  0
 13 14  1  0  0  0  0
 14 17  1  0  0  0  0
 14 15  1  1  0  0  0
 16 17  2  0  0  0  0
 19 20  1  6  0  0  0
 19 18  1  0  0  0  0
 19 21  1  0  0  0  0
 21 22  2  0  0  0  0
 23 28  1  6  0  0  0
 23 25  1  0  0  0  0
 24 21  1  1  0  0  0
 24 23  1  0  0  0  0
 24 25  1  0  0  0  0
 25 29  1  1  0  0  0
 28 27  1  6  0  0  0
 28 26  1  0  0  0  0
 29 30  1  0  0  0  0
 30 32  2  0  0  0  0
 30 31  1  0  0  0  0
M  END
>  <MODEL>
8

>  <REMARK>
 VINA RESULT:      -6.7      3.871      6.038
  Name = 
  12 active torsions:
  status: ('A' for Active; 'I' for Inactive)
    1  A    between atoms: C_1  and  C_5
    2  A    between atoms: C_1  and  O_30
    3  A    between atoms: C_2  and  C_5
    4  A    between atoms: C_3  and  C_8
    5  A    between atoms: C_3  and  C_20
    6  A    between atoms: C_4  and  C_24
    7  A    between atoms: C_4  and  O_30
    8  A    between atoms: C_5  and  O_14
    9  A    between atoms: C_13  and  O_14
   10  A    between atoms: C_13  and  C_29
   11  A    between atoms: C_15  and  C_26
   12  A    between atoms: C_16  and  C_24
                            x       y       z     vdW  Elec       q    Type
                         _______ _______ _______ _____ _____    ______ ____

>  <TORSDO>
F 12

$$$$
=
 OpenBabel10262421203D

 32 34  0  0  1  0  0  0  0  0999 V2000
  188.5530  177.5620  141.2400 C   0  0  0  0  0  2  0  0  0  0  0  0
  188.5440  178.0370  142.6930 C   0  0  2  0  0  3  0  0  0  0  0  0
  189.9440  178.2250  143.2850 C   0  0  2  0  0  3  0  0  0  0  0  0
  191.0020  177.3900  142.5310 C   0  0  0  0  0  2  0  0  0  0  0  0
  191.0050  176.2840  147.3140 C   0  0  0  0  0  2  0  0  0  0  0  0
  189.9730  178.1030  144.8230 C   0  0  0  0  0  2  0  0  0  0  0  0
  192.0560  175.0650  145.4070 C   0  0  0  0  0  2  0  0  0  0  0  0
  191.6880  176.3050  144.6390 C   0  0  0  0  0  0  0  0  0  0  0  0
  191.4800  176.2000  143.3220 C   0  0  0  0  0  3  0  0  0  0  0  0
  191.3340  177.6190  145.3190 C   0  0  2  0  0  3  0  0  0  0  0  0
  192.0680  175.2770  146.9160 C   0  0  0  0  0  2  0  0  0  0  0  0
  191.3820  177.5910  146.7860 N   0  0  0  0  0  2  0  0  0  0  0  0
  187.7820  177.1750  143.4900 O   0  0  0  0  0  0  0  0  0  0  0  0
  186.7690  177.9720  144.0250 C   0  0  1  0  0  3  0  0  0  0  0  0
  185.5370  177.8770  143.1400 C   0  0  0  0  0  1  0  0  0  0  0  0
  185.6780  178.2380  146.2110 C   0  0  0  0  0  2  0  0  0  0  0  0
  186.4440  177.5060  145.4070 C   0  0  0  0  0  3  0  0  0  0  0  0
  188.4530  178.6510  140.3570 O   0  0  0  0  0  0  0  0  0  0  0  0
  187.8330  178.2160  139.1670 C   0  0  1  0  0  3  0  0  0  0  0  0
  186.4960  178.6300  139.0950 O   0  0  0  0  0  1  0  0  0  0  0  0
  188.6160  178.5720  137.9260 C   0  0  0  0  0  0  0  0  0  0  0  0
  189.0580  179.7020  137.7830 O   0  0  0  0  0  0  0  0  0  0  0  0
  188.9410  176.1330  137.5130 C   0  0  2  0  0  3  0  0  0  0  0  0
  188.9140  177.5190  136.8890 C   0  0  2  0  0  3  0  0  0  0  0  0
  190.2420  176.7600  137.0550 C   0  0  1  0  0  3  0  0  0  0  0  0
  187.0940  175.0780  136.4410 O   0  0  0  0  0  1  0  0  0  0  0  0
  189.0020  173.7360  136.8790 C   0  0  0  0  0  1  0  0  0  0  0  0
  188.4880  175.1070  136.4900 C   0  0  2  0  0  3  0  0  0  0  0  0
  191.0680  177.1300  138.2800 C   0  0  0  0  0  2  0  0  0  0  0  0
  192.3170  176.3210  138.3050 C   0  0  0  0  0  0  0  0  0  0  0  0
  193.4960  176.8780  138.7830 O   0  0  0  0  0  1  0  0  0  0  0  0
  192.2990  175.1220  137.9220 O   0  0  0  0  0  0  0  0  0  0  0  0
  2  1  1  6  0  0  0
  2 13  1  0  0  0  0
  3  2  1  6  0  0  0
  3  6  1  0  0  0  0
  4  3  1  0  0  0  0
  4  9  1  0  0  0  0
  7 11  1  0  0  0  0
  8 10  1  0  0  0  0
  8  7  1  0  0  0  0
  9  8  2  0  0  0  0
 10  6  1  1  0  0  0
 10 12  1  0  0  0  0
 11  5  1  0  0  0  0
 12  5  1  0  0  0  0
 13 14  1  0  0  0  0
 14 15  1  6  0  0  0
 14 17  1  0  0  0  0
 17 16  2  0  0  0  0
 18  1  1  0  0  0  0
 19 20  1  6  0  0  0
 19 18  1  0  0  0  0
 21 19  1  0  0  0  0
 22 21  2  0  0  0  0
 23 28  1  6  0  0  0
 24 25  1  0  0  0  0
 24 23  1  0  0  0  0
 24 21  1  1  0  0  0
 25 23  1  0  0  0  0
 25 29  1  1  0  0  0
 26 28  1  0  0  0  0
 28 27  1  1  0  0  0
 29 30  1  0  0  0  0
 30 31  1  0  0  0  0
 32 30  2  0  0  0  0
M  END
>  <MODEL>
9

>  <REMARK>
 VINA RESULT:      -6.6      2.956      7.809
  Name = 
  12 active torsions:
  status: ('A' for Active; 'I' for Inactive)
    1  A    between atoms: C_1  and  C_5
    2  A    between atoms: C_1  and  O_30
    3  A    between atoms: C_2  and  C_5
    4  A    between atoms: C_3  and  C_8
    5  A    between atoms: C_3  and  C_20
    6  A    between atoms: C_4  and  C_24
    7  A    between atoms: C_4  and  O_30
    8  A    between atoms: C_5  and  O_14
    9  A    between atoms: C_13  and  O_14
   10  A    between atoms: C_13  and  C_29
   11  A    between atoms: C_15  and  C_26
   12  A    between atoms: C_16  and  C_24
                            x       y       z     vdW  Elec       q    Type
                         _______ _______ _______ _____ _____    ______ ____

>  <TORSDO>
F 12

$$$$
