=
 OpenBabel10262420143D

 27 30  0  0  1  0  0  0  0  0999 V2000
  189.3820  178.0350  141.6020 N   0  0  0  0  0  0  0  0  0  0  0  0
  189.5870  177.6610  140.2210 C   0  0  0  0  0  0  0  0  0  0  0  0
  189.9810  176.7240  136.1730 N   0  0  0  0  0  2  0  0  0  0  0  0
  188.1360  176.8440  134.5950 C   0  0  0  0  0  1  0  0  0  0  0  0
  190.4560  176.6050  139.8700 C   0  0  0  0  0  3  0  0  0  0  0  0
  188.2460  178.7630  136.5660 S   0  0  0  0  0  0  0  0  0  0  0  0
  189.0750  177.9800  137.9300 C   0  0  0  0  0  0  0  0  0  0  0  0
  189.1380  177.6380  135.4060 C   0  0  1  0  0  3  0  0  0  0  0  0
  189.9150  176.9670  137.5630 C   0  0  0  0  0  0  0  0  0  0  0  0
  188.9110  178.3220  139.2330 N   0  0  0  0  0  0  0  0  0  0  0  0
  190.6240  176.2540  138.5250 C   0  0  0  0  0  3  0  0  0  0  0  0
  190.3630  178.7140  143.7860 C   0  0  1  0  0  3  0  0  0  0  0  0
  190.0960  176.4850  144.8330 C   0  0  1  0  0  3  0  0  0  0  0  0
  191.4970  179.5060  143.5940 O   0  0  0  0  0  1  0  0  0  0  0  0
  188.7930  176.3750  144.2940 O   0  0  0  0  0  0  0  0  0  0  0  0
  190.2760  177.6590  142.7030 C   0  0  1  0  0  3  0  0  0  0  0  0
  191.6800  178.0290  145.6890 F   0  0  0  0  0  0  0  0  0  0  0  0
  190.1940  175.1250  142.8550 O   0  0  0  0  0  1  0  0  0  0  0  0
  189.8610  176.3700  143.3850 C   0  0  1  0  0  0  0  0  0  0  0  0
  190.4230  177.9500  145.1120 C   0  0  1  0  0  3  0  0  0  0  0  0
  188.2800  178.9250  141.9530 C   0  0  0  0  0  2  0  0  0  0  0  0
  186.9400  178.2300  141.7600 C   0  0  2  0  0  3  0  0  0  0  0  0
  186.2050  178.9210  140.8150 F   0  0  0  0  0  0  0  0  0  0  0  0
  186.1790  178.1860  143.0780 C   0  0  0  0  0  2  0  0  0  0  0  0
  184.6820  178.3250  142.8510 C   0  0  0  0  0  2  0  0  0  0  0  0
  184.0020  178.6970  144.0950 C   0  0  0  0  0  0  0  0  0  0  0  0
  183.4410  179.0020  145.1170 C   0  0  0  0  0  3  0  0  0  0  0  0
  1 21  1  0  0  0  0
  2  1  1  0  0  0  0
  3  9  1  0  0  0  0
  5  2  1  0  0  0  0
  6  7  1  0  0  0  0
  7 10  1  0  0  0  0
  8  4  1  1  0  0  0
  8  3  1  0  0  0  0
  8  6  1  0  0  0  0
  9  7  2  0  0  0  0
  9 11  1  0  0  0  0
 10  2  2  0  0  0  0
 11  5  2  0  0  0  0
 12 14  1  6  0  0  0
 12 20  1  0  0  0  0
 13 15  1  1  0  0  0
 13 20  1  0  0  0  0
 16  1  1  6  0  0  0
 16 19  1  0  0  0  0
 16 12  1  0  0  0  0
 19 18  1  6  0  0  0
 19 15  1  0  0  0  0
 19 13  1  0  0  0  0
 20 17  1  6  0  0  0
 22 23  1  6  0  0  0
 22 21  1  0  0  0  0
 22 24  1  0  0  0  0
 25 24  1  0  0  0  0
 25 26  1  0  0  0  0
 26 27  3  0  0  0  0
M  END
>  <MODEL>
1

>  <REMARK>
 VINA RESULT:      -6.9      0.000      0.000
  Name = 
  6 active torsions:
  status: ('A' for Active; 'I' for Inactive)
    1  A    between atoms: N_1  and  C_15
    2  A    between atoms: N_1  and  C_18
    3  A    between atoms: C_7  and  C_25
    4  A    between atoms: C_9  and  C_15
    5  A    between atoms: C_9  and  C_27
    6  A    between atoms: C_25  and  C_27
                            x       y       z     vdW  Elec       q    Type
                         _______ _______ _______ _____ _____    ______ ____

>  <TORSDO>
F 6

$$$$
=
 OpenBabel10262420143D

 27 30  0  0  1  0  0  0  0  0999 V2000
  186.6700  178.0510  144.5490 N   0  0  0  0  0  0  0  0  0  0  0  0
  187.6110  177.5680  143.5630 C   0  0  0  0  0  0  0  0  0  0  0  0
  190.2110  176.3200  140.5460 N   0  0  0  0  0  2  0  0  0  0  0  0
  189.6430  176.4010  138.1840 C   0  0  0  0  0  1  0  0  0  0  0  0
  188.4370  176.4540  143.8230 C   0  0  0  0  0  3  0  0  0  0  0  0
  188.7340  178.4540  139.7780 S   0  0  0  0  0  0  0  0  0  0  0  0
  188.5520  177.7390  141.3950 C   0  0  0  0  0  0  0  0  0  0  0  0
  190.0450  177.2100  139.4000 C   0  0  1  0  0  3  0  0  0  0  0  0
  189.3680  176.6680  141.6250 C   0  0  0  0  0  0  0  0  0  0  0  0
  187.6880  178.1820  142.3440 N   0  0  0  0  0  0  0  0  0  0  0  0
  189.3280  175.9980  142.8450 C   0  0  0  0  0  3  0  0  0  0  0  0
  188.0900  177.9560  146.5900 C   0  0  1  0  0  3  0  0  0  0  0  0
  186.3450  178.8660  148.0960 C   0  0  1  0  0  3  0  0  0  0  0  0
  188.8070  176.7590  146.6380 O   0  0  0  0  0  1  0  0  0  0  0  0
  186.0120  179.8480  147.1340 O   0  0  0  0  0  0  0  0  0  0  0  0
  186.7250  177.7200  145.9770 C   0  0  1  0  0  3  0  0  0  0  0  0
  188.1440  177.5950  148.9760 F   0  0  0  0  0  0  0  0  0  0  0  0
  184.3950  178.1370  146.8970 O   0  0  0  0  0  1  0  0  0  0  0  0
  185.7340  178.5130  146.8050 C   0  0  1  0  0  0  0  0  0  0  0  0
  187.8280  178.5160  147.9920 C   0  0  1  0  0  3  0  0  0  0  0  0
  185.6420  179.0100  144.1570 C   0  0  0  0  0  2  0  0  0  0  0  0
  184.4070  178.2940  143.6320 C   0  0  2  0  0  3  0  0  0  0  0  0
  184.4970  178.1880  142.2560 F   0  0  0  0  0  0  0  0  0  0  0  0
  183.1520  179.0700  144.0090 C   0  0  0  0  0  2  0  0  0  0  0  0
  182.0480  178.8590  142.9860 C   0  0  0  0  0  2  0  0  0  0  0  0
  180.7480  178.7210  143.6480 C   0  0  0  0  0  0  0  0  0  0  0  0
  179.6770  178.6080  144.1900 C   0  0  0  0  0  3  0  0  0  0  0  0
  2  5  1  0  0  0  0
  2  1  1  0  0  0  0
  3  9  1  0  0  0  0
  6  7  1  0  0  0  0
  7  9  2  0  0  0  0
  7 10  1  0  0  0  0
  8  4  1  6  0  0  0
  8  6  1  0  0  0  0
  8  3  1  0  0  0  0
  9 11  1  0  0  0  0
 10  2  2  0  0  0  0
 11  5  2  0  0  0  0
 12 14  1  1  0  0  0
 12 20  1  0  0  0  0
 13 15  1  6  0  0  0
 16  1  1  6  0  0  0
 16 12  1  0  0  0  0
 16 19  1  0  0  0  0
 19 18  1  6  0  0  0
 19 15  1  0  0  0  0
 19 13  1  0  0  0  0
 20 13  1  0  0  0  0
 20 17  1  1  0  0  0
 21  1  1  0  0  0  0
 22 23  1  6  0  0  0
 22 24  1  0  0  0  0
 22 21  1  0  0  0  0
 25 26  1  0  0  0  0
 25 24  1  0  0  0  0
 26 27  3  0  0  0  0
M  END
>  <MODEL>
2

>  <REMARK>
 VINA RESULT:      -6.9      2.915      4.285
  Name = 
  6 active torsions:
  status: ('A' for Active; 'I' for Inactive)
    1  A    between atoms: N_1  and  C_15
    2  A    between atoms: N_1  and  C_18
    3  A    between atoms: C_7  and  C_25
    4  A    between atoms: C_9  and  C_15
    5  A    between atoms: C_9  and  C_27
    6  A    between atoms: C_25  and  C_27
                            x       y       z     vdW  Elec       q    Type
                         _______ _______ _______ _____ _____    ______ ____

>  <TORSDO>
F 6

$$$$
=
 OpenBabel10262420143D

 27 30  0  0  1  0  0  0  0  0999 V2000
  187.1880  178.0100  143.6910 N   0  0  0  0  0  0  0  0  0  0  0  0
  185.7940  178.3510  143.5160 C   0  0  0  0  0  0  0  0  0  0  0  0
  181.7840  179.2380  142.7750 N   0  0  0  0  0  2  0  0  0  0  0  0
  180.8780  179.5350  140.5380 C   0  0  0  0  0  1  0  0  0  0  0  0
  185.1280  179.2030  144.4230 C   0  0  0  0  0  3  0  0  0  0  0  0
  182.8170  177.6090  140.8770 S   0  0  0  0  0  0  0  0  0  0  0  0
  183.8030  178.1790  142.2420 C   0  0  0  0  0  0  0  0  0  0  0  0
  181.3740  178.5350  141.5620 C   0  0  1  0  0  3  0  0  0  0  0  0
  183.1350  178.9960  143.1090 C   0  0  0  0  0  0  0  0  0  0  0  0
  185.1090  177.8620  142.4380 N   0  0  0  0  0  0  0  0  0  0  0  0
  183.7820  179.5290  144.2200 C   0  0  0  0  0  3  0  0  0  0  0  0
  187.4750  177.2170  146.0320 C   0  0  1  0  0  3  0  0  0  0  0  0
  189.9510  177.2670  145.9630 C   0  0  1  0  0  3  0  0  0  0  0  0
  186.5700  177.8520  146.8850 O   0  0  0  0  0  1  0  0  0  0  0  0
  189.9390  176.6690  144.6810 O   0  0  0  0  0  0  0  0  0  0  0  0
  187.9280  178.1730  144.9480 C   0  0  1  0  0  3  0  0  0  0  0  0
  188.8080  177.3450  148.0400 F   0  0  0  0  0  0  0  0  0  0  0  0
  190.2480  178.9850  144.3110 O   0  0  0  0  0  1  0  0  0  0  0  0
  189.4200  177.9690  144.7840 C   0  0  1  0  0  0  0  0  0  0  0  0
  188.7470  176.7910  146.7730 C   0  0  1  0  0  3  0  0  0  0  0  0
  187.9170  177.3690  142.6020 C   0  0  0  0  0  2  0  0  0  0  0  0
  188.3310  178.3910  141.5530 C   0  0  2  0  0  3  0  0  0  0  0  0
  187.2640  178.6240  140.7050 F   0  0  0  0  0  0  0  0  0  0  0  0
  189.5200  177.8720  140.7570 C   0  0  0  0  0  2  0  0  0  0  0  0
  189.0700  177.2230  139.4580 C   0  0  0  0  0  2  0  0  0  0  0  0
  189.1070  178.1900  138.3570 C   0  0  0  0  0  0  0  0  0  0  0  0
  189.1360  178.9860  137.4530 C   0  0  0  0  0  3  0  0  0  0  0  0
  2  1  1  0  0  0  0
  2  5  1  0  0  0  0
  3  9  1  0  0  0  0
  6  8  1  0  0  0  0
  6  7  1  0  0  0  0
  7 10  1  0  0  0  0
  7  9  2  0  0  0  0
  8  4  1  6  0  0  0
  8  3  1  0  0  0  0
  9 11  1  0  0  0  0
 10  2  2  0  0  0  0
 11  5  2  0  0  0  0
 12 20  1  0  0  0  0
 12 14  1  1  0  0  0
 13 15  1  6  0  0  0
 13 20  1  0  0  0  0
 15 19  1  0  0  0  0
 16  1  1  6  0  0  0
 16 12  1  0  0  0  0
 19 18  1  6  0  0  0
 19 16  1  0  0  0  0
 19 13  1  0  0  0  0
 20 17  1  1  0  0  0
 21  1  1  0  0  0  0
 22 23  1  6  0  0  0
 22 21  1  0  0  0  0
 24 22  1  0  0  0  0
 25 24  1  0  0  0  0
 26 25  1  0  0  0  0
 27 26  3  0  0  0  0
M  END
>  <MODEL>
3

>  <REMARK>
 VINA RESULT:      -6.4      2.982      6.115
  Name = 
  6 active torsions:
  status: ('A' for Active; 'I' for Inactive)
    1  A    between atoms: N_1  and  C_15
    2  A    between atoms: N_1  and  C_18
    3  A    between atoms: C_7  and  C_25
    4  A    between atoms: C_9  and  C_15
    5  A    between atoms: C_9  and  C_27
    6  A    between atoms: C_25  and  C_27
                            x       y       z     vdW  Elec       q    Type
                         _______ _______ _______ _____ _____    ______ ____

>  <TORSDO>
F 6

$$$$
=
 OpenBabel10262420143D

 27 30  0  0  1  0  0  0  0  0999 V2000
  189.7380  177.0830  141.0690 N   0  0  0  0  0  0  0  0  0  0  0  0
  188.4730  177.7030  141.3950 C   0  0  0  0  0  0  0  0  0  0  0  0
  184.8340  179.3800  142.5610 N   0  0  0  0  0  2  0  0  0  0  0  0
  183.4230  178.4230  144.2940 C   0  0  0  0  0  1  0  0  0  0  0  0
  187.6740  178.3040  140.3990 C   0  0  0  0  0  3  0  0  0  0  0  0
  186.1490  178.2820  144.6560 S   0  0  0  0  0  0  0  0  0  0  0  0
  186.8340  178.2480  143.0160 C   0  0  0  0  0  0  0  0  0  0  0  0
  184.6880  179.2030  144.0040 C   0  0  1  0  0  3  0  0  0  0  0  0
  186.0450  178.8420  142.0710 C   0  0  0  0  0  0  0  0  0  0  0  0
  188.0250  177.6870  142.6870 N   0  0  0  0  0  0  0  0  0  0  0  0
  186.4460  178.8820  140.7390 C   0  0  0  0  0  3  0  0  0  0  0  0
  191.9360  176.9060  139.9150 C   0  0  1  0  0  3  0  0  0  0  0  0
  190.9790  176.1100  137.7730 C   0  0  1  0  0  3  0  0  0  0  0  0
  192.7380  178.0110  140.2050 O   0  0  0  0  0  1  0  0  0  0  0  0
  190.1230  175.2260  138.4710 O   0  0  0  0  0  0  0  0  0  0  0  0
  190.4830  177.3250  139.8280 C   0  0  1  0  0  3  0  0  0  0  0  0
  193.1220  177.1230  137.8250 F   0  0  0  0  0  0  0  0  0  0  0  0
  188.8030  177.1150  137.9350 O   0  0  0  0  0  1  0  0  0  0  0  0
  189.8920  176.6000  138.6360 C   0  0  1  0  0  0  0  0  0  0  0  0
  192.2790  176.2990  138.5510 C   0  0  1  0  0  3  0  0  0  0  0  0
  190.4000  176.2320  142.0530 C   0  0  0  0  0  2  0  0  0  0  0  0
  190.7380  177.0200  143.3100 C   0  0  2  0  0  3  0  0  0  0  0  0
  191.5670  178.0730  142.9730 F   0  0  0  0  0  0  0  0  0  0  0  0
  191.4320  176.1180  144.3220 C   0  0  0  0  0  2  0  0  0  0  0  0
  191.5810  176.8150  145.6650 C   0  0  0  0  0  2  0  0  0  0  0  0
  190.2710  177.0150  146.2920 C   0  0  0  0  0  0  0  0  0  0  0  0
  189.1960  177.1780  146.8100 C   0  0  0  0  0  3  0  0  0  0  0  0
  1  2  1  0  0  0  0
  1 21  1  0  0  0  0
  2 10  1  0  0  0  0
  3  8  1  0  0  0  0
  5 11  1  0  0  0  0
  5  2  2  0  0  0  0
  7  6  1  0  0  0  0
  8  4  1  6  0  0  0
  8  6  1  0  0  0  0
  9  3  1  0  0  0  0
  9  7  1  0  0  0  0
 10  7  2  0  0  0  0
 11  9  2  0  0  0  0
 12 14  1  6  0  0  0
 13 15  1  1  0  0  0
 13 20  1  0  0  0  0
 13 19  1  0  0  0  0
 15 19  1  0  0  0  0
 16 12  1  0  0  0  0
 16  1  1  1  0  0  0
 19 18  1  6  0  0  0
 19 16  1  0  0  0  0
 20 17  1  6  0  0  0
 20 12  1  0  0  0  0
 21 22  1  0  0  0  0
 22 23  1  6  0  0  0
 22 24  1  0  0  0  0
 24 25  1  0  0  0  0
 25 26  1  0  0  0  0
 26 27  3  0  0  0  0
M  END
>  <MODEL>
4

>  <REMARK>
 VINA RESULT:      -6.3      3.138      6.167
  Name = 
  6 active torsions:
  status: ('A' for Active; 'I' for Inactive)
    1  A    between atoms: N_1  and  C_15
    2  A    between atoms: N_1  and  C_18
    3  A    between atoms: C_7  and  C_25
    4  A    between atoms: C_9  and  C_15
    5  A    between atoms: C_9  and  C_27
    6  A    between atoms: C_25  and  C_27
                            x       y       z     vdW  Elec       q    Type
                         _______ _______ _______ _____ _____    ______ ____

>  <TORSDO>
F 6

$$$$
=
 OpenBabel10262420143D

 27 30  0  0  1  0  0  0  0  0999 V2000
  187.0590  177.9790  143.8520 N   0  0  0  0  0  0  0  0  0  0  0  0
  185.6770  178.3600  143.6650 C   0  0  0  0  0  0  0  0  0  0  0  0
  181.7000  179.3610  142.8930 N   0  0  0  0  0  2  0  0  0  0  0  0
  180.8140  179.6570  140.6480 C   0  0  0  0  0  1  0  0  0  0  0  0
  185.0340  179.2440  144.5580 C   0  0  0  0  0  3  0  0  0  0  0  0
  182.6910  177.6770  141.0210 S   0  0  0  0  0  0  0  0  0  0  0  0
  183.6880  178.2340  142.3830 C   0  0  0  0  0  0  0  0  0  0  0  0
  181.2740  178.6550  141.6870 C   0  0  1  0  0  3  0  0  0  0  0  0
  183.0410  179.0820  143.2370 C   0  0  0  0  0  0  0  0  0  0  0  0
  184.9820  177.8790  142.5900 N   0  0  0  0  0  0  0  0  0  0  0  0
  183.6990  179.6090  144.3440 C   0  0  0  0  0  3  0  0  0  0  0  0
  187.3080  177.2100  146.2060 C   0  0  1  0  0  3  0  0  0  0  0  0
  189.7840  177.1770  146.1500 C   0  0  1  0  0  3  0  0  0  0  0  0
  186.4200  177.8870  147.0440 O   0  0  0  0  0  1  0  0  0  0  0  0
  189.7590  176.5610  144.8760 O   0  0  0  0  0  0  0  0  0  0  0  0
  187.7970  178.1350  145.1110 C   0  0  1  0  0  3  0  0  0  0  0  0
  188.6340  177.3220  148.2190 F   0  0  0  0  0  0  0  0  0  0  0  0
  190.1470  178.8600  144.4750 O   0  0  0  0  0  1  0  0  0  0  0  0
  189.2830  177.8790  144.9580 C   0  0  1  0  0  0  0  0  0  0  0  0
  188.5610  176.7530  146.9590 C   0  0  1  0  0  3  0  0  0  0  0  0
  187.7740  177.3020  142.7750 C   0  0  0  0  0  2  0  0  0  0  0  0
  188.2960  178.3060  141.7580 C   0  0  2  0  0  3  0  0  0  0  0  0
  187.2230  178.9390  141.1570 F   0  0  0  0  0  0  0  0  0  0  0  0
  189.1330  177.5950  140.7030 C   0  0  0  0  0  2  0  0  0  0  0  0
  190.2800  176.8280  141.3410 C   0  0  0  0  0  2  0  0  0  0  0  0
  191.5580  177.2000  140.7250 C   0  0  0  0  0  0  0  0  0  0  0  0
  192.6080  177.5040  140.2190 C   0  0  0  0  0  3  0  0  0  0  0  0
  2  1  1  0  0  0  0
  2  5  1  0  0  0  0
  3  9  1  0  0  0  0
  6  8  1  0  0  0  0
  6  7  1  0  0  0  0
  7 10  1  0  0  0  0
  7  9  2  0  0  0  0
  8  4  1  6  0  0  0
  8  3  1  0  0  0  0
  9 11  1  0  0  0  0
 10  2  2  0  0  0  0
 11  5  2  0  0  0  0
 12 20  1  0  0  0  0
 12 14  1  1  0  0  0
 13 15  1  6  0  0  0
 13 20  1  0  0  0  0
 15 19  1  0  0  0  0
 16  1  1  6  0  0  0
 16 12  1  0  0  0  0
 19 18  1  6  0  0  0
 19 16  1  0  0  0  0
 19 13  1  0  0  0  0
 20 17  1  1  0  0  0
 21  1  1  0  0  0  0
 22 23  1  6  0  0  0
 22 21  1  0  0  0  0
 24 25  1  0  0  0  0
 24 22  1  0  0  0  0
 26 25  1  0  0  0  0
 27 26  3  0  0  0  0
M  END
>  <MODEL>
5

>  <REMARK>
 VINA RESULT:      -6.2      3.321      6.325
  Name = 
  6 active torsions:
  status: ('A' for Active; 'I' for Inactive)
    1  A    between atoms: N_1  and  C_15
    2  A    between atoms: N_1  and  C_18
    3  A    between atoms: C_7  and  C_25
    4  A    between atoms: C_9  and  C_15
    5  A    between atoms: C_9  and  C_27
    6  A    between atoms: C_25  and  C_27
                            x       y       z     vdW  Elec       q    Type
                         _______ _______ _______ _____ _____    ______ ____

>  <TORSDO>
F 6

$$$$
=
 OpenBabel10262420143D

 27 30  0  0  1  0  0  0  0  0999 V2000
  188.6490  177.8610  141.7520 N   0  0  0  0  0  0  0  0  0  0  0  0
  188.9960  177.6200  140.3690 C   0  0  0  0  0  0  0  0  0  0  0  0
  189.7930  177.0530  136.3120 N   0  0  0  0  0  2  0  0  0  0  0  0
  188.0760  177.1500  134.5940 C   0  0  0  0  0  1  0  0  0  0  0  0
  189.9800  176.6720  140.0160 C   0  0  0  0  0  3  0  0  0  0  0  0
  187.8570  178.9030  136.7050 S   0  0  0  0  0  0  0  0  0  0  0  0
  188.6410  178.0830  138.0730 C   0  0  0  0  0  0  0  0  0  0  0  0
  188.9360  177.9550  135.5460 C   0  0  1  0  0  3  0  0  0  0  0  0
  189.5940  177.1750  137.7060 C   0  0  0  0  0  0  0  0  0  0  0  0
  188.3440  178.3010  139.3800 N   0  0  0  0  0  0  0  0  0  0  0  0
  190.2860  176.4470  138.6690 C   0  0  0  0  0  3  0  0  0  0  0  0
  190.0790  176.0870  142.7510 C   0  0  1  0  0  3  0  0  0  0  0  0
  191.8240  177.6540  143.5470 C   0  0  1  0  0  3  0  0  0  0  0  0
  189.3010  175.1550  143.4410 O   0  0  0  0  0  1  0  0  0  0  0  0
  191.7780  178.3490  142.3150 O   0  0  0  0  0  0  0  0  0  0  0  0
  189.4820  177.4710  142.8950 C   0  0  1  0  0  3  0  0  0  0  0  0
  191.6000  175.5090  144.5330 F   0  0  0  0  0  0  0  0  0  0  0  0
  190.4700  179.6180  143.8240 O   0  0  0  0  0  1  0  0  0  0  0  0
  190.6390  178.4210  143.1320 C   0  0  1  0  0  0  0  0  0  0  0  0
  191.4960  176.1790  143.3260 C   0  0  1  0  0  3  0  0  0  0  0  0
  187.4470  178.6260  142.0720 C   0  0  0  0  0  2  0  0  0  0  0  0
  186.4850  177.7970  142.9090 C   0  0  2  0  0  3  0  0  0  0  0  0
  185.2690  177.7200  142.2570 F   0  0  0  0  0  0  0  0  0  0  0  0
  186.2990  178.4370  144.2780 C   0  0  0  0  0  2  0  0  0  0  0  0
  186.4800  177.4160  145.3900 C   0  0  0  0  0  2  0  0  0  0  0  0
  187.8210  177.5200  145.9740 C   0  0  0  0  0  0  0  0  0  0  0  0
  188.9230  177.6070  146.4520 C   0  0  0  0  0  3  0  0  0  0  0  0
  1 21  1  0  0  0  0
  2  1  1  0  0  0  0
  3  9  1  0  0  0  0
  5  2  1  0  0  0  0
  6  7  1  0  0  0  0
  7 10  1  0  0  0  0
  8  4  1  6  0  0  0
  8  3  1  0  0  0  0
  8  6  1  0  0  0  0
  9  7  2  0  0  0  0
  9 11  1  0  0  0  0
 10  2  2  0  0  0  0
 11  5  2  0  0  0  0
 12 16  1  0  0  0  0
 12 20  1  0  0  0  0
 12 14  1  1  0  0  0
 13 15  1  6  0  0  0
 15 19  1  0  0  0  0
 16  1  1  6  0  0  0
 16 19  1  0  0  0  0
 19 13  1  0  0  0  0
 19 18  1  1  0  0  0
 20 13  1  0  0  0  0
 20 17  1  1  0  0  0
 21 22  1  0  0  0  0
 22 23  1  6  0  0  0
 22 24  1  0  0  0  0
 24 25  1  0  0  0  0
 25 26  1  0  0  0  0
 26 27  3  0  0  0  0
M  END
>  <MODEL>
6

>  <REMARK>
 VINA RESULT:      -6.2      1.355      2.520
  Name = 
  6 active torsions:
  status: ('A' for Active; 'I' for Inactive)
    1  A    between atoms: N_1  and  C_15
    2  A    between atoms: N_1  and  C_18
    3  A    between atoms: C_7  and  C_25
    4  A    between atoms: C_9  and  C_15
    5  A    between atoms: C_9  and  C_27
    6  A    between atoms: C_25  and  C_27
                            x       y       z     vdW  Elec       q    Type
                         _______ _______ _______ _____ _____    ______ ____

>  <TORSDO>
F 6

$$$$
=
 OpenBabel10262420143D

 27 30  0  0  1  0  0  0  0  0999 V2000
  186.5200  178.1010  144.2980 N   0  0  0  0  0  0  0  0  0  0  0  0
  185.3480  178.3080  143.4770 C   0  0  0  0  0  0  0  0  0  0  0  0
  182.1170  178.9340  140.9100 N   0  0  0  0  0  2  0  0  0  0  0  0
  182.3070  180.1290  138.8020 C   0  0  0  0  0  1  0  0  0  0  0  0
  184.0820  178.5460  144.0550 C   0  0  0  0  0  3  0  0  0  0  0  0
  184.4180  178.5260  139.5450 S   0  0  0  0  0  0  0  0  0  0  0  0
  184.3830  178.5080  141.3230 C   0  0  0  0  0  0  0  0  0  0  0  0
  182.5990  178.8360  139.5350 C   0  0  1  0  0  3  0  0  0  0  0  0
  183.1460  178.7330  141.8570 C   0  0  0  0  0  0  0  0  0  0  0  0
  185.4660  178.3010  142.1150 N   0  0  0  0  0  0  0  0  0  0  0  0
  182.9670  178.7590  143.2370 C   0  0  0  0  0  3  0  0  0  0  0  0
  187.8400  177.8110  146.3870 C   0  0  1  0  0  3  0  0  0  0  0  0
  186.1580  178.8990  147.8450 C   0  0  1  0  0  3  0  0  0  0  0  0
  188.4110  176.5380  146.4390 O   0  0  0  0  0  1  0  0  0  0  0  0
  185.9790  179.9270  146.8900 O   0  0  0  0  0  0  0  0  0  0  0  0
  186.4820  177.7460  145.7210 C   0  0  1  0  0  3  0  0  0  0  0  0
  187.7620  177.4140  148.7660 F   0  0  0  0  0  0  0  0  0  0  0  0
  184.1830  178.4210  146.5640 O   0  0  0  0  0  1  0  0  0  0  0  0
  185.5590  178.6390  146.5270 C   0  0  1  0  0  0  0  0  0  0  0  0
  187.5930  178.3790  147.7890 C   0  0  1  0  0  3  0  0  0  0  0  0
  187.8450  178.1410  143.6870 C   0  0  0  0  0  2  0  0  0  0  0  0
  188.0540  176.9460  142.7690 C   0  0  2  0  0  3  0  0  0  0  0  0
  187.7880  175.7850  143.4720 F   0  0  0  0  0  0  0  0  0  0  0  0
  189.4880  176.9240  142.2570 C   0  0  0  0  0  2  0  0  0  0  0  0
  190.3040  175.8510  142.9580 C   0  0  0  0  0  2  0  0  0  0  0  0
  191.0140  176.4110  144.1120 C   0  0  0  0  0  0  0  0  0  0  0  0
  191.5960  176.8690  145.0630 C   0  0  0  0  0  3  0  0  0  0  0  0
  2  5  1  0  0  0  0
  2  1  1  0  0  0  0
  3  9  1  0  0  0  0
  6  7  1  0  0  0  0
  7  9  2  0  0  0  0
  7 10  1  0  0  0  0
  8  4  1  6  0  0  0
  8  6  1  0  0  0  0
  8  3  1  0  0  0  0
  9 11  1  0  0  0  0
 10  2  2  0  0  0  0
 11  5  2  0  0  0  0
 12 14  1  1  0  0  0
 12 20  1  0  0  0  0
 13 15  1  6  0  0  0
 16  1  1  6  0  0  0
 16 12  1  0  0  0  0
 16 19  1  0  0  0  0
 19 18  1  6  0  0  0
 19 15  1  0  0  0  0
 19 13  1  0  0  0  0
 20 13  1  0  0  0  0
 20 17  1  1  0  0  0
 21  1  1  0  0  0  0
 22 23  1  1  0  0  0
 22 21  1  0  0  0  0
 24 22  1  0  0  0  0
 24 25  1  0  0  0  0
 25 26  1  0  0  0  0
 26 27  3  0  0  0  0
M  END
>  <MODEL>
7

>  <REMARK>
 VINA RESULT:      -6.2      3.897      6.120
  Name = 
  6 active torsions:
  status: ('A' for Active; 'I' for Inactive)
    1  A    between atoms: N_1  and  C_15
    2  A    between atoms: N_1  and  C_18
    3  A    between atoms: C_7  and  C_25
    4  A    between atoms: C_9  and  C_15
    5  A    between atoms: C_9  and  C_27
    6  A    between atoms: C_25  and  C_27
                            x       y       z     vdW  Elec       q    Type
                         _______ _______ _______ _____ _____    ______ ____

>  <TORSDO>
F 6

$$$$
=
 OpenBabel10262420143D

 27 30  0  0  1  0  0  0  0  0999 V2000
  188.8780  177.7730  141.3390 N   0  0  0  0  0  0  0  0  0  0  0  0
  189.2010  177.8120  142.7480 C   0  0  0  0  0  0  0  0  0  0  0  0
  189.8930  177.8650  146.8630 N   0  0  0  0  0  2  0  0  0  0  0  0
  188.1380  178.2490  148.5020 C   0  0  0  0  0  1  0  0  0  0  0  0
  190.4180  178.3610  143.2050 C   0  0  0  0  0  3  0  0  0  0  0  0
  187.4860  176.7820  146.2650 S   0  0  0  0  0  0  0  0  0  0  0  0
  188.5760  177.3700  144.9900 C   0  0  0  0  0  0  0  0  0  0  0  0
  188.7430  177.2580  147.5300 C   0  0  1  0  0  3  0  0  0  0  0  0
  189.7500  177.8900  145.4580 C   0  0  0  0  0  0  0  0  0  0  0  0
  188.3040  177.3320  143.6610 N   0  0  0  0  0  0  0  0  0  0  0  0
  190.6980  178.4000  144.5760 C   0  0  0  0  0  3  0  0  0  0  0  0
  190.8540  176.7860  140.1940 C   0  0  1  0  0  3  0  0  0  0  0  0
  190.0490  177.3070  137.9100 C   0  0  1  0  0  3  0  0  0  0  0  0
  192.0340  177.1380  140.8510 O   0  0  0  0  0  1  0  0  0  0  0  0
  188.7490  176.8670  138.2560 O   0  0  0  0  0  0  0  0  0  0  0  0
  189.8610  177.9270  140.2600 C   0  0  1  0  0  3  0  0  0  0  0  0
  192.3560  176.9310  138.3100 F   0  0  0  0  0  0  0  0  0  0  0  0
  188.6970  179.2270  138.4150 O   0  0  0  0  0  1  0  0  0  0  0  0
  189.2210  178.0260  138.8900 C   0  0  1  0  0  0  0  0  0  0  0  0
  191.0920  176.5240  138.7030 C   0  0  1  0  0  3  0  0  0  0  0  0
  187.5140  177.4670  140.9190 C   0  0  0  0  0  2  0  0  0  0  0  0
  186.5980  178.6600  141.1450 C   0  0  2  0  0  3  0  0  0  0  0  0
  187.3230  179.6820  141.7280 F   0  0  0  0  0  0  0  0  0  0  0  0
  185.4390  178.2650  142.0510 C   0  0  0  0  0  2  0  0  0  0  0  0
  184.9710  179.4450  142.8870 C   0  0  0  0  0  2  0  0  0  0  0  0
  184.6560  179.0180  144.2540 C   0  0  0  0  0  0  0  0  0  0  0  0
  184.3990  178.6690  145.3780 C   0  0  0  0  0  3  0  0  0  0  0  0
  1  2  1  0  0  0  0
  2  5  2  0  0  0  0
  2 10  1  0  0  0  0
  3  8  1  0  0  0  0
  5 11  1  0  0  0  0
  6  8  1  0  0  0  0
  7  9  1  0  0  0  0
  7  6  1  0  0  0  0
  8  4  1  1  0  0  0
  9  3  1  0  0  0  0
 10  7  2  0  0  0  0
 11  9  2  0  0  0  0
 12 16  1  0  0  0  0
 12 14  1  1  0  0  0
 13 15  1  1  0  0  0
 13 20  1  0  0  0  0
 13 19  1  0  0  0  0
 15 19  1  0  0  0  0
 16  1  1  1  0  0  0
 19 18  1  6  0  0  0
 19 16  1  0  0  0  0
 20 17  1  6  0  0  0
 20 12  1  0  0  0  0
 21 22  1  0  0  0  0
 21  1  1  0  0  0  0
 22 23  1  1  0  0  0
 22 24  1  0  0  0  0
 24 25  1  0  0  0  0
 25 26  1  0  0  0  0
 26 27  3  0  0  0  0
M  END
>  <MODEL>
8

>  <REMARK>
 VINA RESULT:      -6.1      3.313      6.234
  Name = 
  6 active torsions:
  status: ('A' for Active; 'I' for Inactive)
    1  A    between atoms: N_1  and  C_15
    2  A    between atoms: N_1  and  C_18
    3  A    between atoms: C_7  and  C_25
    4  A    between atoms: C_9  and  C_15
    5  A    between atoms: C_9  and  C_27
    6  A    between atoms: C_25  and  C_27
                            x       y       z     vdW  Elec       q    Type
                         _______ _______ _______ _____ _____    ______ ____

>  <TORSDO>
F 6

$$$$
=
 OpenBabel10262420143D

 27 30  0  0  1  0  0  0  0  0999 V2000
  188.4780  178.2710  142.7390 N   0  0  0  0  0  0  0  0  0  0  0  0
  187.7270  178.2720  141.5030 C   0  0  0  0  0  0  0  0  0  0  0  0
  185.3520  178.3010  138.0720 N   0  0  0  0  0  2  0  0  0  0  0  0
  182.9970  177.6950  138.0800 C   0  0  0  0  0  1  0  0  0  0  0  0
  188.3230  177.8810  140.2850 C   0  0  0  0  0  3  0  0  0  0  0  0
  183.9600  179.0700  140.2620 S   0  0  0  0  0  0  0  0  0  0  0  0
  185.6780  178.6280  140.3690 C   0  0  0  0  0  0  0  0  0  0  0  0
  184.0140  178.7570  138.4440 C   0  0  1  0  0  3  0  0  0  0  0  0
  186.2330  178.2600  139.1760 C   0  0  0  0  0  0  0  0  0  0  0  0
  186.4090  178.6330  141.5130 N   0  0  0  0  0  0  0  0  0  0  0  0
  187.5690  177.8760  139.1060 C   0  0  0  0  0  3  0  0  0  0  0  0
  190.4770  178.7930  144.1250 C   0  0  1  0  0  3  0  0  0  0  0  0
  191.6670  176.6920  143.5670 C   0  0  1  0  0  3  0  0  0  0  0  0
  190.8540  180.1280  143.9680 O   0  0  0  0  0  1  0  0  0  0  0  0
  190.4720  175.9560  143.7430 O   0  0  0  0  0  0  0  0  0  0  0  0
  189.9430  178.2450  142.8180 C   0  0  1  0  0  3  0  0  0  0  0  0
  192.8720  178.5820  144.3440 F   0  0  0  0  0  0  0  0  0  0  0  0
  190.6990  176.2720  141.4090 O   0  0  0  0  0  1  0  0  0  0  0  0
  190.5170  176.8510  142.6640 C   0  0  1  0  0  0  0  0  0  0  0  0
  191.6720  177.9070  144.4930 C   0  0  1  0  0  3  0  0  0  0  0  0
  187.7740  178.4030  144.0110 C   0  0  0  0  0  2  0  0  0  0  0  0
  187.4820  177.0360  144.6120 C   0  0  2  0  0  3  0  0  0  0  0  0
  187.1840  176.1490  143.5940 F   0  0  0  0  0  0  0  0  0  0  0  0
  186.3090  177.1280  145.5780 C   0  0  0  0  0  2  0  0  0  0  0  0
  185.8630  178.5700  145.7620 C   0  0  0  0  0  2  0  0  0  0  0  0
  184.5850  178.8070  145.0850 C   0  0  0  0  0  0  0  0  0  0  0  0
  183.5360  179.0030  144.5260 C   0  0  0  0  0  3  0  0  0  0  0  0
  1 21  1  0  0  0  0
  2 10  1  0  0  0  0
  2  1  1  0  0  0  0
  3  8  1  0  0  0  0
  3  9  1  0  0  0  0
  5  2  2  0  0  0  0
  6  7  1  0  0  0  0
  7 10  2  0  0  0  0
  8  4  1  1  0  0  0
  8  6  1  0  0  0  0
  9  7  1  0  0  0  0
 11  9  2  0  0  0  0
 11  5  1  0  0  0  0
 12 14  1  6  0  0  0
 12 20  1  0  0  0  0
 13 15  1  1  0  0  0
 13 20  1  0  0  0  0
 16  1  1  1  0  0  0
 16 12  1  0  0  0  0
 19 18  1  6  0  0  0
 19 16  1  0  0  0  0
 19 13  1  0  0  0  0
 19 15  1  0  0  0  0
 20 17  1  6  0  0  0
 21 22  1  0  0  0  0
 22 23  1  6  0  0  0
 22 24  1  0  0  0  0
 24 25  1  0  0  0  0
 26 25  1  0  0  0  0
 27 26  3  0  0  0  0
M  END
>  <MODEL>
9

>  <REMARK>
 VINA RESULT:      -6.1      2.628      3.212
  Name = 
  6 active torsions:
  status: ('A' for Active; 'I' for Inactive)
    1  A    between atoms: N_1  and  C_15
    2  A    between atoms: N_1  and  C_18
    3  A    between atoms: C_7  and  C_25
    4  A    between atoms: C_9  and  C_15
    5  A    between atoms: C_9  and  C_27
    6  A    between atoms: C_25  and  C_27
                            x       y       z     vdW  Elec       q    Type
                         _______ _______ _______ _____ _____    ______ ____

>  <TORSDO>
F 6

$$$$
