=
 OpenBabel10262419543D

 25 28  0  0  1  0  0  0  0  0999 V2000
  185.5940  178.2700  144.8860 C   0  0  0  0  0  0  0  0  0  0  0  0
  186.9040  177.8420  145.1250 C   0  0  0  0  0  0  0  0  0  0  0  0
  185.2580  178.8540  147.1540 N   0  0  0  0  0  0  0  0  0  0  0  0
  184.8100  178.3230  143.7540 C   0  0  0  0  0  0  0  0  0  0  0  0
  188.9130  176.8320  143.8970 C   0  0  0  0  0  0  0  0  0  0  0  0
  182.7820  178.6830  141.9050 C   0  0  0  0  0  3  0  0  0  0  0  0
  186.5060  178.4610  147.4290 N   0  0  0  0  0  0  0  0  0  0  0  0
  183.5960  178.8460  144.1540 C   0  0  0  0  0  0  0  0  0  0  0  0
  182.5570  179.0390  143.2470 C   0  0  0  0  0  3  0  0  0  0  0  0
  188.7290  177.5050  146.9370 C   0  0  2  0  0  3  0  0  0  0  0  0
  189.1510  178.1510  148.2490 C   0  0  0  0  0  1  0  0  0  0  0  0
  187.6780  177.3380  143.9590 C   0  0  0  0  0  3  0  0  0  0  0  0
  184.0230  178.1480  141.5010 C   0  0  0  0  0  3  0  0  0  0  0  0
  184.8010  178.7650  145.8890 C   0  0  0  0  0  0  0  0  0  0  0  0
  183.5660  179.1280  145.4760 N   0  0  0  0  0  2  0  0  0  0  0  0
  189.7530  177.7570  145.9450 N   0  0  0  0  0  2  0  0  0  0  0  0
  185.0600  177.9620  142.4310 C   0  0  0  0  0  3  0  0  0  0  0  0
  189.7540  176.5840  145.0980 C   0  0  0  0  0  2  0  0  0  0  0  0
  187.3680  177.9770  146.4740 C   0  0  0  0  0  0  0  0  0  0  0  0
  189.4710  176.4120  142.5630 C   0  0  0  0  0  2  0  0  0  0  0  0
  191.3540  177.4540  141.5650 C   0  0  0  0  0  1  0  0  0  0  0  0
  189.9000  177.5300  141.7000 N   0  0  0  0  0  0  0  0  0  0  0  0
  189.2960  177.4320  140.4210 N   0  0  0  0  0  0  0  0  0  0  0  0
  190.1900  177.8700  139.4980 O   0  0  0  0  0  1  0  0  0  0  0  0
  188.1960  178.3870  140.3670 C   0  0  0  0  0  1  0  0  0  0  0  0
  1  2  2  0  0  0  0
  1 14  1  0  0  0  0
  2 19  1  0  0  0  0
  3  7  1  0  0  0  0
  4  8  1  0  0  0  0
  4  1  1  0  0  0  0
  5 12  2  0  0  0  0
  5 18  1  0  0  0  0
  6  9  1  0  0  0  0
  8 15  1  0  0  0  0
  9  8  2  0  0  0  0
 10 11  1  1  0  0  0
 12  2  1  0  0  0  0
 13  6  2  0  0  0  0
 13 17  1  0  0  0  0
 14  3  2  0  0  0  0
 15 14  1  0  0  0  0
 16 10  1  0  0  0  0
 17  4  2  0  0  0  0
 18 16  1  0  0  0  0
 19 10  1  0  0  0  0
 19  7  2  0  0  0  0
 20  5  1  0  0  0  0
 21 22  1  0  0  0  0
 22 20  1  0  0  0  0
 23 22  1  0  0  0  0
 24 23  1  0  0  0  0
 25 23  1  0  0  0  0
M  END
>  <MODEL>
1

>  <REMARK>
 VINA RESULT:     -10.3      0.000      0.000
  Name = 
  3 active torsions:
  status: ('A' for Active; 'I' for Inactive)
    1  A    between atoms: N_2  and  N_25
    2  A    between atoms: C_6  and  C_15
    3  A    between atoms: C_15  and  N_25
                            x       y       z     vdW  Elec       q    Type
                         _______ _______ _______ _____ _____    ______ ____

>  <TORSDO>
F 3

$$$$
=
 OpenBabel10262419543D

 25 28  0  0  1  0  0  0  0  0999 V2000
  187.1280  177.8750  145.7060 C   0  0  0  0  0  0  0  0  0  0  0  0
  188.4150  177.3720  145.4940 C   0  0  0  0  0  0  0  0  0  0  0  0
  187.4850  178.1080  148.0330 N   0  0  0  0  0  0  0  0  0  0  0  0
  186.0650  178.1300  144.8670 C   0  0  0  0  0  0  0  0  0  0  0  0
  189.9180  176.4990  143.6110 C   0  0  0  0  0  0  0  0  0  0  0  0
  183.6340  178.8420  143.7500 C   0  0  0  0  0  3  0  0  0  0  0  0
  188.7260  177.6360  147.8780 N   0  0  0  0  0  0  0  0  0  0  0  0
  185.0550  178.6240  145.6690 C   0  0  0  0  0  0  0  0  0  0  0  0
  183.8210  178.9910  145.1350 C   0  0  0  0  0  3  0  0  0  0  0  0
  190.6430  176.6960  146.6380 C   0  0  2  0  0  3  0  0  0  0  0  0
  191.4640  177.1140  147.8500 C   0  0  0  0  0  1  0  0  0  0  0  0
  188.7910  177.0310  144.0960 C   0  0  0  0  0  3  0  0  0  0  0  0
  184.6680  178.3360  142.9340 C   0  0  0  0  0  3  0  0  0  0  0  0
  186.6870  178.2330  146.9540 C   0  0  0  0  0  0  0  0  0  0  0  0
  185.4170  178.6970  146.9690 N   0  0  0  0  0  2  0  0  0  0  0  0
  191.3650  177.0660  145.4380 N   0  0  0  0  0  2  0  0  0  0  0  0
  185.9060  177.9720  143.4910 C   0  0  0  0  0  3  0  0  0  0  0  0
  191.0390  176.0390  144.4720 C   0  0  0  0  0  2  0  0  0  0  0  0
  189.2470  177.2790  146.6580 C   0  0  0  0  0  0  0  0  0  0  0  0
  190.0460  176.2750  142.1270 C   0  0  0  0  0  2  0  0  0  0  0  0
  191.5500  177.4990  140.7600 C   0  0  0  0  0  1  0  0  0  0  0  0
  190.2050  177.5100  141.3330 N   0  0  0  0  0  0  0  0  0  0  0  0
  189.2420  177.5580  140.2930 N   0  0  0  0  0  0  0  0  0  0  0  0
  189.8280  178.1200  139.2040 O   0  0  0  0  0  1  0  0  0  0  0  0
  188.1980  178.4950  140.6880 C   0  0  0  0  0  1  0  0  0  0  0  0
  1 14  1  0  0  0  0
  2  1  2  0  0  0  0
  2 19  1  0  0  0  0
  4  8  1  0  0  0  0
  4  1  1  0  0  0  0
  5 12  2  0  0  0  0
  5 18  1  0  0  0  0
  6  9  1  0  0  0  0
  7  3  1  0  0  0  0
  8 15  1  0  0  0  0
  9  8  2  0  0  0  0
 10 19  1  0  0  0  0
 10 11  1  1  0  0  0
 12  2  1  0  0  0  0
 13 17  1  0  0  0  0
 13  6  2  0  0  0  0
 14 15  1  0  0  0  0
 14  3  2  0  0  0  0
 16 10  1  0  0  0  0
 17  4  2  0  0  0  0
 18 16  1  0  0  0  0
 19  7  2  0  0  0  0
 20  5  1  0  0  0  0
 21 22  1  0  0  0  0
 22 20  1  0  0  0  0
 23 25  1  0  0  0  0
 23 22  1  0  0  0  0
 24 23  1  0  0  0  0
M  END
>  <MODEL>
2

>  <REMARK>
 VINA RESULT:     -10.3      1.135      1.731
  Name = 
  3 active torsions:
  status: ('A' for Active; 'I' for Inactive)
    1  A    between atoms: N_2  and  N_25
    2  A    between atoms: C_6  and  C_15
    3  A    between atoms: C_15  and  N_25
                            x       y       z     vdW  Elec       q    Type
                         _______ _______ _______ _____ _____    ______ ____

>  <TORSDO>
F 3

$$$$
=
 OpenBabel10262419543D

 25 28  0  0  1  0  0  0  0  0999 V2000
  186.7960  178.0550  145.5350 C   0  0  0  0  0  0  0  0  0  0  0  0
  186.0390  178.3040  144.3850 C   0  0  0  0  0  0  0  0  0  0  0  0
  185.0150  178.6660  146.9680 N   0  0  0  0  0  0  0  0  0  0  0  0
  188.0880  177.6230  145.7390 C   0  0  0  0  0  0  0  0  0  0  0  0
  186.2390  178.2500  141.8310 C   0  0  0  0  0  0  0  0  0  0  0  0
  190.5150  176.8110  146.7950 C   0  0  0  0  0  3  0  0  0  0  0  0
  184.2530  178.9110  145.8980 N   0  0  0  0  0  0  0  0  0  0  0  0
  188.2620  177.5720  147.1080 C   0  0  0  0  0  0  0  0  0  0  0  0
  189.4720  177.1680  147.6690 C   0  0  0  0  0  3  0  0  0  0  0  0
  183.7430  179.1150  143.4900 C   0  0  2  0  0  3  0  0  0  0  0  0
  182.2870  179.0900  143.9300 C   0  0  0  0  0  1  0  0  0  0  0  0
  186.6960  178.0600  143.0730 C   0  0  0  0  0  3  0  0  0  0  0  0
  190.3330  176.8650  145.3970 C   0  0  0  0  0  3  0  0  0  0  0  0
  186.2800  178.2350  146.7920 C   0  0  0  0  0  0  0  0  0  0  0  0
  187.1540  177.9490  147.7840 N   0  0  0  0  0  2  0  0  0  0  0  0
  183.8940  178.2510  142.3370 N   0  0  0  0  0  2  0  0  0  0  0  0
  189.1050  177.2750  144.8510 C   0  0  0  0  0  3  0  0  0  0  0  0
  184.9230  178.8750  141.5330 C   0  0  0  0  0  2  0  0  0  0  0  0
  184.6900  178.7330  144.6070 C   0  0  0  0  0  0  0  0  0  0  0  0
  187.1180  177.8940  140.6610 C   0  0  0  0  0  2  0  0  0  0  0  0
  189.4160  177.7850  141.2370 C   0  0  0  0  0  1  0  0  0  0  0  0
  188.3980  178.6280  140.6120 N   0  0  0  0  0  0  0  0  0  0  0  0
  188.7630  178.9020  139.2690 N   0  0  0  0  0  0  0  0  0  0  0  0
  187.6940  178.6280  138.4780 O   0  0  0  0  0  1  0  0  0  0  0  0
  189.7840  177.9400  138.8740 C   0  0  0  0  0  1  0  0  0  0  0  0
  1  4  1  0  0  0  0
  1 14  1  0  0  0  0
  2 19  1  0  0  0  0
  2  1  2  0  0  0  0
  4  8  1  0  0  0  0
  5 12  2  0  0  0  0
  6  9  1  0  0  0  0
  7  3  1  0  0  0  0
  8  9  2  0  0  0  0
  8 15  1  0  0  0  0
 10 11  1  1  0  0  0
 10 19  1  0  0  0  0
 12  2  1  0  0  0  0
 13  6  2  0  0  0  0
 14  3  2  0  0  0  0
 14 15  1  0  0  0  0
 16 10  1  0  0  0  0
 17 13  1  0  0  0  0
 17  4  2  0  0  0  0
 18  5  1  0  0  0  0
 18 16  1  0  0  0  0
 19  7  2  0  0  0  0
 20  5  1  0  0  0  0
 22 20  1  0  0  0  0
 22 21  1  0  0  0  0
 23 22  1  0  0  0  0
 24 23  1  0  0  0  0
 25 23  1  0  0  0  0
M  END
>  <MODEL>
3

>  <REMARK>
 VINA RESULT:      -9.8      1.461      4.805
  Name = 
  3 active torsions:
  status: ('A' for Active; 'I' for Inactive)
    1  A    between atoms: N_2  and  N_25
    2  A    between atoms: C_6  and  C_15
    3  A    between atoms: C_15  and  N_25
                            x       y       z     vdW  Elec       q    Type
                         _______ _______ _______ _____ _____    ______ ____

>  <TORSDO>
F 3

$$$$
=
 OpenBabel10262419543D

 25 28  0  0  1  0  0  0  0  0999 V2000
  186.8860  177.9010  144.4250 C   0  0  0  0  0  0  0  0  0  0  0  0
  188.0520  177.5350  143.7440 C   0  0  0  0  0  0  0  0  0  0  0  0
  187.9250  177.6910  146.5390 N   0  0  0  0  0  0  0  0  0  0  0  0
  185.6190  178.2460  144.0070 C   0  0  0  0  0  0  0  0  0  0  0  0
  188.9210  177.1530  141.3650 C   0  0  0  0  0  0  0  0  0  0  0  0
  182.9620  179.0030  143.8270 C   0  0  0  0  0  3  0  0  0  0  0  0
  189.0640  177.3420  145.9330 N   0  0  0  0  0  0  0  0  0  0  0  0
  184.8950  178.5050  145.1540 C   0  0  0  0  0  0  0  0  0  0  0  0
  183.5570  178.8870  145.0960 C   0  0  0  0  0  3  0  0  0  0  0  0
  190.5230  176.7940  144.0170 C   0  0  2  0  0  3  0  0  0  0  0  0
  191.6680  177.0170  144.9940 C   0  0  0  0  0  1  0  0  0  0  0  0
  187.9910  177.5030  142.2590 C   0  0  0  0  0  3  0  0  0  0  0  0
  183.7050  178.7380  142.6570 C   0  0  0  0  0  3  0  0  0  0  0  0
  186.8400  177.9750  145.7930 C   0  0  0  0  0  0  0  0  0  0  0  0
  185.6310  178.3420  146.2770 N   0  0  0  0  0  2  0  0  0  0  0  0
  190.8490  177.4400  142.7630 N   0  0  0  0  0  2  0  0  0  0  0  0
  185.0540  178.3530  142.7370 C   0  0  0  0  0  3  0  0  0  0  0  0
  190.2510  176.6060  141.7430 C   0  0  0  0  0  2  0  0  0  0  0  0
  189.1950  177.2680  144.5660 C   0  0  0  0  0  0  0  0  0  0  0  0
  188.5980  177.2350  139.8960 C   0  0  0  0  0  2  0  0  0  0  0  0
  189.4320  179.0010  138.5490 C   0  0  0  0  0  1  0  0  0  0  0  0
  188.3180  178.6000  139.4070 N   0  0  0  0  0  0  0  0  0  0  0  0
  187.1100  178.6240  138.6640 N   0  0  0  0  0  0  0  0  0  0  0  0
  186.0750  178.6280  139.5420 O   0  0  0  0  0  1  0  0  0  0  0  0
  186.9960  177.3590  137.9480 C   0  0  0  0  0  1  0  0  0  0  0  0
  1 14  1  0  0  0  0
  2  1  2  0  0  0  0
  2 19  1  0  0  0  0
  4  1  1  0  0  0  0
  4  8  1  0  0  0  0
  5 18  1  0  0  0  0
  5 12  2  0  0  0  0
  6  9  1  0  0  0  0
  7  3  1  0  0  0  0
  8 15  1  0  0  0  0
  9  8  2  0  0  0  0
 10 19  1  0  0  0  0
 10 11  1  1  0  0  0
 12  2  1  0  0  0  0
 13 17  1  0  0  0  0
 13  6  2  0  0  0  0
 14 15  1  0  0  0  0
 14  3  2  0  0  0  0
 16 10  1  0  0  0  0
 17  4  2  0  0  0  0
 18 16  1  0  0  0  0
 19  7  2  0  0  0  0
 20  5  1  0  0  0  0
 21 22  1  0  0  0  0
 22 20  1  0  0  0  0
 23 22  1  0  0  0  0
 23 24  1  0  0  0  0
 25 23  1  0  0  0  0
M  END
>  <MODEL>
4

>  <REMARK>
 VINA RESULT:      -9.5      1.688      2.732
  Name = 
  3 active torsions:
  status: ('A' for Active; 'I' for Inactive)
    1  A    between atoms: N_2  and  N_25
    2  A    between atoms: C_6  and  C_15
    3  A    between atoms: C_15  and  N_25
                            x       y       z     vdW  Elec       q    Type
                         _______ _______ _______ _____ _____    ______ ____

>  <TORSDO>
F 3

$$$$
=
 OpenBabel10262419543D

 25 28  0  0  1  0  0  0  0  0999 V2000
  186.7570  178.1360  145.4200 C   0  0  0  0  0  0  0  0  0  0  0  0
  186.2170  178.3570  144.1490 C   0  0  0  0  0  0  0  0  0  0  0  0
  184.7140  178.6530  146.4950 N   0  0  0  0  0  0  0  0  0  0  0  0
  188.0070  177.7630  145.8620 C   0  0  0  0  0  0  0  0  0  0  0  0
  186.8920  178.3310  141.6770 C   0  0  0  0  0  0  0  0  0  0  0  0
  190.2300  177.0580  147.3550 C   0  0  0  0  0  3  0  0  0  0  0  0
  184.1530  178.8700  145.3010 N   0  0  0  0  0  0  0  0  0  0  0  0
  187.9260  177.7100  147.2400 C   0  0  0  0  0  0  0  0  0  0  0  0
  189.0270  177.3590  148.0170 C   0  0  0  0  0  3  0  0  0  0  0  0
  184.0930  179.0660  142.8400 C   0  0  2  0  0  3  0  0  0  0  0  0
  182.5830  178.9710  143.0010 C   0  0  0  0  0  1  0  0  0  0  0  0
  187.1170  178.1530  142.9830 C   0  0  0  0  0  3  0  0  0  0  0  0
  190.3100  177.1130  145.9470 C   0  0  0  0  0  3  0  0  0  0  0  0
  186.0080  178.2830  146.5590 C   0  0  0  0  0  0  0  0  0  0  0  0
  186.6940  178.0300  147.6970 N   0  0  0  0  0  2  0  0  0  0  0  0
  184.4970  178.2190  141.7370 N   0  0  0  0  0  2  0  0  0  0  0  0
  189.1870  177.4690  145.1800 C   0  0  0  0  0  3  0  0  0  0  0  0
  185.6270  178.8950  141.1380 C   0  0  0  0  0  2  0  0  0  0  0  0
  184.8320  178.7210  144.1150 C   0  0  0  0  0  0  0  0  0  0  0  0
  187.9890  178.0240  140.6920 C   0  0  0  0  0  2  0  0  0  0  0  0
  189.0470  178.8570  138.7390 C   0  0  0  0  0  1  0  0  0  0  0  0
  187.7480  178.5380  139.3290 N   0  0  0  0  0  0  0  0  0  0  0  0
  187.0910  177.5610  138.5380 N   0  0  0  0  0  0  0  0  0  0  0  0
  188.0400  176.8080  137.9250 O   0  0  0  0  0  1  0  0  0  0  0  0
  186.3950  178.2490  137.4580 C   0  0  0  0  0  1  0  0  0  0  0  0
  1  4  1  0  0  0  0
  1 14  1  0  0  0  0
  2  1  2  0  0  0  0
  3 14  2  0  0  0  0
  4  8  1  0  0  0  0
  5 12  2  0  0  0  0
  6  9  1  0  0  0  0
  7  3  1  0  0  0  0
  8 15  1  0  0  0  0
  8  9  2  0  0  0  0
 10 11  1  1  0  0  0
 10 19  1  0  0  0  0
 12  2  1  0  0  0  0
 13  6  2  0  0  0  0
 14 15  1  0  0  0  0
 16 10  1  0  0  0  0
 17  4  2  0  0  0  0
 17 13  1  0  0  0  0
 18  5  1  0  0  0  0
 18 16  1  0  0  0  0
 19  2  1  0  0  0  0
 19  7  2  0  0  0  0
 20  5  1  0  0  0  0
 21 22  1  0  0  0  0
 22 20  1  0  0  0  0
 23 22  1  0  0  0  0
 24 23  1  0  0  0  0
 25 23  1  0  0  0  0
M  END
>  <MODEL>
5

>  <REMARK>
 VINA RESULT:      -9.3      1.766      4.907
  Name = 
  3 active torsions:
  status: ('A' for Active; 'I' for Inactive)
    1  A    between atoms: N_2  and  N_25
    2  A    between atoms: C_6  and  C_15
    3  A    between atoms: C_15  and  N_25
                            x       y       z     vdW  Elec       q    Type
                         _______ _______ _______ _____ _____    ______ ____

>  <TORSDO>
F 3

$$$$
=
 OpenBabel10262419543D

 25 28  0  0  1  0  0  0  0  0999 V2000
  186.7190  178.1560  145.4830 C   0  0  0  0  0  0  0  0  0  0  0  0
  186.1260  178.4390  144.2490 C   0  0  0  0  0  0  0  0  0  0  0  0
  184.6850  178.4600  146.6520 N   0  0  0  0  0  0  0  0  0  0  0  0
  188.0040  177.8300  145.8600 C   0  0  0  0  0  0  0  0  0  0  0  0
  186.7200  178.6420  141.7650 C   0  0  0  0  0  0  0  0  0  0  0  0
  190.3130  177.1540  147.2300 C   0  0  0  0  0  3  0  0  0  0  0  0
  184.0730  178.7310  145.4940 N   0  0  0  0  0  0  0  0  0  0  0  0
  187.9710  177.6670  147.2310 C   0  0  0  0  0  0  0  0  0  0  0  0
  189.1160  177.3280  147.9480 C   0  0  0  0  0  3  0  0  0  0  0  0
  183.9210  179.1100  143.0590 C   0  0  2  0  0  3  0  0  0  0  0  0
  182.4250  178.9080  143.2540 C   0  0  0  0  0  1  0  0  0  0  0  0
  186.9980  178.3810  143.0460 C   0  0  0  0  0  3  0  0  0  0  0  0
  190.3430  177.3210  145.8300 C   0  0  0  0  0  3  0  0  0  0  0  0
  186.0010  178.1680  146.6510 C   0  0  0  0  0  0  0  0  0  0  0  0
  186.7370  177.8740  147.7460 N   0  0  0  0  0  2  0  0  0  0  0  0
  184.3390  178.3760  141.8820 N   0  0  0  0  0  2  0  0  0  0  0  0
  189.1760  177.6630  145.1240 C   0  0  0  0  0  3  0  0  0  0  0  0
  185.4060  179.1660  141.3060 C   0  0  0  0  0  2  0  0  0  0  0  0
  184.7200  178.7160  144.2820 C   0  0  0  0  0  0  0  0  0  0  0  0
  187.8010  178.4810  140.7280 C   0  0  0  0  0  2  0  0  0  0  0  0
  188.8990  176.7840  139.4860 C   0  0  0  0  0  1  0  0  0  0  0  0
  188.5730  177.2270  140.8410 N   0  0  0  0  0  0  0  0  0  0  0  0
  189.7680  177.4430  141.5730 N   0  0  0  0  0  0  0  0  0  0  0  0
  190.7650  177.6940  140.6870 O   0  0  0  0  0  1  0  0  0  0  0  0
  190.1370  176.1860  142.2140 C   0  0  0  0  0  1  0  0  0  0  0  0
  1  4  1  0  0  0  0
  1 14  1  0  0  0  0
  2 19  1  0  0  0  0
  2  1  2  0  0  0  0
  4  8  1  0  0  0  0
  5 12  2  0  0  0  0
  6  9  1  0  0  0  0
  7  3  1  0  0  0  0
  8 15  1  0  0  0  0
  8  9  2  0  0  0  0
 10 11  1  1  0  0  0
 10 19  1  0  0  0  0
 12  2  1  0  0  0  0
 13  6  2  0  0  0  0
 14  3  2  0  0  0  0
 14 15  1  0  0  0  0
 16 10  1  0  0  0  0
 17 13  1  0  0  0  0
 17  4  2  0  0  0  0
 18  5  1  0  0  0  0
 18 16  1  0  0  0  0
 19  7  2  0  0  0  0
 20 22  1  0  0  0  0
 20  5  1  0  0  0  0
 21 22  1  0  0  0  0
 22 23  1  0  0  0  0
 23 25  1  0  0  0  0
 24 23  1  0  0  0  0
M  END
>  <MODEL>
6

>  <REMARK>
 VINA RESULT:      -9.1      1.336      4.822
  Name = 
  3 active torsions:
  status: ('A' for Active; 'I' for Inactive)
    1  A    between atoms: N_2  and  N_25
    2  A    between atoms: C_6  and  C_15
    3  A    between atoms: C_15  and  N_25
                            x       y       z     vdW  Elec       q    Type
                         _______ _______ _______ _____ _____    ______ ____

>  <TORSDO>
F 3

$$$$
=
 OpenBabel10262419543D

 25 28  0  0  1  0  0  0  0  0999 V2000
  186.6040  178.3090  142.5470 C   0  0  0  0  0  0  0  0  0  0  0  0
  187.8350  177.9200  142.0100 C   0  0  0  0  0  0  0  0  0  0  0  0
  185.7770  178.9900  140.4380 N   0  0  0  0  0  0  0  0  0  0  0  0
  186.0860  178.2970  143.8240 C   0  0  0  0  0  0  0  0  0  0  0  0
  190.0940  176.9470  142.7300 C   0  0  0  0  0  0  0  0  0  0  0  0
  184.5040  178.5310  146.0840 C   0  0  0  0  0  3  0  0  0  0  0  0
  186.9360  178.6280  139.8790 N   0  0  0  0  0  0  0  0  0  0  0  0
  184.8080  178.8120  143.7230 C   0  0  0  0  0  0  0  0  0  0  0  0
  183.9890  178.9420  144.8420 C   0  0  0  0  0  3  0  0  0  0  0  0
  189.2540  177.7770  139.8430 C   0  0  2  0  0  3  0  0  0  0  0  0
  189.0220  177.5870  138.3510 C   0  0  0  0  0  1  0  0  0  0  0  0
  188.8390  177.3540  142.9500 C   0  0  0  0  0  3  0  0  0  0  0  0
  185.8100  178.0050  146.1840 C   0  0  0  0  0  3  0  0  0  0  0  0
  185.6060  178.8300  141.7650 C   0  0  0  0  0  0  0  0  0  0  0  0
  184.4870  179.1510  142.4540 N   0  0  0  0  0  2  0  0  0  0  0  0
  189.9190  176.6000  140.3630 N   0  0  0  0  0  2  0  0  0  0  0  0
  186.6210  177.8820  145.0420 C   0  0  0  0  0  3  0  0  0  0  0  0
  190.7790  177.0900  141.4190 C   0  0  0  0  0  2  0  0  0  0  0  0
  187.9750  178.0780  140.5930 C   0  0  0  0  0  0  0  0  0  0  0  0
  190.8960  176.3850  143.8740 C   0  0  0  0  0  2  0  0  0  0  0  0
  191.1010  178.7010  144.3450 C   0  0  0  0  0  1  0  0  0  0  0  0
  191.6830  177.3880  144.6200 N   0  0  0  0  0  0  0  0  0  0  0  0
  191.6320  177.1250  146.0130 N   0  0  0  0  0  0  0  0  0  0  0  0
  192.0560  175.8510  146.2160 O   0  0  0  0  0  1  0  0  0  0  0  0
  190.2330  177.1300  146.4210 C   0  0  0  0  0  1  0  0  0  0  0  0
  1  4  1  0  0  0  0
  2  1  2  0  0  0  0
  2 12  1  0  0  0  0
  3 14  2  0  0  0  0
  4 17  1  0  0  0  0
  5 12  2  0  0  0  0
  5 20  1  0  0  0  0
  6 13  1  0  0  0  0
  7  3  1  0  0  0  0
  7 19  2  0  0  0  0
  8  4  2  0  0  0  0
  8  9  1  0  0  0  0
  9  6  2  0  0  0  0
 10 11  1  6  0  0  0
 10 16  1  0  0  0  0
 10 19  1  0  0  0  0
 14 15  1  0  0  0  0
 14  1  1  0  0  0  0
 15  8  1  0  0  0  0
 16 18  1  0  0  0  0
 17 13  2  0  0  0  0
 18  5  1  0  0  0  0
 19  2  1  0  0  0  0
 20 22  1  0  0  0  0
 21 22  1  0  0  0  0
 22 23  1  0  0  0  0
 23 24  1  0  0  0  0
 23 25  1  0  0  0  0
M  END
>  <MODEL>
7

>  <REMARK>
 VINA RESULT:      -9.0      2.524      4.912
  Name = 
  3 active torsions:
  status: ('A' for Active; 'I' for Inactive)
    1  A    between atoms: N_2  and  N_25
    2  A    between atoms: C_6  and  C_15
    3  A    between atoms: C_15  and  N_25
                            x       y       z     vdW  Elec       q    Type
                         _______ _______ _______ _____ _____    ______ ____

>  <TORSDO>
F 3

$$$$
=
 OpenBabel10262419543D

 25 28  0  0  1  0  0  0  0  0999 V2000
  189.0620  177.4460  144.1650 C   0  0  0  0  0  0  0  0  0  0  0  0
  188.7460  177.6760  142.8220 C   0  0  0  0  0  0  0  0  0  0  0  0
  191.1870  176.5580  143.6230 N   0  0  0  0  0  0  0  0  0  0  0  0
  188.3820  177.6580  145.3440 C   0  0  0  0  0  0  0  0  0  0  0  0
  186.8430  178.5750  141.3600 C   0  0  0  0  0  0  0  0  0  0  0  0
  187.5710  177.8270  147.9860 C   0  0  0  0  0  3  0  0  0  0  0  0
  190.9310  176.7650  142.3280 N   0  0  0  0  0  0  0  0  0  0  0  0
  189.2200  177.2240  146.3520 C   0  0  0  0  0  0  0  0  0  0  0  0
  188.8400  177.2970  147.6910 C   0  0  0  0  0  3  0  0  0  0  0  0
  189.5780  177.4410  140.3760 C   0  0  2  0  0  3  0  0  0  0  0  0
  190.9020  177.4540  139.6270 C   0  0  0  0  0  1  0  0  0  0  0  0
  187.4220  178.2870  142.5300 C   0  0  0  0  0  3  0  0  0  0  0  0
  186.7180  178.2690  146.9530 C   0  0  0  0  0  3  0  0  0  0  0  0
  190.2620  176.9000  144.5420 C   0  0  0  0  0  0  0  0  0  0  0  0
  190.3930  176.7480  145.8790 N   0  0  0  0  0  2  0  0  0  0  0  0
  188.8280  178.6260  140.0130 N   0  0  0  0  0  2  0  0  0  0  0  0
  187.1200  178.1880  145.6090 C   0  0  0  0  0  3  0  0  0  0  0  0
  187.4400  178.2180  140.0460 C   0  0  0  0  0  2  0  0  0  0  0  0
  189.7630  177.3280  141.8740 C   0  0  0  0  0  0  0  0  0  0  0  0
  185.4830  179.2220  141.3500 C   0  0  0  0  0  2  0  0  0  0  0  0
  183.2790  178.4150  141.6950 C   0  0  0  0  0  1  0  0  0  0  0  0
  184.4130  178.3850  140.7720 N   0  0  0  0  0  0  0  0  0  0  0  0
  184.0130  178.8920  139.5080 N   0  0  0  0  0  0  0  0  0  0  0  0
  184.5550  180.1280  139.3600 O   0  0  0  0  0  1  0  0  0  0  0  0
  182.5730  179.1100  139.5460 C   0  0  0  0  0  1  0  0  0  0  0  0
  1 14  1  0  0  0  0
  1  4  1  0  0  0  0
  2  1  2  0  0  0  0
  3 14  2  0  0  0  0
  4 17  2  0  0  0  0
  4  8  1  0  0  0  0
  5 12  2  0  0  0  0
  7  3  1  0  0  0  0
  8  9  2  0  0  0  0
  9  6  1  0  0  0  0
 10 11  1  6  0  0  0
 10 19  1  0  0  0  0
 12  2  1  0  0  0  0
 13  6  2  0  0  0  0
 14 15  1  0  0  0  0
 15  8  1  0  0  0  0
 16 18  1  0  0  0  0
 16 10  1  0  0  0  0
 17 13  1  0  0  0  0
 18  5  1  0  0  0  0
 19  7  2  0  0  0  0
 19  2  1  0  0  0  0
 20  5  1  0  0  0  0
 22 20  1  0  0  0  0
 22 21  1  0  0  0  0
 23 25  1  0  0  0  0
 23 22  1  0  0  0  0
 24 23  1  0  0  0  0
M  END
>  <MODEL>
8

>  <REMARK>
 VINA RESULT:      -8.9      2.509      5.999
  Name = 
  3 active torsions:
  status: ('A' for Active; 'I' for Inactive)
    1  A    between atoms: N_2  and  N_25
    2  A    between atoms: C_6  and  C_15
    3  A    between atoms: C_15  and  N_25
                            x       y       z     vdW  Elec       q    Type
                         _______ _______ _______ _____ _____    ______ ____

>  <TORSDO>
F 3

$$$$
=
 OpenBabel10262419543D

 25 28  0  0  1  0  0  0  0  0999 V2000
  187.5130  178.1260  141.9200 C   0  0  0  0  0  0  0  0  0  0  0  0
  186.8760  178.1080  143.1650 C   0  0  0  0  0  0  0  0  0  0  0  0
  185.6490  179.1280  140.8620 N   0  0  0  0  0  0  0  0  0  0  0  0
  188.7530  177.7110  141.4880 C   0  0  0  0  0  0  0  0  0  0  0  0
  187.2780  177.3680  145.5850 C   0  0  0  0  0  0  0  0  0  0  0  0
  191.0270  177.1030  140.0290 C   0  0  0  0  0  3  0  0  0  0  0  0
  185.0030  179.1370  142.0330 N   0  0  0  0  0  0  0  0  0  0  0  0
  188.8030  177.9940  140.1380 C   0  0  0  0  0  0  0  0  0  0  0  0
  189.9330  177.7000  139.3770 C   0  0  0  0  0  3  0  0  0  0  0  0
  184.6890  178.6770  144.4390 C   0  0  2  0  0  3  0  0  0  0  0  0
  183.5660  179.7000  144.3530 C   0  0  0  0  0  1  0  0  0  0  0  0
  187.6420  177.5510  144.3120 C   0  0  0  0  0  3  0  0  0  0  0  0
  190.9720  176.8150  141.4090 C   0  0  0  0  0  3  0  0  0  0  0  0
  186.9000  178.6300  140.8020 C   0  0  0  0  0  0  0  0  0  0  0  0
  187.6630  178.5650  139.6880 N   0  0  0  0  0  2  0  0  0  0  0  0
  185.4610  178.9330  145.6370 N   0  0  0  0  0  2  0  0  0  0  0  0
  189.8230  177.1200  142.1590 C   0  0  0  0  0  3  0  0  0  0  0  0
  185.9030  177.6310  146.0860 C   0  0  0  0  0  2  0  0  0  0  0  0
  185.5590  178.6700  143.2000 C   0  0  0  0  0  0  0  0  0  0  0  0
  188.2730  176.7960  146.5610 C   0  0  0  0  0  2  0  0  0  0  0  0
  189.3520  178.1990  148.1400 C   0  0  0  0  0  1  0  0  0  0  0  0
  189.4600  177.6440  146.7920 N   0  0  0  0  0  0  0  0  0  0  0  0
  190.6480  176.8760  146.6840 N   0  0  0  0  0  0  0  0  0  0  0  0
  191.4660  177.2210  147.7110 O   0  0  0  0  0  1  0  0  0  0  0  0
  191.3500  177.2990  145.4790 C   0  0  0  0  0  1  0  0  0  0  0  0
  1  2  2  0  0  0  0
  2 19  1  0  0  0  0
  2 12  1  0  0  0  0
  3  7  1  0  0  0  0
  4  1  1  0  0  0  0
  4 17  1  0  0  0  0
  5 18  1  0  0  0  0
  5 20  1  0  0  0  0
  6 13  1  0  0  0  0
  7 19  2  0  0  0  0
  8  4  2  0  0  0  0
  9  6  2  0  0  0  0
  9  8  1  0  0  0  0
 10 11  1  6  0  0  0
 10 16  1  0  0  0  0
 12  5  2  0  0  0  0
 13 17  2  0  0  0  0
 14  3  2  0  0  0  0
 14  1  1  0  0  0  0
 15  8  1  0  0  0  0
 15 14  1  0  0  0  0
 16 18  1  0  0  0  0
 19 10  1  0  0  0  0
 20 22  1  0  0  0  0
 22 21  1  0  0  0  0
 23 22  1  0  0  0  0
 23 24  1  0  0  0  0
 25 23  1  0  0  0  0
M  END
>  <MODEL>
9

>  <REMARK>
 VINA RESULT:      -8.9      2.337      5.735
  Name = 
  3 active torsions:
  status: ('A' for Active; 'I' for Inactive)
    1  A    between atoms: N_2  and  N_25
    2  A    between atoms: C_6  and  C_15
    3  A    between atoms: C_15  and  N_25
                            x       y       z     vdW  Elec       q    Type
                         _______ _______ _______ _____ _____    ______ ____

>  <TORSDO>
F 3

$$$$
