=
 OpenBabel10262421073D

 32 37  0  0  1  0  0  0  0  0999 V2000
  182.7430  179.2450  141.6730 C   0  0  1  0  0  3  0  0  0  0  0  0
  185.0120  179.1910  142.7620 C   0  0  1  0  0  3  0  0  0  0  0  0
  182.3820  176.3560  137.8910 C   0  0  0  0  0  0  0  0  0  0  0  0
  181.3230  178.6670  141.7870 C   0  0  0  0  0  2  0  0  0  0  0  0
  183.5620  178.7540  142.8660 C   0  0  1  0  0  3  0  0  0  0  0  0
  185.8380  178.7640  144.0010 C   0  0  2  0  0  3  0  0  0  0  0  0
  181.1260  179.3360  135.9820 F   0  0  0  0  0  0  0  0  0  0  0  0
  181.9510  175.1420  137.4720 F   0  0  0  0  0  0  0  0  0  0  0  0
  185.5870  178.6460  141.4530 C   0  0  1  0  0  3  0  0  0  0  0  0
  187.7970  178.1660  142.5220 N   0  0  0  0  0  0  0  0  0  0  0  0
  182.9480  179.2990  144.1530 C   0  0  2  0  0  3  0  0  0  0  0  0
  182.1270  179.6880  138.0360 C   0  0  0  0  0  3  0  0  0  0  0  0
  183.1360  177.8010  139.6070 C   0  0  0  0  0  0  0  0  0  0  0  0
  186.9260  177.7370  143.6340 C   0  0  0  0  0  2  0  0  0  0  0  0
  183.7710  179.0770  145.3570 N   0  0  0  0  0  2  0  0  0  0  0  0
  182.4990  177.4660  136.8300 C   0  0  0  0  0  3  0  0  0  0  0  0
  182.8250  179.1220  139.1600 C   0  0  0  0  0  0  0  0  0  0  0  0
  181.5460  178.7180  144.3180 C   0  0  0  0  0  2  0  0  0  0  0  0
  182.8820  176.4660  139.1380 C   0  0  1  0  0  3  0  0  0  0  0  0
  182.9240  175.4080  139.9860 F   0  0  0  0  0  0  0  0  0  0  0  0
  184.9200  179.2680  140.3090 N   0  0  0  0  0  2  0  0  0  0  0  0
  181.8400  178.8440  137.0240 C   0  0  0  0  0  0  0  0  0  0  0  0
  183.4960  178.9160  140.3650 C   0  0  1  0  0  0  0  0  0  0  0  0
  187.0860  178.9270  141.4640 C   0  0  1  0  0  3  0  0  0  0  0  0
  184.9370  178.2110  145.1260 C   0  0  2  0  0  3  0  0  0  0  0  0
  180.6780  179.1020  143.1100 C   0  0  0  0  0  2  0  0  0  0  0  0
  187.6580  178.7580  140.2090 F   0  0  0  0  0  0  0  0  0  0  0  0
  185.7260  178.0690  146.4180 C   0  0  0  0  0  2  0  0  0  0  0  0
  185.6320  179.2460  147.1620 O   0  0  0  0  0  1  0  0  0  0  0  0
  188.3470  176.9370  141.9580 C   0  0  0  0  0  2  0  0  0  0  0  0
  190.2690  175.9060  143.0830 C   0  0  0  0  0  2  0  0  0  0  0  0
  188.9540  176.0970  143.0340 C   0  0  0  0  0  3  0  0  0  0  0  0
  1  4  1  6  0  0  0
  1  5  1  0  0  0  0
  2  5  1  0  0  0  0
  2  6  1  0  0  0  0
  3 19  1  0  0  0  0
  4 26  1  0  0  0  0
  5 11  1  0  0  0  0
  6 25  1  0  0  0  0
  7 22  1  0  0  0  0
  8  3  1  0  0  0  0
  9 24  1  0  0  0  0
  9  2  1  0  0  0  0
 10 14  1  0  0  0  0
 11 18  1  0  0  0  0
 11 15  1  0  0  0  0
 12 17  1  0  0  0  0
 13 23  1  0  0  0  0
 14  6  1  0  0  0  0
 16 22  1  0  0  0  0
 16  3  2  0  0  0  0
 17 13  2  0  0  0  0
 17 23  1  0  0  0  0
 19 13  1  0  0  0  0
 19 20  1  0  0  0  0
 21 23  1  0  0  0  0
 21  9  1  0  0  0  0
 22 12  2  0  0  0  0
 23  1  1  0  0  0  0
 24 10  1  0  0  0  0
 25 15  1  0  0  0  0
 25 28  1  0  0  0  0
 26 18  1  0  0  0  0
 27 24  1  0  0  0  0
 28 29  1  0  0  0  0
 30 10  1  0  0  0  0
 30 32  1  0  0  0  0
 32 31  2  0  0  0  0
M  END
>  <MODEL>
1

>  <REMARK>
 VINA RESULT:      -8.7      0.000      0.000
  Name = 
  3 active torsions:
  status: ('A' for Active; 'I' for Inactive)
    1  A    between atoms: C_11  and  N_12
    2  A    between atoms: C_11  and  C_31
    3  A    between atoms: C_13  and  CA_29
                            x       y       z     vdW  Elec       q    Type
                         _______ _______ _______ _____ _____    ______ ____

>  <TORSDO>
F 3

$$$$
=
 OpenBabel10262421073D

 32 37  0  0  1  0  0  0  0  0999 V2000
  183.9750  179.1770  141.8140 C   0  0  1  0  0  3  0  0  0  0  0  0
  186.4550  178.8210  142.0630 C   0  0  1  0  0  3  0  0  0  0  0  0
  182.0970  176.8890  138.0690 C   0  0  0  0  0  0  0  0  0  0  0  0
  182.6160  178.6810  142.3320 C   0  0  0  0  0  2  0  0  0  0  0  0
  185.0780  178.4680  142.5980 C   0  0  1  0  0  3  0  0  0  0  0  0
  187.5870  178.1690  142.8960 C   0  0  2  0  0  3  0  0  0  0  0  0
  180.6200  180.1860  137.0460 F   0  0  0  0  0  0  0  0  0  0  0  0
  181.4240  175.7770  137.6840 F   0  0  0  0  0  0  0  0  0  0  0  0
  186.5120  178.4340  140.5840 C   0  0  1  0  0  3  0  0  0  0  0  0
  188.8830  177.6640  140.7870 N   0  0  0  0  0  0  0  0  0  0  0  0
  184.9780  178.8620  144.0700 C   0  0  2  0  0  3  0  0  0  0  0  0
  182.2640  180.1750  138.6700 C   0  0  0  0  0  3  0  0  0  0  0  0
  183.5180  178.0210  139.5860 C   0  0  0  0  0  0  0  0  0  0  0  0
  188.3780  177.1380  142.0710 C   0  0  0  0  0  2  0  0  0  0  0  0
  186.1180  178.4170  144.8940 N   0  0  0  0  0  2  0  0  0  0  0  0
  181.9820  178.1290  137.1650 C   0  0  0  0  0  3  0  0  0  0  0  0
  183.2240  179.4100  139.4220 C   0  0  0  0  0  0  0  0  0  0  0  0
  183.6510  178.3550  144.6290 C   0  0  0  0  0  2  0  0  0  0  0  0
  182.9820  176.7870  139.0810 C   0  0  1  0  0  3  0  0  0  0  0  0
  183.1820  175.6170  139.7390 F   0  0  0  0  0  0  0  0  0  0  0  0
  185.5800  179.2550  139.8100 N   0  0  0  0  0  2  0  0  0  0  0  0
  181.5750  179.5040  137.7240 C   0  0  0  0  0  0  0  0  0  0  0  0
  184.2230  178.9910  140.3000 C   0  0  1  0  0  0  0  0  0  0  0  0
  187.9540  178.6130  140.1230 C   0  0  1  0  0  3  0  0  0  0  0  0
  187.0450  177.5200  144.1880 C   0  0  2  0  0  3  0  0  0  0  0  0
  182.4860  178.9620  143.8350 C   0  0  0  0  0  2  0  0  0  0  0  0
  188.0660  178.5890  138.7390 F   0  0  0  0  0  0  0  0  0  0  0  0
  188.1900  177.1430  145.1140 C   0  0  0  0  0  2  0  0  0  0  0  0
  187.9180  177.5890  146.4090 O   0  0  0  0  0  1  0  0  0  0  0  0
  189.0840  176.4960  139.9350 C   0  0  0  0  0  2  0  0  0  0  0  0
  191.4300  177.2150  139.9360 C   0  0  0  0  0  2  0  0  0  0  0  0
  190.4650  176.4980  139.3680 C   0  0  0  0  0  3  0  0  0  0  0  0
  1  4  1  1  0  0  0
  1  5  1  0  0  0  0
  2  5  1  0  0  0  0
  2  6  1  0  0  0  0
  3 19  1  0  0  0  0
  4 26  1  0  0  0  0
  5 11  1  0  0  0  0
  6 25  1  0  0  0  0
  7 22  1  0  0  0  0
  8  3  1  0  0  0  0
  9  2  1  0  0  0  0
 10 14  1  0  0  0  0
 11 18  1  0  0  0  0
 11 15  1  0  0  0  0
 12 17  1  0  0  0  0
 13 23  1  0  0  0  0
 14  6  1  0  0  0  0
 16 22  1  0  0  0  0
 16  3  2  0  0  0  0
 17 13  2  0  0  0  0
 17 23  1  0  0  0  0
 19 13  1  0  0  0  0
 19 20  1  0  0  0  0
 21 23  1  0  0  0  0
 21  9  1  0  0  0  0
 22 12  2  0  0  0  0
 23  1  1  0  0  0  0
 24  9  1  0  0  0  0
 24 10  1  0  0  0  0
 25 15  1  0  0  0  0
 25 28  1  0  0  0  0
 26 18  1  0  0  0  0
 27 24  1  0  0  0  0
 28 29  1  0  0  0  0
 30 10  1  0  0  0  0
 32 30  1  0  0  0  0
 32 31  2  0  0  0  0
M  END
>  <MODEL>
2

>  <REMARK>
 VINA RESULT:      -7.9      1.517      1.876
  Name = 
  3 active torsions:
  status: ('A' for Active; 'I' for Inactive)
    1  A    between atoms: C_11  and  N_12
    2  A    between atoms: C_11  and  C_31
    3  A    between atoms: C_13  and  CA_29
                            x       y       z     vdW  Elec       q    Type
                         _______ _______ _______ _____ _____    ______ ____

>  <TORSDO>
F 3

$$$$
=
 OpenBabel10262421073D

 32 37  0  0  1  0  0  0  0  0999 V2000
  185.2610  178.9330  140.8190 C   0  0  1  0  0  3  0  0  0  0  0  0
  187.5790  178.4010  139.9930 C   0  0  1  0  0  3  0  0  0  0  0  0
  181.8080  176.9180  138.2110 C   0  0  0  0  0  0  0  0  0  0  0  0
  184.2130  178.5110  141.8610 C   0  0  0  0  0  2  0  0  0  0  0  0
  186.5340  178.1220  141.0590 C   0  0  1  0  0  3  0  0  0  0  0  0
  188.9020  177.6440  140.2640 C   0  0  2  0  0  3  0  0  0  0  0  0
  180.2960  180.3420  137.9260 F   0  0  0  0  0  0  0  0  0  0  0  0
  180.9530  175.8690  138.1410 F   0  0  0  0  0  0  0  0  0  0  0  0
  186.9770  178.0660  138.6270 C   0  0  1  0  0  3  0  0  0  0  0  0
  189.1450  177.1320  137.8020 N   0  0  0  0  0  0  0  0  0  0  0  0
  187.0950  178.4670  142.4360 C   0  0  2  0  0  3  0  0  0  0  0  0
  182.4660  180.1600  138.7010 C   0  0  0  0  0  3  0  0  0  0  0  0
  183.8200  177.8940  138.9880 C   0  0  0  0  0  0  0  0  0  0  0  0
  189.1910  176.5930  139.1760 C   0  0  0  0  0  2  0  0  0  0  0  0
  188.4380  177.9160  142.6980 N   0  0  0  0  0  2  0  0  0  0  0  0
  181.4190  178.1960  137.4460 C   0  0  0  0  0  3  0  0  0  0  0  0
  183.5910  179.3050  138.9720 C   0  0  0  0  0  0  0  0  0  0  0  0
  186.0930  178.0300  143.5020 C   0  0  0  0  0  2  0  0  0  0  0  0
  183.0270  176.7180  138.7510 C   0  0  1  0  0  3  0  0  0  0  0  0
  183.3960  175.5140  139.2560 F   0  0  0  0  0  0  0  0  0  0  0  0
  185.8720  178.9770  138.3240 N   0  0  0  0  0  2  0  0  0  0  0  0
  181.3930  179.5730  138.1320 C   0  0  0  0  0  0  0  0  0  0  0  0
  184.8320  178.7870  139.3420 C   0  0  1  0  0  0  0  0  0  0  0  0
  188.0990  178.1650  137.6000 C   0  0  1  0  0  3  0  0  0  0  0  0
  188.9080  176.9850  141.6610 C   0  0  2  0  0  3  0  0  0  0  0  0
  184.7520  178.7440  143.2790 C   0  0  0  0  0  2  0  0  0  0  0  0
  187.6140  178.1850  136.2980 F   0  0  0  0  0  0  0  0  0  0  0  0
  190.3050  176.4980  142.0130 C   0  0  0  0  0  2  0  0  0  0  0  0
  190.2210  175.3380  142.7840 O   0  0  0  0  0  1  0  0  0  0  0  0
  188.8770  175.9850  136.9400 C   0  0  0  0  0  2  0  0  0  0  0  0
  189.5480  173.6250  136.9040 C   0  0  0  0  0  2  0  0  0  0  0  0
  189.8400  174.8800  137.2300 C   0  0  0  0  0  3  0  0  0  0  0  0
  1  5  1  0  0  0  0
  1  4  1  1  0  0  0
  2  6  1  0  0  0  0
  2  5  1  0  0  0  0
  3 19  1  0  0  0  0
  4 26  1  0  0  0  0
  5 11  1  0  0  0  0
  6 25  1  0  0  0  0
  7 22  1  0  0  0  0
  8  3  1  0  0  0  0
  9  2  1  0  0  0  0
 10 14  1  0  0  0  0
 11 15  1  0  0  0  0
 11 18  1  0  0  0  0
 12 17  1  0  0  0  0
 13 23  1  0  0  0  0
 14  6  1  0  0  0  0
 16 22  1  0  0  0  0
 16  3  2  0  0  0  0
 17 13  2  0  0  0  0
 17 23  1  0  0  0  0
 19 13  1  0  0  0  0
 19 20  1  0  0  0  0
 21  9  1  0  0  0  0
 21 23  1  0  0  0  0
 22 12  2  0  0  0  0
 23  1  1  0  0  0  0
 24 10  1  0  0  0  0
 24  9  1  0  0  0  0
 25 28  1  0  0  0  0
 25 15  1  0  0  0  0
 26 18  1  0  0  0  0
 27 24  1  0  0  0  0
 28 29  1  0  0  0  0
 30 32  1  0  0  0  0
 30 10  1  0  0  0  0
 31 32  2  0  0  0  0
M  END
>  <MODEL>
3

>  <REMARK>
 VINA RESULT:      -7.7      2.842      3.985
  Name = 
  3 active torsions:
  status: ('A' for Active; 'I' for Inactive)
    1  A    between atoms: C_11  and  N_12
    2  A    between atoms: C_11  and  C_31
    3  A    between atoms: C_13  and  CA_29
                            x       y       z     vdW  Elec       q    Type
                         _______ _______ _______ _____ _____    ______ ____

>  <TORSDO>
F 3

$$$$
=
 OpenBabel10262421073D

 32 37  0  0  1  0  0  0  0  0999 V2000
  185.4400  178.9240  140.2270 C   0  0  1  0  0  3  0  0  0  0  0  0
  187.4980  178.5530  138.8250 C   0  0  1  0  0  3  0  0  0  0  0  0
  181.5390  176.8090  138.4700 C   0  0  0  0  0  0  0  0  0  0  0  0
  184.7090  178.4070  141.4770 C   0  0  0  0  0  2  0  0  0  0  0  0
  186.7690  178.1780  140.1030 C   0  0  1  0  0  3  0  0  0  0  0  0
  188.8800  177.8620  138.7210 C   0  0  2  0  0  3  0  0  0  0  0  0
  179.8480  180.1510  138.7360 F   0  0  0  0  0  0  0  0  0  0  0  0
  180.7420  175.7170  138.5660 F   0  0  0  0  0  0  0  0  0  0  0  0
  186.5870  178.2320  137.6380 C   0  0  1  0  0  3  0  0  0  0  0  0
  188.5190  177.4500  136.2550 N   0  0  0  0  0  0  0  0  0  0  0  0
  187.6420  178.5060  141.3120 C   0  0  2  0  0  3  0  0  0  0  0  0
  182.1490  180.0640  138.9350 C   0  0  0  0  0  3  0  0  0  0  0  0
  183.6340  177.8700  138.7670 C   0  0  0  0  0  0  0  0  0  0  0  0
  188.9330  176.8670  137.5470 C   0  0  0  0  0  2  0  0  0  0  0  0
  189.0310  178.0230  141.2030 N   0  0  0  0  0  2  0  0  0  0  0  0
  180.9110  178.0880  137.8890 C   0  0  0  0  0  3  0  0  0  0  0  0
  183.3440  179.2640  138.8750 C   0  0  0  0  0  0  0  0  0  0  0  0
  186.9610  177.9770  142.5720 C   0  0  0  0  0  2  0  0  0  0  0  0
  182.8620  176.6600  138.6790 C   0  0  1  0  0  3  0  0  0  0  0  0
  183.4010  175.4620  139.0180 F   0  0  0  0  0  0  0  0  0  0  0  0
  185.4010  179.0890  137.6640 N   0  0  0  0  0  2  0  0  0  0  0  0
  180.9960  179.4380  138.6250 C   0  0  0  0  0  0  0  0  0  0  0  0
  184.6600  178.8050  138.8990 C   0  0  1  0  0  0  0  0  0  0  0  0
  187.4090  178.4290  136.3690 C   0  0  1  0  0  3  0  0  0  0  0  0
  189.2680  177.1560  140.0380 C   0  0  2  0  0  3  0  0  0  0  0  0
  185.5760  178.6210  142.7250 C   0  0  0  0  0  2  0  0  0  0  0  0
  186.6110  178.4670  135.2320 F   0  0  0  0  0  0  0  0  0  0  0  0
  190.7290  176.7370  140.0080 C   0  0  0  0  0  2  0  0  0  0  0  0
  190.8790  175.6020  139.2090 O   0  0  0  0  0  1  0  0  0  0  0  0
  188.0950  176.3210  135.4320 C   0  0  0  0  0  2  0  0  0  0  0  0
  187.5920  173.9380  135.7350 C   0  0  0  0  0  2  0  0  0  0  0  0
  187.8440  175.1210  136.2860 C   0  0  0  0  0  3  0  0  0  0  0  0
  1  4  1  1  0  0  0
  2  5  1  0  0  0  0
  3  8  1  0  0  0  0
  3 19  1  0  0  0  0
  4 26  1  0  0  0  0
  5  1  1  0  0  0  0
  5 11  1  0  0  0  0
  6  2  1  0  0  0  0
  6 25  1  0  0  0  0
  9 21  1  0  0  0  0
  9  2  1  0  0  0  0
 10 24  1  0  0  0  0
 10 14  1  0  0  0  0
 11 18  1  0  0  0  0
 13 17  2  0  0  0  0
 13 23  1  0  0  0  0
 14  6  1  0  0  0  0
 15 11  1  0  0  0  0
 16  3  2  0  0  0  0
 16 22  1  0  0  0  0
 17 23  1  0  0  0  0
 17 12  1  0  0  0  0
 18 26  1  0  0  0  0
 19 13  1  0  0  0  0
 19 20  1  0  0  0  0
 21 23  1  0  0  0  0
 22  7  1  0  0  0  0
 22 12  2  0  0  0  0
 23  1  1  0  0  0  0
 24  9  1  0  0  0  0
 25 15  1  0  0  0  0
 27 24  1  0  0  0  0
 28 25  1  0  0  0  0
 29 28  1  0  0  0  0
 30 10  1  0  0  0  0
 30 32  1  0  0  0  0
 31 32  2  0  0  0  0
M  END
>  <MODEL>
4

>  <REMARK>
 VINA RESULT:      -6.1      3.559      4.979
  Name = 
  3 active torsions:
  status: ('A' for Active; 'I' for Inactive)
    1  A    between atoms: C_11  and  N_12
    2  A    between atoms: C_11  and  C_31
    3  A    between atoms: C_13  and  CA_29
                            x       y       z     vdW  Elec       q    Type
                         _______ _______ _______ _____ _____    ______ ____

>  <TORSDO>
F 3

$$$$
=
 OpenBabel10262421073D

 32 37  0  0  1  0  0  0  0  0999 V2000
  185.0720  178.5100  139.5620 C   0  0  1  0  0  3  0  0  0  0  0  0
  187.4530  178.2570  138.7830 C   0  0  1  0  0  3  0  0  0  0  0  0
  182.0410  175.5200  137.4060 C   0  0  0  0  0  0  0  0  0  0  0  0
  184.1070  178.0940  140.6840 C   0  0  0  0  0  2  0  0  0  0  0  0
  186.4660  177.9840  139.9040 C   0  0  1  0  0  3  0  0  0  0  0  0
  188.8860  177.7960  139.1460 C   0  0  2  0  0  3  0  0  0  0  0  0
  179.9560  178.5340  136.5910 F   0  0  0  0  0  0  0  0  0  0  0  0
  181.3820  174.3420  137.5320 F   0  0  0  0  0  0  0  0  0  0  0  0
  186.9270  177.5980  137.5060 C   0  0  1  0  0  3  0  0  0  0  0  0
  189.2300  176.9280  136.7990 N   0  0  0  0  0  0  0  0  0  0  0  0
  186.9490  178.6470  141.1920 C   0  0  2  0  0  3  0  0  0  0  0  0
  182.1200  178.8620  137.3350 C   0  0  0  0  0  3  0  0  0  0  0  0
  183.8460  176.9460  137.9640 C   0  0  0  0  0  0  0  0  0  0  0  0
  189.3600  176.6440  138.2420 C   0  0  0  0  0  2  0  0  0  0  0  0
  188.3660  178.3880  141.5100 N   0  0  0  0  0  2  0  0  0  0  0  0
  181.4390  176.5640  136.4490 C   0  0  0  0  0  3  0  0  0  0  0  0
  183.3740  178.2720  137.7180 C   0  0  0  0  0  0  0  0  0  0  0  0
  186.0320  178.2280  142.3380 C   0  0  0  0  0  2  0  0  0  0  0  0
  183.2720  175.6280  137.9440 C   0  0  1  0  0  3  0  0  0  0  0  0
  183.8420  174.6080  138.6340 F   0  0  0  0  0  0  0  0  0  0  0  0
  185.6810  178.2400  137.0810 N   0  0  0  0  0  2  0  0  0  0  0  0
  181.1690  178.0120  136.8970 C   0  0  0  0  0  0  0  0  0  0  0  0
  184.6840  178.0470  138.1400 C   0  0  1  0  0  0  0  0  0  0  0  0
  188.0210  177.7160  136.4510 C   0  0  1  0  0  3  0  0  0  0  0  0
  188.9980  177.3920  140.6320 C   0  0  2  0  0  3  0  0  0  0  0  0
  184.5880  178.6520  142.0310 C   0  0  0  0  0  2  0  0  0  0  0  0
  187.5480  177.4330  135.1750 F   0  0  0  0  0  0  0  0  0  0  0  0
  190.4560  177.2200  141.0280 C   0  0  0  0  0  2  0  0  0  0  0  0
  190.6010  176.0780  141.8160 O   0  0  0  0  0  1  0  0  0  0  0  0
  189.1720  175.6240  136.1450 C   0  0  0  0  0  2  0  0  0  0  0  0
  191.5100  175.1620  135.5600 C   0  0  0  0  0  2  0  0  0  0  0  0
  190.2850  175.4870  135.1580 C   0  0  0  0  0  3  0  0  0  0  0  0
  1  5  1  0  0  0  0
  1  4  1  1  0  0  0
  2  6  1  0  0  0  0
  2  5  1  0  0  0  0
  3  8  1  0  0  0  0
  3 19  1  0  0  0  0
  4 26  1  0  0  0  0
  5 11  1  0  0  0  0
  6 25  1  0  0  0  0
  7 22  1  0  0  0  0
  9  2  1  0  0  0  0
 10 14  1  0  0  0  0
 11 15  1  0  0  0  0
 11 18  1  0  0  0  0
 12 17  1  0  0  0  0
 13 23  1  0  0  0  0
 14  6  1  0  0  0  0
 16 22  1  0  0  0  0
 16  3  2  0  0  0  0
 17 13  2  0  0  0  0
 17 23  1  0  0  0  0
 19 13  1  0  0  0  0
 19 20  1  0  0  0  0
 21  9  1  0  0  0  0
 21 23  1  0  0  0  0
 22 12  2  0  0  0  0
 23  1  1  0  0  0  0
 24 10  1  0  0  0  0
 24  9  1  0  0  0  0
 25 28  1  0  0  0  0
 25 15  1  0  0  0  0
 26 18  1  0  0  0  0
 27 24  1  0  0  0  0
 28 29  1  0  0  0  0
 30 10  1  0  0  0  0
 32 31  2  0  0  0  0
 32 30  1  0  0  0  0
M  END
>  <MODEL>
5

>  <REMARK>
 VINA RESULT:      -5.7      3.531      4.659
  Name = 
  3 active torsions:
  status: ('A' for Active; 'I' for Inactive)
    1  A    between atoms: C_11  and  N_12
    2  A    between atoms: C_11  and  C_31
    3  A    between atoms: C_13  and  CA_29
                            x       y       z     vdW  Elec       q    Type
                         _______ _______ _______ _____ _____    ______ ____

>  <TORSDO>
F 3

$$$$
=
 OpenBabel10262421073D

 32 37  0  0  1  0  0  0  0  0999 V2000
  185.3220  177.9960  136.9480 C   0  0  1  0  0  3  0  0  0  0  0  0
  184.6060  178.7190  139.2520 C   0  0  1  0  0  3  0  0  0  0  0  0
  188.9000  174.8380  136.9770 C   0  0  0  0  0  0  0  0  0  0  0  0
  184.9640  177.0270  135.8110 C   0  0  0  0  0  2  0  0  0  0  0  0
  184.2580  177.8740  138.0390 C   0  0  1  0  0  3  0  0  0  0  0  0
  183.5010  178.6640  140.3350 C   0  0  2  0  0  3  0  0  0  0  0  0
  190.6830  177.1330  134.6000 F   0  0  0  0  0  0  0  0  0  0  0  0
  189.2040  173.5200  136.8920 F   0  0  0  0  0  0  0  0  0  0  0  0
  185.9710  178.2700  139.7780 C   0  0  1  0  0  3  0  0  0  0  0  0
  185.2510  178.5700  142.1540 N   0  0  0  0  0  0  0  0  0  0  0  0
  182.9090  178.3110  137.4740 C   0  0  2  0  0  3  0  0  0  0  0  0
  188.8270  177.9360  135.7200 C   0  0  0  0  0  3  0  0  0  0  0  0
  187.3740  176.5770  137.4780 C   0  0  0  0  0  0  0  0  0  0  0  0
  184.0010  177.9890  141.6250 C   0  0  0  0  0  2  0  0  0  0  0  0
  181.8440  178.4460  138.4860 N   0  0  0  0  0  2  0  0  0  0  0  0
  190.0020  175.8410  136.5920 C   0  0  0  0  0  3  0  0  0  0  0  0
  187.8110  177.7000  136.7100 C   0  0  0  0  0  0  0  0  0  0  0  0
  182.5040  177.3480  136.3600 C   0  0  0  0  0  2  0  0  0  0  0  0
  187.7520  175.1940  137.5880 C   0  0  1  0  0  3  0  0  0  0  0  0
  186.8870  174.2700  138.0770 F   0  0  0  0  0  0  0  0  0  0  0  0
  187.0150  178.5670  138.7950 N   0  0  0  0  0  2  0  0  0  0  0  0
  189.7520  176.9660  135.5710 C   0  0  0  0  0  0  0  0  0  0  0  0
  186.7210  177.8060  137.5750 C   0  0  1  0  0  0  0  0  0  0  0  0
  186.2070  178.9920  141.1000 C   0  0  1  0  0  3  0  0  0  0  0  0
  182.2290  177.9580  139.8190 C   0  0  2  0  0  3  0  0  0  0  0  0
  183.5710  177.3510  135.2560 C   0  0  0  0  0  2  0  0  0  0  0  0
  187.5310  178.9030  141.5130 F   0  0  0  0  0  0  0  0  0  0  0  0
  181.0750  178.1660  140.7870 C   0  0  0  0  0  2  0  0  0  0  0  0
  180.8140  179.5300  140.9260 O   0  0  0  0  0  1  0  0  0  0  0  0
  185.8540  177.5240  142.9740 C   0  0  0  0  0  2  0  0  0  0  0  0
  187.0550  177.5390  145.1140 C   0  0  0  0  0  2  0  0  0  0  0  0
  186.0590  178.0110  144.3710 C   0  0  0  0  0  3  0  0  0  0  0  0
  1  4  1  6  0  0  0
  1 23  1  0  0  0  0
  1  5  1  0  0  0  0
  2  9  1  0  0  0  0
  2  6  1  0  0  0  0
  3 19  1  0  0  0  0
  5  2  1  0  0  0  0
  6 14  1  0  0  0  0
  7 22  1  0  0  0  0
  8  3  1  0  0  0  0
  9 24  1  0  0  0  0
 10 30  1  0  0  0  0
 11  5  1  0  0  0  0
 11 15  1  0  0  0  0
 12 17  1  0  0  0  0
 13 23  1  0  0  0  0
 13 19  1  0  0  0  0
 14 10  1  0  0  0  0
 15 25  1  0  0  0  0
 16  3  2  0  0  0  0
 17 13  2  0  0  0  0
 17 23  1  0  0  0  0
 18 11  1  0  0  0  0
 19 20  1  0  0  0  0
 21  9  1  0  0  0  0
 22 12  2  0  0  0  0
 22 16  1  0  0  0  0
 23 21  1  0  0  0  0
 24 27  1  0  0  0  0
 24 10  1  0  0  0  0
 25  6  1  0  0  0  0
 25 28  1  0  0  0  0
 26  4  1  0  0  0  0
 26 18  1  0  0  0  0
 28 29  1  0  0  0  0
 30 32  1  0  0  0  0
 32 31  2  0  0  0  0
M  END
>  <MODEL>
6

>  <REMARK>
 VINA RESULT:      -5.7      3.791      5.866
  Name = 
  3 active torsions:
  status: ('A' for Active; 'I' for Inactive)
    1  A    between atoms: C_11  and  N_12
    2  A    between atoms: C_11  and  C_31
    3  A    between atoms: C_13  and  CA_29
                            x       y       z     vdW  Elec       q    Type
                         _______ _______ _______ _____ _____    ______ ____

>  <TORSDO>
F 3

$$$$
