=
 OpenBabel10262419573D

 25 28  0  0  1  0  0  0  0  0999 V2000
  187.1560  178.0110  145.7020 C   0  0  0  0  0  0  0  0  0  0  0  0
  188.4790  177.6380  145.3920 C   0  0  0  0  0  0  0  0  0  0  0  0
  187.5990  178.1570  148.0690 C   0  0  0  0  0  3  0  0  0  0  0  0
  186.0420  178.2260  144.9170 C   0  0  1  0  0  3  0  0  0  0  0  0
  189.9350  177.1920  143.3130 C   0  0  0  0  0  0  0  0  0  0  0  0
  183.5190  178.8000  143.9240 C   0  0  0  0  0  3  0  0  0  0  0  0
  188.9210  177.7820  147.8080 C   0  0  0  0  0  3  0  0  0  0  0  0
  185.0250  178.5830  145.7770 C   0  0  0  0  0  0  0  0  0  0  0  0
  183.7470  178.8780  145.3100 C   0  0  0  0  0  3  0  0  0  0  0  0
  190.8610  177.1660  146.3950 C   0  0  1  0  0  3  0  0  0  0  0  0
  191.3110  176.5070  147.5440 O   0  0  0  0  0  1  0  0  0  0  0  0
  188.7760  177.3960  143.9530 C   0  0  0  0  0  3  0  0  0  0  0  0
  184.5610  178.4350  143.0460 C   0  0  0  0  0  3  0  0  0  0  0  0
  186.7330  178.2590  146.9930 C   0  0  0  0  0  0  0  0  0  0  0  0
  185.4300  178.6120  147.0640 N   0  0  0  0  0  0  0  0  0  0  0  0
  191.2430  176.3380  145.1950 C   0  0  0  0  0  2  0  0  0  0  0  0
  185.8440  178.1430  143.5390 C   0  0  0  0  0  3  0  0  0  0  0  0
  191.2500  177.2490  143.9990 C   0  0  0  0  0  2  0  0  0  0  0  0
  189.3850  177.4950  146.5000 C   0  0  0  0  0  0  0  0  0  0  0  0
  189.5360  177.5000  139.5010 N   0  0  0  0  0  0  0  0  0  0  0  0
  188.8800  178.2820  138.4660 C   0  0  0  0  0  1  0  0  0  0  0  0
  190.4360  176.4340  139.0970 C   0  0  0  0  0  1  0  0  0  0  0  0
  189.9570  176.9860  141.8930 N   0  0  0  0  0  2  0  0  0  0  0  0
  188.5120  178.7020  141.2170 O   0  0  0  0  0  0  0  0  0  0  0  0
  189.3040  177.7780  140.8870 C   0  0  0  0  0  0  0  0  0  0  0  0
  1 14  1  0  0  0  0
  2  1  2  0  0  0  0
  2 19  1  0  0  0  0
  4 17  1  6  0  0  0
  4  1  1  0  0  0  0
  4  8  1  0  0  0  0
  5 12  2  0  0  0  0
  5 18  1  0  0  0  0
  6  9  2  0  0  0  0
  7  3  1  0  0  0  0
  8 15  2  0  0  0  0
  9  8  1  0  0  0  0
 10 19  1  0  0  0  0
 10 11  1  1  0  0  0
 12  2  1  0  0  0  0
 13 17  2  0  0  0  0
 13  6  1  0  0  0  0
 14 15  1  0  0  0  0
 14  3  2  0  0  0  0
 16 10  1  0  0  0  0
 18 16  1  0  0  0  0
 19  7  2  0  0  0  0
 20 25  1  0  0  0  0
 21 20  1  0  0  0  0
 22 20  1  0  0  0  0
 23  5  1  0  0  0  0
 25 24  2  0  0  0  0
 25 23  1  0  0  0  0
M  END
>  <MODEL>
1

>  <REMARK>
 VINA RESULT:     -12.2      0.000      0.000
  Name = 
  1 active torsions:
  status: ('A' for Active; 'I' for Inactive)
    1  A    between atoms: C_6  and  N_15
                            x       y       z     vdW  Elec       q    Type
                         _______ _______ _______ _____ _____    ______ ____

>  <TORSDO>
F 1

$$$$
=
 OpenBabel10262419573D

 25 28  0  0  1  0  0  0  0  0999 V2000
  187.5870  177.8900  145.5560 C   0  0  0  0  0  0  0  0  0  0  0  0
  188.8390  177.6710  144.9480 C   0  0  0  0  0  0  0  0  0  0  0  0
  188.4300  177.4730  147.7770 C   0  0  0  0  0  3  0  0  0  0  0  0
  186.3530  178.2360  145.0450 C   0  0  1  0  0  3  0  0  0  0  0  0
  189.9180  177.8210  142.6130 C   0  0  0  0  0  0  0  0  0  0  0  0
  183.6930  178.9120  144.6590 C   0  0  0  0  0  3  0  0  0  0  0  0
  189.6900  177.2390  147.2170 C   0  0  0  0  0  3  0  0  0  0  0  0
  185.4980  178.3210  146.1230 C   0  0  0  0  0  0  0  0  0  0  0  0
  184.1550  178.6580  145.9630 C   0  0  0  0  0  3  0  0  0  0  0  0
  191.3620  177.0850  145.3940 C   0  0  1  0  0  3  0  0  0  0  0  0
  192.0060  176.1870  146.2500 O   0  0  0  0  0  1  0  0  0  0  0  0
  188.8860  177.8050  143.4660 C   0  0  0  0  0  3  0  0  0  0  0  0
  184.5700  178.8250  143.5570 C   0  0  0  0  0  3  0  0  0  0  0  0
  187.3910  177.7930  146.9200 C   0  0  0  0  0  0  0  0  0  0  0  0
  186.1170  178.0520  147.2920 N   0  0  0  0  0  0  0  0  0  0  0  0
  191.5360  176.5970  143.9790 C   0  0  0  0  0  2  0  0  0  0  0  0
  185.9210  178.4850  143.7430 C   0  0  0  0  0  3  0  0  0  0  0  0
  191.3310  177.7740  143.0640 C   0  0  0  0  0  2  0  0  0  0  0  0
  189.9230  177.3050  145.8210 C   0  0  0  0  0  0  0  0  0  0  0  0
  189.6110  177.2940  138.8170 N   0  0  0  0  0  0  0  0  0  0  0  0
  189.9290  176.3600  137.7490 C   0  0  0  0  0  1  0  0  0  0  0  0
  188.8680  178.4970  138.4850 C   0  0  0  0  0  1  0  0  0  0  0  0
  189.6970  177.9720  141.2030 N   0  0  0  0  0  2  0  0  0  0  0  0
  190.6680  175.9840  140.4310 O   0  0  0  0  0  0  0  0  0  0  0  0
  190.0160  177.0310  140.1660 C   0  0  0  0  0  0  0  0  0  0  0  0
  1 14  1  0  0  0  0
  2  1  2  0  0  0  0
  2 19  1  0  0  0  0
  4 17  1  1  0  0  0
  4  1  1  0  0  0  0
  4  8  1  0  0  0  0
  5 18  1  0  0  0  0
  5 12  2  0  0  0  0
  6  9  2  0  0  0  0
  7  3  1  0  0  0  0
  8 15  2  0  0  0  0
  9  8  1  0  0  0  0
 10 19  1  0  0  0  0
 10 11  1  1  0  0  0
 12  2  1  0  0  0  0
 13 17  2  0  0  0  0
 13  6  1  0  0  0  0
 14 15  1  0  0  0  0
 14  3  2  0  0  0  0
 16 10  1  0  0  0  0
 18 16  1  0  0  0  0
 19  7  2  0  0  0  0
 20 25  1  0  0  0  0
 21 20  1  0  0  0  0
 22 20  1  0  0  0  0
 23  5  1  0  0  0  0
 25 24  2  0  0  0  0
 25 23  1  0  0  0  0
M  END
>  <MODEL>
2

>  <REMARK>
 VINA RESULT:     -11.5      1.101      1.325
  Name = 
  1 active torsions:
  status: ('A' for Active; 'I' for Inactive)
    1  A    between atoms: C_6  and  N_15
                            x       y       z     vdW  Elec       q    Type
                         _______ _______ _______ _____ _____    ______ ____

>  <TORSDO>
F 1

$$$$
=
 OpenBabel10262419573D

 25 28  0  0  1  0  0  0  0  0999 V2000
  187.8980  177.6750  145.6220 C   0  0  0  0  0  0  0  0  0  0  0  0
  187.0420  178.0520  144.5680 C   0  0  0  0  0  0  0  0  0  0  0  0
  186.1670  177.8710  147.2900 C   0  0  0  0  0  3  0  0  0  0  0  0
  189.2290  177.3110  145.6550 C   0  0  0  0  0  0  0  0  0  0  0  0
  187.0990  178.2660  142.0010 C   0  0  0  0  0  0  0  0  0  0  0  0
  191.7830  176.5090  146.3710 C   0  0  0  0  0  3  0  0  0  0  0  0
  185.2840  178.2580  146.2770 C   0  0  0  0  0  3  0  0  0  0  0  0
  189.5220  177.0360  146.9730 C   0  0  0  0  0  0  0  0  0  0  0  0
  190.7960  176.6310  147.3660 C   0  0  0  0  0  3  0  0  0  0  0  0
  184.5850  178.7490  143.9510 C   0  0  1  0  0  3  0  0  0  0  0  0
  183.6360  179.5770  144.5600 O   0  0  0  0  0  1  0  0  0  0  0  0
  187.6510  178.1060  143.2110 C   0  0  0  0  0  3  0  0  0  0  0  0
  191.4800  176.7910  145.0220 C   0  0  0  0  0  3  0  0  0  0  0  0
  187.4750  177.5890  146.9340 C   0  0  1  0  0  3  0  0  0  0  0  0
  188.4540  177.1990  147.7810 N   0  0  0  0  0  0  0  0  0  0  0  0
  185.0540  179.4190  142.6850 C   0  0  0  0  0  2  0  0  0  0  0  0
  190.1870  177.1960  144.6490 C   0  0  0  0  0  3  0  0  0  0  0  0
  185.6320  178.3540  141.7950 C   0  0  0  0  0  2  0  0  0  0  0  0
  185.6880  178.3810  144.9250 C   0  0  0  0  0  0  0  0  0  0  0  0
  189.6490  177.4770  139.2330 N   0  0  0  0  0  0  0  0  0  0  0  0
  190.7720  176.6120  138.9060 C   0  0  0  0  0  1  0  0  0  0  0  0
  189.1780  178.4090  138.2240 C   0  0  0  0  0  1  0  0  0  0  0  0
  187.9170  178.2760  140.8210 N   0  0  0  0  0  2  0  0  0  0  0  0
  189.4500  176.5950  141.3830 O   0  0  0  0  0  0  0  0  0  0  0  0
  189.0190  177.4060  140.5180 C   0  0  0  0  0  0  0  0  0  0  0  0
  1  4  2  0  0  0  0
  1 14  1  0  0  0  0
  2 19  2  0  0  0  0
  2  1  1  0  0  0  0
  4  8  1  0  0  0  0
  5 12  2  0  0  0  0
  6  9  2  0  0  0  0
  7  3  2  0  0  0  0
  8  9  1  0  0  0  0
  8 15  2  0  0  0  0
 10 11  1  1  0  0  0
 10 19  1  0  0  0  0
 12  2  1  0  0  0  0
 13  6  1  0  0  0  0
 14  3  1  6  0  0  0
 14 15  1  0  0  0  0
 16 10  1  0  0  0  0
 17 13  2  0  0  0  0
 17  4  1  0  0  0  0
 18  5  1  0  0  0  0
 18 16  1  0  0  0  0
 19  7  1  0  0  0  0
 20 25  1  0  0  0  0
 21 20  1  0  0  0  0
 22 20  1  0  0  0  0
 23  5  1  0  0  0  0
 25 23  1  0  0  0  0
 25 24  2  0  0  0  0
M  END
>  <MODEL>
3

>  <REMARK>
 VINA RESULT:     -10.9      1.852      4.720
  Name = 
  1 active torsions:
  status: ('A' for Active; 'I' for Inactive)
    1  A    between atoms: C_6  and  N_15
                            x       y       z     vdW  Elec       q    Type
                         _______ _______ _______ _____ _____    ______ ____

>  <TORSDO>
F 1

$$$$
=
 OpenBabel10262419573D

 25 28  0  0  1  0  0  0  0  0999 V2000
  189.4900  177.4570  144.1300 C   0  0  0  0  0  0  0  0  0  0  0  0
  188.4840  177.6530  145.0970 C   0  0  0  0  0  0  0  0  0  0  0  0
  191.1680  176.9160  145.7770 C   0  0  0  0  0  3  0  0  0  0  0  0
  189.4840  177.5340  142.7530 C   0  0  0  0  0  0  0  0  0  0  0  0
  185.9560  178.1450  145.1990 C   0  0  0  0  0  0  0  0  0  0  0  0
  190.1090  177.5130  140.0530 C   0  0  0  0  0  3  0  0  0  0  0  0
  190.2030  177.1070  146.7710 C   0  0  0  0  0  3  0  0  0  0  0  0
  190.7640  177.2280  142.3420 C   0  0  0  0  0  0  0  0  0  0  0  0
  191.1100  177.2090  140.9930 C   0  0  0  0  0  2  0  0  0  0  0  0
  187.9460  177.5950  147.6690 C   0  0  1  0  0  3  0  0  0  0  0  0
  188.6410  178.0090  148.8090 O   0  0  0  0  0  1  0  0  0  0  0  0
  187.1420  178.0410  144.5830 C   0  0  0  0  0  3  0  0  0  0  0  0
  188.8000  177.8260  140.4750 C   0  0  0  0  0  3  0  0  0  0  0  0
  190.7840  177.1040  144.4600 C   0  0  0  0  0  0  0  0  0  0  0  0
  191.5840  176.9570  143.3790 N   0  0  0  0  0  0  0  0  0  0  0  0
  186.7630  178.5100  147.4780 C   0  0  0  0  0  2  0  0  0  0  0  0
  188.4720  177.8370  141.8420 C   0  0  0  0  0  3  0  0  0  0  0  0
  185.7600  177.7840  146.6240 C   0  0  0  0  0  2  0  0  0  0  0  0
  188.8730  177.4950  146.4730 C   0  0  0  0  0  0  0  0  0  0  0  0
  183.2520  178.7000  142.5220 N   0  0  0  0  0  0  0  0  0  0  0  0
  182.9740  178.5280  141.1050 C   0  0  0  0  0  1  0  0  0  0  0  0
  182.2000  179.2240  143.3750 C   0  0  0  0  0  1  0  0  0  0  0  0
  184.7860  178.5390  144.4670 N   0  0  0  0  0  2  0  0  0  0  0  0
  185.4350  177.9080  142.3050 O   0  0  0  0  0  0  0  0  0  0  0  0
  184.5320  178.3540  143.0650 C   0  0  0  0  0  0  0  0  0  0  0  0
  1 14  1  0  0  0  0
  1  2  2  0  0  0  0
  2 19  1  0  0  0  0
  3  7  1  0  0  0  0
  4  1  1  0  0  0  0
  5 18  1  0  0  0  0
  6 13  2  0  0  0  0
  6  9  1  0  0  0  0
  8  4  1  0  0  0  0
  8 15  2  0  0  0  0
  9  8  1  0  0  0  0
 10 11  1  1  0  0  0
 12  2  1  0  0  0  0
 12  5  2  0  0  0  0
 13 17  1  0  0  0  0
 14  3  2  0  0  0  0
 15 14  1  0  0  0  0
 16 10  1  0  0  0  0
 17  4  2  0  0  0  0
 18 16  1  0  0  0  0
 19  7  2  0  0  0  0
 19 10  1  0  0  0  0
 20 25  1  0  0  0  0
 20 22  1  0  0  0  0
 21 20  1  0  0  0  0
 23  5  1  0  0  0  0
 24 25  2  0  0  0  0
 25 23  1  0  0  0  0
M  END
>  <MODEL>
4

>  <REMARK>
 VINA RESULT:     -10.2      1.828      5.355
  Name = 
  1 active torsions:
  status: ('A' for Active; 'I' for Inactive)
    1  A    between atoms: C_6  and  N_15
                            x       y       z     vdW  Elec       q    Type
                         _______ _______ _______ _____ _____    ______ ____

>  <TORSDO>
F 1

$$$$
=
 OpenBabel10262419573D

 25 28  0  0  1  0  0  0  0  0999 V2000
  187.9660  177.7060  143.3570 C   0  0  0  0  0  0  0  0  0  0  0  0
  186.6430  178.1030  143.6330 C   0  0  0  0  0  0  0  0  0  0  0  0
  188.4830  177.3040  145.6780 C   0  0  0  0  0  3  0  0  0  0  0  0
  188.6740  177.5810  142.1780 C   0  0  0  0  0  0  0  0  0  0  0  0
  184.5060  178.7640  142.3530 C   0  0  0  0  0  0  0  0  0  0  0  0
  190.5800  177.1280  140.2190 C   0  0  0  0  0  3  0  0  0  0  0  0
  187.1810  177.6990  146.0000 C   0  0  0  0  0  3  0  0  0  0  0  0
  189.9320  177.1380  142.5270 C   0  0  0  0  0  0  0  0  0  0  0  0
  190.9120  176.9010  141.5660 C   0  0  0  0  0  2  0  0  0  0  0  0
  184.8660  178.4550  145.5370 C   0  0  1  0  0  3  0  0  0  0  0  0
  184.9300  178.9850  146.8290 O   0  0  0  0  0  1  0  0  0  0  0  0
  185.8140  178.4970  142.4600 C   0  0  0  0  0  3  0  0  0  0  0  0
  189.2910  177.5800  139.8640 C   0  0  0  0  0  3  0  0  0  0  0  0
  188.8520  177.3220  144.3440 C   0  0  0  0  0  0  0  0  0  0  0  0
  190.0650  176.9700  143.8590 N   0  0  0  0  0  0  0  0  0  0  0  0
  184.0760  179.4050  144.6740 C   0  0  0  0  0  2  0  0  0  0  0  0
  188.3170  177.8110  140.8500 C   0  0  0  0  0  3  0  0  0  0  0  0
  183.5650  178.6270  143.4930 C   0  0  0  0  0  2  0  0  0  0  0  0
  186.2520  178.1230  145.0170 C   0  0  0  0  0  0  0  0  0  0  0  0
  182.5930  178.8260  139.0180 N   0  0  0  0  0  0  0  0  0  0  0  0
  181.8510  177.9840  138.0940 C   0  0  0  0  0  1  0  0  0  0  0  0
  182.7000  180.2450  138.7280 C   0  0  0  0  0  1  0  0  0  0  0  0
  183.9350  179.1210  141.0860 N   0  0  0  0  0  2  0  0  0  0  0  0
  183.1040  177.0340  140.4200 O   0  0  0  0  0  0  0  0  0  0  0  0
  183.2010  178.2700  140.1910 C   0  0  0  0  0  0  0  0  0  0  0  0
  1  2  2  0  0  0  0
  1 14  1  0  0  0  0
  2 19  1  0  0  0  0
  3  7  1  0  0  0  0
  4  8  1  0  0  0  0
  4  1  1  0  0  0  0
  5 12  2  0  0  0  0
  5 18  1  0  0  0  0
  6  9  1  0  0  0  0
  8 15  2  0  0  0  0
  9  8  1  0  0  0  0
 10 11  1  1  0  0  0
 12  2  1  0  0  0  0
 13  6  2  0  0  0  0
 13 17  1  0  0  0  0
 14  3  2  0  0  0  0
 15 14  1  0  0  0  0
 16 10  1  0  0  0  0
 17  4  2  0  0  0  0
 18 16  1  0  0  0  0
 19 10  1  0  0  0  0
 19  7  2  0  0  0  0
 20 25  1  0  0  0  0
 21 20  1  0  0  0  0
 22 20  1  0  0  0  0
 23  5  1  0  0  0  0
 25 24  2  0  0  0  0
 25 23  1  0  0  0  0
M  END
>  <MODEL>
5

>  <REMARK>
 VINA RESULT:      -9.9      3.168      5.862
  Name = 
  1 active torsions:
  status: ('A' for Active; 'I' for Inactive)
    1  A    between atoms: C_6  and  N_15
                            x       y       z     vdW  Elec       q    Type
                         _______ _______ _______ _____ _____    ______ ____

>  <TORSDO>
F 1

$$$$
=
 OpenBabel10262419573D

 25 28  0  0  1  0  0  0  0  0999 V2000
  189.3550  177.5030  144.4840 C   0  0  0  0  0  0  0  0  0  0  0  0
  189.0800  177.6220  143.1080 C   0  0  0  0  0  0  0  0  0  0  0  0
  191.6800  176.9740  144.1200 C   0  0  0  0  0  3  0  0  0  0  0  0
  188.5690  177.6570  145.6080 C   0  0  1  0  0  3  0  0  0  0  0  0
  187.1240  178.2930  141.5690 C   0  0  0  0  0  0  0  0  0  0  0  0
  187.5560  177.8280  148.1820 C   0  0  0  0  0  3  0  0  0  0  0  0
  191.4510  177.0750  142.7440 C   0  0  0  0  0  3  0  0  0  0  0  0
  189.3900  177.4250  146.6900 C   0  0  0  0  0  0  0  0  0  0  0  0
  188.9120  177.5030  147.9960 C   0  0  0  0  0  3  0  0  0  0  0  0
  190.1200  177.5030  140.6980 C   0  0  1  0  0  3  0  0  0  0  0  0
  191.0430  176.6480  140.0870 O   0  0  0  0  0  1  0  0  0  0  0  0
  187.6750  177.9570  142.7430 C   0  0  0  0  0  2  0  0  0  0  0  0
  186.7180  178.0660  147.0720 C   0  0  0  0  0  3  0  0  0  0  0  0
  190.6100  177.1890  144.9700 C   0  0  0  0  0  0  0  0  0  0  0  0
  190.6550  177.1350  146.3210 N   0  0  0  0  0  0  0  0  0  0  0  0
  188.7660  177.2510  140.0860 C   0  0  0  0  0  2  0  0  0  0  0  0
  187.2220  177.9840  145.7630 C   0  0  0  0  0  3  0  0  0  0  0  0
  187.9230  178.4720  140.3320 C   0  0  0  0  0  2  0  0  0  0  0  0
  190.1730  177.3700  142.2080 C   0  0  0  0  0  0  0  0  0  0  0  0
  183.5420  179.0060  140.3680 N   0  0  0  0  0  0  0  0  0  0  0  0
  182.7560  179.2980  139.1800 C   0  0  0  0  0  1  0  0  0  0  0  0
  182.8490  178.8580  141.6370 C   0  0  0  0  0  1  0  0  0  0  0  0
  185.7210  178.5810  141.4780 N   0  0  0  0  0  0  0  0  0  0  0  0
  185.5480  179.0030  139.1800 O   0  0  0  0  0  0  0  0  0  0  0  0
  184.9650  178.8620  140.2890 C   0  0  0  0  0  0  0  0  0  0  0  0
  1 14  2  0  0  0  0
  1  4  1  0  0  0  0
  2  1  1  0  0  0  0
  3 14  1  0  0  0  0
  4 17  1  1  0  0  0
  4  8  1  0  0  0  0
  5 12  1  0  0  0  0
  7  3  2  0  0  0  0
  8  9  1  0  0  0  0
  9  6  2  0  0  0  0
 10 11  1  6  0  0  0
 10 19  1  0  0  0  0
 12  2  1  0  0  0  0
 13  6  1  0  0  0  0
 14 15  1  0  0  0  0
 15  8  2  0  0  0  0
 16 18  1  0  0  0  0
 16 10  1  0  0  0  0
 17 13  2  0  0  0  0
 18  5  1  0  0  0  0
 19  7  1  0  0  0  0
 19  2  2  0  0  0  0
 20 22  1  0  0  0  0
 21 20  1  0  0  0  0
 23  5  2  0  0  0  0
 24 25  2  0  0  0  0
 25 20  1  0  0  0  0
 25 23  1  0  0  0  0
M  END
>  <MODEL>
6

>  <REMARK>
 VINA RESULT:      -9.7      2.724      5.060
  Name = 
  1 active torsions:
  status: ('A' for Active; 'I' for Inactive)
    1  A    between atoms: C_6  and  N_15
                            x       y       z     vdW  Elec       q    Type
                         _______ _______ _______ _____ _____    ______ ____

>  <TORSDO>
F 1

$$$$
=
 OpenBabel10262419573D

 25 28  0  0  1  0  0  0  0  0999 V2000
  188.3500  177.5860  144.6150 C   0  0  0  0  0  0  0  0  0  0  0  0
  188.1390  177.7590  143.2320 C   0  0  0  0  0  0  0  0  0  0  0  0
  186.0720  178.1450  145.1790 C   0  0  0  0  0  3  0  0  0  0  0  0
  189.4580  177.2130  145.3480 C   0  0  0  0  0  0  0  0  0  0  0  0
  189.4210  177.4510  141.0180 C   0  0  0  0  0  0  0  0  0  0  0  0
  191.2650  176.5250  147.3320 C   0  0  0  0  0  3  0  0  0  0  0  0
  185.8190  178.3360  143.8170 C   0  0  0  0  0  3  0  0  0  0  0  0
  189.0630  177.2030  146.6690 C   0  0  0  0  0  0  0  0  0  0  0  0
  189.9470  176.8620  147.6900 C   0  0  0  0  0  3  0  0  0  0  0  0
  186.3570  178.3620  141.3980 C   0  0  1  0  0  3  0  0  0  0  0  0
  185.3340  179.3120  141.3230 O   0  0  0  0  0  1  0  0  0  0  0  0
  189.3170  177.5280  142.3520 C   0  0  0  0  0  3  0  0  0  0  0  0
  191.6670  176.5350  145.9800 C   0  0  0  0  0  3  0  0  0  0  0  0
  187.3520  177.7740  145.5520 C   0  0  1  0  0  3  0  0  0  0  0  0
  187.7660  177.5450  146.8190 N   0  0  0  0  0  0  0  0  0  0  0  0
  187.4390  178.7550  140.4250 C   0  0  0  0  0  2  0  0  0  0  0  0
  190.7570  176.8810  144.9660 C   0  0  0  0  0  3  0  0  0  0  0  0
  188.2440  177.5230  140.1180 C   0  0  0  0  0  2  0  0  0  0  0  0
  186.8230  178.1780  142.8290 C   0  0  0  0  0  0  0  0  0  0  0  0
  192.2710  176.5320  138.6060 N   0  0  0  0  0  0  0  0  0  0  0  0
  192.5450  175.8940  137.3290 C   0  0  0  0  0  1  0  0  0  0  0  0
  193.3790  177.1220  139.3360 C   0  0  0  0  0  1  0  0  0  0  0  0
  190.6930  177.2090  140.3990 N   0  0  0  0  0  2  0  0  0  0  0  0
  189.9920  176.0540  138.4850 O   0  0  0  0  0  0  0  0  0  0  0  0
  190.9380  176.5810  139.1300 C   0  0  0  0  0  0  0  0  0  0  0  0
  1  4  2  0  0  0  0
  1 14  1  0  0  0  0
  2  1  1  0  0  0  0
  4  8  1  0  0  0  0
  5 12  2  0  0  0  0
  6  9  2  0  0  0  0
  7  3  2  0  0  0  0
  8 15  2  0  0  0  0
  8  9  1  0  0  0  0
 10 11  1  1  0  0  0
 10 19  1  0  0  0  0
 12  2  1  0  0  0  0
 13  6  1  0  0  0  0
 14  3  1  6  0  0  0
 14 15  1  0  0  0  0
 16 10  1  0  0  0  0
 17  4  1  0  0  0  0
 17 13  2  0  0  0  0
 18 16  1  0  0  0  0
 18  5  1  0  0  0  0
 19  2  2  0  0  0  0
 19  7  1  0  0  0  0
 20 25  1  0  0  0  0
 20 22  1  0  0  0  0
 21 20  1  0  0  0  0
 23  5  1  0  0  0  0
 24 25  2  0  0  0  0
 25 23  1  0  0  0  0
M  END
>  <MODEL>
7

>  <REMARK>
 VINA RESULT:      -9.4      2.363      4.864
  Name = 
  1 active torsions:
  status: ('A' for Active; 'I' for Inactive)
    1  A    between atoms: C_6  and  N_15
                            x       y       z     vdW  Elec       q    Type
                         _______ _______ _______ _____ _____    ______ ____

>  <TORSDO>
F 1

$$$$
=
 OpenBabel10262419573D

 25 28  0  0  1  0  0  0  0  0999 V2000
  187.0750  178.2330  142.3410 C   0  0  0  0  0  0  0  0  0  0  0  0
  187.1190  178.0980  143.7430 C   0  0  0  0  0  0  0  0  0  0  0  0
  184.8820  179.2370  142.3620 C   0  0  0  0  0  3  0  0  0  0  0  0
  187.9790  177.9180  141.3470 C   0  0  0  0  0  0  0  0  0  0  0  0
  188.7750  177.3530  145.5720 C   0  0  0  0  0  0  0  0  0  0  0  0
  189.3240  177.5380  138.9540 C   0  0  0  0  0  3  0  0  0  0  0  0
  184.8780  179.1150  143.7550 C   0  0  0  0  0  3  0  0  0  0  0  0
  187.3900  178.2890  140.1570 C   0  0  0  0  0  0  0  0  0  0  0  0
  188.0400  178.1110  138.9370 C   0  0  0  0  0  2  0  0  0  0  0  0
  185.8120  178.5420  145.9780 C   0  0  1  0  0  3  0  0  0  0  0  0
  184.4710  178.4140  146.3530 O   0  0  0  0  0  1  0  0  0  0  0  0
  188.3500  177.4790  144.3070 C   0  0  0  0  0  3  0  0  0  0  0  0
  189.9250  177.1600  140.1740 C   0  0  0  0  0  3  0  0  0  0  0  0
  185.9950  178.7810  141.6770 C   0  0  0  0  0  0  0  0  0  0  0  0
  186.1650  178.8250  140.3360 N   0  0  0  0  0  0  0  0  0  0  0  0
  186.6070  177.4830  146.6970 C   0  0  0  0  0  2  0  0  0  0  0  0
  189.2520  177.3500  141.3930 C   0  0  0  0  0  3  0  0  0  0  0  0
  188.0420  177.9330  146.7240 C   0  0  0  0  0  2  0  0  0  0  0  0
  185.9570  178.5350  144.4690 C   0  0  0  0  0  0  0  0  0  0  0  0
  191.9350  175.9440  147.2490 N   0  0  0  0  0  0  0  0  0  0  0  0
  192.7000  175.9730  148.4840 C   0  0  0  0  0  1  0  0  0  0  0  0
  192.3870  175.0740  146.1760 C   0  0  0  0  0  1  0  0  0  0  0  0
  190.0250  176.7100  145.8600 N   0  0  0  0  0  2  0  0  0  0  0  0
  190.3900  177.5040  148.0350 O   0  0  0  0  0  0  0  0  0  0  0  0
  190.7600  176.7490  147.0940 C   0  0  0  0  0  0  0  0  0  0  0  0
  1  2  2  0  0  0  0
  2 12  1  0  0  0  0
  2 19  1  0  0  0  0
  3  7  1  0  0  0  0
  4 17  2  0  0  0  0
  4  1  1  0  0  0  0
  5 23  1  0  0  0  0
  5 18  1  0  0  0  0
  6 13  2  0  0  0  0
  7 19  2  0  0  0  0
  8 15  2  0  0  0  0
  8  4  1  0  0  0  0
  9  6  1  0  0  0  0
  9  8  1  0  0  0  0
 10 11  1  6  0  0  0
 10 16  1  0  0  0  0
 12  5  2  0  0  0  0
 13 17  1  0  0  0  0
 14  1  1  0  0  0  0
 14  3  2  0  0  0  0
 15 14  1  0  0  0  0
 16 18  1  0  0  0  0
 19 10  1  0  0  0  0
 20 21  1  0  0  0  0
 22 20  1  0  0  0  0
 23 25  1  0  0  0  0
 25 20  1  0  0  0  0
 25 24  2  0  0  0  0
M  END
>  <MODEL>
8

>  <REMARK>
 VINA RESULT:      -9.4      2.424      5.984
  Name = 
  1 active torsions:
  status: ('A' for Active; 'I' for Inactive)
    1  A    between atoms: C_6  and  N_15
                            x       y       z     vdW  Elec       q    Type
                         _______ _______ _______ _____ _____    ______ ____

>  <TORSDO>
F 1

$$$$
=
 OpenBabel10262419573D

 25 28  0  0  1  0  0  0  0  0999 V2000
  187.8460  177.6150  144.4980 C   0  0  0  0  0  0  0  0  0  0  0  0
  186.5970  177.9800  143.9580 C   0  0  0  0  0  0  0  0  0  0  0  0
  187.0540  177.7170  146.7750 C   0  0  0  0  0  3  0  0  0  0  0  0
  189.0560  177.3000  143.9150 C   0  0  1  0  0  3  0  0  0  0  0  0
  185.4810  178.2420  141.6500 C   0  0  0  0  0  0  0  0  0  0  0  0
  191.6770  176.5790  143.3730 C   0  0  0  0  0  3  0  0  0  0  0  0
  185.7990  178.0900  146.2830 C   0  0  0  0  0  3  0  0  0  0  0  0
  189.9210  177.0110  144.9490 C   0  0  0  0  0  0  0  0  0  0  0  0
  191.2440  176.6460  144.7100 C   0  0  0  0  0  3  0  0  0  0  0  0
  184.1110  178.5970  144.5410 C   0  0  1  0  0  3  0  0  0  0  0  0
  183.5200  179.3780  145.5400 O   0  0  0  0  0  1  0  0  0  0  0  0
  186.5240  178.0800  142.4750 C   0  0  0  0  0  2  0  0  0  0  0  0
  190.7890  176.8740  142.3170 C   0  0  0  0  0  3  0  0  0  0  0  0
  188.0650  177.4900  145.8570 C   0  0  0  0  0  0  0  0  0  0  0  0
  189.3310  177.1210  146.1570 N   0  0  0  0  0  0  0  0  0  0  0  0
  183.9390  179.3070  143.2230 C   0  0  0  0  0  2  0  0  0  0  0  0
  189.4580  177.2380  142.5810 C   0  0  0  0  0  3  0  0  0  0  0  0
  184.0780  178.2790  142.1330 C   0  0  0  0  0  2  0  0  0  0  0  0
  185.5430  178.2520  144.8990 C   0  0  0  0  0  0  0  0  0  0  0  0
  186.9420  178.3450  138.0950 N   0  0  0  0  0  0  0  0  0  0  0  0
  188.1900  178.4700  137.3600 C   0  0  0  0  0  1  0  0  0  0  0  0
  185.7160  178.1320  137.3450 C   0  0  0  0  0  1  0  0  0  0  0  0
  185.6750  178.3030  140.2300 N   0  0  0  0  0  0  0  0  0  0  0  0
  187.9960  178.6160  140.1570 O   0  0  0  0  0  0  0  0  0  0  0  0
  186.9220  178.4230  139.5260 C   0  0  0  0  0  0  0  0  0  0  0  0
  1 14  1  0  0  0  0
  2  1  2  0  0  0  0
  2 19  1  0  0  0  0
  4 17  1  6  0  0  0
  4  1  1  0  0  0  0
  4  8  1  0  0  0  0
  5 18  1  0  0  0  0
  5 12  1  0  0  0  0
  6  9  2  0  0  0  0
  7  3  1  0  0  0  0
  8 15  2  0  0  0  0
  9  8  1  0  0  0  0
 10 19  1  0  0  0  0
 10 11  1  1  0  0  0
 12  2  1  0  0  0  0
 13 17  2  0  0  0  0
 13  6  1  0  0  0  0
 14 15  1  0  0  0  0
 14  3  2  0  0  0  0
 16 10  1  0  0  0  0
 18 16  1  0  0  0  0
 19  7  2  0  0  0  0
 20 25  1  0  0  0  0
 21 20  1  0  0  0  0
 22 20  1  0  0  0  0
 23  5  2  0  0  0  0
 25 24  2  0  0  0  0
 25 23  1  0  0  0  0
M  END
>  <MODEL>
9

>  <REMARK>
 VINA RESULT:      -9.4      2.482      5.055
  Name = 
  1 active torsions:
  status: ('A' for Active; 'I' for Inactive)
    1  A    between atoms: C_6  and  N_15
                            x       y       z     vdW  Elec       q    Type
                         _______ _______ _______ _____ _____    ______ ____

>  <TORSDO>
F 1

$$$$
