=
 OpenBabel10262421443D

 30 34  0  0  1  0  0  0  0  0999 V2000
  188.2400  178.1150  141.7350 C   0  0  2  0  0  3  0  0  0  0  0  0
  189.8300  177.2700  139.7150 C   0  0  1  0  0  3  0  0  0  0  0  0
  190.5720  177.7040  143.3770 C   0  0  2  0  0  0  0  0  0  0  0  0
  187.5830  177.3130  142.8040 N   0  0  2  0  0  0  0  0  0  0  0  0
  187.2240  178.5550  140.7010 C   0  0  0  0  0  2  0  0  0  0  0  0
  184.4740  178.1200  142.4910 N   0  0  0  0  0  2  0  0  0  0  0  0
  185.6680  178.9140  142.7390 C   0  0  2  0  0  3  0  0  0  0  0  0
  184.9520  179.3340  140.5100 N   0  0  0  0  0  2  0  0  0  0  0  0
  186.1390  179.4280  141.3460 C   0  0  2  0  0  3  0  0  0  0  0  0
  186.7360  178.2070  143.6070 C   0  0  1  0  0  3  0  0  0  0  0  0
  191.2980  177.0610  139.3710 C   0  0  0  0  0  3  0  0  0  0  0  0
  182.9650  178.0960  140.6940 O   0  0  0  0  0  0  0  0  0  0  0  0
  188.9080  175.8040  139.2940 Cl  0  0  0  0  0  0  0  0  0  0  0  0
  191.7480  177.0520  142.5730 C   0  0  2  0  0  3  0  0  0  0  0  0
  192.3890  177.3480  140.1220 C   0  0  0  0  0  3  0  0  0  0  0  0
  184.0490  178.4900  141.1960 C   0  0  0  0  0  0  0  0  0  0  0  0
  189.6090  177.6470  141.1730 C   0  0  2  0  0  3  0  0  0  0  0  0
  188.3790  176.4900  143.5890 O   0  0  0  0  0  0  0  0  0  0  0  0
  189.4130  177.2010  144.2920 C   0  0  1  0  0  3  0  0  0  0  0  0
  192.3980  177.9610  141.5100 C   0  0  0  0  0  2  0  0  0  0  0  0
  190.3550  176.7910  142.1530 C   0  0  2  0  0  3  0  0  0  0  0  0
  190.4890  179.0950  143.1420 O   0  0  0  0  0  0  0  0  0  0  0  0
  191.0460  179.7130  144.2650 C   0  0  0  0  0  1  0  0  0  0  0  0
  185.6960  178.5470  145.9080 C   0  0  0  0  0  1  0  0  0  0  0  0
  186.1460  177.5410  144.8590 C   0  0  0  0  0  2  0  0  0  0  0  0
  189.9580  176.3260  145.4270 C   0  0  1  0  0  3  0  0  0  0  0  0
  191.7450  175.9180  147.3000 C   0  0  0  0  0  1  0  0  0  0  0  0
  191.7640  176.5110  145.5850 S   0  0  0  0  0  0  0  0  0  0  0  0
  189.3080  176.6940  146.7520 C   0  0  0  0  0  2  0  0  0  0  0  0
  189.0590  178.0660  146.7960 O   0  0  0  0  0  1  0  0  0  0  0  0
  1  5  1  6  0  0  0
  1  4  1  0  0  0  0
  2 13  1  1  0  0  0
  2 17  1  0  0  0  0
  3 22  1  6  0  0  0
  3 19  1  0  0  0  0
  4 18  1  1  0  0  0
  4 10  1  0  0  0  0
  7  6  1  6  0  0  0
  7 10  1  0  0  0  0
  8 16  1  0  0  0  0
  8  9  1  0  0  0  0
  9  5  1  6  0  0  0
  9  7  1  0  0  0  0
 10 25  1  1  0  0  0
 11  2  1  0  0  0  0
 11 15  2  0  0  0  0
 12 16  2  0  0  0  0
 14 20  1  6  0  0  0
 14  3  1  0  0  0  0
 15 20  1  0  0  0  0
 16  6  1  0  0  0  0
 17  1  1  0  0  0  0
 17 21  1  0  0  0  0
 18 19  1  0  0  0  0
 19 26  1  0  0  0  0
 21 14  1  0  0  0  0
 21  3  1  0  0  0  0
 22 23  1  0  0  0  0
 25 24  1  0  0  0  0
 26 28  1  0  0  0  0
 26 29  1  0  0  0  0
 28 27  1  0  0  0  0
 29 30  1  0  0  0  0
M  END
>  <MODEL>
1

>  <REMARK>
 VINA RESULT:      -6.3      0.000      0.000
  Name = 
  5 active torsions:
  status: ('A' for Active; 'I' for Inactive)
    1  A    between atoms: C_3  and  O_11
    2  A    between atoms: C_10  and  C_15
    3  A    between atoms: C_10  and  C_25
    4  A    between atoms: C_10  and  S_26
    5  A    between atoms: C_13  and  C_30
                            x       y       z     vdW  Elec       q    Type
                         _______ _______ _______ _____ _____    ______ ____

>  <TORSDO>
F 5

$$$$
=
 OpenBabel10262421443D

 30 34  0  0  1  0  0  0  0  0999 V2000
  191.1730  175.9060  137.7690 C   0  0  2  0  0  3  0  0  0  0  0  0
  190.0770  177.5120  139.6510 C   0  0  1  0  0  3  0  0  0  0  0  0
  188.5450  175.9530  136.5900 C   0  0  2  0  0  0  0  0  0  0  0  0
  191.0170  174.4360  137.5900 N   0  0  2  0  0  0  0  0  0  0  0  0
  192.5380  176.2280  138.3420 C   0  0  0  0  0  2  0  0  0  0  0  0
  194.0690  173.3870  137.6100 N   0  0  0  0  0  2  0  0  0  0  0  0
  193.3740  174.3500  136.7690 C   0  0  2  0  0  3  0  0  0  0  0  0
  194.8450  175.5480  138.2030 N   0  0  0  0  0  2  0  0  0  0  0  0
  193.6490  175.7470  137.3990 C   0  0  2  0  0  3  0  0  0  0  0  0
  191.8920  174.0020  136.4910 C   0  0  1  0  0  3  0  0  0  0  0  0
  188.8670  178.4040  139.8880 C   0  0  0  0  0  3  0  0  0  0  0  0
  195.8590  173.6330  139.1070 O   0  0  0  0  0  0  0  0  0  0  0  0
  190.2850  176.4140  141.0400 Cl  0  0  0  0  0  0  0  0  0  0  0  0
  187.5100  176.7070  137.4920 C   0  0  2  0  0  3  0  0  0  0  0  0
  187.8670  178.7130  139.0270 C   0  0  0  0  0  3  0  0  0  0  0  0
  194.9900  174.1510  138.3590 C   0  0  0  0  0  0  0  0  0  0  0  0
  189.9910  176.7260  138.3500 C   0  0  2  0  0  3  0  0  0  0  0  0
  189.7330  173.9220  137.4790 O   0  0  0  0  0  0  0  0  0  0  0  0
  188.9910  174.4740  136.3770 C   0  0  1  0  0  3  0  0  0  0  0  0
  187.7200  178.2320  137.5950 C   0  0  0  0  0  2  0  0  0  0  0  0
  188.6730  176.0470  138.1240 C   0  0  2  0  0  3  0  0  0  0  0  0
  189.3350  176.8530  135.8400 O   0  0  0  0  0  0  0  0  0  0  0  0
  189.5360  176.2500  134.5940 C   0  0  0  0  0  1  0  0  0  0  0  0
  192.3910  172.1830  134.7770 C   0  0  0  0  0  1  0  0  0  0  0  0
  191.6870  172.5360  136.0790 C   0  0  0  0  0  2  0  0  0  0  0  0
  187.7840  173.5800  136.0710 C   0  0  1  0  0  3  0  0  0  0  0  0
  188.1060  171.0210  135.6050 C   0  0  0  0  0  1  0  0  0  0  0  0
  188.0970  172.5370  134.6090 S   0  0  0  0  0  0  0  0  0  0  0  0
  187.4630  172.6810  137.2550 C   0  0  0  0  0  2  0  0  0  0  0  0
  186.1960  172.9820  137.7530 O   0  0  0  0  0  1  0  0  0  0  0  0
  1  5  1  1  0  0  0
  1 17  1  0  0  0  0
  2 11  1  0  0  0  0
  2 13  1  1  0  0  0
  3 22  1  6  0  0  0
  3 14  1  0  0  0  0
  3 21  1  0  0  0  0
  4 18  1  6  0  0  0
  4  1  1  0  0  0  0
  6 16  1  0  0  0  0
  7  9  1  0  0  0  0
  7  6  1  1  0  0  0
  8 16  1  0  0  0  0
  9  8  1  0  0  0  0
  9  5  1  1  0  0  0
 10 25  1  1  0  0  0
 10  7  1  0  0  0  0
 10  4  1  0  0  0  0
 14 20  1  6  0  0  0
 14 21  1  0  0  0  0
 15 11  2  0  0  0  0
 16 12  2  0  0  0  0
 17  2  1  0  0  0  0
 19  3  1  0  0  0  0
 19 18  1  0  0  0  0
 20 15  1  0  0  0  0
 21 17  1  0  0  0  0
 23 22  1  0  0  0  0
 24 25  1  0  0  0  0
 26 19  1  0  0  0  0
 26 29  1  0  0  0  0
 28 27  1  0  0  0  0
 28 26  1  0  0  0  0
 29 30  1  0  0  0  0
M  END
>  <MODEL>
2

>  <REMARK>
 VINA RESULT:      -6.0      5.786      9.088
  Name = 
  5 active torsions:
  status: ('A' for Active; 'I' for Inactive)
    1  A    between atoms: C_3  and  O_11
    2  A    between atoms: C_10  and  C_15
    3  A    between atoms: C_10  and  C_25
    4  A    between atoms: C_10  and  S_26
    5  A    between atoms: C_13  and  C_30
                            x       y       z     vdW  Elec       q    Type
                         _______ _______ _______ _____ _____    ______ ____

>  <TORSDO>
F 5

$$$$
=
 OpenBabel10262421443D

 30 34  0  0  1  0  0  0  0  0999 V2000
  191.0100  177.1420  139.8570 C   0  0  2  0  0  3  0  0  0  0  0  0
  189.8580  177.2890  142.3010 C   0  0  1  0  0  3  0  0  0  0  0  0
  188.3610  177.7120  138.8770 C   0  0  2  0  0  0  0  0  0  0  0  0
  190.9350  176.0430  138.8550 N   0  0  2  0  0  0  0  0  0  0  0  0
  192.3640  177.1500  140.5360 C   0  0  0  0  0  2  0  0  0  0  0  0
  194.0430  175.3570  138.3180 N   0  0  0  0  0  2  0  0  0  0  0  0
  193.2770  176.5870  138.1800 C   0  0  2  0  0  3  0  0  0  0  0  0
  194.7040  176.8130  140.0700 N   0  0  0  0  0  2  0  0  0  0  0  0
  193.4830  177.3720  139.5100 C   0  0  2  0  0  3  0  0  0  0  0  0
  191.8130  176.3790  137.7250 C   0  0  1  0  0  3  0  0  0  0  0  0
  188.6020  177.8060  142.9900 C   0  0  0  0  0  3  0  0  0  0  0  0
  195.8440  174.7910  139.7130 O   0  0  0  0  0  0  0  0  0  0  0  0
  190.1550  175.6040  142.7990 Cl  0  0  0  0  0  0  0  0  0  0  0  0
  187.3020  177.7400  140.0300 C   0  0  2  0  0  3  0  0  0  0  0  0
  187.5700  178.4980  142.4510 C   0  0  0  0  0  3  0  0  0  0  0  0
  194.9320  175.5960  139.3890 C   0  0  0  0  0  0  0  0  0  0  0  0
  189.7920  177.4020  140.7850 C   0  0  2  0  0  3  0  0  0  0  0  0
  189.6810  175.6150  138.4430 O   0  0  0  0  0  0  0  0  0  0  0  0
  188.8880  176.6600  137.8520 C   0  0  1  0  0  3  0  0  0  0  0  0
  187.4250  178.9310  141.0030 C   0  0  0  0  0  2  0  0  0  0  0  0
  188.5120  176.9050  140.1820 C   0  0  2  0  0  3  0  0  0  0  0  0
  189.0840  178.9240  138.8030 O   0  0  0  0  0  0  0  0  0  0  0  0
  189.1400  179.2620  137.4480 C   0  0  0  0  0  1  0  0  0  0  0  0
  191.4230  176.1330  135.2190 C   0  0  0  0  0  1  0  0  0  0  0  0
  191.6860  175.4160  136.5350 C   0  0  0  0  0  2  0  0  0  0  0  0
  187.7290  176.0420  137.0620 C   0  0  1  0  0  3  0  0  0  0  0  0
  185.8610  177.0550  135.5290 C   0  0  0  0  0  1  0  0  0  0  0  0
  187.6410  176.7380  135.3800 S   0  0  0  0  0  0  0  0  0  0  0  0
  187.8890  174.5330  136.9610 C   0  0  0  0  0  2  0  0  0  0  0  0
  186.6660  173.9060  137.2010 O   0  0  0  0  0  1  0  0  0  0  0  0
  1  5  1  1  0  0  0
  1 17  1  0  0  0  0
  2 13  1  6  0  0  0
  2 11  1  0  0  0  0
  3 22  1  1  0  0  0
  3 14  1  0  0  0  0
  3 21  1  0  0  0  0
  4 18  1  6  0  0  0
  4  1  1  0  0  0  0
  6 16  1  0  0  0  0
  7  6  1  1  0  0  0
  7  9  1  0  0  0  0
  9  8  1  0  0  0  0
  9  5  1  1  0  0  0
 10 25  1  6  0  0  0
 10  7  1  0  0  0  0
 10  4  1  0  0  0  0
 14 21  1  0  0  0  0
 14 20  1  1  0  0  0
 15 11  2  0  0  0  0
 16 12  2  0  0  0  0
 16  8  1  0  0  0  0
 17  2  1  0  0  0  0
 19 18  1  0  0  0  0
 19  3  1  0  0  0  0
 20 15  1  0  0  0  0
 21 17  1  0  0  0  0
 23 22  1  0  0  0  0
 24 25  1  0  0  0  0
 26 19  1  0  0  0  0
 28 27  1  0  0  0  0
 28 26  1  0  0  0  0
 29 26  1  0  0  0  0
 29 30  1  0  0  0  0
M  END
>  <MODEL>
3

>  <REMARK>
 VINA RESULT:      -5.5      4.385      8.060
  Name = 
  5 active torsions:
  status: ('A' for Active; 'I' for Inactive)
    1  A    between atoms: C_3  and  O_11
    2  A    between atoms: C_10  and  C_15
    3  A    between atoms: C_10  and  C_25
    4  A    between atoms: C_10  and  S_26
    5  A    between atoms: C_13  and  C_30
                            x       y       z     vdW  Elec       q    Type
                         _______ _______ _______ _____ _____    ______ ____

>  <TORSDO>
F 5

$$$$
=
 OpenBabel10262421443D

 30 34  0  0  1  0  0  0  0  0999 V2000
  187.7310  175.6260  136.6340 C   0  0  2  0  0  3  0  0  0  0  0  0
  187.1500  173.0270  136.1540 C   0  0  1  0  0  3  0  0  0  0  0  0
  190.4500  174.8310  136.1090 C   0  0  2  0  0  0  0  0  0  0  0  0
  188.3470  176.2360  137.8450 N   0  0  2  0  0  0  0  0  0  0  0  0
  186.2480  175.9290  136.5830 C   0  0  0  0  0  2  0  0  0  0  0  0
  186.1900  178.4850  138.6850 N   0  0  0  0  0  2  0  0  0  0  0  0
  186.9420  178.2640  137.4580 C   0  0  2  0  0  3  0  0  0  0  0  0
  184.6710  177.6910  137.0460 N   0  0  0  0  0  2  0  0  0  0  0  0
  186.0050  177.4430  136.5230 C   0  0  2  0  0  3  0  0  0  0  0  0
  188.3650  177.6970  137.6760 C   0  0  1  0  0  3  0  0  0  0  0  0
  187.7450  171.7780  135.5190 C   0  0  0  0  0  3  0  0  0  0  0  0
  183.8860  178.4370  139.1290 O   0  0  0  0  0  0  0  0  0  0  0  0
  186.5230  172.6280  137.7730 Cl  0  0  0  0  0  0  0  0  0  0  0  0
  190.5810  173.2830  135.9070 C   0  0  2  0  0  3  0  0  0  0  0  0
  188.9250  171.6450  134.8660 C   0  0  0  0  0  3  0  0  0  0  0  0
  184.8450  178.2230  138.3440 C   0  0  0  0  0  0  0  0  0  0  0  0
  188.1370  174.1840  136.2250 C   0  0  2  0  0  3  0  0  0  0  0  0
  189.5660  175.7390  138.2820 O   0  0  0  0  0  0  0  0  0  0  0  0
  190.6080  175.8330  137.2930 C   0  0  1  0  0  3  0  0  0  0  0  0
  189.9490  172.7360  134.6110 C   0  0  0  0  0  2  0  0  0  0  0  0
  189.4900  173.8110  136.7540 C   0  0  2  0  0  3  0  0  0  0  0  0
  189.9880  175.4720  134.9370 O   0  0  0  0  0  0  0  0  0  0  0  0
  190.6150  176.7210  134.9030 C   0  0  0  0  0  1  0  0  0  0  0  0
  188.7770  177.9740  140.1750 C   0  0  0  0  0  1  0  0  0  0  0  0
  189.1440  178.4370  138.7740 C   0  0  0  0  0  2  0  0  0  0  0  0
  191.9740  175.6670  137.9690 C   0  0  1  0  0  3  0  0  0  0  0  0
  193.9920  174.1430  137.2810 C   0  0  0  0  0  1  0  0  0  0  0  0
  193.3210  175.7410  136.7440 S   0  0  0  0  0  0  0  0  0  0  0  0
  192.1970  176.7530  139.0100 C   0  0  0  0  0  2  0  0  0  0  0  0
  193.5550  177.0620  139.0940 O   0  0  0  0  0  1  0  0  0  0  0  0
  1  5  1  1  0  0  0
  1  4  1  0  0  0  0
  2 17  1  0  0  0  0
  2 13  1  1  0  0  0
  3 22  1  6  0  0  0
  3 21  1  0  0  0  0
  3 19  1  0  0  0  0
  4 18  1  6  0  0  0
  7 10  1  0  0  0  0
  7  6  1  1  0  0  0
  8 16  1  0  0  0  0
  9  5  1  1  0  0  0
  9  8  1  0  0  0  0
  9  7  1  0  0  0  0
 10  4  1  0  0  0  0
 10 25  1  1  0  0  0
 11  2  1  0  0  0  0
 14 20  1  6  0  0  0
 14  3  1  0  0  0  0
 14 21  1  0  0  0  0
 15 11  2  0  0  0  0
 16  6  1  0  0  0  0
 16 12  2  0  0  0  0
 17  1  1  0  0  0  0
 17 21  1  0  0  0  0
 19 26  1  0  0  0  0
 19 18  1  0  0  0  0
 20 15  1  0  0  0  0
 23 22  1  0  0  0  0
 25 24  1  0  0  0  0
 26 29  1  0  0  0  0
 28 27  1  0  0  0  0
 28 26  1  0  0  0  0
 29 30  1  0  0  0  0
M  END
>  <MODEL>
4

>  <REMARK>
 VINA RESULT:      -5.2      4.861      6.915
  Name = 
  5 active torsions:
  status: ('A' for Active; 'I' for Inactive)
    1  A    between atoms: C_3  and  O_11
    2  A    between atoms: C_10  and  C_15
    3  A    between atoms: C_10  and  C_25
    4  A    between atoms: C_10  and  S_26
    5  A    between atoms: C_13  and  C_30
                            x       y       z     vdW  Elec       q    Type
                         _______ _______ _______ _____ _____    ______ ____

>  <TORSDO>
F 5

$$$$
=
 OpenBabel10262421443D

 30 34  0  0  1  0  0  0  0  0999 V2000
  184.2630  177.6740  137.7820 C   0  0  2  0  0  3  0  0  0  0  0  0
  182.7590  178.8850  139.6770 C   0  0  1  0  0  3  0  0  0  0  0  0
  181.7280  176.9440  136.6240 C   0  0  2  0  0  0  0  0  0  0  0  0
  184.5460  176.2230  137.6010 N   0  0  2  0  0  0  0  0  0  0  0  0
  185.4770  178.3850  138.3450 C   0  0  0  0  0  2  0  0  0  0  0  0
  187.7720  176.1200  137.5940 N   0  0  0  0  0  2  0  0  0  0  0  0
  186.8160  176.8360  136.7600 C   0  0  2  0  0  3  0  0  0  0  0  0
  187.8810  178.4140  138.1860 N   0  0  0  0  0  2  0  0  0  0  0  0
  186.6730  178.2530  137.3920 C   0  0  2  0  0  3  0  0  0  0  0  0
  185.5010  176.0660  136.4940 C   0  0  1  0  0  3  0  0  0  0  0  0
  181.3410  179.3810  139.9260 C   0  0  0  0  0  3  0  0  0  0  0  0
  189.4220  176.8830  139.0770 O   0  0  0  0  0  0  0  0  0  0  0  0
  183.2930  177.8980  141.0620 Cl  0  0  0  0  0  0  0  0  0  0  0  0
  180.5250  177.3600  137.5370 C   0  0  2  0  0  3  0  0  0  0  0  0
  180.2870  179.3820  139.0740 C   0  0  0  0  0  3  0  0  0  0  0  0
  188.4330  177.1220  138.3370 C   0  0  0  0  0  0  0  0  0  0  0  0
  182.8960  178.1090  138.3750 C   0  0  2  0  0  3  0  0  0  0  0  0
  183.4690  175.3540  137.4990 O   0  0  0  0  0  0  0  0  0  0  0  0
  182.5890  175.6620  136.4040 C   0  0  1  0  0  3  0  0  0  0  0  0
  180.2770  178.8790  137.6420 C   0  0  0  0  0  2  0  0  0  0  0  0
  181.8350  177.0720  138.1570 C   0  0  2  0  0  3  0  0  0  0  0  0
  182.2120  178.0370  135.8700 O   0  0  0  0  0  0  0  0  0  0  0  0
  182.4990  177.5350  134.5970 C   0  0  0  0  0  1  0  0  0  0  0  0
  186.0210  174.4500  134.5940 C   0  0  0  0  0  1  0  0  0  0  0  0
  185.7330  174.6050  136.0800 C   0  0  0  0  0  2  0  0  0  0  0  0
  181.6960  174.4530  136.1060 C   0  0  1  0  0  3  0  0  0  0  0  0
  182.9690  172.2220  135.5830 C   0  0  0  0  0  1  0  0  0  0  0  0
  182.2600  173.5780  134.6090 S   0  0  0  0  0  0  0  0  0  0  0  0
  181.6990  173.4780  137.2730 C   0  0  0  0  0  2  0  0  0  0  0  0
  180.5400  173.6410  138.0330 O   0  0  0  0  0  1  0  0  0  0  0  0
  1  5  1  1  0  0  0
  1 17  1  0  0  0  0
  2 11  1  0  0  0  0
  2 13  1  1  0  0  0
  3 22  1  6  0  0  0
  3 14  1  0  0  0  0
  3 21  1  0  0  0  0
  4 18  1  6  0  0  0
  4  1  1  0  0  0  0
  6 16  1  0  0  0  0
  7  9  1  0  0  0  0
  7  6  1  1  0  0  0
  8 16  1  0  0  0  0
  9  8  1  0  0  0  0
  9  5  1  1  0  0  0
 10 25  1  1  0  0  0
 10  7  1  0  0  0  0
 10  4  1  0  0  0  0
 14 20  1  6  0  0  0
 14 21  1  0  0  0  0
 15 11  2  0  0  0  0
 16 12  2  0  0  0  0
 17  2  1  0  0  0  0
 19  3  1  0  0  0  0
 19 18  1  0  0  0  0
 20 15  1  0  0  0  0
 21 17  1  0  0  0  0
 23 22  1  0  0  0  0
 24 25  1  0  0  0  0
 26 19  1  0  0  0  0
 26 29  1  0  0  0  0
 28 27  1  0  0  0  0
 28 26  1  0  0  0  0
 29 30  1  0  0  0  0
M  END
>  <MODEL>
5

>  <REMARK>
 VINA RESULT:      -5.1      5.961      9.800
  Name = 
  5 active torsions:
  status: ('A' for Active; 'I' for Inactive)
    1  A    between atoms: C_3  and  O_11
    2  A    between atoms: C_10  and  C_15
    3  A    between atoms: C_10  and  C_25
    4  A    between atoms: C_10  and  S_26
    5  A    between atoms: C_13  and  C_30
                            x       y       z     vdW  Elec       q    Type
                         _______ _______ _______ _____ _____    ______ ____

>  <TORSDO>
F 5

$$$$
=
 OpenBabel10262421443D

 30 34  0  0  1  0  0  0  0  0999 V2000
  189.9630  176.7210  140.3450 C   0  0  2  0  0  3  0  0  0  0  0  0
  192.3780  176.5480  139.1350 C   0  0  1  0  0  3  0  0  0  0  0  0
  188.9220  176.7010  137.6590 C   0  0  2  0  0  0  0  0  0  0  0  0
  189.0680  177.9040  140.4770 N   0  0  2  0  0  0  0  0  0  0  0  0
  190.6440  176.4200  141.6640 C   0  0  0  0  0  2  0  0  0  0  0  0
  188.6120  178.0980  143.6660 N   0  0  0  0  0  2  0  0  0  0  0  0
  188.3550  177.0340  142.7070 C   0  0  2  0  0  3  0  0  0  0  0  0
  190.2220  176.3970  144.0370 N   0  0  0  0  0  2  0  0  0  0  0  0
  189.6070  176.1070  142.7510 C   0  0  2  0  0  3  0  0  0  0  0  0
  187.9150  177.5280  141.3090 C   0  0  1  0  0  3  0  0  0  0  0  0
  193.0090  176.1910  137.7970 C   0  0  0  0  0  3  0  0  0  0  0  0
  190.0610  178.2200  145.5080 O   0  0  0  0  0  0  0  0  0  0  0  0
  193.0320  178.1050  139.7030 Cl  0  0  0  0  0  0  0  0  0  0  0  0
  190.0630  176.7470  136.5860 C   0  0  2  0  0  3  0  0  0  0  0  0
  192.4030  175.7360  136.6740 C   0  0  0  0  0  3  0  0  0  0  0  0
  189.6590  177.6150  144.4810 C   0  0  0  0  0  0  0  0  0  0  0  0
  190.8570  176.5870  139.0830 C   0  0  2  0  0  3  0  0  0  0  0  0
  188.6930  178.5740  139.3220 O   0  0  0  0  0  0  0  0  0  0  0  0
  188.0030  177.7370  138.3760 C   0  0  1  0  0  3  0  0  0  0  0  0
  190.9210  175.4690  136.4870 C   0  0  0  0  0  2  0  0  0  0  0  0
  190.2980  177.3470  137.9170 C   0  0  2  0  0  3  0  0  0  0  0  0
  188.7380  175.3960  138.1680 O   0  0  0  0  0  0  0  0  0  0  0  0
  187.6030  174.8850  137.5310 C   0  0  0  0  0  1  0  0  0  0  0  0
  185.5830  178.1470  142.1290 C   0  0  0  0  0  1  0  0  0  0  0  0
  186.8200  178.6040  141.3690 C   0  0  0  0  0  2  0  0  0  0  0  0
  187.2690  178.6130  137.3540 C   0  0  1  0  0  3  0  0  0  0  0  0
  186.0410  177.4220  135.3680 C   0  0  0  0  0  1  0  0  0  0  0  0
  187.6910  178.1220  135.6510 S   0  0  0  0  0  0  0  0  0  0  0  0
  185.7630  178.5080  137.5360 C   0  0  0  0  0  2  0  0  0  0  0  0
  185.3470  179.3500  138.5680 O   0  0  0  0  0  1  0  0  0  0  0  0
  1  4  1  0  0  0  0
  1  5  1  1  0  0  0
  2 13  1  6  0  0  0
  3 21  1  0  0  0  0
  3 22  1  1  0  0  0
  3 19  1  0  0  0  0
  4 18  1  6  0  0  0
  4 10  1  0  0  0  0
  6 16  1  0  0  0  0
  7  9  1  0  0  0  0
  7  6  1  1  0  0  0
  8 16  1  0  0  0  0
  9  5  1  6  0  0  0
  9  8  1  0  0  0  0
 10 25  1  1  0  0  0
 10  7  1  0  0  0  0
 11  2  1  0  0  0  0
 14 20  1  1  0  0  0
 14  3  1  0  0  0  0
 14 21  1  0  0  0  0
 15 11  2  0  0  0  0
 16 12  2  0  0  0  0
 17  2  1  0  0  0  0
 17  1  1  0  0  0  0
 19 18  1  0  0  0  0
 20 15  1  0  0  0  0
 21 17  1  0  0  0  0
 23 22  1  0  0  0  0
 25 24  1  0  0  0  0
 26 29  1  0  0  0  0
 26 19  1  0  0  0  0
 27 28  1  0  0  0  0
 28 26  1  0  0  0  0
 29 30  1  0  0  0  0
M  END
>  <MODEL>
6

>  <REMARK>
 VINA RESULT:      -5.0      3.431      6.351
  Name = 
  5 active torsions:
  status: ('A' for Active; 'I' for Inactive)
    1  A    between atoms: C_3  and  O_11
    2  A    between atoms: C_10  and  C_15
    3  A    between atoms: C_10  and  C_25
    4  A    between atoms: C_10  and  S_26
    5  A    between atoms: C_13  and  C_30
                            x       y       z     vdW  Elec       q    Type
                         _______ _______ _______ _____ _____    ______ ____

>  <TORSDO>
F 5

$$$$
=
 OpenBabel10262421443D

 30 34  0  0  1  0  0  0  0  0999 V2000
  182.9500  178.1200  139.5420 C   0  0  2  0  0  3  0  0  0  0  0  0
  182.8010  179.0600  142.0750 C   0  0  1  0  0  3  0  0  0  0  0  0
  180.1220  177.6570  139.8380 C   0  0  2  0  0  0  0  0  0  0  0  0
  182.9360  176.7080  139.0680 N   0  0  2  0  0  0  0  0  0  0  0  0
  184.3480  178.6960  139.4500 C   0  0  0  0  0  2  0  0  0  0  0  0
  185.6480  176.5130  137.3290 N   0  0  0  0  0  2  0  0  0  0  0  0
  184.4830  177.3790  137.2260 C   0  0  2  0  0  3  0  0  0  0  0  0
  186.3000  178.6800  138.0380 N   0  0  0  0  0  2  0  0  0  0  0  0
  184.8460  178.6810  137.9990 C   0  0  2  0  0  3  0  0  0  0  0  0
  183.1480  176.7000  137.6130 C   0  0  1  0  0  3  0  0  0  0  0  0
  181.7870  179.5510  143.0980 C   0  0  0  0  0  3  0  0  0  0  0  0
  187.9030  176.9830  137.7820 O   0  0  0  0  0  0  0  0  0  0  0  0
  183.8690  177.8510  142.8330 Cl  0  0  0  0  0  0  0  0  0  0  0  0
  179.6270  177.9580  141.2940 C   0  0  2  0  0  3  0  0  0  0  0  0
  180.4500  179.7180  142.9470 C   0  0  0  0  0  3  0  0  0  0  0  0
  186.7050  177.3640  137.7180 C   0  0  0  0  0  0  0  0  0  0  0  0
  182.1520  178.4960  140.8190 C   0  0  2  0  0  3  0  0  0  0  0  0
  181.8780  175.8970  139.4550 O   0  0  0  0  0  0  0  0  0  0  0  0
  180.5950  176.4010  139.0430 C   0  0  1  0  0  3  0  0  0  0  0  0
  179.6380  179.4480  141.6940 C   0  0  0  0  0  2  0  0  0  0  0  0
  181.0280  177.5370  141.0800 C   0  0  2  0  0  3  0  0  0  0  0  0
  180.2560  178.8400  139.0780 O   0  0  0  0  0  0  0  0  0  0  0  0
  179.7420  178.5490  137.8110 C   0  0  0  0  0  1  0  0  0  0  0  0
  182.4750  175.3910  135.5330 C   0  0  0  0  0  1  0  0  0  0  0  0
  182.9690  175.3160  136.9700 C   0  0  0  0  0  2  0  0  0  0  0  0
  179.5520  175.2800  139.1270 C   0  0  1  0  0  3  0  0  0  0  0  0
  180.1510  173.0070  137.9680 C   0  0  0  0  0  1  0  0  0  0  0  0
  179.2750  174.5230  137.4920 S   0  0  0  0  0  0  0  0  0  0  0  0
  179.9980  174.1990  140.0990 C   0  0  0  0  0  2  0  0  0  0  0  0
  179.3380  174.3520  141.3180 O   0  0  0  0  0  1  0  0  0  0  0  0
  1  5  1  1  0  0  0
  1 17  1  0  0  0  0
  2 13  1  1  0  0  0
  2 11  1  0  0  0  0
  3 22  1  6  0  0  0
  3 21  1  0  0  0  0
  3 14  1  0  0  0  0
  4 18  1  6  0  0  0
  4  1  1  0  0  0  0
  6 16  1  0  0  0  0
  7  6  1  1  0  0  0
  7 10  1  0  0  0  0
  7  9  1  0  0  0  0
  9  8  1  0  0  0  0
  9  5  1  1  0  0  0
 10 25  1  1  0  0  0
 10  4  1  0  0  0  0
 14 20  1  6  0  0  0
 15 11  2  0  0  0  0
 16 12  2  0  0  0  0
 16  8  1  0  0  0  0
 17 21  1  0  0  0  0
 17  2  1  0  0  0  0
 19 26  1  0  0  0  0
 19 18  1  0  0  0  0
 19  3  1  0  0  0  0
 20 15  1  0  0  0  0
 21 14  1  0  0  0  0
 23 22  1  0  0  0  0
 24 25  1  0  0  0  0
 26 29  1  0  0  0  0
 28 27  1  0  0  0  0
 28 26  1  0  0  0  0
 29 30  1  0  0  0  0
M  END
>  <MODEL>
7

>  <REMARK>
 VINA RESULT:      -4.9      6.434      9.595
  Name = 
  5 active torsions:
  status: ('A' for Active; 'I' for Inactive)
    1  A    between atoms: C_3  and  O_11
    2  A    between atoms: C_10  and  C_15
    3  A    between atoms: C_10  and  C_25
    4  A    between atoms: C_10  and  S_26
    5  A    between atoms: C_13  and  C_30
                            x       y       z     vdW  Elec       q    Type
                         _______ _______ _______ _____ _____    ______ ____

>  <TORSDO>
F 5

$$$$
=
 OpenBabel10262421443D

 30 34  0  0  1  0  0  0  0  0999 V2000
  186.8740  177.7910  138.7290 C   0  0  2  0  0  3  0  0  0  0  0  0
  184.6820  177.2510  137.2360 C   0  0  1  0  0  3  0  0  0  0  0  0
  188.3140  177.3910  136.2660 C   0  0  2  0  0  0  0  0  0  0  0  0
  187.8990  176.8490  139.2570 N   0  0  2  0  0  0  0  0  0  0  0  0
  185.9560  178.2540  139.8420 C   0  0  0  0  0  2  0  0  0  0  0  0
  187.8670  177.4640  142.4250 N   0  0  0  0  0  2  0  0  0  0  0  0
  188.1150  178.3120  141.2690 C   0  0  2  0  0  3  0  0  0  0  0  0
  185.9880  178.8870  142.1660 N   0  0  0  0  0  2  0  0  0  0  0  0
  186.7510  178.9850  140.9310 C   0  0  2  0  0  3  0  0  0  0  0  0
  188.8380  177.6030  140.1000 C   0  0  1  0  0  3  0  0  0  0  0  0
  184.2260  177.1770  135.7860 C   0  0  0  0  0  3  0  0  0  0  0  0
  186.1770  177.5030  144.0530 O   0  0  0  0  0  0  0  0  0  0  0  0
  184.1800  175.7700  138.0910 Cl  0  0  0  0  0  0  0  0  0  0  0  0
  187.3760  176.9000  135.1110 C   0  0  2  0  0  3  0  0  0  0  0  0
  184.9290  177.4680  134.6650 C   0  0  0  0  0  3  0  0  0  0  0  0
  186.6450  177.9220  142.9630 C   0  0  0  0  0  0  0  0  0  0  0  0
  186.1820  177.4740  137.3760 C   0  0  2  0  0  3  0  0  0  0  0  0
  188.5460  176.0140  138.3580 O   0  0  0  0  0  0  0  0  0  0  0  0
  189.2480  176.7260  137.3230 C   0  0  1  0  0  3  0  0  0  0  0  0
  186.3680  177.9480  134.5960 C   0  0  0  0  0  2  0  0  0  0  0  0
  187.0230  176.5840  136.5110 C   0  0  2  0  0  3  0  0  0  0  0  0
  188.2220  178.7890  136.4530 O   0  0  0  0  0  0  0  0  0  0  0  0
  189.4250  179.1820  137.0480 C   0  0  0  0  0  1  0  0  0  0  0  0
  191.3380  177.6000  140.5950 C   0  0  0  0  0  1  0  0  0  0  0  0
  190.0550  176.7830  140.5560 C   0  0  0  0  0  2  0  0  0  0  0  0
  190.2540  175.7880  136.6450 C   0  0  1  0  0  3  0  0  0  0  0  0
  192.3560  174.8830  137.9240 C   0  0  0  0  0  1  0  0  0  0  0  0
  191.9640  176.3500  136.9300 S   0  0  0  0  0  0  0  0  0  0  0  0
  190.1100  174.3690  137.1730 C   0  0  0  0  0  2  0  0  0  0  0  0
  189.4580  173.5730  136.2300 O   0  0  0  0  0  1  0  0  0  0  0  0
  1  4  1  0  0  0  0
  1  5  1  1  0  0  0
  2 17  1  0  0  0  0
  2 13  1  1  0  0  0
  3 22  1  1  0  0  0
  3 21  1  0  0  0  0
  3 19  1  0  0  0  0
  4 18  1  6  0  0  0
  4 10  1  0  0  0  0
  6 16  1  0  0  0  0
  7  6  1  1  0  0  0
  8 16  1  0  0  0  0
  9  5  1  6  0  0  0
  9  7  1  0  0  0  0
  9  8  1  0  0  0  0
 10 25  1  1  0  0  0
 10  7  1  0  0  0  0
 11  2  1  0  0  0  0
 14 20  1  1  0  0  0
 14  3  1  0  0  0  0
 14 21  1  0  0  0  0
 15 11  2  0  0  0  0
 16 12  2  0  0  0  0
 17  1  1  0  0  0  0
 19 18  1  0  0  0  0
 20 15  1  0  0  0  0
 21 17  1  0  0  0  0
 22 23  1  0  0  0  0
 25 24  1  0  0  0  0
 26 28  1  0  0  0  0
 26 29  1  0  0  0  0
 26 19  1  0  0  0  0
 28 27  1  0  0  0  0
 30 29  1  0  0  0  0
M  END
>  <MODEL>
8

>  <REMARK>
 VINA RESULT:      -4.9      4.174      6.678
  Name = 
  5 active torsions:
  status: ('A' for Active; 'I' for Inactive)
    1  A    between atoms: C_3  and  O_11
    2  A    between atoms: C_10  and  C_15
    3  A    between atoms: C_10  and  C_25
    4  A    between atoms: C_10  and  S_26
    5  A    between atoms: C_13  and  C_30
                            x       y       z     vdW  Elec       q    Type
                         _______ _______ _______ _____ _____    ______ ____

>  <TORSDO>
F 5

$$$$
=
 OpenBabel10262421443D

 30 34  0  0  1  0  0  0  0  0999 V2000
  185.6270  177.3950  137.0980 C   0  0  2  0  0  3  0  0  0  0  0  0
  184.5850  179.1040  138.9190 C   0  0  1  0  0  3  0  0  0  0  0  0
  182.9310  176.3990  136.8940 C   0  0  2  0  0  0  0  0  0  0  0  0
  185.9440  175.9480  137.2500 N   0  0  2  0  0  0  0  0  0  0  0  0
  186.8970  178.2210  137.1050 C   0  0  0  0  0  2  0  0  0  0  0  0
  189.0600  175.8110  136.4200 N   0  0  0  0  0  2  0  0  0  0  0  0
  187.8790  176.2760  135.7070 C   0  0  2  0  0  3  0  0  0  0  0  0
  189.1730  178.1780  136.3150 N   0  0  0  0  0  2  0  0  0  0  0  0
  187.8140  177.8150  135.9430 C   0  0  2  0  0  3  0  0  0  0  0  0
  186.5910  175.4780  136.0170 C   0  0  1  0  0  3  0  0  0  0  0  0
  183.2500  179.6650  139.3890 C   0  0  0  0  0  3  0  0  0  0  0  0
  190.9840  176.9400  137.1490 O   0  0  0  0  0  0  0  0  0  0  0  0
  185.5170  178.5370  140.3280 Cl  0  0  0  0  0  0  0  0  0  0  0  0
  181.9780  177.0670  137.9440 C   0  0  2  0  0  3  0  0  0  0  0  0
  182.0150  179.4400  138.8790 C   0  0  0  0  0  3  0  0  0  0  0  0
  189.8250  176.9730  136.6610 C   0  0  0  0  0  0  0  0  0  0  0  0
  184.4330  177.9940  137.8880 C   0  0  2  0  0  3  0  0  0  0  0  0
  184.9350  175.0970  137.6770 O   0  0  0  0  0  0  0  0  0  0  0  0
  183.7850  175.0970  136.8120 C   0  0  1  0  0  3  0  0  0  0  0  0
  181.6700  178.5580  137.6930 C   0  0  0  0  0  2  0  0  0  0  0  0
  183.4190  176.9490  138.2500 C   0  0  2  0  0  3  0  0  0  0  0  0
  183.1350  177.2330  135.7720 O   0  0  0  0  0  0  0  0  0  0  0  0
  182.9090  176.4330  134.6470 C   0  0  0  0  0  1  0  0  0  0  0  0
  186.4830  173.3570  134.6090 C   0  0  0  0  0  1  0  0  0  0  0  0
  186.8020  173.9570  135.9700 C   0  0  0  0  0  2  0  0  0  0  0  0
  182.9240  173.8620  137.1010 C   0  0  1  0  0  3  0  0  0  0  0  0
  180.3160  173.8920  136.8470 C   0  0  0  0  0  1  0  0  0  0  0  0
  181.7290  173.5700  135.7560 S   0  0  0  0  0  0  0  0  0  0  0  0
  183.7930  172.6240  137.2630 C   0  0  0  0  0  2  0  0  0  0  0  0
  182.9990  171.4780  137.2370 O   0  0  0  0  0  1  0  0  0  0  0  0
  1  5  1  1  0  0  0
  1  4  1  0  0  0  0
  1 17  1  0  0  0  0
  2 11  1  0  0  0  0
  2 13  1  1  0  0  0
  3 22  1  6  0  0  0
  3 14  1  0  0  0  0
  3 21  1  0  0  0  0
  4 18  1  6  0  0  0
  6 16  1  0  0  0  0
  7  9  1  0  0  0  0
  7 10  1  0  0  0  0
  7  6  1  1  0  0  0
  8 16  1  0  0  0  0
  9  8  1  0  0  0  0
  9  5  1  1  0  0  0
 10 25  1  1  0  0  0
 10  4  1  0  0  0  0
 14 20  1  6  0  0  0
 14 21  1  0  0  0  0
 15 11  2  0  0  0  0
 16 12  2  0  0  0  0
 17 21  1  0  0  0  0
 17  2  1  0  0  0  0
 19  3  1  0  0  0  0
 19 26  1  0  0  0  0
 19 18  1  0  0  0  0
 20 15  1  0  0  0  0
 23 22  1  0  0  0  0
 24 25  1  0  0  0  0
 26 29  1  0  0  0  0
 28 27  1  0  0  0  0
 28 26  1  0  0  0  0
 30 29  1  0  0  0  0
M  END
>  <MODEL>
9

>  <REMARK>
 VINA RESULT:      -4.8      6.633      9.509
  Name = 
  5 active torsions:
  status: ('A' for Active; 'I' for Inactive)
    1  A    between atoms: C_3  and  O_11
    2  A    between atoms: C_10  and  C_15
    3  A    between atoms: C_10  and  C_25
    4  A    between atoms: C_10  and  S_26
    5  A    between atoms: C_13  and  C_30
                            x       y       z     vdW  Elec       q    Type
                         _______ _______ _______ _____ _____    ______ ____

>  <TORSDO>
F 5

$$$$
