=
 OpenBabel10262422383D

 43 48  0  0  1  0  0  0  0  0999 V2000
  186.2380  178.5470  137.9520 N   0  0  0  0  0  0  0  0  0  0  0  0
  184.1930  178.8510  145.0460 C   0  0  0  0  0  0  0  0  0  0  0  0
  187.7270  178.4480  137.8370 C   0  0  2  0  0  3  0  0  0  0  0  0
  186.9920  178.4250  136.6690 C   0  0  0  0  0  2  0  0  0  0  0  0
  182.7150  178.6960  140.2300 C   0  0  0  0  0  0  0  0  0  0  0  0
  185.0420  178.6260  138.7160 C   0  0  0  0  0  0  0  0  0  0  0  0
  182.8850  178.7870  143.0110 C   0  0  0  0  0  0  0  0  0  0  0  0
  185.3690  178.8440  144.2970 C   0  0  0  0  0  3  0  0  0  0  0  0
  184.2590  178.8700  146.3890 F   0  0  0  0  0  0  0  0  0  0  0  0
  184.0740  178.7700  142.2470 C   0  0  0  0  0  0  0  0  0  0  0  0
  182.9520  178.8260  144.4040 C   0  0  0  0  0  3  0  0  0  0  0  0
  185.3120  178.8050  142.9040 C   0  0  0  0  0  3  0  0  0  0  0  0
  185.1060  178.6830  140.0740 N   0  0  0  0  0  0  0  0  0  0  0  0
  183.9860  178.7190  140.8470 C   0  0  0  0  0  0  0  0  0  0  0  0
  181.5690  178.7220  141.0340 C   0  0  0  0  0  3  0  0  0  0  0  0
  182.6320  178.6520  138.8270 C   0  0  0  0  0  0  0  0  0  0  0  0
  183.8050  178.6100  138.0710 C   0  0  0  0  0  3  0  0  0  0  0  0
  181.6760  178.7650  142.3880 N   0  0  0  0  0  0  0  0  0  0  0  0
  181.3130  178.6210  138.1170 C   0  0  0  0  0  2  0  0  0  0  0  0
  180.7480  182.3330  137.6180 C   0  0  0  0  0  3  0  0  0  0  0  0
  180.5170  182.3950  136.2390 C   0  0  0  0  0  0  0  0  0  0  0  0
  180.8130  179.9970  136.0870 C   0  0  0  0  0  3  0  0  0  0  0  0
  181.0020  181.1020  138.2300 C   0  0  0  0  0  3  0  0  0  0  0  0
  181.0300  179.9310  137.4650 C   0  0  0  0  0  0  0  0  0  0  0  0
  180.5560  181.2270  135.4750 C   0  0  0  0  0  3  0  0  0  0  0  0
  181.1170  184.7770  136.1920 C   0  0  0  0  0  1  0  0  0  0  0  0
  180.2500  183.7010  135.5820 C   0  0  0  0  0  2  0  0  0  0  0  0
  188.2360  176.7680  138.2860 S   0  0  0  0  0  0  0  0  0  0  0  0
  188.9200  177.3110  139.8890 C   0  0  0  0  0  2  0  0  0  0  0  0
  190.2250  176.3140  141.8480 C   0  0  0  0  0  2  0  0  0  0  0  0
  192.5540  177.4170  140.6760 C   0  0  0  0  0  2  0  0  0  0  0  0
  190.1490  176.5020  140.3220 C   0  0  2  0  0  3  0  0  0  0  0  0
  191.4350  177.0480  139.7480 C   0  0  0  0  0  0  0  0  0  0  0  0
  191.0050  177.4160  142.5100 C   0  0  0  0  0  0  0  0  0  0  0  0
  192.0380  177.9250  141.9320 N   0  0  0  0  0  0  0  0  0  0  0  0
  191.6520  176.9790  138.4880 N   0  0  0  0  0  2  0  0  0  0  0  0
  190.5410  177.9550  143.8230 C   0  0  0  0  0  2  0  0  0  0  0  0
  189.0360  177.9140  143.9470 C   0  0  0  0  0  2  0  0  0  0  0  0
  188.6190  176.8660  144.8650 N   0  0  0  0  0  2  0  0  0  0  0  0
  190.0900  176.8030  147.3080 N   0  0  0  0  0  2  0  0  0  0  0  0
  188.5370  178.2350  148.4370 C   0  0  0  0  0  1  0  0  0  0  0  0
  189.0040  177.5000  147.2390 C   0  0  0  0  0  0  0  0  0  0  0  0
  188.1990  177.5040  146.0410 N   0  0  0  0  0  2  0  0  0  0  0  0
  1  6  1  0  0  0  0
  2  9  1  0  0  0  0
  3  1  1  0  0  0  0
  3 28  1  1  0  0  0
  4  3  1  0  0  0  0
  4  1  1  0  0  0  0
  5 14  1  0  0  0  0
  5 15  1  0  0  0  0
  6 13  1  0  0  0  0
  7 11  2  0  0  0  0
  8  2  2  0  0  0  0
 10 12  2  0  0  0  0
 10  7  1  0  0  0  0
 11  2  1  0  0  0  0
 12  8  1  0  0  0  0
 13 14  2  0  0  0  0
 14 10  1  0  0  0  0
 15 18  2  0  0  0  0
 16  5  2  0  0  0  0
 17  6  2  0  0  0  0
 17 16  1  0  0  0  0
 18  7  1  0  0  0  0
 19 16  1  0  0  0  0
 20 23  1  0  0  0  0
 21 20  2  0  0  0  0
 22 24  1  0  0  0  0
 24 19  1  0  0  0  0
 24 23  2  0  0  0  0
 25 22  2  0  0  0  0
 25 21  1  0  0  0  0
 27 26  1  0  0  0  0
 27 21  1  0  0  0  0
 28 29  1  0  0  0  0
 30 34  1  0  0  0  0
 31 35  1  0  0  0  0
 32 29  1  1  0  0  0
 32 30  1  0  0  0  0
 33 32  1  0  0  0  0
 33 31  1  0  0  0  0
 34 37  1  0  0  0  0
 35 34  2  0  0  0  0
 36 33  2  0  0  0  0
 37 38  1  0  0  0  0
 38 39  1  0  0  0  0
 39 43  1  0  0  0  0
 42 40  2  0  0  0  0
 42 41  1  0  0  0  0
 43 42  1  0  0  0  0
M  END
>  <MODEL>
1

>  <REMARK>
 VINA RESULT:      -9.3      0.000      0.000
  Name = 
  10 active torsions:
  status: ('A' for Active; 'I' for Inactive)
    1  A    between atoms: C_1  and  C_34
    2  A    between atoms: C_1  and  C_35
    3  A    between atoms: C_3  and  C_12
    4  A    between atoms: C_3  and  S_17
    5  A    between atoms: C_6  and  S_17
    6  A    between atoms: C_11  and  C_14
    7  A    between atoms: C_11  and  N_36
    8  A    between atoms: C_14  and  C_22
    9  A    between atoms: C_19  and  C_37
   10  A    between atoms: N_36  and  N_40
                            x       y       z     vdW  Elec       q    Type
                         _______ _______ _______ _____ _____    ______ ____

>  <TORSDO>
F 10

$$$$
=
 OpenBabel10262422383D

 43 48  0  0  1  0  0  0  0  0999 V2000
  186.1270  178.4600  137.7990 N   0  0  0  0  0  0  0  0  0  0  0  0
  184.6140  178.6880  145.0290 C   0  0  0  0  0  0  0  0  0  0  0  0
  187.5930  178.2590  137.5750 C   0  0  2  0  0  3  0  0  0  0  0  0
  186.7780  178.3240  136.4620 C   0  0  0  0  0  2  0  0  0  0  0  0
  182.7940  178.7880  140.3300 C   0  0  0  0  0  0  0  0  0  0  0  0
  184.9970  178.6000  138.6500 C   0  0  0  0  0  0  0  0  0  0  0  0
  183.1650  178.7810  143.0920 C   0  0  0  0  0  0  0  0  0  0  0  0
  185.7310  178.6210  144.1960 C   0  0  0  0  0  3  0  0  0  0  0  0
  184.7760  178.6610  146.3630 F   0  0  0  0  0  0  0  0  0  0  0  0
  184.2930  178.7030  142.2450 C   0  0  0  0  0  0  0  0  0  0  0  0
  183.3320  178.7720  144.4780 C   0  0  0  0  0  3  0  0  0  0  0  0
  185.5730  178.6290  142.8110 C   0  0  0  0  0  3  0  0  0  0  0  0
  185.1600  178.6100  140.0010 N   0  0  0  0  0  0  0  0  0  0  0  0
  184.1030  178.7010  140.8530 C   0  0  0  0  0  0  0  0  0  0  0  0
  181.7120  178.8710  141.2150 C   0  0  0  0  0  3  0  0  0  0  0  0
  182.6090  178.7940  138.9360 C   0  0  0  0  0  0  0  0  0  0  0  0
  183.7200  178.6920  138.0960 C   0  0  0  0  0  3  0  0  0  0  0  0
  181.9170  178.8640  142.5580 N   0  0  0  0  0  0  0  0  0  0  0  0
  181.2450  178.8790  138.3230 C   0  0  0  0  0  2  0  0  0  0  0  0
  180.6090  181.3700  135.5420 C   0  0  0  0  0  3  0  0  0  0  0  0
  180.7200  182.5850  136.2280 C   0  0  0  0  0  0  0  0  0  0  0  0
  181.1650  181.3800  138.2800 C   0  0  0  0  0  3  0  0  0  0  0  0
  180.7850  180.1630  136.2250 C   0  0  0  0  0  3  0  0  0  0  0  0
  181.0690  180.1670  137.5940 C   0  0  0  0  0  0  0  0  0  0  0  0
  180.9920  182.5880  137.5970 C   0  0  0  0  0  3  0  0  0  0  0  0
  181.0100  185.0210  136.3630 C   0  0  0  0  0  1  0  0  0  0  0  0
  180.5300  183.8720  135.5080 C   0  0  0  0  0  2  0  0  0  0  0  0
  188.0080  176.5340  137.9420 S   0  0  0  0  0  0  0  0  0  0  0  0
  189.2970  176.4780  136.6510 C   0  0  0  0  0  2  0  0  0  0  0  0
  190.7470  175.5270  138.5290 C   0  0  0  0  0  2  0  0  0  0  0  0
  192.9940  176.1820  136.9360 C   0  0  0  0  0  2  0  0  0  0  0  0
  190.4730  175.5630  137.0150 C   0  0  2  0  0  3  0  0  0  0  0  0
  191.7170  175.8700  136.2160 C   0  0  0  0  0  0  0  0  0  0  0  0
  191.7390  176.5790  138.9440 C   0  0  0  0  0  0  0  0  0  0  0  0
  192.7290  176.8820  138.1780 N   0  0  0  0  0  0  0  0  0  0  0  0
  191.7390  175.6410  134.9560 N   0  0  0  0  0  2  0  0  0  0  0  0
  191.5370  177.3090  140.2300 C   0  0  0  0  0  2  0  0  0  0  0  0
  190.3530  176.7740  141.0010 C   0  0  0  0  0  2  0  0  0  0  0  0
  189.6320  177.8510  141.6590 N   0  0  0  0  0  2  0  0  0  0  0  0
  190.5210  178.9250  144.1470 N   0  0  0  0  0  2  0  0  0  0  0  0
  189.1430  177.4470  145.4320 C   0  0  0  0  0  1  0  0  0  0  0  0
  189.6480  177.9730  144.1440 C   0  0  0  0  0  0  0  0  0  0  0  0
  189.2240  177.3600  142.9080 N   0  0  0  0  0  2  0  0  0  0  0  0
  1  6  1  0  0  0  0
  2  9  1  0  0  0  0
  3  1  1  0  0  0  0
  3 28  1  1  0  0  0
  4  3  1  0  0  0  0
  4  1  1  0  0  0  0
  5 14  1  0  0  0  0
  5 15  1  0  0  0  0
  6 13  1  0  0  0  0
  7 11  2  0  0  0  0
  8  2  2  0  0  0  0
 10 12  2  0  0  0  0
 10  7  1  0  0  0  0
 11  2  1  0  0  0  0
 12  8  1  0  0  0  0
 13 14  2  0  0  0  0
 14 10  1  0  0  0  0
 15 18  2  0  0  0  0
 16  5  2  0  0  0  0
 17  6  2  0  0  0  0
 17 16  1  0  0  0  0
 18  7  1  0  0  0  0
 19 16  1  0  0  0  0
 20 23  2  0  0  0  0
 20 21  1  0  0  0  0
 21 25  2  0  0  0  0
 23 24  1  0  0  0  0
 24 22  2  0  0  0  0
 24 19  1  0  0  0  0
 25 22  1  0  0  0  0
 27 21  1  0  0  0  0
 27 26  1  0  0  0  0
 29 28  1  0  0  0  0
 30 34  1  0  0  0  0
 31 35  1  0  0  0  0
 32 29  1  1  0  0  0
 32 30  1  0  0  0  0
 33 31  1  0  0  0  0
 33 32  1  0  0  0  0
 34 37  1  0  0  0  0
 35 34  2  0  0  0  0
 36 33  2  0  0  0  0
 37 38  1  0  0  0  0
 38 39  1  0  0  0  0
 39 43  1  0  0  0  0
 42 40  2  0  0  0  0
 42 41  1  0  0  0  0
 43 42  1  0  0  0  0
M  END
>  <MODEL>
2

>  <REMARK>
 VINA RESULT:      -9.0      1.439      2.255
  Name = 
  10 active torsions:
  status: ('A' for Active; 'I' for Inactive)
    1  A    between atoms: C_1  and  C_34
    2  A    between atoms: C_1  and  C_35
    3  A    between atoms: C_3  and  C_12
    4  A    between atoms: C_3  and  S_17
    5  A    between atoms: C_6  and  S_17
    6  A    between atoms: C_11  and  C_14
    7  A    between atoms: C_11  and  N_36
    8  A    between atoms: C_14  and  C_22
    9  A    between atoms: C_19  and  C_37
   10  A    between atoms: N_36  and  N_40
                            x       y       z     vdW  Elec       q    Type
                         _______ _______ _______ _____ _____    ______ ____

>  <TORSDO>
F 10

$$$$
=
 OpenBabel10262422383D

 43 48  0  0  1  0  0  0  0  0999 V2000
  188.4510  177.2900  141.5060 N   0  0  0  0  0  0  0  0  0  0  0  0
  181.2780  179.0230  141.8920 C   0  0  0  0  0  0  0  0  0  0  0  0
  188.8580  177.0480  140.0860 C   0  0  2  0  0  3  0  0  0  0  0  0
  189.8360  176.9610  141.0560 C   0  0  0  0  0  2  0  0  0  0  0  0
  185.6090  178.3950  144.3910 C   0  0  0  0  0  0  0  0  0  0  0  0
  187.4880  177.6360  142.4920 C   0  0  0  0  0  0  0  0  0  0  0  0
  182.9820  178.8980  143.6050 C   0  0  0  0  0  0  0  0  0  0  0  0
  182.2040  178.6160  140.9330 C   0  0  0  0  0  3  0  0  0  0  0  0
  180.0130  179.2920  141.5230 F   0  0  0  0  0  0  0  0  0  0  0  0
  183.9280  178.4950  142.6350 C   0  0  0  0  0  0  0  0  0  0  0  0
  181.6650  179.1600  143.2270 C   0  0  0  0  0  3  0  0  0  0  0  0
  183.5230  178.3510  141.3010 C   0  0  0  0  0  3  0  0  0  0  0  0
  186.1980  177.8740  142.1280 N   0  0  0  0  0  0  0  0  0  0  0  0
  185.2520  178.2470  143.0330 C   0  0  0  0  0  0  0  0  0  0  0  0
  184.6310  178.7890  145.3120 C   0  0  0  0  0  3  0  0  0  0  0  0
  186.9340  178.1380  144.7860 C   0  0  0  0  0  0  0  0  0  0  0  0
  187.8760  177.7640  143.8250 C   0  0  0  0  0  3  0  0  0  0  0  0
  183.3570  179.0310  144.9060 N   0  0  0  0  0  0  0  0  0  0  0  0
  187.3730  178.2830  146.2110 C   0  0  0  0  0  2  0  0  0  0  0  0
  190.0930  176.0980  147.6850 C   0  0  0  0  0  3  0  0  0  0  0  0
  191.1650  176.3770  146.8310 C   0  0  0  0  0  0  0  0  0  0  0  0
  189.7610  177.8920  145.5700 C   0  0  0  0  0  3  0  0  0  0  0  0
  188.8590  176.7240  147.4850 C   0  0  0  0  0  3  0  0  0  0  0  0
  188.6930  177.6260  146.4300 C   0  0  0  0  0  0  0  0  0  0  0  0
  190.9960  177.2690  145.7710 C   0  0  0  0  0  3  0  0  0  0  0  0
  192.8830  175.7960  148.4890 C   0  0  0  0  0  1  0  0  0  0  0  0
  192.4800  175.7120  147.0360 C   0  0  0  0  0  2  0  0  0  0  0  0
  188.9690  178.6420  139.2320 S   0  0  0  0  0  0  0  0  0  0  0  0
  189.6560  177.8830  137.7210 C   0  0  0  0  0  2  0  0  0  0  0  0
  187.4600  178.7520  136.7440 C   0  0  0  0  0  2  0  0  0  0  0  0
  187.6460  176.6700  134.8360 C   0  0  0  0  0  2  0  0  0  0  0  0
  188.8940  178.2770  136.4500 C   0  0  2  0  0  3  0  0  0  0  0  0
  188.9340  177.2010  135.3910 C   0  0  0  0  0  0  0  0  0  0  0  0
  186.4750  177.6170  136.7040 C   0  0  0  0  0  0  0  0  0  0  0  0
  186.6100  176.6640  135.8490 N   0  0  0  0  0  0  0  0  0  0  0  0
  190.0400  176.9140  134.8140 N   0  0  0  0  0  2  0  0  0  0  0  0
  185.3640  177.5760  137.7010 C   0  0  0  0  0  2  0  0  0  0  0  0
  184.1050  176.9790  137.1160 C   0  0  0  0  0  2  0  0  0  0  0  0
  183.8080  175.6930  137.7260 N   0  0  0  0  0  2  0  0  0  0  0  0
  181.2220  174.4910  137.6710 N   0  0  0  0  0  2  0  0  0  0  0  0
  180.5660  175.4890  139.7470 C   0  0  0  0  0  1  0  0  0  0  0  0
  181.5490  175.2470  138.6670 C   0  0  0  0  0  0  0  0  0  0  0  0
  182.8230  175.9250  138.6970 N   0  0  0  0  0  2  0  0  0  0  0  0
  1  6  1  0  0  0  0
  2 11  1  0  0  0  0
  3 28  1  6  0  0  0
  3  4  1  0  0  0  0
  3  1  1  0  0  0  0
  4  1  1  0  0  0  0
  5 16  1  0  0  0  0
  5 15  1  0  0  0  0
  6 17  1  0  0  0  0
  7 18  1  0  0  0  0
  8 12  1  0  0  0  0
  8  2  2  0  0  0  0
  9  2  1  0  0  0  0
 10 14  1  0  0  0  0
 10  7  1  0  0  0  0
 11  7  2  0  0  0  0
 12 10  2  0  0  0  0
 13  6  2  0  0  0  0
 13 14  1  0  0  0  0
 14  5  2  0  0  0  0
 16 19  1  0  0  0  0
 17 16  2  0  0  0  0
 18 15  2  0  0  0  0
 19 24  1  0  0  0  0
 21 27  1  0  0  0  0
 21 20  2  0  0  0  0
 22 25  2  0  0  0  0
 22 24  1  0  0  0  0
 23 20  1  0  0  0  0
 24 23  2  0  0  0  0
 25 21  1  0  0  0  0
 27 26  1  0  0  0  0
 29 28  1  0  0  0  0
 31 33  1  0  0  0  0
 31 35  1  0  0  0  0
 32 30  1  0  0  0  0
 32 29  1  1  0  0  0
 33 32  1  0  0  0  0
 34 30  1  0  0  0  0
 34 37  1  0  0  0  0
 35 34  2  0  0  0  0
 36 33  2  0  0  0  0
 38 37  1  0  0  0  0
 38 39  1  0  0  0  0
 39 43  1  0  0  0  0
 40 42  2  0  0  0  0
 42 43  1  0  0  0  0
 42 41  1  0  0  0  0
M  END
>  <MODEL>
3

>  <REMARK>
 VINA RESULT:      -8.9      3.374      8.917
  Name = 
  10 active torsions:
  status: ('A' for Active; 'I' for Inactive)
    1  A    between atoms: C_1  and  C_34
    2  A    between atoms: C_1  and  C_35
    3  A    between atoms: C_3  and  C_12
    4  A    between atoms: C_3  and  S_17
    5  A    between atoms: C_6  and  S_17
    6  A    between atoms: C_11  and  C_14
    7  A    between atoms: C_11  and  N_36
    8  A    between atoms: C_14  and  C_22
    9  A    between atoms: C_19  and  C_37
   10  A    between atoms: N_36  and  N_40
                            x       y       z     vdW  Elec       q    Type
                         _______ _______ _______ _____ _____    ______ ____

>  <TORSDO>
F 10

$$$$
=
 OpenBabel10262422383D

 43 48  0  0  1  0  0  0  0  0999 V2000
  188.5290  177.3280  141.5420 N   0  0  0  0  0  0  0  0  0  0  0  0
  181.3400  179.0040  141.8990 C   0  0  0  0  0  0  0  0  0  0  0  0
  188.9490  177.1140  140.1220 C   0  0  2  0  0  3  0  0  0  0  0  0
  189.9200  177.0160  141.0980 C   0  0  0  0  0  2  0  0  0  0  0  0
  185.6550  178.3620  144.4230 C   0  0  0  0  0  0  0  0  0  0  0  0
  187.5550  177.6500  142.5260 C   0  0  0  0  0  0  0  0  0  0  0  0
  183.0320  178.8600  143.6230 C   0  0  0  0  0  0  0  0  0  0  0  0
  182.2780  178.6200  140.9400 C   0  0  0  0  0  3  0  0  0  0  0  0
  180.0770  179.2710  141.5240 F   0  0  0  0  0  0  0  0  0  0  0  0
  183.9880  178.4810  142.6540 C   0  0  0  0  0  0  0  0  0  0  0  0
  181.7150  179.1200  143.2390 C   0  0  0  0  0  3  0  0  0  0  0  0
  183.5950  178.3580  141.3150 C   0  0  0  0  0  3  0  0  0  0  0  0
  186.2670  177.8860  142.1550 N   0  0  0  0  0  0  0  0  0  0  0  0
  185.3100  178.2360  143.0590 C   0  0  0  0  0  0  0  0  0  0  0  0
  184.6670  178.7340  145.3420 C   0  0  0  0  0  3  0  0  0  0  0  0
  186.9790  178.1080  144.8240 C   0  0  0  0  0  0  0  0  0  0  0  0
  187.9310  177.7570  143.8650 C   0  0  0  0  0  3  0  0  0  0  0  0
  183.3950  178.9740  144.9300 N   0  0  0  0  0  0  0  0  0  0  0  0
  187.4050  178.2310  146.2550 C   0  0  0  0  0  2  0  0  0  0  0  0
  191.0510  177.2720  145.8950 C   0  0  0  0  0  3  0  0  0  0  0  0
  191.1870  176.3150  146.9060 C   0  0  0  0  0  0  0  0  0  0  0  0
  188.8580  176.6140  147.4960 C   0  0  0  0  0  3  0  0  0  0  0  0
  189.8170  177.8920  145.6800 C   0  0  0  0  0  3  0  0  0  0  0  0
  188.7170  177.5600  146.4780 C   0  0  0  0  0  0  0  0  0  0  0  0
  190.0920  175.9920  147.7090 C   0  0  0  0  0  3  0  0  0  0  0  0
  192.9420  175.8750  148.5690 C   0  0  0  0  0  1  0  0  0  0  0  0
  192.4980  175.6540  147.1420 C   0  0  0  0  0  2  0  0  0  0  0  0
  189.0560  178.7230  139.2970 S   0  0  0  0  0  0  0  0  0  0  0  0
  188.4010  178.0600  137.7280 C   0  0  0  0  0  2  0  0  0  0  0  0
  187.3370  175.7950  137.2060 C   0  0  0  0  0  2  0  0  0  0  0  0
  184.9730  177.2120  136.5610 C   0  0  0  0  0  2  0  0  0  0  0  0
  187.1830  177.1480  137.9230 C   0  0  2  0  0  3  0  0  0  0  0  0
  185.8830  177.8350  137.5760 C   0  0  0  0  0  0  0  0  0  0  0  0
  186.7900  175.8380  135.8060 C   0  0  0  0  0  0  0  0  0  0  0  0
  185.7340  176.5240  135.5370 N   0  0  0  0  0  0  0  0  0  0  0  0
  185.4590  178.8010  138.3010 N   0  0  0  0  0  2  0  0  0  0  0  0
  187.5130  175.1180  134.7150 C   0  0  0  0  0  2  0  0  0  0  0  0
  188.2440  173.9010  135.2320 C   0  0  0  0  0  2  0  0  0  0  0  0
  189.6330  173.9090  134.8040 N   0  0  0  0  0  2  0  0  0  0  0  0
  190.8310  173.9350  137.3920 N   0  0  0  0  0  2  0  0  0  0  0  0
  191.5340  176.2160  137.1920 C   0  0  0  0  0  1  0  0  0  0  0  0
  190.8770  174.9990  136.6610 C   0  0  0  0  0  0  0  0  0  0  0  0
  190.2250  175.0450  135.3740 N   0  0  0  0  0  2  0  0  0  0  0  0
  1  6  1  0  0  0  0
  2 11  1  0  0  0  0
  3 28  1  6  0  0  0
  3  4  1  0  0  0  0
  3  1  1  0  0  0  0
  4  1  1  0  0  0  0
  5 16  1  0  0  0  0
  5 15  1  0  0  0  0
  6 17  1  0  0  0  0
  7 18  1  0  0  0  0
  8 12  1  0  0  0  0
  8  2  2  0  0  0  0
  9  2  1  0  0  0  0
 10 14  1  0  0  0  0
 10  7  1  0  0  0  0
 11  7  2  0  0  0  0
 12 10  2  0  0  0  0
 13  6  2  0  0  0  0
 13 14  1  0  0  0  0
 14  5  2  0  0  0  0
 16 19  1  0  0  0  0
 17 16  2  0  0  0  0
 18 15  2  0  0  0  0
 19 24  1  0  0  0  0
 20 21  1  0  0  0  0
 21 27  1  0  0  0  0
 21 25  2  0  0  0  0
 22 25  1  0  0  0  0
 23 20  2  0  0  0  0
 23 24  1  0  0  0  0
 24 22  2  0  0  0  0
 27 26  1  0  0  0  0
 29 28  1  0  0  0  0
 30 32  1  0  0  0  0
 31 33  1  0  0  0  0
 32 29  1  6  0  0  0
 33 32  1  0  0  0  0
 33 36  2  0  0  0  0
 34 30  1  0  0  0  0
 35 34  2  0  0  0  0
 35 31  1  0  0  0  0
 37 38  1  0  0  0  0
 37 34  1  0  0  0  0
 39 38  1  0  0  0  0
 39 43  1  0  0  0  0
 42 41  1  0  0  0  0
 42 40  2  0  0  0  0
 43 42  1  0  0  0  0
M  END
>  <MODEL>
4

>  <REMARK>
 VINA RESULT:      -8.8      3.358      9.097
  Name = 
  10 active torsions:
  status: ('A' for Active; 'I' for Inactive)
    1  A    between atoms: C_1  and  C_34
    2  A    between atoms: C_1  and  C_35
    3  A    between atoms: C_3  and  C_12
    4  A    between atoms: C_3  and  S_17
    5  A    between atoms: C_6  and  S_17
    6  A    between atoms: C_11  and  C_14
    7  A    between atoms: C_11  and  N_36
    8  A    between atoms: C_14  and  C_22
    9  A    between atoms: C_19  and  C_37
   10  A    between atoms: N_36  and  N_40
                            x       y       z     vdW  Elec       q    Type
                         _______ _______ _______ _____ _____    ______ ____

>  <TORSDO>
F 10

$$$$
=
 OpenBabel10262422383D

 43 48  0  0  1  0  0  0  0  0999 V2000
  190.7780  177.5830  141.4360 N   0  0  0  0  0  0  0  0  0  0  0  0
  183.8350  179.2070  139.4970 C   0  0  0  0  0  0  0  0  0  0  0  0
  191.0130  177.9140  142.8760 C   0  0  2  0  0  3  0  0  0  0  0  0
  192.0550  177.3450  142.1720 C   0  0  0  0  0  2  0  0  0  0  0  0
  188.2720  177.2800  138.0820 C   0  0  0  0  0  0  0  0  0  0  0  0
  189.9440  177.5030  140.2890 C   0  0  0  0  0  0  0  0  0  0  0  0
  185.6420  178.1870  138.2510 C   0  0  0  0  0  0  0  0  0  0  0  0
  184.6720  179.3500  140.6030 C   0  0  0  0  0  3  0  0  0  0  0  0
  182.5570  179.6170  139.5720 F   0  0  0  0  0  0  0  0  0  0  0  0
  186.4910  178.3210  139.3730 C   0  0  0  0  0  0  0  0  0  0  0  0
  184.3200  178.6290  138.3210 C   0  0  0  0  0  3  0  0  0  0  0  0
  185.9940  178.9110  140.5430 C   0  0  0  0  0  3  0  0  0  0  0  0
  188.6600  177.9510  140.3490 N   0  0  0  0  0  0  0  0  0  0  0  0
  187.8140  177.8580  139.2870 C   0  0  0  0  0  0  0  0  0  0  0  0
  187.3910  177.1780  136.9990 C   0  0  0  0  0  3  0  0  0  0  0  0
  189.6000  176.8250  137.9990 C   0  0  0  0  0  0  0  0  0  0  0  0
  190.4340  176.9340  139.1130 C   0  0  0  0  0  3  0  0  0  0  0  0
  186.1120  177.6250  137.1050 N   0  0  0  0  0  0  0  0  0  0  0  0
  190.1400  176.1990  136.7490 C   0  0  0  0  0  2  0  0  0  0  0  0
  192.8340  173.6240  137.4310 C   0  0  0  0  0  3  0  0  0  0  0  0
  193.9820  174.4230  137.4480 C   0  0  0  0  0  0  0  0  0  0  0  0
  192.6250  176.3770  137.0020 C   0  0  0  0  0  3  0  0  0  0  0  0
  191.5810  174.2050  137.2090 C   0  0  0  0  0  3  0  0  0  0  0  0
  191.4750  175.5830  136.9990 C   0  0  0  0  0  0  0  0  0  0  0  0
  193.8760  175.7980  137.2270 C   0  0  0  0  0  3  0  0  0  0  0  0
  195.8010  174.1340  139.0750 C   0  0  0  0  0  1  0  0  0  0  0  0
  195.3180  173.8120  137.6810 C   0  0  0  0  0  2  0  0  0  0  0  0
  190.1990  176.6620  143.9030 S   0  0  0  0  0  0  0  0  0  0  0  0
  188.8980  177.8240  144.4400 C   0  0  0  0  0  2  0  0  0  0  0  0
  186.4340  177.3840  144.9600 C   0  0  0  0  0  2  0  0  0  0  0  0
  186.9780  178.2590  147.5960 C   0  0  0  0  0  2  0  0  0  0  0  0
  187.8930  177.1930  145.4120 C   0  0  2  0  0  3  0  0  0  0  0  0
  188.1110  177.6330  146.8400 C   0  0  0  0  0  0  0  0  0  0  0  0
  185.8340  178.6430  145.5210 C   0  0  0  0  0  0  0  0  0  0  0  0
  186.1330  179.0360  146.7110 N   0  0  0  0  0  0  0  0  0  0  0  0
  189.1670  177.2680  147.4660 N   0  0  0  0  0  2  0  0  0  0  0  0
  184.9270  179.4660  144.6680 C   0  0  0  0  0  2  0  0  0  0  0  0
  183.8620  178.6240  144.0040 C   0  0  0  0  0  2  0  0  0  0  0  0
  182.5920  179.3310  143.9610 N   0  0  0  0  0  2  0  0  0  0  0  0
  180.2330  180.4770  142.8410 N   0  0  0  0  0  2  0  0  0  0  0  0
  179.9010  178.6500  141.3280 C   0  0  0  0  0  1  0  0  0  0  0  0
  180.6590  179.3410  142.3960 C   0  0  0  0  0  0  0  0  0  0  0  0
  181.8110  178.6990  142.9830 N   0  0  0  0  0  2  0  0  0  0  0  0
  1  4  1  0  0  0  0
  1  3  1  0  0  0  0
  2  9  1  0  0  0  0
  2  8  1  0  0  0  0
  3 28  1  1  0  0  0
  4  3  1  0  0  0  0
  5 14  1  0  0  0  0
  6 13  1  0  0  0  0
  6  1  1  0  0  0  0
  7 11  1  0  0  0  0
  7 10  2  0  0  0  0
 10 12  1  0  0  0  0
 11  2  2  0  0  0  0
 12  8  2  0  0  0  0
 14 10  1  0  0  0  0
 14 13  2  0  0  0  0
 15 18  2  0  0  0  0
 15  5  1  0  0  0  0
 16  5  2  0  0  0  0
 16 17  1  0  0  0  0
 17  6  2  0  0  0  0
 18  7  1  0  0  0  0
 19 24  1  0  0  0  0
 19 16  1  0  0  0  0
 20 21  1  0  0  0  0
 21 27  1  0  0  0  0
 22 25  1  0  0  0  0
 23 20  2  0  0  0  0
 24 22  2  0  0  0  0
 24 23  1  0  0  0  0
 25 21  2  0  0  0  0
 27 26  1  0  0  0  0
 28 29  1  0  0  0  0
 30 32  1  0  0  0  0
 30 34  1  0  0  0  0
 32 29  1  6  0  0  0
 32 33  1  0  0  0  0
 33 36  2  0  0  0  0
 33 31  1  0  0  0  0
 34 35  2  0  0  0  0
 35 31  1  0  0  0  0
 37 34  1  0  0  0  0
 38 37  1  0  0  0  0
 39 38  1  0  0  0  0
 41 42  1  0  0  0  0
 42 40  2  0  0  0  0
 42 43  1  0  0  0  0
 43 39  1  0  0  0  0
M  END
>  <MODEL>
5

>  <REMARK>
 VINA RESULT:      -8.5      3.035      8.931
  Name = 
  10 active torsions:
  status: ('A' for Active; 'I' for Inactive)
    1  A    between atoms: C_1  and  C_34
    2  A    between atoms: C_1  and  C_35
    3  A    between atoms: C_3  and  C_12
    4  A    between atoms: C_3  and  S_17
    5  A    between atoms: C_6  and  S_17
    6  A    between atoms: C_11  and  C_14
    7  A    between atoms: C_11  and  N_36
    8  A    between atoms: C_14  and  C_22
    9  A    between atoms: C_19  and  C_37
   10  A    between atoms: N_36  and  N_40
                            x       y       z     vdW  Elec       q    Type
                         _______ _______ _______ _____ _____    ______ ____

>  <TORSDO>
F 10

$$$$
=
 OpenBabel10262422383D

 43 48  0  0  1  0  0  0  0  0999 V2000
  188.6590  178.2230  140.3340 N   0  0  0  0  0  0  0  0  0  0  0  0
  191.1750  176.6270  147.0960 C   0  0  0  0  0  0  0  0  0  0  0  0
  189.7640  178.1440  139.3290 C   0  0  2  0  0  3  0  0  0  0  0  0
  188.4990  178.4430  138.8660 C   0  0  0  0  0  2  0  0  0  0  0  0
  187.1870  177.7900  144.2420 C   0  0  0  0  0  0  0  0  0  0  0  0
  188.1590  178.1060  141.6590 C   0  0  0  0  0  0  0  0  0  0  0  0
  188.9450  177.1280  146.3020 C   0  0  0  0  0  0  0  0  0  0  0  0
  191.6800  176.8100  145.8090 C   0  0  0  0  0  3  0  0  0  0  0  0
  192.0070  176.2840  148.0950 F   0  0  0  0  0  0  0  0  0  0  0  0
  189.4500  177.3040  144.9940 C   0  0  0  0  0  0  0  0  0  0  0  0
  189.8100  176.7890  147.3430 C   0  0  0  0  0  3  0  0  0  0  0  0
  190.8240  177.1480  144.7630 C   0  0  0  0  0  3  0  0  0  0  0  0
  189.0040  177.7940  142.6790 N   0  0  0  0  0  0  0  0  0  0  0  0
  188.5620  177.6330  143.9570 C   0  0  0  0  0  0  0  0  0  0  0  0
  186.7410  177.6110  145.5570 C   0  0  0  0  0  3  0  0  0  0  0  0
  186.3030  178.1260  143.2020 C   0  0  0  0  0  0  0  0  0  0  0  0
  186.7960  178.2770  141.9040 C   0  0  0  0  0  3  0  0  0  0  0  0
  187.6160  177.2860  146.5450 N   0  0  0  0  0  0  0  0  0  0  0  0
  184.8350  178.3010  143.4420 C   0  0  0  0  0  2  0  0  0  0  0  0
  184.1900  179.3010  139.8470 C   0  0  0  0  0  3  0  0  0  0  0  0
  182.7940  179.2320  139.7860 C   0  0  0  0  0  0  0  0  0  0  0  0
  182.7320  178.5490  142.1070 C   0  0  0  0  0  3  0  0  0  0  0  0
  184.8540  179.0030  141.0400 C   0  0  0  0  0  3  0  0  0  0  0  0
  184.1240  178.6300  142.1740 C   0  0  0  0  0  0  0  0  0  0  0  0
  182.0670  178.8500  140.9150 C   0  0  0  0  0  3  0  0  0  0  0  0
  181.9280  181.0400  138.3650 C   0  0  0  0  0  1  0  0  0  0  0  0
  182.0820  179.5460  138.5180 C   0  0  0  0  0  2  0  0  0  0  0  0
  190.1450  176.4000  139.0180 S   0  0  0  0  0  0  0  0  0  0  0  0
  190.8150  176.7520  137.3570 C   0  0  0  0  0  2  0  0  0  0  0  0
  189.0860  176.2730  135.5360 C   0  0  0  0  0  2  0  0  0  0  0  0
  188.8020  173.6990  136.6790 C   0  0  0  0  0  2  0  0  0  0  0  0
  190.3280  175.7640  136.2900 C   0  0  2  0  0  3  0  0  0  0  0  0
  190.1330  174.3690  136.8360 C   0  0  0  0  0  0  0  0  0  0  0  0
  187.8100  175.8310  136.1960 C   0  0  0  0  0  0  0  0  0  0  0  0
  187.7250  174.6670  136.7430 N   0  0  0  0  0  0  0  0  0  0  0  0
  191.1470  173.6850  137.2160 N   0  0  0  0  0  2  0  0  0  0  0  0
  186.6540  176.7730  136.2600 C   0  0  0  0  0  2  0  0  0  0  0  0
  185.4430  176.2290  135.5370 C   0  0  0  0  0  2  0  0  0  0  0  0
  184.2500  176.9850  135.8790 N   0  0  0  0  0  2  0  0  0  0  0  0
  182.0190  175.4640  136.7970 N   0  0  0  0  0  2  0  0  0  0  0  0
  182.6810  175.6280  139.0940 C   0  0  0  0  0  1  0  0  0  0  0  0
  182.8810  175.9050  137.6530 C   0  0  0  0  0  0  0  0  0  0  0  0
  183.9860  176.7330  137.2330 N   0  0  0  0  0  2  0  0  0  0  0  0
  1  6  1  0  0  0  0
  2 11  1  0  0  0  0
  2  9  1  0  0  0  0
  3 28  1  6  0  0  0
  3  1  1  0  0  0  0
  4  3  1  0  0  0  0
  4  1  1  0  0  0  0
  5 15  1  0  0  0  0
  6 17  2  0  0  0  0
  6 13  1  0  0  0  0
  7 18  1  0  0  0  0
  7 11  2  0  0  0  0
  8  2  2  0  0  0  0
 10  7  1  0  0  0  0
 12 10  2  0  0  0  0
 12  8  1  0  0  0  0
 13 14  2  0  0  0  0
 14  5  1  0  0  0  0
 14 10  1  0  0  0  0
 15 18  2  0  0  0  0
 16 19  1  0  0  0  0
 16  5  2  0  0  0  0
 17 16  1  0  0  0  0
 20 23  1  0  0  0  0
 21 20  2  0  0  0  0
 21 25  1  0  0  0  0
 22 24  1  0  0  0  0
 23 24  2  0  0  0  0
 24 19  1  0  0  0  0
 25 22  2  0  0  0  0
 26 27  1  0  0  0  0
 27 21  1  0  0  0  0
 29 28  1  0  0  0  0
 30 34  1  0  0  0  0
 30 32  1  0  0  0  0
 31 35  1  0  0  0  0
 31 33  1  0  0  0  0
 32 33  1  0  0  0  0
 32 29  1  1  0  0  0
 33 36  2  0  0  0  0
 34 37  1  0  0  0  0
 34 35  2  0  0  0  0
 38 39  1  0  0  0  0
 38 37  1  0  0  0  0
 39 43  1  0  0  0  0
 40 42  2  0  0  0  0
 42 41  1  0  0  0  0
 43 42  1  0  0  0  0
M  END
>  <MODEL>
6

>  <REMARK>
 VINA RESULT:      -8.4      2.750      6.797
  Name = 
  10 active torsions:
  status: ('A' for Active; 'I' for Inactive)
    1  A    between atoms: C_1  and  C_34
    2  A    between atoms: C_1  and  C_35
    3  A    between atoms: C_3  and  C_12
    4  A    between atoms: C_3  and  S_17
    5  A    between atoms: C_6  and  S_17
    6  A    between atoms: C_11  and  C_14
    7  A    between atoms: C_11  and  N_36
    8  A    between atoms: C_14  and  C_22
    9  A    between atoms: C_19  and  C_37
   10  A    between atoms: N_36  and  N_40
                            x       y       z     vdW  Elec       q    Type
                         _______ _______ _______ _____ _____    ______ ____

>  <TORSDO>
F 10

$$$$
=
 OpenBabel10262422383D

 43 48  0  0  1  0  0  0  0  0999 V2000
  187.9800  178.3570  140.6240 N   0  0  0  0  0  0  0  0  0  0  0  0
  191.3460  176.5350  146.9450 C   0  0  0  0  0  0  0  0  0  0  0  0
  188.9310  178.2540  139.4730 C   0  0  2  0  0  3  0  0  0  0  0  0
  187.6270  178.6110  139.1960 C   0  0  0  0  0  2  0  0  0  0  0  0
  187.0510  177.9080  144.6930 C   0  0  0  0  0  0  0  0  0  0  0  0
  187.6650  178.2350  142.0040 C   0  0  0  0  0  0  0  0  0  0  0  0
  189.0490  177.1380  146.4780 C   0  0  0  0  0  0  0  0  0  0  0  0
  191.6740  176.7220  145.6030 C   0  0  0  0  0  3  0  0  0  0  0  0
  192.2940  176.1400  147.8130 F   0  0  0  0  0  0  0  0  0  0  0  0
  189.3750  177.3190  145.1140 C   0  0  0  0  0  0  0  0  0  0  0  0
  190.0360  176.7460  147.3830 C   0  0  0  0  0  3  0  0  0  0  0  0
  190.6950  177.1140  144.6910 C   0  0  0  0  0  3  0  0  0  0  0  0
  188.6310  177.8700  142.8920 N   0  0  0  0  0  0  0  0  0  0  0  0
  188.3640  177.7020  144.2160 C   0  0  0  0  0  0  0  0  0  0  0  0
  186.7850  177.7210  146.0550 C   0  0  0  0  0  3  0  0  0  0  0  0
  186.0450  178.2980  143.7910 C   0  0  0  0  0  0  0  0  0  0  0  0
  186.3580  178.4550  142.4390 C   0  0  0  0  0  3  0  0  0  0  0  0
  187.7750  177.3440  146.9070 N   0  0  0  0  0  0  0  0  0  0  0  0
  184.6330  178.5260  144.2380 C   0  0  0  0  0  2  0  0  0  0  0  0
  183.2190  177.8560  140.7890 C   0  0  0  0  0  3  0  0  0  0  0  0
  181.9360  178.4030  140.9040 C   0  0  0  0  0  0  0  0  0  0  0  0
  182.4120  179.0220  143.1960 C   0  0  0  0  0  3  0  0  0  0  0  0
  184.0990  177.9010  141.8740 C   0  0  0  0  0  3  0  0  0  0  0  0
  183.6970  178.4890  143.0780 C   0  0  0  0  0  0  0  0  0  0  0  0
  181.5330  178.9800  142.1100 C   0  0  0  0  0  3  0  0  0  0  0  0
  179.5680  178.3360  140.2520 C   0  0  0  0  0  1  0  0  0  0  0  0
  180.9940  178.3550  139.7550 C   0  0  0  0  0  2  0  0  0  0  0  0
  189.1910  176.5020  139.0880 S   0  0  0  0  0  0  0  0  0  0  0  0
  191.0060  176.6900  139.0550 C   0  0  0  0  0  2  0  0  0  0  0  0
  190.6010  175.7630  136.7070 C   0  0  0  0  0  2  0  0  0  0  0  0
  192.9930  174.2830  137.0310 C   0  0  0  0  0  2  0  0  0  0  0  0
  191.6170  176.3870  137.6810 C   0  0  2  0  0  3  0  0  0  0  0  0
  192.8890  175.5800  137.7760 C   0  0  0  0  0  0  0  0  0  0  0  0
  190.6060  174.2610  136.7820 C   0  0  0  0  0  0  0  0  0  0  0  0
  191.7060  173.6180  136.9700 N   0  0  0  0  0  0  0  0  0  0  0  0
  193.9400  176.1020  138.2910 N   0  0  0  0  0  2  0  0  0  0  0  0
  189.3130  173.5190  136.6880 C   0  0  0  0  0  2  0  0  0  0  0  0
  188.7300  173.5800  135.2950 C   0  0  0  0  0  2  0  0  0  0  0  0
  187.3600  174.0660  135.3260 N   0  0  0  0  0  2  0  0  0  0  0  0
  186.1850  176.0830  136.9650 N   0  0  0  0  0  2  0  0  0  0  0  0
  186.9860  177.8650  135.5790 C   0  0  0  0  0  1  0  0  0  0  0  0
  186.8580  176.4290  135.9170 C   0  0  0  0  0  0  0  0  0  0  0  0
  187.4100  175.4350  135.0290 N   0  0  0  0  0  2  0  0  0  0  0  0
  1  6  1  0  0  0  0
  2 11  1  0  0  0  0
  2  9  1  0  0  0  0
  3 28  1  6  0  0  0
  3  1  1  0  0  0  0
  4  3  1  0  0  0  0
  4  1  1  0  0  0  0
  5 15  1  0  0  0  0
  6 17  2  0  0  0  0
  6 13  1  0  0  0  0
  7 18  1  0  0  0  0
  7 11  2  0  0  0  0
  8  2  2  0  0  0  0
 10  7  1  0  0  0  0
 12 10  2  0  0  0  0
 12  8  1  0  0  0  0
 13 14  2  0  0  0  0
 14  5  1  0  0  0  0
 14 10  1  0  0  0  0
 15 18  2  0  0  0  0
 16 19  1  0  0  0  0
 16  5  2  0  0  0  0
 17 16  1  0  0  0  0
 20 21  2  0  0  0  0
 20 23  1  0  0  0  0
 21 25  1  0  0  0  0
 23 24  2  0  0  0  0
 24 22  1  0  0  0  0
 24 19  1  0  0  0  0
 25 22  2  0  0  0  0
 27 26  1  0  0  0  0
 27 21  1  0  0  0  0
 29 28  1  0  0  0  0
 30 34  1  0  0  0  0
 30 32  1  0  0  0  0
 31 33  1  0  0  0  0
 32 33  1  0  0  0  0
 32 29  1  1  0  0  0
 33 36  2  0  0  0  0
 34 35  2  0  0  0  0
 35 31  1  0  0  0  0
 37 34  1  0  0  0  0
 38 39  1  0  0  0  0
 38 37  1  0  0  0  0
 41 42  1  0  0  0  0
 42 40  2  0  0  0  0
 43 39  1  0  0  0  0
 43 42  1  0  0  0  0
M  END
>  <MODEL>
7

>  <REMARK>
 VINA RESULT:      -8.3      3.200      6.936
  Name = 
  10 active torsions:
  status: ('A' for Active; 'I' for Inactive)
    1  A    between atoms: C_1  and  C_34
    2  A    between atoms: C_1  and  C_35
    3  A    between atoms: C_3  and  C_12
    4  A    between atoms: C_3  and  S_17
    5  A    between atoms: C_6  and  S_17
    6  A    between atoms: C_11  and  C_14
    7  A    between atoms: C_11  and  N_36
    8  A    between atoms: C_14  and  C_22
    9  A    between atoms: C_19  and  C_37
   10  A    between atoms: N_36  and  N_40
                            x       y       z     vdW  Elec       q    Type
                         _______ _______ _______ _____ _____    ______ ____

>  <TORSDO>
F 10

$$$$
=
 OpenBabel10262422383D

 43 48  0  0  1  0  0  0  0  0999 V2000
  186.9310  178.4430  141.1870 N   0  0  0  0  0  0  0  0  0  0  0  0
  180.0410  178.7800  143.8380 C   0  0  0  0  0  0  0  0  0  0  0  0
  187.9240  178.4070  142.3060 C   0  0  2  0  0  3  0  0  0  0  0  0
  188.4100  178.3310  141.0170 C   0  0  0  0  0  2  0  0  0  0  0  0
  182.9840  178.4790  139.7570 C   0  0  0  0  0  0  0  0  0  0  0  0
  185.5990  178.4830  140.6950 C   0  0  0  0  0  0  0  0  0  0  0  0
  180.8720  178.6260  141.5700 C   0  0  0  0  0  0  0  0  0  0  0  0
  181.3490  178.8110  144.3200 C   0  0  0  0  0  3  0  0  0  0  0  0
  179.0120  178.8260  144.7020 F   0  0  0  0  0  0  0  0  0  0  0  0
  182.1990  178.6470  142.0550 C   0  0  0  0  0  0  0  0  0  0  0  0
  179.8020  178.6910  142.4640 C   0  0  0  0  0  3  0  0  0  0  0  0
  182.4240  178.7460  143.4340 C   0  0  0  0  0  3  0  0  0  0  0  0
  184.5550  178.5660  141.5650 N   0  0  0  0  0  0  0  0  0  0  0  0
  183.2620  178.5670  141.1390 C   0  0  0  0  0  0  0  0  0  0  0  0
  181.6510  178.4700  139.3310 C   0  0  0  0  0  3  0  0  0  0  0  0
  184.0520  178.4080  138.8450 C   0  0  0  0  0  0  0  0  0  0  0  0
  185.3640  178.4030  139.3220 C   0  0  0  0  0  3  0  0  0  0  0  0
  180.6370  178.5400  140.2330 N   0  0  0  0  0  0  0  0  0  0  0  0
  183.8190  178.3070  137.3680 C   0  0  0  0  0  2  0  0  0  0  0  0
  185.6350  175.4310  135.7020 C   0  0  0  0  0  3  0  0  0  0  0  0
  184.7600  174.3680  135.9540 C   0  0  0  0  0  0  0  0  0  0  0  0
  183.2780  175.8750  137.1340 C   0  0  0  0  0  3  0  0  0  0  0  0
  185.3250  176.7150  136.1590 C   0  0  0  0  0  3  0  0  0  0  0  0
  184.1420  176.9390  136.8720 C   0  0  0  0  0  0  0  0  0  0  0  0
  183.5860  174.5910  136.6750 C   0  0  0  0  0  3  0  0  0  0  0  0
  184.5200  171.9680  136.4210 C   0  0  0  0  0  1  0  0  0  0  0  0
  185.0860  172.9990  135.4740 C   0  0  0  0  0  2  0  0  0  0  0  0
  187.8950  176.7580  143.0580 S   0  0  0  0  0  0  0  0  0  0  0  0
  186.6200  177.2390  144.2720 C   0  0  0  0  0  2  0  0  0  0  0  0
  188.5100  178.1450  145.7360 C   0  0  0  0  0  2  0  0  0  0  0  0
  186.5650  178.5540  147.7510 C   0  0  0  0  0  2  0  0  0  0  0  0
  187.0790  178.3600  145.2130 C   0  0  2  0  0  3  0  0  0  0  0  0
  186.0950  178.6200  146.3290 C   0  0  0  0  0  0  0  0  0  0  0  0
  188.5250  177.3730  147.0260 C   0  0  0  0  0  0  0  0  0  0  0  0
  187.6020  177.5540  147.9060 N   0  0  0  0  0  0  0  0  0  0  0  0
  184.9440  179.1140  146.0630 N   0  0  0  0  0  2  0  0  0  0  0  0
  189.5910  176.3540  147.2570 C   0  0  0  0  0  2  0  0  0  0  0  0
  190.9320  176.9950  147.5280 C   0  0  0  0  0  2  0  0  0  0  0  0
  191.9210  176.5640  146.5530 N   0  0  0  0  0  2  0  0  0  0  0  0
  191.6100  175.7710  143.8310 N   0  0  0  0  0  2  0  0  0  0  0  0
  191.5180  178.0310  143.0430 C   0  0  0  0  0  1  0  0  0  0  0  0
  191.6330  177.0290  144.1270 C   0  0  0  0  0  0  0  0  0  0  0  0
  191.8540  177.4680  145.4840 N   0  0  0  0  0  2  0  0  0  0  0  0
  1  3  1  0  0  0  0
  2  8  1  0  0  0  0
  2  9  1  0  0  0  0
  3 28  1  1  0  0  0
  4  1  1  0  0  0  0
  4  3  1  0  0  0  0
  5 14  1  0  0  0  0
  6  1  1  0  0  0  0
  6 13  1  0  0  0  0
  7 10  2  0  0  0  0
  7 11  1  0  0  0  0
 10 12  1  0  0  0  0
 11  2  2  0  0  0  0
 12  8  2  0  0  0  0
 14 13  2  0  0  0  0
 14 10  1  0  0  0  0
 15  5  1  0  0  0  0
 15 18  2  0  0  0  0
 16 17  1  0  0  0  0
 16  5  2  0  0  0  0
 17  6  2  0  0  0  0
 18  7  1  0  0  0  0
 19 16  1  0  0  0  0
 20 21  2  0  0  0  0
 20 23  1  0  0  0  0
 21 25  1  0  0  0  0
 23 24  2  0  0  0  0
 24 22  1  0  0  0  0
 24 19  1  0  0  0  0
 25 22  2  0  0  0  0
 27 21  1  0  0  0  0
 27 26  1  0  0  0  0
 28 29  1  0  0  0  0
 30 34  1  0  0  0  0
 31 35  1  0  0  0  0
 32 29  1  1  0  0  0
 32 30  1  0  0  0  0
 32 33  1  0  0  0  0
 33 31  1  0  0  0  0
 34 37  1  0  0  0  0
 34 35  2  0  0  0  0
 36 33  2  0  0  0  0
 37 38  1  0  0  0  0
 39 38  1  0  0  0  0
 40 42  2  0  0  0  0
 41 42  1  0  0  0  0
 42 43  1  0  0  0  0
 43 39  1  0  0  0  0
M  END
>  <MODEL>
8

>  <REMARK>
 VINA RESULT:      -8.3      3.047      5.658
  Name = 
  10 active torsions:
  status: ('A' for Active; 'I' for Inactive)
    1  A    between atoms: C_1  and  C_34
    2  A    between atoms: C_1  and  C_35
    3  A    between atoms: C_3  and  C_12
    4  A    between atoms: C_3  and  S_17
    5  A    between atoms: C_6  and  S_17
    6  A    between atoms: C_11  and  C_14
    7  A    between atoms: C_11  and  N_36
    8  A    between atoms: C_14  and  C_22
    9  A    between atoms: C_19  and  C_37
   10  A    between atoms: N_36  and  N_40
                            x       y       z     vdW  Elec       q    Type
                         _______ _______ _______ _____ _____    ______ ____

>  <TORSDO>
F 10

$$$$
=
 OpenBabel10262422383D

 43 48  0  0  1  0  0  0  0  0999 V2000
  188.5360  178.3410  139.6450 N   0  0  0  0  0  0  0  0  0  0  0  0
  190.0650  176.8870  146.7270 C   0  0  0  0  0  0  0  0  0  0  0  0
  189.7510  178.1460  138.7930 C   0  0  2  0  0  3  0  0  0  0  0  0
  188.5780  178.5060  138.1610 C   0  0  0  0  0  2  0  0  0  0  0  0
  186.5580  178.1770  143.3440 C   0  0  0  0  0  0  0  0  0  0  0  0
  187.8660  178.3150  140.8980 C   0  0  0  0  0  0  0  0  0  0  0  0
  187.9920  177.4950  145.6350 C   0  0  0  0  0  0  0  0  0  0  0  0
  190.7390  176.9800  145.5100 C   0  0  0  0  0  3  0  0  0  0  0  0
  190.7380  176.5350  147.8360 F   0  0  0  0  0  0  0  0  0  0  0  0
  188.6690  177.5800  144.3970 C   0  0  0  0  0  0  0  0  0  0  0  0
  188.6940  177.1480  146.7900 C   0  0  0  0  0  3  0  0  0  0  0  0
  190.0470  177.3260  144.3500 C   0  0  0  0  0  3  0  0  0  0  0  0
  188.5530  177.9950  142.0290 N   0  0  0  0  0  0  0  0  0  0  0  0
  187.9430  177.9190  143.2440 C   0  0  0  0  0  0  0  0  0  0  0  0
  185.9390  178.0860  144.5960 C   0  0  0  0  0  3  0  0  0  0  0  0
  185.8370  178.5240  142.1870 C   0  0  0  0  0  0  0  0  0  0  0  0
  186.4990  178.5850  140.9590 C   0  0  0  0  0  3  0  0  0  0  0  0
  186.6570  177.7490  145.6990 N   0  0  0  0  0  0  0  0  0  0  0  0
  184.3660  178.8030  142.2310 C   0  0  0  0  0  2  0  0  0  0  0  0
  183.0160  179.2730  138.7240 C   0  0  0  0  0  3  0  0  0  0  0  0
  182.5590  177.9840  138.4270 C   0  0  0  0  0  0  0  0  0  0  0  0
  183.2890  177.2300  140.6090 C   0  0  0  0  0  3  0  0  0  0  0  0
  183.6000  179.5400  139.9650 C   0  0  0  0  0  3  0  0  0  0  0  0
  183.7320  178.5190  140.9120 C   0  0  0  0  0  0  0  0  0  0  0  0
  182.7030  176.9630  139.3680 C   0  0  0  0  0  3  0  0  0  0  0  0
  183.0080  177.3340  136.1010 C   0  0  0  0  0  1  0  0  0  0  0  0
  181.9410  177.6930  137.1070 C   0  0  0  0  0  2  0  0  0  0  0  0
  190.0450  176.3690  138.5960 S   0  0  0  0  0  0  0  0  0  0  0  0
  191.8550  176.5650  138.7250 C   0  0  0  0  0  2  0  0  0  0  0  0
  191.6310  175.8620  136.2770 C   0  0  0  0  0  2  0  0  0  0  0  0
  193.5880  173.8880  136.8110 C   0  0  0  0  0  2  0  0  0  0  0  0
  192.5920  176.2050  137.4290 C   0  0  2  0  0  3  0  0  0  0  0  0
  193.6420  175.1390  137.6350 C   0  0  0  0  0  0  0  0  0  0  0  0
  191.3140  174.3930  136.2320 C   0  0  0  0  0  0  0  0  0  0  0  0
  192.2160  173.5200  136.5190 N   0  0  0  0  0  0  0  0  0  0  0  0
  194.6860  175.3970  138.3300 N   0  0  0  0  0  2  0  0  0  0  0  0
  189.9260  173.9530  135.9010 C   0  0  0  0  0  2  0  0  0  0  0  0
  189.2940  174.8300  134.8450 C   0  0  0  0  0  2  0  0  0  0  0  0
  187.9160  175.1420  135.1860 N   0  0  0  0  0  2  0  0  0  0  0  0
  185.9270  175.3670  137.2180 N   0  0  0  0  0  2  0  0  0  0  0  0
  185.8490  173.0030  137.5930 C   0  0  0  0  0  1  0  0  0  0  0  0
  186.3700  174.1980  136.8910 C   0  0  0  0  0  0  0  0  0  0  0  0
  187.4230  174.0500  135.9150 N   0  0  0  0  0  2  0  0  0  0  0  0
  1  6  1  0  0  0  0
  2 11  1  0  0  0  0
  2  9  1  0  0  0  0
  3 28  1  6  0  0  0
  3  1  1  0  0  0  0
  4  3  1  0  0  0  0
  4  1  1  0  0  0  0
  5 15  1  0  0  0  0
  6 17  2  0  0  0  0
  6 13  1  0  0  0  0
  7 18  1  0  0  0  0
  7 11  2  0  0  0  0
  8  2  2  0  0  0  0
 10  7  1  0  0  0  0
 12 10  2  0  0  0  0
 12  8  1  0  0  0  0
 13 14  2  0  0  0  0
 14  5  1  0  0  0  0
 14 10  1  0  0  0  0
 15 18  2  0  0  0  0
 16 19  1  0  0  0  0
 16  5  2  0  0  0  0
 17 16  1  0  0  0  0
 20 23  1  0  0  0  0
 21 20  2  0  0  0  0
 21 25  1  0  0  0  0
 22 24  1  0  0  0  0
 23 24  2  0  0  0  0
 24 19  1  0  0  0  0
 25 22  2  0  0  0  0
 26 27  1  0  0  0  0
 27 21  1  0  0  0  0
 28 29  1  0  0  0  0
 30 32  1  0  0  0  0
 31 33  1  0  0  0  0
 32 33  1  0  0  0  0
 32 29  1  1  0  0  0
 33 36  2  0  0  0  0
 34 30  1  0  0  0  0
 34 35  2  0  0  0  0
 35 31  1  0  0  0  0
 37 34  1  0  0  0  0
 38 39  1  0  0  0  0
 38 37  1  0  0  0  0
 39 43  1  0  0  0  0
 42 40  2  0  0  0  0
 42 41  1  0  0  0  0
 43 42  1  0  0  0  0
M  END
>  <MODEL>
9

>  <REMARK>
 VINA RESULT:      -8.3      2.976      6.334
  Name = 
  10 active torsions:
  status: ('A' for Active; 'I' for Inactive)
    1  A    between atoms: C_1  and  C_34
    2  A    between atoms: C_1  and  C_35
    3  A    between atoms: C_3  and  C_12
    4  A    between atoms: C_3  and  S_17
    5  A    between atoms: C_6  and  S_17
    6  A    between atoms: C_11  and  C_14
    7  A    between atoms: C_11  and  N_36
    8  A    between atoms: C_14  and  C_22
    9  A    between atoms: C_19  and  C_37
   10  A    between atoms: N_36  and  N_40
                            x       y       z     vdW  Elec       q    Type
                         _______ _______ _______ _____ _____    ______ ____

>  <TORSDO>
F 10

$$$$
