=
 OpenBabel10262421283D

 32 37  0  0  1  0  0  0  0  0999 V2000
  183.4210  178.8610  145.0790 C   0  0  0  0  0  3  0  0  0  0  0  0
  188.1100  177.8450  143.3440 C   0  0  0  0  0  0  0  0  0  0  0  0
  190.6350  176.8880  147.5910 C   0  0  0  0  0  2  0  0  0  0  0  0
  191.5840  176.0050  146.7850 C   0  0  0  0  0  2  0  0  0  0  0  0
  189.1640  177.6510  141.1500 C   0  0  0  0  0  0  0  0  0  0  0  0
  187.9310  178.0170  140.5630 C   0  0  0  0  0  0  0  0  0  0  0  0
  185.7510  178.4820  143.4520 C   0  0  0  0  0  0  0  0  0  0  0  0
  187.0100  178.1370  145.4960 C   0  0  0  0  0  3  0  0  0  0  0  0
  190.1260  177.4660  138.9190 C   0  0  0  0  0  0  0  0  0  0  0  0
  184.6210  178.7710  145.6570 C   0  0  0  0  0  3  0  0  0  0  0  0
  189.2830  176.9940  146.8890 C   0  0  0  0  0  2  0  0  0  0  0  0
  188.1570  177.8060  144.7610 C   0  0  0  0  0  0  0  0  0  0  0  0
  189.4670  177.5720  145.4820 C   0  0  2  0  0  3  0  0  0  0  0  0
  190.5030  177.1340  143.2600 C   0  0  0  0  0  0  0  0  0  0  0  0
  188.9060  177.8370  138.3520 C   0  0  0  0  0  3  0  0  0  0  0  0
  185.8150  178.4520  144.8570 C   0  0  0  0  0  0  0  0  0  0  0  0
  187.8100  178.1100  139.1720 C   0  0  0  0  0  3  0  0  0  0  0  0
  184.4770  178.9390  142.7850 C   0  0  0  0  0  2  0  0  0  0  0  0
  183.2470  178.5490  143.6150 C   0  0  2  0  0  3  0  0  0  0  0  0
  191.7600  176.5630  145.3750 C   0  0  0  0  0  2  0  0  0  0  0  0
  190.3990  176.6570  144.6790 C   0  0  1  0  0  3  0  0  0  0  0  0
  191.6180  177.1260  142.6680 O   0  0  0  0  0  0  0  0  0  0  0  0
  186.8990  178.1980  142.6960 C   0  0  0  0  0  0  0  0  0  0  0  0
  186.8510  178.2730  141.3410 N   0  0  0  0  0  0  0  0  0  0  0  0
  191.1890  177.1980  138.1230 F   0  0  0  0  0  0  0  0  0  0  0  0
  189.2560  177.5580  142.5610 C   0  0  0  0  0  0  0  0  0  0  0  0
  190.2520  177.3720  140.3070 C   0  0  0  0  0  3  0  0  0  0  0  0
  181.9670  179.1580  143.0540 C   0  0  0  0  0  2  0  0  0  0  0  0
  181.5940  178.5690  141.6970 C   0  0  0  0  0  2  0  0  0  0  0  0
  179.8360  178.1630  141.6320 S   0  0  1  0  0  0  0  0  0  0  0  0
  179.7570  176.6350  140.6830 C   0  0  0  0  0  1  0  0  0  0  0  0
  179.5040  177.7230  143.0510 O   0  0  0  0  0  0  0  0  0  0  0  0
  1 10  2  0  0  0  0
  2 12  2  0  0  0  0
  4  3  1  0  0  0  0
  5 26  2  0  0  0  0
  6  5  1  0  0  0  0
  6 24  2  0  0  0  0
  7 16  1  0  0  0  0
  9 27  2  0  0  0  0
 11  3  1  0  0  0  0
 12 13  1  0  0  0  0
 12  8  1  0  0  0  0
 13 11  1  1  0  0  0
 14 21  1  0  0  0  0
 15  9  1  0  0  0  0
 15 17  2  0  0  0  0
 16  8  2  0  0  0  0
 16 10  1  0  0  0  0
 17  6  1  0  0  0  0
 18  7  1  0  0  0  0
 18 19  1  0  0  0  0
 19 28  1  6  0  0  0
 19  1  1  0  0  0  0
 20  4  1  0  0  0  0
 21 20  1  1  0  0  0
 21 13  1  0  0  0  0
 22 14  2  0  0  0  0
 23  2  1  0  0  0  0
 23  7  2  0  0  0  0
 24 23  1  0  0  0  0
 25  9  1  0  0  0  0
 26 14  1  0  0  0  0
 26  2  1  0  0  0  0
 27  5  1  0  0  0  0
 29 28  1  0  0  0  0
 30 31  1  6  0  0  0
 30 29  1  0  0  0  0
 30 32  2  0  0  0  0
M  END
>  <MODEL>
1

>  <REMARK>
 VINA RESULT:     -12.1      0.000      0.000
  Name = 
  3 active torsions:
  status: ('A' for Active; 'I' for Inactive)
    1  A    between atoms: S_1  and  C_10
    2  A    between atoms: C_10  and  C_19
    3  A    between atoms: C_19  and  C_24
                            x       y       z     vdW  Elec       q    Type
                         _______ _______ _______ _____ _____    ______ ____

>  <TORSDO>
F 3

$$$$
=
 OpenBabel10262421283D

 32 37  0  0  1  0  0  0  0  0999 V2000
  190.7000  177.4380  138.7540 C   0  0  0  0  0  3  0  0  0  0  0  0
  188.3000  177.5570  143.2550 C   0  0  0  0  0  0  0  0  0  0  0  0
  191.9270  176.1260  146.4360 C   0  0  0  0  0  2  0  0  0  0  0  0
  191.2210  176.9120  147.5380 C   0  0  0  0  0  2  0  0  0  0  0  0
  186.0800  178.2000  144.0410 C   0  0  0  0  0  0  0  0  0  0  0  0
  185.7150  178.4550  142.6990 C   0  0  0  0  0  0  0  0  0  0  0  0
  188.7620  177.6590  140.8550 C   0  0  0  0  0  0  0  0  0  0  0  0
  190.4630  176.8550  142.3850 C   0  0  0  0  0  3  0  0  0  0  0  0
  183.8440  178.8760  144.7350 C   0  0  0  0  0  0  0  0  0  0  0  0
  190.9820  176.9510  139.9650 C   0  0  0  0  0  3  0  0  0  0  0  0
  191.5620  176.6880  145.0650 C   0  0  0  0  0  2  0  0  0  0  0  0
  189.6120  177.0690  143.4790 C   0  0  0  0  0  0  0  0  0  0  0  0
  190.0440  176.6260  144.8610 C   0  0  2  0  0  3  0  0  0  0  0  0
  187.8740  177.5000  145.7150 C   0  0  0  0  0  0  0  0  0  0  0  0
  183.4940  179.1160  143.4050 C   0  0  0  0  0  3  0  0  0  0  0  0
  190.0570  177.1630  141.0910 C   0  0  0  0  0  0  0  0  0  0  0  0
  184.4280  178.9080  142.3900 C   0  0  0  0  0  3  0  0  0  0  0  0
  188.3060  177.8750  139.4330 C   0  0  0  0  0  2  0  0  0  0  0  0
  189.4770  178.2900  138.5330 C   0  0  2  0  0  3  0  0  0  0  0  0
  189.7090  176.8720  147.3330 C   0  0  0  0  0  2  0  0  0  0  0  0
  189.3540  177.4450  145.9580 C   0  0  1  0  0  3  0  0  0  0  0  0
  187.0680  177.3870  146.6800 O   0  0  0  0  0  0  0  0  0  0  0  0
  187.8780  177.8390  141.9300 C   0  0  0  0  0  0  0  0  0  0  0  0
  186.6120  178.2730  141.6990 N   0  0  0  0  0  0  0  0  0  0  0  0
  182.9380  179.0810  145.7210 F   0  0  0  0  0  0  0  0  0  0  0  0
  187.3920  177.7480  144.3260 C   0  0  0  0  0  0  0  0  0  0  0  0
  185.1280  178.4240  145.0490 C   0  0  0  0  0  3  0  0  0  0  0  0
  189.0760  178.3360  137.0630 C   0  0  0  0  0  2  0  0  0  0  0  0
  187.5840  178.5880  136.8790 C   0  0  0  0  0  2  0  0  0  0  0  0
  186.7960  177.2040  136.0300 S   0  0  1  0  0  0  0  0  0  0  0  0
  188.0680  175.9320  135.9560 C   0  0  0  0  0  1  0  0  0  0  0  0
  185.8020  176.6610  137.0480 O   0  0  0  0  0  0  0  0  0  0  0  0
  1 10  2  0  0  0  0
  2 12  1  0  0  0  0
  2 26  1  0  0  0  0
  3  4  1  0  0  0  0
  5 26  2  0  0  0  0
  5 27  1  0  0  0  0
  6  5  1  0  0  0  0
  7 16  2  0  0  0  0
  7 23  1  0  0  0  0
  8 12  2  0  0  0  0
  9 27  2  0  0  0  0
  9 25  1  0  0  0  0
 10 16  1  0  0  0  0
 11  3  1  0  0  0  0
 12 13  1  0  0  0  0
 13 11  1  6  0  0  0
 13 21  1  0  0  0  0
 14 21  1  0  0  0  0
 14 22  2  0  0  0  0
 15  9  1  0  0  0  0
 16  8  1  0  0  0  0
 17  6  1  0  0  0  0
 17 15  2  0  0  0  0
 18  7  1  0  0  0  0
 19 28  1  6  0  0  0
 19  1  1  0  0  0  0
 19 18  1  0  0  0  0
 20  4  1  0  0  0  0
 21 20  1  1  0  0  0
 23  2  2  0  0  0  0
 24 23  1  0  0  0  0
 24  6  2  0  0  0  0
 26 14  1  0  0  0  0
 29 28  1  0  0  0  0
 30 31  1  1  0  0  0
 30 29  1  0  0  0  0
 30 32  2  0  0  0  0
M  END
>  <MODEL>
2

>  <REMARK>
 VINA RESULT:     -12.0      3.389      6.080
  Name = 
  3 active torsions:
  status: ('A' for Active; 'I' for Inactive)
    1  A    between atoms: S_1  and  C_10
    2  A    between atoms: C_10  and  C_19
    3  A    between atoms: C_19  and  C_24
                            x       y       z     vdW  Elec       q    Type
                         _______ _______ _______ _____ _____    ______ ____

>  <TORSDO>
F 3

$$$$
=
 OpenBabel10262421283D

 32 37  0  0  1  0  0  0  0  0999 V2000
  190.6620  177.4970  139.9220 C   0  0  0  0  0  3  0  0  0  0  0  0
  187.1350  177.9040  143.5860 C   0  0  0  0  0  0  0  0  0  0  0  0
  189.8670  177.2940  147.7680 C   0  0  0  0  0  2  0  0  0  0  0  0
  188.8320  178.1260  148.5220 C   0  0  0  0  0  2  0  0  0  0  0  0
  184.7440  178.3870  143.6710 C   0  0  0  0  0  0  0  0  0  0  0  0
  184.7360  178.4310  142.2570 C   0  0  0  0  0  0  0  0  0  0  0  0
  188.2180  177.7590  141.3970 C   0  0  0  0  0  0  0  0  0  0  0  0
  189.4990  177.3470  143.4160 C   0  0  0  0  0  3  0  0  0  0  0  0
  182.3590  178.8880  143.6590 C   0  0  0  0  0  0  0  0  0  0  0  0
  190.6430  177.1990  141.2230 C   0  0  0  0  0  3  0  0  0  0  0  0
  189.8440  177.6370  146.2810 C   0  0  0  0  0  2  0  0  0  0  0  0
  188.3710  177.5980  144.2100 C   0  0  0  0  0  0  0  0  0  0  0  0
  188.4460  177.3810  145.7060 C   0  0  2  0  0  3  0  0  0  0  0  0
  186.0670  178.1060  145.8340 C   0  0  0  0  0  0  0  0  0  0  0  0
  182.3640  178.9210  142.2640 C   0  0  0  0  0  3  0  0  0  0  0  0
  189.4350  177.4450  142.0290 C   0  0  0  0  0  0  0  0  0  0  0  0
  183.5500  178.6950  141.5650 C   0  0  0  0  0  3  0  0  0  0  0  0
  188.1480  177.7440  139.8910 C   0  0  0  0  0  2  0  0  0  0  0  0
  189.4840  178.1730  139.2700 C   0  0  2  0  0  3  0  0  0  0  0  0
  187.4390  177.8920  147.9440 C   0  0  0  0  0  2  0  0  0  0  0  0
  187.4260  178.2470  146.4550 C   0  0  1  0  0  3  0  0  0  0  0  0
  185.0420  178.0230  146.5660 O   0  0  0  0  0  0  0  0  0  0  0  0
  187.0670  177.9710  142.1710 C   0  0  0  0  0  0  0  0  0  0  0  0
  185.8800  178.2280  141.5610 N   0  0  0  0  0  0  0  0  0  0  0  0
  181.2080  179.1120  144.3370 F   0  0  0  0  0  0  0  0  0  0  0  0
  185.9600  178.1240  144.3480 C   0  0  0  0  0  0  0  0  0  0  0  0
  183.5410  178.6250  144.3560 C   0  0  0  0  0  3  0  0  0  0  0  0
  189.4920  177.9910  137.7560 C   0  0  0  0  0  2  0  0  0  0  0  0
  188.3780  177.0660  137.2790 C   0  0  0  0  0  2  0  0  0  0  0  0
  187.1370  177.9810  136.3410 S   0  0  1  0  0  0  0  0  0  0  0  0
  185.5670  177.5240  137.0950 C   0  0  0  0  0  1  0  0  0  0  0  0
  187.3370  179.4270  136.7730 O   0  0  0  0  0  0  0  0  0  0  0  0
  1 10  2  0  0  0  0
  2 12  1  0  0  0  0
  2 26  1  0  0  0  0
  3  4  1  0  0  0  0
  5 26  2  0  0  0  0
  5 27  1  0  0  0  0
  6  5  1  0  0  0  0
  7 16  2  0  0  0  0
  7 23  1  0  0  0  0
  8 12  2  0  0  0  0
  9 25  1  0  0  0  0
  9 27  2  0  0  0  0
 10 16  1  0  0  0  0
 11  3  1  0  0  0  0
 12 13  1  0  0  0  0
 13 11  1  1  0  0  0
 13 21  1  0  0  0  0
 14 21  1  0  0  0  0
 14 22  2  0  0  0  0
 15  9  1  0  0  0  0
 16  8  1  0  0  0  0
 17  6  1  0  0  0  0
 17 15  2  0  0  0  0
 18  7  1  0  0  0  0
 19 28  1  6  0  0  0
 19 18  1  0  0  0  0
 19  1  1  0  0  0  0
 20  4  1  0  0  0  0
 21 20  1  1  0  0  0
 23  2  2  0  0  0  0
 24 23  1  0  0  0  0
 24  6  2  0  0  0  0
 26 14  1  0  0  0  0
 29 28  1  0  0  0  0
 30 32  2  0  0  0  0
 30 31  1  1  0  0  0
 30 29  1  0  0  0  0
M  END
>  <MODEL>
3

>  <REMARK>
 VINA RESULT:     -11.9      3.413      6.192
  Name = 
  3 active torsions:
  status: ('A' for Active; 'I' for Inactive)
    1  A    between atoms: S_1  and  C_10
    2  A    between atoms: C_10  and  C_19
    3  A    between atoms: C_19  and  C_24
                            x       y       z     vdW  Elec       q    Type
                         _______ _______ _______ _____ _____    ______ ____

>  <TORSDO>
F 3

$$$$
=
 OpenBabel10262421283D

 32 37  0  0  1  0  0  0  0  0999 V2000
  188.6050  177.6830  137.9010 C   0  0  0  0  0  3  0  0  0  0  0  0
  187.9340  177.8840  142.9550 C   0  0  0  0  0  0  0  0  0  0  0  0
  183.1310  179.3390  143.3360 C   0  0  0  0  0  2  0  0  0  0  0  0
  183.0640  178.6370  144.6900 C   0  0  0  0  0  2  0  0  0  0  0  0
  189.2800  177.3650  144.9240 C   0  0  0  0  0  0  0  0  0  0  0  0
  190.3590  177.0560  144.0630 C   0  0  0  0  0  0  0  0  0  0  0  0
  188.9570  177.6420  140.7460 C   0  0  0  0  0  0  0  0  0  0  0  0
  186.6810  178.4590  140.9470 C   0  0  0  0  0  3  0  0  0  0  0  0
  190.6930  176.8100  146.8300 C   0  0  0  0  0  0  0  0  0  0  0  0
  187.6700  178.2200  138.6890 C   0  0  0  0  0  3  0  0  0  0  0  0
  184.2280  178.7220  142.4710 C   0  0  0  0  0  2  0  0  0  0  0  0
  186.7360  178.3330  142.3430 C   0  0  0  0  0  0  0  0  0  0  0  0
  185.5800  178.8290  143.1850 C   0  0  2  0  0  3  0  0  0  0  0  0
  186.8460  178.0820  145.1950 C   0  0  0  0  0  0  0  0  0  0  0  0
  191.7530  176.5160  145.9700 C   0  0  0  0  0  3  0  0  0  0  0  0
  187.7670  178.1000  140.1530 C   0  0  0  0  0  0  0  0  0  0  0  0
  191.5850  176.6370  144.5900 C   0  0  0  0  0  3  0  0  0  0  0  0
  190.1550  177.3710  139.8720 C   0  0  0  0  0  2  0  0  0  0  0  0
  189.7280  176.8670  138.4870 C   0  0  2  0  0  3  0  0  0  0  0  0
  184.4120  178.7230  145.4000 C   0  0  0  0  0  2  0  0  0  0  0  0
  185.5020  178.0940  144.5280 C   0  0  1  0  0  3  0  0  0  0  0  0
  186.9390  178.2750  146.4380 O   0  0  0  0  0  0  0  0  0  0  0  0
  189.0480  177.5500  142.1440 C   0  0  0  0  0  0  0  0  0  0  0  0
  190.2120  177.1540  142.7200 N   0  0  0  0  0  0  0  0  0  0  0  0
  190.8560  176.6900  148.1700 F   0  0  0  0  0  0  0  0  0  0  0  0
  188.0470  177.7820  144.3640 C   0  0  0  0  0  0  0  0  0  0  0  0
  189.4670  177.2300  146.3100 C   0  0  0  0  0  3  0  0  0  0  0  0
  190.9110  176.7610  137.5300 C   0  0  0  0  0  2  0  0  0  0  0  0
  191.6120  175.4100  137.6260 C   0  0  0  0  0  2  0  0  0  0  0  0
  193.3980  175.6200  137.7830 S   0  0  1  0  0  0  0  0  0  0  0  0
  193.9310  176.2020  136.1640 C   0  0  0  0  0  1  0  0  0  0  0  0
  193.5500  176.8450  138.6740 O   0  0  0  0  0  0  0  0  0  0  0  0
  1 19  1  0  0  0  0
  1 10  2  0  0  0  0
  2 26  1  0  0  0  0
  3  4  1  0  0  0  0
  4 20  1  0  0  0  0
  5 27  1  0  0  0  0
  6 17  1  0  0  0  0
  6  5  1  0  0  0  0
  7 23  1  0  0  0  0
  8 12  2  0  0  0  0
  9 25  1  0  0  0  0
 10 16  1  0  0  0  0
 11  3  1  0  0  0  0
 12  2  1  0  0  0  0
 12 13  1  0  0  0  0
 13 11  1  6  0  0  0
 13 21  1  0  0  0  0
 14 22  2  0  0  0  0
 15  9  1  0  0  0  0
 16  7  2  0  0  0  0
 16  8  1  0  0  0  0
 17 15  2  0  0  0  0
 18  7  1  0  0  0  0
 19 28  1  6  0  0  0
 19 18  1  0  0  0  0
 21 14  1  0  0  0  0
 21 20  1  1  0  0  0
 23 24  1  0  0  0  0
 23  2  2  0  0  0  0
 24  6  2  0  0  0  0
 26  5  2  0  0  0  0
 26 14  1  0  0  0  0
 27  9  2  0  0  0  0
 28 29  1  0  0  0  0
 29 30  1  0  0  0  0
 30 31  1  6  0  0  0
 30 32  2  0  0  0  0
M  END
>  <MODEL>
4

>  <REMARK>
 VINA RESULT:     -11.4      3.747      7.827
  Name = 
  3 active torsions:
  status: ('A' for Active; 'I' for Inactive)
    1  A    between atoms: S_1  and  C_10
    2  A    between atoms: C_10  and  C_19
    3  A    between atoms: C_19  and  C_24
                            x       y       z     vdW  Elec       q    Type
                         _______ _______ _______ _____ _____    ______ ____

>  <TORSDO>
F 3

$$$$
=
 OpenBabel10262421283D

 32 37  0  0  1  0  0  0  0  0999 V2000
  189.0490  177.6240  138.8430 C   0  0  0  0  0  3  0  0  0  0  0  0
  186.7930  178.1720  143.3860 C   0  0  0  0  0  0  0  0  0  0  0  0
  182.0770  179.3680  142.0970 C   0  0  0  0  0  2  0  0  0  0  0  0
  181.6020  178.7690  143.4190 C   0  0  0  0  0  2  0  0  0  0  0  0
  187.4550  177.8850  145.7180 C   0  0  0  0  0  0  0  0  0  0  0  0
  188.7610  177.5750  145.2740 C   0  0  0  0  0  0  0  0  0  0  0  0
  188.4740  177.8210  141.6440 C   0  0  0  0  0  0  0  0  0  0  0  0
  186.2300  178.5160  141.0420 C   0  0  0  0  0  3  0  0  0  0  0  0
  188.2020  177.5620  148.0150 C   0  0  0  0  0  0  0  0  0  0  0  0
  187.8950  178.1640  139.2420 C   0  0  0  0  0  3  0  0  0  0  0  0
  183.4110  178.7510  141.6830 C   0  0  0  0  0  2  0  0  0  0  0  0
  185.8400  178.5010  142.3890 C   0  0  0  0  0  0  0  0  0  0  0  0
  184.4600  178.9920  142.7740 C   0  0  2  0  0  3  0  0  0  0  0  0
  185.0410  178.4770  145.1400 C   0  0  0  0  0  0  0  0  0  0  0  0
  189.4890  177.2650  147.5640 C   0  0  0  0  0  3  0  0  0  0  0  0
  187.5220  178.1620  140.6670 C   0  0  0  0  0  0  0  0  0  0  0  0
  189.7670  177.2700  146.1960 C   0  0  0  0  0  3  0  0  0  0  0  0
  189.8980  177.5550  141.2210 C   0  0  0  0  0  2  0  0  0  0  0  0
  189.9510  176.9230  139.8250 C   0  0  2  0  0  3  0  0  0  0  0  0
  182.6500  178.9880  144.5080 C   0  0  0  0  0  2  0  0  0  0  0  0
  183.9800  178.3590  144.0850 C   0  0  1  0  0  3  0  0  0  0  0  0
  184.7260  178.7690  146.3260 O   0  0  0  0  0  0  0  0  0  0  0  0
  188.1180  177.8430  143.0020 C   0  0  0  0  0  0  0  0  0  0  0  0
  189.0480  177.5600  143.9500 N   0  0  0  0  0  0  0  0  0  0  0  0
  187.9320  177.5540  149.3420 F   0  0  0  0  0  0  0  0  0  0  0  0
  186.4530  178.1840  144.7620 C   0  0  0  0  0  0  0  0  0  0  0  0
  187.1930  177.8670  147.0980 C   0  0  0  0  0  3  0  0  0  0  0  0
  191.3800  176.8130  139.3040 C   0  0  0  0  0  2  0  0  0  0  0  0
  191.4350  176.2810  137.8760 C   0  0  0  0  0  2  0  0  0  0  0  0
  193.0480  175.5530  137.5210 S   0  0  1  0  0  0  0  0  0  0  0  0
  192.8280  174.7030  135.9490 C   0  0  0  0  0  1  0  0  0  0  0  0
  193.9240  176.7470  137.1650 O   0  0  0  0  0  0  0  0  0  0  0  0
  1 10  2  0  0  0  0
  1 19  1  0  0  0  0
  2 26  1  0  0  0  0
  3  4  1  0  0  0  0
  4 20  1  0  0  0  0
  5 27  1  0  0  0  0
  6  5  1  0  0  0  0
  6 17  1  0  0  0  0
  7 23  1  0  0  0  0
  8 12  2  0  0  0  0
  9 25  1  0  0  0  0
 10 16  1  0  0  0  0
 11  3  1  0  0  0  0
 12 13  1  0  0  0  0
 12  2  1  0  0  0  0
 13 11  1  6  0  0  0
 13 21  1  0  0  0  0
 14 22  2  0  0  0  0
 15  9  1  0  0  0  0
 16  8  1  0  0  0  0
 16  7  2  0  0  0  0
 17 15  2  0  0  0  0
 18  7  1  0  0  0  0
 19 28  1  6  0  0  0
 19 18  1  0  0  0  0
 21 20  1  1  0  0  0
 21 14  1  0  0  0  0
 23  2  2  0  0  0  0
 23 24  1  0  0  0  0
 24  6  2  0  0  0  0
 26 14  1  0  0  0  0
 26  5  2  0  0  0  0
 27  9  2  0  0  0  0
 29 28  1  0  0  0  0
 30 31  1  6  0  0  0
 30 29  1  0  0  0  0
 32 30  2  0  0  0  0
M  END
>  <MODEL>
5

>  <REMARK>
 VINA RESULT:     -11.3      3.846      8.294
  Name = 
  3 active torsions:
  status: ('A' for Active; 'I' for Inactive)
    1  A    between atoms: S_1  and  C_10
    2  A    between atoms: C_10  and  C_19
    3  A    between atoms: C_19  and  C_24
                            x       y       z     vdW  Elec       q    Type
                         _______ _______ _______ _____ _____    ______ ____

>  <TORSDO>
F 3

$$$$
=
 OpenBabel10262421283D

 32 37  0  0  1  0  0  0  0  0999 V2000
  182.1580  178.9970  143.2830 C   0  0  0  0  0  3  0  0  0  0  0  0
  187.1780  178.0910  143.2120 C   0  0  0  0  0  0  0  0  0  0  0  0
  188.2390  177.5770  148.1050 C   0  0  0  0  0  2  0  0  0  0  0  0
  189.4170  176.6860  147.7190 C   0  0  0  0  0  2  0  0  0  0  0  0
  188.8810  177.7880  141.4880 C   0  0  0  0  0  0  0  0  0  0  0  0
  187.8910  178.0490  140.5130 C   0  0  0  0  0  0  0  0  0  0  0  0
  184.8930  178.6160  142.5150 C   0  0  0  0  0  0  0  0  0  0  0  0
  185.4430  178.4860  144.8740 C   0  0  0  0  0  3  0  0  0  0  0  0
  190.5080  177.4880  139.7000 C   0  0  0  0  0  0  0  0  0  0  0  0
  183.1130  179.0100  144.2170 C   0  0  0  0  0  3  0  0  0  0  0  0
  187.1800  177.5640  147.0060 C   0  0  0  0  0  2  0  0  0  0  0  0
  186.7720  178.1590  144.5690 C   0  0  0  0  0  0  0  0  0  0  0  0
  187.7890  178.0440  145.6840 C   0  0  2  0  0  3  0  0  0  0  0  0
  189.4890  177.4960  143.9490 C   0  0  0  0  0  0  0  0  0  0  0  0
  189.5240  177.7540  138.7470 C   0  0  0  0  0  3  0  0  0  0  0  0
  184.5070  178.6930  143.8650 C   0  0  0  0  0  0  0  0  0  0  0  0
  188.2180  178.0320  139.1530 C   0  0  0  0  0  3  0  0  0  0  0  0
  183.8880  178.9590  141.4430 C   0  0  0  0  0  2  0  0  0  0  0  0
  182.4680  178.5700  141.8720 C   0  0  2  0  0  3  0  0  0  0  0  0
  190.0190  177.1460  146.3940 C   0  0  0  0  0  2  0  0  0  0  0  0
  188.9500  177.1200  145.2980 C   0  0  1  0  0  3  0  0  0  0  0  0
  190.7340  177.5000  143.7430 O   0  0  0  0  0  0  0  0  0  0  0  0
  186.2290  178.3340  142.1870 C   0  0  0  0  0  0  0  0  0  0  0  0
  186.6140  178.3070  140.8850 N   0  0  0  0  0  0  0  0  0  0  0  0
  191.7750  177.2150  139.3060 F   0  0  0  0  0  0  0  0  0  0  0  0
  188.5210  177.8050  142.8590 C   0  0  0  0  0  0  0  0  0  0  0  0
  190.1880  177.5030  141.0590 C   0  0  0  0  0  3  0  0  0  0  0  0
  181.4180  179.0710  140.8850 C   0  0  0  0  0  2  0  0  0  0  0  0
  181.9910  179.2720  139.4860 C   0  0  0  0  0  2  0  0  0  0  0  0
  181.1600  180.6320  138.6390 S   0  0  1  0  0  0  0  0  0  0  0  0
  179.9690  181.2540  139.8370 C   0  0  0  0  0  1  0  0  0  0  0  0
  182.2130  181.7290  138.5750 O   0  0  0  0  0  0  0  0  0  0  0  0
  1 10  2  0  0  0  0
  2 12  2  0  0  0  0
  4  3  1  0  0  0  0
  5 26  2  0  0  0  0
  6 24  2  0  0  0  0
  6  5  1  0  0  0  0
  7 16  1  0  0  0  0
  9 27  2  0  0  0  0
 11  3  1  0  0  0  0
 12  8  1  0  0  0  0
 12 13  1  0  0  0  0
 13 11  1  1  0  0  0
 14 21  1  0  0  0  0
 15 17  2  0  0  0  0
 15  9  1  0  0  0  0
 16 10  1  0  0  0  0
 16  8  2  0  0  0  0
 17  6  1  0  0  0  0
 18 19  1  0  0  0  0
 18  7  1  0  0  0  0
 19 28  1  6  0  0  0
 19  1  1  0  0  0  0
 20  4  1  0  0  0  0
 21 13  1  0  0  0  0
 21 20  1  1  0  0  0
 22 14  2  0  0  0  0
 23  7  2  0  0  0  0
 23  2  1  0  0  0  0
 24 23  1  0  0  0  0
 25  9  1  0  0  0  0
 26  2  1  0  0  0  0
 26 14  1  0  0  0  0
 27  5  1  0  0  0  0
 29 28  1  0  0  0  0
 30 29  1  0  0  0  0
 30 31  1  1  0  0  0
 32 30  2  0  0  0  0
M  END
>  <MODEL>
6

>  <REMARK>
 VINA RESULT:     -11.3      1.800      2.202
  Name = 
  3 active torsions:
  status: ('A' for Active; 'I' for Inactive)
    1  A    between atoms: S_1  and  C_10
    2  A    between atoms: C_10  and  C_19
    3  A    between atoms: C_19  and  C_24
                            x       y       z     vdW  Elec       q    Type
                         _______ _______ _______ _____ _____    ______ ____

>  <TORSDO>
F 3

$$$$
=
 OpenBabel10262421283D

 32 37  0  0  1  0  0  0  0  0999 V2000
  186.6700  177.9970  147.0410 C   0  0  0  0  0  3  0  0  0  0  0  0
  186.1260  178.2450  141.9740 C   0  0  0  0  0  0  0  0  0  0  0  0
  181.1850  179.0580  141.4710 C   0  0  0  0  0  2  0  0  0  0  0  0
  181.4710  179.7540  140.1420 C   0  0  0  0  0  2  0  0  0  0  0  0
  187.6200  178.1730  140.0450 C   0  0  0  0  0  0  0  0  0  0  0  0
  188.6990  177.9540  140.9320 C   0  0  0  0  0  0  0  0  0  0  0  0
  187.0860  177.9550  144.2050 C   0  0  0  0  0  0  0  0  0  0  0  0
  184.6900  178.2260  143.9410 C   0  0  0  0  0  3  0  0  0  0  0  0
  189.1880  178.1010  138.1810 C   0  0  0  0  0  0  0  0  0  0  0  0
  185.6170  177.9460  146.2210 C   0  0  0  0  0  3  0  0  0  0  0  0
  182.4150  179.1080  142.3730 C   0  0  0  0  0  2  0  0  0  0  0  0
  184.8350  178.3520  142.5520 C   0  0  0  0  0  0  0  0  0  0  0  0
  183.6040  178.4360  141.6760 C   0  0  2  0  0  3  0  0  0  0  0  0
  185.1270  178.6050  139.7130 C   0  0  0  0  0  0  0  0  0  0  0  0
  190.2440  177.8780  139.0670 C   0  0  0  0  0  3  0  0  0  0  0  0
  185.7990  178.0500  144.7630 C   0  0  0  0  0  0  0  0  0  0  0  0
  190.0000  177.8060  140.4390 C   0  0  0  0  0  3  0  0  0  0  0  0
  188.2560  177.6490  145.1060 C   0  0  0  0  0  2  0  0  0  0  0  0
  188.0530  178.2520  146.5020 C   0  0  2  0  0  3  0  0  0  0  0  0
  182.6650  179.1040  139.4490 C   0  0  0  0  0  2  0  0  0  0  0  0
  183.8950  179.1670  140.3600 C   0  0  1  0  0  3  0  0  0  0  0  0
  185.1620  178.4240  138.4650 O   0  0  0  0  0  0  0  0  0  0  0  0
  187.2490  178.0340  142.8130 C   0  0  0  0  0  0  0  0  0  0  0  0
  188.4860  177.8950  142.2680 N   0  0  0  0  0  0  0  0  0  0  0  0
  189.4260  178.1740  136.8500 F   0  0  0  0  0  0  0  0  0  0  0  0
  186.3130  178.3250  140.5720 C   0  0  0  0  0  0  0  0  0  0  0  0
  187.8870  178.2490  138.6680 C   0  0  0  0  0  3  0  0  0  0  0  0
  189.1340  177.8020  147.4790 C   0  0  0  0  0  2  0  0  0  0  0  0
  189.7920  176.4950  147.0500 C   0  0  0  0  0  2  0  0  0  0  0  0
  191.5300  176.7530  146.6360 S   0  0  1  0  0  0  0  0  0  0  0  0
  192.4270  175.6280  147.7180 C   0  0  0  0  0  1  0  0  0  0  0  0
  191.6800  176.1240  145.2580 O   0  0  0  0  0  0  0  0  0  0  0  0
  2 12  2  0  0  0  0
  2 23  1  0  0  0  0
  3 11  1  0  0  0  0
  4  3  1  0  0  0  0
  5 26  2  0  0  0  0
  5  6  1  0  0  0  0
  6 24  2  0  0  0  0
  7 16  1  0  0  0  0
  7 18  1  0  0  0  0
  8 16  2  0  0  0  0
  9 27  2  0  0  0  0
  9 15  1  0  0  0  0
 10  1  2  0  0  0  0
 12  8  1  0  0  0  0
 13 11  1  1  0  0  0
 13 12  1  0  0  0  0
 14 21  1  0  0  0  0
 14 26  1  0  0  0  0
 15 17  2  0  0  0  0
 16 10  1  0  0  0  0
 17  6  1  0  0  0  0
 18 19  1  0  0  0  0
 19  1  1  0  0  0  0
 19 28  1  1  0  0  0
 20  4  1  0  0  0  0
 21 20  1  6  0  0  0
 21 13  1  0  0  0  0
 22 14  2  0  0  0  0
 23  7  2  0  0  0  0
 24 23  1  0  0  0  0
 25  9  1  0  0  0  0
 26  2  1  0  0  0  0
 27  5  1  0  0  0  0
 29 28  1  0  0  0  0
 30 29  1  0  0  0  0
 30 31  1  1  0  0  0
 32 30  2  0  0  0  0
M  END
>  <MODEL>
7

>  <REMARK>
 VINA RESULT:     -10.3      2.999      6.989
  Name = 
  3 active torsions:
  status: ('A' for Active; 'I' for Inactive)
    1  A    between atoms: S_1  and  C_10
    2  A    between atoms: C_10  and  C_19
    3  A    between atoms: C_19  and  C_24
                            x       y       z     vdW  Elec       q    Type
                         _______ _______ _______ _____ _____    ______ ____

>  <TORSDO>
F 3

$$$$
=
 OpenBabel10262421283D

 32 37  0  0  1  0  0  0  0  0999 V2000
  183.0860  178.7260  141.8830 C   0  0  0  0  0  3  0  0  0  0  0  0
  187.7040  177.8620  143.8720 C   0  0  0  0  0  0  0  0  0  0  0  0
  190.4900  177.0090  139.7690 C   0  0  0  0  0  2  0  0  0  0  0  0
  191.7120  177.5030  140.5400 C   0  0  0  0  0  2  0  0  0  0  0  0
  188.6850  177.9000  146.1070 C   0  0  0  0  0  0  0  0  0  0  0  0
  187.4020  178.1900  146.6280 C   0  0  0  0  0  0  0  0  0  0  0  0
  185.3070  178.2950  143.6430 C   0  0  0  0  0  0  0  0  0  0  0  0
  186.6380  177.7630  141.6850 C   0  0  0  0  0  3  0  0  0  0  0  0
  189.5790  177.9730  148.3730 C   0  0  0  0  0  0  0  0  0  0  0  0
  184.2170  178.2050  141.4010 C   0  0  0  0  0  3  0  0  0  0  0  0
  189.2130  177.5990  140.3610 C   0  0  0  0  0  2  0  0  0  0  0  0
  187.7960  177.6710  142.4700 C   0  0  0  0  0  0  0  0  0  0  0  0
  189.0920  177.2100  141.8390 C   0  0  2  0  0  3  0  0  0  0  0  0
  190.1630  177.4760  144.0720 C   0  0  0  0  0  0  0  0  0  0  0  0
  188.3060  178.2520  148.8760 C   0  0  0  0  0  3  0  0  0  0  0  0
  185.4110  178.0910  142.2550 C   0  0  0  0  0  0  0  0  0  0  0  0
  187.2210  178.3610  148.0050 C   0  0  0  0  0  3  0  0  0  0  0  0
  183.9470  178.5340  144.2500 C   0  0  0  0  0  2  0  0  0  0  0  0
  183.0330  179.2910  143.2780 C   0  0  2  0  0  3  0  0  0  0  0  0
  191.5920  177.1360  142.0170 C   0  0  0  0  0  2  0  0  0  0  0  0
  190.3120  177.7400  142.6020 C   0  0  1  0  0  3  0  0  0  0  0  0
  191.1550  177.0890  144.7500 O   0  0  0  0  0  0  0  0  0  0  0  0
  186.4460  178.1640  144.4530 C   0  0  0  0  0  0  0  0  0  0  0  0
  186.3390  178.3140  145.7990 N   0  0  0  0  0  0  0  0  0  0  0  0
  190.6320  177.8700  149.2180 F   0  0  0  0  0  0  0  0  0  0  0  0
  188.8410  177.7370  144.7080 C   0  0  0  0  0  0  0  0  0  0  0  0
  189.7650  177.8010  147.0000 C   0  0  0  0  0  3  0  0  0  0  0  0
  181.6020  179.3830  143.7990 C   0  0  0  0  0  2  0  0  0  0  0  0
  180.6080  179.7360  142.6970 C   0  0  0  0  0  2  0  0  0  0  0  0
  179.3010  178.4950  142.5860 S   0  0  1  0  0  0  0  0  0  0  0  0
  179.6090  177.6480  141.0280 C   0  0  0  0  0  1  0  0  0  0  0  0
  179.6810  177.4620  143.6390 O   0  0  0  0  0  0  0  0  0  0  0  0
  1 19  1  0  0  0  0
  2 23  2  0  0  0  0
  2 26  1  0  0  0  0
  3 11  1  0  0  0  0
  3  4  1  0  0  0  0
  4 20  1  0  0  0  0
  5  6  1  0  0  0  0
  5 27  1  0  0  0  0
  6 17  1  0  0  0  0
  7 18  1  0  0  0  0
  7 23  1  0  0  0  0
  8 16  1  0  0  0  0
  8 12  2  0  0  0  0
  9 15  1  0  0  0  0
  9 25  1  0  0  0  0
 10  1  2  0  0  0  0
 10 16  1  0  0  0  0
 12  2  1  0  0  0  0
 13 11  1  6  0  0  0
 13 12  1  0  0  0  0
 13 21  1  0  0  0  0
 14 26  1  0  0  0  0
 14 22  2  0  0  0  0
 16  7  2  0  0  0  0
 17 15  2  0  0  0  0
 19 28  1  1  0  0  0
 19 18  1  0  0  0  0
 21 20  1  6  0  0  0
 21 14  1  0  0  0  0
 23 24  1  0  0  0  0
 24  6  2  0  0  0  0
 26  5  2  0  0  0  0
 27  9  2  0  0  0  0
 29 28  1  0  0  0  0
 30 31  1  6  0  0  0
 30 29  1  0  0  0  0
 30 32  2  0  0  0  0
M  END
>  <MODEL>
8

>  <REMARK>
 VINA RESULT:     -10.2      2.468      4.961
  Name = 
  3 active torsions:
  status: ('A' for Active; 'I' for Inactive)
    1  A    between atoms: S_1  and  C_10
    2  A    between atoms: C_10  and  C_19
    3  A    between atoms: C_19  and  C_24
                            x       y       z     vdW  Elec       q    Type
                         _______ _______ _______ _____ _____    ______ ____

>  <TORSDO>
F 3

$$$$
=
 OpenBabel10262421283D

 32 37  0  0  1  0  0  0  0  0999 V2000
  188.3570  177.6280  146.6020 C   0  0  0  0  0  3  0  0  0  0  0  0
  185.9090  178.1990  142.1630 C   0  0  0  0  0  0  0  0  0  0  0  0
  181.1390  178.8110  143.6450 C   0  0  0  0  0  2  0  0  0  0  0  0
  180.8830  179.6100  142.3690 C   0  0  0  0  0  2  0  0  0  0  0  0
  186.5510  178.3290  139.8110 C   0  0  0  0  0  0  0  0  0  0  0  0
  187.8920  178.1010  140.1990 C   0  0  0  0  0  0  0  0  0  0  0  0
  187.6560  177.8010  143.8280 C   0  0  0  0  0  0  0  0  0  0  0  0
  185.3370  177.9770  144.5190 C   0  0  0  0  0  3  0  0  0  0  0  0
  187.2870  178.4600  137.4910 C   0  0  0  0  0  0  0  0  0  0  0  0
  187.0720  177.5840  146.2430 C   0  0  0  0  0  3  0  0  0  0  0  0
  182.6200  178.8560  144.0120 C   0  0  0  0  0  2  0  0  0  0  0  0
  184.9370  178.2050  143.1950 C   0  0  0  0  0  0  0  0  0  0  0  0
  183.4620  178.2910  142.8630 C   0  0  2  0  0  3  0  0  0  0  0  0
  184.1150  178.6660  140.4890 C   0  0  0  0  0  0  0  0  0  0  0  0
  188.6050  178.2260  137.8870 C   0  0  0  0  0  3  0  0  0  0  0  0
  186.6800  177.7970  144.8400 C   0  0  0  0  0  0  0  0  0  0  0  0
  188.9070  178.0480  139.2380 C   0  0  0  0  0  3  0  0  0  0  0  0
  189.0870  177.4880  144.1880 C   0  0  0  0  0  2  0  0  0  0  0  0
  189.4240  177.9840  145.6000 C   0  0  2  0  0  3  0  0  0  0  0  0
  181.7310  179.0650  141.2230 C   0  0  0  0  0  2  0  0  0  0  0  0
  183.2140  179.1230  141.5990 C   0  0  1  0  0  3  0  0  0  0  0  0
  183.6720  178.5730  139.3110 O   0  0  0  0  0  0  0  0  0  0  0  0
  187.2720  177.9830  142.4900 C   0  0  0  0  0  0  0  0  0  0  0  0
  188.2080  177.9400  141.5060 N   0  0  0  0  0  0  0  0  0  0  0  0
  186.9950  178.6350  136.1800 F   0  0  0  0  0  0  0  0  0  0  0  0
  185.5440  178.3840  140.8060 C   0  0  0  0  0  0  0  0  0  0  0  0
  186.2700  178.5130  138.4470 C   0  0  0  0  0  3  0  0  0  0  0  0
  190.8040  177.5200  146.0520 C   0  0  0  0  0  2  0  0  0  0  0  0
  190.7870  176.9480  147.4660 C   0  0  0  0  0  2  0  0  0  0  0  0
  191.8930  175.5270  147.6000 S   0  0  1  0  0  0  0  0  0  0  0  0
  192.2880  175.0960  145.8970 C   0  0  0  0  0  1  0  0  0  0  0  0
  193.1920  176.1170  148.1330 O   0  0  0  0  0  0  0  0  0  0  0  0
  2 23  1  0  0  0  0
  2 12  2  0  0  0  0
  3 11  1  0  0  0  0
  4  3  1  0  0  0  0
  5  6  1  0  0  0  0
  5 26  2  0  0  0  0
  6 24  2  0  0  0  0
  7 18  1  0  0  0  0
  7 16  1  0  0  0  0
  8 16  2  0  0  0  0
  9 15  1  0  0  0  0
  9 27  2  0  0  0  0
 10  1  2  0  0  0  0
 12  8  1  0  0  0  0
 13 12  1  0  0  0  0
 13 11  1  1  0  0  0
 14 26  1  0  0  0  0
 14 21  1  0  0  0  0
 15 17  2  0  0  0  0
 16 10  1  0  0  0  0
 17  6  1  0  0  0  0
 18 19  1  0  0  0  0
 19 28  1  1  0  0  0
 19  1  1  0  0  0  0
 20  4  1  0  0  0  0
 21 20  1  6  0  0  0
 21 13  1  0  0  0  0
 22 14  2  0  0  0  0
 23  7  2  0  0  0  0
 24 23  1  0  0  0  0
 25  9  1  0  0  0  0
 26  2  1  0  0  0  0
 27  5  1  0  0  0  0
 28 29  1  0  0  0  0
 29 30  1  0  0  0  0
 30 31  1  6  0  0  0
 30 32  2  0  0  0  0
M  END
>  <MODEL>
9

>  <REMARK>
 VINA RESULT:      -9.8      3.182      7.274
  Name = 
  3 active torsions:
  status: ('A' for Active; 'I' for Inactive)
    1  A    between atoms: S_1  and  C_10
    2  A    between atoms: C_10  and  C_19
    3  A    between atoms: C_19  and  C_24
                            x       y       z     vdW  Elec       q    Type
                         _______ _______ _______ _____ _____    ______ ____

>  <TORSDO>
F 3

$$$$
