=
 OpenBabel10262421243D

 32 37  0  0  1  0  0  0  0  0999 V2000
  187.4690  177.5980  137.7070 C   0  0  0  0  0  0  0  0  0  0  0  0
  187.3510  178.2630  141.9490 C   0  0  0  0  0  0  0  0  0  0  0  0
  182.4420  178.7910  142.4870 O   0  0  0  0  0  0  0  0  0  0  0  0
  182.7320  179.0410  143.8840 C   0  0  0  0  0  2  0  0  0  0  0  0
  188.7170  177.7970  144.1950 C   0  0  0  0  0  0  0  0  0  0  0  0
  188.6370  177.6320  145.5470 C   0  0  0  0  0  0  0  0  0  0  0  0
  188.6700  178.4050  139.7650 C   0  0  2  0  0  3  0  0  0  0  0  0
  186.1750  178.4320  139.7690 C   0  0  0  0  0  2  0  0  0  0  0  0
  188.2950  177.6640  148.3990 C   0  0  0  0  0  3  0  0  0  0  0  0
  186.9000  178.3780  136.7550 C   0  0  0  0  0  2  0  0  0  0  0  0
  183.5710  178.7930  141.6100 C   0  0  0  0  0  2  0  0  0  0  0  0
  186.1410  178.3180  141.2870 C   0  0  0  0  0  0  0  0  0  0  0  0
  184.9780  178.5060  142.1060 C   0  0  0  0  0  0  0  0  0  0  0  0
  186.2650  178.2530  144.0810 C   0  0  0  0  0  0  0  0  0  0  0  0
  189.6000  177.2410  147.7130 C   0  0  0  0  0  3  0  0  0  0  0  0
  189.7270  176.6840  138.2480 C   0  0  0  0  0  2  0  0  0  0  0  0
  187.4030  177.8000  139.1460 C   0  0  1  0  0  3  0  0  0  0  0  0
  189.7860  177.2130  146.4060 C   0  0  0  0  0  3  0  0  0  0  0  0
  189.9360  177.9120  139.0460 C   0  0  0  0  0  2  0  0  0  0  0  0
  188.6030  176.7650  137.3360 N   0  0  0  0  0  0  0  0  0  0  0  0
  183.9850  178.5160  144.3080 O   0  0  0  0  0  0  0  0  0  0  0  0
  185.1290  178.4500  143.4620 C   0  0  0  0  0  0  0  0  0  0  0  0
  186.3280  178.4630  145.4990 O   0  0  0  0  0  0  0  0  0  0  0  0
  188.6600  177.9170  141.1960 C   0  0  0  0  0  2  0  0  0  0  0  0
  189.9670  177.6870  143.5570 O   0  0  0  0  0  1  0  0  0  0  0  0
  187.1850  177.9140  147.7220 C   0  0  0  0  0  3  0  0  0  0  0  0
  187.4740  178.0290  143.3930 C   0  0  0  0  0  0  0  0  0  0  0  0
  187.2470  177.7410  146.2290 C   0  0  2  0  0  3  0  0  0  0  0  0
  188.7310  175.8880  136.0940 C   0  0  0  0  0  0  0  0  0  0  0  0
  189.1680  176.5970  134.7780 C   0  0  0  0  0  1  0  0  0  0  0  0
  189.8440  174.8070  136.2450 C   0  0  0  0  0  1  0  0  0  0  0  0
  187.4770  175.1100  135.7790 C   0  0  0  0  0  1  0  0  0  0  0  0
  1 17  1  0  0  0  0
  2 27  1  0  0  0  0
  3  4  1  0  0  0  0
  4 21  1  0  0  0  0
  5  6  2  0  0  0  0
  6 28  1  0  0  0  0
  6 18  1  0  0  0  0
  7 19  1  6  0  0  0
  7 24  1  0  0  0  0
  8 12  1  0  0  0  0
 10  1  2  0  0  0  0
 11 13  1  0  0  0  0
 11  3  1  0  0  0  0
 12  2  2  0  0  0  0
 12 13  1  0  0  0  0
 13 22  2  0  0  0  0
 14 23  1  0  0  0  0
 15  9  1  0  0  0  0
 16 19  1  0  0  0  0
 17  7  1  0  0  0  0
 17  8  1  6  0  0  0
 18 15  2  0  0  0  0
 20  1  1  0  0  0  0
 20 16  1  0  0  0  0
 22 14  1  0  0  0  0
 22 21  1  0  0  0  0
 23 28  1  0  0  0  0
 24  2  1  0  0  0  0
 25  5  1  0  0  0  0
 26  9  2  0  0  0  0
 27 14  2  0  0  0  0
 27  5  1  0  0  0  0
 28 26  1  1  0  0  0
 29 31  1  0  0  0  0
 29 20  1  0  0  0  0
 30 29  1  0  0  0  0
 32 29  1  0  0  0  0
M  END
>  <MODEL>
1

>  <REMARK>
 VINA RESULT:     -10.6      0.000      0.000
  Name = 
  1 active torsions:
  status: ('A' for Active; 'I' for Inactive)
    1  A    between atoms: C_1  and  N_24
                            x       y       z     vdW  Elec       q    Type
                         _______ _______ _______ _____ _____    ______ ____

>  <TORSDO>
F 1

$$$$
=
 OpenBabel10262421243D

 32 37  0  0  1  0  0  0  0  0999 V2000
  185.8250  178.1830  138.5380 C   0  0  0  0  0  0  0  0  0  0  0  0
  187.6170  178.1430  142.4420 C   0  0  0  0  0  0  0  0  0  0  0  0
  183.4910  178.6260  145.1640 O   0  0  0  0  0  0  0  0  0  0  0  0
  184.3780  178.6400  146.3080 C   0  0  0  0  0  2  0  0  0  0  0  0
  189.7800  177.3000  143.7600 C   0  0  0  0  0  0  0  0  0  0  0  0
  190.2820  176.9160  144.9690 C   0  0  0  0  0  0  0  0  0  0  0  0
  187.8630  178.6280  139.9450 C   0  0  2  0  0  3  0  0  0  0  0  0
  185.6290  178.6790  141.0550 C   0  0  0  0  0  2  0  0  0  0  0  0
  191.2170  176.4820  147.6500 C   0  0  0  0  0  3  0  0  0  0  0  0
  184.9650  179.1140  138.0580 C   0  0  0  0  0  2  0  0  0  0  0  0
  184.1230  178.7600  143.8880 C   0  0  0  0  0  2  0  0  0  0  0  0
  186.2490  178.3180  142.3980 C   0  0  0  0  0  0  0  0  0  0  0  0
  185.5770  178.3810  143.6650 C   0  0  0  0  0  0  0  0  0  0  0  0
  187.5690  177.7930  144.8080 C   0  0  0  0  0  0  0  0  0  0  0  0
  192.0560  176.1640  146.4060 C   0  0  0  0  0  3  0  0  0  0  0  0
  188.0110  177.1680  137.8890 C   0  0  0  0  0  2  0  0  0  0  0  0
  186.4080  178.1460  139.8710 C   0  0  1  0  0  3  0  0  0  0  0  0
  191.6520  176.3490  145.1620 C   0  0  0  0  0  2  0  0  0  0  0  0
  188.6460  178.2460  138.6780 C   0  0  0  0  0  2  0  0  0  0  0  0
  186.6130  177.4110  137.5890 N   0  0  0  0  0  0  0  0  0  0  0  0
  185.6440  178.0400  146.0550 O   0  0  0  0  0  0  0  0  0  0  0  0
  186.2970  178.1010  144.7910 C   0  0  0  0  0  0  0  0  0  0  0  0
  188.2580  177.7670  146.0660 O   0  0  0  0  0  0  0  0  0  0  0  0
  188.4350  177.9120  141.1470 C   0  0  0  0  0  2  0  0  0  0  0  0
  190.6150  177.2830  142.6270 O   0  0  0  0  0  1  0  0  0  0  0  0
  189.9480  176.8510  147.5770 C   0  0  0  0  0  3  0  0  0  0  0  0
  188.3360  177.6730  143.6330 C   0  0  0  0  0  0  0  0  0  0  0  0
  189.3410  176.9250  146.2030 C   0  0  0  0  0  0  0  0  0  0  0  0
  186.1170  176.7480  136.3080 C   0  0  0  0  0  0  0  0  0  0  0  0
  186.2260  177.5850  134.9980 C   0  0  0  0  0  1  0  0  0  0  0  0
  186.9480  175.4830  135.9340 C   0  0  0  0  0  1  0  0  0  0  0  0
  184.6910  176.2610  136.3990 C   0  0  0  0  0  1  0  0  0  0  0  0
  1 17  1  0  0  0  0
  2 27  1  0  0  0  0
  3  4  1  0  0  0  0
  5  6  2  0  0  0  0
  6 18  1  0  0  0  0
  6 28  1  0  0  0  0
  7 19  1  6  0  0  0
  7 24  1  0  0  0  0
  8 12  1  0  0  0  0
 10  1  2  0  0  0  0
 11  3  1  0  0  0  0
 12  2  2  0  0  0  0
 12 13  1  0  0  0  0
 13 11  1  0  0  0  0
 13 22  2  0  0  0  0
 14 23  1  0  0  0  0
 15  9  2  0  0  0  0
 16 19  1  0  0  0  0
 17  7  1  0  0  0  0
 17  8  1  1  0  0  0
 18 15  1  0  0  0  0
 20 16  1  0  0  0  0
 20  1  1  0  0  0  0
 21  4  1  0  0  0  0
 22 14  1  0  0  0  0
 22 21  1  0  0  0  0
 23 28  1  0  0  0  0
 24  2  1  0  0  0  0
 25  5  1  0  0  0  0
 26  9  1  0  0  0  0
 27  5  1  0  0  0  0
 27 14  2  0  0  0  0
 28 26  2  0  0  0  0
 29 32  1  0  0  0  0
 29 20  1  0  0  0  0
 30 29  1  0  0  0  0
 31 29  1  0  0  0  0
M  END
>  <MODEL>
2

>  <REMARK>
 VINA RESULT:     -10.2      1.534      2.159
  Name = 
  1 active torsions:
  status: ('A' for Active; 'I' for Inactive)
    1  A    between atoms: C_1  and  N_24
                            x       y       z     vdW  Elec       q    Type
                         _______ _______ _______ _____ _____    ______ ____

>  <TORSDO>
F 1

$$$$
=
 OpenBabel10262421243D

 32 37  0  0  1  0  0  0  0  0999 V2000
  189.4370  176.7410  137.2680 C   0  0  0  0  0  0  0  0  0  0  0  0
  189.2370  177.6810  141.4540 C   0  0  0  0  0  0  0  0  0  0  0  0
  184.4320  178.9090  141.7170 O   0  0  0  0  0  0  0  0  0  0  0  0
  184.6960  179.2040  143.1100 C   0  0  0  0  0  2  0  0  0  0  0  0
  190.4300  177.1740  143.7880 C   0  0  0  0  0  0  0  0  0  0  0  0
  190.2720  177.1070  145.1420 C   0  0  0  0  0  0  0  0  0  0  0  0
  190.6520  177.5030  139.3350 C   0  0  2  0  0  3  0  0  0  0  0  0
  188.1880  177.8710  139.2120 C   0  0  0  0  0  2  0  0  0  0  0  0
  189.8200  177.3640  147.9670 C   0  0  0  0  0  3  0  0  0  0  0  0
  189.0230  177.5300  136.2460 C   0  0  0  0  0  2  0  0  0  0  0  0
  185.5860  178.7010  140.8990 C   0  0  0  0  0  2  0  0  0  0  0  0
  188.0760  177.8590  140.7310 C   0  0  0  0  0  0  0  0  0  0  0  0
  186.9170  178.2560  141.4790 C   0  0  0  0  0  0  0  0  0  0  0  0
  188.0730  177.9530  143.5270 C   0  0  0  0  0  0  0  0  0  0  0  0
  191.0800  176.7240  147.3720 C   0  0  0  0  0  3  0  0  0  0  0  0
  191.5200  175.5610  137.9720 C   0  0  0  0  0  2  0  0  0  0  0  0
  189.3410  177.0400  138.6880 C   0  0  1  0  0  3  0  0  0  0  0  0
  191.3150  176.5880  146.0790 C   0  0  0  0  0  3  0  0  0  0  0  0
  191.8660  176.7970  138.7080 C   0  0  0  0  0  2  0  0  0  0  0  0
  190.4580  175.7390  137.0010 N   0  0  0  0  0  0  0  0  0  0  0  0
  185.8450  178.5400  143.6250 O   0  0  0  0  0  0  0  0  0  0  0  0
  187.0020  178.2650  142.8420 C   0  0  0  0  0  0  0  0  0  0  0  0
  188.1060  178.2410  144.9320 O   0  0  0  0  0  0  0  0  0  0  0  0
  190.5150  177.1120  140.7880 C   0  0  0  0  0  2  0  0  0  0  0  0
  191.6780  176.8540  143.2210 O   0  0  0  0  0  1  0  0  0  0  0  0
  188.7840  177.7200  147.2230 C   0  0  0  0  0  3  0  0  0  0  0  0
  189.2660  177.5230  142.9140 C   0  0  0  0  0  0  0  0  0  0  0  0
  188.8830  177.4470  145.7470 C   0  0  2  0  0  3  0  0  0  0  0  0
  190.5140  174.7760  135.8190 C   0  0  0  0  0  0  0  0  0  0  0  0
  191.3670  175.2200  134.5940 C   0  0  0  0  0  1  0  0  0  0  0  0
  191.1900  173.4210  136.1900 C   0  0  0  0  0  1  0  0  0  0  0  0
  189.1520  174.3970  135.2910 C   0  0  0  0  0  1  0  0  0  0  0  0
  1 17  1  0  0  0  0
  2 27  1  0  0  0  0
  3  4  1  0  0  0  0
  4 21  1  0  0  0  0
  5  6  2  0  0  0  0
  6 28  1  0  0  0  0
  6 18  1  0  0  0  0
  7 19  1  6  0  0  0
  7 24  1  0  0  0  0
  8 12  1  0  0  0  0
 10  1  2  0  0  0  0
 11 13  1  0  0  0  0
 11  3  1  0  0  0  0
 12  2  2  0  0  0  0
 12 13  1  0  0  0  0
 13 22  2  0  0  0  0
 14 23  1  0  0  0  0
 15  9  1  0  0  0  0
 16 19  1  0  0  0  0
 17  8  1  6  0  0  0
 17  7  1  0  0  0  0
 18 15  2  0  0  0  0
 20  1  1  0  0  0  0
 20 16  1  0  0  0  0
 22 14  1  0  0  0  0
 22 21  1  0  0  0  0
 23 28  1  0  0  0  0
 24  2  1  0  0  0  0
 25  5  1  0  0  0  0
 26  9  2  0  0  0  0
 27 14  2  0  0  0  0
 27  5  1  0  0  0  0
 28 26  1  1  0  0  0
 29 31  1  0  0  0  0
 29 20  1  0  0  0  0
 30 29  1  0  0  0  0
 32 29  1  0  0  0  0
M  END
>  <MODEL>
3

>  <REMARK>
 VINA RESULT:     -10.0      1.463      2.021
  Name = 
  1 active torsions:
  status: ('A' for Active; 'I' for Inactive)
    1  A    between atoms: C_1  and  N_24
                            x       y       z     vdW  Elec       q    Type
                         _______ _______ _______ _____ _____    ______ ____

>  <TORSDO>
F 1

$$$$
=
 OpenBabel10262421243D

 32 37  0  0  1  0  0  0  0  0999 V2000
  182.1700  179.4920  138.8130 C   0  0  0  0  0  0  0  0  0  0  0  0
  185.0200  178.2690  141.7840 C   0  0  0  0  0  0  0  0  0  0  0  0
  189.1010  178.2710  138.9520 O   0  0  0  0  0  0  0  0  0  0  0  0
  189.7890  177.7970  140.1350 C   0  0  0  0  0  2  0  0  0  0  0  0
  185.4420  178.2530  144.4200 C   0  0  0  0  0  0  0  0  0  0  0  0
  186.3820  178.2380  145.4090 C   0  0  0  0  0  0  0  0  0  0  0  0
  182.5990  178.2710  140.9700 C   0  0  2  0  0  3  0  0  0  0  0  0
  184.4960  178.5460  139.3730 C   0  0  0  0  0  2  0  0  0  0  0  0
  188.4970  177.8560  147.3150 C   0  0  0  0  0  3  0  0  0  0  0  0
  181.9850  178.9260  137.5950 C   0  0  0  0  0  2  0  0  0  0  0  0
  187.6720  178.2530  139.0190 C   0  0  0  0  0  2  0  0  0  0  0  0
  185.5090  178.4530  140.5060 C   0  0  0  0  0  0  0  0  0  0  0  0
  186.9260  178.2960  140.3410 C   0  0  0  0  0  0  0  0  0  0  0  0
  187.2320  178.1170  142.6850 C   0  0  0  0  0  0  0  0  0  0  0  0
  187.0590  178.2080  147.7150 C   0  0  0  0  0  3  0  0  0  0  0  0
  180.8050  180.0440  140.8270 C   0  0  0  0  0  2  0  0  0  0  0  0
  183.1570  179.1040  139.8090 C   0  0  1  0  0  3  0  0  0  0  0  0
  186.0660  178.3930  146.8630 C   0  0  0  0  0  3  0  0  0  0  0  0
  181.1680  178.7010  141.3320 C   0  0  0  0  0  2  0  0  0  0  0  0
  181.0650  180.2250  139.4120 N   0  0  0  0  0  0  0  0  0  0  0  0
  189.1120  178.1030  141.3490 O   0  0  0  0  0  0  0  0  0  0  0  0
  187.6930  178.1460  141.4600 C   0  0  0  0  0  0  0  0  0  0  0  0
  188.1070  177.7080  143.7450 O   0  0  0  0  0  0  0  0  0  0  0  0
  183.5350  178.5550  142.1210 C   0  0  0  0  0  2  0  0  0  0  0  0
  184.0780  178.2970  144.7630 O   0  0  0  0  0  1  0  0  0  0  0  0
  188.9010  177.8380  146.0550 C   0  0  0  0  0  3  0  0  0  0  0  0
  185.8650  178.2860  142.9850 C   0  0  0  0  0  0  0  0  0  0  0  0
  187.8820  178.2060  145.0110 C   0  0  2  0  0  3  0  0  0  0  0  0
  180.1580  181.2430  138.7280 C   0  0  0  0  0  0  0  0  0  0  0  0
  179.0980  180.6800  137.7350 C   0  0  0  0  0  1  0  0  0  0  0  0
  179.2550  182.0080  139.7420 C   0  0  0  0  0  1  0  0  0  0  0  0
  180.9160  182.3230  137.9950 C   0  0  0  0  0  1  0  0  0  0  0  0
  1 20  1  0  0  0  0
  1 17  1  0  0  0  0
  2 24  1  0  0  0  0
  2 27  1  0  0  0  0
  3 11  1  0  0  0  0
  3  4  1  0  0  0  0
  4 21  1  0  0  0  0
  5 25  1  0  0  0  0
  5  6  2  0  0  0  0
  6 18  1  0  0  0  0
  7 19  1  1  0  0  0
  7 24  1  0  0  0  0
  8 12  1  0  0  0  0
  9 15  1  0  0  0  0
 10  1  2  0  0  0  0
 11 13  1  0  0  0  0
 12  2  2  0  0  0  0
 13 12  1  0  0  0  0
 13 22  2  0  0  0  0
 14 27  2  0  0  0  0
 14 23  1  0  0  0  0
 16 19  1  0  0  0  0
 17  8  1  6  0  0  0
 17  7  1  0  0  0  0
 18 15  2  0  0  0  0
 20 16  1  0  0  0  0
 21 22  1  0  0  0  0
 22 14  1  0  0  0  0
 23 28  1  0  0  0  0
 26  9  2  0  0  0  0
 27  5  1  0  0  0  0
 28  6  1  0  0  0  0
 28 26  1  1  0  0  0
 29 20  1  0  0  0  0
 29 31  1  0  0  0  0
 30 29  1  0  0  0  0
 32 29  1  0  0  0  0
M  END
>  <MODEL>
4

>  <REMARK>
 VINA RESULT:      -9.9      3.064      6.164
  Name = 
  1 active torsions:
  status: ('A' for Active; 'I' for Inactive)
    1  A    between atoms: C_1  and  N_24
                            x       y       z     vdW  Elec       q    Type
                         _______ _______ _______ _____ _____    ______ ____

>  <TORSDO>
F 1

$$$$
=
 OpenBabel10262421243D

 32 37  0  0  1  0  0  0  0  0999 V2000
  181.7540  178.6260  141.6160 C   0  0  0  0  0  0  0  0  0  0  0  0
  186.0260  178.5770  142.0600 C   0  0  0  0  0  0  0  0  0  0  0  0
  186.2590  177.7820  146.9570 O   0  0  0  0  0  0  0  0  0  0  0  0
  187.6950  177.8780  146.7940 C   0  0  0  0  0  2  0  0  0  0  0  0
  188.2820  178.1220  140.7060 C   0  0  0  0  0  0  0  0  0  0  0  0
  189.5870  177.7360  140.7920 C   0  0  0  0  0  0  0  0  0  0  0  0
  183.9900  179.3770  140.7400 C   0  0  2  0  0  3  0  0  0  0  0  0
  183.8080  178.7840  143.1560 C   0  0  0  0  0  2  0  0  0  0  0  0
  192.3810  177.2410  141.2380 C   0  0  0  0  0  3  0  0  0  0  0  0
  180.8800  179.3780  142.3290 C   0  0  0  0  0  2  0  0  0  0  0  0
  185.4800  178.2000  145.8340 C   0  0  0  0  0  2  0  0  0  0  0  0
  185.2880  178.4320  143.2180 C   0  0  0  0  0  0  0  0  0  0  0  0
  186.0360  178.1970  144.4200 C   0  0  0  0  0  0  0  0  0  0  0  0
  188.0480  177.9690  143.1870 C   0  0  0  0  0  0  0  0  0  0  0  0
  191.7440  177.2650  139.8430 C   0  0  0  0  0  3  0  0  0  0  0  0
  182.3310  178.2270  139.2210 C   0  0  0  0  0  2  0  0  0  0  0  0
  183.1980  178.5800  141.7850 C   0  0  1  0  0  3  0  0  0  0  0  0
  190.4640  177.4870  139.6070 C   0  0  0  0  0  2  0  0  0  0  0  0
  183.3070  179.3300  139.3630 C   0  0  0  0  0  2  0  0  0  0  0  0
  181.3570  178.1680  140.2930 N   0  0  0  0  0  0  0  0  0  0  0  0
  188.1360  177.6210  145.4650 O   0  0  0  0  0  0  0  0  0  0  0  0
  187.3780  177.9710  144.3110 C   0  0  0  0  0  0  0  0  0  0  0  0
  189.4810  177.9660  143.2340 O   0  0  0  0  0  0  0  0  0  0  0  0
  185.3330  178.6870  140.6790 C   0  0  0  0  0  2  0  0  0  0  0  0
  187.7310  178.4260  139.4470 O   0  0  0  0  0  1  0  0  0  0  0  0
  191.6640  177.3090  142.3490 C   0  0  0  0  0  3  0  0  0  0  0  0
  187.4280  178.1600  141.9360 C   0  0  0  0  0  0  0  0  0  0  0  0
  190.1710  177.3900  142.1890 C   0  0  0  0  0  0  0  0  0  0  0  0
  180.0180  177.5520  139.8970 C   0  0  0  0  0  0  0  0  0  0  0  0
  179.3060  176.6750  140.9700 C   0  0  0  0  0  1  0  0  0  0  0  0
  178.9310  178.6310  139.6120 C   0  0  0  0  0  1  0  0  0  0  0  0
  180.0880  176.7290  138.6340 C   0  0  0  0  0  1  0  0  0  0  0  0
  1 17  1  0  0  0  0
  1 10  2  0  0  0  0
  2 12  1  0  0  0  0
  4  3  1  0  0  0  0
  5  6  2  0  0  0  0
  5 27  1  0  0  0  0
  6 28  1  0  0  0  0
  7 19  1  6  0  0  0
  7 17  1  0  0  0  0
  8 12  1  0  0  0  0
  9 26  1  0  0  0  0
 11  3  1  0  0  0  0
 12 13  2  0  0  0  0
 13 11  1  0  0  0  0
 14 23  1  0  0  0  0
 14 22  2  0  0  0  0
 15  9  2  0  0  0  0
 16 19  1  0  0  0  0
 16 20  1  0  0  0  0
 17  8  1  1  0  0  0
 18 15  1  0  0  0  0
 18  6  1  0  0  0  0
 20  1  1  0  0  0  0
 21  4  1  0  0  0  0
 22 13  1  0  0  0  0
 22 21  1  0  0  0  0
 24  7  1  0  0  0  0
 24  2  1  0  0  0  0
 25  5  1  0  0  0  0
 27  2  2  0  0  0  0
 27 14  1  0  0  0  0
 28 26  2  0  0  0  0
 28 23  1  0  0  0  0
 29 20  1  0  0  0  0
 29 30  1  0  0  0  0
 31 29  1  0  0  0  0
 32 29  1  0  0  0  0
M  END
>  <MODEL>
5

>  <REMARK>
 VINA RESULT:      -9.8      2.888      6.294
  Name = 
  1 active torsions:
  status: ('A' for Active; 'I' for Inactive)
    1  A    between atoms: C_1  and  N_24
                            x       y       z     vdW  Elec       q    Type
                         _______ _______ _______ _____ _____    ______ ____

>  <TORSDO>
F 1

$$$$
=
 OpenBabel10262421243D

 32 37  0  0  1  0  0  0  0  0999 V2000
  181.3330  178.6650  140.7160 C   0  0  0  0  0  0  0  0  0  0  0  0
  185.4120  178.6990  142.0600 C   0  0  0  0  0  0  0  0  0  0  0  0
  184.5940  178.3510  146.9460 O   0  0  0  0  0  0  0  0  0  0  0  0
  186.0330  178.4460  147.0830 C   0  0  0  0  0  2  0  0  0  0  0  0
  187.9000  178.1460  141.2620 C   0  0  0  0  0  0  0  0  0  0  0  0
  189.1540  177.7820  141.6570 C   0  0  0  0  0  0  0  0  0  0  0  0
  183.7110  179.3560  140.2710 C   0  0  2  0  0  3  0  0  0  0  0  0
  183.0150  178.9810  142.6370 C   0  0  0  0  0  2  0  0  0  0  0  0
  191.7850  177.3570  142.7290 C   0  0  0  0  0  3  0  0  0  0  0  0
  180.3340  179.4690  141.1570 C   0  0  0  0  0  2  0  0  0  0  0  0
  184.0740  178.6580  145.6500 C   0  0  0  0  0  2  0  0  0  0  0  0
  184.4450  178.6520  143.0420 C   0  0  0  0  0  0  0  0  0  0  0  0
  184.9180  178.5340  144.3920 C   0  0  0  0  0  0  0  0  0  0  0  0
  187.1430  178.2150  143.6400 C   0  0  0  0  0  0  0  0  0  0  0  0
  191.4580  177.2500  141.2340 C   0  0  0  0  0  3  0  0  0  0  0  0
  182.4010  178.0570  138.5450 C   0  0  0  0  0  2  0  0  0  0  0  0
  182.7080  178.6490  141.1920 C   0  0  1  0  0  3  0  0  0  0  0  0
  190.2590  177.4360  140.7120 C   0  0  0  0  0  2  0  0  0  0  0  0
  183.3350  179.1780  138.7910 C   0  0  0  0  0  2  0  0  0  0  0  0
  181.2210  178.0850  139.3860 N   0  0  0  0  0  0  0  0  0  0  0  0
  186.7430  178.0750  145.9070 O   0  0  0  0  0  0  0  0  0  0  0  0
  186.2500  178.3120  144.5920 C   0  0  0  0  0  0  0  0  0  0  0  0
  188.5340  178.2300  143.9900 O   0  0  0  0  0  0  0  0  0  0  0  0
  185.0300  178.6760  140.5590 C   0  0  0  0  0  2  0  0  0  0  0  0
  187.6320  178.3290  139.8920 O   0  0  0  0  0  1  0  0  0  0  0  0
  190.8490  177.5180  143.6510 C   0  0  0  0  0  3  0  0  0  0  0  0
  186.8050  178.2860  142.2740 C   0  0  0  0  0  0  0  0  0  0  0  0
  189.4240  177.5700  143.1710 C   0  0  0  0  0  0  0  0  0  0  0  0
  179.9910  177.4230  138.7730 C   0  0  0  0  0  0  0  0  0  0  0  0
  178.9310  178.3700  138.1360 C   0  0  0  0  0  1  0  0  0  0  0  0
  180.3520  176.5080  137.5640 C   0  0  0  0  0  1  0  0  0  0  0  0
  179.2540  176.5230  139.7330 C   0  0  0  0  0  1  0  0  0  0  0  0
  1 10  2  0  0  0  0
  1 17  1  0  0  0  0
  2 27  2  0  0  0  0
  2 12  1  0  0  0  0
  3  4  1  0  0  0  0
  5  6  2  0  0  0  0
  5 27  1  0  0  0  0
  6 28  1  0  0  0  0
  7 19  1  6  0  0  0
  7 24  1  0  0  0  0
  7 17  1  0  0  0  0
  8 12  1  0  0  0  0
  9 26  1  0  0  0  0
 11  3  1  0  0  0  0
 12 13  2  0  0  0  0
 13 22  1  0  0  0  0
 13 11  1  0  0  0  0
 14 23  1  0  0  0  0
 14 22  2  0  0  0  0
 15  9  2  0  0  0  0
 16 19  1  0  0  0  0
 16 20  1  0  0  0  0
 17  8  1  1  0  0  0
 18 15  1  0  0  0  0
 18  6  1  0  0  0  0
 20  1  1  0  0  0  0
 21  4  1  0  0  0  0
 22 21  1  0  0  0  0
 24  2  1  0  0  0  0
 25  5  1  0  0  0  0
 27 14  1  0  0  0  0
 28 26  2  0  0  0  0
 28 23  1  0  0  0  0
 29 20  1  0  0  0  0
 29 32  1  0  0  0  0
 30 29  1  0  0  0  0
 31 29  1  0  0  0  0
M  END
>  <MODEL>
6

>  <REMARK>
 VINA RESULT:      -9.7      3.178      5.742
  Name = 
  1 active torsions:
  status: ('A' for Active; 'I' for Inactive)
    1  A    between atoms: C_1  and  N_24
                            x       y       z     vdW  Elec       q    Type
                         _______ _______ _______ _____ _____    ______ ____

>  <TORSDO>
F 1

$$$$
=
 OpenBabel10262421243D

 32 37  0  0  1  0  0  0  0  0999 V2000
  183.0580  178.4640  139.1780 C   0  0  0  0  0  0  0  0  0  0  0  0
  186.2660  178.2890  142.0280 C   0  0  0  0  0  0  0  0  0  0  0  0
  183.6010  178.8040  146.1870 O   0  0  0  0  0  0  0  0  0  0  0  0
  184.8740  178.7700  146.8780 C   0  0  0  0  0  2  0  0  0  0  0  0
  188.7500  177.3650  142.3540 C   0  0  0  0  0  0  0  0  0  0  0  0
  189.6840  176.9400  143.2530 C   0  0  0  0  0  0  0  0  0  0  0  0
  185.5020  178.8270  139.6510 C   0  0  2  0  0  3  0  0  0  0  0  0
  183.9060  178.9050  141.5660 C   0  0  0  0  0  2  0  0  0  0  0  0
  191.6040  176.4210  145.3250 C   0  0  0  0  0  3  0  0  0  0  0  0
  182.1070  179.4270  139.0960 C   0  0  0  0  0  2  0  0  0  0  0  0
  183.6710  178.9540  144.7670 C   0  0  0  0  0  2  0  0  0  0  0  0
  185.0020  178.4980  142.5410 C   0  0  0  0  0  0  0  0  0  0  0  0
  184.8990  178.5460  143.9720 C   0  0  0  0  0  0  0  0  0  0  0  0
  187.1640  177.8850  144.2100 C   0  0  0  0  0  0  0  0  0  0  0  0
  191.8610  176.1130  143.8450 C   0  0  0  0  0  3  0  0  0  0  0  0
  184.7650  177.4140  137.6910 C   0  0  0  0  0  2  0  0  0  0  0  0
  184.1260  178.3820  140.1620 C   0  0  1  0  0  3  0  0  0  0  0  0
  190.9970  176.3370  142.8710 C   0  0  0  0  0  2  0  0  0  0  0  0
  185.6970  178.4580  138.1710 C   0  0  0  0  0  2  0  0  0  0  0  0
  183.3730  177.6970  137.9820 N   0  0  0  0  0  0  0  0  0  0  0  0
  185.9120  178.1470  146.1290 O   0  0  0  0  0  0  0  0  0  0  0  0
  186.0020  178.2230  144.7090 C   0  0  0  0  0  0  0  0  0  0  0  0
  188.2990  177.8120  145.0830 O   0  0  0  0  0  0  0  0  0  0  0  0
  186.4870  178.0700  140.5110 C   0  0  0  0  0  2  0  0  0  0  0  0
  189.0580  177.3550  140.9800 O   0  0  0  0  0  1  0  0  0  0  0  0
  190.4250  176.8210  145.7740 C   0  0  0  0  0  3  0  0  0  0  0  0
  187.3890  177.7750  142.8230 C   0  0  0  0  0  0  0  0  0  0  0  0
  189.3190  176.9420  144.7620 C   0  0  0  0  0  0  0  0  0  0  0  0
  182.3830  177.0760  137.0010 C   0  0  0  0  0  0  0  0  0  0  0  0
  181.6850  178.0470  136.0030 C   0  0  0  0  0  1  0  0  0  0  0  0
  183.0670  176.0710  136.0260 C   0  0  0  0  0  1  0  0  0  0  0  0
  181.2920  176.2810  137.6740 C   0  0  0  0  0  1  0  0  0  0  0  0
  1 17  1  0  0  0  0
  2 12  2  0  0  0  0
  2 27  1  0  0  0  0
  3  4  1  0  0  0  0
  5 27  1  0  0  0  0
  5  6  2  0  0  0  0
  6 28  1  0  0  0  0
  7 19  1  6  0  0  0
  7 17  1  0  0  0  0
  7 24  1  0  0  0  0
  8 12  1  0  0  0  0
  9 26  1  0  0  0  0
 10  1  2  0  0  0  0
 11  3  1  0  0  0  0
 12 13  1  0  0  0  0
 13 22  2  0  0  0  0
 13 11  1  0  0  0  0
 14 22  1  0  0  0  0
 14 23  1  0  0  0  0
 15  9  2  0  0  0  0
 16 20  1  0  0  0  0
 16 19  1  0  0  0  0
 17  8  1  1  0  0  0
 18  6  1  0  0  0  0
 18 15  1  0  0  0  0
 20  1  1  0  0  0  0
 21  4  1  0  0  0  0
 22 21  1  0  0  0  0
 24  2  1  0  0  0  0
 25  5  1  0  0  0  0
 27 14  2  0  0  0  0
 28 23  1  0  0  0  0
 28 26  2  0  0  0  0
 29 32  1  0  0  0  0
 29 20  1  0  0  0  0
 30 29  1  0  0  0  0
 31 29  1  0  0  0  0
M  END
>  <MODEL>
7

>  <REMARK>
 VINA RESULT:      -9.6      2.713      4.009
  Name = 
  1 active torsions:
  status: ('A' for Active; 'I' for Inactive)
    1  A    between atoms: C_1  and  N_24
                            x       y       z     vdW  Elec       q    Type
                         _______ _______ _______ _____ _____    ______ ____

>  <TORSDO>
F 1

$$$$
=
 OpenBabel10262421243D

 32 37  0  0  1  0  0  0  0  0999 V2000
  189.3640  177.0080  137.0020 C   0  0  0  0  0  0  0  0  0  0  0  0
  187.5430  178.2200  140.6990 C   0  0  0  0  0  0  0  0  0  0  0  0
  182.9510  179.0930  139.0210 O   0  0  0  0  0  0  0  0  0  0  0  0
  182.6510  179.5050  140.3770 C   0  0  0  0  0  2  0  0  0  0  0  0
  187.7790  177.9700  143.3470 C   0  0  0  0  0  0  0  0  0  0  0  0
  187.1200  177.9860  144.5420 C   0  0  0  0  0  0  0  0  0  0  0  0
  189.6650  178.0030  139.2930 C   0  0  2  0  0  3  0  0  0  0  0  0
  187.4200  178.1730  138.2200 C   0  0  0  0  0  2  0  0  0  0  0  0
  185.6160  178.4050  146.9520 C   0  0  0  0  0  3  0  0  0  0  0  0
  189.3350  177.6900  135.8310 C   0  0  0  0  0  2  0  0  0  0  0  0
  184.3380  178.9170  138.7200 C   0  0  0  0  0  2  0  0  0  0  0  0
  186.7380  178.2580  139.5790 C   0  0  0  0  0  0  0  0  0  0  0  0
  185.3660  178.6170  139.7970 C   0  0  0  0  0  0  0  0  0  0  0  0
  185.6670  178.5470  142.1480 C   0  0  0  0  0  0  0  0  0  0  0  0
  187.0350  177.8230  146.9380 C   0  0  0  0  0  3  0  0  0  0  0  0
  191.0720  176.0430  138.5440 C   0  0  0  0  0  2  0  0  0  0  0  0
  188.7200  177.3970  138.2480 C   0  0  1  0  0  3  0  0  0  0  0  0
  187.7500  177.6160  145.8460 C   0  0  0  0  0  3  0  0  0  0  0  0
  191.0560  177.3500  139.2380 C   0  0  0  0  0  2  0  0  0  0  0  0
  190.4520  176.0710  137.2330 N   0  0  0  0  0  0  0  0  0  0  0  0
  183.5460  178.9680  141.3460 O   0  0  0  0  0  0  0  0  0  0  0  0
  184.9250  178.7280  141.0850 C   0  0  0  0  0  0  0  0  0  0  0  0
  185.1490  178.9340  143.4280 O   0  0  0  0  0  0  0  0  0  0  0  0
  189.0020  177.7050  140.6180 C   0  0  0  0  0  2  0  0  0  0  0  0
  189.1620  177.7080  143.3220 O   0  0  0  0  0  1  0  0  0  0  0  0
  184.9270  178.6280  145.8440 C   0  0  0  0  0  3  0  0  0  0  0  0
  187.0220  178.1670  142.0710 C   0  0  0  0  0  0  0  0  0  0  0  0
  185.5930  178.2610  144.5460 C   0  0  2  0  0  3  0  0  0  0  0  0
  190.9960  175.0340  136.2550 C   0  0  0  0  0  0  0  0  0  0  0  0
  191.9670  175.5540  135.1530 C   0  0  0  0  0  1  0  0  0  0  0  0
  191.8780  173.9590  136.9600 C   0  0  0  0  0  1  0  0  0  0  0  0
  189.9160  174.2490  135.5530 C   0  0  0  0  0  1  0  0  0  0  0  0
  1 20  1  0  0  0  0
  1 17  1  0  0  0  0
  2 27  1  0  0  0  0
  3  4  1  0  0  0  0
  4 21  1  0  0  0  0
  5  6  2  0  0  0  0
  6 28  1  0  0  0  0
  6 18  1  0  0  0  0
  7 19  1  1  0  0  0
  7 24  1  0  0  0  0
  8 12  1  0  0  0  0
 10  1  2  0  0  0  0
 11  3  1  0  0  0  0
 11 13  1  0  0  0  0
 12 13  1  0  0  0  0
 12  2  2  0  0  0  0
 13 22  2  0  0  0  0
 14 23  1  0  0  0  0
 15  9  1  0  0  0  0
 16 19  1  0  0  0  0
 17  8  1  6  0  0  0
 17  7  1  0  0  0  0
 18 15  2  0  0  0  0
 20 16  1  0  0  0  0
 22 21  1  0  0  0  0
 22 14  1  0  0  0  0
 23 28  1  0  0  0  0
 24  2  1  0  0  0  0
 25  5  1  0  0  0  0
 26  9  2  0  0  0  0
 27 14  2  0  0  0  0
 27  5  1  0  0  0  0
 28 26  1  1  0  0  0
 29 31  1  0  0  0  0
 29 20  1  0  0  0  0
 30 29  1  0  0  0  0
 32 29  1  0  0  0  0
M  END
>  <MODEL>
8

>  <REMARK>
 VINA RESULT:      -9.4      1.473      2.299
  Name = 
  1 active torsions:
  status: ('A' for Active; 'I' for Inactive)
    1  A    between atoms: C_1  and  N_24
                            x       y       z     vdW  Elec       q    Type
                         _______ _______ _______ _____ _____    ______ ____

>  <TORSDO>
F 1

$$$$
=
 OpenBabel10262421243D

 32 37  0  0  1  0  0  0  0  0999 V2000
  191.0170  176.1690  136.6780 C   0  0  0  0  0  0  0  0  0  0  0  0
  190.0350  177.4080  140.6720 C   0  0  0  0  0  0  0  0  0  0  0  0
  185.3340  178.8050  139.8870 O   0  0  0  0  0  0  0  0  0  0  0  0
  185.3300  179.1890  141.2840 C   0  0  0  0  0  2  0  0  0  0  0  0
  190.7180  177.0280  143.2250 C   0  0  0  0  0  0  0  0  0  0  0  0
  190.2920  177.0620  144.5210 C   0  0  0  0  0  0  0  0  0  0  0  0
  191.8320  177.0350  138.8950 C   0  0  2  0  0  3  0  0  0  0  0  0
  189.4610  177.4730  138.2580 C   0  0  0  0  0  2  0  0  0  0  0  0
  189.3010  177.5320  147.1760 C   0  0  0  0  0  3  0  0  0  0  0  0
  190.8500  176.8970  135.5470 C   0  0  0  0  0  2  0  0  0  0  0  0
  186.6170  178.5030  139.3320 C   0  0  0  0  0  2  0  0  0  0  0  0
  189.0490  177.5720  139.7200 C   0  0  0  0  0  0  0  0  0  0  0  0
  187.7850  178.0570  140.1950 C   0  0  0  0  0  0  0  0  0  0  0  0
  188.4970  177.8630  142.4480 C   0  0  0  0  0  0  0  0  0  0  0  0
  190.6240  176.8110  146.8880 C   0  0  0  0  0  3  0  0  0  0  0  0
  192.8640  174.9750  137.8580 C   0  0  0  0  0  2  0  0  0  0  0  0
  190.6550  176.5700  138.0290 C   0  0  1  0  0  3  0  0  0  0  0  0
  191.1040  176.5780  145.6790 C   0  0  0  0  0  3  0  0  0  0  0  0
  193.1130  176.2480  138.5710 C   0  0  0  0  0  2  0  0  0  0  0  0
  192.0240  175.1180  136.6850 N   0  0  0  0  0  0  0  0  0  0  0  0
  186.3230  178.5270  142.0600 O   0  0  0  0  0  0  0  0  0  0  0  0
  187.5990  178.1590  141.5440 C   0  0  0  0  0  0  0  0  0  0  0  0
  188.2640  178.2480  143.8100 O   0  0  0  0  0  0  0  0  0  0  0  0
  191.3920  176.7520  140.3130 C   0  0  0  0  0  2  0  0  0  0  0  0
  192.0370  176.6290  142.9410 O   0  0  0  0  0  1  0  0  0  0  0  0
  188.4510  177.8680  146.2180 C   0  0  0  0  0  3  0  0  0  0  0  0
  189.7670  177.3520  142.1150 C   0  0  0  0  0  0  0  0  0  0  0  0
  188.8280  177.4890  144.8120 C   0  0  2  0  0  3  0  0  0  0  0  0
  192.2690  174.0730  135.6010 C   0  0  0  0  0  0  0  0  0  0  0  0
  191.0810  173.7680  134.6410 C   0  0  0  0  0  1  0  0  0  0  0  0
  193.3740  174.5110  134.5940 C   0  0  0  0  0  1  0  0  0  0  0  0
  192.7440  172.7480  136.1440 C   0  0  0  0  0  1  0  0  0  0  0  0
  1 20  1  0  0  0  0
  1 17  1  0  0  0  0
  2 27  1  0  0  0  0
  3  4  1  0  0  0  0
  4 21  1  0  0  0  0
  5  6  2  0  0  0  0
  6 28  1  0  0  0  0
  6 18  1  0  0  0  0
  7 19  1  6  0  0  0
  7 24  1  0  0  0  0
  8 12  1  0  0  0  0
 10  1  2  0  0  0  0
 11  3  1  0  0  0  0
 11 13  1  0  0  0  0
 12 13  1  0  0  0  0
 12  2  2  0  0  0  0
 13 22  2  0  0  0  0
 14 23  1  0  0  0  0
 15  9  1  0  0  0  0
 16 19  1  0  0  0  0
 17  8  1  6  0  0  0
 17  7  1  0  0  0  0
 18 15  2  0  0  0  0
 20 16  1  0  0  0  0
 22 21  1  0  0  0  0
 22 14  1  0  0  0  0
 23 28  1  0  0  0  0
 24  2  1  0  0  0  0
 25  5  1  0  0  0  0
 26  9  2  0  0  0  0
 27 14  2  0  0  0  0
 27  5  1  0  0  0  0
 28 26  1  1  0  0  0
 29 32  1  0  0  0  0
 29 20  1  0  0  0  0
 30 29  1  0  0  0  0
 31 29  1  0  0  0  0
M  END
>  <MODEL>
9

>  <REMARK>
 VINA RESULT:      -8.8      2.202      3.312
  Name = 
  1 active torsions:
  status: ('A' for Active; 'I' for Inactive)
    1  A    between atoms: C_1  and  N_24
                            x       y       z     vdW  Elec       q    Type
                         _______ _______ _______ _____ _____    ______ ____

>  <TORSDO>
F 1

$$$$
