=
 OpenBabel10262420103D

 27 30  0  0  1  0  0  0  0  0999 V2000
  188.9460  177.3660  144.0700 N   0  0  0  0  0  0  0  0  0  0  0  0
  188.0660  175.4750  143.0200 O   0  0  0  0  0  0  0  0  0  0  0  0
  188.5910  176.6140  142.8880 C   0  0  0  0  0  0  0  0  0  0  0  0
  189.1560  178.1390  138.9400 C   0  0  0  0  0  3  0  0  0  0  0  0
  191.3100  176.9230  138.6650 C   0  0  0  0  0  1  0  0  0  0  0  0
  189.9500  176.7730  140.7730 C   0  0  0  0  0  0  0  0  0  0  0  0
  190.8970  175.9540  141.3010 F   0  0  0  0  0  0  0  0  0  0  0  0
  188.8140  177.1420  141.5190 C   0  0  0  0  0  0  0  0  0  0  0  0
  190.1160  177.2830  139.4780 C   0  0  0  0  0  0  0  0  0  0  0  0
  187.8950  177.9770  140.9580 N   0  0  0  0  0  0  0  0  0  0  0  0
  188.0400  178.4780  139.7020 C   0  0  0  0  0  3  0  0  0  0  0  0
  190.1760  179.0380  145.3190 N   0  0  0  0  0  2  0  0  0  0  0  0
  189.7410  178.6000  143.9830 C   0  0  1  0  0  3  0  0  0  0  0  0
  191.1620  178.4530  144.3930 C   0  0  2  0  0  3  0  0  0  0  0  0
  192.0420  175.5880  146.7320 C   0  0  0  0  0  3  0  0  0  0  0  0
  192.2770  174.5460  145.8320 C   0  0  0  0  0  3  0  0  0  0  0  0
  191.6930  176.8560  146.2590 C   0  0  0  0  0  3  0  0  0  0  0  0
  192.1540  174.7690  144.4580 C   0  0  0  0  0  3  0  0  0  0  0  0
  191.8090  176.0370  143.9850 C   0  0  0  0  0  3  0  0  0  0  0  0
  191.6020  177.0980  144.8820 C   0  0  0  0  0  0  0  0  0  0  0  0
  188.2250  177.0840  145.3110 C   0  0  0  0  0  2  0  0  0  0  0  0
  184.3340  178.8980  145.3080 C   0  0  0  0  0  3  0  0  0  0  0  0
  186.8690  177.7100  145.3030 C   0  0  0  0  0  0  0  0  0  0  0  0
  186.2400  178.0190  146.5150 C   0  0  0  0  0  3  0  0  0  0  0  0
  184.9740  178.6120  146.5170 C   0  0  0  0  0  3  0  0  0  0  0  0
  184.9610  178.5950  144.0960 C   0  0  0  0  0  3  0  0  0  0  0  0
  186.2280  178.0020  144.0940 C   0  0  0  0  0  3  0  0  0  0  0  0
  1 21  1  0  0  0  0
  3  2  2  0  0  0  0
  3  1  1  0  0  0  0
  4  9  2  0  0  0  0
  4 11  1  0  0  0  0
  5  9  1  0  0  0  0
  6  7  1  0  0  0  0
  6  8  2  0  0  0  0
  8  3  1  0  0  0  0
  9  6  1  0  0  0  0
 10  8  1  0  0  0  0
 11 10  2  0  0  0  0
 13  1  1  1  0  0  0
 13 14  1  0  0  0  0
 13 12  1  0  0  0  0
 14 20  1  1  0  0  0
 14 12  1  0  0  0  0
 16 15  2  0  0  0  0
 17 15  1  0  0  0  0
 18 16  1  0  0  0  0
 19 18  2  0  0  0  0
 19 20  1  0  0  0  0
 20 17  2  0  0  0  0
 22 25  1  0  0  0  0
 23 21  1  0  0  0  0
 23 24  1  0  0  0  0
 24 25  2  0  0  0  0
 26 22  2  0  0  0  0
 27 26  1  0  0  0  0
 27 23  2  0  0  0  0
M  END
>  <MODEL>
1

>  <REMARK>
 VINA RESULT:      -7.9      0.000      0.000
  Name = 
  5 active torsions:
  status: ('A' for Active; 'I' for Inactive)
    1  A    between atoms: N_2  and  C_6
    2  A    between atoms: N_2  and  C_15
    3  A    between atoms: C_6  and  C_9
    4  A    between atoms: C_14  and  C_19
    5  A    between atoms: C_18  and  C_26
                            x       y       z     vdW  Elec       q    Type
                         _______ _______ _______ _____ _____    ______ ____

>  <TORSDO>
F 5

$$$$
=
 OpenBabel10262420103D

 27 30  0  0  1  0  0  0  0  0999 V2000
  188.9500  177.3090  143.8790 N   0  0  0  0  0  0  0  0  0  0  0  0
  188.2300  175.3130  142.9050 O   0  0  0  0  0  0  0  0  0  0  0  0
  188.8020  176.4250  142.7450 C   0  0  0  0  0  0  0  0  0  0  0  0
  190.2820  177.4650  138.8780 C   0  0  0  0  0  3  0  0  0  0  0  0
  188.2260  178.7550  138.3230 C   0  0  0  0  0  1  0  0  0  0  0  0
  188.5180  177.5890  140.5290 C   0  0  0  0  0  0  0  0  0  0  0  0
  187.2820  178.0180  140.8960 F   0  0  0  0  0  0  0  0  0  0  0  0
  189.2910  176.7880  141.3920 C   0  0  0  0  0  0  0  0  0  0  0  0
  189.0220  177.9210  139.2640 C   0  0  0  0  0  0  0  0  0  0  0  0
  190.5200  176.3660  140.9800 N   0  0  0  0  0  0  0  0  0  0  0  0
  191.0250  176.6810  139.7580 C   0  0  0  0  0  3  0  0  0  0  0  0
  190.1160  179.0110  145.1500 N   0  0  0  0  0  2  0  0  0  0  0  0
  189.7810  178.5200  143.8030 C   0  0  1  0  0  3  0  0  0  0  0  0
  191.1590  178.3610  144.3360 C   0  0  2  0  0  3  0  0  0  0  0  0
  192.2430  174.7260  144.5880 C   0  0  0  0  0  3  0  0  0  0  0  0
  192.3440  174.5520  145.9700 C   0  0  0  0  0  3  0  0  0  0  0  0
  191.8460  175.9590  144.0650 C   0  0  0  0  0  3  0  0  0  0  0  0
  192.0570  175.6160  146.8310 C   0  0  0  0  0  3  0  0  0  0  0  0
  191.6570  176.8480  146.3070 C   0  0  0  0  0  3  0  0  0  0  0  0
  191.5230  177.0210  144.9200 C   0  0  0  0  0  0  0  0  0  0  0  0
  188.0030  177.1780  144.9850 C   0  0  0  0  0  2  0  0  0  0  0  0
  184.3470  179.2690  144.1510 C   0  0  0  0  0  3  0  0  0  0  0  0
  186.7330  177.9120  144.7000 C   0  0  0  0  0  0  0  0  0  0  0  0
  186.1750  177.8610  143.4180 C   0  0  0  0  0  3  0  0  0  0  0  0
  184.9840  178.5390  143.1440 C   0  0  0  0  0  3  0  0  0  0  0  0
  184.8990  179.3180  145.4340 C   0  0  0  0  0  3  0  0  0  0  0  0
  186.0910  178.6390  145.7090 C   0  0  0  0  0  3  0  0  0  0  0  0
  1 21  1  0  0  0  0
  3  2  2  0  0  0  0
  3  1  1  0  0  0  0
  4  9  2  0  0  0  0
  4 11  1  0  0  0  0
  5  9  1  0  0  0  0
  6  7  1  0  0  0  0
  6  8  2  0  0  0  0
  8  3  1  0  0  0  0
  9  6  1  0  0  0  0
 10  8  1  0  0  0  0
 11 10  2  0  0  0  0
 13  1  1  1  0  0  0
 13 14  1  0  0  0  0
 13 12  1  0  0  0  0
 14 20  1  1  0  0  0
 14 12  1  0  0  0  0
 15 16  1  0  0  0  0
 16 18  2  0  0  0  0
 17 15  2  0  0  0  0
 17 20  1  0  0  0  0
 19 18  1  0  0  0  0
 20 19  2  0  0  0  0
 22 26  1  0  0  0  0
 23 21  1  0  0  0  0
 23 27  1  0  0  0  0
 24 23  2  0  0  0  0
 25 24  1  0  0  0  0
 25 22  2  0  0  0  0
 26 27  2  0  0  0  0
M  END
>  <MODEL>
2

>  <REMARK>
 VINA RESULT:      -7.5      1.172      2.026
  Name = 
  5 active torsions:
  status: ('A' for Active; 'I' for Inactive)
    1  A    between atoms: N_2  and  C_6
    2  A    between atoms: N_2  and  C_15
    3  A    between atoms: C_6  and  C_9
    4  A    between atoms: C_14  and  C_19
    5  A    between atoms: C_18  and  C_26
                            x       y       z     vdW  Elec       q    Type
                         _______ _______ _______ _____ _____    ______ ____

>  <TORSDO>
F 5

$$$$
=
 OpenBabel10262420103D

 27 30  0  0  1  0  0  0  0  0999 V2000
  189.4870  176.9850  143.3520 N   0  0  0  0  0  0  0  0  0  0  0  0
  187.9260  175.2530  143.2380 O   0  0  0  0  0  0  0  0  0  0  0  0
  188.1300  176.4890  143.3880 C   0  0  0  0  0  0  0  0  0  0  0  0
  184.8040  179.1030  143.9560 C   0  0  0  0  0  3  0  0  0  0  0  0
  184.7920  178.7240  146.4160 C   0  0  0  0  0  1  0  0  0  0  0  0
  186.4560  177.6090  144.9000 C   0  0  0  0  0  0  0  0  0  0  0  0
  186.9880  176.9800  145.9800 F   0  0  0  0  0  0  0  0  0  0  0  0
  186.9670  177.3830  143.6070 C   0  0  0  0  0  0  0  0  0  0  0  0
  185.3650  178.4720  145.0660 C   0  0  0  0  0  0  0  0  0  0  0  0
  186.3950  178.0230  142.5470 N   0  0  0  0  0  0  0  0  0  0  0  0
  185.3390  178.8650  142.6910 C   0  0  0  0  0  3  0  0  0  0  0  0
  191.1320  178.6790  142.8050 N   0  0  0  0  0  2  0  0  0  0  0  0
  189.7740  178.4270  143.3160 C   0  0  1  0  0  3  0  0  0  0  0  0
  189.9700  178.9870  141.9530 C   0  0  2  0  0  3  0  0  0  0  0  0
  188.6560  177.1060  138.9220 C   0  0  0  0  0  3  0  0  0  0  0  0
  189.7720  176.3550  138.5460 C   0  0  0  0  0  3  0  0  0  0  0  0
  188.7230  177.9480  140.0350 C   0  0  0  0  0  3  0  0  0  0  0  0
  190.9590  176.4520  139.2780 C   0  0  0  0  0  3  0  0  0  0  0  0
  191.0240  177.2920  140.3930 C   0  0  0  0  0  3  0  0  0  0  0  0
  189.8970  178.0260  140.7960 C   0  0  0  0  0  0  0  0  0  0  0  0
  190.5700  176.0650  143.6970 C   0  0  0  0  0  2  0  0  0  0  0  0
  191.6610  176.4010  147.8350 C   0  0  0  0  0  3  0  0  0  0  0  0
  190.9410  176.1820  145.1390 C   0  0  0  0  0  0  0  0  0  0  0  0
  192.0530  175.4870  145.6280 C   0  0  0  0  0  3  0  0  0  0  0  0
  192.4120  175.5960  146.9740 C   0  0  0  0  0  3  0  0  0  0  0  0
  190.5530  177.1000  147.3490 C   0  0  0  0  0  3  0  0  0  0  0  0
  190.1940  176.9910  146.0010 C   0  0  0  0  0  3  0  0  0  0  0  0
  1  3  1  0  0  0  0
  1 21  1  0  0  0  0
  2  3  2  0  0  0  0
  3  8  1  0  0  0  0
  4  9  1  0  0  0  0
  6  9  2  0  0  0  0
  6  7  1  0  0  0  0
  8  6  1  0  0  0  0
  9  5  1  0  0  0  0
 10 11  1  0  0  0  0
 10  8  2  0  0  0  0
 11  4  2  0  0  0  0
 12 13  1  0  0  0  0
 13  1  1  6  0  0  0
 14 20  1  6  0  0  0
 14 12  1  0  0  0  0
 14 13  1  0  0  0  0
 15 17  1  0  0  0  0
 16 15  2  0  0  0  0
 16 18  1  0  0  0  0
 17 20  2  0  0  0  0
 18 19  2  0  0  0  0
 19 20  1  0  0  0  0
 21 23  1  0  0  0  0
 23 24  2  0  0  0  0
 23 27  1  0  0  0  0
 24 25  1  0  0  0  0
 25 22  2  0  0  0  0
 26 22  1  0  0  0  0
 27 26  2  0  0  0  0
M  END
>  <MODEL>
3

>  <REMARK>
 VINA RESULT:      -7.2      1.734      5.569
  Name = 
  5 active torsions:
  status: ('A' for Active; 'I' for Inactive)
    1  A    between atoms: N_2  and  C_6
    2  A    between atoms: N_2  and  C_15
    3  A    between atoms: C_6  and  C_9
    4  A    between atoms: C_14  and  C_19
    5  A    between atoms: C_18  and  C_26
                            x       y       z     vdW  Elec       q    Type
                         _______ _______ _______ _____ _____    ______ ____

>  <TORSDO>
F 5

$$$$
=
 OpenBabel10262420103D

 27 30  0  0  1  0  0  0  0  0999 V2000
  183.3880  178.1530  139.7060 N   0  0  0  0  0  0  0  0  0  0  0  0
  184.4380  180.1680  139.1700 O   0  0  0  0  0  0  0  0  0  0  0  0
  184.4540  178.9100  139.0890 C   0  0  0  0  0  0  0  0  0  0  0  0
  187.6330  176.9800  136.9920 C   0  0  0  0  0  3  0  0  0  0  0  0
  189.2440  177.3880  138.8450 C   0  0  0  0  0  1  0  0  0  0  0  0
  186.8510  178.1480  138.9620 C   0  0  0  0  0  0  0  0  0  0  0  0
  187.1020  178.6780  140.1880 F   0  0  0  0  0  0  0  0  0  0  0  0
  185.5760  178.2550  138.3730 C   0  0  0  0  0  0  0  0  0  0  0  0
  187.8810  177.5080  138.2580 C   0  0  0  0  0  0  0  0  0  0  0  0
  185.3710  177.7210  137.1360 N   0  0  0  0  0  0  0  0  0  0  0  0
  186.3580  177.0960  136.4410 C   0  0  0  0  0  3  0  0  0  0  0  0
  181.8990  176.2480  139.8610 N   0  0  0  0  0  2  0  0  0  0  0  0
  183.2430  176.7080  139.4750 C   0  0  1  0  0  3  0  0  0  0  0  0
  182.2480  176.3430  138.4330 C   0  0  2  0  0  3  0  0  0  0  0  0
  181.2240  179.0000  135.9140 C   0  0  0  0  0  3  0  0  0  0  0  0
  180.0260  179.4660  136.4610 C   0  0  0  0  0  3  0  0  0  0  0  0
  181.9460  177.9960  136.5650 C   0  0  0  0  0  3  0  0  0  0  0  0
  179.5440  178.9210  137.6550 C   0  0  0  0  0  3  0  0  0  0  0  0
  180.2680  177.9200  138.3070 C   0  0  0  0  0  3  0  0  0  0  0  0
  181.4890  177.4690  137.7800 C   0  0  0  0  0  0  0  0  0  0  0  0
  182.6670  178.7590  140.8250 C   0  0  0  0  0  2  0  0  0  0  0  0
  184.9000  178.4600  144.4800 C   0  0  0  0  0  3  0  0  0  0  0  0
  183.4510  178.6580  142.0930 C   0  0  0  0  0  0  0  0  0  0  0  0
  182.8480  178.9950  143.3100 C   0  0  0  0  0  3  0  0  0  0  0  0
  183.5720  178.8960  144.5010 C   0  0  0  0  0  3  0  0  0  0  0  0
  185.5030  178.1190  143.2660 C   0  0  0  0  0  3  0  0  0  0  0  0
  184.7790  178.2170  142.0730 C   0  0  0  0  0  3  0  0  0  0  0  0
  1 21  1  0  0  0  0
  3  2  2  0  0  0  0
  3  1  1  0  0  0  0
  4  9  1  0  0  0  0
  6  7  1  0  0  0  0
  8  6  1  0  0  0  0
  8  3  1  0  0  0  0
  9  5  1  0  0  0  0
  9  6  2  0  0  0  0
 10  8  2  0  0  0  0
 11  4  2  0  0  0  0
 11 10  1  0  0  0  0
 13  1  1  6  0  0  0
 13 12  1  0  0  0  0
 14 20  1  6  0  0  0
 14 13  1  0  0  0  0
 14 12  1  0  0  0  0
 15 16  2  0  0  0  0
 15 17  1  0  0  0  0
 16 18  1  0  0  0  0
 17 20  2  0  0  0  0
 18 19  2  0  0  0  0
 20 19  1  0  0  0  0
 21 23  1  0  0  0  0
 22 25  1  0  0  0  0
 23 24  1  0  0  0  0
 24 25  2  0  0  0  0
 26 22  2  0  0  0  0
 27 23  2  0  0  0  0
 27 26  1  0  0  0  0
M  END
>  <MODEL>
4

>  <REMARK>
 VINA RESULT:      -6.7      4.959      8.389
  Name = 
  5 active torsions:
  status: ('A' for Active; 'I' for Inactive)
    1  A    between atoms: N_2  and  C_6
    2  A    between atoms: N_2  and  C_15
    3  A    between atoms: C_6  and  C_9
    4  A    between atoms: C_14  and  C_19
    5  A    between atoms: C_18  and  C_26
                            x       y       z     vdW  Elec       q    Type
                         _______ _______ _______ _____ _____    ______ ____

>  <TORSDO>
F 5

$$$$
=
 OpenBabel10262420103D

 27 30  0  0  1  0  0  0  0  0999 V2000
  183.0400  178.4480  138.9550 N   0  0  0  0  0  0  0  0  0  0  0  0
  184.1860  180.4820  138.9300 O   0  0  0  0  0  0  0  0  0  0  0  0
  184.0540  179.3450  139.4600 C   0  0  0  0  0  0  0  0  0  0  0  0
  186.6550  178.2530  142.6640 C   0  0  0  0  0  3  0  0  0  0  0  0
  184.7920  178.2580  144.3160 C   0  0  0  0  0  1  0  0  0  0  0  0
  184.4290  178.8020  141.8900 C   0  0  0  0  0  0  0  0  0  0  0  0
  183.1110  179.0030  142.1550 F   0  0  0  0  0  0  0  0  0  0  0  0
  184.9420  178.9780  140.5910 C   0  0  0  0  0  0  0  0  0  0  0  0
  185.2980  178.4410  142.9290 C   0  0  0  0  0  0  0  0  0  0  0  0
  186.2720  178.7800  140.3710 N   0  0  0  0  0  0  0  0  0  0  0  0
  187.1280  178.4270  141.3660 C   0  0  0  0  0  3  0  0  0  0  0  0
  182.1750  176.2420  138.4500 N   0  0  0  0  0  2  0  0  0  0  0  0
  182.9720  177.0450  139.3910 C   0  0  1  0  0  3  0  0  0  0  0  0
  183.6390  176.0800  138.4800 C   0  0  2  0  0  3  0  0  0  0  0  0
  186.2100  177.4650  136.0460 C   0  0  0  0  0  3  0  0  0  0  0  0
  185.4750  177.5290  134.8590 C   0  0  0  0  0  3  0  0  0  0  0  0
  185.6050  177.0060  137.2190 C   0  0  0  0  0  3  0  0  0  0  0  0
  184.1370  177.1250  134.8440 C   0  0  0  0  0  3  0  0  0  0  0  0
  183.5320  176.6700  136.0180 C   0  0  0  0  0  3  0  0  0  0  0  0
  184.2550  176.6320  137.2210 C   0  0  0  0  0  0  0  0  0  0  0  0
  181.8800  179.0270  138.2780 C   0  0  0  0  0  2  0  0  0  0  0  0
  179.1910  180.8830  141.0630 C   0  0  0  0  0  3  0  0  0  0  0  0
  180.9480  179.6690  139.2540 C   0  0  0  0  0  0  0  0  0  0  0  0
  180.5600  181.0010  139.0700 C   0  0  0  0  0  3  0  0  0  0  0  0
  179.6830  181.6070  139.9740 C   0  0  0  0  0  3  0  0  0  0  0  0
  179.5730  179.5510  141.2470 C   0  0  0  0  0  3  0  0  0  0  0  0
  180.4500  178.9440  140.3420 C   0  0  0  0  0  3  0  0  0  0  0  0
  1  3  1  0  0  0  0
  2  3  2  0  0  0  0
  3  8  1  0  0  0  0
  4  9  1  0  0  0  0
  6  7  1  0  0  0  0
  6  9  2  0  0  0  0
  8  6  1  0  0  0  0
  9  5  1  0  0  0  0
 10  8  2  0  0  0  0
 10 11  1  0  0  0  0
 11  4  2  0  0  0  0
 12 14  1  0  0  0  0
 12 13  1  0  0  0  0
 13  1  1  6  0  0  0
 14 20  1  6  0  0  0
 14 13  1  0  0  0  0
 15 17  1  0  0  0  0
 16 15  2  0  0  0  0
 17 20  2  0  0  0  0
 18 16  1  0  0  0  0
 18 19  2  0  0  0  0
 19 20  1  0  0  0  0
 21  1  1  0  0  0  0
 21 23  1  0  0  0  0
 22 26  1  0  0  0  0
 23 27  1  0  0  0  0
 24 23  2  0  0  0  0
 24 25  1  0  0  0  0
 25 22  2  0  0  0  0
 27 26  2  0  0  0  0
M  END
>  <MODEL>
5

>  <REMARK>
 VINA RESULT:      -6.7      5.324      8.701
  Name = 
  5 active torsions:
  status: ('A' for Active; 'I' for Inactive)
    1  A    between atoms: N_2  and  C_6
    2  A    between atoms: N_2  and  C_15
    3  A    between atoms: C_6  and  C_9
    4  A    between atoms: C_14  and  C_19
    5  A    between atoms: C_18  and  C_26
                            x       y       z     vdW  Elec       q    Type
                         _______ _______ _______ _____ _____    ______ ____

>  <TORSDO>
F 5

$$$$
=
 OpenBabel10262420103D

 27 30  0  0  1  0  0  0  0  0999 V2000
  189.3270  177.1030  143.5940 N   0  0  0  0  0  0  0  0  0  0  0  0
  187.7340  175.3960  143.5810 O   0  0  0  0  0  0  0  0  0  0  0  0
  187.9780  176.6170  143.7780 C   0  0  0  0  0  0  0  0  0  0  0  0
  184.7930  179.1470  145.0750 C   0  0  0  0  0  3  0  0  0  0  0  0
  183.7790  179.2110  142.8020 C   0  0  0  0  0  1  0  0  0  0  0  0
  185.8770  177.9190  143.2940 C   0  0  0  0  0  0  0  0  0  0  0  0
  185.9290  177.5460  141.9880 F   0  0  0  0  0  0  0  0  0  0  0  0
  186.8700  177.5070  144.2040 C   0  0  0  0  0  0  0  0  0  0  0  0
  184.8380  178.7470  143.7400 C   0  0  0  0  0  0  0  0  0  0  0  0
  186.7890  177.9130  145.5030 N   0  0  0  0  0  0  0  0  0  0  0  0
  185.7870  178.7150  145.9510 C   0  0  0  0  0  3  0  0  0  0  0  0
  190.9820  178.7960  143.0810 N   0  0  0  0  0  2  0  0  0  0  0  0
  189.6320  178.5410  143.6090 C   0  0  1  0  0  3  0  0  0  0  0  0
  189.8070  179.1530  142.2660 C   0  0  2  0  0  3  0  0  0  0  0  0
  188.4200  177.4340  139.1730 C   0  0  0  0  0  3  0  0  0  0  0  0
  189.5090  176.6620  138.7620 C   0  0  0  0  0  3  0  0  0  0  0  0
  188.5190  178.2300  140.3170 C   0  0  0  0  0  3  0  0  0  0  0  0
  190.7010  176.6920  139.4900 C   0  0  0  0  0  3  0  0  0  0  0  0
  190.7990  177.4850  140.6360 C   0  0  0  0  0  3  0  0  0  0  0  0
  189.6980  178.2400  141.0730 C   0  0  0  0  0  0  0  0  0  0  0  0
  190.4290  176.1520  143.7350 C   0  0  0  0  0  2  0  0  0  0  0  0
  191.9200  176.1100  147.7600 C   0  0  0  0  0  3  0  0  0  0  0  0
  190.9560  176.1370  145.1330 C   0  0  0  0  0  0  0  0  0  0  0  0
  190.3320  176.9100  146.1170 C   0  0  0  0  0  3  0  0  0  0  0  0
  190.8140  176.8970  147.4290 C   0  0  0  0  0  3  0  0  0  0  0  0
  192.5430  175.3330  146.7800 C   0  0  0  0  0  3  0  0  0  0  0  0
  192.0610  175.3460  145.4670 C   0  0  0  0  0  3  0  0  0  0  0  0
  1 21  1  0  0  0  0
  1  3  1  0  0  0  0
  2  3  2  0  0  0  0
  3  8  1  0  0  0  0
  4 11  1  0  0  0  0
  5  9  1  0  0  0  0
  6  9  1  0  0  0  0
  6  8  2  0  0  0  0
  7  6  1  0  0  0  0
  8 10  1  0  0  0  0
  9  4  2  0  0  0  0
 10 11  2  0  0  0  0
 12 13  1  0  0  0  0
 13  1  1  6  0  0  0
 14 20  1  6  0  0  0
 14 12  1  0  0  0  0
 14 13  1  0  0  0  0
 15 17  1  0  0  0  0
 16 15  2  0  0  0  0
 16 18  1  0  0  0  0
 17 20  2  0  0  0  0
 18 19  2  0  0  0  0
 19 20  1  0  0  0  0
 21 23  1  0  0  0  0
 23 27  2  0  0  0  0
 23 24  1  0  0  0  0
 24 25  2  0  0  0  0
 25 22  1  0  0  0  0
 26 22  2  0  0  0  0
 27 26  1  0  0  0  0
M  END
>  <MODEL>
6

>  <REMARK>
 VINA RESULT:      -6.3      1.611      5.608
  Name = 
  5 active torsions:
  status: ('A' for Active; 'I' for Inactive)
    1  A    between atoms: N_2  and  C_6
    2  A    between atoms: N_2  and  C_15
    3  A    between atoms: C_6  and  C_9
    4  A    between atoms: C_14  and  C_19
    5  A    between atoms: C_18  and  C_26
                            x       y       z     vdW  Elec       q    Type
                         _______ _______ _______ _____ _____    ______ ____

>  <TORSDO>
F 5

$$$$
=
 OpenBabel10262420103D

 27 30  0  0  1  0  0  0  0  0999 V2000
  189.2060  177.8400  142.8030 N   0  0  0  0  0  0  0  0  0  0  0  0
  190.4540  179.6450  143.6020 O   0  0  0  0  0  0  0  0  0  0  0  0
  189.9460  178.5160  143.8450 C   0  0  0  0  0  0  0  0  0  0  0  0
  190.4100  176.9000  147.7690 C   0  0  0  0  0  3  0  0  0  0  0  0
  192.4060  175.5710  147.0990 C   0  0  0  0  0  1  0  0  0  0  0  0
  191.1730  177.0420  145.4770 C   0  0  0  0  0  0  0  0  0  0  0  0
  192.0400  176.6590  144.5030 F   0  0  0  0  0  0  0  0  0  0  0  0
  190.1180  177.9330  145.1980 C   0  0  0  0  0  0  0  0  0  0  0  0
  191.3100  176.5240  146.7720 C   0  0  0  0  0  0  0  0  0  0  0  0
  189.2620  178.2810  146.2000 N   0  0  0  0  0  0  0  0  0  0  0  0
  189.3830  177.7900  147.4610 C   0  0  0  0  0  3  0  0  0  0  0  0
  188.3930  176.1650  144.3530 N   0  0  0  0  0  2  0  0  0  0  0  0
  188.7670  176.4450  142.9580 C   0  0  1  0  0  3  0  0  0  0  0  0
  187.3380  176.2820  143.3310 C   0  0  2  0  0  3  0  0  0  0  0  0
  185.0390  179.2350  142.6650 C   0  0  0  0  0  3  0  0  0  0  0  0
  184.9110  179.7920  143.9400 C   0  0  0  0  0  3  0  0  0  0  0  0
  185.8380  178.1050  142.4720 C   0  0  0  0  0  3  0  0  0  0  0  0
  185.5740  179.2120  145.0250 C   0  0  0  0  0  3  0  0  0  0  0  0
  186.3760  178.0840  144.8310 C   0  0  0  0  0  3  0  0  0  0  0  0
  186.5340  177.5380  143.5470 C   0  0  0  0  0  0  0  0  0  0  0  0
  188.6030  178.6510  141.7460 C   0  0  0  0  0  2  0  0  0  0  0  0
  189.4730  177.0690  137.8510 C   0  0  0  0  0  3  0  0  0  0  0  0
  188.9100  178.0940  140.3940 C   0  0  0  0  0  0  0  0  0  0  0  0
  187.9210  178.0900  139.4040 C   0  0  0  0  0  3  0  0  0  0  0  0
  188.2020  177.5770  138.1350 C   0  0  0  0  0  3  0  0  0  0  0  0
  190.4640  177.0760  138.8370 C   0  0  0  0  0  3  0  0  0  0  0  0
  190.1830  177.5890  140.1070 C   0  0  0  0  0  3  0  0  0  0  0  0
  1  3  1  0  0  0  0
  2  3  2  0  0  0  0
  3  8  1  0  0  0  0
  6  9  1  0  0  0  0
  7  6  1  0  0  0  0
  8  6  2  0  0  0  0
  8 10  1  0  0  0  0
  9  5  1  0  0  0  0
  9  4  2  0  0  0  0
 10 11  2  0  0  0  0
 11  4  1  0  0  0  0
 13  1  1  1  0  0  0
 13 14  1  0  0  0  0
 13 12  1  0  0  0  0
 14 20  1  1  0  0  0
 14 12  1  0  0  0  0
 15 16  1  0  0  0  0
 16 18  2  0  0  0  0
 17 15  2  0  0  0  0
 17 20  1  0  0  0  0
 19 18  1  0  0  0  0
 20 19  2  0  0  0  0
 21  1  1  0  0  0  0
 22 25  2  0  0  0  0
 22 26  1  0  0  0  0
 23 21  1  0  0  0  0
 24 23  2  0  0  0  0
 25 24  1  0  0  0  0
 26 27  2  0  0  0  0
 27 23  1  0  0  0  0
M  END
>  <MODEL>
7

>  <REMARK>
 VINA RESULT:      -6.2      1.747      6.444
  Name = 
  5 active torsions:
  status: ('A' for Active; 'I' for Inactive)
    1  A    between atoms: N_2  and  C_6
    2  A    between atoms: N_2  and  C_15
    3  A    between atoms: C_6  and  C_9
    4  A    between atoms: C_14  and  C_19
    5  A    between atoms: C_18  and  C_26
                            x       y       z     vdW  Elec       q    Type
                         _______ _______ _______ _____ _____    ______ ____

>  <TORSDO>
F 5

$$$$
=
 OpenBabel10262420103D

 27 30  0  0  1  0  0  0  0  0999 V2000
  188.8730  177.7700  143.7190 N   0  0  0  0  0  0  0  0  0  0  0  0
  189.7060  179.6950  142.6930 O   0  0  0  0  0  0  0  0  0  0  0  0
  189.3880  178.4810  142.5700 C   0  0  0  0  0  0  0  0  0  0  0  0
  189.9830  176.6050  138.7820 C   0  0  0  0  0  3  0  0  0  0  0  0
  187.7950  177.4170  137.9190 C   0  0  0  0  0  1  0  0  0  0  0  0
  188.5940  177.9450  140.2410 C   0  0  0  0  0  0  0  0  0  0  0  0
  187.4400  178.6280  140.4610 F   0  0  0  0  0  0  0  0  0  0  0  0
  189.5690  177.8270  141.2510 C   0  0  0  0  0  0  0  0  0  0  0  0
  188.8090  177.3230  139.0040 C   0  0  0  0  0  0  0  0  0  0  0  0
  190.7060  177.1210  140.9950 N   0  0  0  0  0  0  0  0  0  0  0  0
  190.9310  176.5140  139.8000 C   0  0  0  0  0  3  0  0  0  0  0  0
  187.5710  176.0450  144.8130 N   0  0  0  0  0  2  0  0  0  0  0  0
  188.2980  176.4230  143.5900 C   0  0  1  0  0  3  0  0  0  0  0  0
  186.8130  176.3780  143.5940 C   0  0  2  0  0  3  0  0  0  0  0  0
  184.8400  179.5280  142.7930 C   0  0  0  0  0  3  0  0  0  0  0  0
  184.5980  180.0450  144.0680 C   0  0  0  0  0  3  0  0  0  0  0  0
  185.5700  178.3450  142.6460 C   0  0  0  0  0  3  0  0  0  0  0  0
  185.0780  179.3750  145.1970 C   0  0  0  0  0  3  0  0  0  0  0  0
  185.8100  178.1950  145.0490 C   0  0  0  0  0  3  0  0  0  0  0  0
  186.0850  177.6850  143.7690 C   0  0  0  0  0  0  0  0  0  0  0  0
  189.2360  178.2530  145.0510 C   0  0  0  0  0  2  0  0  0  0  0  0
  192.0560  175.6290  146.9470 C   0  0  0  0  0  3  0  0  0  0  0  0
  190.2230  177.3420  145.7050 C   0  0  0  0  0  0  0  0  0  0  0  0
  190.1900  177.1650  147.0930 C   0  0  0  0  0  3  0  0  0  0  0  0
  191.1050  176.3100  147.7130 C   0  0  0  0  0  3  0  0  0  0  0  0
  192.0890  175.8010  145.5610 C   0  0  0  0  0  3  0  0  0  0  0  0
  191.1730  176.6560  144.9400 C   0  0  0  0  0  3  0  0  0  0  0  0
  1 21  1  0  0  0  0
  3  2  2  0  0  0  0
  3  1  1  0  0  0  0
  4  9  2  0  0  0  0
  4 11  1  0  0  0  0
  5  9  1  0  0  0  0
  6  7  1  0  0  0  0
  6  8  2  0  0  0  0
  8  3  1  0  0  0  0
  9  6  1  0  0  0  0
 10  8  1  0  0  0  0
 11 10  2  0  0  0  0
 13 14  1  0  0  0  0
 13  1  1  1  0  0  0
 13 12  1  0  0  0  0
 14 20  1  1  0  0  0
 14 12  1  0  0  0  0
 15 16  1  0  0  0  0
 16 18  2  0  0  0  0
 17 15  2  0  0  0  0
 17 20  1  0  0  0  0
 19 18  1  0  0  0  0
 20 19  2  0  0  0  0
 21 23  1  0  0  0  0
 22 25  1  0  0  0  0
 23 24  1  0  0  0  0
 24 25  2  0  0  0  0
 26 22  2  0  0  0  0
 27 26  1  0  0  0  0
 27 23  2  0  0  0  0
M  END
>  <MODEL>
8

>  <REMARK>
 VINA RESULT:      -6.0      1.815      5.252
  Name = 
  5 active torsions:
  status: ('A' for Active; 'I' for Inactive)
    1  A    between atoms: N_2  and  C_6
    2  A    between atoms: N_2  and  C_15
    3  A    between atoms: C_6  and  C_9
    4  A    between atoms: C_14  and  C_19
    5  A    between atoms: C_18  and  C_26
                            x       y       z     vdW  Elec       q    Type
                         _______ _______ _______ _____ _____    ______ ____

>  <TORSDO>
F 5

$$$$
=
 OpenBabel10262420103D

 27 30  0  0  1  0  0  0  0  0999 V2000
  184.1980  178.3240  139.4570 N   0  0  0  0  0  0  0  0  0  0  0  0
  185.6900  179.2800  137.9370 O   0  0  0  0  0  0  0  0  0  0  0  0
  185.0290  178.2610  138.2760 C   0  0  0  0  0  0  0  0  0  0  0  0
  185.2760  174.7120  135.9170 C   0  0  0  0  0  3  0  0  0  0  0  0
  187.6460  174.3180  136.5680 C   0  0  0  0  0  1  0  0  0  0  0  0
  186.3360  176.2860  137.4170 C   0  0  0  0  0  0  0  0  0  0  0  0
  187.4340  176.6950  138.1040 F   0  0  0  0  0  0  0  0  0  0  0  0
  185.1410  177.0320  137.4530 C   0  0  0  0  0  0  0  0  0  0  0  0
  186.3960  175.1230  136.6380 C   0  0  0  0  0  0  0  0  0  0  0  0
  184.0650  176.5950  136.7380 N   0  0  0  0  0  0  0  0  0  0  0  0
  184.1070  175.4680  135.9800 C   0  0  0  0  0  3  0  0  0  0  0  0
  182.2480  177.7080  140.7570 N   0  0  0  0  0  2  0  0  0  0  0  0
  183.2540  177.2460  139.7870 C   0  0  1  0  0  3  0  0  0  0  0  0
  181.8540  177.4920  139.3540 C   0  0  2  0  0  3  0  0  0  0  0  0
  181.1410  180.0620  136.6450 C   0  0  0  0  0  3  0  0  0  0  0  0
  180.8780  181.2080  137.4000 C   0  0  0  0  0  3  0  0  0  0  0  0
  181.4690  178.8640  137.2840 C   0  0  0  0  0  3  0  0  0  0  0  0
  180.9350  181.1530  138.7950 C   0  0  0  0  0  3  0  0  0  0  0  0
  181.2670  179.9560  139.4340 C   0  0  0  0  0  3  0  0  0  0  0  0
  181.5620  178.8080  138.6810 C   0  0  0  0  0  0  0  0  0  0  0  0
  184.5450  179.2930  140.4960 C   0  0  0  0  0  2  0  0  0  0  0  0
  187.3900  177.6460  143.2570 C   0  0  0  0  0  3  0  0  0  0  0  0
  185.5410  178.7250  141.4540 C   0  0  0  0  0  0  0  0  0  0  0  0
  185.1250  178.3190  142.7270 C   0  0  0  0  0  3  0  0  0  0  0  0
  186.0490  177.7810  143.6280 C   0  0  0  0  0  3  0  0  0  0  0  0
  187.8070  178.0470  141.9850 C   0  0  0  0  0  3  0  0  0  0  0  0
  186.8830  178.5850  141.0840 C   0  0  0  0  0  3  0  0  0  0  0  0
  1 21  1  0  0  0  0
  2  3  2  0  0  0  0
  3  1  1  0  0  0  0
  4 11  2  0  0  0  0
  4  9  1  0  0  0  0
  5  9  1  0  0  0  0
  6  8  1  0  0  0  0
  6  7  1  0  0  0  0
  8  3  1  0  0  0  0
  9  6  2  0  0  0  0
 10  8  2  0  0  0  0
 11 10  1  0  0  0  0
 13  1  1  6  0  0  0
 13 12  1  0  0  0  0
 14 20  1  6  0  0  0
 14 13  1  0  0  0  0
 14 12  1  0  0  0  0
 15 17  2  0  0  0  0
 15 16  1  0  0  0  0
 16 18  2  0  0  0  0
 17 20  1  0  0  0  0
 18 19  1  0  0  0  0
 20 19  2  0  0  0  0
 21 23  1  0  0  0  0
 22 25  1  0  0  0  0
 23 24  1  0  0  0  0
 24 25  2  0  0  0  0
 26 22  2  0  0  0  0
 27 23  2  0  0  0  0
 27 26  1  0  0  0  0
M  END
>  <MODEL>
9

>  <REMARK>
 VINA RESULT:      -5.9      5.087      8.412
  Name = 
  5 active torsions:
  status: ('A' for Active; 'I' for Inactive)
    1  A    between atoms: N_2  and  C_6
    2  A    between atoms: N_2  and  C_15
    3  A    between atoms: C_6  and  C_9
    4  A    between atoms: C_14  and  C_19
    5  A    between atoms: C_18  and  C_26
                            x       y       z     vdW  Elec       q    Type
                         _______ _______ _______ _____ _____    ______ ____

>  <TORSDO>
F 5

$$$$
