=
 OpenBabel10262422263D

 43 49  0  0  1  0  0  0  0  0999 V2000
  182.3040  178.6660  140.1220 C   0  0  1  0  0  3  0  0  0  0  0  0
  185.0010  178.6820  146.1350 C   0  0  0  0  0  0  0  0  0  0  0  0
  182.6810  178.7020  141.5850 C   0  0  0  0  0  0  0  0  0  0  0  0
  183.3460  178.8550  144.3110 C   0  0  0  0  0  0  0  0  0  0  0  0
  186.0310  178.5190  145.1620 N   0  0  0  0  0  2  0  0  0  0  0  0
  185.2680  178.6070  147.3620 O   0  0  0  0  0  0  0  0  0  0  0  0
  184.3730  178.7780  143.3450 C   0  0  0  0  0  0  0  0  0  0  0  0
  183.6590  178.8830  145.7040 N   0  0  0  0  0  2  0  0  0  0  0  0
  185.8210  178.8920  143.7660 C   0  0  0  0  0  2  0  0  0  0  0  0
  185.1160  178.6250  140.9410 C   0  0  0  0  0  1  0  0  0  0  0  0
  184.0360  178.7060  141.9770 C   0  0  0  0  0  0  0  0  0  0  0  0
  181.6800  178.7880  142.5640 C   0  0  0  0  0  3  0  0  0  0  0  0
  182.0110  178.8600  143.9140 C   0  0  0  0  0  3  0  0  0  0  0  0
  183.2760  177.7190  138.0540 C   0  0  2  0  0  3  0  0  0  0  0  0
  182.7220  177.3750  139.4240 C   0  0  2  0  0  3  0  0  0  0  0  0
  181.8800  177.1470  138.1850 C   0  0  0  0  0  2  0  0  0  0  0  0
  184.1620  176.7150  137.6590 O   0  0  0  0  0  0  0  0  0  0  0  0
  185.2510  177.3980  137.1160 C   0  0  0  0  0  2  0  0  0  0  0  0
  186.3290  176.4070  136.7160 C   0  0  0  0  0  2  0  0  0  0  0  0
  187.5140  176.5160  137.6580 C   0  0  0  0  0  2  0  0  0  0  0  0
  187.4030  177.6800  138.4220 O   0  0  0  0  0  0  0  0  0  0  0  0
  188.7180  178.0520  138.7100 C   0  0  2  0  0  3  0  0  0  0  0  0
  188.6410  177.2400  141.0800 C   0  0  2  0  0  3  0  0  0  0  0  0
  189.3130  177.0810  139.7080 C   0  0  2  0  0  0  0  0  0  0  0  0
  188.8370  178.4430  140.1720 C   0  0  1  0  0  3  0  0  0  0  0  0
  189.5750  177.2810  142.2620 C   0  0  0  0  0  0  0  0  0  0  0  0
  191.2000  176.1630  143.8590 C   0  0  0  0  0  2  0  0  0  0  0  0
  190.6270  178.5590  144.1420 C   0  0  0  0  0  2  0  0  0  0  0  0
  190.7830  177.2250  144.8660 C   0  0  0  0  0  2  0  0  0  0  0  0
  189.7360  178.4380  142.9330 C   0  0  0  0  0  3  0  0  0  0  0  0
  190.0910  175.9750  142.8240 C   0  0  0  0  0  2  0  0  0  0  0  0
  190.8370  177.1300  139.6670 C   0  0  0  0  0  2  0  0  0  0  0  0
  192.1970  176.4100  138.0830 C   0  0  0  0  0  1  0  0  0  0  0  0
  191.3290  175.9640  139.0810 O   0  0  0  0  0  0  0  0  0  0  0  0
  180.8340  179.0190  139.8680 C   0  0  0  0  0  2  0  0  0  0  0  0
  180.6220  180.4650  139.4300 C   0  0  0  0  0  2  0  0  0  0  0  0
  180.6170  181.8640  136.4020 N   0  0  0  0  0  0  0  0  0  0  0  0
  181.2000  182.7550  137.1130 C   0  0  0  0  0  0  0  0  0  0  0  0
  181.4900  180.7840  138.3070 N   0  0  0  0  0  0  0  0  0  0  0  0
  180.7100  180.5840  137.0770 C   0  0  0  0  0  2  0  0  0  0  0  0
  181.7610  182.2200  138.3640 C   0  0  0  0  0  2  0  0  0  0  0  0
  181.2870  184.0970  136.7440 O   0  0  0  0  0  0  0  0  0  0  0  0
  180.7590  184.5750  135.5150 C   0  0  0  0  0  1  0  0  0  0  0  0
  1 35  1  1  0  0  0
  1  3  1  0  0  0  0
  2  6  2  0  0  0  0
  3 11  2  0  0  0  0
  3 12  1  0  0  0  0
  4  8  1  0  0  0  0
  5  2  1  0  0  0  0
  7  9  1  0  0  0  0
  7  4  2  0  0  0  0
  8  2  1  0  0  0  0
  9  5  1  0  0  0  0
 10 11  1  0  0  0  0
 11  7  1  0  0  0  0
 12 13  2  0  0  0  0
 13  4  1  0  0  0  0
 14 17  1  6  0  0  0
 14 16  1  0  0  0  0
 14 15  1  0  0  0  0
 15  1  1  1  0  0  0
 16 15  1  0  0  0  0
 18 17  1  0  0  0  0
 19 18  1  0  0  0  0
 19 20  1  0  0  0  0
 20 21  1  0  0  0  0
 22 21  1  1  0  0  0
 22 24  1  0  0  0  0
 22 25  1  0  0  0  0
 23 26  1  1  0  0  0
 24 32  1  6  0  0  0
 24 25  1  0  0  0  0
 24 23  1  0  0  0  0
 25 23  1  0  0  0  0
 26 31  1  0  0  0  0
 26 30  2  0  0  0  0
 27 29  1  0  0  0  0
 28 29  1  0  0  0  0
 30 28  1  0  0  0  0
 31 27  1  0  0  0  0
 33 34  1  0  0  0  0
 34 32  1  0  0  0  0
 36 35  1  0  0  0  0
 37 40  1  0  0  0  0
 37 38  2  0  0  0  0
 38 41  1  0  0  0  0
 39 41  1  0  0  0  0
 39 36  1  0  0  0  0
 40 39  1  0  0  0  0
 42 38  1  0  0  0  0
 43 42  1  0  0  0  0
M  END
>  <MODEL>
1

>  <REMARK>
 VINA RESULT:      -7.8      0.000      0.000
  Name = 
  15 active torsions:
  status: ('A' for Active; 'I' for Inactive)
    1  A    between atoms: C_1  and  C_34
    2  A    between atoms: C_1  and  C_35
    3  A    between atoms: C_2  and  C_7
    4  A    between atoms: C_2  and  O_12
    5  A    between atoms: O_3  and  C_4
    6  A    between atoms: O_3  and  C_17
    7  A    between atoms: C_6  and  O_12
    8  A    between atoms: C_7  and  C_17
    9  A    between atoms: C_8  and  C_34
   10  A    between atoms: C_10  and  C_22
   11  A    between atoms: C_10  and  O_42
   12  A    between atoms: C_11  and  C_14
   13  A    between atoms: C_13  and  C_34
   14  A    between atoms: C_19  and  O_25
   15  A    between atoms: N_28  and  C_35
                            x       y       z     vdW  Elec       q    Type
                         _______ _______ _______ _____ _____    ______ ____

>  <TORSDO>
F 15

$$$$
=
 OpenBabel10262422263D

 43 49  0  0  1  0  0  0  0  0999 V2000
  183.6990  178.8200  142.5470 C   0  0  1  0  0  3  0  0  0  0  0  0
  187.7160  177.6900  147.6480 C   0  0  0  0  0  0  0  0  0  0  0  0
  184.4240  178.6440  143.8620 C   0  0  0  0  0  0  0  0  0  0  0  0
  185.7610  178.4090  146.3220 C   0  0  0  0  0  0  0  0  0  0  0  0
  188.3950  177.3620  146.4390 N   0  0  0  0  0  2  0  0  0  0  0  0
  188.2510  177.4530  148.7630 O   0  0  0  0  0  0  0  0  0  0  0  0
  186.4610  178.1630  145.1210 C   0  0  0  0  0  0  0  0  0  0  0  0
  186.4060  178.2460  147.5860 N   0  0  0  0  0  2  0  0  0  0  0  0
  187.9470  177.8880  145.1520 C   0  0  0  0  0  2  0  0  0  0  0  0
  186.5190  178.0300  142.6050 C   0  0  0  0  0  1  0  0  0  0  0  0
  185.7880  178.2870  143.8870 C   0  0  0  0  0  0  0  0  0  0  0  0
  183.7540  178.8900  145.0690 C   0  0  0  0  0  3  0  0  0  0  0  0
  184.4170  178.7690  146.2880 C   0  0  0  0  0  3  0  0  0  0  0  0
  184.3720  179.0160  140.1750 C   0  0  2  0  0  3  0  0  0  0  0  0
  184.3770  178.1010  141.3850 C   0  0  2  0  0  3  0  0  0  0  0  0
  183.3900  177.8670  140.2590 C   0  0  0  0  0  2  0  0  0  0  0  0
  185.4340  178.6690  139.3390 O   0  0  0  0  0  0  0  0  0  0  0  0
  184.8290  178.1730  138.1840 C   0  0  0  0  0  2  0  0  0  0  0  0
  185.8930  177.7510  137.1880 C   0  0  0  0  0  2  0  0  0  0  0  0
  187.2650  178.1790  137.6760 C   0  0  0  0  0  2  0  0  0  0  0  0
  187.9170  177.0920  138.2620 O   0  0  0  0  0  0  0  0  0  0  0  0
  189.2180  177.5350  138.5040 C   0  0  2  0  0  3  0  0  0  0  0  0
  189.2200  176.8450  140.9130 C   0  0  2  0  0  3  0  0  0  0  0  0
  189.8740  176.6440  139.5380 C   0  0  2  0  0  0  0  0  0  0  0  0
  189.3460  178.0060  139.9410 C   0  0  1  0  0  3  0  0  0  0  0  0
  190.1720  176.9870  142.0730 C   0  0  0  0  0  0  0  0  0  0  0  0
  191.6370  175.9910  143.8900 C   0  0  0  0  0  2  0  0  0  0  0  0
  191.4460  178.4520  143.6560 C   0  0  0  0  0  2  0  0  0  0  0  0
  191.4090  177.2920  144.6460 C   0  0  0  0  0  2  0  0  0  0  0  0
  190.5230  178.2190  142.4880 C   0  0  0  0  0  3  0  0  0  0  0  0
  190.4920  175.7640  142.9030 C   0  0  0  0  0  2  0  0  0  0  0  0
  191.3930  176.7570  139.4640 C   0  0  0  0  0  2  0  0  0  0  0  0
  192.4700  175.6700  137.8700 C   0  0  0  0  0  1  0  0  0  0  0  0
  191.7910  176.8620  138.1310 O   0  0  0  0  0  0  0  0  0  0  0  0
  182.2020  178.5060  142.6370 C   0  0  0  0  0  2  0  0  0  0  0  0
  181.3110  179.6480  142.1590 C   0  0  0  0  0  2  0  0  0  0  0  0
  178.9920  178.1090  140.3190 N   0  0  0  0  0  0  0  0  0  0  0  0
  179.2650  177.2270  141.2080 C   0  0  0  0  0  0  0  0  0  0  0  0
  179.9150  179.2380  142.1710 N   0  0  0  0  0  0  0  0  0  0  0  0
  179.3920  179.4140  140.8080 C   0  0  0  0  0  2  0  0  0  0  0  0
  179.8890  177.7970  142.4120 C   0  0  0  0  0  2  0  0  0  0  0  0
  179.0050  175.8670  141.0450 O   0  0  0  0  0  0  0  0  0  0  0  0
  179.6840  175.0810  140.0770 C   0  0  0  0  0  1  0  0  0  0  0  0
  1 35  1  1  0  0  0
  1  3  1  0  0  0  0
  2  6  2  0  0  0  0
  3 11  2  0  0  0  0
  3 12  1  0  0  0  0
  4  8  1  0  0  0  0
  5  2  1  0  0  0  0
  7  9  1  0  0  0  0
  7  4  2  0  0  0  0
  8  2  1  0  0  0  0
  9  5  1  0  0  0  0
 10 11  1  0  0  0  0
 11  7  1  0  0  0  0
 12 13  2  0  0  0  0
 13  4  1  0  0  0  0
 14 17  1  6  0  0  0
 14 16  1  0  0  0  0
 14 15  1  0  0  0  0
 15  1  1  1  0  0  0
 16 15  1  0  0  0  0
 18 17  1  0  0  0  0
 19 20  1  0  0  0  0
 19 18  1  0  0  0  0
 20 21  1  0  0  0  0
 22 21  1  1  0  0  0
 22 24  1  0  0  0  0
 22 25  1  0  0  0  0
 23 26  1  1  0  0  0
 24 32  1  6  0  0  0
 24 25  1  0  0  0  0
 24 23  1  0  0  0  0
 25 23  1  0  0  0  0
 26 30  2  0  0  0  0
 26 31  1  0  0  0  0
 27 29  1  0  0  0  0
 28 29  1  0  0  0  0
 30 28  1  0  0  0  0
 31 27  1  0  0  0  0
 33 34  1  0  0  0  0
 34 32  1  0  0  0  0
 36 39  1  0  0  0  0
 36 35  1  0  0  0  0
 37 40  1  0  0  0  0
 37 38  2  0  0  0  0
 38 41  1  0  0  0  0
 39 41  1  0  0  0  0
 40 39  1  0  0  0  0
 42 38  1  0  0  0  0
 43 42  1  0  0  0  0
M  END
>  <MODEL>
2

>  <REMARK>
 VINA RESULT:      -7.2      2.659      3.562
  Name = 
  15 active torsions:
  status: ('A' for Active; 'I' for Inactive)
    1  A    between atoms: C_1  and  C_34
    2  A    between atoms: C_1  and  C_35
    3  A    between atoms: C_2  and  C_7
    4  A    between atoms: C_2  and  O_12
    5  A    between atoms: O_3  and  C_4
    6  A    between atoms: O_3  and  C_17
    7  A    between atoms: C_6  and  O_12
    8  A    between atoms: C_7  and  C_17
    9  A    between atoms: C_8  and  C_34
   10  A    between atoms: C_10  and  C_22
   11  A    between atoms: C_10  and  O_42
   12  A    between atoms: C_11  and  C_14
   13  A    between atoms: C_13  and  C_34
   14  A    between atoms: C_19  and  O_25
   15  A    between atoms: N_28  and  C_35
                            x       y       z     vdW  Elec       q    Type
                         _______ _______ _______ _____ _____    ______ ____

>  <TORSDO>
F 15

$$$$
=
 OpenBabel10262422263D

 43 49  0  0  1  0  0  0  0  0999 V2000
  181.5480  178.4600  141.4790 C   0  0  1  0  0  3  0  0  0  0  0  0
  185.9350  176.7830  136.8560 C   0  0  0  0  0  0  0  0  0  0  0  0
  182.6460  178.3140  140.4500 C   0  0  0  0  0  0  0  0  0  0  0  0
  184.6500  178.1130  138.4910 C   0  0  0  0  0  0  0  0  0  0  0  0
  185.0610  175.6810  137.0900 N   0  0  0  0  0  2  0  0  0  0  0  0
  186.9240  176.6570  136.0880 O   0  0  0  0  0  0  0  0  0  0  0  0
  183.7330  177.0540  138.6630 C   0  0  0  0  0  0  0  0  0  0  0  0
  185.7080  178.0130  137.5360 N   0  0  0  0  0  2  0  0  0  0  0  0
  183.7580  175.8700  137.7230 C   0  0  0  0  0  2  0  0  0  0  0  0
  181.7450  176.0430  139.8360 C   0  0  0  0  0  1  0  0  0  0  0  0
  182.7250  177.1600  139.6440 C   0  0  0  0  0  0  0  0  0  0  0  0
  183.5640  179.3560  140.2540 C   0  0  0  0  0  3  0  0  0  0  0  0
  184.5590  179.2540  139.2850 C   0  0  0  0  0  3  0  0  0  0  0  0
  182.8070  178.5840  143.6040 C   0  0  2  0  0  3  0  0  0  0  0  0
  181.9310  179.3670  142.6440 C   0  0  2  0  0  3  0  0  0  0  0  0
  181.3530  178.8370  143.9400 C   0  0  0  0  0  2  0  0  0  0  0  0
  183.6160  179.4760  144.3090 O   0  0  0  0  0  0  0  0  0  0  0  0
  184.8200  178.7940  144.4920 C   0  0  0  0  0  2  0  0  0  0  0  0
  185.0800  178.6010  145.9750 C   0  0  0  0  0  2  0  0  0  0  0  0
  186.4570  178.0010  146.1910 C   0  0  0  0  0  2  0  0  0  0  0  0
  186.6940  177.0110  145.2340 O   0  0  0  0  0  0  0  0  0  0  0  0
  188.0570  177.1020  144.9470 C   0  0  2  0  0  3  0  0  0  0  0  0
  187.7210  177.4120  142.4820 C   0  0  2  0  0  3  0  0  0  0  0  0
  188.2670  178.0380  143.7740 C   0  0  2  0  0  0  0  0  0  0  0  0
  188.3330  176.5390  143.5650 C   0  0  1  0  0  3  0  0  0  0  0  0
  188.6220  177.5140  141.2780 C   0  0  0  0  0  0  0  0  0  0  0  0
  189.2420  178.5340  139.0380 C   0  0  0  0  0  2  0  0  0  0  0  0
  190.6310  176.7250  140.0090 C   0  0  0  0  0  2  0  0  0  0  0  0
  189.9350  177.2110  138.7430 C   0  0  0  0  0  2  0  0  0  0  0  0
  189.6970  176.7080  141.1900 C   0  0  0  0  0  3  0  0  0  0  0  0
  188.1500  178.3180  140.0860 C   0  0  0  0  0  2  0  0  0  0  0  0
  189.7000  178.5570  143.7470 C   0  0  0  0  0  2  0  0  0  0  0  0
  191.7040  177.7980  144.2830 C   0  0  0  0  0  1  0  0  0  0  0  0
  190.4230  177.9960  144.8000 O   0  0  0  0  0  0  0  0  0  0  0  0
  180.1940  178.8330  140.8670 C   0  0  0  0  0  2  0  0  0  0  0  0
  179.9890  180.3370  140.7130 C   0  0  0  0  0  2  0  0  0  0  0  0
  181.4330  180.9760  137.7740 N   0  0  0  0  0  0  0  0  0  0  0  0
  180.9710  179.7940  137.6000 C   0  0  0  0  0  0  0  0  0  0  0  0
  179.6880  180.6660  139.3280 N   0  0  0  0  0  0  0  0  0  0  0  0
  180.7170  181.6080  138.8650 C   0  0  0  0  0  2  0  0  0  0  0  0
  179.8920  179.4520  138.5400 C   0  0  0  0  0  2  0  0  0  0  0  0
  181.4480  178.9190  136.6240 O   0  0  0  0  0  0  0  0  0  0  0  0
  180.7880  177.6990  136.3200 C   0  0  0  0  0  1  0  0  0  0  0  0
  1 35  1  6  0  0  0
  2  5  1  0  0  0  0
  2  8  1  0  0  0  0
  3  1  1  0  0  0  0
  4  7  2  0  0  0  0
  4 13  1  0  0  0  0
  5  9  1  0  0  0  0
  6  2  2  0  0  0  0
  7 11  1  0  0  0  0
  8  4  1  0  0  0  0
  9  7  1  0  0  0  0
 11 10  1  0  0  0  0
 11  3  2  0  0  0  0
 12  3  1  0  0  0  0
 13 12  2  0  0  0  0
 14 16  1  0  0  0  0
 14 17  1  1  0  0  0
 15  1  1  6  0  0  0
 15 14  1  0  0  0  0
 15 16  1  0  0  0  0
 17 18  1  0  0  0  0
 18 19  1  0  0  0  0
 19 20  1  0  0  0  0
 21 20  1  0  0  0  0
 22 21  1  6  0  0  0
 23 26  1  6  0  0  0
 23 25  1  0  0  0  0
 23 24  1  0  0  0  0
 24 32  1  6  0  0  0
 24 22  1  0  0  0  0
 25 24  1  0  0  0  0
 25 22  1  0  0  0  0
 27 31  1  0  0  0  0
 28 30  1  0  0  0  0
 29 27  1  0  0  0  0
 29 28  1  0  0  0  0
 30 26  2  0  0  0  0
 31 26  1  0  0  0  0
 32 34  1  0  0  0  0
 33 34  1  0  0  0  0
 36 35  1  0  0  0  0
 37 40  1  0  0  0  0
 38 37  2  0  0  0  0
 38 41  1  0  0  0  0
 39 36  1  0  0  0  0
 40 39  1  0  0  0  0
 41 39  1  0  0  0  0
 42 38  1  0  0  0  0
 43 42  1  0  0  0  0
M  END
>  <MODEL>
3

>  <REMARK>
 VINA RESULT:      -7.2      2.533      5.625
  Name = 
  15 active torsions:
  status: ('A' for Active; 'I' for Inactive)
    1  A    between atoms: C_1  and  C_34
    2  A    between atoms: C_1  and  C_35
    3  A    between atoms: C_2  and  C_7
    4  A    between atoms: C_2  and  O_12
    5  A    between atoms: O_3  and  C_4
    6  A    between atoms: O_3  and  C_17
    7  A    between atoms: C_6  and  O_12
    8  A    between atoms: C_7  and  C_17
    9  A    between atoms: C_8  and  C_34
   10  A    between atoms: C_10  and  C_22
   11  A    between atoms: C_10  and  O_42
   12  A    between atoms: C_11  and  C_14
   13  A    between atoms: C_13  and  C_34
   14  A    between atoms: C_19  and  O_25
   15  A    between atoms: N_28  and  C_35
                            x       y       z     vdW  Elec       q    Type
                         _______ _______ _______ _____ _____    ______ ____

>  <TORSDO>
F 15

$$$$
=
 OpenBabel10262422263D

 43 49  0  0  1  0  0  0  0  0999 V2000
  184.3510  178.6040  142.3080 C   0  0  1  0  0  3  0  0  0  0  0  0
  188.0450  177.8440  147.7120 C   0  0  0  0  0  0  0  0  0  0  0  0
  185.3480  178.2840  143.3970 C   0  0  0  0  0  0  0  0  0  0  0  0
  187.1830  177.5980  145.4120 C   0  0  0  0  0  0  0  0  0  0  0  0
  186.9250  178.6690  148.0260 N   0  0  0  0  0  2  0  0  0  0  0  0
  188.9490  177.6480  148.5660 O   0  0  0  0  0  0  0  0  0  0  0  0
  186.0320  178.3450  145.7410 C   0  0  0  0  0  0  0  0  0  0  0  0
  188.1550  177.2810  146.4090 N   0  0  0  0  0  2  0  0  0  0  0  0
  185.7310  178.6760  147.1860 C   0  0  0  0  0  2  0  0  0  0  0  0
  183.8840  179.4760  145.0650 C   0  0  0  0  0  1  0  0  0  0  0  0
  185.1100  178.6840  144.7290 C   0  0  0  0  0  0  0  0  0  0  0  0
  186.4960  177.5350  143.0980 C   0  0  0  0  0  3  0  0  0  0  0  0
  187.4060  177.1990  144.0960 C   0  0  0  0  0  3  0  0  0  0  0  0
  184.4150  179.2250  139.9150 C   0  0  2  0  0  3  0  0  0  0  0  0
  184.8110  178.1620  140.9220 C   0  0  2  0  0  3  0  0  0  0  0  0
  183.6180  177.9420  140.0140 C   0  0  0  0  0  2  0  0  0  0  0  0
  185.2810  179.1590  138.8220 O   0  0  0  0  0  0  0  0  0  0  0  0
  184.7160  178.2010  137.9800 C   0  0  0  0  0  2  0  0  0  0  0  0
  185.8060  177.5240  137.1690 C   0  0  0  0  0  2  0  0  0  0  0  0
  187.1610  178.1030  137.5300 C   0  0  0  0  0  2  0  0  0  0  0  0
  187.8540  177.2070  138.3480 O   0  0  0  0  0  0  0  0  0  0  0  0
  189.0450  177.8590  138.6740 C   0  0  2  0  0  3  0  0  0  0  0  0
  189.2400  176.7980  140.9370 C   0  0  2  0  0  3  0  0  0  0  0  0
  189.8900  176.9610  139.5540 C   0  0  2  0  0  0  0  0  0  0  0  0
  189.1080  178.1040  140.1710 C   0  0  1  0  0  3  0  0  0  0  0  0
  190.1700  176.9380  142.1150 C   0  0  0  0  0  0  0  0  0  0  0  0
  191.6510  175.9390  143.9170 C   0  0  0  0  0  2  0  0  0  0  0  0
  191.3600  178.3970  143.7670 C   0  0  0  0  0  2  0  0  0  0  0  0
  191.3590  177.2020  144.7150 C   0  0  0  0  0  2  0  0  0  0  0  0
  190.4630  178.1680  142.5780 C   0  0  0  0  0  3  0  0  0  0  0  0
  190.5300  175.7000  142.9060 C   0  0  0  0  0  2  0  0  0  0  0  0
  191.3530  177.3890  139.5170 C   0  0  0  0  0  2  0  0  0  0  0  0
  191.2070  175.5770  138.2620 C   0  0  0  0  0  1  0  0  0  0  0  0
  192.0250  176.6780  138.5220 O   0  0  0  0  0  0  0  0  0  0  0  0
  182.9300  178.1320  142.6320 C   0  0  0  0  0  2  0  0  0  0  0  0
  181.9510  179.2740  142.8830 C   0  0  0  0  0  2  0  0  0  0  0  0
  179.0260  180.6750  142.0990 N   0  0  0  0  0  0  0  0  0  0  0  0
  179.6180  180.6250  140.9640 C   0  0  0  0  0  0  0  0  0  0  0  0
  180.6760  178.9970  142.2380 N   0  0  0  0  0  0  0  0  0  0  0  0
  179.6360  179.7100  142.9940 C   0  0  0  0  0  2  0  0  0  0  0  0
  180.7070  179.6370  140.9250 C   0  0  0  0  0  2  0  0  0  0  0  0
  179.2700  181.4320  139.8810 O   0  0  0  0  0  0  0  0  0  0  0  0
  180.1860  181.7260  138.8370 C   0  0  0  0  0  1  0  0  0  0  0  0
  1 35  1  1  0  0  0
  1  3  1  0  0  0  0
  2  5  1  0  0  0  0
  2  6  2  0  0  0  0
  3 11  1  0  0  0  0
  4  7  1  0  0  0  0
  4  8  1  0  0  0  0
  7  9  1  0  0  0  0
  8  2  1  0  0  0  0
  9  5  1  0  0  0  0
 11 10  1  0  0  0  0
 11  7  2  0  0  0  0
 12  3  2  0  0  0  0
 12 13  1  0  0  0  0
 13  4  2  0  0  0  0
 14 17  1  6  0  0  0
 14 16  1  0  0  0  0
 14 15  1  0  0  0  0
 15  1  1  1  0  0  0
 16 15  1  0  0  0  0
 18 17  1  0  0  0  0
 19 20  1  0  0  0  0
 19 18  1  0  0  0  0
 20 21  1  0  0  0  0
 22 21  1  1  0  0  0
 22 24  1  0  0  0  0
 22 25  1  0  0  0  0
 23 26  1  1  0  0  0
 24 32  1  6  0  0  0
 24 25  1  0  0  0  0
 24 23  1  0  0  0  0
 25 23  1  0  0  0  0
 26 30  2  0  0  0  0
 26 31  1  0  0  0  0
 27 29  1  0  0  0  0
 28 29  1  0  0  0  0
 30 28  1  0  0  0  0
 31 27  1  0  0  0  0
 33 34  1  0  0  0  0
 34 32  1  0  0  0  0
 35 36  1  0  0  0  0
 37 40  1  0  0  0  0
 38 37  2  0  0  0  0
 39 36  1  0  0  0  0
 39 40  1  0  0  0  0
 41 38  1  0  0  0  0
 41 39  1  0  0  0  0
 42 38  1  0  0  0  0
 43 42  1  0  0  0  0
M  END
>  <MODEL>
4

>  <REMARK>
 VINA RESULT:      -7.1      2.127      3.214
  Name = 
  15 active torsions:
  status: ('A' for Active; 'I' for Inactive)
    1  A    between atoms: C_1  and  C_34
    2  A    between atoms: C_1  and  C_35
    3  A    between atoms: C_2  and  C_7
    4  A    between atoms: C_2  and  O_12
    5  A    between atoms: O_3  and  C_4
    6  A    between atoms: O_3  and  C_17
    7  A    between atoms: C_6  and  O_12
    8  A    between atoms: C_7  and  C_17
    9  A    between atoms: C_8  and  C_34
   10  A    between atoms: C_10  and  C_22
   11  A    between atoms: C_10  and  O_42
   12  A    between atoms: C_11  and  C_14
   13  A    between atoms: C_13  and  C_34
   14  A    between atoms: C_19  and  O_25
   15  A    between atoms: N_28  and  C_35
                            x       y       z     vdW  Elec       q    Type
                         _______ _______ _______ _____ _____    ______ ____

>  <TORSDO>
F 15

$$$$
=
 OpenBabel10262422263D

 43 49  0  0  1  0  0  0  0  0999 V2000
  189.6120  177.0460  140.1980 C   0  0  1  0  0  3  0  0  0  0  0  0
  189.6140  177.4300  146.7770 C   0  0  0  0  0  0  0  0  0  0  0  0
  189.8600  177.0650  141.6890 C   0  0  0  0  0  0  0  0  0  0  0  0
  190.3440  177.0110  144.4570 C   0  0  0  0  0  0  0  0  0  0  0  0
  188.3110  177.7470  146.2920 N   0  0  0  0  0  2  0  0  0  0  0  0
  189.8810  177.5440  148.0020 O   0  0  0  0  0  0  0  0  0  0  0  0
  189.0360  177.2440  143.9810 C   0  0  0  0  0  0  0  0  0  0  0  0
  190.6240  177.0300  145.8570 N   0  0  0  0  0  2  0  0  0  0  0  0
  187.8830  177.3480  144.9540 C   0  0  0  0  0  2  0  0  0  0  0  0
  187.4100  177.5090  142.0730 C   0  0  0  0  0  1  0  0  0  0  0  0
  188.7950  177.2650  142.5910 C   0  0  0  0  0  0  0  0  0  0  0  0
  191.1500  176.8290  142.1870 C   0  0  0  0  0  3  0  0  0  0  0  0
  191.3890  176.8060  143.5590 C   0  0  0  0  0  3  0  0  0  0  0  0
  188.0700  177.8740  138.4510 C   0  0  2  0  0  3  0  0  0  0  0  0
  188.8380  178.2630  139.7000 C   0  0  2  0  0  3  0  0  0  0  0  0
  189.3410  178.6890  138.3370 C   0  0  0  0  0  2  0  0  0  0  0  0
  186.9610  178.7120  138.3230 O   0  0  0  0  0  0  0  0  0  0  0  0
  186.4230  178.3980  137.0740 C   0  0  0  0  0  2  0  0  0  0  0  0
  185.6780  177.0780  137.1530 C   0  0  0  0  0  2  0  0  0  0  0  0
  184.1850  177.3120  137.0230 C   0  0  0  0  0  2  0  0  0  0  0  0
  183.5080  176.5950  138.0120 O   0  0  0  0  0  0  0  0  0  0  0  0
  182.5930  177.4990  138.5550 C   0  0  2  0  0  3  0  0  0  0  0  0
  183.7910  177.7010  140.7480 C   0  0  2  0  0  3  0  0  0  0  0  0
  183.3120  178.4470  139.4930 C   0  0  2  0  0  0  0  0  0  0  0  0
  182.4980  177.2990  140.0570 C   0  0  1  0  0  3  0  0  0  0  0  0
  183.5250  178.3950  142.0590 C   0  0  0  0  0  0  0  0  0  0  0  0
  184.2880  179.7890  144.0380 C   0  0  0  0  0  2  0  0  0  0  0  0
  181.9500  178.9740  143.9180 C   0  0  0  0  0  2  0  0  0  0  0  0
  183.1740  179.1060  144.8190 C   0  0  0  0  0  2  0  0  0  0  0  0
  182.2930  178.3340  142.5980 C   0  0  0  0  0  3  0  0  0  0  0  0
  184.7020  178.9080  142.8590 C   0  0  0  0  0  2  0  0  0  0  0  0
  182.4990  179.7190  139.7040 C   0  0  0  0  0  2  0  0  0  0  0  0
  181.4610  180.8340  138.1040 C   0  0  0  0  0  1  0  0  0  0  0  0
  182.7260  180.6020  138.6480 O   0  0  0  0  0  0  0  0  0  0  0  0
  190.8800  176.7830  139.3790 C   0  0  0  0  0  2  0  0  0  0  0  0
  190.7430  175.6200  138.4010 C   0  0  0  0  0  2  0  0  0  0  0  0
  194.0680  175.7670  138.1630 N   0  0  0  0  0  0  0  0  0  0  0  0
  193.8270  174.5430  137.8720 C   0  0  0  0  0  0  0  0  0  0  0  0
  191.8300  175.6440  137.4330 N   0  0  0  0  0  0  0  0  0  0  0  0
  192.8640  176.5490  137.9540 C   0  0  0  0  0  2  0  0  0  0  0  0
  192.4400  174.3160  137.4360 C   0  0  0  0  0  2  0  0  0  0  0  0
  194.7800  173.5300  137.9670 O   0  0  0  0  0  0  0  0  0  0  0  0
  196.0100  173.7160  138.6530 C   0  0  0  0  0  1  0  0  0  0  0  0
  1 35  1  6  0  0  0
  1  3  1  0  0  0  0
  2  6  2  0  0  0  0
  3 12  2  0  0  0  0
  3 11  1  0  0  0  0
  4  8  1  0  0  0  0
  5  2  1  0  0  0  0
  7  4  1  0  0  0  0
  7  9  1  0  0  0  0
  8  2  1  0  0  0  0
  9  5  1  0  0  0  0
 10 11  1  0  0  0  0
 11  7  2  0  0  0  0
 12 13  1  0  0  0  0
 13  4  2  0  0  0  0
 14 17  1  1  0  0  0
 14 15  1  0  0  0  0
 15  1  1  6  0  0  0
 16 14  1  0  0  0  0
 16 15  1  0  0  0  0
 18 19  1  0  0  0  0
 18 17  1  0  0  0  0
 20 19  1  0  0  0  0
 20 21  1  0  0  0  0
 22 21  1  6  0  0  0
 22 24  1  0  0  0  0
 22 25  1  0  0  0  0
 23 26  1  1  0  0  0
 24 32  1  1  0  0  0
 24 25  1  0  0  0  0
 24 23  1  0  0  0  0
 25 23  1  0  0  0  0
 26 30  2  0  0  0  0
 26 31  1  0  0  0  0
 27 29  1  0  0  0  0
 28 29  1  0  0  0  0
 30 28  1  0  0  0  0
 31 27  1  0  0  0  0
 33 34  1  0  0  0  0
 34 32  1  0  0  0  0
 36 35  1  0  0  0  0
 38 42  1  0  0  0  0
 38 37  2  0  0  0  0
 39 41  1  0  0  0  0
 39 40  1  0  0  0  0
 39 36  1  0  0  0  0
 40 37  1  0  0  0  0
 41 38  1  0  0  0  0
 42 43  1  0  0  0  0
M  END
>  <MODEL>
5

>  <REMARK>
 VINA RESULT:      -7.1      3.216      8.725
  Name = 
  15 active torsions:
  status: ('A' for Active; 'I' for Inactive)
    1  A    between atoms: C_1  and  C_34
    2  A    between atoms: C_1  and  C_35
    3  A    between atoms: C_2  and  C_7
    4  A    between atoms: C_2  and  O_12
    5  A    between atoms: O_3  and  C_4
    6  A    between atoms: O_3  and  C_17
    7  A    between atoms: C_6  and  O_12
    8  A    between atoms: C_7  and  C_17
    9  A    between atoms: C_8  and  C_34
   10  A    between atoms: C_10  and  C_22
   11  A    between atoms: C_10  and  O_42
   12  A    between atoms: C_11  and  C_14
   13  A    between atoms: C_13  and  C_34
   14  A    between atoms: C_19  and  O_25
   15  A    between atoms: N_28  and  C_35
                            x       y       z     vdW  Elec       q    Type
                         _______ _______ _______ _____ _____    ______ ____

>  <TORSDO>
F 15

$$$$
=
 OpenBabel10262422263D

 43 49  0  0  1  0  0  0  0  0999 V2000
  189.5990  177.1710  140.2890 C   0  0  1  0  0  3  0  0  0  0  0  0
  189.5020  177.4910  146.8700 C   0  0  0  0  0  0  0  0  0  0  0  0
  189.8270  177.1860  141.7830 C   0  0  0  0  0  0  0  0  0  0  0  0
  190.2790  177.1250  144.5560 C   0  0  0  0  0  0  0  0  0  0  0  0
  188.1930  177.7580  146.3720 N   0  0  0  0  0  2  0  0  0  0  0  0
  189.7490  177.6030  148.0990 O   0  0  0  0  0  0  0  0  0  0  0  0
  188.9670  177.3070  144.0650 C   0  0  0  0  0  0  0  0  0  0  0  0
  190.5390  177.1410  145.9600 N   0  0  0  0  0  2  0  0  0  0  0  0
  187.7990  177.3540  145.0240 C   0  0  0  0  0  2  0  0  0  0  0  0
  187.3560  177.5240  142.1390 C   0  0  0  0  0  1  0  0  0  0  0  0
  188.7430  177.3320  142.6730 C   0  0  0  0  0  0  0  0  0  0  0  0
  191.1190  176.9990  142.2960 C   0  0  0  0  0  3  0  0  0  0  0  0
  191.3420  176.9720  143.6700 C   0  0  0  0  0  3  0  0  0  0  0  0
  187.8380  177.8290  138.6820 C   0  0  2  0  0  3  0  0  0  0  0  0
  188.7330  178.3280  139.8000 C   0  0  2  0  0  3  0  0  0  0  0  0
  189.0600  178.6620  138.3590 C   0  0  0  0  0  2  0  0  0  0  0  0
  186.6940  178.6270  138.6260 O   0  0  0  0  0  0  0  0  0  0  0  0
  186.0570  178.2510  137.4430 C   0  0  0  0  0  2  0  0  0  0  0  0
  186.1050  176.7410  137.2930 C   0  0  0  0  0  2  0  0  0  0  0  0
  184.7000  176.1860  137.1500 C   0  0  0  0  0  2  0  0  0  0  0  0
  183.7820  177.0790  137.7060 O   0  0  0  0  0  0  0  0  0  0  0  0
  183.1610  176.3690  138.7350 C   0  0  2  0  0  3  0  0  0  0  0  0
  182.0910  178.3930  139.7580 C   0  0  2  0  0  3  0  0  0  0  0  0
  181.8450  177.0320  139.0880 C   0  0  2  0  0  0  0  0  0  0  0  0
  183.0570  177.2390  139.9750 C   0  0  1  0  0  3  0  0  0  0  0  0
  181.2720  178.6690  140.9920 C   0  0  0  0  0  0  0  0  0  0  0  0
  179.0630  179.1800  142.1330 C   0  0  0  0  0  2  0  0  0  0  0  0
  181.1420  178.9990  143.4710 C   0  0  0  0  0  2  0  0  0  0  0  0
  179.8950  179.8410  143.2220 C   0  0  0  0  0  2  0  0  0  0  0  0
  181.8810  178.7020  142.1920 C   0  0  0  0  0  3  0  0  0  0  0  0
  179.8520  179.1640  140.8230 C   0  0  0  0  0  2  0  0  0  0  0  0
  180.9240  176.0550  139.8100 C   0  0  0  0  0  2  0  0  0  0  0  0
  179.5510  174.3730  139.4030 C   0  0  0  0  0  1  0  0  0  0  0  0
  180.8050  174.8830  139.0620 O   0  0  0  0  0  0  0  0  0  0  0  0
  190.8940  177.0270  139.4820 C   0  0  0  0  0  2  0  0  0  0  0  0
  190.9170  175.7950  138.5830 C   0  0  0  0  0  2  0  0  0  0  0  0
  194.2160  175.6330  138.1090 N   0  0  0  0  0  0  0  0  0  0  0  0
  193.8080  174.5500  137.5600 C   0  0  0  0  0  0  0  0  0  0  0  0
  191.9440  175.9350  137.5610 N   0  0  0  0  0  0  0  0  0  0  0  0
  193.1110  176.5680  138.1920 C   0  0  0  0  0  2  0  0  0  0  0  0
  192.3820  174.5880  137.1990 C   0  0  0  0  0  2  0  0  0  0  0  0
  194.6290  173.4460  137.3340 O   0  0  0  0  0  0  0  0  0  0  0  0
  195.4590  172.9050  138.3510 C   0  0  0  0  0  1  0  0  0  0  0  0
  1 35  1  6  0  0  0
  1  3  1  0  0  0  0
  2  6  2  0  0  0  0
  3 12  2  0  0  0  0
  3 11  1  0  0  0  0
  4  8  1  0  0  0  0
  5  2  1  0  0  0  0
  7  4  1  0  0  0  0
  7  9  1  0  0  0  0
  8  2  1  0  0  0  0
  9  5  1  0  0  0  0
 10 11  1  0  0  0  0
 11  7  2  0  0  0  0
 12 13  1  0  0  0  0
 13  4  2  0  0  0  0
 14 17  1  1  0  0  0
 14 15  1  0  0  0  0
 15  1  1  6  0  0  0
 16 14  1  0  0  0  0
 16 15  1  0  0  0  0
 18 17  1  0  0  0  0
 19 18  1  0  0  0  0
 20 19  1  0  0  0  0
 20 21  1  0  0  0  0
 22 21  1  6  0  0  0
 22 24  1  0  0  0  0
 22 25  1  0  0  0  0
 23 25  1  0  0  0  0
 23 26  1  1  0  0  0
 24 23  1  0  0  0  0
 24 32  1  1  0  0  0
 24 25  1  0  0  0  0
 26 30  2  0  0  0  0
 27 29  1  0  0  0  0
 29 28  1  0  0  0  0
 30 28  1  0  0  0  0
 31 26  1  0  0  0  0
 31 27  1  0  0  0  0
 34 33  1  0  0  0  0
 34 32  1  0  0  0  0
 36 35  1  0  0  0  0
 37 40  1  0  0  0  0
 38 37  2  0  0  0  0
 39 40  1  0  0  0  0
 39 36  1  0  0  0  0
 41 38  1  0  0  0  0
 41 39  1  0  0  0  0
 42 38  1  0  0  0  0
 42 43  1  0  0  0  0
M  END
>  <MODEL>
6

>  <REMARK>
 VINA RESULT:      -6.6      3.731      9.215
  Name = 
  15 active torsions:
  status: ('A' for Active; 'I' for Inactive)
    1  A    between atoms: C_1  and  C_34
    2  A    between atoms: C_1  and  C_35
    3  A    between atoms: C_2  and  C_7
    4  A    between atoms: C_2  and  O_12
    5  A    between atoms: O_3  and  C_4
    6  A    between atoms: O_3  and  C_17
    7  A    between atoms: C_6  and  O_12
    8  A    between atoms: C_7  and  C_17
    9  A    between atoms: C_8  and  C_34
   10  A    between atoms: C_10  and  C_22
   11  A    between atoms: C_10  and  O_42
   12  A    between atoms: C_11  and  C_14
   13  A    between atoms: C_13  and  C_34
   14  A    between atoms: C_19  and  O_25
   15  A    between atoms: N_28  and  C_35
                            x       y       z     vdW  Elec       q    Type
                         _______ _______ _______ _____ _____    ______ ____

>  <TORSDO>
F 15

$$$$
=
 OpenBabel10262422263D

 43 49  0  0  1  0  0  0  0  0999 V2000
  189.0740  177.0400  140.7680 C   0  0  1  0  0  3  0  0  0  0  0  0
  184.2990  178.9140  144.9060 C   0  0  0  0  0  0  0  0  0  0  0  0
  187.9200  177.6430  141.5360 C   0  0  0  0  0  0  0  0  0  0  0  0
  185.8200  178.8480  142.9620 C   0  0  0  0  0  0  0  0  0  0  0  0
  185.0340  177.8430  145.4960 N   0  0  0  0  0  2  0  0  0  0  0  0
  183.2680  179.3640  145.4710 O   0  0  0  0  0  0  0  0  0  0  0  0
  186.5980  177.8450  143.5800 C   0  0  0  0  0  0  0  0  0  0  0  0
  184.7150  179.4380  143.6490 N   0  0  0  0  0  2  0  0  0  0  0  0
  186.3770  177.5030  145.0360 C   0  0  0  0  0  2  0  0  0  0  0  0
  188.4900  176.1810  143.5070 C   0  0  0  0  0  1  0  0  0  0  0  0
  187.6550  177.2460  142.8630 C   0  0  0  0  0  0  0  0  0  0  0  0
  187.1360  178.6470  140.9480 C   0  0  0  0  0  3  0  0  0  0  0  0
  186.0940  179.2410  141.6550 C   0  0  0  0  0  3  0  0  0  0  0  0
  188.6750  176.9810  138.3280 C   0  0  2  0  0  3  0  0  0  0  0  0
  189.3530  177.7490  139.4460 C   0  0  2  0  0  3  0  0  0  0  0  0
  190.1710  176.8600  138.5320 C   0  0  0  0  0  2  0  0  0  0  0  0
  188.4120  177.8550  137.2720 O   0  0  0  0  0  0  0  0  0  0  0  0
  187.4620  177.1940  136.4930 C   0  0  0  0  0  2  0  0  0  0  0  0
  186.4360  176.5280  137.3910 C   0  0  0  0  0  2  0  0  0  0  0  0
  185.0680  177.1440  137.1680 C   0  0  0  0  0  2  0  0  0  0  0  0
  184.6530  177.8020  138.3290 O   0  0  0  0  0  0  0  0  0  0  0  0
  183.5740  177.0530  138.8050 C   0  0  2  0  0  3  0  0  0  0  0  0
  182.5960  178.9360  140.1390 C   0  0  2  0  0  3  0  0  0  0  0  0
  182.3690  177.9540  138.9800 C   0  0  2  0  0  0  0  0  0  0  0  0
  183.1810  177.5340  140.1890 C   0  0  1  0  0  3  0  0  0  0  0  0
  181.4440  179.0910  141.0970 C   0  0  0  0  0  0  0  0  0  0  0  0
  179.0960  179.8800  141.6520 C   0  0  0  0  0  2  0  0  0  0  0  0
  180.4760  178.7660  143.3840 C   0  0  0  0  0  2  0  0  0  0  0  0
  179.5740  179.9610  143.0950 C   0  0  0  0  0  2  0  0  0  0  0  0
  181.5670  178.6260  142.3550 C   0  0  0  0  0  3  0  0  0  0  0  0
  180.2940  179.9940  140.7080 C   0  0  0  0  0  2  0  0  0  0  0  0
  181.0820  177.1360  139.0000 C   0  0  0  0  0  2  0  0  0  0  0  0
  180.3840  175.2020  139.8060 C   0  0  0  0  0  1  0  0  0  0  0  0
  181.3910  175.7760  139.0280 O   0  0  0  0  0  0  0  0  0  0  0  0
  190.3370  176.8630  141.6160 C   0  0  0  0  0  2  0  0  0  0  0  0
  190.9570  178.1820  142.0680 C   0  0  0  0  0  2  0  0  0  0  0  0
  191.5900  178.1360  145.3430 N   0  0  0  0  0  0  0  0  0  0  0  0
  191.5570  176.8880  145.0540 C   0  0  0  0  0  0  0  0  0  0  0  0
  192.0180  177.9370  143.0340 N   0  0  0  0  0  0  0  0  0  0  0  0
  191.8420  178.8950  144.1340 C   0  0  0  0  0  2  0  0  0  0  0  0
  191.7710  176.6220  143.6230 C   0  0  0  0  0  2  0  0  0  0  0  0
  191.3320  175.8870  145.9980 O   0  0  0  0  0  0  0  0  0  0  0  0
  192.0620  175.8230  147.2150 C   0  0  0  0  0  1  0  0  0  0  0  0
  1  3  1  0  0  0  0
  1 35  1  1  0  0  0
  2  6  2  0  0  0  0
  2  5  1  0  0  0  0
  3 11  1  0  0  0  0
  4  7  1  0  0  0  0
  4  8  1  0  0  0  0
  7  9  1  0  0  0  0
  8  2  1  0  0  0  0
  9  5  1  0  0  0  0
 11 10  1  0  0  0  0
 11  7  2  0  0  0  0
 12  3  2  0  0  0  0
 12 13  1  0  0  0  0
 13  4  2  0  0  0  0
 14 17  1  6  0  0  0
 14 16  1  0  0  0  0
 14 15  1  0  0  0  0
 15  1  1  1  0  0  0
 16 15  1  0  0  0  0
 18 17  1  0  0  0  0
 18 19  1  0  0  0  0
 20 19  1  0  0  0  0
 20 21  1  0  0  0  0
 22 21  1  6  0  0  0
 22 24  1  0  0  0  0
 22 25  1  0  0  0  0
 23 25  1  0  0  0  0
 23 26  1  1  0  0  0
 24 32  1  6  0  0  0
 24 23  1  0  0  0  0
 24 25  1  0  0  0  0
 26 30  2  0  0  0  0
 27 29  1  0  0  0  0
 29 28  1  0  0  0  0
 30 28  1  0  0  0  0
 31 26  1  0  0  0  0
 31 27  1  0  0  0  0
 32 34  1  0  0  0  0
 34 33  1  0  0  0  0
 35 36  1  0  0  0  0
 36 39  1  0  0  0  0
 38 37  2  0  0  0  0
 38 42  1  0  0  0  0
 39 41  1  0  0  0  0
 39 40  1  0  0  0  0
 40 37  1  0  0  0  0
 41 38  1  0  0  0  0
 42 43  1  0  0  0  0
M  END
>  <MODEL>
7

>  <REMARK>
 VINA RESULT:      -6.6      2.816      8.688
  Name = 
  15 active torsions:
  status: ('A' for Active; 'I' for Inactive)
    1  A    between atoms: C_1  and  C_34
    2  A    between atoms: C_1  and  C_35
    3  A    between atoms: C_2  and  C_7
    4  A    between atoms: C_2  and  O_12
    5  A    between atoms: O_3  and  C_4
    6  A    between atoms: O_3  and  C_17
    7  A    between atoms: C_6  and  O_12
    8  A    between atoms: C_7  and  C_17
    9  A    between atoms: C_8  and  C_34
   10  A    between atoms: C_10  and  C_22
   11  A    between atoms: C_10  and  O_42
   12  A    between atoms: C_11  and  C_14
   13  A    between atoms: C_13  and  C_34
   14  A    between atoms: C_19  and  O_25
   15  A    between atoms: N_28  and  C_35
                            x       y       z     vdW  Elec       q    Type
                         _______ _______ _______ _____ _____    ______ ____

>  <TORSDO>
F 15

$$$$
=
 OpenBabel10262422263D

 43 49  0  0  1  0  0  0  0  0999 V2000
  182.6750  177.5780  139.1030 C   0  0  1  0  0  3  0  0  0  0  0  0
  181.7510  171.6750  136.3200 C   0  0  0  0  0  0  0  0  0  0  0  0
  182.6870  176.2690  138.3470 C   0  0  0  0  0  0  0  0  0  0  0  0
  182.7130  173.8830  136.8610 C   0  0  0  0  0  0  0  0  0  0  0  0
  180.6480  171.9650  137.1760 N   0  0  0  0  0  2  0  0  0  0  0  0
  181.8450  170.5510  135.7630 O   0  0  0  0  0  0  0  0  0  0  0  0
  181.5840  174.2070  137.6440 C   0  0  0  0  0  0  0  0  0  0  0  0
  182.7700  172.6530  136.1380 N   0  0  0  0  0  2  0  0  0  0  0  0
  180.3510  173.3330  137.5920 C   0  0  0  0  0  2  0  0  0  0  0  0
  180.3780  175.7630  139.2180 C   0  0  0  0  0  1  0  0  0  0  0  0
  181.5720  175.4070  138.3840 C   0  0  0  0  0  0  0  0  0  0  0  0
  183.7940  175.9280  137.5560 C   0  0  0  0  0  3  0  0  0  0  0  0
  183.8080  174.7440  136.8230 C   0  0  0  0  0  3  0  0  0  0  0  0
  183.2180  178.6070  141.2850 C   0  0  2  0  0  3  0  0  0  0  0  0
  183.7030  177.6330  140.2280 C   0  0  2  0  0  3  0  0  0  0  0  0
  184.3120  179.0170  140.3220 C   0  0  0  0  0  2  0  0  0  0  0  0
  183.7790  178.2580  142.5150 O   0  0  0  0  0  0  0  0  0  0  0  0
  183.0250  178.9560  143.4590 C   0  0  0  0  0  2  0  0  0  0  0  0
  183.9490  179.7360  144.3770 C   0  0  0  0  0  2  0  0  0  0  0  0
  184.1940  178.9570  145.6560 C   0  0  0  0  0  2  0  0  0  0  0  0
  185.5040  179.1700  146.0930 O   0  0  0  0  0  0  0  0  0  0  0  0
  186.0170  177.8950  146.3380 C   0  0  2  0  0  3  0  0  0  0  0  0
  188.0880  178.2460  144.9700 C   0  0  2  0  0  3  0  0  0  0  0  0
  187.5310  177.9550  146.3720 C   0  0  2  0  0  0  0  0  0  0  0  0
  186.8230  177.4220  145.1420 C   0  0  1  0  0  3  0  0  0  0  0  0
  189.2530  177.3900  144.5420 C   0  0  0  0  0  0  0  0  0  0  0  0
  191.6770  176.6670  144.7350 C   0  0  0  0  0  2  0  0  0  0  0  0
  190.2010  175.6280  143.0360 C   0  0  0  0  0  2  0  0  0  0  0  0
  191.5680  176.2630  143.2720 C   0  0  0  0  0  2  0  0  0  0  0  0
  189.0840  176.5010  143.5450 C   0  0  0  0  0  3  0  0  0  0  0  0
  190.6340  177.7380  145.0510 C   0  0  0  0  0  2  0  0  0  0  0  0
  188.1030  176.7530  147.1150 C   0  0  0  0  0  2  0  0  0  0  0  0
  188.9680  178.2650  148.4730 C   0  0  0  0  0  1  0  0  0  0  0  0
  188.2550  177.0650  148.4660 O   0  0  0  0  0  0  0  0  0  0  0  0
  182.7420  178.8040  138.1870 C   0  0  0  0  0  2  0  0  0  0  0  0
  181.5040  178.9800  137.3130 C   0  0  0  0  0  2  0  0  0  0  0  0
  181.5190  182.2410  138.0150 N   0  0  0  0  0  0  0  0  0  0  0  0
  180.8080  182.1940  136.9500 C   0  0  0  0  0  0  0  0  0  0  0  0
  180.6670  180.0510  137.8320 N   0  0  0  0  0  0  0  0  0  0  0  0
  181.5270  180.9310  138.6370 C   0  0  0  0  0  2  0  0  0  0  0  0
  180.2430  180.8610  136.6920 C   0  0  0  0  0  2  0  0  0  0  0  0
  180.6000  183.2930  136.1170 O   0  0  0  0  0  0  0  0  0  0  0  0
  179.5010  183.3590  135.2190 C   0  0  0  0  0  1  0  0  0  0  0  0
  1 35  1  6  0  0  0
  2  5  1  0  0  0  0
  3 11  1  0  0  0  0
  3  1  1  0  0  0  0
  4  7  1  0  0  0  0
  5  9  1  0  0  0  0
  6  2  2  0  0  0  0
  7 11  2  0  0  0  0
  8  2  1  0  0  0  0
  8  4  1  0  0  0  0
  9  7  1  0  0  0  0
 11 10  1  0  0  0  0
 12  3  2  0  0  0  0
 13  4  2  0  0  0  0
 13 12  1  0  0  0  0
 14 17  1  1  0  0  0
 15  1  1  6  0  0  0
 15 16  1  0  0  0  0
 15 14  1  0  0  0  0
 16 14  1  0  0  0  0
 17 18  1  0  0  0  0
 18 19  1  0  0  0  0
 19 20  1  0  0  0  0
 20 21  1  0  0  0  0
 22 21  1  6  0  0  0
 22 24  1  0  0  0  0
 23 26  1  1  0  0  0
 23 25  1  0  0  0  0
 23 24  1  0  0  0  0
 24 32  1  1  0  0  0
 25 22  1  0  0  0  0
 25 24  1  0  0  0  0
 26 31  1  0  0  0  0
 27 31  1  0  0  0  0
 28 29  1  0  0  0  0
 28 30  1  0  0  0  0
 29 27  1  0  0  0  0
 30 26  2  0  0  0  0
 32 34  1  0  0  0  0
 34 33  1  0  0  0  0
 36 39  1  0  0  0  0
 36 35  1  0  0  0  0
 37 40  1  0  0  0  0
 38 37  2  0  0  0  0
 39 40  1  0  0  0  0
 41 38  1  0  0  0  0
 41 39  1  0  0  0  0
 42 38  1  0  0  0  0
 43 42  1  0  0  0  0
M  END
>  <MODEL>
8

>  <REMARK>
 VINA RESULT:      -6.6      3.287      6.644
  Name = 
  15 active torsions:
  status: ('A' for Active; 'I' for Inactive)
    1  A    between atoms: C_1  and  C_34
    2  A    between atoms: C_1  and  C_35
    3  A    between atoms: C_2  and  C_7
    4  A    between atoms: C_2  and  O_12
    5  A    between atoms: O_3  and  C_4
    6  A    between atoms: O_3  and  C_17
    7  A    between atoms: C_6  and  O_12
    8  A    between atoms: C_7  and  C_17
    9  A    between atoms: C_8  and  C_34
   10  A    between atoms: C_10  and  C_22
   11  A    between atoms: C_10  and  O_42
   12  A    between atoms: C_11  and  C_14
   13  A    between atoms: C_13  and  C_34
   14  A    between atoms: C_19  and  O_25
   15  A    between atoms: N_28  and  C_35
                            x       y       z     vdW  Elec       q    Type
                         _______ _______ _______ _____ _____    ______ ____

>  <TORSDO>
F 15

$$$$
=
 OpenBabel10262422263D

 43 49  0  0  1  0  0  0  0  0999 V2000
  186.1950  177.5780  137.7460 C   0  0  1  0  0  3  0  0  0  0  0  0
  192.6950  176.6480  138.3120 C   0  0  0  0  0  0  0  0  0  0  0  0
  187.6740  177.2920  137.6290 C   0  0  0  0  0  0  0  0  0  0  0  0
  190.4040  176.6710  137.3900 C   0  0  0  0  0  0  0  0  0  0  0  0
  192.1790  177.1040  139.5610 N   0  0  0  0  0  2  0  0  0  0  0  0
  193.9350  176.5060  138.1510 O   0  0  0  0  0  0  0  0  0  0  0  0
  189.8800  177.0420  138.6470 C   0  0  0  0  0  0  0  0  0  0  0  0
  191.7980  176.4010  137.2340 N   0  0  0  0  0  2  0  0  0  0  0  0
  190.7570  176.9950  139.8780 C   0  0  0  0  0  2  0  0  0  0  0  0
  187.9390  177.7420  140.0940 C   0  0  0  0  0  1  0  0  0  0  0  0
  188.5080  177.3480  138.7650 C   0  0  0  0  0  0  0  0  0  0  0  0
  188.2180  176.9130  136.3930 C   0  0  0  0  0  3  0  0  0  0  0  0
  189.5720  176.6090  136.2750 C   0  0  0  0  0  3  0  0  0  0  0  0
  184.8790  178.4690  139.6410 C   0  0  2  0  0  3  0  0  0  0  0  0
  185.8860  178.8280  138.5650 C   0  0  2  0  0  3  0  0  0  0  0  0
  184.4310  179.2190  138.4050 C   0  0  0  0  0  2  0  0  0  0  0  0
  185.0200  179.3590  140.7070 O   0  0  0  0  0  0  0  0  0  0  0  0
  184.8850  178.5690  141.8490 C   0  0  0  0  0  2  0  0  0  0  0  0
  184.1160  179.3310  142.9130 C   0  0  0  0  0  2  0  0  0  0  0  0
  184.1100  178.5510  144.2140 C   0  0  0  0  0  2  0  0  0  0  0  0
  185.0470  179.0980  145.0950 O   0  0  0  0  0  0  0  0  0  0  0  0
  185.6660  177.9990  145.6950 C   0  0  2  0  0  3  0  0  0  0  0  0
  187.8030  178.2450  144.4090 C   0  0  2  0  0  3  0  0  0  0  0  0
  187.1550  178.2510  145.8020 C   0  0  2  0  0  0  0  0  0  0  0  0
  186.6190  177.3420  144.7150 C   0  0  1  0  0  3  0  0  0  0  0  0
  189.0830  177.4590  144.2890 C   0  0  0  0  0  0  0  0  0  0  0  0
  191.5060  177.0350  144.9160 C   0  0  0  0  0  2  0  0  0  0  0  0
  190.3810  175.5870  143.2480 C   0  0  0  0  0  2  0  0  0  0  0  0
  191.6420  176.3920  143.5440 C   0  0  0  0  0  2  0  0  0  0  0  0
  189.1340  176.4080  143.4490 C   0  0  0  0  0  3  0  0  0  0  0  0
  190.3430  178.0280  144.9040 C   0  0  0  0  0  2  0  0  0  0  0  0
  187.7800  177.3560  146.8660 C   0  0  0  0  0  2  0  0  0  0  0  0
  189.0130  178.2500  148.4660 C   0  0  0  0  0  1  0  0  0  0  0  0
  187.6910  177.9750  148.1130 O   0  0  0  0  0  0  0  0  0  0  0  0
  185.4690  177.5670  136.3970 C   0  0  0  0  0  2  0  0  0  0  0  0
  184.6680  176.2940  136.1460 C   0  0  0  0  0  2  0  0  0  0  0  0
  182.8580  173.9020  137.6060 N   0  0  0  0  0  0  0  0  0  0  0  0
  183.9350  173.2800  137.2990 C   0  0  0  0  0  0  0  0  0  0  0  0
  184.5600  175.5150  137.3710 N   0  0  0  0  0  0  0  0  0  0  0  0
  183.1290  175.3260  137.6480 C   0  0  0  0  0  2  0  0  0  0  0  0
  185.0790  174.1800  137.0820 C   0  0  0  0  0  2  0  0  0  0  0  0
  184.0130  171.8930  137.1750 O   0  0  0  0  0  0  0  0  0  0  0  0
  184.0800  171.2530  135.9090 C   0  0  0  0  0  1  0  0  0  0  0  0
  1 35  1  6  0  0  0
  2  5  1  0  0  0  0
  3  1  1  0  0  0  0
  3 11  1  0  0  0  0
  4  7  1  0  0  0  0
  5  9  1  0  0  0  0
  6  2  2  0  0  0  0
  7 11  2  0  0  0  0
  7  9  1  0  0  0  0
  8  4  1  0  0  0  0
  8  2  1  0  0  0  0
 11 10  1  0  0  0  0
 12  3  2  0  0  0  0
 13 12  1  0  0  0  0
 13  4  2  0  0  0  0
 14 17  1  1  0  0  0
 15  1  1  6  0  0  0
 15 14  1  0  0  0  0
 16 15  1  0  0  0  0
 16 14  1  0  0  0  0
 17 18  1  0  0  0  0
 18 19  1  0  0  0  0
 19 20  1  0  0  0  0
 20 21  1  0  0  0  0
 22 21  1  6  0  0  0
 22 24  1  0  0  0  0
 23 26  1  1  0  0  0
 23 25  1  0  0  0  0
 23 24  1  0  0  0  0
 24 32  1  1  0  0  0
 25 22  1  0  0  0  0
 25 24  1  0  0  0  0
 26 31  1  0  0  0  0
 28 30  1  0  0  0  0
 28 29  1  0  0  0  0
 29 27  1  0  0  0  0
 30 26  2  0  0  0  0
 31 27  1  0  0  0  0
 32 34  1  0  0  0  0
 34 33  1  0  0  0  0
 36 35  1  0  0  0  0
 36 39  1  0  0  0  0
 37 40  1  0  0  0  0
 38 37  2  0  0  0  0
 39 40  1  0  0  0  0
 41 38  1  0  0  0  0
 41 39  1  0  0  0  0
 42 38  1  0  0  0  0
 43 42  1  0  0  0  0
M  END
>  <MODEL>
9

>  <REMARK>
 VINA RESULT:      -6.5      3.562      7.542
  Name = 
  15 active torsions:
  status: ('A' for Active; 'I' for Inactive)
    1  A    between atoms: C_1  and  C_34
    2  A    between atoms: C_1  and  C_35
    3  A    between atoms: C_2  and  C_7
    4  A    between atoms: C_2  and  O_12
    5  A    between atoms: O_3  and  C_4
    6  A    between atoms: O_3  and  C_17
    7  A    between atoms: C_6  and  O_12
    8  A    between atoms: C_7  and  C_17
    9  A    between atoms: C_8  and  C_34
   10  A    between atoms: C_10  and  C_22
   11  A    between atoms: C_10  and  O_42
   12  A    between atoms: C_11  and  C_14
   13  A    between atoms: C_13  and  C_34
   14  A    between atoms: C_19  and  O_25
   15  A    between atoms: N_28  and  C_35
                            x       y       z     vdW  Elec       q    Type
                         _______ _______ _______ _____ _____    ______ ____

>  <TORSDO>
F 15

$$$$
