=
 OpenBabel10262423303D

 34 39  0  0  0  0  0  0  0  0999 V2000
  187.7920  177.7580  142.6660 C   0  0  0  0  0  3  0  0  0  0  0  0
  184.8420  178.4610  144.9300 C   0  0  0  0  0  0  0  0  0  0  0  0
  185.5110  178.3440  146.2390 C   0  0  0  0  0  0  0  0  0  0  0  0
  189.7450  177.3580  143.9780 N   0  0  0  0  0  0  0  0  0  0  0  0
  187.0350  177.9520  143.8270 C   0  0  0  0  0  0  0  0  0  0  0  0
  189.0480  177.5390  145.1290 C   0  0  0  0  0  0  0  0  0  0  0  0
  188.9850  177.6100  147.5490 C   0  0  0  0  0  3  0  0  0  0  0  0
  189.6970  177.4250  146.3610 C   0  0  0  0  0  3  0  0  0  0  0  0
  189.1590  177.4590  142.7520 C   0  0  0  0  0  0  0  0  0  0  0  0
  186.9530  178.0270  146.2830 C   0  0  0  0  0  0  0  0  0  0  0  0
  187.6690  177.8420  145.0820 C   0  0  0  0  0  0  0  0  0  0  0  0
  187.6210  177.9090  147.5110 C   0  0  0  0  0  3  0  0  0  0  0  0
  183.4750  178.7610  144.8530 C   0  0  0  0  0  3  0  0  0  0  0  0
  182.8430  178.8680  143.6110 C   0  0  0  0  0  0  0  0  0  0  0  0
  183.5800  178.6850  142.4370 C   0  0  0  0  0  3  0  0  0  0  0  0
  184.8610  178.5140  147.3080 O   0  0  0  0  0  0  0  0  0  0  0  0
  184.9420  178.3860  142.5040 C   0  0  0  0  0  3  0  0  0  0  0  0
  185.5850  178.2700  143.7460 C   0  0  0  0  0  0  0  0  0  0  0  0
  192.1430  177.2530  140.3900 C   0  0  0  0  0  3  0  0  0  0  0  0
  189.3340  176.8570  140.3300 C   0  0  0  0  0  3  0  0  0  0  0  0
  190.8680  176.2600  137.2170 C   0  0  0  0  0  0  0  0  0  0  0  0
  191.9940  176.6090  137.9710 C   0  0  0  0  0  3  0  0  0  0  0  0
  191.4830  176.8640  139.2290 C   0  0  0  0  0  0  0  0  0  0  0  0
  189.7380  176.3020  137.9700 N   0  0  0  0  0  0  0  0  0  0  0  0
  190.1290  176.6730  139.1990 C   0  0  0  0  0  0  0  0  0  0  0  0
  188.3730  176.0100  137.5540 C   0  0  0  0  0  1  0  0  0  0  0  0
  189.9650  177.2520  141.5290 C   0  0  0  0  0  0  0  0  0  0  0  0
  191.3690  177.4480  141.5470 C   0  0  0  0  0  3  0  0  0  0  0  0
  190.9240  175.8990  135.7870 C   0  0  0  0  0  0  0  0  0  0  0  0
  190.5470  176.7120  134.9040 O   0  0  0  0  0  0  0  0  0  0  0  0
  191.4060  174.6180  135.3950 N   0  0  0  0  0  1  0  0  0  0  0  0
  181.3950  179.2050  143.5370 C   0  0  0  0  0  2  0  0  0  0  0  0
  180.9750  179.3960  142.0930 C   0  0  0  0  0  2  0  0  0  0  0  0
  180.1190  180.4920  142.0000 O   0  0  0  0  0  1  0  0  0  0  0  0
  1  9  2  0  0  0  0
  1  5  1  0  0  0  0
  2  3  1  0  0  0  0
  3 10  1  0  0  0  0
  3 16  2  0  0  0  0
  4  6  2  0  0  0  0
  5 11  2  0  0  0  0
  6  8  1  0  0  0  0
  8  7  2  0  0  0  0
  9  4  1  0  0  0  0
 10 12  2  0  0  0  0
 11  6  1  0  0  0  0
 11 10  1  0  0  0  0
 12  7  1  0  0  0  0
 13  2  1  0  0  0  0
 14 13  2  0  0  0  0
 15 17  2  0  0  0  0
 15 14  1  0  0  0  0
 17 18  1  0  0  0  0
 18  5  1  0  0  0  0
 18  2  2  0  0  0  0
 19 28  1  0  0  0  0
 20 27  1  0  0  0  0
 21 24  1  0  0  0  0
 21 22  2  0  0  0  0
 22 23  1  0  0  0  0
 23 19  2  0  0  0  0
 24 25  1  0  0  0  0
 25 23  1  0  0  0  0
 25 20  2  0  0  0  0
 26 24  1  0  0  0  0
 27 28  2  0  0  0  0
 27  9  1  0  0  0  0
 29 21  1  0  0  0  0
 30 29  2  0  0  0  0
 31 29  1  0  0  0  0
 32 14  1  0  0  0  0
 33 32  1  0  0  0  0
 34 33  1  0  0  0  0
M  END
>  <MODEL>
1

>  <REMARK>
 VINA RESULT:     -11.7      0.000      0.000
  Name = 
  4 active torsions:
  status: ('A' for Active; 'I' for Inactive)
    1  A    between atoms: C_3  and  C_13
    2  A    between atoms: C_3  and  C_25
    3  A    between atoms: C_7  and  C_11
    4  A    between atoms: C_18  and  C_30
                            x       y       z     vdW  Elec       q    Type
                         _______ _______ _______ _____ _____    ______ ____

>  <TORSDO>
F 4

$$$$
=
 OpenBabel10262423303D

 34 39  0  0  0  0  0  0  0  0999 V2000
  187.3040  177.7800  142.0770 C   0  0  0  0  0  3  0  0  0  0  0  0
  184.6230  178.5510  144.6350 C   0  0  0  0  0  0  0  0  0  0  0  0
  185.4200  178.4130  145.8680 C   0  0  0  0  0  0  0  0  0  0  0  0
  189.3710  177.3260  143.1800 N   0  0  0  0  0  0  0  0  0  0  0  0
  186.6760  177.9890  143.3110 C   0  0  0  0  0  0  0  0  0  0  0  0
  188.8020  177.5210  144.3970 C   0  0  0  0  0  0  0  0  0  0  0  0
  188.9900  177.5860  146.8100 C   0  0  0  0  0  3  0  0  0  0  0  0
  189.5710  177.3860  145.5550 C   0  0  0  0  0  3  0  0  0  0  0  0
  188.6640  177.4450  142.0210 C   0  0  0  0  0  0  0  0  0  0  0  0
  186.8500  178.0590  145.7620 C   0  0  0  0  0  0  0  0  0  0  0  0
  187.4330  177.8590  144.4930 C   0  0  0  0  0  0  0  0  0  0  0  0
  187.6380  177.9200  146.9140 C   0  0  0  0  0  3  0  0  0  0  0  0
  183.2630  178.8870  144.7000 C   0  0  0  0  0  3  0  0  0  0  0  0
  182.5100  179.0130  143.5290 C   0  0  0  0  0  0  0  0  0  0  0  0
  183.1160  178.8150  142.2850 C   0  0  0  0  0  3  0  0  0  0  0  0
  184.8890  178.5960  146.9970 O   0  0  0  0  0  0  0  0  0  0  0  0
  184.4700  178.4810  142.2110 C   0  0  0  0  0  3  0  0  0  0  0  0
  185.2350  178.3450  143.3800 C   0  0  0  0  0  0  0  0  0  0  0  0
  189.2070  176.9120  138.2870 C   0  0  0  0  0  3  0  0  0  0  0  0
  190.7390  177.1040  140.6670 C   0  0  0  0  0  3  0  0  0  0  0  0
  192.7180  176.5730  137.8030 C   0  0  0  0  0  0  0  0  0  0  0  0
  191.4500  176.5940  137.2120 C   0  0  0  0  0  3  0  0  0  0  0  0
  190.5940  176.8020  138.2760 C   0  0  0  0  0  0  0  0  0  0  0  0
  192.6390  176.7550  139.1470 N   0  0  0  0  0  0  0  0  0  0  0  0
  191.3330  176.8940  139.4230 C   0  0  0  0  0  0  0  0  0  0  0  0
  193.7300  176.7960  140.1120 C   0  0  0  0  0  1  0  0  0  0  0  0
  189.3340  177.2220  140.7220 C   0  0  0  0  0  0  0  0  0  0  0  0
  188.5780  177.1240  139.5260 C   0  0  0  0  0  3  0  0  0  0  0  0
  193.9690  176.3740  137.0450 C   0  0  0  0  0  0  0  0  0  0  0  0
  194.3880  177.2580  136.2530 O   0  0  0  0  0  0  0  0  0  0  0  0
  194.7150  175.1720  137.2040 N   0  0  0  0  0  1  0  0  0  0  0  0
  181.0710  179.3870  143.6060 C   0  0  0  0  0  2  0  0  0  0  0  0
  180.2100  178.2690  143.0530 C   0  0  0  0  0  2  0  0  0  0  0  0
  179.6780  177.5270  144.1070 O   0  0  0  0  0  1  0  0  0  0  0  0
  1  5  1  0  0  0  0
  2 13  1  0  0  0  0
  2  3  1  0  0  0  0
  3 16  2  0  0  0  0
  4  6  2  0  0  0  0
  5 18  1  0  0  0  0
  5 11  2  0  0  0  0
  6 11  1  0  0  0  0
  6  8  1  0  0  0  0
  7 12  1  0  0  0  0
  8  7  2  0  0  0  0
  9  1  2  0  0  0  0
  9  4  1  0  0  0  0
 10  3  1  0  0  0  0
 10 12  2  0  0  0  0
 11 10  1  0  0  0  0
 14 32  1  0  0  0  0
 14 13  2  0  0  0  0
 15 14  1  0  0  0  0
 17 15  2  0  0  0  0
 17 18  1  0  0  0  0
 18  2  2  0  0  0  0
 19 28  1  0  0  0  0
 20 27  1  0  0  0  0
 21 24  1  0  0  0  0
 22 21  2  0  0  0  0
 22 23  1  0  0  0  0
 23 19  2  0  0  0  0
 23 25  1  0  0  0  0
 24 25  1  0  0  0  0
 24 26  1  0  0  0  0
 25 20  2  0  0  0  0
 27  9  1  0  0  0  0
 28 27  2  0  0  0  0
 29 31  1  0  0  0  0
 29 21  1  0  0  0  0
 30 29  2  0  0  0  0
 33 32  1  0  0  0  0
 33 34  1  0  0  0  0
M  END
>  <MODEL>
2

>  <REMARK>
 VINA RESULT:     -11.3      1.520      2.085
  Name = 
  4 active torsions:
  status: ('A' for Active; 'I' for Inactive)
    1  A    between atoms: C_3  and  C_13
    2  A    between atoms: C_3  and  C_25
    3  A    between atoms: C_7  and  C_11
    4  A    between atoms: C_18  and  C_30
                            x       y       z     vdW  Elec       q    Type
                         _______ _______ _______ _____ _____    ______ ____

>  <TORSDO>
F 4

$$$$
=
 OpenBabel10262423303D

 34 39  0  0  0  0  0  0  0  0999 V2000
  186.8400  178.0410  143.3620 C   0  0  0  0  0  3  0  0  0  0  0  0
  190.5700  177.4330  143.5780 C   0  0  0  0  0  0  0  0  0  0  0  0
  190.7150  177.3490  145.0440 C   0  0  0  0  0  0  0  0  0  0  0  0
  185.8990  178.1010  145.5540 N   0  0  0  0  0  0  0  0  0  0  0  0
  188.1130  177.8150  143.9000 C   0  0  0  0  0  0  0  0  0  0  0  0
  187.1150  177.8830  146.1170 C   0  0  0  0  0  0  0  0  0  0  0  0
  188.4850  177.5800  148.0920 C   0  0  0  0  0  3  0  0  0  0  0  0
  187.2360  177.8060  147.5070 C   0  0  0  0  0  3  0  0  0  0  0  0
  185.7300  178.1840  144.2050 C   0  0  0  0  0  0  0  0  0  0  0  0
  189.5180  177.5060  145.8940 C   0  0  0  0  0  0  0  0  0  0  0  0
  188.2580  177.7330  145.3000 C   0  0  0  0  0  0  0  0  0  0  0  0
  189.6190  177.4320  147.2900 C   0  0  0  0  0  3  0  0  0  0  0  0
  191.6860  177.2880  142.7430 C   0  0  0  0  0  3  0  0  0  0  0  0
  191.5450  177.3710  141.3540 C   0  0  0  0  0  0  0  0  0  0  0  0
  190.2840  177.5910  140.7930 C   0  0  0  0  0  3  0  0  0  0  0  0
  191.8460  177.1450  145.5640 O   0  0  0  0  0  0  0  0  0  0  0  0
  189.1660  177.7360  141.6180 C   0  0  0  0  0  3  0  0  0  0  0  0
  189.2970  177.6600  143.0140 C   0  0  0  0  0  0  0  0  0  0  0  0
  182.0040  178.9490  143.9700 C   0  0  0  0  0  3  0  0  0  0  0  0
  184.1800  178.3590  142.2490 C   0  0  0  0  0  3  0  0  0  0  0  0
  181.1580  178.8610  140.5120 C   0  0  0  0  0  0  0  0  0  0  0  0
  180.7100  179.0550  141.8240 C   0  0  0  0  0  3  0  0  0  0  0  0
  181.8470  178.8760  142.5900 C   0  0  0  0  0  0  0  0  0  0  0  0
  182.4870  178.5790  140.4810 N   0  0  0  0  0  0  0  0  0  0  0  0
  182.8950  178.5910  141.7590 C   0  0  0  0  0  0  0  0  0  0  0  0
  183.3190  178.3140  139.3160 C   0  0  0  0  0  1  0  0  0  0  0  0
  184.3830  178.4240  143.6440 C   0  0  0  0  0  0  0  0  0  0  0  0
  183.2870  178.7190  144.4950 C   0  0  0  0  0  3  0  0  0  0  0  0
  180.2810  178.9530  139.3290 C   0  0  0  0  0  0  0  0  0  0  0  0
  179.6500  177.9460  138.9160 O   0  0  0  0  0  0  0  0  0  0  0  0
  180.1430  180.1920  138.6400 N   0  0  0  0  0  1  0  0  0  0  0  0
  192.7330  177.1980  140.4730 C   0  0  0  0  0  2  0  0  0  0  0  0
  192.2940  176.8260  139.0710 C   0  0  0  0  0  2  0  0  0  0  0  0
  193.3980  176.8310  138.2210 O   0  0  0  0  0  1  0  0  0  0  0  0
  1  5  2  0  0  0  0
  1  9  1  0  0  0  0
  2  3  1  0  0  0  0
  3 16  2  0  0  0  0
  3 10  1  0  0  0  0
  4  6  1  0  0  0  0
  5 11  1  0  0  0  0
  6  8  1  0  0  0  0
  8  7  2  0  0  0  0
  9  4  2  0  0  0  0
 10 12  2  0  0  0  0
 11 10  1  0  0  0  0
 11  6  2  0  0  0  0
 12  7  1  0  0  0  0
 13  2  2  0  0  0  0
 14 13  1  0  0  0  0
 15 14  2  0  0  0  0
 15 17  1  0  0  0  0
 17 18  2  0  0  0  0
 18  2  1  0  0  0  0
 18  5  1  0  0  0  0
 19 28  1  0  0  0  0
 20 27  1  0  0  0  0
 21 22  2  0  0  0  0
 22 23  1  0  0  0  0
 23 19  2  0  0  0  0
 24 21  1  0  0  0  0
 24 25  1  0  0  0  0
 25 20  2  0  0  0  0
 25 23  1  0  0  0  0
 26 24  1  0  0  0  0
 27  9  1  0  0  0  0
 27 28  2  0  0  0  0
 29 21  1  0  0  0  0
 30 29  2  0  0  0  0
 31 29  1  0  0  0  0
 32 14  1  0  0  0  0
 33 32  1  0  0  0  0
 34 33  1  0  0  0  0
M  END
>  <MODEL>
3

>  <REMARK>
 VINA RESULT:     -11.3      3.198      7.934
  Name = 
  4 active torsions:
  status: ('A' for Active; 'I' for Inactive)
    1  A    between atoms: C_3  and  C_13
    2  A    between atoms: C_3  and  C_25
    3  A    between atoms: C_7  and  C_11
    4  A    between atoms: C_18  and  C_30
                            x       y       z     vdW  Elec       q    Type
                         _______ _______ _______ _____ _____    ______ ____

>  <TORSDO>
F 4

$$$$
=
 OpenBabel10262423303D

 34 39  0  0  0  0  0  0  0  0999 V2000
  188.3830  177.3880  141.6510 C   0  0  0  0  0  3  0  0  0  0  0  0
  186.4550  178.0560  144.8400 C   0  0  0  0  0  0  0  0  0  0  0  0
  187.5300  177.8240  145.8230 C   0  0  0  0  0  0  0  0  0  0  0  0
  190.6420  176.8210  142.1720 N   0  0  0  0  0  0  0  0  0  0  0  0
  188.0910  177.5330  143.0130 C   0  0  0  0  0  0  0  0  0  0  0  0
  190.4020  176.9520  143.5020 C   0  0  0  0  0  0  0  0  0  0  0  0
  191.1900  176.8620  145.7900 C   0  0  0  0  0  3  0  0  0  0  0  0
  191.4300  176.7290  144.4200 C   0  0  0  0  0  3  0  0  0  0  0  0
  189.6720  177.0280  141.2370 C   0  0  0  0  0  0  0  0  0  0  0  0
  188.8750  177.4470  145.3420 C   0  0  0  0  0  0  0  0  0  0  0  0
  189.1140  177.3130  143.9570 C   0  0  0  0  0  0  0  0  0  0  0  0
  189.9190  177.2180  146.2480 C   0  0  0  0  0  3  0  0  0  0  0  0
  185.1690  178.4170  145.2630 C   0  0  0  0  0  3  0  0  0  0  0  0
  184.1520  178.6330  144.3280 C   0  0  0  0  0  0  0  0  0  0  0  0
  184.4200  178.5000  142.9630 C   0  0  0  0  0  3  0  0  0  0  0  0
  187.3050  177.9480  147.0580 O   0  0  0  0  0  0  0  0  0  0  0  0
  185.6990  178.1410  142.5320 C   0  0  0  0  0  3  0  0  0  0  0  0
  186.7270  177.9160  143.4620 C   0  0  0  0  0  0  0  0  0  0  0  0
  189.3130  177.0380  137.4420 C   0  0  0  0  0  3  0  0  0  0  0  0
  191.2610  176.4090  139.4070 C   0  0  0  0  0  3  0  0  0  0  0  0
  192.4160  175.8980  136.1190 C   0  0  0  0  0  0  0  0  0  0  0  0
  191.1200  176.3480  135.8460 C   0  0  0  0  0  3  0  0  0  0  0  0
  190.5800  176.5790  137.0970 C   0  0  0  0  0  0  0  0  0  0  0  0
  192.6510  175.8560  137.4570 N   0  0  0  0  0  0  0  0  0  0  0  0
  191.5200  176.2750  138.0430 C   0  0  0  0  0  0  0  0  0  0  0  0
  193.8710  175.4440  138.1400 C   0  0  0  0  0  1  0  0  0  0  0  0
  189.9870  176.8720  139.8000 C   0  0  0  0  0  0  0  0  0  0  0  0
  189.0220  177.1830  138.8100 C   0  0  0  0  0  3  0  0  0  0  0  0
  193.3870  175.5210  135.0740 C   0  0  0  0  0  0  0  0  0  0  0  0
  193.3990  174.3560  134.5980 O   0  0  0  0  0  0  0  0  0  0  0  0
  194.3240  176.4800  134.5940 N   0  0  0  0  0  1  0  0  0  0  0  0
  182.7930  179.0330  144.7850 C   0  0  0  0  0  2  0  0  0  0  0  0
  181.8130  178.9710  143.6300 C   0  0  0  0  0  2  0  0  0  0  0  0
  180.5900  178.4790  144.0830 O   0  0  0  0  0  1  0  0  0  0  0  0
  1  5  1  0  0  0  0
  2 13  1  0  0  0  0
  2  3  1  0  0  0  0
  3 16  2  0  0  0  0
  4  6  2  0  0  0  0
  5 18  1  0  0  0  0
  5 11  2  0  0  0  0
  6 11  1  0  0  0  0
  6  8  1  0  0  0  0
  7 12  1  0  0  0  0
  8  7  2  0  0  0  0
  9  1  2  0  0  0  0
  9  4  1  0  0  0  0
 10  3  1  0  0  0  0
 10 12  2  0  0  0  0
 11 10  1  0  0  0  0
 14 32  1  0  0  0  0
 14 13  2  0  0  0  0
 15 14  1  0  0  0  0
 17 15  2  0  0  0  0
 17 18  1  0  0  0  0
 18  2  2  0  0  0  0
 19 28  1  0  0  0  0
 20 27  1  0  0  0  0
 21 24  1  0  0  0  0
 22 21  2  0  0  0  0
 22 23  1  0  0  0  0
 23 19  2  0  0  0  0
 23 25  1  0  0  0  0
 24 25  1  0  0  0  0
 24 26  1  0  0  0  0
 25 20  2  0  0  0  0
 27  9  1  0  0  0  0
 28 27  2  0  0  0  0
 29 21  1  0  0  0  0
 30 29  2  0  0  0  0
 31 29  1  0  0  0  0
 33 34  1  0  0  0  0
 33 32  1  0  0  0  0
M  END
>  <MODEL>
4

>  <REMARK>
 VINA RESULT:     -10.8      1.652      2.505
  Name = 
  4 active torsions:
  status: ('A' for Active; 'I' for Inactive)
    1  A    between atoms: C_3  and  C_13
    2  A    between atoms: C_3  and  C_25
    3  A    between atoms: C_7  and  C_11
    4  A    between atoms: C_18  and  C_30
                            x       y       z     vdW  Elec       q    Type
                         _______ _______ _______ _____ _____    ______ ____

>  <TORSDO>
F 4

$$$$
=
 OpenBabel10262423303D

 34 39  0  0  0  0  0  0  0  0999 V2000
  188.3400  177.6670  141.8220 C   0  0  0  0  0  3  0  0  0  0  0  0
  188.2490  177.7210  145.6060 C   0  0  0  0  0  0  0  0  0  0  0  0
  186.8540  178.1570  145.8060 C   0  0  0  0  0  0  0  0  0  0  0  0
  186.2190  178.3230  140.9490 N   0  0  0  0  0  0  0  0  0  0  0  0
  187.8660  177.8240  143.1300 C   0  0  0  0  0  0  0  0  0  0  0  0
  185.7180  178.4870  142.2010 C   0  0  0  0  0  0  0  0  0  0  0  0
  183.8750  179.0710  143.6590 C   0  0  0  0  0  3  0  0  0  0  0  0
  184.3950  178.9010  142.3730 C   0  0  0  0  0  3  0  0  0  0  0  0
  187.5020  177.9210  140.7290 C   0  0  0  0  0  0  0  0  0  0  0  0
  186.0050  178.4140  144.6240 C   0  0  0  0  0  0  0  0  0  0  0  0
  186.5340  178.2400  143.3280 C   0  0  0  0  0  0  0  0  0  0  0  0
  184.6750  178.8300  144.7780 C   0  0  0  0  0  3  0  0  0  0  0  0
  189.0800  177.4680  146.7050 C   0  0  0  0  0  3  0  0  0  0  0  0
  190.4030  177.0580  146.5120 C   0  0  0  0  0  0  0  0  0  0  0  0
  190.8970  176.8890  145.2150 C   0  0  0  0  0  3  0  0  0  0  0  0
  186.3910  178.3080  146.9700 O   0  0  0  0  0  0  0  0  0  0  0  0
  190.0760  177.1380  144.1140 C   0  0  0  0  0  3  0  0  0  0  0  0
  188.7480  177.5560  144.2960 C   0  0  0  0  0  0  0  0  0  0  0  0
  187.7780  178.2130  136.9390 C   0  0  0  0  0  3  0  0  0  0  0  0
  189.1570  176.9940  139.0980 C   0  0  0  0  0  3  0  0  0  0  0  0
  190.6620  176.3590  135.9780 C   0  0  0  0  0  0  0  0  0  0  0  0
  189.5850  177.1490  135.5630 C   0  0  0  0  0  3  0  0  0  0  0  0
  188.9250  177.4520  136.7390 C   0  0  0  0  0  0  0  0  0  0  0  0
  190.6590  176.1900  137.3260 N   0  0  0  0  0  0  0  0  0  0  0  0
  189.5910  176.8640  137.7790 C   0  0  0  0  0  0  0  0  0  0  0  0
  191.6070  175.4380  138.1370 C   0  0  0  0  0  1  0  0  0  0  0  0
  187.9960  177.7580  139.3440 C   0  0  0  0  0  0  0  0  0  0  0  0
  187.3150  178.3620  138.2580 C   0  0  0  0  0  3  0  0  0  0  0  0
  191.6620  175.7910  135.0530 C   0  0  0  0  0  0  0  0  0  0  0  0
  192.6390  176.4790  134.6610 O   0  0  0  0  0  0  0  0  0  0  0  0
  191.5250  174.4490  134.5940 N   0  0  0  0  0  1  0  0  0  0  0  0
  191.2740  176.7750  147.6850 C   0  0  0  0  0  2  0  0  0  0  0  0
  192.2420  175.6540  147.3590 C   0  0  0  0  0  2  0  0  0  0  0  0
  193.3520  175.7400  148.1980 O   0  0  0  0  0  1  0  0  0  0  0  0
  1  5  1  0  0  0  0
  2  3  1  0  0  0  0
  2 13  1  0  0  0  0
  3 16  2  0  0  0  0
  4  6  2  0  0  0  0
  5 11  2  0  0  0  0
  5 18  1  0  0  0  0
  6  8  1  0  0  0  0
  6 11  1  0  0  0  0
  7 12  1  0  0  0  0
  8  7  2  0  0  0  0
  9  4  1  0  0  0  0
  9  1  2  0  0  0  0
 10 12  2  0  0  0  0
 10  3  1  0  0  0  0
 11 10  1  0  0  0  0
 14 13  2  0  0  0  0
 14 32  1  0  0  0  0
 15 14  1  0  0  0  0
 17 18  1  0  0  0  0
 17 15  2  0  0  0  0
 18  2  2  0  0  0  0
 19 28  1  0  0  0  0
 20 27  1  0  0  0  0
 21 24  1  0  0  0  0
 22 21  2  0  0  0  0
 22 23  1  0  0  0  0
 23 19  2  0  0  0  0
 23 25  1  0  0  0  0
 24 25  1  0  0  0  0
 24 26  1  0  0  0  0
 25 20  2  0  0  0  0
 27  9  1  0  0  0  0
 28 27  2  0  0  0  0
 29 21  1  0  0  0  0
 30 29  2  0  0  0  0
 31 29  1  0  0  0  0
 33 32  1  0  0  0  0
 33 34  1  0  0  0  0
M  END
>  <MODEL>
5

>  <REMARK>
 VINA RESULT:     -10.3      2.260      5.528
  Name = 
  4 active torsions:
  status: ('A' for Active; 'I' for Inactive)
    1  A    between atoms: C_3  and  C_13
    2  A    between atoms: C_3  and  C_25
    3  A    between atoms: C_7  and  C_11
    4  A    between atoms: C_18  and  C_30
                            x       y       z     vdW  Elec       q    Type
                         _______ _______ _______ _____ _____    ______ ____

>  <TORSDO>
F 4

$$$$
=
 OpenBabel10262423303D

 34 39  0  0  0  0  0  0  0  0999 V2000
  186.1240  178.2830  142.7350 C   0  0  0  0  0  3  0  0  0  0  0  0
  184.8470  178.6090  139.1880 C   0  0  0  0  0  0  0  0  0  0  0  0
  183.4120  178.8060  139.4670 C   0  0  0  0  0  0  0  0  0  0  0  0
  184.3110  178.4840  144.2730 N   0  0  0  0  0  0  0  0  0  0  0  0
  185.2470  178.4520  141.6570 C   0  0  0  0  0  0  0  0  0  0  0  0
  183.4260  178.6520  143.2570 C   0  0  0  0  0  0  0  0  0  0  0  0
  181.1550  179.0120  142.4970 C   0  0  0  0  0  3  0  0  0  0  0  0
  182.0700  178.8380  143.5380 C   0  0  0  0  0  3  0  0  0  0  0  0
  185.6420  178.2990  144.0510 C   0  0  0  0  0  0  0  0  0  0  0  0
  182.9470  178.8170  140.8680 C   0  0  0  0  0  0  0  0  0  0  0  0
  183.8750  178.6410  141.9180 C   0  0  0  0  0  0  0  0  0  0  0  0
  181.5900  179.0020  141.1700 C   0  0  0  0  0  3  0  0  0  0  0  0
  185.3200  178.5950  137.8680 C   0  0  0  0  0  3  0  0  0  0  0  0
  186.6800  178.4050  137.6080 C   0  0  0  0  0  0  0  0  0  0  0  0
  187.5770  178.2390  138.6680 C   0  0  0  0  0  3  0  0  0  0  0  0
  182.5920  178.9640  138.5210 O   0  0  0  0  0  0  0  0  0  0  0  0
  187.1140  178.2530  139.9850 C   0  0  0  0  0  3  0  0  0  0  0  0
  185.7490  178.4370  140.2580 C   0  0  0  0  0  0  0  0  0  0  0  0
  186.9990  178.2170  147.6120 C   0  0  0  0  0  3  0  0  0  0  0  0
  187.8850  177.6810  144.9710 C   0  0  0  0  0  3  0  0  0  0  0  0
  190.3820  177.1270  147.3910 C   0  0  0  0  0  0  0  0  0  0  0  0
  189.3350  177.5390  148.2230 C   0  0  0  0  0  3  0  0  0  0  0  0
  188.2940  177.7820  147.3480 C   0  0  0  0  0  0  0  0  0  0  0  0
  190.0020  177.1200  146.0870 N   0  0  0  0  0  0  0  0  0  0  0  0
  188.7220  177.5240  146.0750 C   0  0  0  0  0  0  0  0  0  0  0  0
  190.7990  176.7560  144.9240 C   0  0  0  0  0  1  0  0  0  0  0  0
  186.5630  178.1200  145.1950 C   0  0  0  0  0  0  0  0  0  0  0  0
  186.1310  178.3860  146.5190 C   0  0  0  0  0  3  0  0  0  0  0  0
  191.7200  176.7530  147.8880 C   0  0  0  0  0  0  0  0  0  0  0  0
  192.3300  177.4870  148.7090 O   0  0  0  0  0  0  0  0  0  0  0  0
  192.3370  175.5510  147.4380 N   0  0  0  0  0  1  0  0  0  0  0  0
  187.1780  178.4080  136.2050 C   0  0  0  0  0  2  0  0  0  0  0  0
  188.5060  177.6820  136.1190 C   0  0  0  0  0  2  0  0  0  0  0  0
  188.2860  176.3510  135.7700 O   0  0  0  0  0  1  0  0  0  0  0  0
  1  9  1  0  0  0  0
  2  3  1  0  0  0  0
  2 18  1  0  0  0  0
  3 10  1  0  0  0  0
  5 11  1  0  0  0  0
  5  1  2  0  0  0  0
  6  8  1  0  0  0  0
  6  4  1  0  0  0  0
  7  8  2  0  0  0  0
  9  4  2  0  0  0  0
  9 27  1  0  0  0  0
 10 12  2  0  0  0  0
 10 11  1  0  0  0  0
 11  6  2  0  0  0  0
 12  7  1  0  0  0  0
 13  2  2  0  0  0  0
 14 13  1  0  0  0  0
 14 15  2  0  0  0  0
 15 17  1  0  0  0  0
 16  3  2  0  0  0  0
 17 18  2  0  0  0  0
 18  5  1  0  0  0  0
 20 27  2  0  0  0  0
 20 25  1  0  0  0  0
 21 29  1  0  0  0  0
 21 22  2  0  0  0  0
 23 19  1  0  0  0  0
 23 22  1  0  0  0  0
 24 21  1  0  0  0  0
 25 24  1  0  0  0  0
 25 23  2  0  0  0  0
 26 24  1  0  0  0  0
 27 28  1  0  0  0  0
 28 19  2  0  0  0  0
 29 30  2  0  0  0  0
 31 29  1  0  0  0  0
 32 14  1  0  0  0  0
 33 32  1  0  0  0  0
 34 33  1  0  0  0  0
M  END
>  <MODEL>
6

>  <REMARK>
 VINA RESULT:     -10.2      3.522      7.991
  Name = 
  4 active torsions:
  status: ('A' for Active; 'I' for Inactive)
    1  A    between atoms: C_3  and  C_13
    2  A    between atoms: C_3  and  C_25
    3  A    between atoms: C_7  and  C_11
    4  A    between atoms: C_18  and  C_30
                            x       y       z     vdW  Elec       q    Type
                         _______ _______ _______ _____ _____    ______ ____

>  <TORSDO>
F 4

$$$$
=
 OpenBabel10262423303D

 34 39  0  0  0  0  0  0  0  0999 V2000
  187.1360  178.0500  142.2200 C   0  0  0  0  0  3  0  0  0  0  0  0
  190.5170  177.2280  143.7090 C   0  0  0  0  0  0  0  0  0  0  0  0
  191.3160  177.1650  142.4700 C   0  0  0  0  0  0  0  0  0  0  0  0
  187.3110  178.2090  139.8460 N   0  0  0  0  0  0  0  0  0  0  0  0
  188.5020  177.7590  142.3150 C   0  0  0  0  0  0  0  0  0  0  0  0
  188.6390  177.9310  139.8930 C   0  0  0  0  0  0  0  0  0  0  0  0
  190.7480  177.5890  138.7530 C   0  0  0  0  0  3  0  0  0  0  0  0
  189.3810  177.8750  138.7110 C   0  0  0  0  0  3  0  0  0  0  0  0
  186.5440  178.2750  140.9700 C   0  0  0  0  0  0  0  0  0  0  0  0
  190.6510  177.4090  141.1740 C   0  0  0  0  0  0  0  0  0  0  0  0
  189.2700  177.6980  141.1350 C   0  0  0  0  0  0  0  0  0  0  0  0
  191.3800  177.3570  139.9770 C   0  0  0  0  0  3  0  0  0  0  0  0
  191.1180  177.0020  144.9550 C   0  0  0  0  0  3  0  0  0  0  0  0
  190.3570  177.0590  146.1270 C   0  0  0  0  0  0  0  0  0  0  0  0
  188.9920  177.3530  146.0580 C   0  0  0  0  0  3  0  0  0  0  0  0
  192.5500  176.9070  142.5170 O   0  0  0  0  0  0  0  0  0  0  0  0
  188.3860  177.5810  144.8200 C   0  0  0  0  0  3  0  0  0  0  0  0
  189.1390  177.5200  143.6370 C   0  0  0  0  0  0  0  0  0  0  0  0
  183.1370  179.1200  139.4870 C   0  0  0  0  0  3  0  0  0  0  0  0
  184.3050  178.6330  142.0250 C   0  0  0  0  0  3  0  0  0  0  0  0
  180.8560  179.3220  142.2140 C   0  0  0  0  0  0  0  0  0  0  0  0
  181.0400  179.4200  140.8300 C   0  0  0  0  0  3  0  0  0  0  0  0
  182.3870  179.1600  140.6570 C   0  0  0  0  0  0  0  0  0  0  0  0
  182.0210  179.0220  142.8460 N   0  0  0  0  0  0  0  0  0  0  0  0
  182.9480  178.9250  141.8820 C   0  0  0  0  0  0  0  0  0  0  0  0
  182.2430  178.8370  144.2740 C   0  0  0  0  0  1  0  0  0  0  0  0
  185.1020  178.5820  140.8620 C   0  0  0  0  0  0  0  0  0  0  0  0
  184.5070  178.8280  139.5990 C   0  0  0  0  0  3  0  0  0  0  0  0
  179.5550  179.5250  142.8800 C   0  0  0  0  0  0  0  0  0  0  0  0
  178.9310  180.6110  142.7540 O   0  0  0  0  0  0  0  0  0  0  0  0
  178.9940  178.4870  143.6770 N   0  0  0  0  0  1  0  0  0  0  0  0
  191.0060  176.8350  147.4480 C   0  0  0  0  0  2  0  0  0  0  0  0
  191.9370  175.6410  147.3770 C   0  0  0  0  0  2  0  0  0  0  0  0
  192.9020  175.7450  148.3780 O   0  0  0  0  0  1  0  0  0  0  0  0
  1  5  1  0  0  0  0
  2 13  1  0  0  0  0
  3 16  2  0  0  0  0
  3  2  1  0  0  0  0
  4  6  2  0  0  0  0
  4  9  1  0  0  0  0
  5 18  1  0  0  0  0
  6 11  1  0  0  0  0
  7 12  1  0  0  0  0
  8  7  2  0  0  0  0
  8  6  1  0  0  0  0
  9  1  2  0  0  0  0
 10  3  1  0  0  0  0
 11 10  1  0  0  0  0
 11  5  2  0  0  0  0
 12 10  2  0  0  0  0
 13 14  2  0  0  0  0
 14 32  1  0  0  0  0
 15 14  1  0  0  0  0
 17 15  2  0  0  0  0
 18  2  2  0  0  0  0
 18 17  1  0  0  0  0
 19 28  2  0  0  0  0
 19 23  1  0  0  0  0
 21 24  1  0  0  0  0
 21 29  1  0  0  0  0
 22 21  2  0  0  0  0
 23 22  1  0  0  0  0
 23 25  2  0  0  0  0
 24 26  1  0  0  0  0
 25 20  1  0  0  0  0
 25 24  1  0  0  0  0
 27  9  1  0  0  0  0
 27 20  2  0  0  0  0
 28 27  1  0  0  0  0
 29 31  1  0  0  0  0
 30 29  2  0  0  0  0
 33 32  1  0  0  0  0
 33 34  1  0  0  0  0
M  END
>  <MODEL>
7

>  <REMARK>
 VINA RESULT:      -9.8      3.426      8.835
  Name = 
  4 active torsions:
  status: ('A' for Active; 'I' for Inactive)
    1  A    between atoms: C_3  and  C_13
    2  A    between atoms: C_3  and  C_25
    3  A    between atoms: C_7  and  C_11
    4  A    between atoms: C_18  and  C_30
                            x       y       z     vdW  Elec       q    Type
                         _______ _______ _______ _____ _____    ______ ____

>  <TORSDO>
F 4

$$$$
=
 OpenBabel10262423303D

 34 39  0  0  0  0  0  0  0  0999 V2000
  187.2960  177.9450  141.8850 C   0  0  0  0  0  3  0  0  0  0  0  0
  190.4990  177.2660  139.9870 C   0  0  0  0  0  0  0  0  0  0  0  0
  191.4480  177.2440  141.1170 C   0  0  0  0  0  0  0  0  0  0  0  0
  187.7580  178.1220  144.2200 N   0  0  0  0  0  0  0  0  0  0  0  0
  188.6520  177.7150  141.6210 C   0  0  0  0  0  0  0  0  0  0  0  0
  189.0810  177.9020  144.0080 C   0  0  0  0  0  0  0  0  0  0  0  0
  191.3280  177.6570  144.8760 C   0  0  0  0  0  3  0  0  0  0  0  0
  189.9660  177.8840  145.0880 C   0  0  0  0  0  3  0  0  0  0  0  0
  186.8550  178.1500  143.2000 C   0  0  0  0  0  0  0  0  0  0  0  0
  190.9390  177.4640  142.4860 C   0  0  0  0  0  0  0  0  0  0  0  0
  189.5620  177.6920  142.6960 C   0  0  0  0  0  0  0  0  0  0  0  0
  191.8130  177.4490  143.5820 C   0  0  0  0  0  3  0  0  0  0  0  0
  190.9490  177.0600  138.6750 C   0  0  0  0  0  3  0  0  0  0  0  0
  190.0480  177.0850  137.6070 C   0  0  0  0  0  0  0  0  0  0  0  0
  188.6890  177.3070  137.8470 C   0  0  0  0  0  3  0  0  0  0  0  0
  192.6760  177.0380  140.9170 O   0  0  0  0  0  0  0  0  0  0  0  0
  188.2320  177.5130  139.1500 C   0  0  0  0  0  3  0  0  0  0  0  0
  189.1290  177.4960  140.2300 C   0  0  0  0  0  0  0  0  0  0  0  0
  183.6280  178.8710  145.0940 C   0  0  0  0  0  3  0  0  0  0  0  0
  184.4860  178.3850  142.4340 C   0  0  0  0  0  3  0  0  0  0  0  0
  181.0130  178.9170  142.6780 C   0  0  0  0  0  0  0  0  0  0  0  0
  181.3660  179.0490  144.0250 C   0  0  0  0  0  3  0  0  0  0  0  0
  182.7340  178.8540  144.0280 C   0  0  0  0  0  0  0  0  0  0  0  0
  182.1000  178.6560  141.9060 N   0  0  0  0  0  0  0  0  0  0  0  0
  183.1460  178.6200  142.7450 C   0  0  0  0  0  0  0  0  0  0  0  0
  182.1480  178.4520  140.4650 C   0  0  0  0  0  1  0  0  0  0  0  0
  185.4250  178.3940  143.4870 C   0  0  0  0  0  0  0  0  0  0  0  0
  184.9850  178.6370  144.8120 C   0  0  0  0  0  3  0  0  0  0  0  0
  179.6300  179.0470  142.1810 C   0  0  0  0  0  0  0  0  0  0  0  0
  178.9310  178.0270  141.9480 O   0  0  0  0  0  0  0  0  0  0  0  0
  179.0720  180.3380  141.9570 N   0  0  0  0  0  1  0  0  0  0  0  0
  190.5310  176.8470  136.2190 C   0  0  0  0  0  2  0  0  0  0  0  0
  189.3630  176.5300  135.3060 C   0  0  0  0  0  2  0  0  0  0  0  0
  189.2310  175.1480  135.1840 O   0  0  0  0  0  1  0  0  0  0  0  0
  1  9  1  0  0  0  0
  2 18  1  0  0  0  0
  2  3  1  0  0  0  0
  3 10  1  0  0  0  0
  5  1  2  0  0  0  0
  5 11  1  0  0  0  0
  6  4  1  0  0  0  0
  6  8  1  0  0  0  0
  7  8  2  0  0  0  0
  9 27  1  0  0  0  0
  9  4  2  0  0  0  0
 10 11  1  0  0  0  0
 10 12  2  0  0  0  0
 11  6  2  0  0  0  0
 12  7  1  0  0  0  0
 13  2  2  0  0  0  0
 14 15  2  0  0  0  0
 14 13  1  0  0  0  0
 15 17  1  0  0  0  0
 16  3  2  0  0  0  0
 17 18  2  0  0  0  0
 18  5  1  0  0  0  0
 20 25  2  0  0  0  0
 20 27  1  0  0  0  0
 21 22  2  0  0  0  0
 22 23  1  0  0  0  0
 23 19  2  0  0  0  0
 24 21  1  0  0  0  0
 24 25  1  0  0  0  0
 25 23  1  0  0  0  0
 26 24  1  0  0  0  0
 27 28  2  0  0  0  0
 28 19  1  0  0  0  0
 29 21  1  0  0  0  0
 30 29  2  0  0  0  0
 31 29  1  0  0  0  0
 32 14  1  0  0  0  0
 33 32  1  0  0  0  0
 34 33  1  0  0  0  0
M  END
>  <MODEL>
8

>  <REMARK>
 VINA RESULT:      -9.7      2.901      8.459
  Name = 
  4 active torsions:
  status: ('A' for Active; 'I' for Inactive)
    1  A    between atoms: C_3  and  C_13
    2  A    between atoms: C_3  and  C_25
    3  A    between atoms: C_7  and  C_11
    4  A    between atoms: C_18  and  C_30
                            x       y       z     vdW  Elec       q    Type
                         _______ _______ _______ _____ _____    ______ ____

>  <TORSDO>
F 4

$$$$
=
 OpenBabel10262423303D

 34 39  0  0  0  0  0  0  0  0999 V2000
  185.4800  178.3260  142.8900 C   0  0  0  0  0  3  0  0  0  0  0  0
  182.7630  179.0470  140.3560 C   0  0  0  0  0  0  0  0  0  0  0  0
  183.5580  178.9510  139.1170 C   0  0  0  0  0  0  0  0  0  0  0  0
  187.5550  177.9530  141.7710 N   0  0  0  0  0  0  0  0  0  0  0  0
  184.8400  178.5330  141.6620 C   0  0  0  0  0  0  0  0  0  0  0  0
  186.9730  178.1460  140.5600 C   0  0  0  0  0  0  0  0  0  0  0  0
  187.1470  178.2480  138.1460 C   0  0  0  0  0  3  0  0  0  0  0  0
  187.7400  178.0510  139.3960 C   0  0  0  0  0  3  0  0  0  0  0  0
  186.8500  178.0350  142.9350 C   0  0  0  0  0  0  0  0  0  0  0  0
  184.9990  178.6410  139.2110 C   0  0  0  0  0  0  0  0  0  0  0  0
  185.5940  178.4420  140.4750 C   0  0  0  0  0  0  0  0  0  0  0  0
  185.7840  178.5420  138.0540 C   0  0  0  0  0  3  0  0  0  0  0  0
  181.3920  179.3380  140.3020 C   0  0  0  0  0  3  0  0  0  0  0  0
  180.6430  179.4320  141.4780 C   0  0  0  0  0  0  0  0  0  0  0  0
  181.2590  179.2240  142.7160 C   0  0  0  0  0  3  0  0  0  0  0  0
  183.0150  179.1290  137.9920 O   0  0  0  0  0  0  0  0  0  0  0  0
  182.6230  178.9320  142.7790 C   0  0  0  0  0  3  0  0  0  0  0  0
  183.3870  178.8420  141.6050 C   0  0  0  0  0  0  0  0  0  0  0  0
  187.5010  177.8480  146.6850 C   0  0  0  0  0  3  0  0  0  0  0  0
  188.8700  177.3650  144.2480 C   0  0  0  0  0  3  0  0  0  0  0  0
  190.8550  176.7210  147.0860 C   0  0  0  0  0  0  0  0  0  0  0  0
  189.6720  177.1260  147.7130 C   0  0  0  0  0  3  0  0  0  0  0  0
  188.8190  177.4040  146.6620 C   0  0  0  0  0  0  0  0  0  0  0  0
  190.7310  176.7510  145.7330 N   0  0  0  0  0  0  0  0  0  0  0  0
  189.4800  177.1700  145.4880 C   0  0  0  0  0  0  0  0  0  0  0  0
  191.7320  176.4040  144.7340 C   0  0  0  0  0  1  0  0  0  0  0  0
  187.5340  177.8160  144.2280 C   0  0  0  0  0  0  0  0  0  0  0  0
  186.8590  178.0550  145.4520 C   0  0  0  0  0  3  0  0  0  0  0  0
  192.0700  176.3180  147.8190 C   0  0  0  0  0  0  0  0  0  0  0  0
  192.6730  175.2520  147.5290 O   0  0  0  0  0  0  0  0  0  0  0  0
  192.5740  177.1380  148.8690 N   0  0  0  0  0  1  0  0  0  0  0  0
  179.1850  179.7240  141.4110 C   0  0  0  0  0  2  0  0  0  0  0  0
  178.9410  181.2090  141.5930 C   0  0  0  0  0  2  0  0  0  0  0  0
  178.9310  181.8350  140.3480 O   0  0  0  0  0  1  0  0  0  0  0  0
  1  9  1  0  0  0  0
  2 18  1  0  0  0  0
  3 10  1  0  0  0  0
  3  2  1  0  0  0  0
  4  9  2  0  0  0  0
  5  1  2  0  0  0  0
  6  4  1  0  0  0  0
  7  8  1  0  0  0  0
  8  6  2  0  0  0  0
  9 27  1  0  0  0  0
 10 11  2  0  0  0  0
 11  6  1  0  0  0  0
 11  5  1  0  0  0  0
 12  7  2  0  0  0  0
 12 10  1  0  0  0  0
 13  2  2  0  0  0  0
 13 14  1  0  0  0  0
 14 15  2  0  0  0  0
 15 17  1  0  0  0  0
 16  3  2  0  0  0  0
 18  5  1  0  0  0  0
 18 17  2  0  0  0  0
 20 25  1  0  0  0  0
 21 22  2  0  0  0  0
 21 29  1  0  0  0  0
 23 19  1  0  0  0  0
 23 22  1  0  0  0  0
 24 21  1  0  0  0  0
 25 24  1  0  0  0  0
 25 23  2  0  0  0  0
 26 24  1  0  0  0  0
 27 20  2  0  0  0  0
 27 28  1  0  0  0  0
 28 19  2  0  0  0  0
 29 31  1  0  0  0  0
 30 29  2  0  0  0  0
 32 14  1  0  0  0  0
 32 33  1  0  0  0  0
 34 33  1  0  0  0  0
M  END
>  <MODEL>
9

>  <REMARK>
 VINA RESULT:      -9.6      3.457      7.029
  Name = 
  4 active torsions:
  status: ('A' for Active; 'I' for Inactive)
    1  A    between atoms: C_3  and  C_13
    2  A    between atoms: C_3  and  C_25
    3  A    between atoms: C_7  and  C_11
    4  A    between atoms: C_18  and  C_30
                            x       y       z     vdW  Elec       q    Type
                         _______ _______ _______ _____ _____    ______ ____

>  <TORSDO>
F 4

$$$$
