=
 OpenBabel10262419543D

 25 27  0  0  1  0  0  0  0  0999 V2000
  183.9810  178.4650  142.1530 C   0  0  0  0  0  0  0  0  0  0  0  0
  184.9650  178.2820  143.1340 C   0  0  0  0  0  0  0  0  0  0  0  0
  182.3770  179.0240  143.8560 C   0  0  0  0  0  3  0  0  0  0  0  0
  184.1600  178.2210  140.6910 C   0  0  1  0  0  3  0  0  0  0  0  0
  183.3350  178.8460  144.8100 N   0  0  0  0  0  0  0  0  0  0  0  0
  182.7590  178.1470  140.0690 C   0  0  2  0  0  3  0  0  0  0  0  0
  185.5780  178.2960  145.4980 C   0  0  0  0  0  0  0  0  0  0  0  0
  185.2440  178.4910  146.9380 C   0  0  0  0  0  1  0  0  0  0  0  0
  186.2700  177.8980  142.8050 C   0  0  0  0  0  3  0  0  0  0  0  0
  182.7040  178.8350  142.5140 C   0  0  0  0  0  0  0  0  0  0  0  0
  181.5430  178.9650  141.1750 S   0  0  0  0  0  0  0  0  0  0  0  0
  186.8790  177.9150  145.1510 C   0  0  0  0  0  3  0  0  0  0  0  0
  187.2260  177.7200  143.8100 C   0  0  0  0  0  0  0  0  0  0  0  0
  184.6130  178.4830  144.4920 C   0  0  0  0  0  0  0  0  0  0  0  0
  182.0610  175.5920  139.7110 C   0  0  0  0  0  3  0  0  0  0  0  0
  182.3790  176.7450  139.8750 C   0  0  0  0  0  0  0  0  0  0  0  0
  184.4650  180.0720  139.2310 O   0  0  0  0  0  0  0  0  0  0  0  0
  184.9650  179.3130  140.0500 C   0  0  0  0  0  3  0  0  0  0  0  0
  188.6100  177.3030  143.4560 C   0  0  0  0  0  2  0  0  0  0  0  0
  189.6210  178.0680  144.2940 C   0  0  0  0  0  2  0  0  0  0  0  0
  190.8410  177.2070  144.5690 C   0  0  2  0  0  3  0  0  0  0  0  0
  190.7620  176.0320  143.8230 O   0  0  0  0  0  1  0  0  0  0  0  0
  190.9460  176.8740  146.0200 C   0  0  0  0  0  0  0  0  0  0  0  0
  192.0770  176.6690  146.5340 O   0  0  0  0  0  0  0  0  0  0  0  0
  189.8040  176.7850  146.8060 O   0  0  0  0  0  1  0  0  0  0  0  0
  1 10  2  0  0  0  0
  1  2  1  0  0  0  0
  2 14  1  0  0  0  0
  3  5  2  0  0  0  0
  4 18  1  6  0  0  0
  4  1  1  0  0  0  0
  6 16  1  1  0  0  0
  6  4  1  0  0  0  0
  6 11  1  0  0  0  0
  7  8  1  0  0  0  0
  9  2  2  0  0  0  0
  9 13  1  0  0  0  0
 10  3  1  0  0  0  0
 11 10  1  0  0  0  0
 12  7  1  0  0  0  0
 13 12  2  0  0  0  0
 14  5  1  0  0  0  0
 14  7  2  0  0  0  0
 15 16  3  0  0  0  0
 17 18  2  0  0  0  0
 19 13  1  0  0  0  0
 19 20  1  0  0  0  0
 20 21  1  0  0  0  0
 21 22  1  6  0  0  0
 21 23  1  0  0  0  0
 23 24  2  0  0  0  0
 23 25  1  0  0  0  0
M  END
>  <MODEL>
1

>  <REMARK>
 VINA RESULT:      -8.3      0.000      0.000
  Name = 
  6 active torsions:
  status: ('A' for Active; 'I' for Inactive)
    1  A    between atoms: C_2  and  C_21
    2  A    between atoms: C_5  and  C_22
    3  A    between atoms: C_6  and  C_15
    4  A    between atoms: C_6  and  C_23
    5  A    between atoms: C_10  and  C_11
    6  A    between atoms: C_15  and  C_21
                            x       y       z     vdW  Elec       q    Type
                         _______ _______ _______ _____ _____    ______ ____

>  <TORSDO>
F 6

$$$$
=
 OpenBabel10262419543D

 25 27  0  0  1  0  0  0  0  0999 V2000
  183.9500  178.4660  142.1430 C   0  0  0  0  0  0  0  0  0  0  0  0
  184.9120  178.2770  143.1460 C   0  0  0  0  0  0  0  0  0  0  0  0
  182.3140  179.0390  143.8110 C   0  0  0  0  0  3  0  0  0  0  0  0
  184.1580  178.2170  140.6860 C   0  0  1  0  0  3  0  0  0  0  0  0
  183.2500  178.8560  144.7850 N   0  0  0  0  0  0  0  0  0  0  0  0
  182.7700  178.1520  140.0350 C   0  0  2  0  0  3  0  0  0  0  0  0
  185.4740  178.2910  145.5220 C   0  0  0  0  0  0  0  0  0  0  0  0
  185.1120  178.4910  146.9540 C   0  0  0  0  0  1  0  0  0  0  0  0
  186.2210  177.8830  142.8450 C   0  0  0  0  0  3  0  0  0  0  0  0
  182.6680  178.8450  142.4770 C   0  0  0  0  0  0  0  0  0  0  0  0
  181.5370  178.9810  141.1130 S   0  0  0  0  0  0  0  0  0  0  0  0
  186.7790  177.9000  145.2030 C   0  0  0  0  0  3  0  0  0  0  0  0
  187.1540  177.7000  143.8700 C   0  0  0  0  0  0  0  0  0  0  0  0
  184.5320  178.4840  144.4950 C   0  0  0  0  0  0  0  0  0  0  0  0
  182.0700  175.5990  139.6650 C   0  0  0  0  0  3  0  0  0  0  0  0
  182.3840  176.7520  139.8350 C   0  0  0  0  0  0  0  0  0  0  0  0
  184.5320  180.0110  139.1720 O   0  0  0  0  0  0  0  0  0  0  0  0
  184.9840  179.3020  140.0610 C   0  0  0  0  0  3  0  0  0  0  0  0
  188.5420  177.2730  143.5460 C   0  0  0  0  0  2  0  0  0  0  0  0
  188.6280  176.8180  142.0990 C   0  0  0  0  0  2  0  0  0  0  0  0
  189.4460  177.8020  141.2820 C   0  0  2  0  0  3  0  0  0  0  0  0
  188.6520  178.3500  140.2770 O   0  0  0  0  0  1  0  0  0  0  0  0
  190.6360  177.1360  140.6750 C   0  0  0  0  0  0  0  0  0  0  0  0
  190.4730  176.1980  139.8500 O   0  0  0  0  0  0  0  0  0  0  0  0
  191.9200  177.5390  141.0170 O   0  0  0  0  0  1  0  0  0  0  0  0
  1 10  2  0  0  0  0
  1  2  1  0  0  0  0
  2 14  1  0  0  0  0
  3  5  2  0  0  0  0
  4 18  1  6  0  0  0
  4  1  1  0  0  0  0
  6 16  1  1  0  0  0
  6  4  1  0  0  0  0
  6 11  1  0  0  0  0
  7  8  1  0  0  0  0
  9  2  2  0  0  0  0
  9 13  1  0  0  0  0
 10  3  1  0  0  0  0
 11 10  1  0  0  0  0
 12  7  1  0  0  0  0
 13 12  2  0  0  0  0
 14  5  1  0  0  0  0
 14  7  2  0  0  0  0
 15 16  3  0  0  0  0
 17 18  2  0  0  0  0
 19 13  1  0  0  0  0
 20 19  1  0  0  0  0
 21 22  1  6  0  0  0
 21 20  1  0  0  0  0
 23 25  1  0  0  0  0
 23 21  1  0  0  0  0
 24 23  2  0  0  0  0
M  END
>  <MODEL>
2

>  <REMARK>
 VINA RESULT:      -8.0      2.021      2.512
  Name = 
  6 active torsions:
  status: ('A' for Active; 'I' for Inactive)
    1  A    between atoms: C_2  and  C_21
    2  A    between atoms: C_5  and  C_22
    3  A    between atoms: C_6  and  C_15
    4  A    between atoms: C_6  and  C_23
    5  A    between atoms: C_10  and  C_11
    6  A    between atoms: C_15  and  C_21
                            x       y       z     vdW  Elec       q    Type
                         _______ _______ _______ _____ _____    ______ ____

>  <TORSDO>
F 6

$$$$
=
 OpenBabel10262419543D

 25 27  0  0  1  0  0  0  0  0999 V2000
  188.0630  177.5690  144.3950 C   0  0  0  0  0  0  0  0  0  0  0  0
  186.8180  177.9510  143.8750 C   0  0  0  0  0  0  0  0  0  0  0  0
  187.2150  177.8210  146.6310 C   0  0  0  0  0  3  0  0  0  0  0  0
  189.2860  177.2810  143.5880 C   0  0  1  0  0  3  0  0  0  0  0  0
  186.0040  178.1910  146.1260 N   0  0  0  0  0  0  0  0  0  0  0  0
  190.4810  177.3120  144.5510 C   0  0  2  0  0  3  0  0  0  0  0  0
  184.5180  178.6620  144.2880 C   0  0  0  0  0  0  0  0  0  0  0  0
  183.3980  179.0080  145.2080 C   0  0  0  0  0  1  0  0  0  0  0  0
  186.5910  178.0390  142.4970 C   0  0  0  0  0  3  0  0  0  0  0  0
  188.2530  177.5030  145.7580 C   0  0  0  0  0  0  0  0  0  0  0  0
  189.8980  177.0720  146.2750 S   0  0  0  0  0  0  0  0  0  0  0  0
  184.3080  178.7410  142.9060 C   0  0  0  0  0  3  0  0  0  0  0  0
  185.3380  178.4270  142.0130 C   0  0  0  0  0  0  0  0  0  0  0  0
  185.7750  178.2650  144.7810 C   0  0  0  0  0  0  0  0  0  0  0  0
  191.7330  179.6640  144.3460 C   0  0  0  0  0  3  0  0  0  0  0  0
  191.1690  178.6010  144.4420 C   0  0  0  0  0  0  0  0  0  0  0  0
  190.1620  175.2110  142.8140 O   0  0  0  0  0  0  0  0  0  0  0  0
  189.1890  175.9470  142.9100 C   0  0  0  0  0  3  0  0  0  0  0  0
  185.1040  178.5260  140.5470 C   0  0  0  0  0  2  0  0  0  0  0  0
  183.6150  178.6170  140.2570 C   0  0  0  0  0  2  0  0  0  0  0  0
  183.3640  179.4980  139.0460 C   0  0  2  0  0  3  0  0  0  0  0  0
  184.3250  180.5050  138.9930 O   0  0  0  0  0  1  0  0  0  0  0  0
  182.0020  180.1060  139.0990 C   0  0  0  0  0  0  0  0  0  0  0  0
  181.1600  179.6800  139.9320 O   0  0  0  0  0  1  0  0  0  0  0  0
  181.6560  181.1340  138.2320 O   0  0  0  0  0  0  0  0  0  0  0  0
  1 10  1  0  0  0  0
  2  1  2  0  0  0  0
  2 14  1  0  0  0  0
  4 18  1  1  0  0  0
  4  1  1  0  0  0  0
  4  6  1  0  0  0  0
  5  3  1  0  0  0  0
  6 16  1  1  0  0  0
  6 11  1  0  0  0  0
  7 14  1  0  0  0  0
  7  8  1  0  0  0  0
  9  2  1  0  0  0  0
 10 11  1  0  0  0  0
 10  3  2  0  0  0  0
 12  7  2  0  0  0  0
 13  9  2  0  0  0  0
 13 12  1  0  0  0  0
 14  5  2  0  0  0  0
 15 16  3  0  0  0  0
 17 18  2  0  0  0  0
 19 13  1  0  0  0  0
 20 19  1  0  0  0  0
 21 22  1  1  0  0  0
 21 23  1  0  0  0  0
 21 20  1  0  0  0  0
 23 24  1  0  0  0  0
 25 23  2  0  0  0  0
M  END
>  <MODEL>
3

>  <REMARK>
 VINA RESULT:      -7.9      2.736      7.530
  Name = 
  6 active torsions:
  status: ('A' for Active; 'I' for Inactive)
    1  A    between atoms: C_2  and  C_21
    2  A    between atoms: C_5  and  C_22
    3  A    between atoms: C_6  and  C_15
    4  A    between atoms: C_6  and  C_23
    5  A    between atoms: C_10  and  C_11
    6  A    between atoms: C_15  and  C_21
                            x       y       z     vdW  Elec       q    Type
                         _______ _______ _______ _____ _____    ______ ____

>  <TORSDO>
F 6

$$$$
=
 OpenBabel10262419543D

 25 27  0  0  1  0  0  0  0  0999 V2000
  187.8000  177.6360  144.2850 C   0  0  0  0  0  0  0  0  0  0  0  0
  186.5460  177.9930  143.7690 C   0  0  0  0  0  0  0  0  0  0  0  0
  186.9570  177.8810  146.5240 C   0  0  0  0  0  3  0  0  0  0  0  0
  189.0250  177.3660  143.4740 C   0  0  1  0  0  3  0  0  0  0  0  0
  185.7380  178.2280  146.0220 N   0  0  0  0  0  0  0  0  0  0  0  0
  190.2230  177.4220  144.4310 C   0  0  2  0  0  3  0  0  0  0  0  0
  184.2360  178.6650  144.1880 C   0  0  0  0  0  0  0  0  0  0  0  0
  183.1140  178.9930  145.1120 C   0  0  0  0  0  1  0  0  0  0  0  0
  186.3120  178.0710  142.3910 C   0  0  0  0  0  3  0  0  0  0  0  0
  187.9970  177.5780  145.6470 C   0  0  0  0  0  0  0  0  0  0  0  0
  189.6520  177.1790  146.1590 S   0  0  0  0  0  0  0  0  0  0  0  0
  184.0190  178.7330  142.8070 C   0  0  0  0  0  3  0  0  0  0  0  0
  185.0500  178.4340  141.9110 C   0  0  0  0  0  0  0  0  0  0  0  0
  185.5020  178.2920  144.6780 C   0  0  0  0  0  0  0  0  0  0  0  0
  191.4370  179.7930  144.2110 C   0  0  0  0  0  3  0  0  0  0  0  0
  190.8880  178.7230  144.3140 C   0  0  0  0  0  0  0  0  0  0  0  0
  189.9250  175.2930  142.7380 O   0  0  0  0  0  0  0  0  0  0  0  0
  188.9490  176.0270  142.8010 C   0  0  0  0  0  3  0  0  0  0  0  0
  184.8080  178.5230  140.4460 C   0  0  0  0  0  2  0  0  0  0  0  0
  186.1270  178.4840  139.6920 C   0  0  0  0  0  2  0  0  0  0  0  0
  185.8800  178.3780  138.1970 C   0  0  2  0  0  3  0  0  0  0  0  0
  184.9980  177.3290  137.9430 O   0  0  0  0  0  1  0  0  0  0  0  0
  187.1570  178.1500  137.4590 C   0  0  0  0  0  0  0  0  0  0  0  0
  188.0710  179.0140  137.5100 O   0  0  0  0  0  1  0  0  0  0  0  0
  187.3410  176.9940  136.7110 O   0  0  0  0  0  0  0  0  0  0  0  0
  1 10  1  0  0  0  0
  2  1  2  0  0  0  0
  2 14  1  0  0  0  0
  4 18  1  1  0  0  0
  4  1  1  0  0  0  0
  4  6  1  0  0  0  0
  5  3  1  0  0  0  0
  6 16  1  1  0  0  0
  6 11  1  0  0  0  0
  7 14  1  0  0  0  0
  7  8  1  0  0  0  0
  9  2  1  0  0  0  0
 10 11  1  0  0  0  0
 10  3  2  0  0  0  0
 12  7  2  0  0  0  0
 13  9  2  0  0  0  0
 13 12  1  0  0  0  0
 14  5  2  0  0  0  0
 15 16  3  0  0  0  0
 17 18  2  0  0  0  0
 19 13  1  0  0  0  0
 20 19  1  0  0  0  0
 21 22  1  1  0  0  0
 21 20  1  0  0  0  0
 23 24  1  0  0  0  0
 23 21  1  0  0  0  0
 25 23  2  0  0  0  0
M  END
>  <MODEL>
4

>  <REMARK>
 VINA RESULT:      -7.6      2.844      6.789
  Name = 
  6 active torsions:
  status: ('A' for Active; 'I' for Inactive)
    1  A    between atoms: C_2  and  C_21
    2  A    between atoms: C_5  and  C_22
    3  A    between atoms: C_6  and  C_15
    4  A    between atoms: C_6  and  C_23
    5  A    between atoms: C_10  and  C_11
    6  A    between atoms: C_15  and  C_21
                            x       y       z     vdW  Elec       q    Type
                         _______ _______ _______ _____ _____    ______ ____

>  <TORSDO>
F 6

$$$$
=
 OpenBabel10262419543D

 25 27  0  0  1  0  0  0  0  0999 V2000
  183.0480  178.5160  140.8680 C   0  0  0  0  0  0  0  0  0  0  0  0
  183.9430  178.4630  141.9460 C   0  0  0  0  0  0  0  0  0  0  0  0
  181.2640  179.1040  142.3690 C   0  0  0  0  0  3  0  0  0  0  0  0
  183.3780  178.1760  139.4520 C   0  0  1  0  0  3  0  0  0  0  0  0
  182.1350  179.0530  143.4180 N   0  0  0  0  0  0  0  0  0  0  0  0
  182.0480  177.9770  138.7130 C   0  0  2  0  0  3  0  0  0  0  0  0
  184.3270  178.6840  144.3480 C   0  0  0  0  0  0  0  0  0  0  0  0
  183.8490  178.9640  145.7310 C   0  0  0  0  0  1  0  0  0  0  0  0
  185.2920  178.1310  141.7680 C   0  0  0  0  0  3  0  0  0  0  0  0
  181.7260  178.8380  141.0820 C   0  0  0  0  0  0  0  0  0  0  0  0
  180.6920  178.8020  139.6370 S   0  0  0  0  0  0  0  0  0  0  0  0
  185.6730  178.3540  144.1510 C   0  0  0  0  0  3  0  0  0  0  0  0
  186.1550  178.0820  142.8660 C   0  0  0  0  0  0  0  0  0  0  0  0
  183.4540  178.7420  143.2460 C   0  0  0  0  0  0  0  0  0  0  0  0
  181.5190  175.3650  138.5050 C   0  0  0  0  0  3  0  0  0  0  0  0
  181.7590  176.5450  138.5960 C   0  0  0  0  0  0  0  0  0  0  0  0
  184.1680  180.4080  139.2360 O   0  0  0  0  0  0  0  0  0  0  0  0
  184.1830  179.2640  138.8040 C   0  0  0  0  0  3  0  0  0  0  0  0
  187.5860  177.7210  142.6730 C   0  0  0  0  0  2  0  0  0  0  0  0
  187.9620  176.5590  143.5770 C   0  0  0  0  0  2  0  0  0  0  0  0
  189.2470  176.8640  144.3260 C   0  0  2  0  0  3  0  0  0  0  0  0
  189.3510  178.2380  144.5370 O   0  0  0  0  0  1  0  0  0  0  0  0
  190.4370  176.3820  143.5650 C   0  0  0  0  0  0  0  0  0  0  0  0
  191.5320  176.9950  143.6650 O   0  0  0  0  0  1  0  0  0  0  0  0
  190.3430  175.2660  142.7440 O   0  0  0  0  0  0  0  0  0  0  0  0
  1 10  2  0  0  0  0
  1  2  1  0  0  0  0
  2 14  1  0  0  0  0
  3  5  2  0  0  0  0
  4 18  1  6  0  0  0
  4  1  1  0  0  0  0
  6 16  1  1  0  0  0
  6  4  1  0  0  0  0
  6 11  1  0  0  0  0
  7  8  1  0  0  0  0
  9  2  2  0  0  0  0
  9 13  1  0  0  0  0
 10  3  1  0  0  0  0
 11 10  1  0  0  0  0
 12  7  1  0  0  0  0
 13 12  2  0  0  0  0
 14  5  1  0  0  0  0
 14  7  2  0  0  0  0
 15 16  3  0  0  0  0
 18 17  2  0  0  0  0
 19 13  1  0  0  0  0
 19 20  1  0  0  0  0
 20 21  1  0  0  0  0
 21 22  1  6  0  0  0
 23 24  1  0  0  0  0
 23 21  1  0  0  0  0
 25 23  2  0  0  0  0
M  END
>  <MODEL>
5

>  <REMARK>
 VINA RESULT:      -7.2      1.506      1.970
  Name = 
  6 active torsions:
  status: ('A' for Active; 'I' for Inactive)
    1  A    between atoms: C_2  and  C_21
    2  A    between atoms: C_5  and  C_22
    3  A    between atoms: C_6  and  C_15
    4  A    between atoms: C_6  and  C_23
    5  A    between atoms: C_10  and  C_11
    6  A    between atoms: C_15  and  C_21
                            x       y       z     vdW  Elec       q    Type
                         _______ _______ _______ _____ _____    ______ ____

>  <TORSDO>
F 6

$$$$
=
 OpenBabel10262419543D

 25 27  0  0  1  0  0  0  0  0999 V2000
  189.6760  177.1750  139.1670 C   0  0  0  0  0  0  0  0  0  0  0  0
  188.9960  177.4010  140.3730 C   0  0  0  0  0  0  0  0  0  0  0  0
  187.9820  178.3950  137.9740 C   0  0  0  0  0  3  0  0  0  0  0  0
  190.9130  176.3520  139.0120 C   0  0  1  0  0  3  0  0  0  0  0  0
  187.3210  178.6150  139.1460 N   0  0  0  0  0  0  0  0  0  0  0  0
  191.0660  176.0430  137.5170 C   0  0  2  0  0  3  0  0  0  0  0  0
  187.0800  178.3750  141.5320 C   0  0  0  0  0  0  0  0  0  0  0  0
  185.8040  179.1450  141.5380 C   0  0  0  0  0  1  0  0  0  0  0  0
  189.4730  176.9030  141.5910 C   0  0  0  0  0  3  0  0  0  0  0  0
  189.1730  177.6720  137.9850 C   0  0  0  0  0  0  0  0  0  0  0  0
  190.1000  177.2520  136.5280 S   0  0  0  0  0  0  0  0  0  0  0  0
  187.5740  177.8730  142.7420 C   0  0  0  0  0  3  0  0  0  0  0  0
  188.7670  177.1440  142.7740 C   0  0  0  0  0  0  0  0  0  0  0  0
  187.7900  178.1430  140.3390 C   0  0  0  0  0  0  0  0  0  0  0  0
  190.1850  173.5690  137.0190 C   0  0  0  0  0  3  0  0  0  0  0  0
  190.5800  174.6870  137.2410 C   0  0  0  0  0  0  0  0  0  0  0  0
  193.2140  176.9490  138.9960 O   0  0  0  0  0  0  0  0  0  0  0  0
  192.1190  177.0800  139.5260 C   0  0  0  0  0  3  0  0  0  0  0  0
  189.2730  176.6060  144.0660 C   0  0  0  0  0  2  0  0  0  0  0  0
  190.0670  177.6710  144.8040 C   0  0  0  0  0  2  0  0  0  0  0  0
  191.4120  177.1210  145.2440 C   0  0  2  0  0  3  0  0  0  0  0  0
  191.7420  176.0150  144.4630 O   0  0  0  0  0  1  0  0  0  0  0  0
  191.3850  176.7290  146.6830 C   0  0  0  0  0  0  0  0  0  0  0  0
  190.3630  176.9690  147.3780 O   0  0  0  0  0  1  0  0  0  0  0  0
  192.4830  176.1070  147.2640 O   0  0  0  0  0  0  0  0  0  0  0  0
  1  2  1  0  0  0  0
  2  9  1  0  0  0  0
  3 10  1  0  0  0  0
  3  5  2  0  0  0  0
  4  1  1  0  0  0  0
  4 18  1  6  0  0  0
  5 14  1  0  0  0  0
  6 16  1  1  0  0  0
  6  4  1  0  0  0  0
  7  8  1  0  0  0  0
  7 12  2  0  0  0  0
  9 13  2  0  0  0  0
 10  1  2  0  0  0  0
 11  6  1  0  0  0  0
 11 10  1  0  0  0  0
 12 13  1  0  0  0  0
 13 19  1  0  0  0  0
 14  2  2  0  0  0  0
 14  7  1  0  0  0  0
 15 16  3  0  0  0  0
 17 18  2  0  0  0  0
 19 20  1  0  0  0  0
 20 21  1  0  0  0  0
 21 22  1  6  0  0  0
 21 23  1  0  0  0  0
 23 25  2  0  0  0  0
 23 24  1  0  0  0  0
M  END
>  <MODEL>
6

>  <REMARK>
 VINA RESULT:      -7.0      4.353      5.961
  Name = 
  6 active torsions:
  status: ('A' for Active; 'I' for Inactive)
    1  A    between atoms: C_2  and  C_21
    2  A    between atoms: C_5  and  C_22
    3  A    between atoms: C_6  and  C_15
    4  A    between atoms: C_6  and  C_23
    5  A    between atoms: C_10  and  C_11
    6  A    between atoms: C_15  and  C_21
                            x       y       z     vdW  Elec       q    Type
                         _______ _______ _______ _____ _____    ______ ____

>  <TORSDO>
F 6

$$$$
=
 OpenBabel10262419543D

 25 27  0  0  1  0  0  0  0  0999 V2000
  186.8430  178.1250  140.1080 C   0  0  0  0  0  0  0  0  0  0  0  0
  186.9490  178.0430  141.5040 C   0  0  0  0  0  0  0  0  0  0  0  0
  184.5610  178.8540  140.3170 C   0  0  0  0  0  3  0  0  0  0  0  0
  187.9050  177.7320  139.1340 C   0  0  1  0  0  3  0  0  0  0  0  0
  184.6650  178.7750  141.6750 N   0  0  0  0  0  0  0  0  0  0  0  0
  187.2320  177.5950  137.7620 C   0  0  2  0  0  3  0  0  0  0  0  0
  185.8950  178.2980  143.6910 C   0  0  0  0  0  0  0  0  0  0  0  0
  184.7270  178.6400  144.5520 C   0  0  0  0  0  1  0  0  0  0  0  0
  188.1300  177.6260  142.1290 C   0  0  0  0  0  3  0  0  0  0  0  0
  185.6620  178.5300  139.5260 C   0  0  0  0  0  0  0  0  0  0  0  0
  185.6470  178.5220  137.7490 S   0  0  0  0  0  0  0  0  0  0  0  0
  187.0850  177.8830  144.2990 C   0  0  0  0  0  3  0  0  0  0  0  0
  188.2000  177.5530  143.5230 C   0  0  0  0  0  0  0  0  0  0  0  0
  185.8200  178.3820  142.2890 C   0  0  0  0  0  0  0  0  0  0  0  0
  186.7570  175.0170  137.2400 C   0  0  0  0  0  3  0  0  0  0  0  0
  186.9740  176.1800  137.4780 C   0  0  0  0  0  0  0  0  0  0  0  0
  189.1020  179.5330  138.1470 O   0  0  0  0  0  0  0  0  0  0  0  0
  189.0030  178.7530  139.0840 C   0  0  0  0  0  3  0  0  0  0  0  0
  189.4560  177.1010  144.1830 C   0  0  0  0  0  2  0  0  0  0  0  0
  189.6790  177.8730  145.4720 C   0  0  0  0  0  2  0  0  0  0  0  0
  189.9010  176.9170  146.6310 C   0  0  2  0  0  3  0  0  0  0  0  0
  189.3750  177.4660  147.7980 O   0  0  0  0  0  1  0  0  0  0  0  0
  191.3540  176.6340  146.8200 C   0  0  0  0  0  0  0  0  0  0  0  0
  191.9940  176.0250  145.9230 O   0  0  0  0  0  0  0  0  0  0  0  0
  192.0030  177.0330  147.9810 O   0  0  0  0  0  1  0  0  0  0  0  0
  1  2  1  0  0  0  0
  2  9  2  0  0  0  0
  2 14  1  0  0  0  0
  3  5  2  0  0  0  0
  4 18  1  6  0  0  0
  4  1  1  0  0  0  0
  5 14  1  0  0  0  0
  6 16  1  1  0  0  0
  6  4  1  0  0  0  0
  7 12  1  0  0  0  0
  7  8  1  0  0  0  0
  9 13  1  0  0  0  0
 10  1  2  0  0  0  0
 10  3  1  0  0  0  0
 11  6  1  0  0  0  0
 11 10  1  0  0  0  0
 13 19  1  0  0  0  0
 13 12  2  0  0  0  0
 14  7  2  0  0  0  0
 15 16  3  0  0  0  0
 17 18  2  0  0  0  0
 19 20  1  0  0  0  0
 20 21  1  0  0  0  0
 21 23  1  0  0  0  0
 21 22  1  1  0  0  0
 23 25  1  0  0  0  0
 24 23  2  0  0  0  0
M  END
>  <MODEL>
7

>  <REMARK>
 VINA RESULT:      -6.8      2.668      3.407
  Name = 
  6 active torsions:
  status: ('A' for Active; 'I' for Inactive)
    1  A    between atoms: C_2  and  C_21
    2  A    between atoms: C_5  and  C_22
    3  A    between atoms: C_6  and  C_15
    4  A    between atoms: C_6  and  C_23
    5  A    between atoms: C_10  and  C_11
    6  A    between atoms: C_15  and  C_21
                            x       y       z     vdW  Elec       q    Type
                         _______ _______ _______ _____ _____    ______ ____

>  <TORSDO>
F 6

$$$$
=
 OpenBabel10262419543D

 25 27  0  0  1  0  0  0  0  0999 V2000
  182.6560  178.1890  140.0740 C   0  0  0  0  0  0  0  0  0  0  0  0
  182.6160  178.4190  141.4570 C   0  0  0  0  0  0  0  0  0  0  0  0
  180.2640  178.4190  139.9600 C   0  0  0  0  0  3  0  0  0  0  0  0
  183.8800  177.8540  139.2870 C   0  0  1  0  0  3  0  0  0  0  0  0
  180.2260  178.6420  141.3040 N   0  0  0  0  0  0  0  0  0  0  0  0
  183.4100  177.2950  137.9370 C   0  0  2  0  0  3  0  0  0  0  0  0
  181.2880  178.8710  143.4560 C   0  0  0  0  0  0  0  0  0  0  0  0
  179.9840  179.1110  144.1370 C   0  0  0  0  0  1  0  0  0  0  0  0
  183.7780  178.4120  142.2380 C   0  0  0  0  0  3  0  0  0  0  0  0
  181.4910  178.1940  139.3380 C   0  0  0  0  0  0  0  0  0  0  0  0
  181.6820  177.8220  137.6110 S   0  0  0  0  0  0  0  0  0  0  0  0
  182.4600  178.8650  144.2200 C   0  0  0  0  0  3  0  0  0  0  0  0
  183.7010  178.6400  143.6150 C   0  0  0  0  0  0  0  0  0  0  0  0
  181.3590  178.6490  142.0680 C   0  0  0  0  0  0  0  0  0  0  0  0
  183.5330  174.6250  137.9710 C   0  0  0  0  0  3  0  0  0  0  0  0
  183.4800  175.8300  137.9590 C   0  0  0  0  0  0  0  0  0  0  0  0
  185.7730  179.0030  138.4250 O   0  0  0  0  0  0  0  0  0  0  0  0
  184.7460  179.0620  139.0850 C   0  0  0  0  0  3  0  0  0  0  0  0
  184.9380  178.6240  144.4420 C   0  0  0  0  0  2  0  0  0  0  0  0
  186.0720  177.9610  143.6800 C   0  0  0  0  0  2  0  0  0  0  0  0
  186.9590  177.1730  144.6280 C   0  0  2  0  0  3  0  0  0  0  0  0
  187.1820  177.9170  145.7850 O   0  0  0  0  0  1  0  0  0  0  0  0
  188.2640  176.8390  143.9860 C   0  0  0  0  0  0  0  0  0  0  0  0
  188.3070  175.9800  143.0670 O   0  0  0  0  0  0  0  0  0  0  0  0
  189.4330  177.4650  144.4010 O   0  0  0  0  0  1  0  0  0  0  0  0
  1  2  1  0  0  0  0
  2 14  2  0  0  0  0
  2  9  1  0  0  0  0
  3  5  2  0  0  0  0
  4 18  1  6  0  0  0
  4  1  1  0  0  0  0
  5 14  1  0  0  0  0
  6 16  1  1  0  0  0
  6  4  1  0  0  0  0
  7  8  1  0  0  0  0
  7 12  2  0  0  0  0
  9 13  2  0  0  0  0
 10  3  1  0  0  0  0
 10  1  2  0  0  0  0
 11  6  1  0  0  0  0
 11 10  1  0  0  0  0
 13 12  1  0  0  0  0
 13 19  1  0  0  0  0
 14  7  1  0  0  0  0
 16 15  3  0  0  0  0
 17 18  2  0  0  0  0
 20 19  1  0  0  0  0
 20 21  1  0  0  0  0
 21 22  1  1  0  0  0
 23 25  1  0  0  0  0
 23 21  1  0  0  0  0
 24 23  2  0  0  0  0
M  END
>  <MODEL>
8

>  <REMARK>
 VINA RESULT:      -6.5      2.090      3.646
  Name = 
  6 active torsions:
  status: ('A' for Active; 'I' for Inactive)
    1  A    between atoms: C_2  and  C_21
    2  A    between atoms: C_5  and  C_22
    3  A    between atoms: C_6  and  C_15
    4  A    between atoms: C_6  and  C_23
    5  A    between atoms: C_10  and  C_11
    6  A    between atoms: C_15  and  C_21
                            x       y       z     vdW  Elec       q    Type
                         _______ _______ _______ _____ _____    ______ ____

>  <TORSDO>
F 6

$$$$
=
 OpenBabel10262419543D

 25 27  0  0  1  0  0  0  0  0999 V2000
  189.1120  177.9610  142.5510 C   0  0  0  0  0  0  0  0  0  0  0  0
  187.7360  178.2270  142.5910 C   0  0  0  0  0  0  0  0  0  0  0  0
  189.0480  177.9490  140.1470 C   0  0  0  0  0  3  0  0  0  0  0  0
  189.9820  177.7240  143.7410 C   0  0  1  0  0  3  0  0  0  0  0  0
  187.7100  178.2090  140.1860 N   0  0  0  0  0  0  0  0  0  0  0  0
  191.2790  177.0800  143.2320 C   0  0  2  0  0  3  0  0  0  0  0  0
  185.6520  178.6070  141.3750 C   0  0  0  0  0  0  0  0  0  0  0  0
  184.8790  178.7380  140.1080 C   0  0  0  0  0  1  0  0  0  0  0  0
  187.0460  178.3600  143.8010 C   0  0  0  0  0  3  0  0  0  0  0  0
  189.7560  177.8280  141.3410 C   0  0  0  0  0  0  0  0  0  0  0  0
  191.4840  177.4230  141.4400 S   0  0  0  0  0  0  0  0  0  0  0  0
  184.9790  178.7410  142.5950 C   0  0  0  0  0  3  0  0  0  0  0  0
  185.6730  178.6220  143.8040 C   0  0  0  0  0  0  0  0  0  0  0  0
  187.0360  178.3510  141.3650 C   0  0  0  0  0  0  0  0  0  0  0  0
  191.1820  174.4390  143.6350 C   0  0  0  0  0  3  0  0  0  0  0  0
  191.2280  175.6310  143.4500 C   0  0  0  0  0  0  0  0  0  0  0  0
  191.1560  179.7640  144.0770 O   0  0  0  0  0  0  0  0  0  0  0  0
  190.2780  179.0050  144.4630 C   0  0  0  0  0  3  0  0  0  0  0  0
  184.9420  178.7530  145.0940 C   0  0  0  0  0  2  0  0  0  0  0  0
  185.4520  177.7300  146.0940 C   0  0  0  0  0  2  0  0  0  0  0  0
  185.9630  178.4200  147.3460 C   0  0  2  0  0  3  0  0  0  0  0  0
  185.8640  179.8010  147.1920 O   0  0  0  0  0  1  0  0  0  0  0  0
  187.3820  178.0470  147.6210 C   0  0  0  0  0  0  0  0  0  0  0  0
  188.0390  177.4070  146.7590 O   0  0  0  0  0  0  0  0  0  0  0  0
  187.9800  178.3970  148.8250 O   0  0  0  0  0  1  0  0  0  0  0  0
  1  2  1  0  0  0  0
  1  4  1  0  0  0  0
  2  9  1  0  0  0  0
  3  5  2  0  0  0  0
  3 10  1  0  0  0  0
  4 18  1  6  0  0  0
  5 14  1  0  0  0  0
  6 16  1  6  0  0  0
  6  4  1  0  0  0  0
  7 12  2  0  0  0  0
  8  7  1  0  0  0  0
  9 13  2  0  0  0  0
 10 11  1  0  0  0  0
 10  1  2  0  0  0  0
 11  6  1  0  0  0  0
 12 13  1  0  0  0  0
 13 19  1  0  0  0  0
 14  7  1  0  0  0  0
 14  2  2  0  0  0  0
 16 15  3  0  0  0  0
 17 18  2  0  0  0  0
 19 20  1  0  0  0  0
 20 21  1  0  0  0  0
 21 22  1  6  0  0  0
 21 23  1  0  0  0  0
 23 25  1  0  0  0  0
 24 23  2  0  0  0  0
M  END
>  <MODEL>
9

>  <REMARK>
 VINA RESULT:      -6.4      3.511      6.275
  Name = 
  6 active torsions:
  status: ('A' for Active; 'I' for Inactive)
    1  A    between atoms: C_2  and  C_21
    2  A    between atoms: C_5  and  C_22
    3  A    between atoms: C_6  and  C_15
    4  A    between atoms: C_6  and  C_23
    5  A    between atoms: C_10  and  C_11
    6  A    between atoms: C_15  and  C_21
                            x       y       z     vdW  Elec       q    Type
                         _______ _______ _______ _____ _____    ______ ____

>  <TORSDO>
F 6

$$$$
