=
 OpenBabel10262421293D

 32 37  0  0  1  0  0  0  0  0999 V2000
  187.9570  177.6000  143.6440 C   0  0  1  0  0  3  0  0  0  0  0  0
  190.7290  177.3370  139.2750 C   0  0  1  0  0  3  0  0  0  0  0  0
  187.0580  178.0610  135.9660 C   0  0  0  0  0  2  0  0  0  0  0  0
  188.0230  177.4250  134.9790 C   0  0  0  0  0  2  0  0  0  0  0  0
  192.8590  176.6630  138.0990 C   0  0  0  0  0  0  0  0  0  0  0  0
  193.4930  176.0950  136.9970 C   0  0  0  0  0  0  0  0  0  0  0  0
  189.7780  176.9220  141.5460 C   0  0  1  0  0  3  0  0  0  0  0  0
  188.7440  178.6370  140.0030 C   0  0  0  0  0  2  0  0  0  0  0  0
  193.7770  175.0870  134.9470 C   0  0  1  0  0  3  0  0  0  0  0  0
  187.8350  178.3540  142.3120 C   0  0  0  0  0  2  0  0  0  0  0  0
  187.7770  178.3770  137.2390 C   0  0  0  0  0  3  0  0  0  0  0  0
  189.4500  177.9640  138.9180 N   0  0  0  0  0  0  0  0  0  0  0  0
  188.7500  177.5900  137.7180 C   0  0  0  0  0  0  0  0  0  0  0  0
  190.7240  176.2880  136.9530 C   0  0  0  0  0  0  0  0  0  0  0  0
  195.1110  175.2910  135.5550 N   0  0  0  0  0  0  0  0  0  0  0  0
  188.2510  176.1060  143.4440 C   0  0  0  0  0  2  0  0  0  0  0  0
  188.4770  177.6320  141.1220 C   0  0  2  0  0  3  0  0  0  0  0  0
  194.8720  175.9040  136.8020 N   0  0  0  0  0  0  0  0  0  0  0  0
  189.5220  175.8570  142.6180 C   0  0  0  0  0  2  0  0  0  0  0  0
  188.5560  176.1340  135.5880 C   0  0  0  0  0  2  0  0  0  0  0  0
  189.2170  176.3580  136.9670 C   0  0  2  0  0  3  0  0  0  0  0  0
  191.4150  175.7020  135.8710 C   0  0  0  0  0  3  0  0  0  0  0  0
  190.4870  176.2820  140.3510 C   0  0  0  0  0  2  0  0  0  0  0  0
  193.6030  177.1200  139.1830 O   0  0  0  0  0  1  0  0  0  0  0  0
  193.5450  173.6660  134.7520 N   0  0  0  0  0  1  0  0  0  0  0  0
  191.4510  176.7580  138.0840 C   0  0  0  0  0  0  0  0  0  0  0  0
  192.8050  175.6280  135.9330 C   0  0  0  0  0  0  0  0  0  0  0  0
  189.0100  178.2620  144.5200 C   0  0  0  0  0  2  0  0  0  0  0  0
  190.2260  177.0400  146.3670 C   0  0  0  0  0  0  0  0  0  0  0  0
  189.0420  177.6310  145.8300 N   0  0  0  0  0  2  0  0  0  0  0  0
  190.1950  176.5190  147.5120 O   0  0  0  0  0  0  0  0  0  0  0  0
  191.5030  177.0280  145.5960 C   0  0  0  0  0  1  0  0  0  0  0  0
  1 28  1  1  0  0  0
  2 23  1  1  0  0  0
  3 11  1  0  0  0  0
  4 20  1  0  0  0  0
  4  3  1  0  0  0  0
  5 24  1  0  0  0  0
  6  5  2  0  0  0  0
  7 23  1  6  0  0  0
  7 19  1  0  0  0  0
  9 25  1  1  0  0  0
  9 15  1  0  0  0  0
  9 27  1  0  0  0  0
 10  1  1  0  0  0  0
 11 13  2  0  0  0  0
 12  2  1  0  0  0  0
 12  8  1  0  0  0  0
 13 12  1  0  0  0  0
 14 21  1  0  0  0  0
 14 26  2  0  0  0  0
 15 18  2  0  0  0  0
 16  1  1  0  0  0  0
 17  8  1  6  0  0  0
 17  7  1  0  0  0  0
 17 10  1  0  0  0  0
 18  6  1  0  0  0  0
 19 16  1  0  0  0  0
 21 20  1  6  0  0  0
 21 13  1  0  0  0  0
 22 27  2  0  0  0  0
 22 14  1  0  0  0  0
 26  5  1  0  0  0  0
 26  2  1  0  0  0  0
 27  6  1  0  0  0  0
 28 30  1  0  0  0  0
 29 31  2  0  0  0  0
 30 29  1  0  0  0  0
 32 29  1  0  0  0  0
M  END
>  <MODEL>
1

>  <REMARK>
 VINA RESULT:      -8.8      0.000      0.000
  Name = 
  2 active torsions:
  status: ('A' for Active; 'I' for Inactive)
    1  A    between atoms: C_2  and  C_24
    2  A    between atoms: N_10  and  C_24
                            x       y       z     vdW  Elec       q    Type
                         _______ _______ _______ _____ _____    ______ ____

>  <TORSDO>
F 2

$$$$
=
 OpenBabel10262421293D

 32 37  0  0  1  0  0  0  0  0999 V2000
  186.0010  177.9600  144.6320 C   0  0  1  0  0  3  0  0  0  0  0  0
  189.2250  177.7520  140.5820 C   0  0  1  0  0  3  0  0  0  0  0  0
  185.8610  177.8380  136.8900 C   0  0  0  0  0  2  0  0  0  0  0  0
  186.9880  177.2580  136.0500 C   0  0  0  0  0  2  0  0  0  0  0  0
  191.5270  177.2590  139.6710 C   0  0  0  0  0  0  0  0  0  0  0  0
  192.3300  176.7010  138.6790 C   0  0  0  0  0  0  0  0  0  0  0  0
  188.0940  177.3700  142.7750 C   0  0  1  0  0  3  0  0  0  0  0  0
  187.0440  178.8540  141.0180 C   0  0  0  0  0  2  0  0  0  0  0  0
  192.9350  175.6080  136.7460 C   0  0  1  0  0  3  0  0  0  0  0  0
  185.9360  178.6110  143.2430 C   0  0  0  0  0  2  0  0  0  0  0  0
  186.4050  178.3140  138.2000 C   0  0  0  0  0  3  0  0  0  0  0  0
  187.9300  178.2020  140.0580 N   0  0  0  0  0  0  0  0  0  0  0  0
  187.4030  177.6760  138.8280 C   0  0  0  0  0  0  0  0  0  0  0  0
  189.5770  176.5670  138.3540 C   0  0  0  0  0  0  0  0  0  0  0  0
  194.1680  176.0030  137.4630 N   0  0  0  0  0  0  0  0  0  0  0  0
  186.4750  176.5010  144.5720 C   0  0  0  0  0  2  0  0  0  0  0  0
  186.7740  177.8960  142.1770 C   0  0  2  0  0  3  0  0  0  0  0  0
  193.7350  176.6600  138.6330 N   0  0  0  0  0  0  0  0  0  0  0  0
  187.8450  176.3500  143.8930 C   0  0  0  0  0  2  0  0  0  0  0  0
  187.5930  176.0780  136.8010 C   0  0  0  0  0  2  0  0  0  0  0  0
  188.0780  176.4620  138.2170 C   0  0  2  0  0  3  0  0  0  0  0  0
  190.4370  176.0000  137.3890 C   0  0  0  0  0  3  0  0  0  0  0  0
  188.9890  176.7440  141.7040 C   0  0  0  0  0  2  0  0  0  0  0  0
  192.1000  177.8650  140.7840 O   0  0  0  0  0  1  0  0  0  0  0  0
  192.8820  174.1610  136.6330 N   0  0  0  0  0  1  0  0  0  0  0  0
  190.1260  177.1880  139.5120 C   0  0  0  0  0  0  0  0  0  0  0  0
  191.8120  176.0920  137.5910 C   0  0  0  0  0  0  0  0  0  0  0  0
  186.8770  178.7930  145.5550 C   0  0  0  0  0  2  0  0  0  0  0  0
  187.9390  177.7810  147.6120 C   0  0  0  0  0  0  0  0  0  0  0  0
  186.7990  178.2840  146.9150 N   0  0  0  0  0  2  0  0  0  0  0  0
  187.8120  177.3650  148.7930 O   0  0  0  0  0  0  0  0  0  0  0  0
  189.2830  177.7380  146.9660 C   0  0  0  0  0  1  0  0  0  0  0  0
  1 28  1  1  0  0  0
  2 23  1  1  0  0  0
  3 11  1  0  0  0  0
  4 20  1  0  0  0  0
  4  3  1  0  0  0  0
  5 24  1  0  0  0  0
  6  5  2  0  0  0  0
  7 23  1  6  0  0  0
  7 19  1  0  0  0  0
  9 25  1  1  0  0  0
  9 15  1  0  0  0  0
  9 27  1  0  0  0  0
 10  1  1  0  0  0  0
 11 13  2  0  0  0  0
 12  2  1  0  0  0  0
 12  8  1  0  0  0  0
 13 12  1  0  0  0  0
 14 26  2  0  0  0  0
 15 18  2  0  0  0  0
 16  1  1  0  0  0  0
 17  8  1  6  0  0  0
 17  7  1  0  0  0  0
 17 10  1  0  0  0  0
 18  6  1  0  0  0  0
 19 16  1  0  0  0  0
 21 20  1  6  0  0  0
 21 14  1  0  0  0  0
 21 13  1  0  0  0  0
 22 27  2  0  0  0  0
 22 14  1  0  0  0  0
 26  5  1  0  0  0  0
 26  2  1  0  0  0  0
 27  6  1  0  0  0  0
 28 30  1  0  0  0  0
 29 31  2  0  0  0  0
 30 29  1  0  0  0  0
 32 29  1  0  0  0  0
M  END
>  <MODEL>
2

>  <REMARK>
 VINA RESULT:      -8.3      1.663      2.108
  Name = 
  2 active torsions:
  status: ('A' for Active; 'I' for Inactive)
    1  A    between atoms: C_2  and  C_24
    2  A    between atoms: N_10  and  C_24
                            x       y       z     vdW  Elec       q    Type
                         _______ _______ _______ _____ _____    ______ ____

>  <TORSDO>
F 2

$$$$
=
 OpenBabel10262421293D

 32 37  0  0  1  0  0  0  0  0999 V2000
  193.4370  174.5630  136.8960 C   0  0  1  0  0  3  0  0  0  0  0  0
  189.8240  177.4780  139.1950 C   0  0  1  0  0  3  0  0  0  0  0  0
  191.7100  177.5730  143.8200 C   0  0  0  0  0  2  0  0  0  0  0  0
  190.2960  177.9510  144.2290 C   0  0  0  0  0  2  0  0  0  0  0  0
  187.5040  178.4750  139.1650 C   0  0  0  0  0  0  0  0  0  0  0  0
  186.3250  178.7900  139.8360 C   0  0  0  0  0  0  0  0  0  0  0  0
  191.0140  175.7760  137.8090 C   0  0  1  0  0  3  0  0  0  0  0  0
  192.2780  177.2160  139.4580 C   0  0  0  0  0  2  0  0  0  0  0  0
  184.7910  178.9760  141.5420 C   0  0  1  0  0  3  0  0  0  0  0  0
  193.5350  175.6220  138.0030 C   0  0  0  0  0  2  0  0  0  0  0  0
  191.8420  177.6560  142.3310 C   0  0  0  0  0  3  0  0  0  0  0  0
  190.9890  177.4800  140.0890 N   0  0  0  0  0  0  0  0  0  0  0  0
  190.8330  177.3320  141.5110 C   0  0  0  0  0  0  0  0  0  0  0  0
  188.3730  177.6010  141.2860 C   0  0  0  0  0  0  0  0  0  0  0  0
  184.1920  179.5430  140.3130 N   0  0  0  0  0  0  0  0  0  0  0  0
  192.2300  173.6320  137.0830 C   0  0  0  0  0  2  0  0  0  0  0  0
  192.2240  175.8580  138.7610 C   0  0  2  0  0  3  0  0  0  0  0  0
  185.1720  179.3970  139.3090 N   0  0  0  0  0  0  0  0  0  0  0  0
  190.8980  174.3950  137.1540 C   0  0  0  0  0  2  0  0  0  0  0  0
  189.3260  176.9700  143.5830 C   0  0  0  0  0  2  0  0  0  0  0  0
  189.4780  176.9110  142.0470 C   0  0  2  0  0  3  0  0  0  0  0  0
  187.1490  177.9220  141.9120 C   0  0  0  0  0  3  0  0  0  0  0  0
  189.7060  176.1110  138.5280 C   0  0  0  0  0  2  0  0  0  0  0  0
  187.6410  178.7560  137.8090 O   0  0  0  0  0  1  0  0  0  0  0  0
  183.9990  177.8440  141.9890 N   0  0  0  0  0  1  0  0  0  0  0  0
  188.5460  177.8650  139.8970 C   0  0  0  0  0  0  0  0  0  0  0  0
  186.1500  178.5210  141.1480 C   0  0  0  0  0  0  0  0  0  0  0  0
  193.4140  175.2370  135.5330 C   0  0  0  0  0  2  0  0  0  0  0  0
  195.1910  177.0010  135.1930 C   0  0  0  0  0  0  0  0  0  0  0  0
  193.8950  176.6060  135.6430 N   0  0  0  0  0  2  0  0  0  0  0  0
  195.5480  178.2020  135.3040 O   0  0  0  0  0  0  0  0  0  0  0  0
  196.1360  176.0130  134.5940 C   0  0  0  0  0  1  0  0  0  0  0  0
  1 28  1  6  0  0  0
  1 16  1  0  0  0  0
  1 10  1  0  0  0  0
  2 23  1  1  0  0  0
  2 26  1  0  0  0  0
  2 12  1  0  0  0  0
  3  4  1  0  0  0  0
  5  6  2  0  0  0  0
  5 26  1  0  0  0  0
  6 27  1  0  0  0  0
  7 19  1  1  0  0  0
  7 23  1  0  0  0  0
  7 17  1  0  0  0  0
  8 12  1  0  0  0  0
  9 25  1  6  0  0  0
 11  3  1  0  0  0  0
 12 13  1  0  0  0  0
 13 21  1  0  0  0  0
 13 11  2  0  0  0  0
 14 22  1  0  0  0  0
 14 21  1  0  0  0  0
 15  9  1  0  0  0  0
 16 19  1  0  0  0  0
 17 10  1  6  0  0  0
 17  8  1  0  0  0  0
 18  6  1  0  0  0  0
 18 15  2  0  0  0  0
 20  4  1  0  0  0  0
 21 20  1  1  0  0  0
 24  5  1  0  0  0  0
 26 14  2  0  0  0  0
 27  9  1  0  0  0  0
 27 22  2  0  0  0  0
 28 30  1  0  0  0  0
 29 31  2  0  0  0  0
 29 30  1  0  0  0  0
 32 29  1  0  0  0  0
M  END
>  <MODEL>
3

>  <REMARK>
 VINA RESULT:      -8.3      2.856      8.353
  Name = 
  2 active torsions:
  status: ('A' for Active; 'I' for Inactive)
    1  A    between atoms: C_2  and  C_24
    2  A    between atoms: N_10  and  C_24
                            x       y       z     vdW  Elec       q    Type
                         _______ _______ _______ _____ _____    ______ ____

>  <TORSDO>
F 2

$$$$
=
 OpenBabel10262421293D

 32 37  0  0  1  0  0  0  0  0999 V2000
  182.4390  178.4830  138.7810 C   0  0  1  0  0  3  0  0  0  0  0  0
  185.7350  178.7850  142.7670 C   0  0  1  0  0  3  0  0  0  0  0  0
  189.9460  177.4980  140.4070 C   0  0  0  0  0  2  0  0  0  0  0  0
  190.4570  177.1830  141.8040 C   0  0  0  0  0  2  0  0  0  0  0  0
  186.1140  178.8850  145.2600 C   0  0  0  0  0  0  0  0  0  0  0  0
  186.8350  178.4810  146.3820 C   0  0  0  0  0  0  0  0  0  0  0  0
  183.7560  178.3290  141.3150 C   0  0  1  0  0  3  0  0  0  0  0  0
  185.8960  179.2490  140.3330 C   0  0  0  0  0  2  0  0  0  0  0  0
  188.4160  177.4100  147.6660 C   0  0  1  0  0  3  0  0  0  0  0  0
  183.9040  178.9350  138.8600 C   0  0  0  0  0  2  0  0  0  0  0  0
  188.6550  178.2480  140.5020 C   0  0  0  0  0  3  0  0  0  0  0  0
  186.5560  178.7830  141.5490 N   0  0  0  0  0  0  0  0  0  0  0  0
  187.7580  177.9980  141.4660 C   0  0  0  0  0  0  0  0  0  0  0  0
  187.6350  177.5220  143.9020 C   0  0  0  0  0  0  0  0  0  0  0  0
  187.5600  178.2200  148.5610 N   0  0  0  0  0  0  0  0  0  0  0  0
  182.1690  177.2260  139.6210 C   0  0  0  0  0  2  0  0  0  0  0  0
  184.6650  178.3840  140.0710 C   0  0  2  0  0  3  0  0  0  0  0  0
  186.6140  178.8440  147.7220 N   0  0  0  0  0  0  0  0  0  0  0  0
  182.5500  177.4070  141.0990 C   0  0  0  0  0  2  0  0  0  0  0  0
  189.4230  176.3170  142.5130 C   0  0  0  0  0  2  0  0  0  0  0  0
  188.0260  176.9740  142.5530 C   0  0  2  0  0  3  0  0  0  0  0  0
  188.3180  177.1280  145.0730 C   0  0  0  0  0  3  0  0  0  0  0  0
  184.5250  177.8790  142.5580 C   0  0  0  0  0  2  0  0  0  0  0  0
  185.0300  179.7470  145.3920 O   0  0  0  0  0  1  0  0  0  0  0  0
  188.2960  176.0060  148.0180 N   0  0  0  0  0  1  0  0  0  0  0  0
  186.5140  178.3960  143.9980 C   0  0  0  0  0  0  0  0  0  0  0  0
  187.8840  177.6360  146.2960 C   0  0  0  0  0  0  0  0  0  0  0  0
  181.5210  179.6280  139.1820 C   0  0  0  0  0  2  0  0  0  0  0  0
  180.9330  181.9330  138.3300 C   0  0  0  0  0  0  0  0  0  0  0  0
  181.8070  180.8050  138.3770 N   0  0  0  0  0  2  0  0  0  0  0  0
  181.2400  182.9280  137.6240 O   0  0  0  0  0  0  0  0  0  0  0  0
  179.6570  181.9550  139.1030 C   0  0  0  0  0  1  0  0  0  0  0  0
  1 10  1  0  0  0  0
  1 28  1  1  0  0  0
  1 16  1  0  0  0  0
  2 23  1  6  0  0  0
  2 26  1  0  0  0  0
  3 11  1  0  0  0  0
  3  4  1  0  0  0  0
  4 20  1  0  0  0  0
  5 24  1  0  0  0  0
  5  6  1  0  0  0  0
  6 18  1  0  0  0  0
  7 19  1  6  0  0  0
  7 23  1  0  0  0  0
  8 12  1  0  0  0  0
  9 25  1  1  0  0  0
  9 15  1  0  0  0  0
 11 13  2  0  0  0  0
 12  2  1  0  0  0  0
 13 12  1  0  0  0  0
 13 21  1  0  0  0  0
 14 26  1  0  0  0  0
 14 22  2  0  0  0  0
 16 19  1  0  0  0  0
 17 10  1  6  0  0  0
 17  8  1  0  0  0  0
 17  7  1  0  0  0  0
 18 15  2  0  0  0  0
 21 20  1  1  0  0  0
 21 14  1  0  0  0  0
 22 27  1  0  0  0  0
 26  5  2  0  0  0  0
 27  6  2  0  0  0  0
 27  9  1  0  0  0  0
 29 30  1  0  0  0  0
 29 32  1  0  0  0  0
 30 28  1  0  0  0  0
 31 29  2  0  0  0  0
M  END
>  <MODEL>
4

>  <REMARK>
 VINA RESULT:      -7.9      5.108      9.507
  Name = 
  2 active torsions:
  status: ('A' for Active; 'I' for Inactive)
    1  A    between atoms: C_2  and  C_24
    2  A    between atoms: N_10  and  C_24
                            x       y       z     vdW  Elec       q    Type
                         _______ _______ _______ _____ _____    ______ ____

>  <TORSDO>
F 2

$$$$
=
 OpenBabel10262421293D

 32 37  0  0  1  0  0  0  0  0999 V2000
  183.5810  179.2070  144.7170 C   0  0  1  0  0  3  0  0  0  0  0  0
  187.9640  177.2770  142.7410 C   0  0  1  0  0  3  0  0  0  0  0  0
  190.5730  176.7530  146.9690 C   0  0  0  0  0  2  0  0  0  0  0  0
  191.7800  176.7330  146.0460 C   0  0  0  0  0  2  0  0  0  0  0  0
  189.4420  176.8770  140.7340 C   0  0  0  0  0  0  0  0  0  0  0  0
  190.7130  176.8640  140.1640 C   0  0  0  0  0  0  0  0  0  0  0  0
  185.9060  178.6280  143.1560 C   0  0  1  0  0  3  0  0  0  0  0  0
  186.7040  176.9330  144.8520 C   0  0  0  0  0  2  0  0  0  0  0  0
  192.9960  177.0680  139.9650 C   0  0  1  0  0  3  0  0  0  0  0  0
  184.5690  178.1620  145.2560 C   0  0  0  0  0  2  0  0  0  0  0  0
  189.3200  176.6300  146.1590 C   0  0  0  0  0  3  0  0  0  0  0  0
  187.9990  176.9960  144.1820 N   0  0  0  0  0  0  0  0  0  0  0  0
  189.2030  177.1870  144.9460 C   0  0  0  0  0  0  0  0  0  0  0  0
  190.4970  177.5260  142.8510 C   0  0  0  0  0  0  0  0  0  0  0  0
  192.4500  176.6580  138.6520 N   0  0  0  0  0  0  0  0  0  0  0  0
  184.2920  180.4050  144.0730 C   0  0  0  0  0  2  0  0  0  0  0  0
  185.9730  178.2580  144.6510 C   0  0  2  0  0  3  0  0  0  0  0  0
  191.0550  176.5540  138.8360 N   0  0  0  0  0  0  0  0  0  0  0  0
  185.2400  179.9910  142.9360 C   0  0  0  0  0  2  0  0  0  0  0  0
  191.6800  177.9190  145.0940 C   0  0  0  0  0  2  0  0  0  0  0  0
  190.3560  177.9290  144.2980 C   0  0  2  0  0  3  0  0  0  0  0  0
  191.7590  177.5170  142.2180 C   0  0  0  0  0  3  0  0  0  0  0  0
  187.2920  178.6280  142.5100 C   0  0  0  0  0  2  0  0  0  0  0  0
  188.3220  176.5630  139.9700 O   0  0  0  0  0  1  0  0  0  0  0  0
  193.6430  178.3630  139.8380 N   0  0  0  0  0  1  0  0  0  0  0  0
  189.3270  177.2190  142.0990 C   0  0  0  0  0  0  0  0  0  0  0  0
  191.8210  177.1760  140.8690 C   0  0  0  0  0  0  0  0  0  0  0  0
  182.6080  178.5500  143.7500 C   0  0  0  0  0  2  0  0  0  0  0  0
  180.3990  179.6500  143.2080 C   0  0  0  0  0  0  0  0  0  0  0  0
  181.8170  179.5630  143.0690 N   0  0  0  0  0  2  0  0  0  0  0  0
  179.7700  180.5560  142.6030 O   0  0  0  0  0  0  0  0  0  0  0  0
  179.6450  178.6840  144.0580 C   0  0  0  0  0  1  0  0  0  0  0  0
  1 28  1  6  0  0  0
  1 10  1  0  0  0  0
  2 23  1  1  0  0  0
  2 12  1  0  0  0  0
  4  3  1  0  0  0  0
  5 26  1  0  0  0  0
  6  5  2  0  0  0  0
  6 27  1  0  0  0  0
  7 23  1  1  0  0  0
  7 17  1  0  0  0  0
  9 25  1  6  0  0  0
  9 27  1  0  0  0  0
 11  3  1  0  0  0  0
 12  8  1  0  0  0  0
 12 13  1  0  0  0  0
 13 11  2  0  0  0  0
 14 21  1  0  0  0  0
 15 18  2  0  0  0  0
 15  9  1  0  0  0  0
 16  1  1  0  0  0  0
 17  8  1  6  0  0  0
 17 10  1  0  0  0  0
 18  6  1  0  0  0  0
 19  7  1  0  0  0  0
 19 16  1  0  0  0  0
 20  4  1  0  0  0  0
 21 13  1  0  0  0  0
 21 20  1  1  0  0  0
 22 14  1  0  0  0  0
 24  5  1  0  0  0  0
 26  2  1  0  0  0  0
 26 14  2  0  0  0  0
 27 22  2  0  0  0  0
 29 32  1  0  0  0  0
 30 29  1  0  0  0  0
 30 28  1  0  0  0  0
 31 29  2  0  0  0  0
M  END
>  <MODEL>
5

>  <REMARK>
 VINA RESULT:      -7.6      4.100      7.174
  Name = 
  2 active torsions:
  status: ('A' for Active; 'I' for Inactive)
    1  A    between atoms: C_2  and  C_24
    2  A    between atoms: N_10  and  C_24
                            x       y       z     vdW  Elec       q    Type
                         _______ _______ _______ _____ _____    ______ ____

>  <TORSDO>
F 2

$$$$
=
 OpenBabel10262421293D

 32 37  0  0  1  0  0  0  0  0999 V2000
  186.7260  178.1320  147.3360 C   0  0  1  0  0  3  0  0  0  0  0  0
  185.4900  178.8160  142.3520 C   0  0  1  0  0  3  0  0  0  0  0  0
  180.5620  179.4680  142.8420 C   0  0  0  0  0  2  0  0  0  0  0  0
  180.5170  179.1010  141.3680 C   0  0  0  0  0  2  0  0  0  0  0  0
  186.1150  178.5930  139.9160 C   0  0  0  0  0  0  0  0  0  0  0  0
  185.7570  178.2640  138.6110 C   0  0  0  0  0  0  0  0  0  0  0  0
  186.4700  177.9840  144.4920 C   0  0  1  0  0  3  0  0  0  0  0  0
  184.6440  179.7320  144.4980 C   0  0  0  0  0  2  0  0  0  0  0  0
  184.4720  177.5800  136.8280 C   0  0  1  0  0  3  0  0  0  0  0  0
  185.6810  179.0300  146.6590 C   0  0  0  0  0  2  0  0  0  0  0  0
  181.9790  179.7090  143.2570 C   0  0  0  0  0  3  0  0  0  0  0  0
  184.3480  179.3070  143.1330 N   0  0  0  0  0  0  0  0  0  0  0  0
  182.9980  179.0030  142.7450 C   0  0  0  0  0  0  0  0  0  0  0  0
  183.8090  178.0880  140.5810 C   0  0  0  0  0  0  0  0  0  0  0  0
  185.8340  177.8800  136.3320 N   0  0  0  0  0  0  0  0  0  0  0  0
  186.7820  176.7300  146.7130 C   0  0  0  0  0  2  0  0  0  0  0  0
  185.2660  178.5630  145.2600 C   0  0  2  0  0  3  0  0  0  0  0  0
  186.5700  178.2870  137.4650 N   0  0  0  0  0  0  0  0  0  0  0  0
  187.0660  176.7630  145.2030 C   0  0  0  0  0  2  0  0  0  0  0  0
  181.3240  177.8250  141.1620 C   0  0  0  0  0  2  0  0  0  0  0  0
  182.7760  177.9530  141.6720 C   0  0  2  0  0  3  0  0  0  0  0  0
  183.5050  177.7470  139.2460 C   0  0  0  0  0  3  0  0  0  0  0  0
  186.0980  177.6070  143.0570 C   0  0  0  0  0  2  0  0  0  0  0  0
  187.4120  179.0000  140.2100 O   0  0  0  0  0  1  0  0  0  0  0  0
  184.1680  176.1790  136.5930 N   0  0  0  0  0  1  0  0  0  0  0  0
  185.1290  178.5000  140.9220 C   0  0  0  0  0  0  0  0  0  0  0  0
  184.5120  177.8520  138.2880 C   0  0  0  0  0  0  0  0  0  0  0  0
  188.0880  178.8090  147.3090 C   0  0  0  0  0  2  0  0  0  0  0  0
  190.1690  177.3860  147.1460 C   0  0  0  0  0  0  0  0  0  0  0  0
  189.0920  177.9400  147.9020 N   0  0  0  0  0  2  0  0  0  0  0  0
  191.0140  176.6500  147.7170 O   0  0  0  0  0  0  0  0  0  0  0  0
  190.3120  177.6620  145.6870 C   0  0  0  0  0  1  0  0  0  0  0  0
  1 28  1  6  0  0  0
  2 23  1  1  0  0  0
  2 12  1  0  0  0  0
  3 11  1  0  0  0  0
  4  3  1  0  0  0  0
  5 24  1  0  0  0  0
  5 26  1  0  0  0  0
  6  5  2  0  0  0  0
  7 23  1  6  0  0  0
  7 19  1  0  0  0  0
  7 17  1  0  0  0  0
  9 25  1  1  0  0  0
  9 27  1  0  0  0  0
 10  1  1  0  0  0  0
 12  8  1  0  0  0  0
 13 12  1  0  0  0  0
 13 11  2  0  0  0  0
 14 26  2  0  0  0  0
 14 21  1  0  0  0  0
 15  9  1  0  0  0  0
 15 18  2  0  0  0  0
 16  1  1  0  0  0  0
 17  8  1  6  0  0  0
 17 10  1  0  0  0  0
 18  6  1  0  0  0  0
 19 16  1  0  0  0  0
 20  4  1  0  0  0  0
 21 20  1  6  0  0  0
 21 13  1  0  0  0  0
 22 14  1  0  0  0  0
 26  2  1  0  0  0  0
 27  6  1  0  0  0  0
 27 22  2  0  0  0  0
 28 30  1  0  0  0  0
 29 31  2  0  0  0  0
 29 30  1  0  0  0  0
 32 29  1  0  0  0  0
M  END
>  <MODEL>
6

>  <REMARK>
 VINA RESULT:      -7.1      5.212      6.974
  Name = 
  2 active torsions:
  status: ('A' for Active; 'I' for Inactive)
    1  A    between atoms: C_2  and  C_24
    2  A    between atoms: N_10  and  C_24
                            x       y       z     vdW  Elec       q    Type
                         _______ _______ _______ _____ _____    ______ ____

>  <TORSDO>
F 2

$$$$
=
 OpenBabel10262421293D

 32 37  0  0  1  0  0  0  0  0999 V2000
  186.2700  177.8910  145.8520 C   0  0  1  0  0  3  0  0  0  0  0  0
  186.5850  178.6280  140.7330 C   0  0  1  0  0  3  0  0  0  0  0  0
  181.7120  178.9470  139.6800 C   0  0  0  0  0  2  0  0  0  0  0  0
  182.1490  178.6180  138.2620 C   0  0  0  0  0  2  0  0  0  0  0  0
  187.9440  178.5120  138.6090 C   0  0  0  0  0  0  0  0  0  0  0  0
  188.0280  178.1950  137.2550 C   0  0  0  0  0  0  0  0  0  0  0  0
  186.9140  177.8040  143.0670 C   0  0  1  0  0  3  0  0  0  0  0  0
  185.0570  179.4290  142.5180 C   0  0  0  0  0  2  0  0  0  0  0  0
  187.4070  177.4780  135.1580 C   0  0  1  0  0  3  0  0  0  0  0  0
  185.4240  178.7380  144.8900 C   0  0  0  0  0  2  0  0  0  0  0  0
  182.9130  179.2670  140.5140 C   0  0  0  0  0  3  0  0  0  0  0  0
  185.2270  179.0230  141.1260 N   0  0  0  0  0  0  0  0  0  0  0  0
  184.0860  178.6430  140.3380 C   0  0  0  0  0  0  0  0  0  0  0  0
  185.5860  177.8410  138.5260 C   0  0  0  0  0  0  0  0  0  0  0  0
  188.8310  177.8780  135.1100 N   0  0  0  0  0  0  0  0  0  0  0  0
  186.6130  176.5130  145.2680 C   0  0  0  0  0  2  0  0  0  0  0  0
  185.4940  178.2820  143.4280 C   0  0  2  0  0  3  0  0  0  0  0  0
  189.1520  178.3010  136.4170 N   0  0  0  0  0  0  0  0  0  0  0  0
  187.3450  176.6050  143.9200 C   0  0  0  0  0  2  0  0  0  0  0  0
  183.0670  177.4020  138.3080 C   0  0  0  0  0  2  0  0  0  0  0  0
  184.2790  177.6100  139.2430 C   0  0  2  0  0  3  0  0  0  0  0  0
  185.7320  177.5170  137.1600 C   0  0  0  0  0  3  0  0  0  0  0  0
  187.0280  177.4420  141.5850 C   0  0  0  0  0  2  0  0  0  0  0  0
  189.0560  178.9930  139.2920 O   0  0  0  0  0  1  0  0  0  0  0  0
  187.2880  176.0670  134.8330 N   0  0  0  0  0  1  0  0  0  0  0  0
  186.7050  178.3280  139.2600 C   0  0  0  0  0  0  0  0  0  0  0  0
  186.9750  177.7120  136.5610 C   0  0  0  0  0  0  0  0  0  0  0  0
  187.5230  178.6550  146.2510 C   0  0  0  0  0  2  0  0  0  0  0  0
  189.7130  177.4480  146.6160 C   0  0  0  0  0  0  0  0  0  0  0  0
  188.3980  177.8050  147.0430 N   0  0  0  0  0  2  0  0  0  0  0  0
  190.4280  176.7180  147.3500 O   0  0  0  0  0  0  0  0  0  0  0  0
  190.2570  177.9230  145.3110 C   0  0  0  0  0  1  0  0  0  0  0  0
  1 28  1  6  0  0  0
  2 12  1  0  0  0  0
  2 23  1  1  0  0  0
  3 11  1  0  0  0  0
  4 20  1  0  0  0  0
  4  3  1  0  0  0  0
  5 26  1  0  0  0  0
  5 24  1  0  0  0  0
  6  5  2  0  0  0  0
  7 23  1  6  0  0  0
  7 17  1  0  0  0  0
  7 19  1  0  0  0  0
  9 25  1  1  0  0  0
  9 27  1  0  0  0  0
 10  1  1  0  0  0  0
 12  8  1  0  0  0  0
 13 11  2  0  0  0  0
 13 12  1  0  0  0  0
 14 21  1  0  0  0  0
 14 26  2  0  0  0  0
 15  9  1  0  0  0  0
 15 18  2  0  0  0  0
 16  1  1  0  0  0  0
 17  8  1  6  0  0  0
 17 10  1  0  0  0  0
 18  6  1  0  0  0  0
 19 16  1  0  0  0  0
 21 20  1  6  0  0  0
 21 13  1  0  0  0  0
 22 14  1  0  0  0  0
 26  2  1  0  0  0  0
 27 22  2  0  0  0  0
 27  6  1  0  0  0  0
 28 30  1  0  0  0  0
 29 30  1  0  0  0  0
 29 31  2  0  0  0  0
 32 29  1  0  0  0  0
M  END
>  <MODEL>
7

>  <REMARK>
 VINA RESULT:      -6.7      3.552      4.909
  Name = 
  2 active torsions:
  status: ('A' for Active; 'I' for Inactive)
    1  A    between atoms: C_2  and  C_24
    2  A    between atoms: N_10  and  C_24
                            x       y       z     vdW  Elec       q    Type
                         _______ _______ _______ _____ _____    ______ ____

>  <TORSDO>
F 2

$$$$
=
 OpenBabel10262421293D

 32 37  0  0  1  0  0  0  0  0999 V2000
  189.2440  176.7810  136.5000 C   0  0  1  0  0  3  0  0  0  0  0  0
  184.5550  177.3330  138.6310 C   0  0  1  0  0  3  0  0  0  0  0  0
  181.7450  176.4610  134.5940 C   0  0  0  0  0  2  0  0  0  0  0  0
  180.6600  177.1830  135.3760 C   0  0  0  0  0  2  0  0  0  0  0  0
  183.1280  178.1720  140.5370 C   0  0  0  0  0  0  0  0  0  0  0  0
  181.9710  178.8090  140.9800 C   0  0  0  0  0  0  0  0  0  0  0  0
  186.9450  177.6280  137.9750 C   0  0  1  0  0  3  0  0  0  0  0  0
  185.4980  175.8910  136.8450 C   0  0  0  0  0  2  0  0  0  0  0  0
  179.9370  179.8850  140.9220 C   0  0  1  0  0  3  0  0  0  0  0  0
  187.9160  176.0550  136.2430 C   0  0  0  0  0  2  0  0  0  0  0  0
  182.8990  176.1590  135.4970 C   0  0  0  0  0  3  0  0  0  0  0  0
  184.3510  176.6350  137.3560 N   0  0  0  0  0  0  0  0  0  0  0  0
  183.2700  176.9940  136.4780 C   0  0  0  0  0  0  0  0  0  0  0  0
  182.2920  178.4400  138.2470 C   0  0  0  0  0  0  0  0  0  0  0  0
  180.3530  179.7510  142.3360 N   0  0  0  0  0  0  0  0  0  0  0  0
  189.0580  178.2950  136.6730 C   0  0  0  0  0  2  0  0  0  0  0  0
  186.6760  176.8470  136.6730 C   0  0  2  0  0  3  0  0  0  0  0  0
  181.5990  179.0920  142.3060 N   0  0  0  0  0  0  0  0  0  0  0  0
  188.0780  178.6460  137.8030 C   0  0  0  0  0  2  0  0  0  0  0  0
  181.2360  178.4890  135.9090 C   0  0  0  0  0  2  0  0  0  0  0  0
  182.5050  178.2730  136.7630 C   0  0  2  0  0  3  0  0  0  0  0  0
  181.1470  179.0960  138.7480 C   0  0  0  0  0  3  0  0  0  0  0  0
  185.6890  178.3420  138.4750 C   0  0  0  0  0  2  0  0  0  0  0  0
  184.0850  177.7360  141.4480 O   0  0  0  0  0  1  0  0  0  0  0  0
  179.8230  181.2920  140.5810 N   0  0  0  0  0  1  0  0  0  0  0  0
  183.2980  177.9870  139.1480 C   0  0  0  0  0  0  0  0  0  0  0  0
  181.0250  179.2580  140.1270 C   0  0  0  0  0  0  0  0  0  0  0  0
  189.9480  176.1650  137.7000 C   0  0  0  0  0  2  0  0  0  0  0  0
  192.4690  176.1140  137.8600 C   0  0  0  0  0  0  0  0  0  0  0  0
  191.2280  176.8190  137.9200 N   0  0  0  0  0  2  0  0  0  0  0  0
  193.5460  176.7360  138.0480 O   0  0  0  0  0  0  0  0  0  0  0  0
  192.5130  174.6490  137.5800 C   0  0  0  0  0  1  0  0  0  0  0  0
  1 16  1  0  0  0  0
  1 28  1  1  0  0  0
  2 23  1  6  0  0  0
  2 26  1  0  0  0  0
  3  4  1  0  0  0  0
  3 11  1  0  0  0  0
  4 20  1  0  0  0  0
  5  6  1  0  0  0  0
  5 24  1  0  0  0  0
  6 18  1  0  0  0  0
  7 19  1  6  0  0  0
  7 23  1  0  0  0  0
  8 12  1  0  0  0  0
  9 25  1  6  0  0  0
  9 15  1  0  0  0  0
 10  1  1  0  0  0  0
 11 13  2  0  0  0  0
 12  2  1  0  0  0  0
 13 21  1  0  0  0  0
 13 12  1  0  0  0  0
 14 22  2  0  0  0  0
 14 26  1  0  0  0  0
 16 19  1  0  0  0  0
 17 10  1  1  0  0  0
 17  8  1  0  0  0  0
 17  7  1  0  0  0  0
 18 15  2  0  0  0  0
 21 20  1  6  0  0  0
 21 14  1  0  0  0  0
 22 27  1  0  0  0  0
 26  5  2  0  0  0  0
 27  9  1  0  0  0  0
 27  6  2  0  0  0  0
 28 30  1  0  0  0  0
 29 30  1  0  0  0  0
 29 31  2  0  0  0  0
 32 29  1  0  0  0  0
M  END
>  <MODEL>
8

>  <REMARK>
 VINA RESULT:      -6.0      5.196      9.368
  Name = 
  2 active torsions:
  status: ('A' for Active; 'I' for Inactive)
    1  A    between atoms: C_2  and  C_24
    2  A    between atoms: N_10  and  C_24
                            x       y       z     vdW  Elec       q    Type
                         _______ _______ _______ _____ _____    ______ ____

>  <TORSDO>
F 2

$$$$
=
 OpenBabel10262421293D

 32 37  0  0  1  0  0  0  0  0999 V2000
  191.9900  177.0680  145.1470 C   0  0  1  0  0  3  0  0  0  0  0  0
  187.8910  177.3520  141.9920 C   0  0  1  0  0  3  0  0  0  0  0  0
  190.2110  176.6650  137.6210 C   0  0  0  0  0  2  0  0  0  0  0  0
  188.9660  177.3050  137.0290 C   0  0  0  0  0  2  0  0  0  0  0  0
  185.4870  178.0260  141.6210 C   0  0  0  0  0  0  0  0  0  0  0  0
  184.5140  178.6000  140.8060 C   0  0  0  0  0  0  0  0  0  0  0  0
  189.5610  177.7540  143.8040 C   0  0  1  0  0  3  0  0  0  0  0  0
  190.0080  176.0550  141.9870 C   0  0  0  0  0  2  0  0  0  0  0  0
  183.5450  179.6220  138.9850 C   0  0  1  0  0  3  0  0  0  0  0  0
  191.6510  176.3240  143.8480 C   0  0  0  0  0  2  0  0  0  0  0  0
  189.9700  176.3370  139.0610 C   0  0  0  0  0  3  0  0  0  0  0  0
  188.9720  176.7320  141.2140 N   0  0  0  0  0  0  0  0  0  0  0  0
  189.2190  177.1170  139.8510 C   0  0  0  0  0  0  0  0  0  0  0  0
  187.1010  178.4180  139.8170 C   0  0  0  0  0  0  0  0  0  0  0  0
  182.4990  179.4080  140.0110 N   0  0  0  0  0  0  0  0  0  0  0  0
  191.6450  178.5620  145.0720 C   0  0  0  0  0  2  0  0  0  0  0  0
  190.6400  177.0520  142.9560 C   0  0  2  0  0  3  0  0  0  0  0  0
  183.1520  178.7870  141.0960 N   0  0  0  0  0  0  0  0  0  0  0  0
  190.1670  178.8130  144.7330 C   0  0  0  0  0  2  0  0  0  0  0  0
  188.6710  178.5890  137.7940 C   0  0  0  0  0  2  0  0  0  0  0  0
  188.5220  178.3530  139.3140 C   0  0  2  0  0  3  0  0  0  0  0  0
  186.0810  179.0090  139.0400 C   0  0  0  0  0  3  0  0  0  0  0  0
  188.4860  178.4000  142.9290 C   0  0  0  0  0  2  0  0  0  0  0  0
  185.1590  177.5590  142.8900 O   0  0  0  0  0  1  0  0  0  0  0  0
  183.6950  181.0450  138.7340 N   0  0  0  0  0  1  0  0  0  0  0  0
  186.8050  177.9360  141.1240 C   0  0  0  0  0  0  0  0  0  0  0  0
  184.7960  179.0780  139.5750 C   0  0  0  0  0  0  0  0  0  0  0  0
  191.3010  176.3950  146.3250 C   0  0  0  0  0  2  0  0  0  0  0  0
  189.7480  177.5890  147.9210 C   0  0  0  0  0  0  0  0  0  0  0  0
  191.0500  177.3660  147.3800 N   0  0  0  0  0  2  0  0  0  0  0  0
  189.5940  178.4340  148.8400 O   0  0  0  0  0  0  0  0  0  0  0  0
  188.5610  176.8400  147.4140 C   0  0  0  0  0  1  0  0  0  0  0  0
  1 28  1  1  0  0  0
  2 23  1  6  0  0  0
  3 11  1  0  0  0  0
  4  3  1  0  0  0  0
  4 20  1  0  0  0  0
  5 24  1  0  0  0  0
  6 18  1  0  0  0  0
  6  5  2  0  0  0  0
  7 23  1  6  0  0  0
  7 19  1  0  0  0  0
  9 25  1  1  0  0  0
  9 27  1  0  0  0  0
  9 15  1  0  0  0  0
 10  1  1  0  0  0  0
 11 13  2  0  0  0  0
 12  8  1  0  0  0  0
 12  2  1  0  0  0  0
 13 12  1  0  0  0  0
 14 26  2  0  0  0  0
 15 18  2  0  0  0  0
 16  1  1  0  0  0  0
 17  8  1  6  0  0  0
 17  7  1  0  0  0  0
 17 10  1  0  0  0  0
 19 16  1  0  0  0  0
 21 20  1  6  0  0  0
 21 14  1  0  0  0  0
 21 13  1  0  0  0  0
 22 27  2  0  0  0  0
 22 14  1  0  0  0  0
 26  5  1  0  0  0  0
 26  2  1  0  0  0  0
 27  6  1  0  0  0  0
 28 30  1  0  0  0  0
 29 31  2  0  0  0  0
 30 29  1  0  0  0  0
 32 29  1  0  0  0  0
M  END
>  <MODEL>
9

>  <REMARK>
 VINA RESULT:      -5.9      3.518      6.509
  Name = 
  2 active torsions:
  status: ('A' for Active; 'I' for Inactive)
    1  A    between atoms: C_2  and  C_24
    2  A    between atoms: N_10  and  C_24
                            x       y       z     vdW  Elec       q    Type
                         _______ _______ _______ _____ _____    ______ ____

>  <TORSDO>
F 2

$$$$
