=
 OpenBabel10262421283D

 32 36  0  0  1  0  0  0  0  0999 V2000
  181.5310  175.6560  135.8090 C   0  0  1  0  0  3  0  0  0  0  0  0
  182.8320  177.0070  138.8620 C   0  0  2  0  0  3  0  0  0  0  0  0
  179.6240  180.8810  137.0490 C   0  0  0  0  0  2  0  0  0  0  0  0
  181.1600  180.7680  137.0290 C   0  0  0  0  0  2  0  0  0  0  0  0
  182.5900  175.7140  138.0900 C   0  0  1  0  0  0  0  0  0  0  0  0
  180.2300  176.3410  137.7300 O   0  0  0  0  0  0  0  0  0  0  0  0
  180.3030  175.2350  135.0250 C   0  0  0  0  0  1  0  0  0  0  0  0
  178.9360  179.6170  137.5020 C   0  0  0  0  0  3  0  0  0  0  0  0
  180.4700  177.6320  138.1850 C   0  0  0  0  0  0  0  0  0  0  0  0
  179.6350  178.5770  137.8630 C   0  0  0  0  0  0  0  0  0  0  0  0
  181.8190  179.0090  139.9020 C   0  0  2  0  0  3  0  0  0  0  0  0
  184.0090  175.2270  136.0820 C   0  0  1  0  0  3  0  0  0  0  0  0
  181.2840  175.4810  137.3130 C   0  0  1  0  0  3  0  0  0  0  0  0
  183.8450  175.0160  137.5850 C   0  0  0  0  0  2  0  0  0  0  0  0
  182.7270  174.8260  135.3430 C   0  0  0  0  0  2  0  0  0  0  0  0
  181.8080  181.0810  138.3810 C   0  0  0  0  0  2  0  0  0  0  0  0
  181.1590  180.3470  139.5520 C   0  0  0  0  0  2  0  0  0  0  0  0
  182.4710  175.7110  139.5940 C   0  0  0  0  0  2  0  0  0  0  0  0
  181.6920  177.9300  138.9000 N   0  0  0  0  0  0  0  0  0  0  0  0
  184.3460  176.5870  135.8140 O   0  0  0  0  0  0  0  0  0  0  0  0
  185.6430  177.0890  135.9440 C   0  0  0  0  0  0  0  0  0  0  0  0
  186.0560  177.8960  137.1290 C   0  0  0  0  0  1  0  0  0  0  0  0
  186.4840  176.8620  135.0350 O   0  0  0  0  0  0  0  0  0  0  0  0
  181.4000  178.5360  141.2990 C   0  0  0  0  0  2  0  0  0  0  0  0
  183.8230  178.4430  141.9310 C   0  0  0  0  0  3  0  0  0  0  0  0
  184.8460  178.5160  142.8810 C   0  0  0  0  0  0  0  0  0  0  0  0
  183.2150  179.0170  144.5990 C   0  0  0  0  0  3  0  0  0  0  0  0
  184.5420  178.8020  144.2140 C   0  0  0  0  0  3  0  0  0  0  0  0
  182.1920  178.9410  143.6490 C   0  0  0  0  0  3  0  0  0  0  0  0
  182.4940  178.6520  142.3130 C   0  0  0  0  0  0  0  0  0  0  0  0
  186.2070  178.2880  142.4860 C   0  0  0  0  0  0  0  0  0  0  0  0
  187.3050  178.1050  142.1670 N   0  0  0  0  0  0  0  0  0  0  0  0
  1  7  1  6  0  0  0
  1 13  1  0  0  0  0
  2 19  1  0  0  0  0
  2 18  1  1  0  0  0
  3  8  1  0  0  0  0
  4  3  1  0  0  0  0
  4 16  1  0  0  0  0
  5 14  1  6  0  0  0
  5  2  1  0  0  0  0
  5 18  1  0  0  0  0
  6  9  1  0  0  0  0
  8 10  2  0  0  0  0
  9 19  1  0  0  0  0
 10  9  2  0  0  0  0
 11 24  1  1  0  0  0
 12 20  1  1  0  0  0
 12 14  1  0  0  0  0
 13  6  1  1  0  0  0
 13  5  1  0  0  0  0
 15  1  1  0  0  0  0
 15 12  1  0  0  0  0
 16 17  1  0  0  0  0
 17 11  1  0  0  0  0
 19 11  1  0  0  0  0
 20 21  1  0  0  0  0
 21 22  1  0  0  0  0
 23 21  2  0  0  0  0
 24 30  1  0  0  0  0
 25 30  2  0  0  0  0
 25 26  1  0  0  0  0
 26 28  2  0  0  0  0
 28 27  1  0  0  0  0
 29 27  2  0  0  0  0
 30 29  1  0  0  0  0
 31 26  1  0  0  0  0
 32 31  3  0  0  0  0
M  END
>  <MODEL>
1

>  <REMARK>
 VINA RESULT:      -6.0      0.000      0.000
  Name = 
  5 active torsions:
  status: ('A' for Active; 'I' for Inactive)
    1  A    between atoms: C_1  and  O_17
    2  A    between atoms: C_7  and  C_22
    3  A    between atoms: C_16  and  C_27
    4  A    between atoms: O_17  and  C_19
    5  A    between atoms: C_27  and  C_32
                            x       y       z     vdW  Elec       q    Type
                         _______ _______ _______ _____ _____    ______ ____

>  <TORSDO>
F 5

$$$$
=
 OpenBabel10262421283D

 32 36  0  0  1  0  0  0  0  0999 V2000
  191.4370  176.0680  137.5810 C   0  0  1  0  0  3  0  0  0  0  0  0
  188.2270  176.9170  138.9290 C   0  0  2  0  0  3  0  0  0  0  0  0
  191.2480  176.1670  143.2750 C   0  0  0  0  0  2  0  0  0  0  0  0
  190.1830  175.2590  142.6330 C   0  0  0  0  0  2  0  0  0  0  0  0
  189.1020  177.0010  137.6830 C   0  0  1  0  0  0  0  0  0  0  0  0
  190.9490  177.9550  139.0140 O   0  0  0  0  0  0  0  0  0  0  0  0
  192.9070  176.4210  137.4770 C   0  0  0  0  0  1  0  0  0  0  0  0
  191.5950  177.3720  142.4350 C   0  0  0  0  0  3  0  0  0  0  0  0
  190.2930  177.6500  140.2010 C   0  0  0  0  0  0  0  0  0  0  0  0
  190.9850  177.5830  141.3010 C   0  0  0  0  0  0  0  0  0  0  0  0
  187.9670  177.5230  141.3120 C   0  0  2  0  0  3  0  0  0  0  0  0
  189.5390  174.9080  136.3740 C   0  0  1  0  0  3  0  0  0  0  0  0
  190.5990  177.3380  137.7810 C   0  0  1  0  0  3  0  0  0  0  0  0
  188.6480  176.1400  136.5120 C   0  0  0  0  0  2  0  0  0  0  0  0
  191.0150  175.3190  136.3160 C   0  0  0  0  0  2  0  0  0  0  0  0
  188.7490  175.6970  142.9430 C   0  0  0  0  0  2  0  0  0  0  0  0
  188.5020  177.1840  142.7080 C   0  0  0  0  0  2  0  0  0  0  0  0
  188.1510  178.1290  137.9960 C   0  0  0  0  0  2  0  0  0  0  0  0
  188.8900  177.2970  140.1810 N   0  0  0  0  0  0  0  0  0  0  0  0
  189.3030  174.0120  137.4580 O   0  0  0  0  0  0  0  0  0  0  0  0
  188.2520  173.0930  137.4710 C   0  0  0  0  0  0  0  0  0  0  0  0
  186.8300  173.5280  137.3420 C   0  0  0  0  0  1  0  0  0  0  0  0
  188.5070  171.8680  137.6010 O   0  0  0  0  0  0  0  0  0  0  0  0
  187.3660  178.9320  141.2790 C   0  0  0  0  0  2  0  0  0  0  0  0
  185.4850  178.9880  142.9340 C   0  0  0  0  0  3  0  0  0  0  0  0
  184.1210  178.9770  143.2410 C   0  0  0  0  0  0  0  0  0  0  0  0
  183.5900  178.9160  140.8790 C   0  0  0  0  0  3  0  0  0  0  0  0
  183.1740  178.9410  142.2140 C   0  0  0  0  0  3  0  0  0  0  0  0
  184.9540  178.9230  140.5720 C   0  0  0  0  0  3  0  0  0  0  0  0
  185.9050  178.9580  141.5990 C   0  0  0  0  0  0  0  0  0  0  0  0
  183.6960  178.9960  144.6110 C   0  0  0  0  0  0  0  0  0  0  0  0
  183.3530  179.0110  145.7180 N   0  0  0  0  0  0  0  0  0  0  0  0
  1  7  1  6  0  0  0
  1 13  1  0  0  0  0
  2 18  1  6  0  0  0
  2 19  1  0  0  0  0
  4 16  1  0  0  0  0
  4  3  1  0  0  0  0
  5 14  1  6  0  0  0
  5 13  1  0  0  0  0
  5 18  1  0  0  0  0
  5  2  1  0  0  0  0
  6  9  1  0  0  0  0
  8  3  1  0  0  0  0
  9 10  2  0  0  0  0
 10  8  2  0  0  0  0
 11 24  1  1  0  0  0
 11 17  1  0  0  0  0
 12 14  1  0  0  0  0
 12 20  1  1  0  0  0
 13  6  1  1  0  0  0
 15 12  1  0  0  0  0
 15  1  1  0  0  0  0
 17 16  1  0  0  0  0
 19  9  1  0  0  0  0
 19 11  1  0  0  0  0
 20 21  1  0  0  0  0
 21 23  2  0  0  0  0
 22 21  1  0  0  0  0
 24 30  1  0  0  0  0
 25 26  1  0  0  0  0
 26 31  1  0  0  0  0
 27 28  1  0  0  0  0
 28 26  2  0  0  0  0
 29 27  2  0  0  0  0
 29 30  1  0  0  0  0
 30 25  2  0  0  0  0
 31 32  3  0  0  0  0
M  END
>  <MODEL>
2

>  <REMARK>
 VINA RESULT:      -5.5      4.308      7.907
  Name = 
  5 active torsions:
  status: ('A' for Active; 'I' for Inactive)
    1  A    between atoms: C_1  and  O_17
    2  A    between atoms: C_7  and  C_22
    3  A    between atoms: C_16  and  C_27
    4  A    between atoms: O_17  and  C_19
    5  A    between atoms: C_27  and  C_32
                            x       y       z     vdW  Elec       q    Type
                         _______ _______ _______ _____ _____    ______ ____

>  <TORSDO>
F 5

$$$$
=
 OpenBabel10262421283D

 32 36  0  0  1  0  0  0  0  0999 V2000
  180.1770  178.1390  137.9470 C   0  0  1  0  0  3  0  0  0  0  0  0
  183.5800  178.0510  139.0650 C   0  0  2  0  0  3  0  0  0  0  0  0
  183.5310  174.6510  134.9390 C   0  0  0  0  0  2  0  0  0  0  0  0
  183.5510  174.3790  136.4540 C   0  0  0  0  0  2  0  0  0  0  0  0
  182.2950  178.8720  139.0910 C   0  0  1  0  0  0  0  0  0  0  0  0
  182.1210  178.7240  136.6330 O   0  0  0  0  0  0  0  0  0  0  0  0
  179.2170  178.4360  136.8120 C   0  0  0  0  0  1  0  0  0  0  0  0
  183.3240  176.1060  134.5940 C   0  0  0  0  0  3  0  0  0  0  0  0
  183.1240  177.7620  136.5880 C   0  0  0  0  0  0  0  0  0  0  0  0
  183.2150  177.0000  135.5370 C   0  0  0  0  0  0  0  0  0  0  0  0
  185.3510  177.0360  137.6710 C   0  0  2  0  0  3  0  0  0  0  0  0
  180.3690  178.0490  140.4690 C   0  0  1  0  0  3  0  0  0  0  0  0
  181.4220  179.0280  137.8340 C   0  0  1  0  0  3  0  0  0  0  0  0
  181.6020  178.9490  140.4450 C   0  0  0  0  0  2  0  0  0  0  0  0
  179.4550  178.3620  139.2780 C   0  0  0  0  0  2  0  0  0  0  0  0
  184.9330  174.5680  137.0860 C   0  0  0  0  0  2  0  0  0  0  0  0
  185.6060  175.8810  136.6950 C   0  0  0  0  0  2  0  0  0  0  0  0
  183.6250  179.5820  139.0620 C   0  0  0  0  0  2  0  0  0  0  0  0
  183.9650  177.5420  137.7440 N   0  0  0  0  0  0  0  0  0  0  0  0
  180.7630  176.6800  140.4610 O   0  0  0  0  0  0  0  0  0  0  0  0
  179.8480  175.6240  140.4420 C   0  0  0  0  0  0  0  0  0  0  0  0
  179.8620  174.5950  139.3610 C   0  0  0  0  0  1  0  0  0  0  0  0
  178.9860  175.5410  141.3540 O   0  0  0  0  0  0  0  0  0  0  0  0
  186.3580  178.1720  137.4540 C   0  0  0  0  0  2  0  0  0  0  0  0
  187.7340  178.0370  139.5440 C   0  0  0  0  0  3  0  0  0  0  0  0
  188.9570  177.8600  140.1970 C   0  0  0  0  0  0  0  0  0  0  0  0
  190.0420  177.4880  138.0650 C   0  0  0  0  0  3  0  0  0  0  0  0
  190.1100  177.5850  139.4580 C   0  0  0  0  0  3  0  0  0  0  0  0
  188.8190  177.6680  137.4110 C   0  0  0  0  0  3  0  0  0  0  0  0
  187.6620  177.9450  138.1490 C   0  0  0  0  0  0  0  0  0  0  0  0
  189.0270  177.9680  141.6270 C   0  0  0  0  0  0  0  0  0  0  0  0
  189.0830  178.0550  142.7800 N   0  0  0  0  0  0  0  0  0  0  0  0
  1  7  1  6  0  0  0
  1 15  1  0  0  0  0
  2 18  1  6  0  0  0
  2  5  1  0  0  0  0
  3  4  1  0  0  0  0
  4 16  1  0  0  0  0
  5 18  1  6  0  0  0
  5 14  1  0  0  0  0
  8  3  1  0  0  0  0
  8 10  2  0  0  0  0
  9  6  1  0  0  0  0
  9 19  1  0  0  0  0
 10  9  2  0  0  0  0
 11 24  1  6  0  0  0
 11 19  1  0  0  0  0
 12 20  1  6  0  0  0
 13  6  1  6  0  0  0
 13  1  1  0  0  0  0
 13  5  1  0  0  0  0
 14 12  1  0  0  0  0
 15 12  1  0  0  0  0
 17 16  1  0  0  0  0
 17 11  1  0  0  0  0
 19  2  1  0  0  0  0
 21 20  1  0  0  0  0
 21 23  2  0  0  0  0
 22 21  1  0  0  0  0
 24 30  1  0  0  0  0
 25 26  1  0  0  0  0
 26 31  1  0  0  0  0
 27 28  1  0  0  0  0
 28 26  2  0  0  0  0
 29 27  2  0  0  0  0
 29 30  1  0  0  0  0
 30 25  2  0  0  0  0
 31 32  3  0  0  0  0
M  END
>  <MODEL>
3

>  <REMARK>
 VINA RESULT:      -5.3      2.543      5.887
  Name = 
  5 active torsions:
  status: ('A' for Active; 'I' for Inactive)
    1  A    between atoms: C_1  and  O_17
    2  A    between atoms: C_7  and  C_22
    3  A    between atoms: C_16  and  C_27
    4  A    between atoms: O_17  and  C_19
    5  A    between atoms: C_27  and  C_32
                            x       y       z     vdW  Elec       q    Type
                         _______ _______ _______ _____ _____    ______ ____

>  <TORSDO>
F 5

$$$$
=
 OpenBabel10262421283D

 32 36  0  0  1  0  0  0  0  0999 V2000
  188.3720  178.1320  137.9480 C   0  0  1  0  0  3  0  0  0  0  0  0
  190.6600  175.3850  137.7040 C   0  0  2  0  0  3  0  0  0  0  0  0
  186.0530  173.3380  135.9220 C   0  0  0  0  0  2  0  0  0  0  0  0
  186.7650  173.1610  137.2760 C   0  0  0  0  0  2  0  0  0  0  0  0
  190.5630  176.9040  137.7990 C   0  0  1  0  0  0  0  0  0  0  0  0
  188.9570  176.9440  135.9240 O   0  0  0  0  0  0  0  0  0  0  0  0
  187.4270  179.0700  137.2230 C   0  0  0  0  0  1  0  0  0  0  0  0
  186.6870  174.3880  135.0440 C   0  0  0  0  0  3  0  0  0  0  0  0
  188.8110  175.5630  135.9780 C   0  0  0  0  0  0  0  0  0  0  0  0
  187.7570  175.0230  135.4400 C   0  0  0  0  0  0  0  0  0  0  0  0
  190.0810  173.3580  136.4110 C   0  0  2  0  0  3  0  0  0  0  0  0
  189.8710  177.9320  139.9770 C   0  0  1  0  0  3  0  0  0  0  0  0
  189.5010  177.6870  137.0090 C   0  0  1  0  0  3  0  0  0  0  0  0
  191.0520  177.5040  139.1100 C   0  0  0  0  0  2  0  0  0  0  0  0
  188.9270  178.8440  139.1840 C   0  0  0  0  0  2  0  0  0  0  0  0
  187.9420  172.1830  137.2180 C   0  0  0  0  0  2  0  0  0  0  0  0
  188.8980  172.4490  136.0580 C   0  0  0  0  0  2  0  0  0  0  0  0
  191.6670  176.2830  136.9800 C   0  0  0  0  0  2  0  0  0  0  0  0
  189.7580  174.7650  136.7260 N   0  0  0  0  0  0  0  0  0  0  0  0
  189.1790  176.7840  140.4630 O   0  0  0  0  0  0  0  0  0  0  0  0
  189.2220  176.3780  141.7990 C   0  0  0  0  0  0  0  0  0  0  0  0
  188.1650  176.7780  142.7730 C   0  0  0  0  0  1  0  0  0  0  0  0
  190.1800  175.6640  142.1940 O   0  0  0  0  0  0  0  0  0  0  0  0
  191.1900  173.2530  135.3580 C   0  0  0  0  0  2  0  0  0  0  0  0
  193.2080  173.1860  136.8430 C   0  0  0  0  0  3  0  0  0  0  0  0
  194.3770  172.5680  137.2950 C   0  0  0  0  0  0  0  0  0  0  0  0
  193.9740  170.7090  135.7970 C   0  0  0  0  0  3  0  0  0  0  0  0
  194.7600  171.3300  136.7720 C   0  0  0  0  0  3  0  0  0  0  0  0
  192.8050  171.3280  135.3430 C   0  0  0  0  0  3  0  0  0  0  0  0
  192.4200  172.5690  135.8640 C   0  0  0  0  0  0  0  0  0  0  0  0
  195.1870  173.2110  138.2900 C   0  0  0  0  0  0  0  0  0  0  0  0
  195.8410  173.7290  139.0930 N   0  0  0  0  0  0  0  0  0  0  0  0
  1  7  1  6  0  0  0
  1 15  1  0  0  0  0
  2 18  1  6  0  0  0
  2  5  1  0  0  0  0
  3  4  1  0  0  0  0
  5 18  1  6  0  0  0
  5 14  1  0  0  0  0
  6  9  1  0  0  0  0
  8 10  2  0  0  0  0
  8  3  1  0  0  0  0
  9 19  1  0  0  0  0
 10  9  2  0  0  0  0
 11 24  1  6  0  0  0
 11 19  1  0  0  0  0
 12 20  1  6  0  0  0
 13  6  1  6  0  0  0
 13  5  1  0  0  0  0
 13  1  1  0  0  0  0
 14 12  1  0  0  0  0
 15 12  1  0  0  0  0
 16  4  1  0  0  0  0
 17 11  1  0  0  0  0
 17 16  1  0  0  0  0
 19  2  1  0  0  0  0
 20 21  1  0  0  0  0
 21 23  2  0  0  0  0
 21 22  1  0  0  0  0
 24 30  1  0  0  0  0
 25 26  1  0  0  0  0
 26 31  1  0  0  0  0
 27 28  1  0  0  0  0
 28 26  2  0  0  0  0
 29 27  2  0  0  0  0
 29 30  1  0  0  0  0
 30 25  2  0  0  0  0
 31 32  3  0  0  0  0
M  END
>  <MODEL>
4

>  <REMARK>
 VINA RESULT:      -5.2      6.342     10.237
  Name = 
  5 active torsions:
  status: ('A' for Active; 'I' for Inactive)
    1  A    between atoms: C_1  and  O_17
    2  A    between atoms: C_7  and  C_22
    3  A    between atoms: C_16  and  C_27
    4  A    between atoms: O_17  and  C_19
    5  A    between atoms: C_27  and  C_32
                            x       y       z     vdW  Elec       q    Type
                         _______ _______ _______ _____ _____    ______ ____

>  <TORSDO>
F 5

$$$$
=
 OpenBabel10262421283D

 32 36  0  0  1  0  0  0  0  0999 V2000
  188.5350  177.2620  137.0590 C   0  0  1  0  0  3  0  0  0  0  0  0
  186.0710  177.6100  139.6370 C   0  0  2  0  0  3  0  0  0  0  0  0
  190.6390  176.9990  142.3490 C   0  0  0  0  0  2  0  0  0  0  0  0
  189.4960  176.0010  142.0830 C   0  0  0  0  0  2  0  0  0  0  0  0
  186.3610  177.8800  138.1650 C   0  0  1  0  0  0  0  0  0  0  0  0
  188.4880  178.9830  138.7600 O   0  0  0  0  0  0  0  0  0  0  0  0
  189.8000  177.8070  136.4260 C   0  0  0  0  0  1  0  0  0  0  0  0
  190.5030  178.2860  141.5720 C   0  0  0  0  0  3  0  0  0  0  0  0
  188.3950  178.5260  140.0690 C   0  0  0  0  0  0  0  0  0  0  0  0
  189.4730  178.4840  140.7960 C   0  0  0  0  0  0  0  0  0  0  0  0
  186.7330  178.0350  141.9810 C   0  0  2  0  0  3  0  0  0  0  0  0
  186.4320  175.9420  136.5770 C   0  0  1  0  0  3  0  0  0  0  0  0
  187.7330  178.4000  137.7040 C   0  0  1  0  0  3  0  0  0  0  0  0
  185.5590  177.0390  137.1810 C   0  0  0  0  0  2  0  0  0  0  0  0
  187.7140  176.5420  135.9890 C   0  0  0  0  0  2  0  0  0  0  0  0
  188.2720  176.2320  142.9740 C   0  0  0  0  0  2  0  0  0  0  0  0
  187.8120  177.6860  143.0130 C   0  0  0  0  0  2  0  0  0  0  0  0
  185.5140  178.8560  138.9420 C   0  0  0  0  0  2  0  0  0  0  0  0
  187.1420  177.9970  140.5620 N   0  0  0  0  0  0  0  0  0  0  0  0
  186.7370  174.9600  137.5650 O   0  0  0  0  0  0  0  0  0  0  0  0
  186.5150  173.5940  137.3740 C   0  0  0  0  0  0  0  0  0  0  0  0
  185.1730  172.9800  137.5950 C   0  0  0  0  0  1  0  0  0  0  0  0
  187.4720  172.8600  137.0150 O   0  0  0  0  0  0  0  0  0  0  0  0
  186.0390  179.3560  142.3350 C   0  0  0  0  0  2  0  0  0  0  0  0
  183.5550  179.0290  142.2850 C   0  0  0  0  0  3  0  0  0  0  0  0
  182.3240  178.8850  142.9320 C   0  0  0  0  0  0  0  0  0  0  0  0
  183.4380  179.0030  145.0790 C   0  0  0  0  0  3  0  0  0  0  0  0
  182.2650  178.8720  144.3280 C   0  0  0  0  0  3  0  0  0  0  0  0
  184.6690  179.1500  144.4320 C   0  0  0  0  0  3  0  0  0  0  0  0
  184.7300  179.1650  143.0330 C   0  0  0  0  0  0  0  0  0  0  0  0
  181.1210  178.7590  142.1600 C   0  0  0  0  0  0  0  0  0  0  0  0
  180.1500  178.6570  141.5370 N   0  0  0  0  0  0  0  0  0  0  0  0
  1  7  1  6  0  0  0
  1 13  1  0  0  0  0
  2 18  1  1  0  0  0
  2 19  1  0  0  0  0
  4  3  1  0  0  0  0
  4 16  1  0  0  0  0
  5 14  1  6  0  0  0
  5 18  1  0  0  0  0
  5  2  1  0  0  0  0
  6  9  1  0  0  0  0
  8  3  1  0  0  0  0
  9 19  1  0  0  0  0
  9 10  2  0  0  0  0
 10  8  2  0  0  0  0
 11 24  1  1  0  0  0
 11 17  1  0  0  0  0
 12 14  1  0  0  0  0
 12 20  1  1  0  0  0
 13  5  1  0  0  0  0
 13  6  1  1  0  0  0
 15 12  1  0  0  0  0
 15  1  1  0  0  0  0
 16 17  1  0  0  0  0
 19 11  1  0  0  0  0
 21 20  1  0  0  0  0
 21 22  1  0  0  0  0
 23 21  2  0  0  0  0
 24 30  1  0  0  0  0
 25 26  2  0  0  0  0
 25 30  1  0  0  0  0
 26 28  1  0  0  0  0
 28 27  2  0  0  0  0
 29 27  1  0  0  0  0
 30 29  2  0  0  0  0
 31 26  1  0  0  0  0
 32 31  3  0  0  0  0
M  END
>  <MODEL>
5

>  <REMARK>
 VINA RESULT:      -5.2      3.467      6.586
  Name = 
  5 active torsions:
  status: ('A' for Active; 'I' for Inactive)
    1  A    between atoms: C_1  and  O_17
    2  A    between atoms: C_7  and  C_22
    3  A    between atoms: C_16  and  C_27
    4  A    between atoms: O_17  and  C_19
    5  A    between atoms: C_27  and  C_32
                            x       y       z     vdW  Elec       q    Type
                         _______ _______ _______ _____ _____    ______ ____

>  <TORSDO>
F 5

$$$$
=
 OpenBabel10262421283D

 32 36  0  0  1  0  0  0  0  0999 V2000
  182.7130  178.8910  138.5570 C   0  0  1  0  0  3  0  0  0  0  0  0
  185.5630  177.9120  140.4960 C   0  0  2  0  0  3  0  0  0  0  0  0
  187.0490  176.8560  135.4700 C   0  0  0  0  0  2  0  0  0  0  0  0
  186.5860  175.9090  136.5930 C   0  0  0  0  0  2  0  0  0  0  0  0
  184.2980  178.7640  140.5070 C   0  0  1  0  0  0  0  0  0  0  0  0
  184.9460  179.7990  138.3620 O   0  0  0  0  0  0  0  0  0  0  0  0
  182.1630  179.7870  137.4650 C   0  0  0  0  0  1  0  0  0  0  0  0
  186.8880  178.3160  135.8140 C   0  0  0  0  0  3  0  0  0  0  0  0
  185.9580  178.8640  138.1800 C   0  0  0  0  0  0  0  0  0  0  0  0
  186.4290  178.6740  136.9820 C   0  0  0  0  0  0  0  0  0  0  0  0
  187.7450  177.4730  139.4200 C   0  0  2  0  0  3  0  0  0  0  0  0
  182.0740  177.6160  140.6470 C   0  0  1  0  0  3  0  0  0  0  0  0
  183.8770  179.5840  139.2760 C   0  0  1  0  0  3  0  0  0  0  0  0
  183.1970  178.2790  141.4410 C   0  0  0  0  0  2  0  0  0  0  0  0
  181.5850  178.5470  139.5320 C   0  0  0  0  0  2  0  0  0  0  0  0
  187.6730  175.6260  137.6340 C   0  0  0  0  0  2  0  0  0  0  0  0
  188.3660  176.8850  138.1470 C   0  0  0  0  0  2  0  0  0  0  0  0
  185.5240  179.2530  141.2360 C   0  0  0  0  0  2  0  0  0  0  0  0
  186.3850  178.0370  139.2880 N   0  0  0  0  0  0  0  0  0  0  0  0
  182.5220  176.3730  140.1120 O   0  0  0  0  0  0  0  0  0  0  0  0
  181.7140  175.5460  139.3270 C   0  0  0  0  0  0  0  0  0  0  0  0
  182.0980  175.1680  137.9350 C   0  0  0  0  0  1  0  0  0  0  0  0
  180.6320  175.1150  139.8010 O   0  0  0  0  0  0  0  0  0  0  0  0
  188.7040  178.4590  140.0970 C   0  0  0  0  0  2  0  0  0  0  0  0
  188.6290  177.9450  142.5480 C   0  0  0  0  0  3  0  0  0  0  0  0
  189.2240  177.4660  143.7190 C   0  0  0  0  0  0  0  0  0  0  0  0
  191.2260  176.9100  142.4750 C   0  0  0  0  0  3  0  0  0  0  0  0
  190.5210  176.9490  143.6830 C   0  0  0  0  0  3  0  0  0  0  0  0
  190.6320  177.3910  141.3050 C   0  0  0  0  0  3  0  0  0  0  0  0
  189.3320  177.9110  141.3390 C   0  0  0  0  0  0  0  0  0  0  0  0
  188.5030  177.5140  144.9590 C   0  0  0  0  0  0  0  0  0  0  0  0
  187.9200  177.5520  145.9600 N   0  0  0  0  0  0  0  0  0  0  0  0
  1  7  1  6  0  0  0
  1 13  1  0  0  0  0
  1 15  1  0  0  0  0
  2  5  1  0  0  0  0
  2 18  1  1  0  0  0
  3  8  1  0  0  0  0
  3  4  1  0  0  0  0
  4 16  1  0  0  0  0
  5 18  1  1  0  0  0
  5 14  1  0  0  0  0
  8 10  2  0  0  0  0
  9  6  1  0  0  0  0
  9 19  1  0  0  0  0
 10  9  2  0  0  0  0
 11 24  1  6  0  0  0
 12 20  1  6  0  0  0
 12 14  1  0  0  0  0
 13  6  1  6  0  0  0
 13  5  1  0  0  0  0
 15 12  1  0  0  0  0
 16 17  1  0  0  0  0
 17 11  1  0  0  0  0
 19 11  1  0  0  0  0
 19  2  1  0  0  0  0
 21 23  2  0  0  0  0
 21 20  1  0  0  0  0
 22 21  1  0  0  0  0
 24 30  1  0  0  0  0
 25 26  1  0  0  0  0
 26 31  1  0  0  0  0
 27 28  1  0  0  0  0
 28 26  2  0  0  0  0
 29 30  1  0  0  0  0
 29 27  2  0  0  0  0
 30 25  2  0  0  0  0
 31 32  3  0  0  0  0
M  END
>  <MODEL>
6

>  <REMARK>
 VINA RESULT:      -5.0      2.733      6.173
  Name = 
  5 active torsions:
  status: ('A' for Active; 'I' for Inactive)
    1  A    between atoms: C_1  and  O_17
    2  A    between atoms: C_7  and  C_22
    3  A    between atoms: C_16  and  C_27
    4  A    between atoms: O_17  and  C_19
    5  A    between atoms: C_27  and  C_32
                            x       y       z     vdW  Elec       q    Type
                         _______ _______ _______ _____ _____    ______ ____

>  <TORSDO>
F 5

$$$$
=
 OpenBabel10262421283D

 32 36  0  0  1  0  0  0  0  0999 V2000
  186.4210  178.0700  139.1660 C   0  0  1  0  0  3  0  0  0  0  0  0
  189.4100  176.5730  137.8760 C   0  0  2  0  0  3  0  0  0  0  0  0
  185.5970  173.0460  136.6070 C   0  0  0  0  0  2  0  0  0  0  0  0
  186.6580  173.0090  137.7230 C   0  0  0  0  0  2  0  0  0  0  0  0
  188.7860  177.8890  138.3250 C   0  0  1  0  0  0  0  0  0  0  0  0
  186.8420  177.4990  136.8540 O   0  0  0  0  0  0  0  0  0  0  0  0
  185.0390  178.6160  138.8660 C   0  0  0  0  0  1  0  0  0  0  0  0
  185.5370  174.3670  135.8800 C   0  0  0  0  0  3  0  0  0  0  0  0
  187.2390  176.1870  136.6250 C   0  0  0  0  0  0  0  0  0  0  0  0
  186.3580  175.3310  136.1940 C   0  0  0  0  0  0  0  0  0  0  0  0
  189.3030  174.6710  136.3000 C   0  0  2  0  0  3  0  0  0  0  0  0
  188.3690  178.2520  140.7700 C   0  0  1  0  0  3  0  0  0  0  0  0
  187.3400  178.2550  137.9510 C   0  0  1  0  0  3  0  0  0  0  0  0
  189.3480  178.4660  139.6170 C   0  0  0  0  0  2  0  0  0  0  0  0
  186.9800  178.7830  140.3980 C   0  0  0  0  0  2  0  0  0  0  0  0
  188.0520  172.6230  137.2210 C   0  0  0  0  0  2  0  0  0  0  0  0
  188.4940  173.4060  135.9880 C   0  0  0  0  0  2  0  0  0  0  0  0
  189.7800  177.8920  137.1910 C   0  0  0  0  0  2  0  0  0  0  0  0
  188.5770  175.7650  136.9780 N   0  0  0  0  0  0  0  0  0  0  0  0
  188.3110  176.8690  141.1100 O   0  0  0  0  0  0  0  0  0  0  0  0
  188.7400  176.3700  142.3420 C   0  0  0  0  0  0  0  0  0  0  0  0
  187.9280  176.5390  143.5830 C   0  0  0  0  0  1  0  0  0  0  0  0
  189.8440  175.7680  142.4110 O   0  0  0  0  0  0  0  0  0  0  0  0
  190.0460  175.1690  135.0560 C   0  0  0  0  0  2  0  0  0  0  0  0
  192.4080  175.9960  135.1950 C   0  0  0  0  0  3  0  0  0  0  0  0
  193.7880  175.7690  135.2110 C   0  0  0  0  0  0  0  0  0  0  0  0
  193.3970  173.3840  135.0640 C   0  0  0  0  0  3  0  0  0  0  0  0
  194.2820  174.4640  135.1450 C   0  0  0  0  0  3  0  0  0  0  0  0
  192.0170  173.6110  135.0450 C   0  0  0  0  0  3  0  0  0  0  0  0
  191.5200  174.9180  135.1100 C   0  0  0  0  0  0  0  0  0  0  0  0
  194.6940  176.8790  135.2870 C   0  0  0  0  0  0  0  0  0  0  0  0
  195.4260  177.7750  135.3490 N   0  0  0  0  0  0  0  0  0  0  0  0
  1  7  1  6  0  0  0
  1 15  1  0  0  0  0
  2 18  1  6  0  0  0
  2  5  1  0  0  0  0
  3  4  1  0  0  0  0
  5 18  1  6  0  0  0
  5 14  1  0  0  0  0
  8 10  2  0  0  0  0
  8  3  1  0  0  0  0
  9  6  1  0  0  0  0
  9 19  1  0  0  0  0
 10  9  2  0  0  0  0
 11 24  1  6  0  0  0
 11 19  1  0  0  0  0
 12 20  1  6  0  0  0
 13  6  1  6  0  0  0
 13  5  1  0  0  0  0
 13  1  1  0  0  0  0
 14 12  1  0  0  0  0
 15 12  1  0  0  0  0
 16  4  1  0  0  0  0
 17 11  1  0  0  0  0
 17 16  1  0  0  0  0
 19  2  1  0  0  0  0
 20 21  1  0  0  0  0
 21 23  2  0  0  0  0
 21 22  1  0  0  0  0
 24 30  1  0  0  0  0
 25 26  1  0  0  0  0
 26 31  1  0  0  0  0
 27 28  1  0  0  0  0
 28 26  2  0  0  0  0
 29 27  2  0  0  0  0
 29 30  1  0  0  0  0
 30 25  2  0  0  0  0
 31 32  3  0  0  0  0
M  END
>  <MODEL>
7

>  <REMARK>
 VINA RESULT:      -4.9      5.351      9.422
  Name = 
  5 active torsions:
  status: ('A' for Active; 'I' for Inactive)
    1  A    between atoms: C_1  and  O_17
    2  A    between atoms: C_7  and  C_22
    3  A    between atoms: C_16  and  C_27
    4  A    between atoms: O_17  and  C_19
    5  A    between atoms: C_27  and  C_32
                            x       y       z     vdW  Elec       q    Type
                         _______ _______ _______ _____ _____    ______ ____

>  <TORSDO>
F 5

$$$$
=
 OpenBabel10262421283D

 32 36  0  0  1  0  0  0  0  0999 V2000
  179.5950  181.2540  140.0290 C   0  0  1  0  0  3  0  0  0  0  0  0
  180.7740  179.2850  137.2770 C   0  0  2  0  0  3  0  0  0  0  0  0
  184.4750  178.4940  141.0530 C   0  0  0  0  0  2  0  0  0  0  0  0
  184.5110  179.3750  139.7900 C   0  0  0  0  0  2  0  0  0  0  0  0
  179.5410  179.9550  137.8740 C   0  0  1  0  0  0  0  0  0  0  0  0
  179.9700  178.8640  140.0470 O   0  0  0  0  0  0  0  0  0  0  0  0
  179.1330  181.2750  141.4720 C   0  0  0  0  0  1  0  0  0  0  0  0
  183.1140  177.9060  141.3340 C   0  0  0  0  0  3  0  0  0  0  0  0
  181.2300  178.4530  139.6270 C   0  0  0  0  0  0  0  0  0  0  0  0
  182.1160  178.1330  140.5250 C   0  0  0  0  0  0  0  0  0  0  0  0
  182.5630  177.6070  137.5860 C   0  0  2  0  0  3  0  0  0  0  0  0
  179.3820  182.4560  137.8130 C   0  0  1  0  0  3  0  0  0  0  0  0
  179.2580  179.9030  139.3840 C   0  0  1  0  0  3  0  0  0  0  0  0
  179.0170  181.1560  137.0990 C   0  0  0  0  0  2  0  0  0  0  0  0
  178.9310  182.4080  139.2770 C   0  0  0  0  0  2  0  0  0  0  0  0
  184.7570  178.5810  138.5050 C   0  0  0  0  0  2  0  0  0  0  0  0
  183.8590  177.3550  138.3650 C   0  0  0  0  0  2  0  0  0  0  0  0
  179.3860  178.6530  137.1290 C   0  0  0  0  0  2  0  0  0  0  0  0
  181.5760  178.5020  138.2230 N   0  0  0  0  0  0  0  0  0  0  0  0
  180.7860  182.6850  137.7210 O   0  0  0  0  0  0  0  0  0  0  0  0
  181.3330  183.8740  137.2340 C   0  0  0  0  0  0  0  0  0  0  0  0
  180.7980  184.5390  136.0090 C   0  0  0  0  0  1  0  0  0  0  0  0
  182.3070  184.3960  137.8370 O   0  0  0  0  0  0  0  0  0  0  0  0
  181.9250  176.2880  137.1360 C   0  0  0  0  0  2  0  0  0  0  0  0
  182.8780  174.0200  136.6600 C   0  0  0  0  0  3  0  0  0  0  0  0
  183.7850  173.1850  136.0010 C   0  0  0  0  0  0  0  0  0  0  0  0
  184.6790  175.0950  134.8110 C   0  0  0  0  0  3  0  0  0  0  0  0
  184.6850  173.7220  135.0770 C   0  0  0  0  0  3  0  0  0  0  0  0
  183.7740  175.9310  135.4730 C   0  0  0  0  0  3  0  0  0  0  0  0
  182.8730  175.3950  136.4000 C   0  0  0  0  0  0  0  0  0  0  0  0
  183.7950  171.7770  136.2800 C   0  0  0  0  0  0  0  0  0  0  0  0
  183.8020  170.6410  136.5050 N   0  0  0  0  0  0  0  0  0  0  0  0
  1  7  1  1  0  0  0
  2 18  1  6  0  0  0
  2  5  1  0  0  0  0
  2 19  1  0  0  0  0
  3  8  1  0  0  0  0
  4  3  1  0  0  0  0
  5 14  1  6  0  0  0
  5 13  1  0  0  0  0
  9  6  1  0  0  0  0
  9 10  2  0  0  0  0
 10  8  2  0  0  0  0
 11 24  1  1  0  0  0
 11 19  1  0  0  0  0
 11 17  1  0  0  0  0
 12 20  1  1  0  0  0
 12 15  1  0  0  0  0
 13  1  1  0  0  0  0
 13  6  1  1  0  0  0
 14 12  1  0  0  0  0
 15  1  1  0  0  0  0
 16  4  1  0  0  0  0
 17 16  1  0  0  0  0
 18  5  1  0  0  0  0
 19  9  1  0  0  0  0
 21 20  1  0  0  0  0
 21 23  2  0  0  0  0
 22 21  1  0  0  0  0
 26 31  1  0  0  0  0
 26 25  2  0  0  0  0
 27 28  2  0  0  0  0
 27 29  1  0  0  0  0
 28 26  1  0  0  0  0
 29 30  2  0  0  0  0
 30 25  1  0  0  0  0
 30 24  1  0  0  0  0
 31 32  3  0  0  0  0
M  END
>  <MODEL>
8

>  <REMARK>
 VINA RESULT:      -4.7      2.989      7.018
  Name = 
  5 active torsions:
  status: ('A' for Active; 'I' for Inactive)
    1  A    between atoms: C_1  and  O_17
    2  A    between atoms: C_7  and  C_22
    3  A    between atoms: C_16  and  C_27
    4  A    between atoms: O_17  and  C_19
    5  A    between atoms: C_27  and  C_32
                            x       y       z     vdW  Elec       q    Type
                         _______ _______ _______ _____ _____    ______ ____

>  <TORSDO>
F 5

$$$$
=
 OpenBabel10262421283D

 32 36  0  0  1  0  0  0  0  0999 V2000
  179.9370  177.2740  141.9390 C   0  0  1  0  0  3  0  0  0  0  0  0
  180.4420  180.1710  139.8910 C   0  0  2  0  0  3  0  0  0  0  0  0
  182.1340  176.1470  136.8040 C   0  0  0  0  0  2  0  0  0  0  0  0
  182.9320  177.1910  137.6060 C   0  0  0  0  0  2  0  0  0  0  0  0
  179.6770  179.6300  141.0940 C   0  0  1  0  0  0  0  0  0  0  0  0
  178.9320  177.6800  139.7760 O   0  0  0  0  0  0  0  0  0  0  0  0
  179.2460  175.9340  142.1000 C   0  0  0  0  0  1  0  0  0  0  0  0
  180.6520  176.1820  137.0830 C   0  0  0  0  0  3  0  0  0  0  0  0
  179.8200  177.9920  138.7540 C   0  0  0  0  0  0  0  0  0  0  0  0
  180.1550  177.0610  137.9080 C   0  0  0  0  0  0  0  0  0  0  0  0
  180.9000  179.9540  137.4710 C   0  0  2  0  0  3  0  0  0  0  0  0
  180.9260  179.2130  143.2280 C   0  0  1  0  0  3  0  0  0  0  0  0
  179.0750  178.2150  141.0870 C   0  0  1  0  0  3  0  0  0  0  0  0
  180.0860  180.2160  142.4390 C   0  0  0  0  0  2  0  0  0  0  0  0
  180.2010  177.8660  143.3240 C   0  0  0  0  0  2  0  0  0  0  0  0
  182.9910  178.5620  136.9270 C   0  0  0  0  0  2  0  0  0  0  0  0
  181.6300  179.0670  136.4560 C   0  0  0  0  0  2  0  0  0  0  0  0
  179.0120  180.6340  140.1860 C   0  0  0  0  0  2  0  0  0  0  0  0
  180.4460  179.2960  138.7140 N   0  0  0  0  0  0  0  0  0  0  0  0
  182.2050  179.0600  142.6150 O   0  0  0  0  0  0  0  0  0  0  0  0
  183.3790  178.8580  143.3450 C   0  0  0  0  0  0  0  0  0  0  0  0
  183.4110  178.9970  144.8310 C   0  0  0  0  0  1  0  0  0  0  0  0
  184.4380  178.5580  142.7360 O   0  0  0  0  0  0  0  0  0  0  0  0
  179.7690  180.7420  136.8020 C   0  0  0  0  0  2  0  0  0  0  0  0
  179.7580  183.1390  137.5350 C   0  0  0  0  0  3  0  0  0  0  0  0
  180.0400  184.4900  137.3140 C   0  0  0  0  0  0  0  0  0  0  0  0
  181.0290  183.9330  135.1750 C   0  0  0  0  0  3  0  0  0  0  0  0
  180.6750  184.8870  136.1340 C   0  0  0  0  0  3  0  0  0  0  0  0
  180.7440  182.5820  135.3950 C   0  0  0  0  0  3  0  0  0  0  0  0
  180.1070  182.1820  136.5750 C   0  0  0  0  0  0  0  0  0  0  0  0
  179.6700  185.4680  138.2960 C   0  0  0  0  0  0  0  0  0  0  0  0
  179.3710  186.2580  139.0890 N   0  0  0  0  0  0  0  0  0  0  0  0
  1  7  1  1  0  0  0
  1 15  1  0  0  0  0
  2 18  1  6  0  0  0
  2  5  1  0  0  0  0
  3  8  1  0  0  0  0
  3  4  1  0  0  0  0
  5 18  1  6  0  0  0
  5 14  1  0  0  0  0
  8 10  2  0  0  0  0
  9  6  1  0  0  0  0
 10  9  2  0  0  0  0
 11 24  1  6  0  0  0
 11 19  1  0  0  0  0
 12 20  1  6  0  0  0
 12 15  1  0  0  0  0
 13  6  1  6  0  0  0
 13  5  1  0  0  0  0
 13  1  1  0  0  0  0
 14 12  1  0  0  0  0
 16  4  1  0  0  0  0
 17 16  1  0  0  0  0
 17 11  1  0  0  0  0
 19  9  1  0  0  0  0
 19  2  1  0  0  0  0
 20 21  1  0  0  0  0
 21 22  1  0  0  0  0
 23 21  2  0  0  0  0
 26 25  1  0  0  0  0
 26 31  1  0  0  0  0
 27 29  2  0  0  0  0
 27 28  1  0  0  0  0
 28 26  2  0  0  0  0
 29 30  1  0  0  0  0
 30 24  1  0  0  0  0
 30 25  2  0  0  0  0
 31 32  3  0  0  0  0
M  END
>  <MODEL>
9

>  <REMARK>
 VINA RESULT:      -4.6      3.122      7.029
  Name = 
  5 active torsions:
  status: ('A' for Active; 'I' for Inactive)
    1  A    between atoms: C_1  and  O_17
    2  A    between atoms: C_7  and  C_22
    3  A    between atoms: C_16  and  C_27
    4  A    between atoms: O_17  and  C_19
    5  A    between atoms: C_27  and  C_32
                            x       y       z     vdW  Elec       q    Type
                         _______ _______ _______ _____ _____    ______ ____

>  <TORSDO>
F 5

$$$$
