=
 OpenBabel10262421013D

 32 37  0  0  1  0  0  0  0  0999 V2000
  189.1850  178.0550  142.5930 C   0  0  1  0  0  3  0  0  0  0  0  0
  187.0390  177.9800  143.7610 C   0  0  1  0  0  3  0  0  0  0  0  0
  189.8750  179.1450  143.4060 C   0  0  0  0  0  2  0  0  0  0  0  0
  188.2370  177.2120  143.4540 C   0  0  2  0  0  3  0  0  0  0  0  0
  185.5680  178.1010  145.6850 C   0  0  1  0  0  3  0  0  0  0  0  0
  182.6490  178.3810  141.4500 C   0  0  0  0  0  3  0  0  0  0  0  0
  186.2760  178.0590  142.4640 C   0  0  2  0  0  3  0  0  0  0  0  0
  182.8130  179.1780  143.7240 C   0  0  0  0  0  3  0  0  0  0  0  0
  184.1910  178.9380  143.7250 C   0  0  0  0  0  0  0  0  0  0  0  0
  188.6390  176.8270  144.8500 C   0  0  2  0  0  3  0  0  0  0  0  0
  184.9560  179.3110  144.9560 C   0  0  0  0  0  2  0  0  0  0  0  0
  187.4220  176.6470  145.5650 O   0  0  0  0  0  0  0  0  0  0  0  0
  189.4780  177.9140  145.5460 C   0  0  0  0  0  2  0  0  0  0  0  0
  187.0780  179.0230  141.5750 C   0  0  0  0  0  2  0  0  0  0  0  0
  188.5010  178.6160  141.3990 N   0  0  2  0  0  0  0  0  0  0  0  0
  184.8120  178.4130  142.5630 C   0  0  0  0  0  0  0  0  0  0  0  0
  186.4070  177.2240  144.8250 N   0  0  2  0  0  0  0  0  0  0  0  0
  190.5400  178.5130  144.6250 C   0  0  0  0  0  2  0  0  0  0  0  0
  182.0440  178.9000  142.5940 C   0  0  0  0  0  3  0  0  0  0  0  0
  184.0240  178.1370  141.4380 C   0  0  0  0  0  3  0  0  0  0  0  0
  191.6580  177.3250  139.6640 C   0  0  1  0  0  3  0  0  0  0  0  0
  189.2130  175.4760  137.7560 C   0  0  0  0  0  1  0  0  0  0  0  0
  193.1310  177.4860  139.9710 C   0  0  0  0  0  1  0  0  0  0  0  0
  189.5600  177.9790  137.8310 C   0  0  0  0  0  3  0  0  0  0  0  0
  188.6860  177.7190  140.2470 C   0  0  1  0  0  3  0  0  0  0  0  0
  191.4870  176.3810  138.4670 C   0  0  0  0  0  2  0  0  0  0  0  0
  188.9460  178.4450  138.9340 C   0  0  0  0  0  3  0  0  0  0  0  0
  190.9650  176.8550  140.8660 N   0  0  0  0  0  2  0  0  0  0  0  0
  189.5680  176.5110  140.5940 C   0  0  0  0  0  2  0  0  0  0  0  0
  190.2020  176.6240  137.6540 C   0  0  1  0  0  3  0  0  0  0  0  0
  186.2530  178.5770  146.9400 C   0  0  0  0  0  3  0  0  0  0  0  0
  185.9030  179.6070  147.4950 O   0  0  0  0  0  0  0  0  0  0  0  0
  1  3  1  1  0  0  0
  1  4  1  0  0  0  0
  2 17  1  0  0  0  0
  3 18  1  0  0  0  0
  4  2  1  0  0  0  0
  4 10  1  0  0  0  0
  5 31  1  0  0  0  0
  6 19  1  0  0  0  0
  7 16  1  0  0  0  0
  7  2  1  0  0  0  0
  8  9  1  0  0  0  0
  9 11  1  0  0  0  0
 10 13  1  0  0  0  0
 10 12  1  0  0  0  0
 11  5  1  0  0  0  0
 14  7  1  0  0  0  0
 15 14  1  0  0  0  0
 15  1  1  0  0  0  0
 16  9  2  0  0  0  0
 17 12  1  0  0  0  0
 17  5  1  0  0  0  0
 18 13  1  0  0  0  0
 19  8  2  0  0  0  0
 20  6  2  0  0  0  0
 20 16  1  0  0  0  0
 21 23  1  0  0  0  0
 21 28  1  0  0  0  0
 24 27  2  0  0  0  0
 25 29  1  0  0  0  0
 25 15  1  0  0  0  0
 26 21  1  0  0  0  0
 27 25  1  0  0  0  0
 29 28  1  0  0  0  0
 30 22  1  0  0  0  0
 30 24  1  0  0  0  0
 30 26  1  0  0  0  0
 31 32  2  0  0  0  0
M  END
>  <MODEL>
1

>  <REMARK>
 VINA RESULT:     -10.3      0.000      0.000
  Name = 
  2 active torsions:
  status: ('A' for Active; 'I' for Inactive)
    1  A    between atoms: C_6  and  C_13
    2  A    between atoms: C_16  and  N_27
                            x       y       z     vdW  Elec       q    Type
                         _______ _______ _______ _____ _____    ______ ____

>  <TORSDO>
F 2

$$$$
=
 OpenBabel10262421013D

 32 37  0  0  1  0  0  0  0  0999 V2000
  187.5370  178.0160  138.6880 C   0  0  1  0  0  3  0  0  0  0  0  0
  189.2690  177.4440  140.3150 C   0  0  1  0  0  3  0  0  0  0  0  0
  188.2870  179.0730  137.8850 C   0  0  0  0  0  2  0  0  0  0  0  0
  188.4750  176.9230  139.2110 C   0  0  2  0  0  3  0  0  0  0  0  0
  191.5390  177.0610  141.0800 C   0  0  1  0  0  3  0  0  0  0  0  0
  188.5250  177.4840  145.2350 C   0  0  0  0  0  3  0  0  0  0  0  0
  188.3060  177.5870  141.4630 C   0  0  2  0  0  3  0  0  0  0  0  0
  190.7460  177.9660  144.4190 C   0  0  0  0  0  3  0  0  0  0  0  0
  190.2820  177.9440  143.0990 C   0  0  0  0  0  0  0  0  0  0  0  0
  189.5860  176.4110  138.3380 C   0  0  2  0  0  3  0  0  0  0  0  0
  191.2670  178.2530  142.0160 C   0  0  0  0  0  2  0  0  0  0  0  0
  190.5920  175.9440  139.2300 O   0  0  0  0  0  0  0  0  0  0  0  0
  190.1800  177.5040  137.4320 C   0  0  0  0  0  2  0  0  0  0  0  0
  187.4080  178.7800  141.0990 C   0  0  0  0  0  2  0  0  0  0  0  0
  186.7330  178.6280  139.7780 N   0  0  2  0  0  0  0  0  0  0  0  0
  188.9100  177.6930  142.8430 C   0  0  0  0  0  0  0  0  0  0  0  0
  190.3170  176.4560  140.4830 N   0  0  2  0  0  0  0  0  0  0  0  0
  189.1060  178.3850  136.7970 C   0  0  0  0  0  2  0  0  0  0  0  0
  189.8740  177.7350  145.4830 C   0  0  0  0  0  3  0  0  0  0  0  0
  188.0490  177.4600  143.9230 C   0  0  0  0  0  3  0  0  0  0  0  0
  183.1540  179.8570  139.2110 C   0  0  1  0  0  3  0  0  0  0  0  0
  182.4200  176.3880  139.8880 C   0  0  0  0  0  1  0  0  0  0  0  0
  182.5910  181.1730  138.7180 C   0  0  0  0  0  1  0  0  0  0  0  0
  183.3940  178.1070  141.4630 C   0  0  0  0  0  3  0  0  0  0  0  0
  185.4350  177.9440  139.8900 C   0  0  1  0  0  3  0  0  0  0  0  0
  182.0090  178.8580  139.4170 C   0  0  0  0  0  2  0  0  0  0  0  0
  184.7120  178.2000  141.2040 C   0  0  0  0  0  3  0  0  0  0  0  0
  184.1650  179.3820  138.2640 N   0  0  0  0  0  2  0  0  0  0  0  0
  184.6260  178.0300  138.5880 C   0  0  0  0  0  2  0  0  0  0  0  0
  182.2970  177.7810  140.4790 C   0  0  1  0  0  3  0  0  0  0  0  0
  192.5900  177.4540  140.0740 C   0  0  0  0  0  3  0  0  0  0  0  0
  193.7570  177.1280  140.2250 O   0  0  0  0  0  0  0  0  0  0  0  0
  1  3  1  1  0  0  0
  1  4  1  0  0  0  0
  1 15  1  0  0  0  0
  2 17  1  0  0  0  0
  2  7  1  0  0  0  0
  4  2  1  0  0  0  0
  5 11  1  0  0  0  0
  6 19  1  0  0  0  0
  7 16  1  0  0  0  0
  8 19  2  0  0  0  0
  9  8  1  0  0  0  0
 10  4  1  0  0  0  0
 10 12  1  0  0  0  0
 11  9  1  0  0  0  0
 12 17  1  0  0  0  0
 13 10  1  0  0  0  0
 14  7  1  0  0  0  0
 15 25  1  0  0  0  0
 15 14  1  0  0  0  0
 16  9  2  0  0  0  0
 16 20  1  0  0  0  0
 17  5  1  0  0  0  0
 18 13  1  0  0  0  0
 18  3  1  0  0  0  0
 20  6  2  0  0  0  0
 21 26  1  0  0  0  0
 22 30  1  0  0  0  0
 23 21  1  0  0  0  0
 25 27  1  0  0  0  0
 26 30  1  0  0  0  0
 27 24  2  0  0  0  0
 28 29  1  0  0  0  0
 28 21  1  0  0  0  0
 29 25  1  0  0  0  0
 30 24  1  0  0  0  0
 31 32  2  0  0  0  0
 31  5  1  0  0  0  0
M  END
>  <MODEL>
2

>  <REMARK>
 VINA RESULT:      -9.0      2.856      6.933
  Name = 
  2 active torsions:
  status: ('A' for Active; 'I' for Inactive)
    1  A    between atoms: C_6  and  C_13
    2  A    between atoms: C_16  and  N_27
                            x       y       z     vdW  Elec       q    Type
                         _______ _______ _______ _____ _____    ______ ____

>  <TORSDO>
F 2

$$$$
=
 OpenBabel10262421013D

 32 37  0  0  1  0  0  0  0  0999 V2000
  187.6220  178.0260  140.2190 C   0  0  1  0  0  3  0  0  0  0  0  0
  188.6250  177.4720  142.3780 C   0  0  1  0  0  3  0  0  0  0  0  0
  188.6310  179.0600  139.7320 C   0  0  0  0  0  2  0  0  0  0  0  0
  188.2850  176.9350  141.0680 C   0  0  2  0  0  3  0  0  0  0  0  0
  190.4480  177.0850  143.9310 C   0  0  1  0  0  3  0  0  0  0  0  0
  186.1220  177.6160  146.6780 C   0  0  0  0  0  3  0  0  0  0  0  0
  187.3090  177.6460  143.0880 C   0  0  2  0  0  3  0  0  0  0  0  0
  188.4950  178.0630  146.7290 C   0  0  0  0  0  3  0  0  0  0  0  0
  188.5490  178.0190  145.3310 C   0  0  0  0  0  0  0  0  0  0  0  0
  189.6310  176.3960  140.6730 C   0  0  2  0  0  3  0  0  0  0  0  0
  189.8680  178.2980  144.6830 C   0  0  0  0  0  2  0  0  0  0  0  0
  190.2320  175.9390  141.8800 O   0  0  0  0  0  0  0  0  0  0  0  0
  190.5340  177.4660  140.0330 C   0  0  0  0  0  2  0  0  0  0  0  0
  186.6260  178.8390  142.4010 C   0  0  0  0  0  2  0  0  0  0  0  0
  186.4830  178.6660  140.9270 N   0  0  2  0  0  0  0  0  0  0  0  0
  187.3640  177.7740  144.5920 C   0  0  0  0  0  0  0  0  0  0  0  0
  189.5220  176.4780  142.9360 N   0  0  2  0  0  0  0  0  0  0  0  0
  189.7830  178.3430  139.0330 C   0  0  0  0  0  2  0  0  0  0  0  0
  187.2900  177.8610  147.4010 C   0  0  0  0  0  3  0  0  0  0  0  0
  186.1620  177.5710  145.2830 C   0  0  0  0  0  3  0  0  0  0  0  0
  183.3030  179.9670  139.2410 C   0  0  1  0  0  3  0  0  0  0  0  0
  182.3900  176.4820  139.4740 C   0  0  0  0  0  1  0  0  0  0  0  0
  182.9380  181.3100  138.6480 C   0  0  0  0  0  1  0  0  0  0  0  0
  182.7720  178.1190  141.3610 C   0  0  0  0  0  3  0  0  0  0  0  0
  185.2250  177.9950  140.5630 C   0  0  1  0  0  3  0  0  0  0  0  0
  182.1570  178.9750  139.0040 C   0  0  0  0  0  2  0  0  0  0  0  0
  184.1000  178.2050  141.5660 C   0  0  0  0  0  3  0  0  0  0  0  0
  184.5750  179.5190  138.6710 N   0  0  0  0  0  2  0  0  0  0  0  0
  184.9020  178.1480  139.0700 C   0  0  0  0  0  2  0  0  0  0  0  0
  182.0720  177.8500  140.0510 C   0  0  1  0  0  3  0  0  0  0  0  0
  191.8010  177.4490  143.3770 C   0  0  0  0  0  3  0  0  0  0  0  0
  192.0850  178.6100  143.1270 O   0  0  0  0  0  0  0  0  0  0  0  0
  1  3  1  1  0  0  0
  1 15  1  0  0  0  0
  1  4  1  0  0  0  0
  2 17  1  0  0  0  0
  2  7  1  0  0  0  0
  4  2  1  0  0  0  0
  5 11  1  0  0  0  0
  6 19  1  0  0  0  0
  7 16  1  0  0  0  0
  8 19  2  0  0  0  0
  9  8  1  0  0  0  0
 10  4  1  0  0  0  0
 10 12  1  0  0  0  0
 11  9  1  0  0  0  0
 12 17  1  0  0  0  0
 13 10  1  0  0  0  0
 14  7  1  0  0  0  0
 15 14  1  0  0  0  0
 16 20  1  0  0  0  0
 16  9  2  0  0  0  0
 17  5  1  0  0  0  0
 18  3  1  0  0  0  0
 18 13  1  0  0  0  0
 20  6  2  0  0  0  0
 22 30  1  0  0  0  0
 23 21  1  0  0  0  0
 24 27  2  0  0  0  0
 25 15  1  0  0  0  0
 25 27  1  0  0  0  0
 26 21  1  0  0  0  0
 26 30  1  0  0  0  0
 28 29  1  0  0  0  0
 28 21  1  0  0  0  0
 29 25  1  0  0  0  0
 30 24  1  0  0  0  0
 31  5  1  0  0  0  0
 32 31  2  0  0  0  0
M  END
>  <MODEL>
3

>  <REMARK>
 VINA RESULT:      -8.3      2.291      5.857
  Name = 
  2 active torsions:
  status: ('A' for Active; 'I' for Inactive)
    1  A    between atoms: C_6  and  C_13
    2  A    between atoms: C_16  and  N_27
                            x       y       z     vdW  Elec       q    Type
                         _______ _______ _______ _____ _____    ______ ____

>  <TORSDO>
F 2

$$$$
=
 OpenBabel10262421013D

 32 37  0  0  1  0  0  0  0  0999 V2000
  189.9950  177.4560  140.9780 C   0  0  1  0  0  3  0  0  0  0  0  0
  188.4030  177.2760  142.8250 C   0  0  1  0  0  3  0  0  0  0  0  0
  191.0970  178.2480  141.6730 C   0  0  0  0  0  2  0  0  0  0  0  0
  189.2740  176.5090  141.9450 C   0  0  2  0  0  3  0  0  0  0  0  0
  187.7290  177.0420  145.1430 C   0  0  1  0  0  3  0  0  0  0  0  0
  183.6220  178.6080  142.4570 C   0  0  0  0  0  3  0  0  0  0  0  0
  187.2660  177.7380  141.9520 C   0  0  2  0  0  3  0  0  0  0  0  0
  184.6920  178.8000  144.6130 C   0  0  0  0  0  3  0  0  0  0  0  0
  185.9240  178.4510  144.0500 C   0  0  0  0  0  0  0  0  0  0  0  0
  190.0610  175.7580  142.9810 C   0  0  2  0  0  3  0  0  0  0  0  0
  187.1180  178.4420  144.9520 C   0  0  0  0  0  2  0  0  0  0  0  0
  189.1520  175.5100  144.0490 O   0  0  0  0  0  0  0  0  0  0  0  0
  191.2590  176.5630  143.5140 C   0  0  0  0  0  2  0  0  0  0  0  0
  187.8630  178.8200  141.0390 C   0  0  0  0  0  2  0  0  0  0  0  0
  189.0470  178.3500  140.2650 N   0  0  2  0  0  0  0  0  0  0  0  0
  186.0080  178.1800  142.6600 C   0  0  0  0  0  0  0  0  0  0  0  0
  188.0590  176.3360  143.8740 N   0  0  2  0  0  0  0  0  0  0  0  0
  192.0240  177.2790  142.4020 C   0  0  0  0  0  2  0  0  0  0  0  0
  183.5450  178.8770  143.8230 C   0  0  0  0  0  3  0  0  0  0  0  0
  184.8460  178.2590  141.8820 C   0  0  0  0  0  3  0  0  0  0  0  0
  191.1390  176.7070  137.5140 C   0  0  1  0  0  3  0  0  0  0  0  0
  187.8660  176.1490  136.0950 C   0  0  0  0  0  1  0  0  0  0  0  0
  192.6110  176.3720  137.4120 C   0  0  0  0  0  1  0  0  0  0  0  0
  189.0350  178.3550  136.4880 C   0  0  0  0  0  3  0  0  0  0  0  0
  188.6690  177.7550  138.9740 C   0  0  1  0  0  3  0  0  0  0  0  0
  190.4080  176.1790  136.2730 C   0  0  0  0  0  2  0  0  0  0  0  0
  188.8650  178.6820  137.7830 C   0  0  0  0  0  3  0  0  0  0  0  0
  190.6070  176.1650  138.7650 N   0  0  0  0  0  2  0  0  0  0  0  0
  189.1510  176.3020  138.8470 C   0  0  0  0  0  2  0  0  0  0  0  0
  189.1340  176.9640  135.9110 C   0  0  1  0  0  3  0  0  0  0  0  0
  188.8740  177.1320  146.1170 C   0  0  0  0  0  3  0  0  0  0  0  0
  188.6740  177.3280  147.3060 O   0  0  0  0  0  0  0  0  0  0  0  0
  1  3  1  1  0  0  0
  1  4  1  0  0  0  0
  2 17  1  0  0  0  0
  3 18  1  0  0  0  0
  4  2  1  0  0  0  0
  4 10  1  0  0  0  0
  5 31  1  0  0  0  0
  6 19  1  0  0  0  0
  7 16  1  0  0  0  0
  7  2  1  0  0  0  0
  9  8  1  0  0  0  0
  9 11  1  0  0  0  0
 10 13  1  0  0  0  0
 10 12  1  0  0  0  0
 11  5  1  0  0  0  0
 14  7  1  0  0  0  0
 15  1  1  0  0  0  0
 15 14  1  0  0  0  0
 16  9  2  0  0  0  0
 17 12  1  0  0  0  0
 17  5  1  0  0  0  0
 18 13  1  0  0  0  0
 19  8  2  0  0  0  0
 20  6  2  0  0  0  0
 20 16  1  0  0  0  0
 21 28  1  0  0  0  0
 23 21  1  0  0  0  0
 24 27  2  0  0  0  0
 25 15  1  0  0  0  0
 26 21  1  0  0  0  0
 27 25  1  0  0  0  0
 28 29  1  0  0  0  0
 29 25  1  0  0  0  0
 30 22  1  0  0  0  0
 30 26  1  0  0  0  0
 30 24  1  0  0  0  0
 31 32  2  0  0  0  0
M  END
>  <MODEL>
4

>  <REMARK>
 VINA RESULT:      -8.2      1.592      2.148
  Name = 
  2 active torsions:
  status: ('A' for Active; 'I' for Inactive)
    1  A    between atoms: C_6  and  C_13
    2  A    between atoms: C_16  and  N_27
                            x       y       z     vdW  Elec       q    Type
                         _______ _______ _______ _____ _____    ______ ____

>  <TORSDO>
F 2

$$$$
=
 OpenBabel10262421013D

 32 37  0  0  1  0  0  0  0  0999 V2000
  188.7830  177.2790  143.2980 C   0  0  1  0  0  3  0  0  0  0  0  0
  186.8680  178.1810  142.0770 C   0  0  1  0  0  3  0  0  0  0  0  0
  189.0990  176.0760  142.4150 C   0  0  0  0  0  2  0  0  0  0  0  0
  188.2380  178.4580  142.4840 C   0  0  2  0  0  3  0  0  0  0  0  0
  185.5590  178.7160  140.1060 C   0  0  1  0  0  3  0  0  0  0  0  0
  182.4850  179.1810  144.2130 C   0  0  0  0  0  3  0  0  0  0  0  0
  186.0520  178.2840  143.3380 C   0  0  2  0  0  3  0  0  0  0  0  0
  182.4940  178.5380  141.8850 C   0  0  0  0  0  3  0  0  0  0  0  0
  183.8680  178.2800  141.9460 C   0  0  0  0  0  0  0  0  0  0  0  0
  188.8280  178.7740  141.1390 C   0  0  2  0  0  3  0  0  0  0  0  0
  184.5250  177.7490  140.7110 C   0  0  0  0  0  2  0  0  0  0  0  0
  187.7920  179.4180  140.4060 O   0  0  0  0  0  0  0  0  0  0  0  0
  189.2780  177.5130  140.3780 C   0  0  0  0  0  2  0  0  0  0  0  0
  186.4170  177.0410  144.1660 C   0  0  0  0  0  2  0  0  0  0  0  0
  187.8800  176.9110  144.4190 N   0  0  2  0  0  0  0  0  0  0  0  0
  184.5630  178.4720  143.1660 C   0  0  0  0  0  0  0  0  0  0  0  0
  186.6000  179.1830  141.0630 N   0  0  2  0  0  0  0  0  0  0  0  0
  190.0110  176.5180  141.2750 C   0  0  0  0  0  2  0  0  0  0  0  0
  181.8040  178.9880  143.0110 C   0  0  0  0  0  3  0  0  0  0  0  0
  183.8560  178.9270  144.2870 C   0  0  0  0  0  3  0  0  0  0  0  0
  190.8740  176.3830  146.7420 C   0  0  1  0  0  3  0  0  0  0  0  0
  189.4640  179.2930  148.3490 C   0  0  0  0  0  1  0  0  0  0  0  0
  192.0710  175.4590  146.6730 C   0  0  0  0  0  1  0  0  0  0  0  0
  188.4560  176.9840  148.1500 C   0  0  0  0  0  3  0  0  0  0  0  0
  188.2970  177.6030  145.6480 C   0  0  1  0  0  3  0  0  0  0  0  0
  191.0110  177.3050  147.9600 C   0  0  0  0  0  2  0  0  0  0  0  0
  187.8980  176.8850  146.9290 C   0  0  0  0  0  3  0  0  0  0  0  0
  190.7590  177.1160  145.4800 N   0  0  0  0  0  2  0  0  0  0  0  0
  189.7270  178.1540  145.5410 C   0  0  0  0  0  2  0  0  0  0  0  0
  189.6690  177.7990  148.5300 C   0  0  1  0  0  3  0  0  0  0  0  0
  186.1090  178.1200  138.8360 C   0  0  0  0  0  3  0  0  0  0  0  0
  186.1670  178.7760  137.8080 O   0  0  0  0  0  0  0  0  0  0  0  0
  1  3  1  6  0  0  0
  1 15  1  0  0  0  0
  2  4  1  0  0  0  0
  2  7  1  0  0  0  0
  4  1  1  0  0  0  0
  5 11  1  0  0  0  0
  5 17  1  0  0  0  0
  6 20  1  0  0  0  0
  7 14  1  0  0  0  0
  8  9  2  0  0  0  0
  8 19  1  0  0  0  0
  9 16  1  0  0  0  0
 10  4  1  0  0  0  0
 11  9  1  0  0  0  0
 12 17  1  0  0  0  0
 12 10  1  0  0  0  0
 13 10  1  0  0  0  0
 13 18  1  0  0  0  0
 14 15  1  0  0  0  0
 15 25  1  0  0  0  0
 16  7  1  0  0  0  0
 16 20  2  0  0  0  0
 17  2  1  0  0  0  0
 18  3  1  0  0  0  0
 19  6  2  0  0  0  0
 21 26  1  0  0  0  0
 22 30  1  0  0  0  0
 23 21  1  0  0  0  0
 24 30  1  0  0  0  0
 25 27  1  0  0  0  0
 26 30  1  0  0  0  0
 27 24  2  0  0  0  0
 28 29  1  0  0  0  0
 28 21  1  0  0  0  0
 29 25  1  0  0  0  0
 31  5  1  0  0  0  0
 32 31  2  0  0  0  0
M  END
>  <MODEL>
5

>  <REMARK>
 VINA RESULT:      -8.2      2.589      5.826
  Name = 
  2 active torsions:
  status: ('A' for Active; 'I' for Inactive)
    1  A    between atoms: C_6  and  C_13
    2  A    between atoms: C_16  and  N_27
                            x       y       z     vdW  Elec       q    Type
                         _______ _______ _______ _____ _____    ______ ____

>  <TORSDO>
F 2

$$$$
=
 OpenBabel10262421013D

 32 37  0  0  1  0  0  0  0  0999 V2000
  189.6920  176.1250  136.8270 C   0  0  1  0  0  3  0  0  0  0  0  0
  189.0790  177.4350  138.7970 C   0  0  1  0  0  3  0  0  0  0  0  0
  188.4360  175.2700  136.6940 C   0  0  0  0  0  2  0  0  0  0  0  0
  189.3780  177.5220  137.3750 C   0  0  2  0  0  3  0  0  0  0  0  0
  187.5680  178.6280  140.2730 C   0  0  1  0  0  3  0  0  0  0  0  0
  191.9570  177.8080  142.8400 C   0  0  0  0  0  3  0  0  0  0  0  0
  190.3980  177.1420  139.4610 C   0  0  2  0  0  3  0  0  0  0  0  0
  189.5650  177.9650  143.1300 C   0  0  0  0  0  3  0  0  0  0  0  0
  189.3660  177.6610  141.7790 C   0  0  0  0  0  0  0  0  0  0  0  0
  188.1430  178.2450  136.9140 C   0  0  2  0  0  3  0  0  0  0  0  0
  187.9530  177.5470  141.2990 C   0  0  0  0  0  2  0  0  0  0  0  0
  187.7940  179.1250  137.9770 O   0  0  0  0  0  0  0  0  0  0  0  0
  186.9660  177.2920  136.6390 C   0  0  0  0  0  2  0  0  0  0  0  0
  190.7270  175.6860  139.0950 C   0  0  0  0  0  2  0  0  0  0  0  0
  190.7380  175.4360  137.6260 N   0  0  2  0  0  0  0  0  0  0  0  0
  190.4850  177.4200  140.9430 C   0  0  0  0  0  0  0  0  0  0  0  0
  188.4840  178.7220  139.1040 N   0  0  2  0  0  0  0  0  0  0  0  0
  187.3940  176.0360  135.8830 C   0  0  0  0  0  2  0  0  0  0  0  0
  190.8530  178.0410  143.6600 C   0  0  0  0  0  3  0  0  0  0  0  0
  191.7720  177.5030  141.4900 C   0  0  0  0  0  3  0  0  0  0  0  0
  193.2710  173.0530  136.0290 C   0  0  1  0  0  3  0  0  0  0  0  0
  195.0110  176.1570  135.4230 C   0  0  0  0  0  1  0  0  0  0  0  0
  193.2260  171.5720  135.7190 C   0  0  0  0  0  1  0  0  0  0  0  0
  194.4970  175.0710  137.6460 C   0  0  0  0  0  3  0  0  0  0  0  0
  192.0620  175.6730  137.0290 C   0  0  1  0  0  3  0  0  0  0  0  0
  194.5800  173.6470  135.4940 C   0  0  0  0  0  2  0  0  0  0  0  0
  193.2240  175.3750  137.9650 C   0  0  0  0  0  3  0  0  0  0  0  0
  192.0800  173.6980  135.4730 N   0  0  0  0  0  2  0  0  0  0  0  0
  192.1440  175.1570  135.5860 C   0  0  0  0  0  2  0  0  0  0  0  0
  195.0650  174.8910  136.2600 C   0  0  1  0  0  3  0  0  0  0  0  0
  186.1150  178.4660  139.9080 C   0  0  0  0  0  3  0  0  0  0  0  0
  185.3050  179.3490  140.1470 O   0  0  0  0  0  0  0  0  0  0  0  0
  1  3  1  1  0  0  0
  1  4  1  0  0  0  0
  1 15  1  0  0  0  0
  2 17  1  0  0  0  0
  2  7  1  0  0  0  0
  4  2  1  0  0  0  0
  5 11  1  0  0  0  0
  6 19  1  0  0  0  0
  7 16  1  0  0  0  0
  8 19  2  0  0  0  0
  9  8  1  0  0  0  0
 10  4  1  0  0  0  0
 10 12  1  0  0  0  0
 11  9  1  0  0  0  0
 12 17  1  0  0  0  0
 13 10  1  0  0  0  0
 14  7  1  0  0  0  0
 15 14  1  0  0  0  0
 16 20  1  0  0  0  0
 16  9  2  0  0  0  0
 17  5  1  0  0  0  0
 18 13  1  0  0  0  0
 18  3  1  0  0  0  0
 20  6  2  0  0  0  0
 22 30  1  0  0  0  0
 23 21  1  0  0  0  0
 24 27  2  0  0  0  0
 25 15  1  0  0  0  0
 25 27  1  0  0  0  0
 26 21  1  0  0  0  0
 26 30  1  0  0  0  0
 28 29  1  0  0  0  0
 28 21  1  0  0  0  0
 29 25  1  0  0  0  0
 30 24  1  0  0  0  0
 31 32  2  0  0  0  0
 31  5  1  0  0  0  0
M  END
>  <MODEL>
6

>  <REMARK>
 VINA RESULT:      -8.1      3.398      6.732
  Name = 
  2 active torsions:
  status: ('A' for Active; 'I' for Inactive)
    1  A    between atoms: C_6  and  C_13
    2  A    between atoms: C_16  and  N_27
                            x       y       z     vdW  Elec       q    Type
                         _______ _______ _______ _____ _____    ______ ____

>  <TORSDO>
F 2

$$$$
=
 OpenBabel10262421013D

 32 37  0  0  1  0  0  0  0  0999 V2000
  183.5340  178.2770  137.7150 C   0  0  1  0  0  3  0  0  0  0  0  0
  182.4410  179.0730  139.7510 C   0  0  1  0  0  3  0  0  0  0  0  0
  182.4820  177.2810  137.2390 C   0  0  0  0  0  2  0  0  0  0  0  0
  182.9030  179.4770  138.4310 C   0  0  2  0  0  3  0  0  0  0  0  0
  180.5590  179.7110  141.1420 C   0  0  1  0  0  3  0  0  0  0  0  0
  184.6510  179.1010  144.2110 C   0  0  0  0  0  3  0  0  0  0  0  0
  183.6940  178.8650  140.5620 C   0  0  2  0  0  3  0  0  0  0  0  0
  182.2520  178.8280  144.1330 C   0  0  0  0  0  3  0  0  0  0  0  0
  182.2900  178.7630  142.7360 C   0  0  0  0  0  0  0  0  0  0  0  0
  181.6290  180.0750  137.9050 C   0  0  2  0  0  3  0  0  0  0  0  0
  180.9970  178.5260  142.0210 C   0  0  0  0  0  2  0  0  0  0  0  0
  180.9900  180.6700  139.0290 O   0  0  0  0  0  0  0  0  0  0  0  0
  180.6900  179.0230  137.2870 C   0  0  0  0  0  2  0  0  0  0  0  0
  184.3260  177.5760  140.0150 C   0  0  0  0  0  2  0  0  0  0  0  0
  184.5740  177.6180  138.5460 N   0  0  2  0  0  0  0  0  0  0  0  0
  183.5340  178.8630  142.0630 C   0  0  0  0  0  0  0  0  0  0  0  0
  181.5880  180.1690  140.1690 N   0  0  2  0  0  0  0  0  0  0  0  0
  181.4340  178.0180  136.4110 C   0  0  0  0  0  2  0  0  0  0  0  0
  183.4250  178.9980  144.8690 C   0  0  0  0  0  3  0  0  0  0  0  0
  184.7020  179.0370  142.8170 C   0  0  0  0  0  3  0  0  0  0  0  0
  187.7730  175.9500  137.2680 C   0  0  1  0  0  3  0  0  0  0  0  0
  188.9070  179.3780  137.2160 C   0  0  0  0  0  1  0  0  0  0  0  0
  188.0880  174.5310  136.8480 C   0  0  0  0  0  1  0  0  0  0  0  0
  188.2720  177.9800  139.2240 C   0  0  0  0  0  3  0  0  0  0  0  0
  185.9000  178.1670  138.2190 C   0  0  1  0  0  3  0  0  0  0  0  0
  189.0000  176.8390  137.0250 C   0  0  0  0  0  2  0  0  0  0  0  0
  186.9290  177.9980  139.3270 C   0  0  0  0  0  3  0  0  0  0  0  0
  186.5820  176.4120  136.5530 N   0  0  0  0  0  2  0  0  0  0  0  0
  186.3220  177.8350  136.7810 C   0  0  0  0  0  2  0  0  0  0  0  0
  189.0850  178.0630  137.9550 C   0  0  1  0  0  3  0  0  0  0  0  0
  179.2200  179.4000  140.5250 C   0  0  0  0  0  3  0  0  0  0  0  0
  178.9310  178.2600  140.1960 O   0  0  0  0  0  0  0  0  0  0  0  0
  1  3  1  1  0  0  0
  1  4  1  0  0  0  0
  1 15  1  0  0  0  0
  2 17  1  0  0  0  0
  2  7  1  0  0  0  0
  4  2  1  0  0  0  0
  5 11  1  0  0  0  0
  6 19  1  0  0  0  0
  7 16  1  0  0  0  0
  8 19  2  0  0  0  0
  9  8  1  0  0  0  0
 10  4  1  0  0  0  0
 10 12  1  0  0  0  0
 11  9  1  0  0  0  0
 12 17  1  0  0  0  0
 13 10  1  0  0  0  0
 14  7  1  0  0  0  0
 15 14  1  0  0  0  0
 16  9  2  0  0  0  0
 16 20  1  0  0  0  0
 17  5  1  0  0  0  0
 18  3  1  0  0  0  0
 18 13  1  0  0  0  0
 20  6  2  0  0  0  0
 22 30  1  0  0  0  0
 23 21  1  0  0  0  0
 24 27  2  0  0  0  0
 25 15  1  0  0  0  0
 25 27  1  0  0  0  0
 26 21  1  0  0  0  0
 26 30  1  0  0  0  0
 28 29  1  0  0  0  0
 28 21  1  0  0  0  0
 29 25  1  0  0  0  0
 30 24  1  0  0  0  0
 31  5  1  0  0  0  0
 32 31  2  0  0  0  0
M  END
>  <MODEL>
7

>  <REMARK>
 VINA RESULT:      -7.8      4.042      6.454
  Name = 
  2 active torsions:
  status: ('A' for Active; 'I' for Inactive)
    1  A    between atoms: C_6  and  C_13
    2  A    between atoms: C_16  and  N_27
                            x       y       z     vdW  Elec       q    Type
                         _______ _______ _______ _____ _____    ______ ____

>  <TORSDO>
F 2

$$$$
=
 OpenBabel10262421013D

 32 37  0  0  1  0  0  0  0  0999 V2000
  188.3640  177.8870  141.9830 C   0  0  1  0  0  3  0  0  0  0  0  0
  186.4870  178.0030  143.5440 C   0  0  1  0  0  3  0  0  0  0  0  0
  189.2650  178.9530  142.5950 C   0  0  0  0  0  2  0  0  0  0  0  0
  187.5530  177.1420  143.0490 C   0  0  2  0  0  3  0  0  0  0  0  0
  185.4300  178.2930  145.7070 C   0  0  1  0  0  3  0  0  0  0  0  0
  181.7640  178.6280  142.1040 C   0  0  0  0  0  3  0  0  0  0  0  0
  185.4920  178.0890  142.4160 C   0  0  2  0  0  3  0  0  0  0  0  0
  182.4170  179.4910  144.2630 C   0  0  0  0  0  3  0  0  0  0  0  0
  183.7520  179.1550  144.0100 C   0  0  0  0  0  0  0  0  0  0  0  0
  188.1950  176.7800  144.3580 C   0  0  2  0  0  3  0  0  0  0  0  0
  184.7630  179.5170  145.0520 C   0  0  0  0  0  2  0  0  0  0  0  0
  187.1310  176.7100  145.3020 O   0  0  0  0  0  0  0  0  0  0  0  0
  189.2190  177.8290  144.8270 C   0  0  0  0  0  2  0  0  0  0  0  0
  186.1630  178.9620  141.3440 C   0  0  0  0  0  2  0  0  0  0  0  0
  187.4960  178.4520  140.9170 N   0  0  2  0  0  0  0  0  0  0  0  0
  184.1000  178.5480  142.7770 C   0  0  0  0  0  0  0  0  0  0  0  0
  186.0300  177.3300  144.7450 N   0  0  2  0  0  0  0  0  0  0  0  0
  190.1160  178.3190  143.6920 C   0  0  0  0  0  2  0  0  0  0  0  0
  181.4270  179.2270  143.3170 C   0  0  0  0  0  3  0  0  0  0  0  0
  183.0920  178.2880  141.8390 C   0  0  0  0  0  3  0  0  0  0  0  0
  188.6500  178.6940  137.2760 C   0  0  1  0  0  3  0  0  0  0  0  0
  187.4300  175.2960  137.2190 C   0  0  0  0  0  1  0  0  0  0  0  0
  189.4300  179.7470  136.5190 C   0  0  0  0  0  1  0  0  0  0  0  0
  186.1030  177.4190  137.5620 C   0  0  0  0  0  3  0  0  0  0  0  0
  187.3980  177.5050  139.7950 C   0  0  1  0  0  3  0  0  0  0  0  0
  188.3850  177.4950  136.3560 C   0  0  0  0  0  2  0  0  0  0  0  0
  186.2360  177.7810  138.8520 C   0  0  0  0  0  3  0  0  0  0  0  0
  189.3820  178.3320  138.4910 N   0  0  0  0  0  2  0  0  0  0  0  0
  188.7710  177.1950  139.1820 C   0  0  0  0  0  2  0  0  0  0  0  0
  187.1200  176.6940  136.7140 C   0  0  1  0  0  3  0  0  0  0  0  0
  186.3750  178.7640  146.7820 C   0  0  0  0  0  3  0  0  0  0  0  0
  186.0560  179.6570  147.5520 O   0  0  0  0  0  0  0  0  0  0  0  0
  1  3  1  1  0  0  0
  1  4  1  0  0  0  0
  2 17  1  0  0  0  0
  3 18  1  0  0  0  0
  4  2  1  0  0  0  0
  4 10  1  0  0  0  0
  5 31  1  0  0  0  0
  6 19  1  0  0  0  0
  7 16  1  0  0  0  0
  7  2  1  0  0  0  0
  9  8  1  0  0  0  0
  9 11  1  0  0  0  0
 10 13  1  0  0  0  0
 10 12  1  0  0  0  0
 11  5  1  0  0  0  0
 14  7  1  0  0  0  0
 15 14  1  0  0  0  0
 15  1  1  0  0  0  0
 16  9  2  0  0  0  0
 17 12  1  0  0  0  0
 17  5  1  0  0  0  0
 18 13  1  0  0  0  0
 19  8  2  0  0  0  0
 20  6  2  0  0  0  0
 20 16  1  0  0  0  0
 21 28  1  0  0  0  0
 23 21  1  0  0  0  0
 24 27  2  0  0  0  0
 25 15  1  0  0  0  0
 26 30  1  0  0  0  0
 26 21  1  0  0  0  0
 27 25  1  0  0  0  0
 28 29  1  0  0  0  0
 29 25  1  0  0  0  0
 30 22  1  0  0  0  0
 30 24  1  0  0  0  0
 31 32  2  0  0  0  0
M  END
>  <MODEL>
8

>  <REMARK>
 VINA RESULT:      -7.7      1.526      1.979
  Name = 
  2 active torsions:
  status: ('A' for Active; 'I' for Inactive)
    1  A    between atoms: C_6  and  C_13
    2  A    between atoms: C_16  and  N_27
                            x       y       z     vdW  Elec       q    Type
                         _______ _______ _______ _____ _____    ______ ____

>  <TORSDO>
F 2

$$$$
=
 OpenBabel10262421013D

 32 37  0  0  1  0  0  0  0  0999 V2000
  189.8690  177.4380  139.5720 C   0  0  1  0  0  3  0  0  0  0  0  0
  187.7090  178.1100  138.6450 C   0  0  1  0  0  3  0  0  0  0  0  0
  190.1220  176.1880  138.7360 C   0  0  0  0  0  2  0  0  0  0  0  0
  189.1030  178.5070  138.7840 C   0  0  2  0  0  3  0  0  0  0  0  0
  186.0480  178.3930  136.9010 C   0  0  1  0  0  3  0  0  0  0  0  0
  183.6890  179.0030  141.4390 C   0  0  0  0  0  3  0  0  0  0  0  0
  187.1140  178.2660  140.0190 C   0  0  2  0  0  3  0  0  0  0  0  0
  183.3520  178.1680  139.1980 C   0  0  0  0  0  3  0  0  0  0  0  0
  184.7320  178.0050  139.0350 C   0  0  0  0  0  0  0  0  0  0  0  0
  189.4300  178.7460  137.3370 C   0  0  2  0  0  3  0  0  0  0  0  0
  185.2100  177.4160  137.7450 C   0  0  0  0  0  2  0  0  0  0  0  0
  188.2380  179.2590  136.7530 O   0  0  0  0  0  0  0  0  0  0  0  0
  189.8400  177.4580  136.6010 C   0  0  0  0  0  2  0  0  0  0  0  0
  187.7100  177.1230  140.8560 C   0  0  0  0  0  2  0  0  0  0  0  0
  189.2000  177.1080  140.8570 N   0  0  2  0  0  0  0  0  0  0  0  0
  185.6080  178.3430  140.0980 C   0  0  0  0  0  0  0  0  0  0  0  0
  187.1960  179.0040  137.6240 N   0  0  2  0  0  0  0  0  0  0  0  0
  190.7910  176.5910  137.4250 C   0  0  0  0  0  2  0  0  0  0  0  0
  182.8310  178.6660  140.3920 C   0  0  0  0  0  3  0  0  0  0  0  0
  185.0680  178.8450  141.2890 C   0  0  0  0  0  3  0  0  0  0  0  0
  191.3390  176.1820  143.8920 C   0  0  1  0  0  3  0  0  0  0  0  0
  191.3050  179.7640  144.3430 C   0  0  0  0  0  1  0  0  0  0  0  0
  191.9620  174.8780  144.3440 C   0  0  0  0  0  1  0  0  0  0  0  0
  189.3570  178.1600  144.4810 C   0  0  0  0  0  3  0  0  0  0  0  0
  189.7650  177.9270  141.9420 C   0  0  1  0  0  3  0  0  0  0  0  0
  191.7680  177.3080  144.8410 C   0  0  0  0  0  2  0  0  0  0  0  0
  188.9460  177.9050  143.2240 C   0  0  0  0  0  3  0  0  0  0  0  0
  191.7120  176.4360  142.4990 N   0  0  0  0  0  2  0  0  0  0  0  0
  191.2880  177.7640  142.0510 C   0  0  0  0  0  2  0  0  0  0  0  0
  190.7640  178.4720  144.9300 C   0  0  1  0  0  3  0  0  0  0  0  0
  186.4180  177.7290  135.6000 C   0  0  0  0  0  3  0  0  0  0  0  0
  186.5750  176.5190  135.5360 O   0  0  0  0  0  0  0  0  0  0  0  0
  1  3  1  6  0  0  0
  1 15  1  0  0  0  0
  2  4  1  0  0  0  0
  2  7  1  0  0  0  0
  4  1  1  0  0  0  0
  5 17  1  0  0  0  0
  5 11  1  0  0  0  0
  7 16  1  0  0  0  0
  7 14  1  0  0  0  0
  8 19  1  0  0  0  0
  9  8  2  0  0  0  0
  9 16  1  0  0  0  0
 10  4  1  0  0  0  0
 11  9  1  0  0  0  0
 12 10  1  0  0  0  0
 12 17  1  0  0  0  0
 13 10  1  0  0  0  0
 13 18  1  0  0  0  0
 14 15  1  0  0  0  0
 15 25  1  0  0  0  0
 16 20  2  0  0  0  0
 17  2  1  0  0  0  0
 18  3  1  0  0  0  0
 19  6  2  0  0  0  0
 20  6  1  0  0  0  0
 21 23  1  0  0  0  0
 21 26  1  0  0  0  0
 22 30  1  0  0  0  0
 24 30  1  0  0  0  0
 25 29  1  0  0  0  0
 25 27  1  0  0  0  0
 26 30  1  0  0  0  0
 27 24  2  0  0  0  0
 28 21  1  0  0  0  0
 29 28  1  0  0  0  0
 31  5  1  0  0  0  0
 32 31  2  0  0  0  0
M  END
>  <MODEL>
9

>  <REMARK>
 VINA RESULT:      -7.6      3.253      6.142
  Name = 
  2 active torsions:
  status: ('A' for Active; 'I' for Inactive)
    1  A    between atoms: C_6  and  C_13
    2  A    between atoms: C_16  and  N_27
                            x       y       z     vdW  Elec       q    Type
                         _______ _______ _______ _____ _____    ______ ____

>  <TORSDO>
F 2

$$$$
