=
 OpenBabel10262421153D

 32 37  0  0  1  0  0  0  0  0999 V2000
  186.1180  178.4610  141.1630 C   0  0  0  0  0  0  0  0  0  0  0  0
  187.2900  178.0560  143.3870 C   0  0  1  0  0  3  0  0  0  0  0  0
  184.9480  178.7210  140.4310 C   0  0  0  0  0  3  0  0  0  0  0  0
  186.0400  178.2720  142.5600 C   0  0  0  0  0  0  0  0  0  0  0  0
  187.0020  177.7800  144.8710 C   0  0  1  0  0  3  0  0  0  0  0  0
  191.6020  175.7660  143.9520 C   0  0  0  0  0  3  0  0  0  0  0  0
  188.1580  176.9140  142.8570 C   0  0  0  0  0  2  0  0  0  0  0  0
  190.5760  176.9240  145.8150 C   0  0  0  0  0  3  0  0  0  0  0  0
  189.4340  177.1640  145.0460 C   0  0  0  0  0  0  0  0  0  0  0  0
  184.7950  178.4270  143.2050 C   0  0  0  0  0  0  0  0  0  0  0  0
  188.3140  177.9780  145.6410 C   0  0  0  0  0  2  0  0  0  0  0  0
  184.6790  178.2740  144.6910 C   0  0  0  0  0  2  0  0  0  0  0  0
  183.6400  178.6770  142.4600 C   0  0  0  0  0  3  0  0  0  0  0  0
  189.3890  176.7230  143.7020 C   0  0  0  0  0  0  0  0  0  0  0  0
  185.9240  178.6520  145.3640 N   0  0  0  0  0  0  0  0  0  0  0  0
  183.7160  178.8210  141.0760 C   0  0  0  0  0  3  0  0  0  0  0  0
  191.6560  176.2240  145.2710 C   0  0  0  0  0  3  0  0  0  0  0  0
  190.4690  176.0130  143.1710 C   0  0  0  0  0  3  0  0  0  0  0  0
  185.7140  178.4650  146.8050 C   0  0  0  0  0  2  0  0  0  0  0  0
  185.7160  179.6880  147.4870 O   0  0  0  0  0  1  0  0  0  0  0  0
  187.3600  178.3950  140.5230 O   0  0  0  0  0  0  0  0  0  0  0  0
  187.5060  178.1330  139.1340 C   0  0  0  0  0  2  0  0  0  0  0  0
  189.5170  176.5830  136.8420 C   0  0  2  0  0  0  0  0  0  0  0  0
  189.4600  175.1130  137.2610 C   0  0  0  0  0  1  0  0  0  0  0  0
  189.9280  177.9140  139.2970 C   0  0  2  0  0  3  0  0  0  0  0  0
  188.6930  177.2180  138.9260 C   0  0  2  0  0  3  0  0  0  0  0  0
  190.7140  177.1120  137.2610 O   0  0  0  0  0  0  0  0  0  0  0  0
  189.5640  177.7830  137.7810 C   0  0  1  0  0  0  0  0  0  0  0  0
  192.0150  177.5420  140.3940 O   0  0  0  0  0  1  0  0  0  0  0  0
  190.9010  176.8860  139.8720 C   0  0  0  0  0  2  0  0  0  0  0  0
  189.2950  176.8930  135.3760 C   0  0  0  0  0  2  0  0  0  0  0  0
  188.1310  176.2680  134.9300 O   0  0  0  0  0  1  0  0  0  0  0  0
  1  4  1  0  0  0  0
  2  7  1  6  0  0  0
  2  5  1  0  0  0  0
  3 16  1  0  0  0  0
  3  1  2  0  0  0  0
  4 10  2  0  0  0  0
  4  2  1  0  0  0  0
  5 15  1  0  0  0  0
  5 11  1  1  0  0  0
  6 17  1  0  0  0  0
  7 14  1  0  0  0  0
  9 11  1  0  0  0  0
  9  8  1  0  0  0  0
 10 12  1  0  0  0  0
 12 15  1  0  0  0  0
 13 10  1  0  0  0  0
 14  9  2  0  0  0  0
 15 19  1  0  0  0  0
 16 13  2  0  0  0  0
 17  8  2  0  0  0  0
 18 14  1  0  0  0  0
 18  6  2  0  0  0  0
 19 20  1  0  0  0  0
 21  1  1  0  0  0  0
 22 21  1  0  0  0  0
 23 24  1  1  0  0  0
 23 27  1  0  0  0  0
 23 28  1  0  0  0  0
 25 30  1  6  0  0  0
 26 22  1  1  0  0  0
 26 25  1  0  0  0  0
 28 27  1  1  0  0  0
 28 26  1  0  0  0  0
 28 25  1  0  0  0  0
 30 29  1  0  0  0  0
 31 23  1  0  0  0  0
 32 31  1  0  0  0  0
M  END
>  <MODEL>
1

>  <REMARK>
 VINA RESULT:      -9.5      0.000      0.000
  Name = 
  6 active torsions:
  status: ('A' for Active; 'I' for Inactive)
    1  A    between atoms: C_1  and  O_27
    2  A    between atoms: C_3  and  C_22
    3  A    between atoms: C_13  and  N_29
    4  A    between atoms: C_15  and  C_26
    5  A    between atoms: C_16  and  C_24
    6  A    between atoms: C_24  and  O_27
                            x       y       z     vdW  Elec       q    Type
                         _______ _______ _______ _____ _____    ______ ____

>  <TORSDO>
F 6

$$$$
=
 OpenBabel10262421153D

 32 37  0  0  1  0  0  0  0  0999 V2000
  189.6130  176.7100  143.0930 C   0  0  0  0  0  0  0  0  0  0  0  0
  187.6790  177.3690  144.6120 C   0  0  1  0  0  3  0  0  0  0  0  0
  190.9750  176.4220  142.9080 C   0  0  0  0  0  3  0  0  0  0  0  0
  189.1520  177.1160  144.3640 C   0  0  0  0  0  0  0  0  0  0  0  0
  187.3790  177.8900  146.0270 C   0  0  1  0  0  3  0  0  0  0  0  0
  183.4640  179.4120  143.1250 C   0  0  0  0  0  3  0  0  0  0  0  0
  187.0720  178.3520  143.6110 C   0  0  0  0  0  2  0  0  0  0  0  0
  183.7090  178.6290  145.4030 C   0  0  0  0  0  3  0  0  0  0  0  0
  185.0600  178.3540  145.1710 C   0  0  0  0  0  0  0  0  0  0  0  0
  190.0580  177.1490  145.4440 C   0  0  0  0  0  0  0  0  0  0  0  0
  185.8730  177.7220  146.2710 C   0  0  0  0  0  2  0  0  0  0  0  0
  189.5980  177.5380  146.8170 C   0  0  0  0  0  2  0  0  0  0  0  0
  191.4110  176.8690  145.2400 C   0  0  0  0  0  3  0  0  0  0  0  0
  185.6110  178.5850  143.8880 C   0  0  0  0  0  0  0  0  0  0  0  0
  188.1920  177.1820  147.0280 N   0  0  0  0  0  0  0  0  0  0  0  0
  191.8690  176.5080  143.9740 C   0  0  0  0  0  3  0  0  0  0  0  0
  182.9150  179.1600  144.3840 C   0  0  0  0  0  3  0  0  0  0  0  0
  184.8110  179.1280  142.8800 C   0  0  0  0  0  3  0  0  0  0  0  0
  187.8360  177.6020  148.3880 C   0  0  0  0  0  2  0  0  0  0  0  0
  188.8570  178.3610  148.9750 O   0  0  0  0  0  1  0  0  0  0  0  0
  188.7080  176.5890  142.0330 O   0  0  0  0  0  0  0  0  0  0  0  0
  188.5910  177.5560  140.9980 C   0  0  0  0  0  2  0  0  0  0  0  0
  188.3890  177.5920  137.5830 C   0  0  2  0  0  0  0  0  0  0  0  0
  188.1250  176.1280  137.2310 C   0  0  0  0  0  1  0  0  0  0  0  0
  190.4830  177.4120  139.4680 C   0  0  2  0  0  3  0  0  0  0  0  0
  189.1090  176.9610  139.7060 C   0  0  2  0  0  3  0  0  0  0  0  0
  189.7080  177.8760  137.3240 O   0  0  0  0  0  0  0  0  0  0  0  0
  189.3180  178.0980  138.6810 C   0  0  1  0  0  0  0  0  0  0  0  0
  192.5660  176.6690  138.5700 O   0  0  0  0  0  1  0  0  0  0  0  0
  191.2370  176.2900  138.7570 C   0  0  0  0  0  2  0  0  0  0  0  0
  187.4960  178.6310  136.9350 C   0  0  0  0  0  2  0  0  0  0  0  0
  186.2850  178.7110  137.6220 O   0  0  0  0  0  1  0  0  0  0  0  0
  1  4  1  0  0  0  0
  2  7  1  6  0  0  0
  2  5  1  0  0  0  0
  3  1  2  0  0  0  0
  3 16  1  0  0  0  0
  4  2  1  0  0  0  0
  4 10  2  0  0  0  0
  5 11  1  1  0  0  0
  5 15  1  0  0  0  0
  6 17  1  0  0  0  0
  7 14  1  0  0  0  0
  9  8  1  0  0  0  0
  9 11  1  0  0  0  0
 10 12  1  0  0  0  0
 12 15  1  0  0  0  0
 13 10  1  0  0  0  0
 14  9  2  0  0  0  0
 15 19  1  0  0  0  0
 16 13  2  0  0  0  0
 17  8  2  0  0  0  0
 18  6  2  0  0  0  0
 18 14  1  0  0  0  0
 19 20  1  0  0  0  0
 21  1  1  0  0  0  0
 22 21  1  0  0  0  0
 23 24  1  1  0  0  0
 23 28  1  0  0  0  0
 25 30  1  6  0  0  0
 25 26  1  0  0  0  0
 26 22  1  1  0  0  0
 27 23  1  0  0  0  0
 28 27  1  6  0  0  0
 28 25  1  0  0  0  0
 28 26  1  0  0  0  0
 29 30  1  0  0  0  0
 31 23  1  0  0  0  0
 31 32  1  0  0  0  0
M  END
>  <MODEL>
2

>  <REMARK>
 VINA RESULT:      -9.3      1.704      4.649
  Name = 
  6 active torsions:
  status: ('A' for Active; 'I' for Inactive)
    1  A    between atoms: C_1  and  O_27
    2  A    between atoms: C_3  and  C_22
    3  A    between atoms: C_13  and  N_29
    4  A    between atoms: C_15  and  C_26
    5  A    between atoms: C_16  and  C_24
    6  A    between atoms: C_24  and  O_27
                            x       y       z     vdW  Elec       q    Type
                         _______ _______ _______ _____ _____    ______ ____

>  <TORSDO>
F 6

$$$$
=
 OpenBabel10262421153D

 32 37  0  0  1  0  0  0  0  0999 V2000
  189.6870  176.8670  143.2060 C   0  0  0  0  0  0  0  0  0  0  0  0
  187.2370  177.5520  143.3130 C   0  0  1  0  0  3  0  0  0  0  0  0
  190.9250  176.6600  143.8390 C   0  0  0  0  0  3  0  0  0  0  0  0
  188.6010  177.3790  143.9480 C   0  0  0  0  0  0  0  0  0  0  0  0
  186.2060  178.2060  144.2460 C   0  0  1  0  0  3  0  0  0  0  0  0
  184.5510  179.1020  139.5010 C   0  0  0  0  0  3  0  0  0  0  0  0
  187.2870  178.3690  142.0210 C   0  0  0  0  0  2  0  0  0  0  0  0
  183.4940  178.6010  141.6220 C   0  0  0  0  0  3  0  0  0  0  0  0
  184.7480  178.4000  142.2070 C   0  0  0  0  0  0  0  0  0  0  0  0
  188.7590  177.6000  145.3330 C   0  0  0  0  0  0  0  0  0  0  0  0
  184.8160  177.9570  143.6450 C   0  0  0  0  0  2  0  0  0  0  0  0
  187.6180  178.1060  146.1610 C   0  0  0  0  0  2  0  0  0  0  0  0
  189.9990  177.3970  145.9430 C   0  0  0  0  0  3  0  0  0  0  0  0
  185.9170  178.5240  141.4190 C   0  0  0  0  0  0  0  0  0  0  0  0
  186.3300  177.6760  145.6130 N   0  0  0  0  0  0  0  0  0  0  0  0
  191.0800  176.9300  145.1980 C   0  0  0  0  0  3  0  0  0  0  0  0
  183.3960  178.9550  140.2740 C   0  0  0  0  0  3  0  0  0  0  0  0
  185.8080  178.8910  140.0750 C   0  0  0  0  0  3  0  0  0  0  0  0
  185.2820  178.2200  146.4850 C   0  0  0  0  0  2  0  0  0  0  0  0
  185.6910  179.4110  147.0990 O   0  0  0  0  0  1  0  0  0  0  0  0
  189.5190  176.5620  141.8510 O   0  0  0  0  0  0  0  0  0  0  0  0
  190.3250  177.1220  140.8230 C   0  0  0  0  0  2  0  0  0  0  0  0
  189.0500  177.8250  137.7280 C   0  0  2  0  0  0  0  0  0  0  0  0
  187.8380  176.8970  137.6270 C   0  0  0  0  0  1  0  0  0  0  0  0
  191.0620  176.1150  138.7290 C   0  0  2  0  0  3  0  0  0  0  0  0
  189.8880  176.5530  139.4900 C   0  0  2  0  0  3  0  0  0  0  0  0
  190.0740  177.2920  136.9820 O   0  0  0  0  0  0  0  0  0  0  0  0
  190.3930  177.4820  138.3620 C   0  0  1  0  0  0  0  0  0  0  0  0
  191.7920  174.1240  137.6340 O   0  0  0  0  0  1  0  0  0  0  0  0
  190.6620  174.8990  137.8950 C   0  0  0  0  0  2  0  0  0  0  0  0
  188.8400  179.2790  137.3590 C   0  0  0  0  0  2  0  0  0  0  0  0
  187.5260  179.4760  136.9360 O   0  0  0  0  0  1  0  0  0  0  0  0
  1  3  2  0  0  0  0
  1  4  1  0  0  0  0
  2  7  1  6  0  0  0
  2  4  1  0  0  0  0
  2  5  1  0  0  0  0
  3 16  1  0  0  0  0
  4 10  2  0  0  0  0
  5 11  1  6  0  0  0
  5 15  1  0  0  0  0
  6 18  2  0  0  0  0
  6 17  1  0  0  0  0
  8  9  1  0  0  0  0
  9 11  1  0  0  0  0
 10 13  1  0  0  0  0
 10 12  1  0  0  0  0
 14  7  1  0  0  0  0
 14  9  2  0  0  0  0
 15 12  1  0  0  0  0
 15 19  1  0  0  0  0
 16 13  2  0  0  0  0
 17  8  2  0  0  0  0
 18 14  1  0  0  0  0
 19 20  1  0  0  0  0
 21  1  1  0  0  0  0
 22 21  1  0  0  0  0
 23 24  1  1  0  0  0
 23 28  1  0  0  0  0
 25 30  1  6  0  0  0
 25 26  1  0  0  0  0
 26 22  1  1  0  0  0
 27 23  1  0  0  0  0
 28 27  1  6  0  0  0
 28 25  1  0  0  0  0
 28 26  1  0  0  0  0
 29 30  1  0  0  0  0
 31 23  1  0  0  0  0
 32 31  1  0  0  0  0
M  END
>  <MODEL>
3

>  <REMARK>
 VINA RESULT:      -9.2      1.407      4.671
  Name = 
  6 active torsions:
  status: ('A' for Active; 'I' for Inactive)
    1  A    between atoms: C_1  and  O_27
    2  A    between atoms: C_3  and  C_22
    3  A    between atoms: C_13  and  N_29
    4  A    between atoms: C_15  and  C_26
    5  A    between atoms: C_16  and  C_24
    6  A    between atoms: C_24  and  O_27
                            x       y       z     vdW  Elec       q    Type
                         _______ _______ _______ _____ _____    ______ ____

>  <TORSDO>
F 6

$$$$
=
 OpenBabel10262421153D

 32 37  0  0  1  0  0  0  0  0999 V2000
  190.0190  177.9210  142.3770 C   0  0  0  0  0  0  0  0  0  0  0  0
  187.5990  178.4000  141.7470 C   0  0  1  0  0  3  0  0  0  0  0  0
  191.3120  177.5020  142.0220 C   0  0  0  0  0  3  0  0  0  0  0  0
  188.9880  177.8930  141.4140 C   0  0  0  0  0  0  0  0  0  0  0  0
  186.5890  178.2070  140.6050 C   0  0  1  0  0  3  0  0  0  0  0  0
  183.8150  178.5140  144.8790 C   0  0  0  0  0  3  0  0  0  0  0  0
  187.0190  177.7480  143.0020 C   0  0  0  0  0  2  0  0  0  0  0  0
  183.5380  179.2710  142.5950 C   0  0  0  0  0  3  0  0  0  0  0  0
  184.8340  178.8440  142.2890 C   0  0  0  0  0  0  0  0  0  0  0  0
  189.2960  177.5200  140.0890 C   0  0  0  0  0  0  0  0  0  0  0  0
  185.3760  179.0970  140.9070 C   0  0  0  0  0  2  0  0  0  0  0  0
  188.2360  177.5170  139.0290 C   0  0  0  0  0  2  0  0  0  0  0  0
  190.5850  177.0980  139.7560 C   0  0  0  0  0  3  0  0  0  0  0  0
  185.6400  178.2700  143.3020 C   0  0  0  0  0  0  0  0  0  0  0  0
  187.2040  178.5200  139.3050 N   0  0  0  0  0  0  0  0  0  0  0  0
  191.5910  177.0870  140.7200 C   0  0  0  0  0  3  0  0  0  0  0  0
  183.0290  179.1030  143.8850 C   0  0  0  0  0  3  0  0  0  0  0  0
  185.1160  178.0950  144.5850 C   0  0  0  0  0  3  0  0  0  0  0  0
  186.2170  178.4370  138.2220 C   0  0  0  0  0  2  0  0  0  0  0  0
  186.7930  178.7280  136.9780 O   0  0  0  0  0  1  0  0  0  0  0  0
  189.7460  178.3710  143.6730 O   0  0  0  0  0  0  0  0  0  0  0  0
  190.7340  178.9350  144.5240 C   0  0  0  0  0  2  0  0  0  0  0  0
  188.7640  177.6730  147.0200 C   0  0  2  0  0  0  0  0  0  0  0  0
  189.3280  178.3320  148.2800 C   0  0  0  0  0  1  0  0  0  0  0  0
  191.0910  176.8140  145.6720 C   0  0  2  0  0  3  0  0  0  0  0  0
  190.7070  178.2160  145.8560 C   0  0  2  0  0  3  0  0  0  0  0  0
  189.2100  176.3750  146.9670 O   0  0  0  0  0  0  0  0  0  0  0  0
  189.5750  177.1650  145.8330 C   0  0  1  0  0  0  0  0  0  0  0  0
  192.4390  175.1220  146.6800 O   0  0  0  0  0  1  0  0  0  0  0  0
  191.8370  176.3560  146.9240 C   0  0  0  0  0  2  0  0  0  0  0  0
  187.2620  177.7170  146.8310 C   0  0  0  0  0  2  0  0  0  0  0  0
  186.7010  178.6520  147.7000 O   0  0  0  0  0  1  0  0  0  0  0  0
  1 21  1  0  0  0  0
  2  7  1  1  0  0  0
  3  1  1  0  0  0  0
  4  2  1  0  0  0  0
  4  1  2  0  0  0  0
  5 11  1  1  0  0  0
  5  2  1  0  0  0  0
  7 14  1  0  0  0  0
  8 17  1  0  0  0  0
  9  8  2  0  0  0  0
  9 14  1  0  0  0  0
 10  4  1  0  0  0  0
 11  9  1  0  0  0  0
 12 15  1  0  0  0  0
 12 10  1  0  0  0  0
 13 10  2  0  0  0  0
 13 16  1  0  0  0  0
 14 18  2  0  0  0  0
 15  5  1  0  0  0  0
 16  3  2  0  0  0  0
 17  6  2  0  0  0  0
 18  6  1  0  0  0  0
 19 15  1  0  0  0  0
 20 19  1  0  0  0  0
 21 22  1  0  0  0  0
 23 24  1  1  0  0  0
 25 28  1  0  0  0  0
 25 26  1  0  0  0  0
 25 30  1  1  0  0  0
 26 22  1  6  0  0  0
 27 23  1  0  0  0  0
 28 26  1  0  0  0  0
 28 27  1  1  0  0  0
 28 23  1  0  0  0  0
 29 30  1  0  0  0  0
 31 23  1  0  0  0  0
 31 32  1  0  0  0  0
M  END
>  <MODEL>
4

>  <REMARK>
 VINA RESULT:      -9.1      2.420      7.517
  Name = 
  6 active torsions:
  status: ('A' for Active; 'I' for Inactive)
    1  A    between atoms: C_1  and  O_27
    2  A    between atoms: C_3  and  C_22
    3  A    between atoms: C_13  and  N_29
    4  A    between atoms: C_15  and  C_26
    5  A    between atoms: C_16  and  C_24
    6  A    between atoms: C_24  and  O_27
                            x       y       z     vdW  Elec       q    Type
                         _______ _______ _______ _____ _____    ______ ____

>  <TORSDO>
F 6

$$$$
=
 OpenBabel10262421153D

 32 37  0  0  1  0  0  0  0  0999 V2000
  186.4490  178.5290  141.2180 C   0  0  0  0  0  0  0  0  0  0  0  0
  187.4340  178.0940  143.5250 C   0  0  1  0  0  3  0  0  0  0  0  0
  185.3410  178.7900  140.3940 C   0  0  0  0  0  3  0  0  0  0  0  0
  186.2550  178.3120  142.5990 C   0  0  0  0  0  0  0  0  0  0  0  0
  187.0240  177.7850  144.9740 C   0  0  1  0  0  3  0  0  0  0  0  0
  191.7130  175.8470  144.4110 C   0  0  0  0  0  3  0  0  0  0  0  0
  188.3590  176.9740  143.0490 C   0  0  0  0  0  2  0  0  0  0  0  0
  190.5170  176.9540  146.2020 C   0  0  0  0  0  3  0  0  0  0  0  0
  189.4410  177.1960  145.3430 C   0  0  0  0  0  0  0  0  0  0  0  0
  184.9580  178.4390  143.1390 C   0  0  0  0  0  0  0  0  0  0  0  0
  188.2640  177.9840  145.8560 C   0  0  0  0  0  2  0  0  0  0  0  0
  184.7190  178.2540  144.6060 C   0  0  0  0  0  2  0  0  0  0  0  0
  183.8670  178.6900  142.3030 C   0  0  0  0  0  3  0  0  0  0  0  0
  189.5160  176.7820  143.9920 C   0  0  0  0  0  0  0  0  0  0  0  0
  185.8970  178.6340  145.3900 N   0  0  0  0  0  0  0  0  0  0  0  0
  184.0580  178.8630  140.9330 C   0  0  0  0  0  3  0  0  0  0  0  0
  191.6480  176.2780  145.7380 C   0  0  0  0  0  3  0  0  0  0  0  0
  190.6470  176.0950  143.5420 C   0  0  0  0  0  3  0  0  0  0  0  0
  185.5680  178.4160  146.8030 C   0  0  0  0  0  2  0  0  0  0  0  0
  185.6800  179.5980  147.5460 O   0  0  0  0  0  1  0  0  0  0  0  0
  187.7420  178.4920  140.6850 O   0  0  0  0  0  0  0  0  0  0  0  0
  188.3150  177.3210  140.1200 C   0  0  0  0  0  2  0  0  0  0  0  0
  189.3790  175.9670  137.1640 C   0  0  2  0  0  0  0  0  0  0  0  0
  190.5880  176.8290  136.7970 C   0  0  0  0  0  1  0  0  0  0  0  0
  187.4480  177.8850  137.9120 C   0  0  2  0  0  3  0  0  0  0  0  0
  188.6660  177.5920  138.6730 C   0  0  2  0  0  3  0  0  0  0  0  0
  188.3120  176.3540  136.3900 O   0  0  0  0  0  0  0  0  0  0  0  0
  188.0830  176.4600  137.7970 C   0  0  1  0  0  0  0  0  0  0  0  0
  188.7890  179.7590  137.2890 O   0  0  0  0  0  1  0  0  0  0  0  0
  187.8000  178.8950  136.8210 C   0  0  0  0  0  2  0  0  0  0  0  0
  189.5560  174.4640  137.0930 C   0  0  0  0  0  2  0  0  0  0  0  0
  190.7670  174.1000  137.6800 O   0  0  0  0  0  1  0  0  0  0  0  0
  1  4  1  0  0  0  0
  2  7  1  6  0  0  0
  2  5  1  0  0  0  0
  3 16  1  0  0  0  0
  3  1  2  0  0  0  0
  4 10  2  0  0  0  0
  4  2  1  0  0  0  0
  5 15  1  0  0  0  0
  5 11  1  1  0  0  0
  6 17  1  0  0  0  0
  7 14  1  0  0  0  0
  9 11  1  0  0  0  0
  9  8  1  0  0  0  0
 10 12  1  0  0  0  0
 12 15  1  0  0  0  0
 13 10  1  0  0  0  0
 14  9  2  0  0  0  0
 15 19  1  0  0  0  0
 16 13  2  0  0  0  0
 17  8  2  0  0  0  0
 18 14  1  0  0  0  0
 18  6  2  0  0  0  0
 19 20  1  0  0  0  0
 21  1  1  0  0  0  0
 22 21  1  0  0  0  0
 23 24  1  1  0  0  0
 23 28  1  0  0  0  0
 25 30  1  6  0  0  0
 25 26  1  0  0  0  0
 26 22  1  1  0  0  0
 27 23  1  0  0  0  0
 28 27  1  6  0  0  0
 28 25  1  0  0  0  0
 28 26  1  0  0  0  0
 30 29  1  0  0  0  0
 31 23  1  0  0  0  0
 31 32  1  0  0  0  0
M  END
>  <MODEL>
5

>  <REMARK>
 VINA RESULT:      -8.9      1.219      1.808
  Name = 
  6 active torsions:
  status: ('A' for Active; 'I' for Inactive)
    1  A    between atoms: C_1  and  O_27
    2  A    between atoms: C_3  and  C_22
    3  A    between atoms: C_13  and  N_29
    4  A    between atoms: C_15  and  C_26
    5  A    between atoms: C_16  and  C_24
    6  A    between atoms: C_24  and  O_27
                            x       y       z     vdW  Elec       q    Type
                         _______ _______ _______ _____ _____    ______ ____

>  <TORSDO>
F 6

$$$$
=
 OpenBabel10262421153D

 32 37  0  0  1  0  0  0  0  0999 V2000
  184.9110  178.5120  143.1840 C   0  0  0  0  0  0  0  0  0  0  0  0
  187.0240  178.0900  144.5390 C   0  0  1  0  0  3  0  0  0  0  0  0
  183.5400  178.8150  143.1250 C   0  0  0  0  0  3  0  0  0  0  0  0
  185.5360  178.3510  144.4400 C   0  0  0  0  0  0  0  0  0  0  0  0
  187.5080  177.8520  145.9790 C   0  0  1  0  0  3  0  0  0  0  0  0
  190.9630  175.6100  142.9630 C   0  0  0  0  0  3  0  0  0  0  0  0
  187.4730  176.9000  143.6910 C   0  0  0  0  0  2  0  0  0  0  0  0
  191.0450  176.8450  145.0440 C   0  0  0  0  0  3  0  0  0  0  0  0
  189.6800  177.1260  144.9400 C   0  0  0  0  0  0  0  0  0  0  0  0
  184.7860  178.5750  145.6130 C   0  0  0  0  0  0  0  0  0  0  0  0
  189.0350  178.0010  145.9830 C   0  0  0  0  0  2  0  0  0  0  0  0
  185.4240  178.4520  146.9630 C   0  0  0  0  0  2  0  0  0  0  0  0
  183.4220  178.8670  145.5350 C   0  0  0  0  0  3  0  0  0  0  0  0
  188.9540  176.6650  143.8150 C   0  0  0  0  0  0  0  0  0  0  0  0
  186.8510  178.7820  146.9100 N   0  0  0  0  0  0  0  0  0  0  0  0
  182.8000  178.9840  144.2940 C   0  0  0  0  0  3  0  0  0  0  0  0
  191.6840  176.0860  144.0610 C   0  0  0  0  0  3  0  0  0  0  0  0
  189.6000  175.8960  142.8440 C   0  0  0  0  0  3  0  0  0  0  0  0
  187.3830  178.6300  148.2690 C   0  0  0  0  0  2  0  0  0  0  0  0
  187.5600  177.2810  148.6040 O   0  0  0  0  0  1  0  0  0  0  0  0
  185.6630  178.3770  142.0120 O   0  0  0  0  0  0  0  0  0  0  0  0
  185.3930  179.1120  140.8260 C   0  0  0  0  0  2  0  0  0  0  0  0
  182.2760  178.4720  139.5700 C   0  0  2  0  0  0  0  0  0  0  0  0
  182.0890  176.9770  139.8360 C   0  0  0  0  0  1  0  0  0  0  0  0
  184.8850  178.5930  138.4990 C   0  0  2  0  0  3  0  0  0  0  0  0
  184.5720  178.2510  139.8890 C   0  0  2  0  0  3  0  0  0  0  0  0
  182.5740  178.6470  138.2410 O   0  0  0  0  0  0  0  0  0  0  0  0
  183.5690  179.1520  139.1350 C   0  0  1  0  0  0  0  0  0  0  0  0
  185.4450  177.5020  136.4520 O   0  0  0  0  0  1  0  0  0  0  0  0
  184.7680  177.3240  137.6580 C   0  0  0  0  0  2  0  0  0  0  0  0
  181.1430  179.3920  139.9760 C   0  0  0  0  0  2  0  0  0  0  0  0
  180.4230  178.8240  141.0260 O   0  0  0  0  0  1  0  0  0  0  0  0
  1  4  1  0  0  0  0
  2  7  1  6  0  0  0
  2  5  1  0  0  0  0
  3  1  2  0  0  0  0
  3 16  1  0  0  0  0
  4  2  1  0  0  0  0
  4 10  2  0  0  0  0
  5 11  1  6  0  0  0
  5 15  1  0  0  0  0
  6 17  1  0  0  0  0
  7 14  1  0  0  0  0
  9  8  1  0  0  0  0
  9 11  1  0  0  0  0
 10 12  1  0  0  0  0
 13 10  1  0  0  0  0
 14  9  2  0  0  0  0
 15 12  1  0  0  0  0
 15 19  1  0  0  0  0
 16 13  2  0  0  0  0
 17  8  2  0  0  0  0
 18  6  2  0  0  0  0
 18 14  1  0  0  0  0
 19 20  1  0  0  0  0
 21  1  1  0  0  0  0
 22 21  1  0  0  0  0
 23 24  1  1  0  0  0
 23 31  1  0  0  0  0
 25 30  1  6  0  0  0
 25 28  1  0  0  0  0
 25 26  1  0  0  0  0
 26 22  1  1  0  0  0
 27 23  1  0  0  0  0
 28 27  1  6  0  0  0
 28 23  1  0  0  0  0
 28 26  1  0  0  0  0
 29 30  1  0  0  0  0
 31 32  1  0  0  0  0
M  END
>  <MODEL>
6

>  <REMARK>
 VINA RESULT:      -8.8      2.888      4.588
  Name = 
  6 active torsions:
  status: ('A' for Active; 'I' for Inactive)
    1  A    between atoms: C_1  and  O_27
    2  A    between atoms: C_3  and  C_22
    3  A    between atoms: C_13  and  N_29
    4  A    between atoms: C_15  and  C_26
    5  A    between atoms: C_16  and  C_24
    6  A    between atoms: C_24  and  O_27
                            x       y       z     vdW  Elec       q    Type
                         _______ _______ _______ _____ _____    ______ ____

>  <TORSDO>
F 6

$$$$
=
 OpenBabel10262421153D

 32 37  0  0  1  0  0  0  0  0999 V2000
  186.3370  178.2720  144.0270 C   0  0  0  0  0  0  0  0  0  0  0  0
  188.7280  177.8600  143.2580 C   0  0  1  0  0  3  0  0  0  0  0  0
  185.3700  178.2940  145.0460 C   0  0  0  0  0  3  0  0  0  0  0  0
  187.6460  177.8330  144.3170 C   0  0  0  0  0  0  0  0  0  0  0  0
  190.0620  177.2610  143.7310 C   0  0  1  0  0  3  0  0  0  0  0  0
  190.1030  176.8930  138.6400 C   0  0  0  0  0  3  0  0  0  0  0  0
  188.3170  177.1350  141.9760 C   0  0  0  0  0  2  0  0  0  0  0  0
  191.7630  177.3580  140.3400 C   0  0  0  0  0  3  0  0  0  0  0  0
  190.7650  177.3750  141.3200 C   0  0  0  0  0  0  0  0  0  0  0  0
  187.9790  177.4980  145.6470 C   0  0  0  0  0  0  0  0  0  0  0  0
  191.1460  177.7050  142.7400 C   0  0  0  0  0  2  0  0  0  0  0  0
  189.3690  177.0660  146.0010 C   0  0  0  0  0  2  0  0  0  0  0  0
  187.0030  177.5170  146.6450 C   0  0  0  0  0  3  0  0  0  0  0  0
  189.4140  177.1770  140.9470 C   0  0  0  0  0  0  0  0  0  0  0  0
  190.3600  177.6760  145.1110 N   0  0  0  0  0  0  0  0  0  0  0  0
  185.7000  177.9120  146.3450 C   0  0  0  0  0  3  0  0  0  0  0  0
  191.4330  177.1130  139.0050 C   0  0  0  0  0  3  0  0  0  0  0  0
  189.0970  176.9210  139.6100 C   0  0  0  0  0  3  0  0  0  0  0  0
  191.6800  177.1920  145.5330 C   0  0  0  0  0  2  0  0  0  0  0  0
  191.6800  176.8060  146.8800 O   0  0  0  0  0  1  0  0  0  0  0  0
  186.0160  178.6880  142.7310 O   0  0  0  0  0  0  0  0  0  0  0  0
  184.6860  178.9480  142.3040 C   0  0  0  0  0  2  0  0  0  0  0  0
  182.3510  177.9400  140.0160 C   0  0  2  0  0  0  0  0  0  0  0  0
  182.6460  176.4490  139.8460 C   0  0  0  0  0  1  0  0  0  0  0  0
  184.9200  179.1020  139.8830 C   0  0  2  0  0  3  0  0  0  0  0  0
  184.4480  178.2540  140.9800 C   0  0  2  0  0  3  0  0  0  0  0  0
  182.8550  178.6140  138.9300 O   0  0  0  0  0  0  0  0  0  0  0  0
  183.3860  179.0460  140.1850 C   0  0  1  0  0  0  0  0  0  0  0  0
  186.3510  178.9040  137.9830 O   0  0  0  0  0  1  0  0  0  0  0  0
  185.4440  178.1960  138.7700 C   0  0  0  0  0  2  0  0  0  0  0  0
  180.9080  178.3360  140.2520 C   0  0  0  0  0  2  0  0  0  0  0  0
  180.2530  177.3380  140.9730 O   0  0  0  0  0  1  0  0  0  0  0  0
  1  4  2  0  0  0  0
  1  3  1  0  0  0  0
  2  7  1  6  0  0  0
  2  5  1  0  0  0  0
  2  4  1  0  0  0  0
  3 16  2  0  0  0  0
  4 10  1  0  0  0  0
  5 11  1  6  0  0  0
  5 15  1  0  0  0  0
  6 17  2  0  0  0  0
  6 18  1  0  0  0  0
  8  9  2  0  0  0  0
  9 11  1  0  0  0  0
 10 12  1  0  0  0  0
 10 13  2  0  0  0  0
 14  9  1  0  0  0  0
 14  7  1  0  0  0  0
 15 19  1  0  0  0  0
 15 12  1  0  0  0  0
 16 13  1  0  0  0  0
 17  8  1  0  0  0  0
 18 14  2  0  0  0  0
 19 20  1  0  0  0  0
 21  1  1  0  0  0  0
 22 21  1  0  0  0  0
 23 24  1  1  0  0  0
 23 28  1  0  0  0  0
 23 31  1  0  0  0  0
 25 30  1  6  0  0  0
 25 28  1  0  0  0  0
 25 26  1  0  0  0  0
 26 22  1  1  0  0  0
 27 23  1  0  0  0  0
 28 27  1  6  0  0  0
 28 26  1  0  0  0  0
 29 30  1  0  0  0  0
 31 32  1  0  0  0  0
M  END
>  <MODEL>
7

>  <REMARK>
 VINA RESULT:      -8.7      2.530      5.566
  Name = 
  6 active torsions:
  status: ('A' for Active; 'I' for Inactive)
    1  A    between atoms: C_1  and  O_27
    2  A    between atoms: C_3  and  C_22
    3  A    between atoms: C_13  and  N_29
    4  A    between atoms: C_15  and  C_26
    5  A    between atoms: C_16  and  C_24
    6  A    between atoms: C_24  and  O_27
                            x       y       z     vdW  Elec       q    Type
                         _______ _______ _______ _____ _____    ______ ____

>  <TORSDO>
F 6

$$$$
=
 OpenBabel10262421153D

 32 37  0  0  1  0  0  0  0  0999 V2000
  186.5360  178.4340  140.4200 C   0  0  0  0  0  0  0  0  0  0  0  0
  185.5220  178.7010  142.7400 C   0  0  1  0  0  3  0  0  0  0  0  0
  186.3830  178.3010  139.0300 C   0  0  0  0  0  3  0  0  0  0  0  0
  185.3930  178.4910  141.2460 C   0  0  0  0  0  0  0  0  0  0  0  0
  184.1780  178.6450  143.4840 C   0  0  1  0  0  3  0  0  0  0  0  0
  187.7390  177.5250  146.9650 C   0  0  0  0  0  3  0  0  0  0  0  0
  186.4650  177.6930  143.3980 C   0  0  0  0  0  2  0  0  0  0  0  0
  185.6550  178.7570  146.9770 C   0  0  0  0  0  3  0  0  0  0  0  0
  185.5480  178.6040  145.5920 C   0  0  0  0  0  0  0  0  0  0  0  0
  184.1140  178.4920  140.6480 C   0  0  0  0  0  0  0  0  0  0  0  0
  184.3940  179.2550  144.8750 C   0  0  0  0  0  2  0  0  0  0  0  0
  182.8780  178.5910  141.4890 C   0  0  0  0  0  2  0  0  0  0  0  0
  183.9810  178.3500  139.2650 C   0  0  0  0  0  3  0  0  0  0  0  0
  186.5670  177.9260  144.8810 C   0  0  0  0  0  0  0  0  0  0  0  0
  183.1300  179.3420  142.7220 N   0  0  0  0  0  0  0  0  0  0  0  0
  185.1130  178.2530  138.4580 C   0  0  0  0  0  3  0  0  0  0  0  0
  186.7460  178.2160  147.6620 C   0  0  0  0  0  3  0  0  0  0  0  0
  187.6470  177.3770  145.5780 C   0  0  0  0  0  3  0  0  0  0  0  0
  181.8700  179.3810  143.4730 C   0  0  0  0  0  2  0  0  0  0  0  0
  180.7620  179.2570  142.6250 O   0  0  0  0  0  1  0  0  0  0  0  0
  187.8100  178.5190  140.9930 O   0  0  0  0  0  0  0  0  0  0  0  0
  188.5600  177.3800  141.3910 C   0  0  0  0  0  2  0  0  0  0  0  0
  191.0370  177.5210  143.7460 C   0  0  2  0  0  0  0  0  0  0  0  0
  191.4290  178.9990  143.7560 C   0  0  0  0  0  1  0  0  0  0  0  0
  190.9210  176.9240  140.9900 C   0  0  2  0  0  3  0  0  0  0  0  0
  189.9820  177.8050  141.6890 C   0  0  2  0  0  3  0  0  0  0  0  0
  191.9910  176.8180  143.0520 O   0  0  0  0  0  0  0  0  0  0  0  0
  190.6710  176.6970  142.5170 C   0  0  1  0  0  0  0  0  0  0  0  0
  192.8080  177.1260  139.5410 O   0  0  0  0  0  1  0  0  0  0  0  0
  192.1470  177.7480  140.6000 C   0  0  0  0  0  2  0  0  0  0  0  0
  190.7800  176.8660  145.0880 C   0  0  0  0  0  2  0  0  0  0  0  0
  191.8650  177.0800  145.9360 O   0  0  0  0  0  1  0  0  0  0  0  0
  1 21  1  0  0  0  0
  1  4  1  0  0  0  0
  2  7  1  1  0  0  0
  2  5  1  0  0  0  0
  3  1  2  0  0  0  0
  4  2  1  0  0  0  0
  5 11  1  1  0  0  0
  6 17  1  0  0  0  0
  7 14  1  0  0  0  0
  8 17  2  0  0  0  0
  9  8  1  0  0  0  0
 10  4  2  0  0  0  0
 10 12  1  0  0  0  0
 11  9  1  0  0  0  0
 12 15  1  0  0  0  0
 13 10  1  0  0  0  0
 14 18  1  0  0  0  0
 14  9  2  0  0  0  0
 15 19  1  0  0  0  0
 15  5  1  0  0  0  0
 16  3  1  0  0  0  0
 16 13  2  0  0  0  0
 18  6  2  0  0  0  0
 20 19  1  0  0  0  0
 21 22  1  0  0  0  0
 23 24  1  6  0  0  0
 23 31  1  0  0  0  0
 25 30  1  1  0  0  0
 25 26  1  0  0  0  0
 25 28  1  0  0  0  0
 26 22  1  6  0  0  0
 26 28  1  0  0  0  0
 27 23  1  0  0  0  0
 28 27  1  6  0  0  0
 28 23  1  0  0  0  0
 29 30  1  0  0  0  0
 31 32  1  0  0  0  0
M  END
>  <MODEL>
8

>  <REMARK>
 VINA RESULT:      -8.6      2.636      4.801
  Name = 
  6 active torsions:
  status: ('A' for Active; 'I' for Inactive)
    1  A    between atoms: C_1  and  O_27
    2  A    between atoms: C_3  and  C_22
    3  A    between atoms: C_13  and  N_29
    4  A    between atoms: C_15  and  C_26
    5  A    between atoms: C_16  and  C_24
    6  A    between atoms: C_24  and  O_27
                            x       y       z     vdW  Elec       q    Type
                         _______ _______ _______ _____ _____    ______ ____

>  <TORSDO>
F 6

$$$$
=
 OpenBabel10262421153D

 32 37  0  0  1  0  0  0  0  0999 V2000
  189.4750  177.2990  141.7340 C   0  0  0  0  0  0  0  0  0  0  0  0
  187.8750  177.5680  143.6960 C   0  0  1  0  0  3  0  0  0  0  0  0
  190.7820  177.1780  141.2340 C   0  0  0  0  0  3  0  0  0  0  0  0
  189.2720  177.4990  143.1170 C   0  0  0  0  0  0  0  0  0  0  0  0
  187.8520  177.8800  145.2010 C   0  0  1  0  0  3  0  0  0  0  0  0
  183.2960  179.3280  143.4110 C   0  0  0  0  0  3  0  0  0  0  0  0
  186.9920  178.5960  142.9900 C   0  0  0  0  0  2  0  0  0  0  0  0
  184.0900  178.3060  145.4570 C   0  0  0  0  0  3  0  0  0  0  0  0
  185.3750  178.2020  144.9150 C   0  0  0  0  0  0  0  0  0  0  0  0
  190.3880  177.4950  143.9810 C   0  0  0  0  0  0  0  0  0  0  0  0
  186.4530  177.5290  145.7240 C   0  0  0  0  0  2  0  0  0  0  0  0
  190.2100  177.6660  145.4590 C   0  0  0  0  0  2  0  0  0  0  0  0
  191.6800  177.3830  143.4650 C   0  0  0  0  0  3  0  0  0  0  0  0
  185.6140  178.6410  143.5920 C   0  0  0  0  0  0  0  0  0  0  0  0
  188.9150  177.1440  145.9040 N   0  0  0  0  0  0  0  0  0  0  0  0
  191.8780  177.2270  142.0940 C   0  0  0  0  0  3  0  0  0  0  0  0
  183.0550  178.8710  144.7090 C   0  0  0  0  0  3  0  0  0  0  0  0
  184.5740  179.2170  142.8560 C   0  0  0  0  0  3  0  0  0  0  0  0
  188.8340  177.3590  147.3530 C   0  0  0  0  0  2  0  0  0  0  0  0
  190.0800  177.1850  147.9690 O   0  0  0  0  0  1  0  0  0  0  0  0
  188.3720  177.2140  140.8770 O   0  0  0  0  0  0  0  0  0  0  0  0
  188.2990  177.9000  139.6350 C   0  0  0  0  0  2  0  0  0  0  0  0
  187.1710  176.5790  136.6880 C   0  0  2  0  0  0  0  0  0  0  0  0
  187.1900  175.0720  136.9480 C   0  0  0  0  0  1  0  0  0  0  0  0
  189.6770  177.4160  137.6830 C   0  0  2  0  0  3  0  0  0  0  0  0
  188.5760  176.9210  138.5140 C   0  0  2  0  0  3  0  0  0  0  0  0
  188.2570  176.9050  135.9120 O   0  0  0  0  0  0  0  0  0  0  0  0
  188.2090  177.5870  137.1680 C   0  0  1  0  0  0  0  0  0  0  0  0
  190.6250  175.2860  138.1950 O   0  0  0  0  0  1  0  0  0  0  0  0
  190.4600  176.2110  137.1640 C   0  0  0  0  0  2  0  0  0  0  0  0
  185.9080  177.1610  136.0860 C   0  0  0  0  0  2  0  0  0  0  0  0
  184.8250  176.9200  136.9310 O   0  0  0  0  0  1  0  0  0  0  0  0
  1  4  1  0  0  0  0
  2  7  1  6  0  0  0
  2  5  1  0  0  0  0
  3  1  2  0  0  0  0
  3 16  1  0  0  0  0
  4  2  1  0  0  0  0
  4 10  2  0  0  0  0
  5 11  1  1  0  0  0
  5 15  1  0  0  0  0
  6 17  1  0  0  0  0
  7 14  1  0  0  0  0
  9  8  1  0  0  0  0
  9 11  1  0  0  0  0
 10 12  1  0  0  0  0
 12 15  1  0  0  0  0
 13 10  1  0  0  0  0
 14  9  2  0  0  0  0
 15 19  1  0  0  0  0
 16 13  2  0  0  0  0
 17  8  2  0  0  0  0
 18  6  2  0  0  0  0
 18 14  1  0  0  0  0
 19 20  1  0  0  0  0
 21  1  1  0  0  0  0
 22 21  1  0  0  0  0
 23 24  1  1  0  0  0
 23 28  1  0  0  0  0
 25 30  1  6  0  0  0
 25 26  1  0  0  0  0
 26 22  1  1  0  0  0
 27 23  1  0  0  0  0
 28 27  1  6  0  0  0
 28 25  1  0  0  0  0
 28 26  1  0  0  0  0
 30 29  1  0  0  0  0
 31 23  1  0  0  0  0
 31 32  1  0  0  0  0
M  END
>  <MODEL>
9

>  <REMARK>
 VINA RESULT:      -8.6      1.920      4.622
  Name = 
  6 active torsions:
  status: ('A' for Active; 'I' for Inactive)
    1  A    between atoms: C_1  and  O_27
    2  A    between atoms: C_3  and  C_22
    3  A    between atoms: C_13  and  N_29
    4  A    between atoms: C_15  and  C_26
    5  A    between atoms: C_16  and  C_24
    6  A    between atoms: C_24  and  O_27
                            x       y       z     vdW  Elec       q    Type
                         _______ _______ _______ _____ _____    ______ ____

>  <TORSDO>
F 6

$$$$
