=
 OpenBabel10262421493D

 30 31  0  0  1  0  0  0  0  0999 V2000
  188.6930  177.6440  142.7590 C   0  0  1  0  0  3  0  0  0  0  0  0
  189.7690  177.1340  145.0290 N   0  0  0  0  0  0  0  0  0  0  0  0
  188.0200  176.3720  142.9970 N   0  0  0  0  0  2  0  0  0  0  0  0
  187.2500  177.5840  145.0740 C   0  0  2  0  0  3  0  0  0  0  0  0
  186.9540  176.5360  143.9870 C   0  0  0  0  0  2  0  0  0  0  0  0
  188.5550  177.3000  145.8640 C   0  0  2  0  0  3  0  0  0  0  0  0
  189.8610  177.8560  143.7390 C   0  0  2  0  0  3  0  0  0  0  0  0
  188.3440  178.3160  140.3270 C   0  0  0  0  0  0  0  0  0  0  0  0
  188.8140  178.3750  139.0100 C   0  0  0  0  0  3  0  0  0  0  0  0
  187.0830  178.8220  140.6200 O   0  0  0  0  0  1  0  0  0  0  0  0
  190.4120  177.2440  141.0050 C   0  0  0  0  0  3  0  0  0  0  0  0
  192.1010  176.8170  139.3800 F   0  0  0  0  0  0  0  0  0  0  0  0
  189.1480  177.7470  141.3340 C   0  0  0  0  0  0  0  0  0  0  0  0
  190.0770  177.8710  138.6920 C   0  0  0  0  0  3  0  0  0  0  0  0
  190.8760  177.3060  139.6890 C   0  0  0  0  0  0  0  0  0  0  0  0
  190.1040  178.1150  147.7470 C   0  0  0  0  0  1  0  0  0  0  0  0
  188.8040  178.3400  146.9850 C   0  0  2  0  0  3  0  0  0  0  0  0
  187.6550  178.3800  147.9890 C   0  0  0  0  0  2  0  0  0  0  0  0
  188.0350  177.8060  149.2040 O   0  0  0  0  0  1  0  0  0  0  0  0
  186.0290  177.6820  145.9800 C   0  0  0  0  0  2  0  0  0  0  0  0
  184.0320  178.9400  146.0800 O   0  0  0  0  0  0  0  0  0  0  0  0
  185.0770  178.7260  145.4870 C   0  0  0  0  0  0  0  0  0  0  0  0
  185.3910  179.4560  144.3860 F   0  0  0  0  0  0  0  0  0  0  0  0
  190.1230  179.3380  143.9600 C   0  0  0  0  0  2  0  0  0  0  0  0
  192.3690  178.5780  143.6340 O   0  0  0  0  0  1  0  0  0  0  0  0
  191.5990  179.5830  144.2220 C   0  0  0  0  0  2  0  0  0  0  0  0
  190.0850  175.7190  144.8720 C   0  0  0  0  0  2  0  0  0  0  0  0
  192.2380  175.1480  144.1040 O   0  0  0  0  0  0  0  0  0  0  0  0
  191.5520  175.4990  145.0500 C   0  0  0  0  0  0  0  0  0  0  0  0
  192.1800  175.7250  146.3800 C   0  0  0  0  0  1  0  0  0  0  0  0
  1 13  1  6  0  0  0
  1  3  1  0  0  0  0
  1  7  1  0  0  0  0
  2  6  1  0  0  0  0
  3  5  1  0  0  0  0
  4  6  1  0  0  0  0
  4 20  1  1  0  0  0
  5  4  1  0  0  0  0
  6 17  1  1  0  0  0
  7 24  1  1  0  0  0
  7  2  1  0  0  0  0
  8 10  1  0  0  0  0
  8 13  1  0  0  0  0
  9  8  2  0  0  0  0
 11 13  2  0  0  0  0
 12 15  1  0  0  0  0
 14  9  1  0  0  0  0
 14 15  2  0  0  0  0
 15 11  1  0  0  0  0
 17 16  1  1  0  0  0
 17 18  1  0  0  0  0
 18 19  1  0  0  0  0
 22 20  1  0  0  0  0
 22 21  2  0  0  0  0
 23 22  1  0  0  0  0
 24 26  1  0  0  0  0
 25 26  1  0  0  0  0
 27  2  1  0  0  0  0
 27 29  1  0  0  0  0
 28 29  2  0  0  0  0
 29 30  1  0  0  0  0
M  END
>  <MODEL>
1

>  <REMARK>
 VINA RESULT:      -5.8      0.000      0.000
  Name = 
  9 active torsions:
  status: ('A' for Active; 'I' for Inactive)
    1  A    between atoms: C_1  and  C_22
    2  A    between atoms: N_4  and  C_25
    3  A    between atoms: C_6  and  C_8
    4  A    between atoms: C_6  and  C_17
    5  A    between atoms: C_7  and  C_30
    6  A    between atoms: C_10  and  C_23
    7  A    between atoms: C_10  and  C_26
    8  A    between atoms: C_11  and  C_25
    9  A    between atoms: C_13  and  C_30
                            x       y       z     vdW  Elec       q    Type
                         _______ _______ _______ _____ _____    ______ ____

>  <TORSDO>
F 9

$$$$
=
 OpenBabel10262421493D

 30 31  0  0  1  0  0  0  0  0999 V2000
  183.0690  178.6410  140.3930 C   0  0  1  0  0  3  0  0  0  0  0  0
  183.6540  177.3410  138.2630 N   0  0  0  0  0  0  0  0  0  0  0  0
  183.7280  179.7360  139.6880 N   0  0  0  0  0  2  0  0  0  0  0  0
  181.9430  179.2230  137.9770 C   0  0  2  0  0  3  0  0  0  0  0  0
  182.8520  180.2710  138.6440 C   0  0  0  0  0  2  0  0  0  0  0  0
  182.7270  178.0430  137.3430 C   0  0  2  0  0  3  0  0  0  0  0  0
  183.3340  177.2880  139.7070 C   0  0  2  0  0  3  0  0  0  0  0  0
  182.5930  178.9600  142.8750 C   0  0  0  0  0  0  0  0  0  0  0  0
  183.0330  178.9290  144.2030 C   0  0  0  0  0  3  0  0  0  0  0  0
  181.2830  179.3350  142.6030 O   0  0  0  0  0  1  0  0  0  0  0  0
  184.7920  178.2440  142.1430 C   0  0  0  0  0  3  0  0  0  0  0  0
  186.4990  177.8530  143.7600 F   0  0  0  0  0  0  0  0  0  0  0  0
  183.4780  178.6140  141.8350 C   0  0  0  0  0  0  0  0  0  0  0  0
  184.3460  178.5570  144.5010 C   0  0  0  0  0  3  0  0  0  0  0  0
  185.2250  178.2140  143.4710 C   0  0  0  0  0  0  0  0  0  0  0  0
  182.1860  175.5760  136.8640 C   0  0  0  0  0  1  0  0  0  0  0  0
  181.7930  177.0300  136.6330 C   0  0  2  0  0  3  0  0  0  0  0  0
  181.7200  177.2800  135.1300 C   0  0  0  0  0  2  0  0  0  0  0  0
  182.9520  177.7180  134.6380 O   0  0  0  0  0  1  0  0  0  0  0  0
  181.0550  179.9430  136.9690 C   0  0  0  0  0  2  0  0  0  0  0  0
  179.4870  180.9730  138.4030 O   0  0  0  0  0  0  0  0  0  0  0  0
  180.3860  181.1270  137.5920 C   0  0  0  0  0  0  0  0  0  0  0  0
  180.7990  182.3790  137.2700 F   0  0  0  0  0  0  0  0  0  0  0  0
  182.2020  176.3100  139.9800 C   0  0  0  0  0  2  0  0  0  0  0  0
  179.8500  176.3960  139.5480 O   0  0  0  0  0  1  0  0  0  0  0  0
  180.8960  177.0550  140.1950 C   0  0  0  0  0  2  0  0  0  0  0  0
  185.0240  177.7870  138.0360 C   0  0  0  0  0  2  0  0  0  0  0  0
  185.6560  175.7200  137.0990 O   0  0  0  0  0  0  0  0  0  0  0  0
  185.6740  176.9350  136.9960 C   0  0  0  0  0  0  0  0  0  0  0  0
  186.3310  177.5710  135.8210 C   0  0  0  0  0  1  0  0  0  0  0  0
  1 13  1  1  0  0  0
  2  7  1  0  0  0  0
  3  1  1  0  0  0  0
  4 20  1  6  0  0  0
  4  5  1  0  0  0  0
  5  3  1  0  0  0  0
  6 17  1  1  0  0  0
  6  4  1  0  0  0  0
  6  2  1  0  0  0  0
  7 24  1  6  0  0  0
  7  1  1  0  0  0  0
  8  9  1  0  0  0  0
  9 14  2  0  0  0  0
 10  8  1  0  0  0  0
 11 15  2  0  0  0  0
 13 11  1  0  0  0  0
 13  8  2  0  0  0  0
 15 12  1  0  0  0  0
 15 14  1  0  0  0  0
 17 16  1  6  0  0  0
 18 17  1  0  0  0  0
 19 18  1  0  0  0  0
 20 22  1  0  0  0  0
 22 21  2  0  0  0  0
 23 22  1  0  0  0  0
 24 26  1  0  0  0  0
 25 26  1  0  0  0  0
 27  2  1  0  0  0  0
 29 28  2  0  0  0  0
 29 27  1  0  0  0  0
 30 29  1  0  0  0  0
M  END
>  <MODEL>
2

>  <REMARK>
 VINA RESULT:      -5.3      6.009      9.685
  Name = 
  9 active torsions:
  status: ('A' for Active; 'I' for Inactive)
    1  A    between atoms: C_1  and  C_22
    2  A    between atoms: N_4  and  C_25
    3  A    between atoms: C_6  and  C_8
    4  A    between atoms: C_6  and  C_17
    5  A    between atoms: C_7  and  C_30
    6  A    between atoms: C_10  and  C_23
    7  A    between atoms: C_10  and  C_26
    8  A    between atoms: C_11  and  C_25
    9  A    between atoms: C_13  and  C_30
                            x       y       z     vdW  Elec       q    Type
                         _______ _______ _______ _____ _____    ______ ____

>  <TORSDO>
F 9

$$$$
=
 OpenBabel10262421493D

 30 31  0  0  1  0  0  0  0  0999 V2000
  185.2630  178.2350  139.1960 C   0  0  1  0  0  3  0  0  0  0  0  0
  182.7810  178.8550  139.0470 N   0  0  0  0  0  0  0  0  0  0  0  0
  185.3460  179.4920  139.9320 N   0  0  0  0  0  2  0  0  0  0  0  0
  183.6500  178.3270  141.3960 C   0  0  2  0  0  3  0  0  0  0  0  0
  184.8140  179.3280  141.2860 C   0  0  0  0  0  2  0  0  0  0  0  0
  182.4470  178.6790  140.4810 C   0  0  2  0  0  3  0  0  0  0  0  0
  183.9120  178.0930  138.4710 C   0  0  2  0  0  3  0  0  0  0  0  0
  187.7360  177.8970  138.6850 C   0  0  0  0  0  0  0  0  0  0  0  0
  188.7730  177.7890  137.7520 C   0  0  0  0  0  3  0  0  0  0  0  0
  188.0310  177.8050  140.0400 O   0  0  0  0  0  1  0  0  0  0  0  0
  186.1500  178.1890  136.8720 C   0  0  0  0  0  3  0  0  0  0  0  0
  186.9260  178.1670  134.6190 F   0  0  0  0  0  0  0  0  0  0  0  0
  186.4130  178.0980  138.2440 C   0  0  0  0  0  0  0  0  0  0  0  0
  188.5010  177.8800  136.3850 C   0  0  0  0  0  3  0  0  0  0  0  0
  187.1900  178.0790  135.9450 C   0  0  0  0  0  0  0  0  0  0  0  0
  180.4870  177.4480  139.3630 C   0  0  0  0  0  1  0  0  0  0  0  0
  181.2690  177.6850  140.6490 C   0  0  2  0  0  3  0  0  0  0  0  0
  180.2950  178.1360  141.7330 C   0  0  0  0  0  2  0  0  0  0  0  0
  179.2750  177.1980  141.9060 O   0  0  0  0  0  1  0  0  0  0  0  0
  183.2570  178.2200  142.8640 C   0  0  0  0  0  2  0  0  0  0  0  0
  184.3900  179.6470  144.3650 O   0  0  0  0  0  0  0  0  0  0  0  0
  184.4000  178.5920  143.7540 C   0  0  0  0  0  0  0  0  0  0  0  0
  185.4440  177.7360  143.9000 F   0  0  0  0  0  0  0  0  0  0  0  0
  183.5460  176.6290  138.2850 C   0  0  0  0  0  2  0  0  0  0  0  0
  183.8440  175.5760  136.1570 O   0  0  0  0  0  1  0  0  0  0  0  0
  182.9870  176.3950  136.8920 C   0  0  0  0  0  2  0  0  0  0  0  0
  182.8710  180.2730  138.7200 C   0  0  0  0  0  2  0  0  0  0  0  0
  180.9310  181.5880  138.9620 O   0  0  0  0  0  0  0  0  0  0  0  0
  181.5380  180.7820  138.2760 C   0  0  0  0  0  0  0  0  0  0  0  0
  180.9580  180.3180  136.9870 C   0  0  0  0  0  1  0  0  0  0  0  0
  1 13  1  6  0  0  0
  1  3  1  0  0  0  0
  2  6  1  0  0  0  0
  3  5  1  0  0  0  0
  4 20  1  1  0  0  0
  5  4  1  0  0  0  0
  6 17  1  6  0  0  0
  6  4  1  0  0  0  0
  7 24  1  1  0  0  0
  7  2  1  0  0  0  0
  7  1  1  0  0  0  0
  8 10  1  0  0  0  0
  9  8  2  0  0  0  0
 11 13  2  0  0  0  0
 12 15  1  0  0  0  0
 13  8  1  0  0  0  0
 14  9  1  0  0  0  0
 15 14  2  0  0  0  0
 15 11  1  0  0  0  0
 17 16  1  6  0  0  0
 17 18  1  0  0  0  0
 18 19  1  0  0  0  0
 20 22  1  0  0  0  0
 22 23  1  0  0  0  0
 22 21  2  0  0  0  0
 25 26  1  0  0  0  0
 26 24  1  0  0  0  0
 27  2  1  0  0  0  0
 29 27  1  0  0  0  0
 29 28  2  0  0  0  0
 30 29  1  0  0  0  0
M  END
>  <MODEL>
3

>  <REMARK>
 VINA RESULT:      -5.1      5.143      8.269
  Name = 
  9 active torsions:
  status: ('A' for Active; 'I' for Inactive)
    1  A    between atoms: C_1  and  C_22
    2  A    between atoms: N_4  and  C_25
    3  A    between atoms: C_6  and  C_8
    4  A    between atoms: C_6  and  C_17
    5  A    between atoms: C_7  and  C_30
    6  A    between atoms: C_10  and  C_23
    7  A    between atoms: C_10  and  C_26
    8  A    between atoms: C_11  and  C_25
    9  A    between atoms: C_13  and  C_30
                            x       y       z     vdW  Elec       q    Type
                         _______ _______ _______ _____ _____    ______ ____

>  <TORSDO>
F 9

$$$$
=
 OpenBabel10262421493D

 30 31  0  0  1  0  0  0  0  0999 V2000
  182.9230  177.0970  138.1730 C   0  0  1  0  0  3  0  0  0  0  0  0
  181.1120  177.2130  139.9820 N   0  0  0  0  0  0  0  0  0  0  0  0
  181.7720  177.0240  137.2810 N   0  0  0  0  0  2  0  0  0  0  0  0
  181.2260  179.2210  138.3990 C   0  0  2  0  0  3  0  0  0  0  0  0
  181.1530  178.3430  137.1380 C   0  0  0  0  0  2  0  0  0  0  0  0
  180.5860  178.5580  139.6480 C   0  0  2  0  0  3  0  0  0  0  0  0
  182.5140  176.8820  139.6420 C   0  0  2  0  0  3  0  0  0  0  0  0
  185.1880  176.5400  137.1450 C   0  0  0  0  0  0  0  0  0  0  0  0
  186.1380  175.5890  136.7610 C   0  0  0  0  0  3  0  0  0  0  0  0
  185.4460  177.8870  136.9200 O   0  0  0  0  0  1  0  0  0  0  0  0
  183.7550  174.7610  137.9640 C   0  0  0  0  0  3  0  0  0  0  0  0
  184.4770  172.4970  137.7870 F   0  0  0  0  0  0  0  0  0  0  0  0
  183.9850  176.1250  137.7530 C   0  0  0  0  0  0  0  0  0  0  0  0
  185.9000  174.2290  136.9770 C   0  0  0  0  0  3  0  0  0  0  0  0
  184.7090  173.8160  137.5790 C   0  0  0  0  0  0  0  0  0  0  0  0
  181.0660  178.7700  142.1650 C   0  0  0  0  0  1  0  0  0  0  0  0
  180.6260  179.4830  140.8920 C   0  0  2  0  0  3  0  0  0  0  0  0
  179.2780  180.1490  141.1490 C   0  0  0  0  0  2  0  0  0  0  0  0
  179.4340  181.5200  141.3670 O   0  0  0  0  0  1  0  0  0  0  0  0
  180.6030  180.5720  138.0710 C   0  0  0  0  0  2  0  0  0  0  0  0
  181.3280  182.8070  137.8360 O   0  0  0  0  0  0  0  0  0  0  0  0
  181.6150  181.6680  138.1690 C   0  0  0  0  0  0  0  0  0  0  0  0
  182.8540  181.3980  138.6540 F   0  0  0  0  0  0  0  0  0  0  0  0
  183.4840  177.5780  140.5840 C   0  0  0  0  0  2  0  0  0  0  0  0
  184.9790  179.4360  140.7760 O   0  0  0  0  0  1  0  0  0  0  0  0
  184.1620  178.7420  139.8830 C   0  0  0  0  0  2  0  0  0  0  0  0
  180.1920  176.1810  139.5160 C   0  0  0  0  0  2  0  0  0  0  0  0
  178.9310  176.1980  141.5060 O   0  0  0  0  0  0  0  0  0  0  0  0
  179.5260  175.5250  140.6810 C   0  0  0  0  0  0  0  0  0  0  0  0
  179.5760  174.0450  140.8270 C   0  0  0  0  0  1  0  0  0  0  0  0
  1 13  1  6  0  0  0
  1  7  1  0  0  0  0
  3  1  1  0  0  0  0
  4 20  1  6  0  0  0
  4  6  1  0  0  0  0
  5  3  1  0  0  0  0
  5  4  1  0  0  0  0
  6  2  1  0  0  0  0
  6 17  1  1  0  0  0
  7  2  1  0  0  0  0
  7 24  1  1  0  0  0
  8 13  1  0  0  0  0
  9 14  1  0  0  0  0
  9  8  2  0  0  0  0
 10  8  1  0  0  0  0
 13 11  2  0  0  0  0
 14 15  2  0  0  0  0
 15 12  1  0  0  0  0
 15 11  1  0  0  0  0
 17 18  1  0  0  0  0
 17 16  1  1  0  0  0
 18 19  1  0  0  0  0
 20 22  1  0  0  0  0
 21 22  2  0  0  0  0
 22 23  1  0  0  0  0
 26 24  1  0  0  0  0
 26 25  1  0  0  0  0
 27  2  1  0  0  0  0
 27 29  1  0  0  0  0
 29 30  1  0  0  0  0
 29 28  2  0  0  0  0
M  END
>  <MODEL>
4

>  <REMARK>
 VINA RESULT:      -5.0      7.287      9.238
  Name = 
  9 active torsions:
  status: ('A' for Active; 'I' for Inactive)
    1  A    between atoms: C_1  and  C_22
    2  A    between atoms: N_4  and  C_25
    3  A    between atoms: C_6  and  C_8
    4  A    between atoms: C_6  and  C_17
    5  A    between atoms: C_7  and  C_30
    6  A    between atoms: C_10  and  C_23
    7  A    between atoms: C_10  and  C_26
    8  A    between atoms: C_11  and  C_25
    9  A    between atoms: C_13  and  C_30
                            x       y       z     vdW  Elec       q    Type
                         _______ _______ _______ _____ _____    ______ ____

>  <TORSDO>
F 9

$$$$
=
 OpenBabel10262421493D

 30 31  0  0  1  0  0  0  0  0999 V2000
  182.5450  178.1170  140.7170 C   0  0  1  0  0  3  0  0  0  0  0  0
  181.0580  179.3470  139.0320 N   0  0  0  0  0  0  0  0  0  0  0  0
  181.3250  177.3560  140.9650 N   0  0  0  0  0  2  0  0  0  0  0  0
  181.5470  176.8930  138.4920 C   0  0  2  0  0  3  0  0  0  0  0  0
  181.0870  176.4050  139.8780 C   0  0  0  0  0  2  0  0  0  0  0  0
  180.8940  178.2350  138.0650 C   0  0  2  0  0  3  0  0  0  0  0  0
  182.2630  179.3840  139.8910 C   0  0  2  0  0  3  0  0  0  0  0  0
  182.5560  179.0030  143.1070 C   0  0  0  0  0  0  0  0  0  0  0  0
  183.2560  179.3010  144.2810 C   0  0  0  0  0  3  0  0  0  0  0  0
  181.1930  179.2630  143.0450 O   0  0  0  0  0  1  0  0  0  0  0  0
  184.6120  178.1980  142.1000 C   0  0  0  0  0  3  0  0  0  0  0  0
  186.6350  178.2540  143.3580 F   0  0  0  0  0  0  0  0  0  0  0  0
  183.2380  178.4460  142.0060 C   0  0  0  0  0  0  0  0  0  0  0  0
  184.6280  179.0490  144.3660 C   0  0  0  0  0  3  0  0  0  0  0  0
  185.3050  178.4980  143.2760 C   0  0  0  0  0  0  0  0  0  0  0  0
  181.1790  180.1740  136.4010 C   0  0  0  0  0  1  0  0  0  0  0  0
  181.3340  178.6780  136.6460 C   0  0  2  0  0  3  0  0  0  0  0  0
  180.5760  177.9270  135.5560 C   0  0  0  0  0  2  0  0  0  0  0  0
  179.3020  178.4690  135.3710 O   0  0  0  0  0  1  0  0  0  0  0  0
  181.2930  175.7740  137.4900 C   0  0  0  0  0  2  0  0  0  0  0  0
  183.5450  175.1590  137.8430 O   0  0  0  0  0  0  0  0  0  0  0  0
  182.5680  175.0890  137.1160 C   0  0  0  0  0  0  0  0  0  0  0  0
  182.6290  174.3630  135.9690 F   0  0  0  0  0  0  0  0  0  0  0  0
  183.4900  179.7970  139.0930 C   0  0  0  0  0  2  0  0  0  0  0  0
  185.6840  178.9070  138.7430 O   0  0  0  0  0  1  0  0  0  0  0  0
  184.3270  178.5810  138.7380 C   0  0  0  0  0  2  0  0  0  0  0  0
  179.8400  179.5190  139.8150 C   0  0  0  0  0  2  0  0  0  0  0  0
  179.5840  181.2680  141.3720 O   0  0  0  0  0  0  0  0  0  0  0  0
  179.6740  180.9530  140.1970 C   0  0  0  0  0  0  0  0  0  0  0  0
  179.6360  182.0020  139.1420 C   0  0  0  0  0  1  0  0  0  0  0  0
  1  3  1  0  0  0  0
  1 13  1  1  0  0  0
  2 27  1  0  0  0  0
  2  7  1  0  0  0  0
  4 20  1  6  0  0  0
  4  5  1  0  0  0  0
  5  3  1  0  0  0  0
  6 17  1  6  0  0  0
  6  4  1  0  0  0  0
  6  2  1  0  0  0  0
  7 24  1  6  0  0  0
  7  1  1  0  0  0  0
  8  9  1  0  0  0  0
  9 14  2  0  0  0  0
 10  8  1  0  0  0  0
 11 15  2  0  0  0  0
 13 11  1  0  0  0  0
 13  8  2  0  0  0  0
 15 12  1  0  0  0  0
 15 14  1  0  0  0  0
 17 16  1  1  0  0  0
 18 17  1  0  0  0  0
 19 18  1  0  0  0  0
 22 20  1  0  0  0  0
 22 21  2  0  0  0  0
 23 22  1  0  0  0  0
 26 25  1  0  0  0  0
 26 24  1  0  0  0  0
 27 29  1  0  0  0  0
 29 28  2  0  0  0  0
 30 29  1  0  0  0  0
M  END
>  <MODEL>
5

>  <REMARK>
 VINA RESULT:      -4.7      6.539     10.229
  Name = 
  9 active torsions:
  status: ('A' for Active; 'I' for Inactive)
    1  A    between atoms: C_1  and  C_22
    2  A    between atoms: N_4  and  C_25
    3  A    between atoms: C_6  and  C_8
    4  A    between atoms: C_6  and  C_17
    5  A    between atoms: C_7  and  C_30
    6  A    between atoms: C_10  and  C_23
    7  A    between atoms: C_10  and  C_26
    8  A    between atoms: C_11  and  C_25
    9  A    between atoms: C_13  and  C_30
                            x       y       z     vdW  Elec       q    Type
                         _______ _______ _______ _____ _____    ______ ____

>  <TORSDO>
F 9

$$$$
=
 OpenBabel10262421493D

 30 31  0  0  1  0  0  0  0  0999 V2000
  183.0710  177.7860  139.6140 C   0  0  1  0  0  3  0  0  0  0  0  0
  180.6700  177.9810  138.7400 N   0  0  0  0  0  0  0  0  0  0  0  0
  182.6780  176.4020  139.8560 N   0  0  0  0  0  2  0  0  0  0  0  0
  182.2270  176.4780  137.3730 C   0  0  2  0  0  3  0  0  0  0  0  0
  182.6510  175.6510  138.6000 C   0  0  0  0  0  2  0  0  0  0  0  0
  180.8320  177.1400  137.5290 C   0  0  2  0  0  3  0  0  0  0  0  0
  181.8530  178.6730  139.3000 C   0  0  2  0  0  3  0  0  0  0  0  0
  185.1380  178.8970  140.6080 C   0  0  0  0  0  0  0  0  0  0  0  0
  185.8340  179.3730  141.7240 C   0  0  0  0  0  3  0  0  0  0  0  0
  185.7220  178.9950  139.3510 O   0  0  0  0  0  1  0  0  0  0  0  0
  183.3000  178.2400  142.0490 C   0  0  0  0  0  3  0  0  0  0  0  0
  183.4490  178.6310  144.3950 F   0  0  0  0  0  0  0  0  0  0  0  0
  183.8590  178.3260  140.7690 C   0  0  0  0  0  0  0  0  0  0  0  0
  185.2660  179.2840  142.9970 C   0  0  0  0  0  3  0  0  0  0  0  0
  184.0000  178.7180  143.1600 C   0  0  0  0  0  0  0  0  0  0  0  0
  181.5500  178.6920  135.6090 C   0  0  0  0  0  1  0  0  0  0  0  0
  180.4070  177.9240  136.2610 C   0  0  2  0  0  3  0  0  0  0  0  0
  179.2700  178.8990  136.5500 C   0  0  0  0  0  2  0  0  0  0  0  0
  179.2680  179.9490  135.6290 O   0  0  0  0  0  1  0  0  0  0  0  0
  182.3130  175.5790  136.1460 C   0  0  0  0  0  2  0  0  0  0  0  0
  183.5210  173.5510  136.1920 O   0  0  0  0  0  0  0  0  0  0  0  0
  183.5700  174.7690  136.1600 C   0  0  0  0  0  0  0  0  0  0  0  0
  184.7740  175.3960  136.1130 F   0  0  0  0  0  0  0  0  0  0  0  0
  182.2510  179.8600  138.4370 C   0  0  0  0  0  2  0  0  0  0  0  0
  181.1660  181.8160  137.5890 O   0  0  0  0  0  1  0  0  0  0  0  0
  181.3690  181.0580  138.7420 C   0  0  0  0  0  2  0  0  0  0  0  0
  179.9430  177.2480  139.7690 C   0  0  0  0  0  2  0  0  0  0  0  0
  179.8730  177.8460  142.0480 O   0  0  0  0  0  0  0  0  0  0  0  0
  179.5990  178.1610  140.9010 C   0  0  0  0  0  0  0  0  0  0  0  0
  178.9350  179.4640  140.6280 C   0  0  0  0  0  1  0  0  0  0  0  0
  1  3  1  0  0  0  0
  1 13  1  1  0  0  0
  2  7  1  0  0  0  0
  2 27  1  0  0  0  0
  4 20  1  6  0  0  0
  4  6  1  0  0  0  0
  4  5  1  0  0  0  0
  5  3  1  0  0  0  0
  6 17  1  6  0  0  0
  6  2  1  0  0  0  0
  7 24  1  6  0  0  0
  7  1  1  0  0  0  0
  8 13  2  0  0  0  0
  8  9  1  0  0  0  0
  9 14  2  0  0  0  0
 10  8  1  0  0  0  0
 11 15  2  0  0  0  0
 13 11  1  0  0  0  0
 14 15  1  0  0  0  0
 15 12  1  0  0  0  0
 17 16  1  1  0  0  0
 17 18  1  0  0  0  0
 19 18  1  0  0  0  0
 20 22  1  0  0  0  0
 22 21  2  0  0  0  0
 23 22  1  0  0  0  0
 24 26  1  0  0  0  0
 25 26  1  0  0  0  0
 27 29  1  0  0  0  0
 29 28  2  0  0  0  0
 30 29  1  0  0  0  0
M  END
>  <MODEL>
6

>  <REMARK>
 VINA RESULT:      -4.6      6.693     10.432
  Name = 
  9 active torsions:
  status: ('A' for Active; 'I' for Inactive)
    1  A    between atoms: C_1  and  C_22
    2  A    between atoms: N_4  and  C_25
    3  A    between atoms: C_6  and  C_8
    4  A    between atoms: C_6  and  C_17
    5  A    between atoms: C_7  and  C_30
    6  A    between atoms: C_10  and  C_23
    7  A    between atoms: C_10  and  C_26
    8  A    between atoms: C_11  and  C_25
    9  A    between atoms: C_13  and  C_30
                            x       y       z     vdW  Elec       q    Type
                         _______ _______ _______ _____ _____    ______ ____

>  <TORSDO>
F 9

$$$$
=
 OpenBabel10262421493D

 30 31  0  0  1  0  0  0  0  0999 V2000
  190.3330  176.5990  138.6670 C   0  0  1  0  0  3  0  0  0  0  0  0
  188.6260  175.6630  137.0000 N   0  0  0  0  0  0  0  0  0  0  0  0
  190.9520  175.2900  138.4910 N   0  0  0  0  0  2  0  0  0  0  0  0
  190.9850  176.0360  136.0780 C   0  0  2  0  0  3  0  0  0  0  0  0
  191.6490  175.2240  137.2050 C   0  0  0  0  0  2  0  0  0  0  0  0
  189.5120  175.6270  135.8110 C   0  0  2  0  0  3  0  0  0  0  0  0
  188.9100  176.6340  138.0810 C   0  0  2  0  0  3  0  0  0  0  0  0
  191.5130  177.4200  140.7710 C   0  0  0  0  0  0  0  0  0  0  0  0
  191.4640  177.7720  142.1240 C   0  0  0  0  0  3  0  0  0  0  0  0
  192.7250  177.4910  140.0950 O   0  0  0  0  0  1  0  0  0  0  0  0
  189.1360  176.9380  140.8220 C   0  0  0  0  0  3  0  0  0  0  0  0
  187.9230  177.2280  142.8520 F   0  0  0  0  0  0  0  0  0  0  0  0
  190.3400  177.0000  140.1120 C   0  0  0  0  0  0  0  0  0  0  0  0
  190.2570  177.7080  142.8240 C   0  0  0  0  0  3  0  0  0  0  0  0
  189.0930  177.2910  142.1730 C   0  0  0  0  0  0  0  0  0  0  0  0
  189.2490  177.9020  134.6440 C   0  0  0  0  0  1  0  0  0  0  0  0
  188.8840  176.4230  134.6390 C   0  0  2  0  0  3  0  0  0  0  0  0
  187.3630  176.2990  134.6180 C   0  0  0  0  0  2  0  0  0  0  0  0
  186.7610  177.5590  134.6000 O   0  0  0  0  0  1  0  0  0  0  0  0
  191.8590  175.9190  134.8360 C   0  0  0  0  0  2  0  0  0  0  0  0
  194.0710  176.4320  135.4810 O   0  0  0  0  0  0  0  0  0  0  0  0
  193.2650  175.5620  135.1990 C   0  0  0  0  0  0  0  0  0  0  0  0
  193.6380  174.2560  135.2380 F   0  0  0  0  0  0  0  0  0  0  0  0
  188.5300  178.0460  137.6600 C   0  0  0  0  0  2  0  0  0  0  0  0
  186.6730  178.6280  139.0530 O   0  0  0  0  0  1  0  0  0  0  0  0
  187.0270  178.2420  137.7600 C   0  0  0  0  0  2  0  0  0  0  0  0
  188.4350  174.3180  137.5280 C   0  0  0  0  0  2  0  0  0  0  0  0
  186.0940  174.0790  137.4210 O   0  0  0  0  0  0  0  0  0  0  0  0
  187.1760  173.7270  136.9830 C   0  0  0  0  0  0  0  0  0  0  0  0
  187.2420  172.7190  135.8900 C   0  0  0  0  0  1  0  0  0  0  0  0
  1 13  1  1  0  0  0
  2 27  1  0  0  0  0
  2  7  1  0  0  0  0
  3  1  1  0  0  0  0
  4 20  1  6  0  0  0
  4  5  1  0  0  0  0
  5  3  1  0  0  0  0
  6 17  1  6  0  0  0
  6  4  1  0  0  0  0
  6  2  1  0  0  0  0
  7 24  1  6  0  0  0
  7  1  1  0  0  0  0
  8  9  1  0  0  0  0
  9 14  2  0  0  0  0
 10  8  1  0  0  0  0
 11 15  2  0  0  0  0
 13  8  2  0  0  0  0
 13 11  1  0  0  0  0
 15 14  1  0  0  0  0
 15 12  1  0  0  0  0
 17 16  1  1  0  0  0
 18 17  1  0  0  0  0
 19 18  1  0  0  0  0
 20 22  1  0  0  0  0
 22 23  1  0  0  0  0
 22 21  2  0  0  0  0
 24 26  1  0  0  0  0
 26 25  1  0  0  0  0
 29 28  2  0  0  0  0
 29 27  1  0  0  0  0
 30 29  1  0  0  0  0
M  END
>  <MODEL>
7

>  <REMARK>
 VINA RESULT:      -4.5      4.254      9.223
  Name = 
  9 active torsions:
  status: ('A' for Active; 'I' for Inactive)
    1  A    between atoms: C_1  and  C_22
    2  A    between atoms: N_4  and  C_25
    3  A    between atoms: C_6  and  C_8
    4  A    between atoms: C_6  and  C_17
    5  A    between atoms: C_7  and  C_30
    6  A    between atoms: C_10  and  C_23
    7  A    between atoms: C_10  and  C_26
    8  A    between atoms: C_11  and  C_25
    9  A    between atoms: C_13  and  C_30
                            x       y       z     vdW  Elec       q    Type
                         _______ _______ _______ _____ _____    ______ ____

>  <TORSDO>
F 9

$$$$
=
 OpenBabel10262421493D

 30 31  0  0  1  0  0  0  0  0999 V2000
  183.6220  177.5010  138.7520 C   0  0  1  0  0  3  0  0  0  0  0  0
  181.7250  179.1740  139.1590 N   0  0  0  0  0  0  0  0  0  0  0  0
  184.4560  178.6180  139.1800 N   0  0  0  0  0  2  0  0  0  0  0  0
  183.0120  178.4310  141.2430 C   0  0  2  0  0  3  0  0  0  0  0  0
  184.3790  178.7850  140.6330 C   0  0  0  0  0  2  0  0  0  0  0  0
  181.8380  179.2450  140.6360 C   0  0  2  0  0  3  0  0  0  0  0  0
  182.1800  177.9520  138.4590 C   0  0  2  0  0  3  0  0  0  0  0  0
  184.1550  175.4090  137.3980 C   0  0  0  0  0  0  0  0  0  0  0  0
  184.7520  174.8120  136.2820 C   0  0  0  0  0  3  0  0  0  0  0  0
  183.4960  174.6090  138.3230 O   0  0  0  0  0  1  0  0  0  0  0  0
  184.9040  177.5820  136.6210 C   0  0  0  0  0  3  0  0  0  0  0  0
  186.1460  177.7400  134.5940 F   0  0  0  0  0  0  0  0  0  0  0  0
  184.2300  176.8050  137.5700 C   0  0  0  0  0  0  0  0  0  0  0  0
  185.4210  175.5950  135.3390 C   0  0  0  0  0  3  0  0  0  0  0  0
  185.4970  176.9800  135.5080 C   0  0  0  0  0  0  0  0  0  0  0  0
  179.2740  179.3110  140.4640 C   0  0  0  0  0  1  0  0  0  0  0  0
  180.4800  178.9070  141.3030 C   0  0  2  0  0  3  0  0  0  0  0  0
  180.3490  179.5470  142.6810 C   0  0  0  0  0  2  0  0  0  0  0  0
  179.9870  180.8920  142.5730 O   0  0  0  0  0  1  0  0  0  0  0  0
  183.1140  178.5920  142.7540 C   0  0  0  0  0  2  0  0  0  0  0  0
  184.9630  179.7760  143.6230 O   0  0  0  0  0  0  0  0  0  0  0  0
  184.5410  178.7180  143.1860 C   0  0  0  0  0  0  0  0  0  0  0  0
  185.3630  177.6400  143.1120 F   0  0  0  0  0  0  0  0  0  0  0  0
  181.1990  176.8070  138.6640 C   0  0  0  0  0  2  0  0  0  0  0  0
  180.4120  175.4370  136.8670 O   0  0  0  0  0  1  0  0  0  0  0  0
  180.2670  176.6870  137.4710 C   0  0  0  0  0  2  0  0  0  0  0  0
  182.2840  180.3760  138.5520 C   0  0  0  0  0  2  0  0  0  0  0  0
  181.0330  182.3630  138.3530 O   0  0  0  0  0  0  0  0  0  0  0  0
  181.1910  181.2140  137.9740 C   0  0  0  0  0  0  0  0  0  0  0  0
  180.3030  180.6510  136.9210 C   0  0  0  0  0  1  0  0  0  0  0  0
  1 13  1  6  0  0  0
  1  3  1  0  0  0  0
  2  6  1  0  0  0  0
  3  5  1  0  0  0  0
  4 20  1  1  0  0  0
  5  4  1  0  0  0  0
  6  4  1  0  0  0  0
  6 17  1  1  0  0  0
  7 24  1  1  0  0  0
  7  1  1  0  0  0  0
  7  2  1  0  0  0  0
  8 13  1  0  0  0  0
  8 10  1  0  0  0  0
  9  8  2  0  0  0  0
 11 13  2  0  0  0  0
 12 15  1  0  0  0  0
 14 15  2  0  0  0  0
 14  9  1  0  0  0  0
 15 11  1  0  0  0  0
 17 16  1  6  0  0  0
 17 18  1  0  0  0  0
 19 18  1  0  0  0  0
 20 22  1  0  0  0  0
 22 21  2  0  0  0  0
 23 22  1  0  0  0  0
 25 26  1  0  0  0  0
 26 24  1  0  0  0  0
 27  2  1  0  0  0  0
 29 28  2  0  0  0  0
 29 27  1  0  0  0  0
 30 29  1  0  0  0  0
M  END
>  <MODEL>
8

>  <REMARK>
 VINA RESULT:      -4.4      6.171      9.170
  Name = 
  9 active torsions:
  status: ('A' for Active; 'I' for Inactive)
    1  A    between atoms: C_1  and  C_22
    2  A    between atoms: N_4  and  C_25
    3  A    between atoms: C_6  and  C_8
    4  A    between atoms: C_6  and  C_17
    5  A    between atoms: C_7  and  C_30
    6  A    between atoms: C_10  and  C_23
    7  A    between atoms: C_10  and  C_26
    8  A    between atoms: C_11  and  C_25
    9  A    between atoms: C_13  and  C_30
                            x       y       z     vdW  Elec       q    Type
                         _______ _______ _______ _____ _____    ______ ____

>  <TORSDO>
F 9

$$$$
=
 OpenBabel10262421493D

 30 31  0  0  1  0  0  0  0  0999 V2000
  182.7050  179.1040  138.4500 C   0  0  1  0  0  3  0  0  0  0  0  0
  182.8220  176.6010  137.9160 N   0  0  0  0  0  0  0  0  0  0  0  0
  183.4560  178.7020  139.6340 N   0  0  0  0  0  2  0  0  0  0  0  0
  185.0580  177.8470  137.8800 C   0  0  2  0  0  3  0  0  0  0  0  0
  184.8530  178.4360  139.2860 C   0  0  0  0  0  2  0  0  0  0  0  0
  184.2780  176.5250  137.6460 C   0  0  2  0  0  3  0  0  0  0  0  0
  182.1180  177.8870  137.7130 C   0  0  2  0  0  3  0  0  0  0  0  0
  180.7180  179.8680  139.8510 C   0  0  0  0  0  0  0  0  0  0  0  0
  179.7350  180.8220  140.1340 C   0  0  0  0  0  3  0  0  0  0  0  0
  180.7700  178.7040  140.6080 O   0  0  0  0  0  1  0  0  0  0  0  0
  181.5560  181.2770  138.0630 C   0  0  0  0  0  3  0  0  0  0  0  0
  180.5020  183.3680  137.6240 F   0  0  0  0  0  0  0  0  0  0  0  0
  181.6380  180.0950  138.8080 C   0  0  0  0  0  0  0  0  0  0  0  0
  179.6620  182.0000  139.3850 C   0  0  0  0  0  3  0  0  0  0  0  0
  180.5730  182.2270  138.3510 C   0  0  0  0  0  0  0  0  0  0  0  0
  183.2820  175.4180  135.5510 C   0  0  0  0  0  1  0  0  0  0  0  0
  184.5420  175.9260  136.2420 C   0  0  2  0  0  3  0  0  0  0  0  0
  185.5600  174.7900  136.2900 C   0  0  0  0  0  2  0  0  0  0  0  0
  185.5460  174.1620  137.5370 O   0  0  0  0  0  1  0  0  0  0  0  0
  186.5550  177.6910  137.6470 C   0  0  0  0  0  2  0  0  0  0  0  0
  187.6370  179.6310  136.8460 O   0  0  0  0  0  0  0  0  0  0  0  0
  187.0300  178.6090  136.5670 C   0  0  0  0  0  0  0  0  0  0  0  0
  186.8050  178.2910  135.2670 F   0  0  0  0  0  0  0  0  0  0  0  0
  181.9360  178.1830  136.2330 C   0  0  0  0  0  2  0  0  0  0  0  0
  179.6970  177.7160  136.9360 O   0  0  0  0  0  1  0  0  0  0  0  0
  180.4610  178.1930  135.8700 C   0  0  0  0  0  2  0  0  0  0  0  0
  182.5200  176.0270  139.2210 C   0  0  0  0  0  2  0  0  0  0  0  0
  180.3810  175.5380  140.0820 O   0  0  0  0  0  0  0  0  0  0  0  0
  181.1880  175.3500  139.1870 C   0  0  0  0  0  0  0  0  0  0  0  0
  180.8400  174.4550  138.0500 C   0  0  0  0  0  1  0  0  0  0  0  0
  1 13  1  1  0  0  0
  1  3  1  0  0  0  0
  2 27  1  0  0  0  0
  4 20  1  1  0  0  0
  4  5  1  0  0  0  0
  5  3  1  0  0  0  0
  6 17  1  6  0  0  0
  6  4  1  0  0  0  0
  6  2  1  0  0  0  0
  7 24  1  6  0  0  0
  7  2  1  0  0  0  0
  7  1  1  0  0  0  0
  8  9  1  0  0  0  0
  8 10  1  0  0  0  0
 11 15  2  0  0  0  0
 11 13  1  0  0  0  0
 12 15  1  0  0  0  0
 13  8  2  0  0  0  0
 14  9  2  0  0  0  0
 15 14  1  0  0  0  0
 17 16  1  1  0  0  0
 17 18  1  0  0  0  0
 18 19  1  0  0  0  0
 22 21  2  0  0  0  0
 22 20  1  0  0  0  0
 23 22  1  0  0  0  0
 26 24  1  0  0  0  0
 26 25  1  0  0  0  0
 29 27  1  0  0  0  0
 29 28  2  0  0  0  0
 30 29  1  0  0  0  0
M  END
>  <MODEL>
9

>  <REMARK>
 VINA RESULT:      -4.3      7.330     10.600
  Name = 
  9 active torsions:
  status: ('A' for Active; 'I' for Inactive)
    1  A    between atoms: C_1  and  C_22
    2  A    between atoms: N_4  and  C_25
    3  A    between atoms: C_6  and  C_8
    4  A    between atoms: C_6  and  C_17
    5  A    between atoms: C_7  and  C_30
    6  A    between atoms: C_10  and  C_23
    7  A    between atoms: C_10  and  C_26
    8  A    between atoms: C_11  and  C_25
    9  A    between atoms: C_13  and  C_30
                            x       y       z     vdW  Elec       q    Type
                         _______ _______ _______ _____ _____    ______ ____

>  <TORSDO>
F 9

$$$$
