=
 OpenBabel10262421083D

 32 37  0  0  1  0  0  0  0  0999 V2000
  190.3090  177.6310  142.6650 C   0  0  2  0  0  3  0  0  0  0  0  0
  187.9500  178.1310  143.3320 C   0  0  0  0  0  0  0  0  0  0  0  0
  191.2700  176.5840  143.0120 N   0  0  0  0  0  2  0  0  0  0  0  0
  189.2210  177.7060  143.7020 C   0  0  0  0  0  0  0  0  0  0  0  0
  186.8940  178.0820  144.2560 C   0  0  0  0  0  0  0  0  0  0  0  0
  184.5570  179.0500  139.7140 C   0  0  0  0  0  2  0  0  0  0  0  0
  187.7440  178.4550  141.8810 C   0  0  1  0  0  3  0  0  0  0  0  0
  183.8460  178.4970  142.0550 C   0  0  0  0  0  2  0  0  0  0  0  0
  185.2590  178.0230  142.3760 C   0  0  2  0  0  3  0  0  0  0  0  0
  189.4760  177.2850  145.0130 C   0  0  0  0  0  0  0  0  0  0  0  0
  185.5520  178.2430  143.7880 N   0  0  0  0  0  2  0  0  0  0  0  0
  188.4540  177.3410  145.9670 C   0  0  0  0  0  3  0  0  0  0  0  0
  190.7300  176.6590  145.3270 N   0  0  0  0  0  0  0  0  0  0  0  0
  188.3570  177.3880  141.0880 N   0  0  0  0  0  2  0  0  0  0  0  0
  189.7590  177.4390  141.3020 N   0  0  0  0  0  0  0  0  0  0  0  0
  186.2800  178.7700  141.5070 C   0  0  2  0  0  3  0  0  0  0  0  0
  187.1650  177.7530  145.5980 C   0  0  0  0  0  0  0  0  0  0  0  0
  191.5630  176.3060  144.3900 C   0  0  0  0  0  3  0  0  0  0  0  0
  183.5500  178.2840  140.5710 C   0  0  0  0  0  2  0  0  0  0  0  0
  185.9800  178.5890  140.0190 C   0  0  0  0  0  2  0  0  0  0  0  0
  190.5390  176.7580  137.7260 C   0  0  0  0  0  0  0  0  0  0  0  0
  194.0080  176.5990  137.3440 O   0  0  0  0  0  1  0  0  0  0  0  0
  189.8960  176.8750  136.3850 C   0  0  0  0  0  1  0  0  0  0  0  0
  193.0340  177.2160  139.3900 C   0  0  0  0  0  3  0  0  0  0  0  0
  190.6240  177.3710  140.1530 C   0  0  0  0  0  0  0  0  0  0  0  0
  191.7010  175.8310  137.8520 C   0  0  0  0  0  2  0  0  0  0  0  0
  191.9490  177.3170  140.3850 C   0  0  0  0  0  3  0  0  0  0  0  0
  190.0400  177.4320  138.7750 C   0  0  0  0  0  0  0  0  0  0  0  0
  188.9190  178.1720  138.5780 F   0  0  0  0  0  0  0  0  0  0  0  0
  192.9310  176.5850  138.2220 C   0  0  0  0  0  0  0  0  0  0  0  0
  186.0810  177.7580  146.6250 C   0  0  0  0  0  2  0  0  0  0  0  0
  185.8720  179.1630  147.1550 C   0  0  0  0  0  1  0  0  0  0  0  0
  1  3  1  1  0  0  0
  1  4  1  0  0  0  0
  2  4  2  0  0  0  0
  2  5  1  0  0  0  0
  3 18  1  0  0  0  0
  4 10  1  0  0  0  0
  5 17  2  0  0  0  0
  6 20  1  0  0  0  0
  6 19  1  0  0  0  0
  7 14  1  6  0  0  0
  7  2  1  0  0  0  0
  9  8  1  6  0  0  0
  9 11  1  0  0  0  0
 10 13  1  0  0  0  0
 10 12  2  0  0  0  0
 11  5  1  0  0  0  0
 14 15  1  0  0  0  0
 15  1  1  0  0  0  0
 16 20  1  6  0  0  0
 16  7  1  0  0  0  0
 16  9  1  0  0  0  0
 17 12  1  0  0  0  0
 17 31  1  0  0  0  0
 18 13  2  0  0  0  0
 19  8  1  0  0  0  0
 21 26  1  0  0  0  0
 21 28  2  0  0  0  0
 22 30  1  0  0  0  0
 23 21  1  0  0  0  0
 24 27  1  0  0  0  0
 25 27  2  0  0  0  0
 25 15  1  0  0  0  0
 26 30  1  0  0  0  0
 28 25  1  0  0  0  0
 29 28  1  0  0  0  0
 30 24  2  0  0  0  0
 31 32  1  0  0  0  0
M  END
>  <MODEL>
1

>  <REMARK>
 VINA RESULT:     -10.7      0.000      0.000
  Name = 
  2 active torsions:
  status: ('A' for Active; 'I' for Inactive)
    1  A    between atoms: C_13  and  C_29
    2  A    between atoms: C_16  and  N_27
                            x       y       z     vdW  Elec       q    Type
                         _______ _______ _______ _____ _____    ______ ____

>  <TORSDO>
F 2

$$$$
=
 OpenBabel10262421083D

 32 37  0  0  1  0  0  0  0  0999 V2000
  185.0550  177.9870  143.7910 C   0  0  2  0  0  3  0  0  0  0  0  0
  187.4460  177.3730  144.2020 C   0  0  0  0  0  0  0  0  0  0  0  0
  184.1470  178.9900  144.3470 N   0  0  0  0  0  2  0  0  0  0  0  0
  186.2150  177.7610  144.7220 C   0  0  0  0  0  0  0  0  0  0  0  0
  188.5680  177.2840  145.0410 C   0  0  0  0  0  0  0  0  0  0  0  0
  190.5360  176.9010  140.2430 C   0  0  0  0  0  2  0  0  0  0  0  0
  187.5350  177.2420  142.7100 C   0  0  1  0  0  3  0  0  0  0  0  0
  191.4330  177.1280  142.5750 C   0  0  0  0  0  2  0  0  0  0  0  0
  190.0590  177.5730  143.0640 C   0  0  2  0  0  3  0  0  0  0  0  0
  186.0690  178.0060  146.0930 C   0  0  0  0  0  0  0  0  0  0  0  0
  189.8670  177.1710  144.4530 N   0  0  0  0  0  2  0  0  0  0  0  0
  187.1580  177.8100  146.9500 C   0  0  0  0  0  3  0  0  0  0  0  0
  184.8570  178.6010  146.5830 N   0  0  0  0  0  0  0  0  0  0  0  0
  186.8880  178.4130  142.1140 N   0  0  0  0  0  2  0  0  0  0  0  0
  185.5060  178.3520  142.4270 N   0  0  0  0  0  0  0  0  0  0  0  0
  188.9590  176.9620  142.1850 C   0  0  2  0  0  3  0  0  0  0  0  0
  188.4070  177.4350  146.4310 C   0  0  0  0  0  0  0  0  0  0  0  0
  183.9640  179.0860  145.7680 C   0  0  0  0  0  3  0  0  0  0  0  0
  191.6220  177.5330  141.1140 C   0  0  0  0  0  2  0  0  0  0  0  0
  189.1510  177.3360  140.7150 C   0  0  0  0  0  2  0  0  0  0  0  0
  182.2400  177.9210  140.6920 C   0  0  0  0  0  0  0  0  0  0  0  0
  182.5540  179.0670  137.4070 O   0  0  0  0  0  1  0  0  0  0  0  0
  180.7950  177.7520  141.0250 C   0  0  0  0  0  1  0  0  0  0  0  0
  184.2970  179.3250  138.9600 C   0  0  0  0  0  3  0  0  0  0  0  0
  184.5590  178.5840  141.3670 C   0  0  0  0  0  0  0  0  0  0  0  0
  182.6850  177.5020  139.3320 C   0  0  0  0  0  2  0  0  0  0  0  0
  185.0470  179.0370  140.1980 C   0  0  0  0  0  3  0  0  0  0  0  0
  183.0960  178.3850  141.6170 C   0  0  0  0  0  0  0  0  0  0  0  0
  182.6090  178.6440  142.8580 F   0  0  0  0  0  0  0  0  0  0  0  0
  183.2040  178.6730  138.5700 C   0  0  0  0  0  0  0  0  0  0  0  0
  189.5640  177.2800  147.3620 C   0  0  0  0  0  2  0  0  0  0  0  0
  189.3940  178.1930  148.5610 C   0  0  0  0  0  1  0  0  0  0  0  0
  1  3  1  1  0  0  0
  1  4  1  0  0  0  0
  2  4  2  0  0  0  0
  2  5  1  0  0  0  0
  3 18  1  0  0  0  0
  4 10  1  0  0  0  0
  5 17  2  0  0  0  0
  6 20  1  0  0  0  0
  6 19  1  0  0  0  0
  7 14  1  6  0  0  0
  7  2  1  0  0  0  0
  9  8  1  6  0  0  0
  9 11  1  0  0  0  0
 10 13  1  0  0  0  0
 10 12  2  0  0  0  0
 11  5  1  0  0  0  0
 14 15  1  0  0  0  0
 15  1  1  0  0  0  0
 16 20  1  6  0  0  0
 16  7  1  0  0  0  0
 16  9  1  0  0  0  0
 17 12  1  0  0  0  0
 17 31  1  0  0  0  0
 18 13  2  0  0  0  0
 19  8  1  0  0  0  0
 21 23  1  0  0  0  0
 21 28  2  0  0  0  0
 22 30  1  0  0  0  0
 24 27  1  0  0  0  0
 25 28  1  0  0  0  0
 25 15  1  0  0  0  0
 26 21  1  0  0  0  0
 27 25  2  0  0  0  0
 28 29  1  0  0  0  0
 30 24  2  0  0  0  0
 30 26  1  0  0  0  0
 31 32  1  0  0  0  0
M  END
>  <MODEL>
2

>  <REMARK>
 VINA RESULT:     -10.5      3.009      6.400
  Name = 
  2 active torsions:
  status: ('A' for Active; 'I' for Inactive)
    1  A    between atoms: C_13  and  C_29
    2  A    between atoms: C_16  and  N_27
                            x       y       z     vdW  Elec       q    Type
                         _______ _______ _______ _____ _____    ______ ____

>  <TORSDO>
F 2

$$$$
=
 OpenBabel10262421083D

 32 37  0  0  1  0  0  0  0  0999 V2000
  187.3410  177.6460  141.3800 C   0  0  2  0  0  3  0  0  0  0  0  0
  187.5170  177.3610  143.8590 C   0  0  0  0  0  0  0  0  0  0  0  0
  186.8110  178.6930  140.5060 N   0  0  0  0  0  2  0  0  0  0  0  0
  186.7710  177.7850  142.7650 C   0  0  0  0  0  0  0  0  0  0  0  0
  187.0550  177.6020  145.1630 C   0  0  0  0  0  0  0  0  0  0  0  0
  191.9630  176.0220  145.8300 C   0  0  0  0  0  2  0  0  0  0  0  0
  188.8860  176.8190  143.5710 C   0  0  1  0  0  3  0  0  0  0  0  0
  190.1370  176.9720  147.2640 C   0  0  0  0  0  2  0  0  0  0  0  0
  189.3910  177.4300  146.0160 C   0  0  2  0  0  3  0  0  0  0  0  0
  185.5250  178.3980  142.9490 C   0  0  0  0  0  0  0  0  0  0  0  0
  187.9530  177.4270  146.2620 N   0  0  0  0  0  2  0  0  0  0  0  0
  185.0090  178.5390  144.2430 C   0  0  0  0  0  3  0  0  0  0  0  0
  184.8640  179.0120  141.8330 N   0  0  0  0  0  0  0  0  0  0  0  0
  189.5370  177.7170  142.6160 N   0  0  0  0  0  2  0  0  0  0  0  0
  188.8230  177.6410  141.3920 N   0  0  0  0  0  0  0  0  0  0  0  0
  189.7220  176.5110  144.8320 C   0  0  2  0  0  3  0  0  0  0  0  0
  185.7630  178.1300  145.3530 C   0  0  0  0  0  0  0  0  0  0  0  0
  185.4710  179.1750  140.6920 C   0  0  0  0  0  3  0  0  0  0  0  0
  191.6410  176.9580  146.9950 C   0  0  0  0  0  2  0  0  0  0  0  0
  191.2270  176.4650  144.5680 C   0  0  0  0  0  2  0  0  0  0  0  0
  189.3750  177.9620  137.7240 C   0  0  0  0  0  0  0  0  0  0  0  0
  192.0600  175.9220  136.8100 O   0  0  0  0  0  1  0  0  0  0  0  0
  189.0660  178.9070  136.6120 C   0  0  0  0  0  1  0  0  0  0  0  0
  191.4640  176.2160  139.0620 C   0  0  0  0  0  3  0  0  0  0  0  0
  189.5770  177.4880  140.1750 C   0  0  0  0  0  0  0  0  0  0  0  0
  189.7210  176.5590  137.3570 C   0  0  0  0  0  2  0  0  0  0  0  0
  190.5700  176.5790  140.1800 C   0  0  0  0  0  3  0  0  0  0  0  0
  189.2860  178.3700  139.0010 C   0  0  0  0  0  0  0  0  0  0  0  0
  188.8650  179.6400  139.2320 F   0  0  0  0  0  0  0  0  0  0  0  0
  191.1150  176.2390  137.7780 C   0  0  0  0  0  0  0  0  0  0  0  0
  185.2100  178.3360  146.7240 C   0  0  0  0  0  2  0  0  0  0  0  0
  185.8910  179.5160  147.3880 C   0  0  0  0  0  1  0  0  0  0  0  0
  1  3  1  6  0  0  0
  1 15  1  0  0  0  0
  1  4  1  0  0  0  0
  2  5  1  0  0  0  0
  3 18  1  0  0  0  0
  4 10  1  0  0  0  0
  4  2  2  0  0  0  0
  5 17  2  0  0  0  0
  5 11  1  0  0  0  0
  6 19  1  0  0  0  0
  7 14  1  6  0  0  0
  7  2  1  0  0  0  0
  7 16  1  0  0  0  0
  9 11  1  0  0  0  0
  9  8  1  1  0  0  0
 10 12  2  0  0  0  0
 12 17  1  0  0  0  0
 13 10  1  0  0  0  0
 15 14  1  0  0  0  0
 16 20  1  6  0  0  0
 16  9  1  0  0  0  0
 17 31  1  0  0  0  0
 18 13  2  0  0  0  0
 19  8  1  0  0  0  0
 20  6  1  0  0  0  0
 21 28  2  0  0  0  0
 22 30  1  0  0  0  0
 23 21  1  0  0  0  0
 24 27  1  0  0  0  0
 25 27  2  0  0  0  0
 25 15  1  0  0  0  0
 26 21  1  0  0  0  0
 26 30  1  0  0  0  0
 28 29  1  0  0  0  0
 28 25  1  0  0  0  0
 30 24  2  0  0  0  0
 31 32  1  0  0  0  0
M  END
>  <MODEL>
3

>  <REMARK>
 VINA RESULT:     -10.4      1.482      4.501
  Name = 
  2 active torsions:
  status: ('A' for Active; 'I' for Inactive)
    1  A    between atoms: C_13  and  C_29
    2  A    between atoms: C_16  and  N_27
                            x       y       z     vdW  Elec       q    Type
                         _______ _______ _______ _____ _____    ______ ____

>  <TORSDO>
F 2

$$$$
=
 OpenBabel10262421083D

 32 37  0  0  1  0  0  0  0  0999 V2000
  190.2290  177.2800  143.0360 C   0  0  2  0  0  3  0  0  0  0  0  0
  188.4710  177.8610  144.7190 C   0  0  0  0  0  0  0  0  0  0  0  0
  191.1280  176.1420  142.8490 N   0  0  0  0  0  2  0  0  0  0  0  0
  189.7220  177.3170  144.4530 C   0  0  0  0  0  0  0  0  0  0  0  0
  187.9300  177.7860  146.0120 C   0  0  0  0  0  0  0  0  0  0  0  0
  183.9510  179.3760  143.0680 C   0  0  0  0  0  2  0  0  0  0  0  0
  187.6840  178.3490  143.5380 C   0  0  1  0  0  3  0  0  0  0  0  0
  184.2870  178.6280  145.4390 C   0  0  0  0  0  2  0  0  0  0  0  0
  185.6390  178.0320  145.0630 C   0  0  2  0  0  3  0  0  0  0  0  0
  190.4820  176.7460  145.4810 C   0  0  0  0  0  0  0  0  0  0  0  0
  186.5440  178.0820  146.2050 N   0  0  0  0  0  2  0  0  0  0  0  0
  189.9960  176.7680  146.7930 C   0  0  0  0  0  3  0  0  0  0  0  0
  191.6720  176.0090  145.1600 N   0  0  0  0  0  0  0  0  0  0  0  0
  187.7690  177.3340  142.4860 N   0  0  0  0  0  2  0  0  0  0  0  0
  189.1190  177.2690  142.0540 N   0  0  0  0  0  0  0  0  0  0  0  0
  186.2460  178.7970  143.8790 C   0  0  2  0  0  3  0  0  0  0  0  0
  188.7260  177.3000  147.0670 C   0  0  0  0  0  0  0  0  0  0  0  0
  191.9660  175.7020  143.9280 C   0  0  0  0  0  3  0  0  0  0  0  0
  183.3490  178.5920  144.2330 C   0  0  0  0  0  2  0  0  0  0  0  0
  185.3060  178.7930  142.6740 C   0  0  0  0  0  2  0  0  0  0  0  0
  188.1420  177.4030  138.4640 C   0  0  0  0  0  0  0  0  0  0  0  0
  190.8390  176.3220  136.5250 O   0  0  0  0  0  1  0  0  0  0  0  0
  187.1370  178.0740  137.5890 C   0  0  0  0  0  1  0  0  0  0  0  0
  191.0460  176.6110  138.8460 C   0  0  0  0  0  3  0  0  0  0  0  0
  189.3790  177.2650  140.6380 C   0  0  0  0  0  0  0  0  0  0  0  0
  188.8000  176.1730  137.9360 C   0  0  0  0  0  2  0  0  0  0  0  0
  190.5560  176.7540  140.2310 C   0  0  0  0  0  3  0  0  0  0  0  0
  188.3880  177.8780  139.6960 C   0  0  0  0  0  0  0  0  0  0  0  0
  187.6630  178.9450  140.1210 F   0  0  0  0  0  0  0  0  0  0  0  0
  190.2670  176.3900  137.7890 C   0  0  0  0  0  0  0  0  0  0  0  0
  188.2110  177.2680  148.4680 C   0  0  0  0  0  2  0  0  0  0  0  0
  188.6510  178.5130  149.2130 C   0  0  0  0  0  1  0  0  0  0  0  0
  1  3  1  1  0  0  0
  1  4  1  0  0  0  0
  2  5  1  0  0  0  0
  3 18  1  0  0  0  0
  4  2  2  0  0  0  0
  4 10  1  0  0  0  0
  5 11  1  0  0  0  0
  5 17  2  0  0  0  0
  6 19  1  0  0  0  0
  7 14  1  6  0  0  0
  7 16  1  0  0  0  0
  7  2  1  0  0  0  0
  9  8  1  1  0  0  0
  9 11  1  0  0  0  0
 10 12  2  0  0  0  0
 12 17  1  0  0  0  0
 13 10  1  0  0  0  0
 15 14  1  0  0  0  0
 15  1  1  0  0  0  0
 16 20  1  6  0  0  0
 16  9  1  0  0  0  0
 17 31  1  0  0  0  0
 18 13  2  0  0  0  0
 19  8  1  0  0  0  0
 20  6  1  0  0  0  0
 21 28  2  0  0  0  0
 22 30  1  0  0  0  0
 23 21  1  0  0  0  0
 24 27  1  0  0  0  0
 25 15  1  0  0  0  0
 26 21  1  0  0  0  0
 27 25  2  0  0  0  0
 28 29  1  0  0  0  0
 28 25  1  0  0  0  0
 30 26  1  0  0  0  0
 30 24  2  0  0  0  0
 31 32  1  0  0  0  0
M  END
>  <MODEL>
4

>  <REMARK>
 VINA RESULT:     -10.3      1.709      2.316
  Name = 
  2 active torsions:
  status: ('A' for Active; 'I' for Inactive)
    1  A    between atoms: C_13  and  C_29
    2  A    between atoms: C_16  and  N_27
                            x       y       z     vdW  Elec       q    Type
                         _______ _______ _______ _____ _____    ______ ____

>  <TORSDO>
F 2

$$$$
=
 OpenBabel10262421083D

 32 37  0  0  1  0  0  0  0  0999 V2000
  186.3800  178.6830  144.9300 C   0  0  2  0  0  3  0  0  0  0  0  0
  184.9860  178.9430  142.8680 C   0  0  0  0  0  0  0  0  0  0  0  0
  186.2220  177.9490  146.1850 N   0  0  0  0  0  2  0  0  0  0  0  0
  185.0460  178.8550  144.2550 C   0  0  0  0  0  0  0  0  0  0  0  0
  183.7430  178.9730  142.2170 C   0  0  0  0  0  0  0  0  0  0  0  0
  187.1680  178.2530  138.3720 C   0  0  0  0  0  2  0  0  0  0  0  0
  186.2860  178.8180  142.1290 C   0  0  1  0  0  3  0  0  0  0  0  0
  184.6720  178.2500  138.6220 C   0  0  0  0  0  2  0  0  0  0  0  0
  184.8200  178.1270  140.1340 C   0  0  2  0  0  3  0  0  0  0  0  0
  183.8720  178.8590  145.0180 C   0  0  0  0  0  0  0  0  0  0  0  0
  183.6940  178.7710  140.8020 N   0  0  0  0  0  2  0  0  0  0  0  0
  182.6350  179.0010  144.3810 C   0  0  0  0  0  3  0  0  0  0  0  0
  183.9370  178.5630  146.4210 N   0  0  0  0  0  0  0  0  0  0  0  0
  187.0280  177.6940  142.7030 N   0  0  0  0  0  2  0  0  0  0  0  0
  187.3700  178.0370  144.0370 N   0  0  0  0  0  0  0  0  0  0  0  0
  186.1370  178.7680  140.5930 C   0  0  2  0  0  3  0  0  0  0  0  0
  182.5640  179.0730  142.9810 C   0  0  0  0  0  0  0  0  0  0  0  0
  185.0300  178.1120  146.9680 C   0  0  0  0  0  3  0  0  0  0  0  0
  185.8630  177.5930  137.9270 C   0  0  0  0  0  2  0  0  0  0  0  0
  187.3370  178.1390  139.8850 C   0  0  0  0  0  2  0  0  0  0  0  0
  190.9710  177.2430  143.5180 C   0  0  0  0  0  0  0  0  0  0  0  0
  192.3840  176.3780  146.5930 O   0  0  0  0  0  1  0  0  0  0  0  0
  192.0560  177.5030  142.5270 C   0  0  0  0  0  1  0  0  0  0  0  0
  190.1760  177.1620  146.4450 C   0  0  0  0  0  3  0  0  0  0  0  0
  188.7230  177.8030  144.4710 C   0  0  0  0  0  0  0  0  0  0  0  0
  191.1550  176.0960  144.4530 C   0  0  0  0  0  2  0  0  0  0  0  0
  188.9040  177.4750  145.7650 C   0  0  0  0  0  3  0  0  0  0  0  0
  189.8580  177.9950  143.5140 C   0  0  0  0  0  0  0  0  0  0  0  0
  189.7440  178.9530  142.5570 F   0  0  0  0  0  0  0  0  0  0  0  0
  191.2210  176.5780  145.8620 C   0  0  0  0  0  0  0  0  0  0  0  0
  181.2280  179.1770  142.3240 C   0  0  0  0  0  2  0  0  0  0  0  0
  180.1470  178.6700  143.2600 C   0  0  0  0  0  1  0  0  0  0  0  0
  1  4  1  6  0  0  0
  1  3  1  0  0  0  0
  2  4  1  0  0  0  0
  3 18  1  0  0  0  0
  4 10  2  0  0  0  0
  5  2  2  0  0  0  0
  5 17  1  0  0  0  0
  6 20  1  0  0  0  0
  7 14  1  1  0  0  0
  7  2  1  0  0  0  0
  9  8  1  6  0  0  0
  9 16  1  0  0  0  0
  9 11  1  0  0  0  0
 10 13  1  0  0  0  0
 11  5  1  0  0  0  0
 12 10  1  0  0  0  0
 13 18  2  0  0  0  0
 14 15  1  0  0  0  0
 15 25  1  0  0  0  0
 15  1  1  0  0  0  0
 16 20  1  6  0  0  0
 16  7  1  0  0  0  0
 17 12  2  0  0  0  0
 19  6  1  0  0  0  0
 19  8  1  0  0  0  0
 21 26  1  0  0  0  0
 23 21  1  0  0  0  0
 25 27  2  0  0  0  0
 26 30  1  0  0  0  0
 27 24  1  0  0  0  0
 28 21  2  0  0  0  0
 28 25  1  0  0  0  0
 29 28  1  0  0  0  0
 30 24  2  0  0  0  0
 30 22  1  0  0  0  0
 31 17  1  0  0  0  0
 31 32  1  0  0  0  0
M  END
>  <MODEL>
5

>  <REMARK>
 VINA RESULT:     -10.2      2.953      5.320
  Name = 
  2 active torsions:
  status: ('A' for Active; 'I' for Inactive)
    1  A    between atoms: C_13  and  C_29
    2  A    between atoms: C_16  and  N_27
                            x       y       z     vdW  Elec       q    Type
                         _______ _______ _______ _____ _____    ______ ____

>  <TORSDO>
F 2

$$$$
=
 OpenBabel10262421083D

 32 37  0  0  1  0  0  0  0  0999 V2000
  190.4120  176.7710  142.5990 C   0  0  2  0  0  3  0  0  0  0  0  0
  188.3640  177.5030  141.3620 C   0  0  0  0  0  0  0  0  0  0  0  0
  191.8100  177.2000  142.6060 N   0  0  0  0  0  2  0  0  0  0  0  0
  189.7290  177.2380  141.3420 C   0  0  0  0  0  0  0  0  0  0  0  0
  187.7390  178.0610  140.2360 C   0  0  0  0  0  0  0  0  0  0  0  0
  184.1530  178.4170  143.9840 C   0  0  0  0  0  2  0  0  0  0  0  0
  187.6650  177.3350  142.6790 C   0  0  1  0  0  3  0  0  0  0  0  0
  184.4210  179.2320  141.6270 C   0  0  0  0  0  2  0  0  0  0  0  0
  185.9160  178.9390  141.6920 C   0  0  2  0  0  3  0  0  0  0  0  0
  190.4810  177.4660  140.1820 C   0  0  0  0  0  0  0  0  0  0  0  0
  186.4170  178.5920  140.3670 N   0  0  0  0  0  2  0  0  0  0  0  0
  189.8410  177.9170  139.0230 C   0  0  0  0  0  3  0  0  0  0  0  0
  191.9130  177.3850  140.2370 N   0  0  0  0  0  0  0  0  0  0  0  0
  188.4900  177.9630  143.7130 N   0  0  0  0  0  2  0  0  0  0  0  0
  189.6950  177.2220  143.8160 N   0  0  0  0  0  0  0  0  0  0  0  0
  186.1900  177.7910  142.6730 C   0  0  2  0  0  3  0  0  0  0  0  0
  188.4670  178.2020  139.0390 C   0  0  0  0  0  0  0  0  0  0  0  0
  192.5420  177.2850  141.3730 C   0  0  0  0  0  3  0  0  0  0  0  0
  183.8960  179.5750  143.0200 C   0  0  0  0  0  2  0  0  0  0  0  0
  185.6460  178.1090  144.0660 C   0  0  0  0  0  2  0  0  0  0  0  0
  189.7360  177.4260  147.5330 C   0  0  0  0  0  0  0  0  0  0  0  0
  192.6510  175.9020  148.7090 O   0  0  0  0  0  1  0  0  0  0  0  0
  188.7860  177.6250  148.6660 C   0  0  0  0  0  1  0  0  0  0  0  0
  192.0760  175.8380  146.4340 C   0  0  0  0  0  3  0  0  0  0  0  0
  190.1600  176.8610  145.1300 C   0  0  0  0  0  0  0  0  0  0  0  0
  191.1820  177.6840  147.7950 C   0  0  0  0  0  2  0  0  0  0  0  0
  191.3690  176.2740  145.2140 C   0  0  0  0  0  3  0  0  0  0  0  0
  189.2770  177.0790  146.3190 C   0  0  0  0  0  0  0  0  0  0  0  0
  187.9330  176.9660  146.1590 F   0  0  0  0  0  0  0  0  0  0  0  0
  191.9740  176.4340  147.6200 C   0  0  0  0  0  0  0  0  0  0  0  0
  187.8180  178.7280  137.8010 C   0  0  0  0  0  2  0  0  0  0  0  0
  188.8620  178.9710  136.7290 C   0  0  0  0  0  1  0  0  0  0  0  0
  1  4  1  6  0  0  0
  1  3  1  0  0  0  0
  1 15  1  0  0  0  0
  4  2  1  0  0  0  0
  5 11  1  0  0  0  0
  5  2  2  0  0  0  0
  6 20  1  0  0  0  0
  7  2  1  6  0  0  0
  7 14  1  0  0  0  0
  8 19  1  0  0  0  0
  9  8  1  6  0  0  0
  9 16  1  0  0  0  0
 10 13  1  0  0  0  0
 10  4  2  0  0  0  0
 11  9  1  0  0  0  0
 12 17  2  0  0  0  0
 12 10  1  0  0  0  0
 13 18  2  0  0  0  0
 14 15  1  0  0  0  0
 15 25  1  0  0  0  0
 16  7  1  0  0  0  0
 16 20  1  1  0  0  0
 17  5  1  0  0  0  0
 18  3  1  0  0  0  0
 19  6  1  0  0  0  0
 21 26  1  0  0  0  0
 21 23  1  0  0  0  0
 24 30  2  0  0  0  0
 25 27  2  0  0  0  0
 25 28  1  0  0  0  0
 27 24  1  0  0  0  0
 28 21  2  0  0  0  0
 29 28  1  0  0  0  0
 30 26  1  0  0  0  0
 30 22  1  0  0  0  0
 31 17  1  0  0  0  0
 32 31  1  0  0  0  0
M  END
>  <MODEL>
6

>  <REMARK>
 VINA RESULT:     -10.0      3.040      6.267
  Name = 
  2 active torsions:
  status: ('A' for Active; 'I' for Inactive)
    1  A    between atoms: C_13  and  C_29
    2  A    between atoms: C_16  and  N_27
                            x       y       z     vdW  Elec       q    Type
                         _______ _______ _______ _____ _____    ______ ____

>  <TORSDO>
F 2

$$$$
=
 OpenBabel10262421083D

 32 37  0  0  1  0  0  0  0  0999 V2000
  185.9150  178.7680  143.0340 C   0  0  2  0  0  3  0  0  0  0  0  0
  186.7120  178.4750  140.6810 C   0  0  0  0  0  0  0  0  0  0  0  0
  184.7600  178.2840  143.7900 N   0  0  0  0  0  2  0  0  0  0  0  0
  185.6500  178.6700  141.5570 C   0  0  0  0  0  0  0  0  0  0  0  0
  186.4690  178.2530  139.3160 C   0  0  0  0  0  0  0  0  0  0  0  0
  191.5110  177.1280  139.9040 C   0  0  0  0  0  2  0  0  0  0  0  0
  188.0740  178.3360  141.2960 C   0  0  1  0  0  3  0  0  0  0  0  0
  189.7920  176.9290  138.0870 C   0  0  0  0  0  2  0  0  0  0  0  0
  188.6810  177.1220  139.1120 C   0  0  2  0  0  3  0  0  0  0  0  0
  184.3330  178.7090  141.0790 C   0  0  0  0  0  0  0  0  0  0  0  0
  187.5320  177.7710  138.4900 N   0  0  0  0  0  2  0  0  0  0  0  0
  184.0940  178.6000  139.7050 C   0  0  0  0  0  3  0  0  0  0  0  0
  183.2400  178.7040  142.0100 N   0  0  0  0  0  0  0  0  0  0  0  0
  187.9640  177.4260  142.4370 N   0  0  0  0  0  2  0  0  0  0  0  0
  187.1570  178.0580  143.4190 N   0  0  0  0  0  0  0  0  0  0  0  0
  189.1860  177.9680  140.2900 C   0  0  2  0  0  3  0  0  0  0  0  0
  185.1590  178.3860  138.8160 C   0  0  0  0  0  0  0  0  0  0  0  0
  183.4320  178.4810  143.2790 C   0  0  0  0  0  3  0  0  0  0  0  0
  191.0010  176.2680  138.7480 C   0  0  0  0  0  2  0  0  0  0  0  0
  190.4130  177.3330  140.9440 C   0  0  0  0  0  2  0  0  0  0  0  0
  189.5560  177.2350  146.1460 C   0  0  0  0  0  0  0  0  0  0  0  0
  187.9490  177.6570  149.2190 O   0  0  0  0  0  1  0  0  0  0  0  0
  191.0280  177.1280  146.3640 C   0  0  0  0  0  1  0  0  0  0  0  0
  186.9030  178.2580  147.2050 C   0  0  0  0  0  3  0  0  0  0  0  0
  187.6180  178.0490  144.7840 C   0  0  0  0  0  0  0  0  0  0  0  0
  188.6640  176.5400  147.1190 C   0  0  0  0  0  2  0  0  0  0  0  0
  186.6950  178.2480  145.7440 C   0  0  0  0  0  3  0  0  0  0  0  0
  189.0780  177.8940  145.0770 C   0  0  0  0  0  0  0  0  0  0  0  0
  189.9750  178.4080  144.1960 F   0  0  0  0  0  0  0  0  0  0  0  0
  187.8140  177.5270  147.8430 C   0  0  0  0  0  0  0  0  0  0  0  0
  184.8710  178.2250  137.3600 C   0  0  0  0  0  2  0  0  0  0  0  0
  184.2360  176.8730  137.1020 C   0  0  0  0  0  1  0  0  0  0  0  0
  1  4  1  6  0  0  0
  1 15  1  0  0  0  0
  1  3  1  0  0  0  0
  2  4  1  0  0  0  0
  5  2  2  0  0  0  0
  6 20  1  0  0  0  0
  7  2  1  6  0  0  0
  7 14  1  0  0  0  0
  8 19  1  0  0  0  0
  9  8  1  6  0  0  0
  9 16  1  0  0  0  0
 10  4  2  0  0  0  0
 10 13  1  0  0  0  0
 11  9  1  0  0  0  0
 11  5  1  0  0  0  0
 12 10  1  0  0  0  0
 13 18  2  0  0  0  0
 14 15  1  0  0  0  0
 15 25  1  0  0  0  0
 16 20  1  1  0  0  0
 16  7  1  0  0  0  0
 17  5  1  0  0  0  0
 17 12  2  0  0  0  0
 18  3  1  0  0  0  0
 19  6  1  0  0  0  0
 21 23  1  0  0  0  0
 21 26  1  0  0  0  0
 24 30  2  0  0  0  0
 25 28  1  0  0  0  0
 25 27  2  0  0  0  0
 26 30  1  0  0  0  0
 27 24  1  0  0  0  0
 28 21  2  0  0  0  0
 29 28  1  0  0  0  0
 30 22  1  0  0  0  0
 31 17  1  0  0  0  0
 32 31  1  0  0  0  0
M  END
>  <MODEL>
7

>  <REMARK>
 VINA RESULT:     -10.0      2.984      7.313
  Name = 
  2 active torsions:
  status: ('A' for Active; 'I' for Inactive)
    1  A    between atoms: C_13  and  C_29
    2  A    between atoms: C_16  and  N_27
                            x       y       z     vdW  Elec       q    Type
                         _______ _______ _______ _____ _____    ______ ____

>  <TORSDO>
F 2

$$$$
=
 OpenBabel10262421083D

 32 37  0  0  1  0  0  0  0  0999 V2000
  185.0810  177.8780  143.7690 C   0  0  2  0  0  3  0  0  0  0  0  0
  187.4670  177.3650  144.3220 C   0  0  0  0  0  0  0  0  0  0  0  0
  184.1170  178.8780  144.2280 N   0  0  0  0  0  2  0  0  0  0  0  0
  186.2020  177.7380  144.7630 C   0  0  0  0  0  0  0  0  0  0  0  0
  188.5500  177.3560  145.2150 C   0  0  0  0  0  0  0  0  0  0  0  0
  190.7550  176.7910  140.5400 C   0  0  0  0  0  2  0  0  0  0  0  0
  187.6310  177.1610  142.8440 C   0  0  1  0  0  3  0  0  0  0  0  0
  191.5320  177.1680  142.8950 C   0  0  0  0  0  2  0  0  0  0  0  0
  190.1240  177.5920  143.2960 C   0  0  2  0  0  3  0  0  0  0  0  0
  185.9820  178.0490  146.1110 C   0  0  0  0  0  0  0  0  0  0  0  0
  189.8780  177.2560  144.6940 N   0  0  0  0  0  2  0  0  0  0  0  0
  187.0350  177.9340  147.0260 C   0  0  0  0  0  3  0  0  0  0  0  0
  184.7310  178.6280  146.5120 N   0  0  0  0  0  0  0  0  0  0  0  0
  186.9780  178.2770  142.1580 N   0  0  0  0  0  2  0  0  0  0  0  0
  185.5850  178.1860  142.4100 N   0  0  0  0  0  0  0  0  0  0  0  0
  189.0870  176.9000  142.4010 C   0  0  2  0  0  3  0  0  0  0  0  0
  188.3180  177.5740  146.5860 C   0  0  0  0  0  0  0  0  0  0  0  0
  183.8640  179.0410  145.6320 C   0  0  0  0  0  3  0  0  0  0  0  0
  191.7780  177.5030  141.4250 C   0  0  0  0  0  2  0  0  0  0  0  0
  189.3360  177.2040  140.9240 C   0  0  0  0  0  2  0  0  0  0  0  0
  184.7070  179.0300  138.8910 C   0  0  0  0  0  0  0  0  0  0  0  0
  181.2360  179.3430  138.6450 O   0  0  0  0  0  1  0  0  0  0  0  0
  185.2960  178.9370  137.5240 C   0  0  0  0  0  1  0  0  0  0  0  0
  182.2550  178.6130  140.6300 C   0  0  0  0  0  3  0  0  0  0  0  0
  184.6830  178.3320  141.2970 C   0  0  0  0  0  0  0  0  0  0  0  0
  183.5900  179.9980  139.0930 C   0  0  0  0  0  2  0  0  0  0  0  0
  183.3700  178.4310  141.5800 C   0  0  0  0  0  3  0  0  0  0  0  0
  185.2140  178.2980  139.8970 C   0  0  0  0  0  0  0  0  0  0  0  0
  186.2950  177.5210  139.6320 F   0  0  0  0  0  0  0  0  0  0  0  0
  182.3430  179.2810  139.4820 C   0  0  0  0  0  0  0  0  0  0  0  0
  189.4340  177.5050  147.5760 C   0  0  0  0  0  2  0  0  0  0  0  0
  189.0560  178.2530  148.8390 C   0  0  0  0  0  1  0  0  0  0  0  0
  1  3  1  1  0  0  0
  1  4  1  0  0  0  0
  2  4  2  0  0  0  0
  2  5  1  0  0  0  0
  3 18  1  0  0  0  0
  4 10  1  0  0  0  0
  5 17  2  0  0  0  0
  6 20  1  0  0  0  0
  6 19  1  0  0  0  0
  7 14  1  6  0  0  0
  7  2  1  0  0  0  0
  9  8  1  6  0  0  0
  9 11  1  0  0  0  0
 10 13  1  0  0  0  0
 10 12  2  0  0  0  0
 11  5  1  0  0  0  0
 14 15  1  0  0  0  0
 15  1  1  0  0  0  0
 16 20  1  6  0  0  0
 16  7  1  0  0  0  0
 16  9  1  0  0  0  0
 17 12  1  0  0  0  0
 17 31  1  0  0  0  0
 18 13  2  0  0  0  0
 19  8  1  0  0  0  0
 21 26  1  0  0  0  0
 21 28  2  0  0  0  0
 22 30  1  0  0  0  0
 23 21  1  0  0  0  0
 24 27  1  0  0  0  0
 25 27  2  0  0  0  0
 25 15  1  0  0  0  0
 26 30  1  0  0  0  0
 28 25  1  0  0  0  0
 29 28  1  0  0  0  0
 30 24  2  0  0  0  0
 31 32  1  0  0  0  0
M  END
>  <MODEL>
8

>  <REMARK>
 VINA RESULT:      -9.9      2.964      6.231
  Name = 
  2 active torsions:
  status: ('A' for Active; 'I' for Inactive)
    1  A    between atoms: C_13  and  C_29
    2  A    between atoms: C_16  and  N_27
                            x       y       z     vdW  Elec       q    Type
                         _______ _______ _______ _____ _____    ______ ____

>  <TORSDO>
F 2

$$$$
=
 OpenBabel10262421083D

 32 37  0  0  1  0  0  0  0  0999 V2000
  185.8500  178.6380  139.1850 C   0  0  2  0  0  3  0  0  0  0  0  0
  186.9090  178.4970  141.4470 C   0  0  0  0  0  0  0  0  0  0  0  0
  185.8960  177.8080  137.9810 N   0  0  0  0  0  2  0  0  0  0  0  0
  187.0280  178.3370  140.0710 C   0  0  0  0  0  0  0  0  0  0  0  0
  187.9530  178.0980  142.2960 C   0  0  0  0  0  0  0  0  0  0  0  0
  183.9830  179.0250  145.5230 C   0  0  0  0  0  2  0  0  0  0  0  0
  185.5670  178.9330  141.9600 C   0  0  1  0  0  3  0  0  0  0  0  0
  186.2890  178.0520  145.6930 C   0  0  0  0  0  2  0  0  0  0  0  0
  186.3330  177.8830  144.1780 C   0  0  2  0  0  3  0  0  0  0  0  0
  188.2110  177.8360  139.5140 C   0  0  0  0  0  0  0  0  0  0  0  0
  187.7070  177.9980  143.7010 N   0  0  0  0  0  2  0  0  0  0  0  0
  189.2960  177.5420  140.3470 C   0  0  0  0  0  3  0  0  0  0  0  0
  188.2480  177.4840  138.1230 N   0  0  0  0  0  0  0  0  0  0  0  0
  184.5430  178.1370  141.2820 N   0  0  0  0  0  2  0  0  0  0  0  0
  184.5640  178.4850  139.9060 N   0  0  0  0  0  0  0  0  0  0  0  0
  185.4540  178.9420  143.5000 C   0  0  2  0  0  3  0  0  0  0  0  0
  189.1780  177.6850  141.7380 C   0  0  0  0  0  0  0  0  0  0  0  0
  187.1610  177.4460  137.4050 C   0  0  0  0  0  3  0  0  0  0  0  0
  184.8460  177.9520  146.1860 C   0  0  0  0  0  2  0  0  0  0  0  0
  184.0120  178.8730  144.0040 C   0  0  0  0  0  2  0  0  0  0  0  0
  181.5780  177.5820  137.8740 C   0  0  0  0  0  0  0  0  0  0  0  0
  180.0010  180.5190  136.8300 O   0  0  0  0  0  1  0  0  0  0  0  0
  180.6650  176.4230  137.6580 C   0  0  0  0  0  1  0  0  0  0  0  0
  181.8180  180.5740  138.3160 C   0  0  0  0  0  3  0  0  0  0  0  0
  183.3080  178.7540  139.2550 C   0  0  0  0  0  0  0  0  0  0  0  0
  181.6170  178.6330  136.8160 C   0  0  0  0  0  2  0  0  0  0  0  0
  183.0170  180.0420  138.9930 C   0  0  0  0  0  3  0  0  0  0  0  0
  182.3640  177.6290  138.9620 C   0  0  0  0  0  0  0  0  0  0  0  0
  182.3270  176.5740  139.8160 F   0  0  0  0  0  0  0  0  0  0  0  0
  181.1450  179.9380  137.3600 C   0  0  0  0  0  0  0  0  0  0  0  0
  190.3350  177.3190  142.6080 C   0  0  0  0  0  2  0  0  0  0  0  0
  190.3410  175.8240  142.8640 C   0  0  0  0  0  1  0  0  0  0  0  0
  1  3  1  6  0  0  0
  1 15  1  0  0  0  0
  1  4  1  0  0  0  0
  2  7  1  0  0  0  0
  2  5  1  0  0  0  0
  4  2  2  0  0  0  0
  5 11  1  0  0  0  0
  6 19  1  0  0  0  0
  7 14  1  6  0  0  0
  7 16  1  0  0  0  0
  8 19  1  0  0  0  0
  9  8  1  1  0  0  0
 10  4  1  0  0  0  0
 10 12  2  0  0  0  0
 11  9  1  0  0  0  0
 12 17  1  0  0  0  0
 13 10  1  0  0  0  0
 15 14  1  0  0  0  0
 16 20  1  6  0  0  0
 16  9  1  0  0  0  0
 17  5  2  0  0  0  0
 17 31  1  0  0  0  0
 18  3  1  0  0  0  0
 18 13  2  0  0  0  0
 20  6  1  0  0  0  0
 21 28  2  0  0  0  0
 22 30  1  0  0  0  0
 23 21  1  0  0  0  0
 24 27  1  0  0  0  0
 25 15  1  0  0  0  0
 26 30  1  0  0  0  0
 26 21  1  0  0  0  0
 27 25  2  0  0  0  0
 28 25  1  0  0  0  0
 28 29  1  0  0  0  0
 30 24  2  0  0  0  0
 31 32  1  0  0  0  0
M  END
>  <MODEL>
9

>  <REMARK>
 VINA RESULT:      -9.6      3.709      7.103
  Name = 
  2 active torsions:
  status: ('A' for Active; 'I' for Inactive)
    1  A    between atoms: C_13  and  C_29
    2  A    between atoms: C_16  and  N_27
                            x       y       z     vdW  Elec       q    Type
                         _______ _______ _______ _____ _____    ______ ____

>  <TORSDO>
F 2

$$$$
