=
 OpenBabel10262422113D

 43 48  0  0  1  0  0  0  0  0999 V2000
  191.3100  176.1730  145.6320 C   0  0  0  0  0  0  0  0  0  0  0  0
  187.2150  178.2080  143.3130 C   0  0  2  0  0  3  0  0  0  0  0  0
  187.5480  177.9360  140.4620 C   0  0  1  0  0  3  0  0  0  0  0  0
  189.2090  177.2150  145.1720 C   0  0  0  0  0  0  0  0  0  0  0  0
  191.7490  176.2270  144.1980 C   0  0  0  0  0  2  0  0  0  0  0  0
  192.0580  175.6440  146.4950 O   0  0  0  0  0  0  0  0  0  0  0  0
  189.4520  177.0680  143.7080 C   0  0  0  0  0  0  0  0  0  0  0  0
  190.0780  176.7820  146.0360 N   0  0  0  0  0  0  0  0  0  0  0  0
  190.6020  176.5330  143.2780 C   0  0  0  0  0  3  0  0  0  0  0  0
  188.7600  177.7960  141.3790 C   0  0  0  0  0  2  0  0  0  0  0  0
  188.3040  177.2750  142.7430 C   0  0  2  0  0  3  0  0  0  0  0  0
  186.8030  177.6880  144.6940 C   0  0  0  0  0  2  0  0  0  0  0  0
  186.0660  178.2660  142.3920 N   0  0  0  0  0  0  0  0  0  0  0  0
  186.5150  178.8420  141.1230 C   0  0  0  0  0  2  0  0  0  0  0  0
  187.9590  177.8750  145.6730 C   0  0  0  0  0  2  0  0  0  0  0  0
  187.9390  178.4740  139.1190 C   0  0  0  0  0  0  0  0  0  0  0  0
  187.0790  178.3060  137.9870 N   0  0  0  0  0  2  0  0  0  0  0  0
  189.0270  179.0980  138.9800 O   0  0  0  0  0  0  0  0  0  0  0  0
  185.7480  177.7260  138.0910 C   0  0  0  0  0  2  0  0  0  0  0  0
  185.5170  176.7630  136.9420 C   0  0  0  0  0  2  0  0  0  0  0  0
  186.4270  175.5620  137.0940 C   0  0  0  0  0  2  0  0  0  0  0  0
  187.0630  175.2150  135.7550 C   0  0  2  0  0  3  0  0  0  0  0  0
  188.9820  173.7350  135.7450 C   0  0  0  0  0  2  0  0  0  0  0  0
  189.3780  176.2330  135.9680 C   0  0  0  0  0  0  0  0  0  0  0  0
  186.5920  173.8440  135.3100 C   0  0  0  0  0  2  0  0  0  0  0  0
  188.5040  175.0940  135.9110 N   0  0  0  0  0  0  0  0  0  0  0  0
  189.0150  177.3170  135.4310 O   0  0  0  0  0  0  0  0  0  0  0  0
  187.7430  172.8780  135.5660 C   0  0  0  0  0  2  0  0  0  0  0  0
  190.6800  176.1790  136.6700 C   0  0  0  0  0  0  0  0  0  0  0  0
  193.1030  175.9690  136.5840 C   0  0  0  0  0  3  0  0  0  0  0  0
  192.0030  176.3720  138.7030 C   0  0  0  0  0  3  0  0  0  0  0  0
  193.1740  176.1630  137.9680 C   0  0  0  0  0  3  0  0  0  0  0  0
  190.7620  176.3830  138.0560 C   0  0  0  0  0  3  0  0  0  0  0  0
  191.8640  175.9810  135.9390 C   0  0  0  0  0  3  0  0  0  0  0  0
  185.0790  179.2040  142.9230 C   0  0  0  0  0  2  0  0  0  0  0  0
  181.6260  178.3530  141.4070 C   0  0  0  0  0  2  0  0  0  0  0  0
  180.7380  178.8150  142.5680 C   0  0  1  0  0  3  0  0  0  0  0  0
  182.8000  179.1250  143.9960 C   0  0  0  0  0  2  0  0  0  0  0  0
  183.0210  178.9690  141.4930 C   0  0  0  0  0  2  0  0  0  0  0  0
  183.6660  178.6280  142.8370 C   0  0  1  0  0  3  0  0  0  0  0  0
  181.4020  178.5140  143.9150 C   0  0  0  0  0  2  0  0  0  0  0  0
  179.6720  180.4140  141.2250 C   0  0  0  0  0  1  0  0  0  0  0  0
  180.4340  180.2360  142.4530 N   0  0  0  0  0  2  0  0  0  0  0  0
  1  8  1  0  0  0  0
  1  6  2  0  0  0  0
  2 12  1  1  0  0  0
  3 16  1  6  0  0  0
  3 14  1  0  0  0  0
  3 10  1  0  0  0  0
  4 15  1  0  0  0  0
  4  8  2  0  0  0  0
  5  1  1  0  0  0  0
  7  4  1  0  0  0  0
  9  7  2  0  0  0  0
  9  5  1  0  0  0  0
 11 10  1  6  0  0  0
 11  2  1  0  0  0  0
 11  7  1  0  0  0  0
 12 15  1  0  0  0  0
 13 35  1  0  0  0  0
 13  2  1  0  0  0  0
 14 13  1  0  0  0  0
 17 19  1  0  0  0  0
 17 16  1  0  0  0  0
 18 16  2  0  0  0  0
 20 21  1  0  0  0  0
 20 19  1  0  0  0  0
 22 26  1  0  0  0  0
 22 21  1  1  0  0  0
 23 26  1  0  0  0  0
 24 29  1  0  0  0  0
 25 28  1  0  0  0  0
 25 22  1  0  0  0  0
 26 24  1  0  0  0  0
 27 24  2  0  0  0  0
 28 23  1  0  0  0  0
 29 33  1  0  0  0  0
 30 32  2  0  0  0  0
 32 31  1  0  0  0  0
 33 31  2  0  0  0  0
 34 30  1  0  0  0  0
 34 29  2  0  0  0  0
 36 39  1  0  0  0  0
 36 37  1  0  0  0  0
 37 43  1  6  0  0  0
 37 41  1  0  0  0  0
 39 40  1  0  0  0  0
 40 35  1  6  0  0  0
 40 38  1  0  0  0  0
 41 38  1  0  0  0  0
 42 43  1  0  0  0  0
M  END
>  <MODEL>
1

>  <REMARK>
 VINA RESULT:      -8.9      0.000      0.000
  Name = 
  9 active torsions:
  status: ('A' for Active; 'I' for Inactive)
    1  A    between atoms: C_1  and  N_34
    2  A    between atoms: C_1  and  C_35
    3  A    between atoms: C_2  and  C_13
    4  A    between atoms: C_3  and  C_4
    5  A    between atoms: C_3  and  C_12
    6  A    between atoms: N_6  and  C_17
    7  A    between atoms: C_11  and  C_14
    8  A    between atoms: C_12  and  C_17
    9  A    between atoms: C_19  and  N_37
                            x       y       z     vdW  Elec       q    Type
                         _______ _______ _______ _____ _____    ______ ____

>  <TORSDO>
F 9

$$$$
=
 OpenBabel10262422113D

 43 48  0  0  1  0  0  0  0  0999 V2000
  188.3120  178.3760  139.6320 C   0  0  0  0  0  0  0  0  0  0  0  0
  183.1970  178.6290  139.8530 C   0  0  2  0  0  3  0  0  0  0  0  0
  182.4220  179.1390  142.5830 C   0  0  1  0  0  3  0  0  0  0  0  0
  185.9860  178.4040  139.0880 C   0  0  0  0  0  0  0  0  0  0  0  0
  188.0550  178.3460  141.1100 C   0  0  0  0  0  2  0  0  0  0  0  0
  189.4960  178.4080  139.2050 O   0  0  0  0  0  0  0  0  0  0  0  0
  185.6490  178.6410  140.5200 C   0  0  0  0  0  0  0  0  0  0  0  0
  187.2230  178.2980  138.7060 N   0  0  0  0  0  0  0  0  0  0  0  0
  186.6300  178.6930  141.4310 C   0  0  0  0  0  3  0  0  0  0  0  0
  183.8250  178.6180  142.2830 C   0  0  0  0  0  2  0  0  0  0  0  0
  184.2480  179.0810  140.8880 C   0  0  2  0  0  3  0  0  0  0  0  0
  183.6620  179.0710  138.4610 C   0  0  0  0  0  2  0  0  0  0  0  0
  181.8790  179.1970  140.1890 N   0  0  0  0  0  0  0  0  0  0  0  0
  181.4640  178.6730  141.4920 C   0  0  0  0  0  2  0  0  0  0  0  0
  184.8990  178.2730  138.0620 C   0  0  0  0  0  2  0  0  0  0  0  0
  181.9480  178.6840  143.9300 C   0  0  0  0  0  0  0  0  0  0  0  0
  182.8520  178.6230  145.0390 N   0  0  0  0  0  2  0  0  0  0  0  0
  180.7400  178.3660  144.1010 O   0  0  0  0  0  0  0  0  0  0  0  0
  184.2230  179.1050  144.9630 C   0  0  0  0  0  2  0  0  0  0  0  0
  184.8880  178.9770  146.3200 C   0  0  0  0  0  2  0  0  0  0  0  0
  186.3930  178.9580  146.1500 C   0  0  0  0  0  2  0  0  0  0  0  0
  186.9580  177.6330  146.6420 C   0  0  2  0  0  3  0  0  0  0  0  0
  189.3430  177.4830  147.0440 C   0  0  0  0  0  2  0  0  0  0  0  0
  188.4660  176.9350  144.7250 C   0  0  0  0  0  0  0  0  0  0  0  0
  187.1840  177.7040  148.1410 C   0  0  0  0  0  2  0  0  0  0  0  0
  188.2750  177.4150  146.0650 N   0  0  0  0  0  0  0  0  0  0  0  0
  187.5530  176.2560  144.1770 O   0  0  0  0  0  0  0  0  0  0  0  0
  188.6840  177.8770  148.3520 C   0  0  0  0  0  2  0  0  0  0  0  0
  189.6940  177.2430  143.9560 C   0  0  0  0  0  0  0  0  0  0  0  0
  191.3510  176.5920  142.2970 C   0  0  0  0  0  3  0  0  0  0  0  0
  191.4500  178.7940  143.3000 C   0  0  0  0  0  3  0  0  0  0  0  0
  191.9690  177.8400  142.4180 C   0  0  0  0  0  3  0  0  0  0  0  0
  190.3150  178.4970  144.0630 C   0  0  0  0  0  3  0  0  0  0  0  0
  190.2160  176.2970  143.0590 C   0  0  0  0  0  3  0  0  0  0  0  0
  180.8910  178.7020  139.2330 C   0  0  0  0  0  2  0  0  0  0  0  0
  179.0730  180.9230  136.6430 C   0  0  0  0  0  2  0  0  0  0  0  0
  179.5410  182.2970  137.1410 C   0  0  1  0  0  3  0  0  0  0  0  0
  180.5310  181.1970  139.1890 C   0  0  0  0  0  2  0  0  0  0  0  0
  179.9740  179.8060  137.1660 C   0  0  0  0  0  2  0  0  0  0  0  0
  180.0250  179.8400  138.6940 C   0  0  1  0  0  3  0  0  0  0  0  0
  179.6350  182.3200  138.6690 C   0  0  0  0  0  2  0  0  0  0  0  0
  181.0920  184.0390  136.9040 C   0  0  0  0  0  1  0  0  0  0  0  0
  180.8210  182.6540  136.5430 N   0  0  0  0  0  2  0  0  0  0  0  0
  1  5  1  0  0  0  0
  2 12  1  6  0  0  0
  2 13  1  0  0  0  0
  2 11  1  0  0  0  0
  3 16  1  1  0  0  0
  4  7  1  0  0  0  0
  5  9  1  0  0  0  0
  6  1  2  0  0  0  0
  7 11  1  0  0  0  0
  7  9  2  0  0  0  0
  8  4  2  0  0  0  0
  8  1  1  0  0  0  0
 10  3  1  0  0  0  0
 11 10  1  1  0  0  0
 13 14  1  0  0  0  0
 14  3  1  0  0  0  0
 15 12  1  0  0  0  0
 15  4  1  0  0  0  0
 16 18  2  0  0  0  0
 16 17  1  0  0  0  0
 19 17  1  0  0  0  0
 19 20  1  0  0  0  0
 21 20  1  0  0  0  0
 22 21  1  6  0  0  0
 22 25  1  0  0  0  0
 23 28  1  0  0  0  0
 24 26  1  0  0  0  0
 25 28  1  0  0  0  0
 26 22  1  0  0  0  0
 26 23  1  0  0  0  0
 27 24  2  0  0  0  0
 29 33  1  0  0  0  0
 29 24  1  0  0  0  0
 30 32  2  0  0  0  0
 30 34  1  0  0  0  0
 31 33  2  0  0  0  0
 32 31  1  0  0  0  0
 34 29  2  0  0  0  0
 35 13  1  0  0  0  0
 36 37  1  0  0  0  0
 36 39  1  0  0  0  0
 37 43  1  6  0  0  0
 37 41  1  0  0  0  0
 39 40  1  0  0  0  0
 40 38  1  0  0  0  0
 40 35  1  6  0  0  0
 41 38  1  0  0  0  0
 43 42  1  0  0  0  0
M  END
>  <MODEL>
2

>  <REMARK>
 VINA RESULT:      -8.8      3.158      7.637
  Name = 
  9 active torsions:
  status: ('A' for Active; 'I' for Inactive)
    1  A    between atoms: C_1  and  N_34
    2  A    between atoms: C_1  and  C_35
    3  A    between atoms: C_2  and  C_13
    4  A    between atoms: C_3  and  C_4
    5  A    between atoms: C_3  and  C_12
    6  A    between atoms: N_6  and  C_17
    7  A    between atoms: C_11  and  C_14
    8  A    between atoms: C_12  and  C_17
    9  A    between atoms: C_19  and  N_37
                            x       y       z     vdW  Elec       q    Type
                         _______ _______ _______ _____ _____    ______ ____

>  <TORSDO>
F 9

$$$$
=
 OpenBabel10262422113D

 43 48  0  0  1  0  0  0  0  0999 V2000
  191.5820  176.6080  147.3410 C   0  0  0  0  0  0  0  0  0  0  0  0
  189.5620  177.0890  142.6530 C   0  0  2  0  0  3  0  0  0  0  0  0
  186.9990  178.3890  142.8900 C   0  0  1  0  0  3  0  0  0  0  0  0
  191.2100  176.5570  144.9810 C   0  0  0  0  0  0  0  0  0  0  0  0
  190.1700  177.0130  147.6420 C   0  0  0  0  0  2  0  0  0  0  0  0
  192.4080  176.4740  148.2810 O   0  0  0  0  0  0  0  0  0  0  0  0
  189.8830  177.2080  145.1710 C   0  0  0  0  0  0  0  0  0  0  0  0
  191.9780  176.3030  145.9980 N   0  0  0  0  0  0  0  0  0  0  0  0
  189.4540  177.4860  146.4100 C   0  0  0  0  0  3  0  0  0  0  0  0
  187.6390  177.7560  144.1220 C   0  0  0  0  0  2  0  0  0  0  0  0
  189.1610  177.7840  143.9720 C   0  0  2  0  0  3  0  0  0  0  0  0
  191.0900  177.0950  142.5440 C   0  0  0  0  0  2  0  0  0  0  0  0
  188.9350  177.7750  141.5100 N   0  0  0  0  0  0  0  0  0  0  0  0
  187.4800  177.6620  141.6390 C   0  0  0  0  0  2  0  0  0  0  0  0
  191.6790  176.1740  143.6090 C   0  0  0  0  0  2  0  0  0  0  0  0
  185.5030  178.3580  142.9750 C   0  0  0  0  0  0  0  0  0  0  0  0
  184.7010  178.7840  141.8690 N   0  0  0  0  0  2  0  0  0  0  0  0
  184.9380  177.9370  144.0210 O   0  0  0  0  0  0  0  0  0  0  0  0
  185.2690  179.1490  140.5800 C   0  0  0  0  0  2  0  0  0  0  0  0
  184.3670  178.6590  139.4640 C   0  0  0  0  0  2  0  0  0  0  0  0
  183.4700  179.7880  139.0020 C   0  0  0  0  0  2  0  0  0  0  0  0
  182.0700  179.2610  138.7180 C   0  0  2  0  0  3  0  0  0  0  0  0
  181.1740  179.5320  136.4830 C   0  0  0  0  0  2  0  0  0  0  0  0
  180.7850  181.3820  138.1790 C   0  0  0  0  0  0  0  0  0  0  0  0
  182.1660  177.9220  138.0120 C   0  0  0  0  0  2  0  0  0  0  0  0
  181.3930  180.1430  137.7800 N   0  0  0  0  0  0  0  0  0  0  0  0
  180.4070  181.5270  139.3740 O   0  0  0  0  0  0  0  0  0  0  0  0
  181.8510  178.1760  136.5420 C   0  0  0  0  0  2  0  0  0  0  0  0
  180.6200  182.5070  137.2300 C   0  0  0  0  0  0  0  0  0  0  0  0
  179.4470  183.5110  135.3490 C   0  0  0  0  0  3  0  0  0  0  0  0
  181.1950  184.7480  136.4780 C   0  0  0  0  0  3  0  0  0  0  0  0
  180.2250  184.6660  135.4740 C   0  0  0  0  0  3  0  0  0  0  0  0
  181.3890  183.6740  137.3540 C   0  0  0  0  0  3  0  0  0  0  0  0
  179.6400  182.4390  136.2250 C   0  0  0  0  0  3  0  0  0  0  0  0
  189.2770  177.0600  140.2820 C   0  0  0  0  0  2  0  0  0  0  0  0
  187.2410  177.1690  136.9980 C   0  0  0  0  0  2  0  0  0  0  0  0
  188.1410  178.1140  136.1930 C   0  0  1  0  0  3  0  0  0  0  0  0
  189.4880  178.5770  138.2800 C   0  0  0  0  0  2  0  0  0  0  0  0
  187.9910  176.5550  138.1780 C   0  0  0  0  0  2  0  0  0  0  0  0
  188.5570  177.6580  139.0740 C   0  0  1  0  0  3  0  0  0  0  0  0
  188.7440  179.1930  137.0970 C   0  0  0  0  0  2  0  0  0  0  0  0
  188.5470  176.3090  134.7520 C   0  0  0  0  0  1  0  0  0  0  0  0
  189.1930  177.3700  135.5120 N   0  0  0  0  0  2  0  0  0  0  0  0
  1  5  1  0  0  0  0
  1  6  2  0  0  0  0
  2 12  1  6  0  0  0
  2 11  1  0  0  0  0
  3 16  1  1  0  0  0
  3 10  1  0  0  0  0
  4  7  1  0  0  0  0
  4  8  2  0  0  0  0
  7  9  2  0  0  0  0
  8  1  1  0  0  0  0
  9  5  1  0  0  0  0
 11 10  1  1  0  0  0
 11  7  1  0  0  0  0
 12 15  1  0  0  0  0
 13 14  1  0  0  0  0
 13  2  1  0  0  0  0
 14  3  1  0  0  0  0
 15  4  1  0  0  0  0
 16 18  2  0  0  0  0
 17 16  1  0  0  0  0
 19 17  1  0  0  0  0
 20 19  1  0  0  0  0
 21 20  1  0  0  0  0
 22 21  1  6  0  0  0
 23 28  1  0  0  0  0
 23 26  1  0  0  0  0
 24 27  2  0  0  0  0
 25 22  1  0  0  0  0
 26 24  1  0  0  0  0
 26 22  1  0  0  0  0
 28 25  1  0  0  0  0
 29 33  1  0  0  0  0
 29 24  1  0  0  0  0
 30 32  2  0  0  0  0
 30 34  1  0  0  0  0
 31 33  2  0  0  0  0
 32 31  1  0  0  0  0
 34 29  2  0  0  0  0
 35 13  1  0  0  0  0
 36 39  1  0  0  0  0
 37 43  1  1  0  0  0
 37 36  1  0  0  0  0
 37 41  1  0  0  0  0
 38 40  1  0  0  0  0
 39 40  1  0  0  0  0
 40 35  1  1  0  0  0
 41 38  1  0  0  0  0
 42 43  1  0  0  0  0
M  END
>  <MODEL>
3

>  <REMARK>
 VINA RESULT:      -8.8      3.484      7.880
  Name = 
  9 active torsions:
  status: ('A' for Active; 'I' for Inactive)
    1  A    between atoms: C_1  and  N_34
    2  A    between atoms: C_1  and  C_35
    3  A    between atoms: C_2  and  C_13
    4  A    between atoms: C_3  and  C_4
    5  A    between atoms: C_3  and  C_12
    6  A    between atoms: N_6  and  C_17
    7  A    between atoms: C_11  and  C_14
    8  A    between atoms: C_12  and  C_17
    9  A    between atoms: C_19  and  N_37
                            x       y       z     vdW  Elec       q    Type
                         _______ _______ _______ _____ _____    ______ ____

>  <TORSDO>
F 9

$$$$
=
 OpenBabel10262422113D

 43 48  0  0  1  0  0  0  0  0999 V2000
  191.3570  176.7250  147.1180 C   0  0  0  0  0  0  0  0  0  0  0  0
  189.5560  177.2440  142.3460 C   0  0  2  0  0  3  0  0  0  0  0  0
  186.9350  178.4400  142.4830 C   0  0  1  0  0  3  0  0  0  0  0  0
  191.1050  176.7190  144.7420 C   0  0  0  0  0  0  0  0  0  0  0  0
  189.9160  177.0680  147.3570 C   0  0  0  0  0  2  0  0  0  0  0  0
  192.1400  176.6000  148.0960 O   0  0  0  0  0  0  0  0  0  0  0  0
  189.7450  177.3130  144.8800 C   0  0  0  0  0  0  0  0  0  0  0  0
  191.8300  176.4690  145.7910 N   0  0  0  0  0  0  0  0  0  0  0  0
  189.2440  177.5440  146.1010 C   0  0  0  0  0  3  0  0  0  0  0  0
  187.5370  177.8010  143.7310 C   0  0  0  0  0  2  0  0  0  0  0  0
  189.0620  177.8910  143.6590 C   0  0  2  0  0  3  0  0  0  0  0  0
  191.0860  177.3120  142.3160 C   0  0  0  0  0  2  0  0  0  0  0  0
  188.9590  177.9340  141.1890 N   0  0  0  0  0  0  0  0  0  0  0  0
  187.5060  177.7630  141.2410 C   0  0  0  0  0  2  0  0  0  0  0  0
  191.6570  176.3880  143.3870 C   0  0  0  0  0  2  0  0  0  0  0  0
  185.4390  178.3490  142.4910 C   0  0  0  0  0  0  0  0  0  0  0  0
  184.6810  178.6950  141.3270 N   0  0  0  0  0  2  0  0  0  0  0  0
  184.8350  177.9480  143.5230 O   0  0  0  0  0  0  0  0  0  0  0  0
  185.3030  179.0290  140.0540 C   0  0  0  0  0  2  0  0  0  0  0  0
  184.2340  179.3720  139.0350 C   0  0  0  0  0  2  0  0  0  0  0  0
  184.0500  178.2110  138.0800 C   0  0  0  0  0  2  0  0  0  0  0  0
  182.5700  177.8920  137.9230 C   0  0  2  0  0  3  0  0  0  0  0  0
  181.6930  175.9380  139.0570 C   0  0  0  0  0  2  0  0  0  0  0  0
  182.6150  175.6660  136.7060 C   0  0  0  0  0  0  0  0  0  0  0  0
  181.8170  178.3650  139.1530 C   0  0  0  0  0  2  0  0  0  0  0  0
  182.3790  176.4500  137.8860 N   0  0  0  0  0  0  0  0  0  0  0  0
  182.5400  176.2170  135.5730 O   0  0  0  0  0  0  0  0  0  0  0  0
  181.5080  177.1240  139.9830 C   0  0  0  0  0  2  0  0  0  0  0  0
  182.9790  174.2320  136.7870 C   0  0  0  0  0  0  0  0  0  0  0  0
  184.6130  172.5090  137.3200 C   0  0  0  0  0  3  0  0  0  0  0  0
  182.3760  171.8800  136.6390 C   0  0  0  0  0  3  0  0  0  0  0  0
  183.6670  171.5180  137.0390 C   0  0  0  0  0  3  0  0  0  0  0  0
  182.0340  173.2310  136.5170 C   0  0  0  0  0  3  0  0  0  0  0  0
  184.2690  173.8590  137.2000 C   0  0  0  0  0  3  0  0  0  0  0  0
  189.3900  177.2630  139.9640 C   0  0  0  0  0  2  0  0  0  0  0  0
  187.2060  176.5500  136.8540 C   0  0  0  0  0  2  0  0  0  0  0  0
  187.6620  177.7190  135.9720 C   0  0  1  0  0  3  0  0  0  0  0  0
  188.9150  178.6900  137.9410 C   0  0  0  0  0  2  0  0  0  0  0  0
  188.2080  176.2750  137.9750 C   0  0  0  0  0  2  0  0  0  0  0  0
  188.4210  177.5350  138.8140 C   0  0  1  0  0  3  0  0  0  0  0  0
  187.9190  178.9710  136.8170 C   0  0  0  0  0  2  0  0  0  0  0  0
  188.5970  176.0660  134.5970 C   0  0  0  0  0  1  0  0  0  0  0  0
  188.8540  177.3600  135.2140 N   0  0  0  0  0  2  0  0  0  0  0  0
  1  5  1  0  0  0  0
  1  6  2  0  0  0  0
  2 12  1  6  0  0  0
  2 11  1  0  0  0  0
  3 16  1  1  0  0  0
  3 10  1  0  0  0  0
  4  7  1  0  0  0  0
  4  8  2  0  0  0  0
  7  9  2  0  0  0  0
  8  1  1  0  0  0  0
  9  5  1  0  0  0  0
 11 10  1  1  0  0  0
 11  7  1  0  0  0  0
 12 15  1  0  0  0  0
 13 14  1  0  0  0  0
 13  2  1  0  0  0  0
 14  3  1  0  0  0  0
 15  4  1  0  0  0  0
 16 18  2  0  0  0  0
 17 16  1  0  0  0  0
 19 17  1  0  0  0  0
 20 19  1  0  0  0  0
 21 20  1  0  0  0  0
 22 21  1  1  0  0  0
 22 25  1  0  0  0  0
 23 28  1  0  0  0  0
 24 29  1  0  0  0  0
 24 26  1  0  0  0  0
 25 28  1  0  0  0  0
 26 22  1  0  0  0  0
 26 23  1  0  0  0  0
 27 24  2  0  0  0  0
 29 34  1  0  0  0  0
 31 32  2  0  0  0  0
 32 30  1  0  0  0  0
 33 31  1  0  0  0  0
 33 29  2  0  0  0  0
 34 30  2  0  0  0  0
 35 13  1  0  0  0  0
 36 39  1  0  0  0  0
 37 43  1  1  0  0  0
 37 41  1  0  0  0  0
 37 36  1  0  0  0  0
 38 40  1  0  0  0  0
 39 40  1  0  0  0  0
 40 35  1  1  0  0  0
 41 38  1  0  0  0  0
 42 43  1  0  0  0  0
M  END
>  <MODEL>
4

>  <REMARK>
 VINA RESULT:      -8.7      2.784      6.523
  Name = 
  9 active torsions:
  status: ('A' for Active; 'I' for Inactive)
    1  A    between atoms: C_1  and  N_34
    2  A    between atoms: C_1  and  C_35
    3  A    between atoms: C_2  and  C_13
    4  A    between atoms: C_3  and  C_4
    5  A    between atoms: C_3  and  C_12
    6  A    between atoms: N_6  and  C_17
    7  A    between atoms: C_11  and  C_14
    8  A    between atoms: C_12  and  C_17
    9  A    between atoms: C_19  and  N_37
                            x       y       z     vdW  Elec       q    Type
                         _______ _______ _______ _____ _____    ______ ____

>  <TORSDO>
F 9

$$$$
=
 OpenBabel10262422113D

 43 48  0  0  1  0  0  0  0  0999 V2000
  191.2090  176.4510  146.8860 C   0  0  0  0  0  0  0  0  0  0  0  0
  187.0290  178.1160  144.4280 C   0  0  2  0  0  3  0  0  0  0  0  0
  187.4110  177.7130  141.5980 C   0  0  1  0  0  3  0  0  0  0  0  0
  189.0570  177.3410  146.3540 C   0  0  0  0  0  0  0  0  0  0  0  0
  191.6610  176.4550  145.4560 C   0  0  0  0  0  2  0  0  0  0  0  0
  191.9760  176.0130  147.7830 O   0  0  0  0  0  0  0  0  0  0  0  0
  189.3240  177.1320  144.9020 C   0  0  0  0  0  0  0  0  0  0  0  0
  189.9390  177.0060  147.2470 N   0  0  0  0  0  0  0  0  0  0  0  0
  190.5090  176.6430  144.5110 C   0  0  0  0  0  3  0  0  0  0  0  0
  188.6180  177.6940  142.5310 C   0  0  0  0  0  2  0  0  0  0  0  0
  188.1780  177.2200  143.9180 C   0  0  2  0  0  3  0  0  0  0  0  0
  186.6330  177.6460  145.8310 C   0  0  0  0  0  2  0  0  0  0  0  0
  185.8900  178.0570  143.4950 N   0  0  0  0  0  0  0  0  0  0  0  0
  186.3190  178.5910  142.2010 C   0  0  0  0  0  2  0  0  0  0  0  0
  187.7640  177.9520  146.8080 C   0  0  0  0  0  2  0  0  0  0  0  0
  187.7860  178.2020  140.2320 C   0  0  0  0  0  0  0  0  0  0  0  0
  189.0870  177.9390  139.6950 N   0  0  0  0  0  2  0  0  0  0  0  0
  186.9470  178.8360  139.5350 O   0  0  0  0  0  0  0  0  0  0  0  0
  190.0610  177.0960  140.3710 C   0  0  0  0  0  2  0  0  0  0  0  0
  191.2070  176.7790  139.4300 C   0  0  0  0  0  2  0  0  0  0  0  0
  190.7540  175.7630  138.4020 C   0  0  0  0  0  2  0  0  0  0  0  0
  191.1840  176.2010  137.0080 C   0  0  2  0  0  3  0  0  0  0  0  0
  192.0820  174.5260  135.5050 C   0  0  0  0  0  2  0  0  0  0  0  0
  193.6820  175.7600  137.0420 C   0  0  0  0  0  0  0  0  0  0  0  0
  190.1010  175.8440  136.0080 C   0  0  0  0  0  2  0  0  0  0  0  0
  192.3550  175.4450  136.5940 N   0  0  0  0  0  0  0  0  0  0  0  0
  193.9450  176.9380  137.4130 O   0  0  0  0  0  0  0  0  0  0  0  0
  190.5890  174.6140  135.2520 C   0  0  0  0  0  2  0  0  0  0  0  0
  194.7440  174.7300  137.1130 C   0  0  0  0  0  0  0  0  0  0  0  0
  196.8720  173.8520  136.3240 C   0  0  0  0  0  3  0  0  0  0  0  0
  195.7330  172.7740  138.1690 C   0  0  0  0  0  3  0  0  0  0  0  0
  196.8170  172.8400  137.2880 C   0  0  0  0  0  3  0  0  0  0  0  0
  194.7030  173.7170  138.0830 C   0  0  0  0  0  3  0  0  0  0  0  0
  195.8430  174.7950  136.2400 C   0  0  0  0  0  3  0  0  0  0  0  0
  184.8440  178.9620  143.9670 C   0  0  0  0  0  2  0  0  0  0  0  0
  181.7680  178.4790  141.6760 C   0  0  0  0  0  2  0  0  0  0  0  0
  180.6690  178.8830  142.6670 C   0  0  1  0  0  3  0  0  0  0  0  0
  182.3850  178.9250  144.5220 C   0  0  0  0  0  2  0  0  0  0  0  0
  183.1350  178.9940  142.1200 C   0  0  0  0  0  2  0  0  0  0  0  0
  183.4610  178.4870  143.5250 C   0  0  1  0  0  3  0  0  0  0  0  0
  181.0140  178.4130  144.0840 C   0  0  0  0  0  2  0  0  0  0  0  0
  179.2410  180.5670  141.8790 C   0  0  0  0  0  1  0  0  0  0  0  0
  180.4570  180.3240  142.6430 N   0  0  0  0  0  2  0  0  0  0  0  0
  1  8  1  0  0  0  0
  1  6  2  0  0  0  0
  2 12  1  1  0  0  0
  3 16  1  6  0  0  0
  3 14  1  0  0  0  0
  3 10  1  0  0  0  0
  4 15  1  0  0  0  0
  4  8  2  0  0  0  0
  5  1  1  0  0  0  0
  7  4  1  0  0  0  0
  9  7  2  0  0  0  0
  9  5  1  0  0  0  0
 11 10  1  6  0  0  0
 11  2  1  0  0  0  0
 11  7  1  0  0  0  0
 12 15  1  0  0  0  0
 13 35  1  0  0  0  0
 13  2  1  0  0  0  0
 14 13  1  0  0  0  0
 17 16  1  0  0  0  0
 17 19  1  0  0  0  0
 18 16  2  0  0  0  0
 20 19  1  0  0  0  0
 21 20  1  0  0  0  0
 22 21  1  1  0  0  0
 23 26  1  0  0  0  0
 24 29  1  0  0  0  0
 24 27  2  0  0  0  0
 25 22  1  0  0  0  0
 26 22  1  0  0  0  0
 26 24  1  0  0  0  0
 28 23  1  0  0  0  0
 28 25  1  0  0  0  0
 29 33  1  0  0  0  0
 30 32  2  0  0  0  0
 32 31  1  0  0  0  0
 33 31  2  0  0  0  0
 34 30  1  0  0  0  0
 34 29  2  0  0  0  0
 36 39  1  0  0  0  0
 36 37  1  0  0  0  0
 37 43  1  1  0  0  0
 37 41  1  0  0  0  0
 39 40  1  0  0  0  0
 40 35  1  1  0  0  0
 40 38  1  0  0  0  0
 41 38  1  0  0  0  0
 42 43  1  0  0  0  0
M  END
>  <MODEL>
5

>  <REMARK>
 VINA RESULT:      -8.7      1.998      2.944
  Name = 
  9 active torsions:
  status: ('A' for Active; 'I' for Inactive)
    1  A    between atoms: C_1  and  N_34
    2  A    between atoms: C_1  and  C_35
    3  A    between atoms: C_2  and  C_13
    4  A    between atoms: C_3  and  C_4
    5  A    between atoms: C_3  and  C_12
    6  A    between atoms: N_6  and  C_17
    7  A    between atoms: C_11  and  C_14
    8  A    between atoms: C_12  and  C_17
    9  A    between atoms: C_19  and  N_37
                            x       y       z     vdW  Elec       q    Type
                         _______ _______ _______ _____ _____    ______ ____

>  <TORSDO>
F 9

$$$$
=
 OpenBabel10262422113D

 43 48  0  0  1  0  0  0  0  0999 V2000
  194.2280  175.7270  137.0960 C   0  0  0  0  0  0  0  0  0  0  0  0
  190.1110  177.5550  139.5420 C   0  0  2  0  0  3  0  0  0  0  0  0
  187.8550  177.4390  137.7500 C   0  0  1  0  0  3  0  0  0  0  0  0
  192.7380  176.6290  138.7310 C   0  0  0  0  0  0  0  0  0  0  0  0
  193.2360  175.8780  135.9810 C   0  0  0  0  0  2  0  0  0  0  0  0
  195.3550  175.2150  136.8650 O   0  0  0  0  0  0  0  0  0  0  0  0
  191.6170  176.5680  137.7500 C   0  0  0  0  0  0  0  0  0  0  0  0
  193.9280  176.2230  138.4060 N   0  0  0  0  0  0  0  0  0  0  0  0
  191.8520  176.1390  136.5020 C   0  0  0  0  0  3  0  0  0  0  0  0
  189.2700  177.3480  137.1860 C   0  0  0  0  0  2  0  0  0  0  0  0
  190.1940  176.7330  138.2390 C   0  0  2  0  0  3  0  0  0  0  0  0
  191.0720  176.9440  140.5660 C   0  0  0  0  0  2  0  0  0  0  0  0
  188.7240  177.5700  140.0420 N   0  0  0  0  0  0  0  0  0  0  0  0
  187.8770  178.2350  139.0500 C   0  0  0  0  0  2  0  0  0  0  0  0
  192.5110  177.1710  140.1110 C   0  0  0  0  0  2  0  0  0  0  0  0
  186.9150  178.0650  136.7650 C   0  0  0  0  0  0  0  0  0  0  0  0
  185.6490  177.4600  136.4790 N   0  0  0  0  0  2  0  0  0  0  0  0
  187.2260  179.1440  136.1910 O   0  0  0  0  0  0  0  0  0  0  0  0
  185.1530  176.2970  137.1980 C   0  0  0  0  0  2  0  0  0  0  0  0
  183.7280  176.5440  137.6540 C   0  0  0  0  0  2  0  0  0  0  0  0
  183.4120  178.0230  137.5580 C   0  0  0  0  0  2  0  0  0  0  0  0
  181.9430  178.2650  137.8720 C   0  0  2  0  0  3  0  0  0  0  0  0
  181.3710  180.1240  139.3180 C   0  0  0  0  0  2  0  0  0  0  0  0
  181.8450  177.8650  140.3760 C   0  0  0  0  0  0  0  0  0  0  0  0
  181.4170  179.3900  137.0000 C   0  0  0  0  0  2  0  0  0  0  0  0
  181.8040  178.7420  139.2390 N   0  0  0  0  0  0  0  0  0  0  0  0
  181.5360  176.6500  140.2290 O   0  0  0  0  0  0  0  0  0  0  0  0
  181.3190  180.6260  137.8870 C   0  0  0  0  0  2  0  0  0  0  0  0
  182.2730  178.3430  141.7110 C   0  0  0  0  0  0  0  0  0  0  0  0
  181.7070  179.0150  143.9800 C   0  0  0  0  0  3  0  0  0  0  0  0
  184.0280  178.8950  143.3030 C   0  0  0  0  0  3  0  0  0  0  0  0
  183.0650  179.1620  144.2810 C   0  0  0  0  0  3  0  0  0  0  0  0
  183.6340  178.4840  142.0250 C   0  0  0  0  0  3  0  0  0  0  0  0
  181.3130  178.6030  142.7040 C   0  0  0  0  0  3  0  0  0  0  0  0
  188.6600  178.4070  141.2390 C   0  0  0  0  0  2  0  0  0  0  0  0
  187.2070  176.5760  144.3180 C   0  0  0  0  0  2  0  0  0  0  0  0
  188.1820  177.0950  145.3830 C   0  0  1  0  0  3  0  0  0  0  0  0
  189.6030  178.1130  143.5580 C   0  0  0  0  0  2  0  0  0  0  0  0
  187.2210  177.4610  143.0730 C   0  0  0  0  0  2  0  0  0  0  0  0
  188.6380  177.5570  142.5080 C   0  0  1  0  0  3  0  0  0  0  0  0
  189.5940  177.2340  144.8070 C   0  0  0  0  0  2  0  0  0  0  0  0
  186.3860  178.1480  146.4610 C   0  0  0  0  0  1  0  0  0  0  0  0
  187.7230  178.3660  145.9270 N   0  0  0  0  0  2  0  0  0  0  0  0
  1  8  1  0  0  0  0
  2 13  1  0  0  0  0
  2 12  1  1  0  0  0
  3 16  1  6  0  0  0
  3 14  1  0  0  0  0
  4 15  1  0  0  0  0
  5  9  1  0  0  0  0
  5  1  1  0  0  0  0
  6  1  2  0  0  0  0
  7 11  1  0  0  0  0
  7  4  1  0  0  0  0
  8  4  2  0  0  0  0
  9  7  2  0  0  0  0
 10  3  1  0  0  0  0
 11 10  1  6  0  0  0
 11  2  1  0  0  0  0
 13 35  1  0  0  0  0
 14 13  1  0  0  0  0
 15 12  1  0  0  0  0
 17 16  1  0  0  0  0
 17 19  1  0  0  0  0
 18 16  2  0  0  0  0
 19 20  1  0  0  0  0
 21 20  1  0  0  0  0
 22 21  1  6  0  0  0
 22 26  1  0  0  0  0
 24 29  1  0  0  0  0
 25 22  1  0  0  0  0
 25 28  1  0  0  0  0
 26 23  1  0  0  0  0
 26 24  1  0  0  0  0
 27 24  2  0  0  0  0
 28 23  1  0  0  0  0
 29 33  2  0  0  0  0
 29 34  1  0  0  0  0
 30 32  1  0  0  0  0
 31 32  2  0  0  0  0
 33 31  1  0  0  0  0
 34 30  2  0  0  0  0
 36 37  1  0  0  0  0
 37 43  1  6  0  0  0
 38 41  1  0  0  0  0
 39 36  1  0  0  0  0
 40 35  1  6  0  0  0
 40 39  1  0  0  0  0
 40 38  1  0  0  0  0
 41 37  1  0  0  0  0
 43 42  1  0  0  0  0
M  END
>  <MODEL>
6

>  <REMARK>
 VINA RESULT:      -8.5      2.596      7.551
  Name = 
  9 active torsions:
  status: ('A' for Active; 'I' for Inactive)
    1  A    between atoms: C_1  and  N_34
    2  A    between atoms: C_1  and  C_35
    3  A    between atoms: C_2  and  C_13
    4  A    between atoms: C_3  and  C_4
    5  A    between atoms: C_3  and  C_12
    6  A    between atoms: N_6  and  C_17
    7  A    between atoms: C_11  and  C_14
    8  A    between atoms: C_12  and  C_17
    9  A    between atoms: C_19  and  N_37
                            x       y       z     vdW  Elec       q    Type
                         _______ _______ _______ _____ _____    ______ ____

>  <TORSDO>
F 9

$$$$
=
 OpenBabel10262422113D

 43 48  0  0  1  0  0  0  0  0999 V2000
  188.4370  178.2950  139.7820 C   0  0  0  0  0  0  0  0  0  0  0  0
  183.3250  178.6140  139.9940 C   0  0  2  0  0  3  0  0  0  0  0  0
  182.5500  179.0970  142.7290 C   0  0  1  0  0  3  0  0  0  0  0  0
  186.1130  178.3610  139.2320 C   0  0  0  0  0  0  0  0  0  0  0  0
  188.1760  178.2490  141.2580 C   0  0  0  0  0  2  0  0  0  0  0  0
  189.6220  178.3170  139.3570 O   0  0  0  0  0  0  0  0  0  0  0  0
  185.7750  178.5840  140.6670 C   0  0  0  0  0  0  0  0  0  0  0  0
  187.3500  178.2440  138.8520 N   0  0  0  0  0  0  0  0  0  0  0  0
  186.7540  178.6100  141.5810 C   0  0  0  0  0  3  0  0  0  0  0  0
  183.9460  178.5610  142.4250 C   0  0  0  0  0  2  0  0  0  0  0  0
  184.3800  179.0380  141.0380 C   0  0  2  0  0  3  0  0  0  0  0  0
  183.7990  179.0690  138.6100 C   0  0  0  0  0  2  0  0  0  0  0  0
  182.0140  179.1950  140.3350 N   0  0  0  0  0  0  0  0  0  0  0  0
  181.5890  178.6590  141.6300 C   0  0  0  0  0  2  0  0  0  0  0  0
  185.0270  178.2600  138.2020 C   0  0  0  0  0  2  0  0  0  0  0  0
  182.0670  178.6300  144.0690 C   0  0  0  0  0  0  0  0  0  0  0  0
  182.9700  178.5280  145.1750 N   0  0  0  0  0  2  0  0  0  0  0  0
  180.8510  178.3390  144.2360 O   0  0  0  0  0  0  0  0  0  0  0  0
  184.3530  178.9770  145.1060 C   0  0  0  0  0  2  0  0  0  0  0  0
  184.9450  179.0320  146.5000 C   0  0  0  0  0  2  0  0  0  0  0  0
  186.4570  179.0360  146.4110 C   0  0  0  0  0  2  0  0  0  0  0  0
  187.0120  177.6930  146.8680 C   0  0  2  0  0  3  0  0  0  0  0  0
  189.4020  177.4970  147.2110 C   0  0  0  0  0  2  0  0  0  0  0  0
  188.4630  177.0030  144.9040 C   0  0  0  0  0  0  0  0  0  0  0  0
  187.2730  177.7350  148.3620 C   0  0  0  0  0  2  0  0  0  0  0  0
  188.3110  177.4640  146.2560 N   0  0  0  0  0  0  0  0  0  0  0  0
  187.5270  176.3500  144.3660 O   0  0  0  0  0  0  0  0  0  0  0  0
  188.7800  177.8790  148.5410 C   0  0  0  0  0  2  0  0  0  0  0  0
  189.6780  177.3060  144.1130 C   0  0  0  0  0  0  0  0  0  0  0  0
  191.5270  178.8000  143.5960 C   0  0  0  0  0  3  0  0  0  0  0  0
  191.3760  176.6470  142.5000 C   0  0  0  0  0  3  0  0  0  0  0  0
  192.0380  177.8640  142.6910 C   0  0  0  0  0  3  0  0  0  0  0  0
  190.2030  176.3680  143.2110 C   0  0  0  0  0  3  0  0  0  0  0  0
  190.3570  178.5210  144.3070 C   0  0  0  0  0  3  0  0  0  0  0  0
  181.0220  178.7270  139.3700 C   0  0  0  0  0  2  0  0  0  0  0  0
  181.0960  174.9270  138.6610 C   0  0  0  0  0  2  0  0  0  0  0  0
  179.5920  174.6390  138.7590 C   0  0  1  0  0  3  0  0  0  0  0  0
  179.2200  176.9830  139.6280 C   0  0  0  0  0  2  0  0  0  0  0  0
  181.3650  176.4140  138.4380 C   0  0  0  0  0  2  0  0  0  0  0  0
  180.7270  177.2390  139.5570 C   0  0  1  0  0  3  0  0  0  0  0  0
  178.9430  175.4970  139.8490 C   0  0  0  0  0  2  0  0  0  0  0  0
  179.6800  174.1040  136.4780 C   0  0  0  0  0  1  0  0  0  0  0  0
  178.9390  174.8630  137.4750 N   0  0  0  0  0  2  0  0  0  0  0  0
  1  5  1  0  0  0  0
  2 12  1  6  0  0  0
  2 13  1  0  0  0  0
  2 11  1  0  0  0  0
  3 16  1  1  0  0  0
  4  7  1  0  0  0  0
  5  9  1  0  0  0  0
  6  1  2  0  0  0  0
  7 11  1  0  0  0  0
  7  9  2  0  0  0  0
  8  4  2  0  0  0  0
  8  1  1  0  0  0  0
 10  3  1  0  0  0  0
 11 10  1  1  0  0  0
 13 14  1  0  0  0  0
 14  3  1  0  0  0  0
 15 12  1  0  0  0  0
 15  4  1  0  0  0  0
 16 18  2  0  0  0  0
 16 17  1  0  0  0  0
 19 17  1  0  0  0  0
 19 20  1  0  0  0  0
 21 20  1  0  0  0  0
 22 21  1  6  0  0  0
 22 25  1  0  0  0  0
 23 28  1  0  0  0  0
 24 26  1  0  0  0  0
 25 28  1  0  0  0  0
 26 22  1  0  0  0  0
 26 23  1  0  0  0  0
 27 24  2  0  0  0  0
 29 34  1  0  0  0  0
 29 24  1  0  0  0  0
 30 34  2  0  0  0  0
 31 32  2  0  0  0  0
 31 33  1  0  0  0  0
 32 30  1  0  0  0  0
 33 29  2  0  0  0  0
 35 13  1  0  0  0  0
 36 37  1  0  0  0  0
 37 43  1  6  0  0  0
 37 41  1  0  0  0  0
 38 41  1  0  0  0  0
 39 36  1  0  0  0  0
 39 40  1  0  0  0  0
 40 35  1  6  0  0  0
 40 38  1  0  0  0  0
 42 43  1  0  0  0  0
M  END
>  <MODEL>
7

>  <REMARK>
 VINA RESULT:      -8.3      3.175      7.671
  Name = 
  9 active torsions:
  status: ('A' for Active; 'I' for Inactive)
    1  A    between atoms: C_1  and  N_34
    2  A    between atoms: C_1  and  C_35
    3  A    between atoms: C_2  and  C_13
    4  A    between atoms: C_3  and  C_4
    5  A    between atoms: C_3  and  C_12
    6  A    between atoms: N_6  and  C_17
    7  A    between atoms: C_11  and  C_14
    8  A    between atoms: C_12  and  C_17
    9  A    between atoms: C_19  and  N_37
                            x       y       z     vdW  Elec       q    Type
                         _______ _______ _______ _____ _____    ______ ____

>  <TORSDO>
F 9

$$$$
=
 OpenBabel10262422113D

 43 48  0  0  1  0  0  0  0  0999 V2000
  187.9130  177.6590  148.3460 C   0  0  0  0  0  0  0  0  0  0  0  0
  186.7490  178.4780  143.4210 C   0  0  2  0  0  3  0  0  0  0  0  0
  188.8340  177.3400  141.7860 C   0  0  1  0  0  3  0  0  0  0  0  0
  186.8340  178.3090  146.3160 C   0  0  0  0  0  0  0  0  0  0  0  0
  189.1900  177.2910  147.6510 C   0  0  0  0  0  2  0  0  0  0  0  0
  187.8110  177.5010  149.5910 O   0  0  0  0  0  0  0  0  0  0  0  0
  187.9560  177.7260  145.5270 C   0  0  0  0  0  0  0  0  0  0  0  0
  186.8350  178.2530  147.6140 N   0  0  0  0  0  0  0  0  0  0  0  0
  189.0020  177.1840  146.1650 C   0  0  0  0  0  3  0  0  0  0  0  0
  189.0980  177.6080  143.2650 C   0  0  0  0  0  2  0  0  0  0  0  0
  187.7820  177.5120  144.0390 C   0  0  2  0  0  3  0  0  0  0  0  0
  185.4540  178.3920  144.2350 C   0  0  0  0  0  2  0  0  0  0  0  0
  186.5220  178.1370  142.0050 N   0  0  0  0  0  0  0  0  0  0  0  0
  187.7790  178.3150  141.2750 C   0  0  0  0  0  2  0  0  0  0  0  0
  185.6860  178.9820  145.6230 C   0  0  0  0  0  2  0  0  0  0  0  0
  190.0920  177.4540  140.9790 C   0  0  0  0  0  0  0  0  0  0  0  0
  190.0910  177.1460  139.5800 N   0  0  0  0  0  2  0  0  0  0  0  0
  191.1610  177.8410  141.5240 O   0  0  0  0  0  0  0  0  0  0  0  0
  188.8750  176.8300  138.8460 C   0  0  0  0  0  2  0  0  0  0  0  0
  189.2060  175.9410  137.6630 C   0  0  0  0  0  2  0  0  0  0  0  0
  190.6880  175.6320  137.6580 C   0  0  0  0  0  2  0  0  0  0  0  0
  191.2840  175.9490  136.2930 C   0  0  2  0  0  3  0  0  0  0  0  0
  192.4370  174.1800  135.1050 C   0  0  0  0  0  2  0  0  0  0  0  0
  193.7700  175.6440  136.6950 C   0  0  0  0  0  0  0  0  0  0  0  0
  190.3580  175.4380  135.2050 C   0  0  0  0  0  2  0  0  0  0  0  0
  192.5270  175.2170  136.1160 N   0  0  0  0  0  0  0  0  0  0  0  0
  193.9360  176.8650  136.9690 O   0  0  0  0  0  0  0  0  0  0  0  0
  190.9890  174.1640  134.6540 C   0  0  0  0  0  2  0  0  0  0  0  0
  194.8510  174.6830  137.0110 C   0  0  0  0  0  0  0  0  0  0  0  0
  195.5730  172.6060  138.0550 C   0  0  0  0  0  3  0  0  0  0  0  0
  197.1480  173.9190  136.7670 C   0  0  0  0  0  3  0  0  0  0  0  0
  196.8630  172.7940  137.5470 C   0  0  0  0  0  3  0  0  0  0  0  0
  196.1450  174.8570  136.4980 C   0  0  0  0  0  3  0  0  0  0  0  0
  194.5720  173.5430  137.7840 C   0  0  0  0  0  3  0  0  0  0  0  0
  185.5910  179.1040  141.4280 C   0  0  0  0  0  2  0  0  0  0  0  0
  183.3920  178.4510  138.3160 C   0  0  0  0  0  2  0  0  0  0  0  0
  182.0390  178.2730  139.0170 C   0  0  1  0  0  3  0  0  0  0  0  0
  183.2180  178.2740  141.2520 C   0  0  0  0  0  2  0  0  0  0  0  0
  184.3930  179.1730  139.2160 C   0  0  0  0  0  2  0  0  0  0  0  0
  184.5620  178.4160  140.5330 C   0  0  1  0  0  3  0  0  0  0  0  0
  182.2100  177.5540  140.3580 C   0  0  0  0  0  2  0  0  0  0  0  0
  180.9150  180.0010  137.9000 C   0  0  0  0  0  1  0  0  0  0  0  0
  181.3820  179.5600  139.2060 N   0  0  0  0  0  2  0  0  0  0  0  0
  1  6  2  0  0  0  0
  2 11  1  0  0  0  0
  2 12  1  1  0  0  0
  3 16  1  6  0  0  0
  3 10  1  0  0  0  0
  4  8  2  0  0  0  0
  5  1  1  0  0  0  0
  7  9  2  0  0  0  0
  7  4  1  0  0  0  0
  8  1  1  0  0  0  0
  9  5  1  0  0  0  0
 11 10  1  6  0  0  0
 11  7  1  0  0  0  0
 12 15  1  0  0  0  0
 13  2  1  0  0  0  0
 14  3  1  0  0  0  0
 14 13  1  0  0  0  0
 15  4  1  0  0  0  0
 16 18  2  0  0  0  0
 17 16  1  0  0  0  0
 19 17  1  0  0  0  0
 20 19  1  0  0  0  0
 21 20  1  0  0  0  0
 22 21  1  1  0  0  0
 23 26  1  0  0  0  0
 24 27  2  0  0  0  0
 24 29  1  0  0  0  0
 25 22  1  0  0  0  0
 26 22  1  0  0  0  0
 26 24  1  0  0  0  0
 28 23  1  0  0  0  0
 28 25  1  0  0  0  0
 29 34  1  0  0  0  0
 31 32  2  0  0  0  0
 32 30  1  0  0  0  0
 33 31  1  0  0  0  0
 33 29  2  0  0  0  0
 34 30  2  0  0  0  0
 35 13  1  0  0  0  0
 36 37  1  0  0  0  0
 36 39  1  0  0  0  0
 37 43  1  1  0  0  0
 37 41  1  0  0  0  0
 39 40  1  0  0  0  0
 40 38  1  0  0  0  0
 40 35  1  1  0  0  0
 41 38  1  0  0  0  0
 42 43  1  0  0  0  0
M  END
>  <MODEL>
8

>  <REMARK>
 VINA RESULT:      -8.2      2.644      3.667
  Name = 
  9 active torsions:
  status: ('A' for Active; 'I' for Inactive)
    1  A    between atoms: C_1  and  N_34
    2  A    between atoms: C_1  and  C_35
    3  A    between atoms: C_2  and  C_13
    4  A    between atoms: C_3  and  C_4
    5  A    between atoms: C_3  and  C_12
    6  A    between atoms: N_6  and  C_17
    7  A    between atoms: C_11  and  C_14
    8  A    between atoms: C_12  and  C_17
    9  A    between atoms: C_19  and  N_37
                            x       y       z     vdW  Elec       q    Type
                         _______ _______ _______ _____ _____    ______ ____

>  <TORSDO>
F 9

$$$$
=
 OpenBabel10262422113D

 43 48  0  0  1  0  0  0  0  0999 V2000
  193.7840  173.8480  135.3700 C   0  0  0  0  0  0  0  0  0  0  0  0
  189.7780  176.7360  136.7440 C   0  0  2  0  0  3  0  0  0  0  0  0
  190.0060  177.3400  139.5550 C   0  0  1  0  0  3  0  0  0  0  0  0
  191.7760  175.1430  135.3710 C   0  0  0  0  0  0  0  0  0  0  0  0
  193.8780  173.8310  136.8660 C   0  0  0  0  0  2  0  0  0  0  0  0
  194.6770  173.2890  134.6810 O   0  0  0  0  0  0  0  0  0  0  0  0
  191.9360  175.3980  136.8310 C   0  0  0  0  0  0  0  0  0  0  0  0
  192.6500  174.4350  134.7210 N   0  0  0  0  0  0  0  0  0  0  0  0
  192.9640  174.8470  137.4910 C   0  0  0  0  0  3  0  0  0  0  0  0
  190.8120  176.1870  138.9640 C   0  0  0  0  0  2  0  0  0  0  0  0
  191.1030  176.4760  137.4910 C   0  0  2  0  0  3  0  0  0  0  0  0
  190.0920  176.9850  135.2660 C   0  0  0  0  0  2  0  0  0  0  0  0
  189.0740  177.8810  137.3490 N   0  0  0  0  0  0  0  0  0  0  0  0
  188.7380  177.5440  138.7340 C   0  0  0  0  0  2  0  0  0  0  0  0
  190.5940  175.6930  134.6290 C   0  0  0  0  0  2  0  0  0  0  0  0
  189.6680  177.0880  140.9930 C   0  0  0  0  0  0  0  0  0  0  0  0
  188.7130  177.9110  141.6720 N   0  0  0  0  0  2  0  0  0  0  0  0
  190.2120  176.1350  141.6140 O   0  0  0  0  0  0  0  0  0  0  0  0
  187.9370  178.9380  140.9940 C   0  0  0  0  0  2  0  0  0  0  0  0
  186.4570  178.6270  141.1130 C   0  0  0  0  0  2  0  0  0  0  0  0
  185.9000  179.2810  142.3610 C   0  0  0  0  0  2  0  0  0  0  0  0
  185.0670  178.2780  143.1490 C   0  0  2  0  0  3  0  0  0  0  0  0
  184.8000  178.6310  145.5310 C   0  0  0  0  0  2  0  0  0  0  0  0
  186.7790  177.2620  144.7220 C   0  0  0  0  0  0  0  0  0  0  0  0
  183.6790  178.8450  143.3830 C   0  0  0  0  0  2  0  0  0  0  0  0
  185.6380  178.0990  144.4740 N   0  0  0  0  0  0  0  0  0  0  0  0
  187.0330  176.3140  143.9280 O   0  0  0  0  0  0  0  0  0  0  0  0
  183.6320  179.3040  144.8350 C   0  0  0  0  0  2  0  0  0  0  0  0
  187.6850  177.5030  145.8680 C   0  0  0  0  0  0  0  0  0  0  0  0
  187.9950  178.0640  148.2160 C   0  0  0  0  0  3  0  0  0  0  0  0
  189.9120  177.4990  146.8490 C   0  0  0  0  0  3  0  0  0  0  0  0
  189.3750  177.8780  148.0830 C   0  0  0  0  0  3  0  0  0  0  0  0
  189.0690  177.3090  145.7470 C   0  0  0  0  0  3  0  0  0  0  0  0
  187.1550  177.8730  147.1160 C   0  0  0  0  0  3  0  0  0  0  0  0
  187.7940  178.0650  136.6670 C   0  0  0  0  0  2  0  0  0  0  0  0
  185.4260  175.0160  136.8600 C   0  0  0  0  0  2  0  0  0  0  0  0
  184.1220  175.7500  137.1960 C   0  0  1  0  0  3  0  0  0  0  0  0
  185.4340  177.8840  137.5320 C   0  0  0  0  0  2  0  0  0  0  0  0
  186.4640  175.9670  136.2670 C   0  0  0  0  0  2  0  0  0  0  0  0
  186.7280  177.1260  137.2290 C   0  0  1  0  0  3  0  0  0  0  0  0
  184.3900  176.9390  138.1240 C   0  0  0  0  0  2  0  0  0  0  0  0
  182.2850  175.3370  135.7990 C   0  0  0  0  0  1  0  0  0  0  0  0
  183.4500  176.1910  135.9800 N   0  0  0  0  0  2  0  0  0  0  0  0
  1  5  1  0  0  0  0
  2 12  1  6  0  0  0
  2 13  1  0  0  0  0
  2 11  1  0  0  0  0
  3 16  1  1  0  0  0
  4  7  1  0  0  0  0
  5  9  1  0  0  0  0
  6  1  2  0  0  0  0
  7 11  1  0  0  0  0
  7  9  2  0  0  0  0
  8  1  1  0  0  0  0
  8  4  2  0  0  0  0
 10  3  1  0  0  0  0
 11 10  1  1  0  0  0
 13 14  1  0  0  0  0
 14  3  1  0  0  0  0
 15 12  1  0  0  0  0
 15  4  1  0  0  0  0
 16 18  2  0  0  0  0
 16 17  1  0  0  0  0
 19 20  1  0  0  0  0
 19 17  1  0  0  0  0
 20 21  1  0  0  0  0
 22 21  1  6  0  0  0
 22 25  1  0  0  0  0
 22 26  1  0  0  0  0
 24 29  1  0  0  0  0
 25 28  1  0  0  0  0
 26 24  1  0  0  0  0
 26 23  1  0  0  0  0
 27 24  2  0  0  0  0
 28 23  1  0  0  0  0
 29 34  1  0  0  0  0
 31 32  2  0  0  0  0
 32 30  1  0  0  0  0
 33 29  2  0  0  0  0
 33 31  1  0  0  0  0
 34 30  2  0  0  0  0
 35 13  1  0  0  0  0
 36 37  1  0  0  0  0
 37 43  1  6  0  0  0
 37 41  1  0  0  0  0
 38 41  1  0  0  0  0
 39 36  1  0  0  0  0
 39 40  1  0  0  0  0
 40 35  1  6  0  0  0
 40 38  1  0  0  0  0
 42 43  1  0  0  0  0
M  END
>  <MODEL>
9

>  <REMARK>
 VINA RESULT:      -8.2      2.611      8.371
  Name = 
  9 active torsions:
  status: ('A' for Active; 'I' for Inactive)
    1  A    between atoms: C_1  and  N_34
    2  A    between atoms: C_1  and  C_35
    3  A    between atoms: C_2  and  C_13
    4  A    between atoms: C_3  and  C_4
    5  A    between atoms: C_3  and  C_12
    6  A    between atoms: N_6  and  C_17
    7  A    between atoms: C_11  and  C_14
    8  A    between atoms: C_12  and  C_17
    9  A    between atoms: C_19  and  N_37
                            x       y       z     vdW  Elec       q    Type
                         _______ _______ _______ _____ _____    ______ ____

>  <TORSDO>
F 9

$$$$
