=
 OpenBabel10262419333D

 31 36  0  0  1  0  0  0  0  0999 V2000
  187.5760  178.0460  143.5950 C   0  0  0  0  0  0  0  0  0  0  0  0
  186.3560  178.5000  144.1450 C   0  0  0  0  0  0  0  0  0  0  0  0
  184.6970  178.4500  146.0110 C   0  0  0  0  0  0  0  0  0  0  0  0
  188.7350  177.6100  144.4030 C   0  0  0  0  0  0  0  0  0  0  0  0
  190.1410  176.9830  145.9200 C   0  0  0  0  0  0  0  0  0  0  0  0
  186.1450  178.6310  145.6350 C   0  0  0  0  0  2  0  0  0  0  0  0
  188.9800  177.4340  141.5580 C   0  0  1  0  0  3  0  0  0  0  0  0
  185.5050  178.8300  141.9030 C   0  0  0  0  0  3  0  0  0  0  0  0
  184.3820  177.9350  147.2270 F   0  0  0  0  0  0  0  0  0  0  0  0
  190.2310  177.6300  142.4330 C   0  0  0  0  0  2  0  0  0  0  0  0
  187.7240  178.0140  142.1900 C   0  0  0  0  0  0  0  0  0  0  0  0
  188.8150  177.3680  145.7650 C   0  0  0  0  0  3  0  0  0  0  0  0
  183.7160  178.8130  145.1720 C   0  0  0  0  0  3  0  0  0  0  0  0
  189.9240  177.3670  143.8320 N   0  0  0  0  0  0  0  0  0  0  0  0
  190.8030  177.0080  144.7460 N   0  0  0  0  0  0  0  0  0  0  0  0
  186.6820  178.3840  141.3940 N   0  0  0  0  0  0  0  0  0  0  0  0
  185.3180  178.8940  143.2800 C   0  0  0  0  0  0  0  0  0  0  0  0
  184.0270  179.4280  143.8340 C   0  0  0  0  0  2  0  0  0  0  0  0
  190.7850  176.6510  147.2200 C   0  0  0  0  0  2  0  0  0  0  0  0
  192.0610  175.8700  146.9790 C   0  0  0  0  0  1  0  0  0  0  0  0
  189.2300  178.0110  140.1700 C   0  0  0  0  0  2  0  0  0  0  0  0
  187.8330  175.1810  135.9200 C   0  0  0  0  0  0  0  0  0  0  0  0
  187.6000  176.9420  137.6100 C   0  0  0  0  0  3  0  0  0  0  0  0
  190.6410  175.2480  138.3010 N   0  0  0  0  0  0  0  0  0  0  0  0
  190.6700  176.1410  139.2880 N   0  0  0  0  0  0  0  0  0  0  0  0
  187.2960  174.4750  134.7280 C   0  0  0  0  0  1  0  0  0  0  0  0
  189.5710  176.9250  139.2020 C   0  0  0  0  0  0  0  0  0  0  0  0
  187.1100  176.2590  136.4820 C   0  0  0  0  0  3  0  0  0  0  0  0
  189.5160  175.4690  137.5970 C   0  0  0  0  0  0  0  0  0  0  0  0
  188.8150  176.5090  138.1340 C   0  0  0  0  0  0  0  0  0  0  0  0
  189.0580  174.7710  136.4830 C   0  0  0  0  0  2  0  0  0  0  0  0
  1  2  1  0  0  0  0
  1  4  1  0  0  0  0
  2  6  1  0  0  0  0
  3  9  1  0  0  0  0
  4 12  2  0  0  0  0
  5 19  1  0  0  0  0
  6  3  1  0  0  0  0
  7 21  1  6  0  0  0
  7 11  1  0  0  0  0
  7 10  1  0  0  0  0
  8 17  1  0  0  0  0
 10 14  1  0  0  0  0
 11  1  2  0  0  0  0
 12  5  1  0  0  0  0
 13  3  2  0  0  0  0
 14  4  1  0  0  0  0
 14 15  1  0  0  0  0
 15  5  2  0  0  0  0
 16  8  2  0  0  0  0
 16 11  1  0  0  0  0
 17 18  1  0  0  0  0
 17  2  2  0  0  0  0
 18 13  1  0  0  0  0
 20 19  1  0  0  0  0
 22 28  2  0  0  0  0
 22 31  1  0  0  0  0
 23 30  2  0  0  0  0
 24 25  1  0  0  0  0
 26 22  1  0  0  0  0
 27 25  2  0  0  0  0
 27 21  1  0  0  0  0
 28 23  1  0  0  0  0
 29 30  1  0  0  0  0
 29 24  2  0  0  0  0
 30 27  1  0  0  0  0
 31 29  1  0  0  0  0
M  END
>  <MODEL>
1

>  <REMARK>
 VINA RESULT:     -10.6      0.000      0.000
  Name = 
  3 active torsions:
  status: ('A' for Active; 'I' for Inactive)
    1  A    between atoms: C_2  and  C_13
    2  A    between atoms: C_9  and  C_23
    3  A    between atoms: C_15  and  C_23
                            x       y       z     vdW  Elec       q    Type
                         _______ _______ _______ _____ _____    ______ ____

>  <TORSDO>
F 3

$$$$
=
 OpenBabel10262419333D

 31 36  0  0  1  0  0  0  0  0999 V2000
  188.9130  177.5560  143.7690 C   0  0  0  0  0  0  0  0  0  0  0  0
  189.5920  177.1510  144.9400 C   0  0  0  0  0  0  0  0  0  0  0  0
  189.8080  177.2270  147.4260 C   0  0  0  0  0  0  0  0  0  0  0  0
  187.4760  177.9010  143.7240 C   0  0  0  0  0  0  0  0  0  0  0  0
  185.4070  178.4000  144.1020 C   0  0  0  0  0  0  0  0  0  0  0  0
  188.8840  176.9810  146.2620 C   0  0  0  0  0  2  0  0  0  0  0  0
  188.9600  178.1590  141.2930 C   0  0  1  0  0  3  0  0  0  0  0  0
  191.6290  176.9430  143.6470 C   0  0  0  0  0  3  0  0  0  0  0  0
  189.3050  177.7170  148.5880 F   0  0  0  0  0  0  0  0  0  0  0  0
  187.4500  177.8670  141.2510 C   0  0  0  0  0  2  0  0  0  0  0  0
  189.6280  177.6280  142.5510 C   0  0  0  0  0  0  0  0  0  0  0  0
  186.5870  178.0930  144.7700 C   0  0  0  0  0  3  0  0  0  0  0  0
  191.1170  176.9460  147.3390 C   0  0  0  0  0  3  0  0  0  0  0  0
  186.8470  178.0990  142.5570 N   0  0  0  0  0  0  0  0  0  0  0  0
  185.5760  178.3800  142.7650 N   0  0  0  0  0  0  0  0  0  0  0  0
  190.9600  177.3410  142.5350 N   0  0  0  0  0  0  0  0  0  0  0  0
  190.9630  176.8430  144.8650 C   0  0  0  0  0  0  0  0  0  0  0  0
  191.7030  176.3610  146.0810 C   0  0  0  0  0  2  0  0  0  0  0  0
  184.0970  178.6530  144.7610 C   0  0  0  0  0  2  0  0  0  0  0  0
  183.0550  179.0090  143.7190 C   0  0  0  0  0  1  0  0  0  0  0  0
  189.6220  177.6180  140.0310 C   0  0  0  0  0  2  0  0  0  0  0  0
  186.6820  176.5980  135.7500 C   0  0  0  0  0  0  0  0  0  0  0  0
  187.8410  176.0700  137.8450 C   0  0  0  0  0  3  0  0  0  0  0  0
  188.3250  179.5330  137.2460 N   0  0  0  0  0  0  0  0  0  0  0  0
  189.0050  179.4210  138.3850 N   0  0  0  0  0  2  0  0  0  0  0  0
  185.8630  176.1480  134.5940 C   0  0  0  0  0  1  0  0  0  0  0  0
  188.9370  178.1390  138.8110 C   0  0  0  0  0  0  0  0  0  0  0  0
  187.0660  175.6660  136.7420 C   0  0  0  0  0  3  0  0  0  0  0  0
  187.8350  178.3150  136.9530 C   0  0  0  0  0  0  0  0  0  0  0  0
  188.2010  177.4120  137.9080 C   0  0  0  0  0  0  0  0  0  0  0  0
  187.0700  177.9480  135.8480 C   0  0  0  0  0  3  0  0  0  0  0  0
  1  2  1  0  0  0  0
  2  6  1  0  0  0  0
  3  9  1  0  0  0  0
  4  1  1  0  0  0  0
  4 12  2  0  0  0  0
  5 19  1  0  0  0  0
  5 12  1  0  0  0  0
  6  3  1  0  0  0  0
  7 21  1  6  0  0  0
  7 11  1  0  0  0  0
  8 17  1  0  0  0  0
 10  7  1  0  0  0  0
 10 14  1  0  0  0  0
 11  1  2  0  0  0  0
 13  3  2  0  0  0  0
 14 15  1  0  0  0  0
 14  4  1  0  0  0  0
 15  5  2  0  0  0  0
 16 11  1  0  0  0  0
 16  8  2  0  0  0  0
 17  2  2  0  0  0  0
 17 18  1  0  0  0  0
 18 13  1  0  0  0  0
 20 19  1  0  0  0  0
 22 31  2  0  0  0  0
 22 28  1  0  0  0  0
 23 30  1  0  0  0  0
 24 25  1  0  0  0  0
 25 27  1  0  0  0  0
 26 22  1  0  0  0  0
 27 21  1  0  0  0  0
 28 23  2  0  0  0  0
 29 24  2  0  0  0  0
 29 30  1  0  0  0  0
 30 27  2  0  0  0  0
 31 29  1  0  0  0  0
M  END
>  <MODEL>
2

>  <REMARK>
 VINA RESULT:     -10.6      1.819      4.580
  Name = 
  3 active torsions:
  status: ('A' for Active; 'I' for Inactive)
    1  A    between atoms: C_2  and  C_13
    2  A    between atoms: C_9  and  C_23
    3  A    between atoms: C_15  and  C_23
                            x       y       z     vdW  Elec       q    Type
                         _______ _______ _______ _____ _____    ______ ____

>  <TORSDO>
F 3

$$$$
=
 OpenBabel10262419333D

 31 36  0  0  1  0  0  0  0  0999 V2000
  187.4040  178.1200  143.4960 C   0  0  0  0  0  0  0  0  0  0  0  0
  186.2020  178.5520  144.1000 C   0  0  0  0  0  0  0  0  0  0  0  0
  184.6140  178.4520  146.0250 C   0  0  0  0  0  0  0  0  0  0  0  0
  188.5960  177.6800  144.2520 C   0  0  0  0  0  0  0  0  0  0  0  0
  190.0630  177.0390  145.7040 C   0  0  0  0  0  0  0  0  0  0  0  0
  186.0450  178.6540  145.5980 C   0  0  0  0  0  2  0  0  0  0  0  0
  188.7370  177.5600  141.3970 C   0  0  1  0  0  3  0  0  0  0  0  0
  185.2650  178.9160  141.8960 C   0  0  0  0  0  3  0  0  0  0  0  0
  184.3480  177.9120  147.2410 F   0  0  0  0  0  0  0  0  0  0  0  0
  190.0170  177.7510  142.2290 C   0  0  0  0  0  2  0  0  0  0  0  0
  187.5000  178.1150  142.0860 C   0  0  0  0  0  0  0  0  0  0  0  0
  188.7290  177.4140  145.6050 C   0  0  0  0  0  3  0  0  0  0  0  0
  183.5990  178.8220  145.2290 C   0  0  0  0  0  3  0  0  0  0  0  0
  189.7650  177.4590  143.6330 N   0  0  0  0  0  0  0  0  0  0  0  0
  190.6810  177.0910  144.5070 N   0  0  0  0  0  0  0  0  0  0  0  0
  186.4260  178.4910  141.3360 N   0  0  0  0  0  0  0  0  0  0  0  0
  185.1290  178.9530  143.2810 C   0  0  0  0  0  0  0  0  0  0  0  0
  183.8550  179.4640  143.8920 C   0  0  0  0  0  2  0  0  0  0  0  0
  190.7580  176.6890  146.9720 C   0  0  0  0  0  2  0  0  0  0  0  0
  192.0190  175.9050  146.6710 C   0  0  0  0  0  1  0  0  0  0  0  0
  188.9300  178.1640  140.0120 C   0  0  0  0  0  2  0  0  0  0  0  0
  191.9580  174.8830  137.1680 C   0  0  0  0  0  0  0  0  0  0  0  0
  191.4900  176.5840  138.8710 C   0  0  0  0  0  3  0  0  0  0  0  0
  188.3790  175.7110  137.4050 N   0  0  0  0  0  0  0  0  0  0  0  0
  187.9510  176.6210  138.2780 N   0  0  0  0  0  2  0  0  0  0  0  0
  192.9420  174.0350  136.4460 C   0  0  0  0  0  1  0  0  0  0  0  0
  189.0110  177.0910  138.9760 C   0  0  0  0  0  0  0  0  0  0  0  0
  192.4040  175.7710  138.1740 C   0  0  0  0  0  3  0  0  0  0  0  0
  189.7130  175.6150  137.5520 C   0  0  0  0  0  0  0  0  0  0  0  0
  190.1470  176.4680  138.5240 C   0  0  0  0  0  0  0  0  0  0  0  0
  190.5900  174.7990  136.8430 C   0  0  0  0  0  3  0  0  0  0  0  0
  1  2  1  0  0  0  0
  1  4  1  0  0  0  0
  2  6  1  0  0  0  0
  3  9  1  0  0  0  0
  4 12  2  0  0  0  0
  5 19  1  0  0  0  0
  6  3  1  0  0  0  0
  7 21  1  6  0  0  0
  7 11  1  0  0  0  0
  7 10  1  0  0  0  0
  8 17  1  0  0  0  0
 10 14  1  0  0  0  0
 11  1  2  0  0  0  0
 12  5  1  0  0  0  0
 13  3  2  0  0  0  0
 14  4  1  0  0  0  0
 14 15  1  0  0  0  0
 15  5  2  0  0  0  0
 16  8  2  0  0  0  0
 16 11  1  0  0  0  0
 17 18  1  0  0  0  0
 17  2  2  0  0  0  0
 18 13  1  0  0  0  0
 20 19  1  0  0  0  0
 22 28  1  0  0  0  0
 24 29  2  0  0  0  0
 24 25  1  0  0  0  0
 25 27  1  0  0  0  0
 26 22  1  0  0  0  0
 27 21  1  0  0  0  0
 28 23  2  0  0  0  0
 29 30  1  0  0  0  0
 30 23  1  0  0  0  0
 30 27  2  0  0  0  0
 31 22  2  0  0  0  0
 31 29  1  0  0  0  0
M  END
>  <MODEL>
3

>  <REMARK>
 VINA RESULT:     -10.4      1.318      1.988
  Name = 
  3 active torsions:
  status: ('A' for Active; 'I' for Inactive)
    1  A    between atoms: C_2  and  C_13
    2  A    between atoms: C_9  and  C_23
    3  A    between atoms: C_15  and  C_23
                            x       y       z     vdW  Elec       q    Type
                         _______ _______ _______ _____ _____    ______ ____

>  <TORSDO>
F 3

$$$$
=
 OpenBabel10262419333D

 31 36  0  0  1  0  0  0  0  0999 V2000
  186.4520  178.2990  144.4040 C   0  0  0  0  0  0  0  0  0  0  0  0
  187.2670  178.1310  145.5460 C   0  0  0  0  0  0  0  0  0  0  0  0
  189.2730  177.0950  146.6130 C   0  0  0  0  0  0  0  0  0  0  0  0
  186.9490  178.2110  143.0150 C   0  0  0  0  0  0  0  0  0  0  0  0
  188.0410  177.9160  141.1720 C   0  0  0  0  0  0  0  0  0  0  0  0
  188.7550  177.8930  145.4450 C   0  0  0  0  0  2  0  0  0  0  0  0
  184.1490  178.6700  143.3770 C   0  0  1  0  0  3  0  0  0  0  0  0
  185.3270  178.5080  146.9450 C   0  0  0  0  0  3  0  0  0  0  0  0
  190.3490  176.2840  146.4440 F   0  0  0  0  0  0  0  0  0  0  0  0
  184.8590  179.1750  142.1090 C   0  0  0  0  0  2  0  0  0  0  0  0
  185.0790  178.5860  144.5780 C   0  0  0  0  0  0  0  0  0  0  0  0
  188.1780  177.7740  142.5480 C   0  0  0  0  0  3  0  0  0  0  0  0
  188.7030  177.1930  147.8230 C   0  0  0  0  0  3  0  0  0  0  0  0
  186.1730  178.5610  141.9790 N   0  0  0  0  0  0  0  0  0  0  0  0
  186.8310  178.4120  140.8460 N   0  0  0  0  0  0  0  0  0  0  0  0
  184.5600  178.6590  145.8350 N   0  0  0  0  0  0  0  0  0  0  0  0
  186.6880  178.2400  146.8240 C   0  0  0  0  0  0  0  0  0  0  0  0
  187.5360  178.1160  148.0580 C   0  0  0  0  0  2  0  0  0  0  0  0
  189.1080  177.6300  140.1750 C   0  0  0  0  0  2  0  0  0  0  0  0
  189.0310  178.6260  139.0360 C   0  0  0  0  0  1  0  0  0  0  0  0
  182.9340  179.5430  143.6660 C   0  0  0  0  0  2  0  0  0  0  0  0
  179.7910  177.9380  139.7210 C   0  0  0  0  0  0  0  0  0  0  0  0
  181.7930  178.9430  140.7180 C   0  0  0  0  0  3  0  0  0  0  0  0
  179.7320  177.8720  143.4010 N   0  0  0  0  0  0  0  0  0  0  0  0
  180.7420  178.3830  144.1040 N   0  0  0  0  0  0  0  0  0  0  0  0
  179.0190  177.5620  138.5080 C   0  0  0  0  0  1  0  0  0  0  0  0
  181.6780  178.8520  143.2480 C   0  0  0  0  0  0  0  0  0  0  0  0
  181.0450  178.5780  139.5840 C   0  0  0  0  0  3  0  0  0  0  0  0
  180.0330  178.0280  142.1000 C   0  0  0  0  0  0  0  0  0  0  0  0
  181.2430  178.6430  141.9620 C   0  0  0  0  0  0  0  0  0  0  0  0
  179.2670  177.6560  140.9980 C   0  0  0  0  0  2  0  0  0  0  0  0
  1 11  2  0  0  0  0
  1  2  1  0  0  0  0
  2 17  2  0  0  0  0
  3 13  2  0  0  0  0
  4  1  1  0  0  0  0
  5 12  1  0  0  0  0
  6  2  1  0  0  0  0
  6  3  1  0  0  0  0
  7 21  1  1  0  0  0
  7 11  1  0  0  0  0
  9  3  1  0  0  0  0
 10  7  1  0  0  0  0
 11 16  1  0  0  0  0
 12  4  2  0  0  0  0
 13 18  1  0  0  0  0
 14 10  1  0  0  0  0
 14  4  1  0  0  0  0
 15  5  2  0  0  0  0
 15 14  1  0  0  0  0
 16  8  2  0  0  0  0
 17  8  1  0  0  0  0
 17 18  1  0  0  0  0
 19  5  1  0  0  0  0
 20 19  1  0  0  0  0
 22 31  1  0  0  0  0
 23 30  2  0  0  0  0
 24 25  1  0  0  0  0
 26 22  1  0  0  0  0
 27 21  1  0  0  0  0
 27 25  2  0  0  0  0
 28 22  2  0  0  0  0
 28 23  1  0  0  0  0
 29 24  2  0  0  0  0
 30 29  1  0  0  0  0
 30 27  1  0  0  0  0
 31 29  1  0  0  0  0
M  END
>  <MODEL>
4

>  <REMARK>
 VINA RESULT:     -10.4      3.553      6.999
  Name = 
  3 active torsions:
  status: ('A' for Active; 'I' for Inactive)
    1  A    between atoms: C_2  and  C_13
    2  A    between atoms: C_9  and  C_23
    3  A    between atoms: C_15  and  C_23
                            x       y       z     vdW  Elec       q    Type
                         _______ _______ _______ _____ _____    ______ ____

>  <TORSDO>
F 3

$$$$
=
 OpenBabel10262419333D

 31 36  0  0  1  0  0  0  0  0999 V2000
  188.4750  177.8160  144.0360 C   0  0  0  0  0  0  0  0  0  0  0  0
  188.8340  177.5050  145.3670 C   0  0  0  0  0  0  0  0  0  0  0  0
  188.3680  177.6990  147.8130 C   0  0  0  0  0  0  0  0  0  0  0  0
  187.0870  178.0620  143.5910 C   0  0  0  0  0  0  0  0  0  0  0  0
  184.9690  178.4380  143.3740 C   0  0  0  0  0  0  0  0  0  0  0  0
  187.8060  177.3430  146.4610 C   0  0  0  0  0  2  0  0  0  0  0  0
  189.1550  178.3170  141.6320 C   0  0  1  0  0  3  0  0  0  0  0  0
  191.1520  177.3790  144.6780 C   0  0  0  0  0  3  0  0  0  0  0  0
  187.5450  178.2020  148.7680 F   0  0  0  0  0  0  0  0  0  0  0  0
  187.7300  177.9240  141.2070 C   0  0  0  0  0  2  0  0  0  0  0  0
  189.4870  177.8840  143.0510 C   0  0  0  0  0  0  0  0  0  0  0  0
  185.9400  178.2370  144.3480 C   0  0  0  0  0  3  0  0  0  0  0  0
  189.6650  177.5020  148.0930 C   0  0  0  0  0  3  0  0  0  0  0  0
  186.7870  178.1690  142.2880 N   0  0  0  0  0  0  0  0  0  0  0  0
  185.4930  178.3730  142.1340 N   0  0  0  0  0  0  0  0  0  0  0  0
  190.7870  177.6860  143.4070 N   0  0  0  0  0  0  0  0  0  0  0  0
  190.1890  177.2860  145.6790 C   0  0  0  0  0  0  0  0  0  0  0  0
  190.5980  176.9050  147.0730 C   0  0  0  0  0  2  0  0  0  0  0  0
  183.5190  178.6300  143.6440 C   0  0  0  0  0  2  0  0  0  0  0  0
  183.3080  179.0020  145.0980 C   0  0  0  0  0  1  0  0  0  0  0  0
  190.1600  177.7680  140.6260 C   0  0  0  0  0  2  0  0  0  0  0  0
  189.5010  175.5430  135.8680 C   0  0  0  0  0  0  0  0  0  0  0  0
  190.1890  175.6320  138.2200 C   0  0  0  0  0  3  0  0  0  0  0  0
  188.7480  178.7820  137.4490 N   0  0  0  0  0  0  0  0  0  0  0  0
  189.0610  179.0010  138.7250 N   0  0  0  0  0  2  0  0  0  0  0  0
  189.4030  174.7860  134.5940 C   0  0  0  0  0  1  0  0  0  0  0  0
  189.6310  177.8860  139.2340 C   0  0  0  0  0  0  0  0  0  0  0  0
  190.0850  174.9340  137.0030 C   0  0  0  0  0  3  0  0  0  0  0  0
  189.1290  177.5250  137.1560 C   0  0  0  0  0  0  0  0  0  0  0  0
  189.6920  176.9320  138.2480 C   0  0  0  0  0  0  0  0  0  0  0  0
  189.0140  176.8630  135.9370 C   0  0  0  0  0  3  0  0  0  0  0  0
  1  2  1  0  0  0  0
  2 17  2  0  0  0  0
  2  6  1  0  0  0  0
  3 13  2  0  0  0  0
  3  9  1  0  0  0  0
  4  1  1  0  0  0  0
  4 12  2  0  0  0  0
  5 19  1  0  0  0  0
  5 12  1  0  0  0  0
  6  3  1  0  0  0  0
  7 21  1  6  0  0  0
  7 11  1  0  0  0  0
  8 17  1  0  0  0  0
 10  7  1  0  0  0  0
 10 14  1  0  0  0  0
 11 16  1  0  0  0  0
 11  1  2  0  0  0  0
 14  4  1  0  0  0  0
 15 14  1  0  0  0  0
 15  5  2  0  0  0  0
 16  8  2  0  0  0  0
 17 18  1  0  0  0  0
 18 13  1  0  0  0  0
 19 20  1  0  0  0  0
 22 31  2  0  0  0  0
 22 28  1  0  0  0  0
 23 30  1  0  0  0  0
 24 25  1  0  0  0  0
 25 27  1  0  0  0  0
 26 22  1  0  0  0  0
 27 21  1  0  0  0  0
 28 23  2  0  0  0  0
 29 24  2  0  0  0  0
 29 30  1  0  0  0  0
 30 27  2  0  0  0  0
 31 29  1  0  0  0  0
M  END
>  <MODEL>
5

>  <REMARK>
 VINA RESULT:     -10.1      1.609      4.341
  Name = 
  3 active torsions:
  status: ('A' for Active; 'I' for Inactive)
    1  A    between atoms: C_2  and  C_13
    2  A    between atoms: C_9  and  C_23
    3  A    between atoms: C_15  and  C_23
                            x       y       z     vdW  Elec       q    Type
                         _______ _______ _______ _____ _____    ______ ____

>  <TORSDO>
F 3

$$$$
=
 OpenBabel10262419333D

 31 36  0  0  1  0  0  0  0  0999 V2000
  187.5840  177.8970  144.0350 C   0  0  0  0  0  0  0  0  0  0  0  0
  187.9580  177.8610  145.3970 C   0  0  0  0  0  0  0  0  0  0  0  0
  189.5090  177.0350  147.1710 C   0  0  0  0  0  0  0  0  0  0  0  0
  188.5350  177.7500  142.9130 C   0  0  0  0  0  0  0  0  0  0  0  0
  190.2100  177.4070  141.5890 C   0  0  0  0  0  0  0  0  0  0  0  0
  189.3970  177.7170  145.8330 C   0  0  0  0  0  2  0  0  0  0  0  0
  185.7680  178.0440  142.2530 C   0  0  1  0  0  3  0  0  0  0  0  0
  185.6400  178.1990  146.0080 C   0  0  0  0  0  3  0  0  0  0  0  0
  190.6080  176.2880  147.4520 F   0  0  0  0  0  0  0  0  0  0  0  0
  186.8530  178.5090  141.2660 C   0  0  0  0  0  2  0  0  0  0  0  0
  186.2260  178.1020  143.7020 C   0  0  0  0  0  0  0  0  0  0  0  0
  189.8670  177.3660  142.9350 C   0  0  0  0  0  3  0  0  0  0  0  0
  188.5500  177.1750  148.0990 C   0  0  0  0  0  3  0  0  0  0  0  0
  188.1540  177.9770  141.6470 N   0  0  0  0  0  0  0  0  0  0  0  0
  189.1690  177.7980  140.8260 N   0  0  0  0  0  0  0  0  0  0  0  0
  185.3000  178.2240  144.6940 N   0  0  0  0  0  0  0  0  0  0  0  0
  186.9670  178.0150  146.3840 C   0  0  0  0  0  0  0  0  0  0  0  0
  187.3390  178.0310  147.8400 C   0  0  0  0  0  2  0  0  0  0  0  0
  191.5670  177.1270  141.0460 C   0  0  0  0  0  2  0  0  0  0  0  0
  191.5040  177.0050  139.5370 C   0  0  0  0  0  1  0  0  0  0  0  0
  184.4940  178.8500  142.0310 C   0  0  0  0  0  2  0  0  0  0  0  0
  182.2360  176.5920  137.8100 C   0  0  0  0  0  0  0  0  0  0  0  0
  182.8590  176.7950  140.1720 C   0  0  0  0  0  3  0  0  0  0  0  0
  184.1500  179.6560  138.5180 N   0  0  0  0  0  0  0  0  0  0  0  0
  184.5730  179.9200  139.7530 N   0  0  0  0  0  2  0  0  0  0  0  0
  181.5670  175.8260  136.7270 C   0  0  0  0  0  1  0  0  0  0  0  0
  184.1650  178.9280  140.5770 C   0  0  0  0  0  0  0  0  0  0  0  0
  182.2320  176.0870  139.1310 C   0  0  0  0  0  3  0  0  0  0  0  0
  183.4800  178.4900  138.5670 C   0  0  0  0  0  0  0  0  0  0  0  0
  183.4720  177.9990  139.8400 C   0  0  0  0  0  0  0  0  0  0  0  0
  182.8710  177.8140  137.5130 C   0  0  0  0  0  3  0  0  0  0  0  0
  1  2  1  0  0  0  0
  2  6  1  0  0  0  0
  2 17  2  0  0  0  0
  3  9  1  0  0  0  0
  3 13  2  0  0  0  0
  4 12  2  0  0  0  0
  4  1  1  0  0  0  0
  5 12  1  0  0  0  0
  6  3  1  0  0  0  0
  7 21  1  1  0  0  0
  7 11  1  0  0  0  0
  8 17  1  0  0  0  0
 10 14  1  0  0  0  0
 10  7  1  0  0  0  0
 11  1  2  0  0  0  0
 11 16  1  0  0  0  0
 14  4  1  0  0  0  0
 15  5  2  0  0  0  0
 15 14  1  0  0  0  0
 16  8  2  0  0  0  0
 17 18  1  0  0  0  0
 18 13  1  0  0  0  0
 19  5  1  0  0  0  0
 20 19  1  0  0  0  0
 22 28  1  0  0  0  0
 24 29  2  0  0  0  0
 24 25  1  0  0  0  0
 25 27  1  0  0  0  0
 26 22  1  0  0  0  0
 27 21  1  0  0  0  0
 28 23  2  0  0  0  0
 29 30  1  0  0  0  0
 30 23  1  0  0  0  0
 30 27  2  0  0  0  0
 31 22  2  0  0  0  0
 31 29  1  0  0  0  0
M  END
>  <MODEL>
6

>  <REMARK>
 VINA RESULT:     -10.0      2.976      5.120
  Name = 
  3 active torsions:
  status: ('A' for Active; 'I' for Inactive)
    1  A    between atoms: C_2  and  C_13
    2  A    between atoms: C_9  and  C_23
    3  A    between atoms: C_15  and  C_23
                            x       y       z     vdW  Elec       q    Type
                         _______ _______ _______ _____ _____    ______ ____

>  <TORSDO>
F 3

$$$$
=
 OpenBabel10262419333D

 31 36  0  0  1  0  0  0  0  0999 V2000
  188.4940  177.7470  142.6300 C   0  0  0  0  0  0  0  0  0  0  0  0
  187.2960  178.1980  143.2280 C   0  0  0  0  0  0  0  0  0  0  0  0
  185.6960  178.1200  145.1440 C   0  0  0  0  0  0  0  0  0  0  0  0
  189.6750  177.2880  143.3920 C   0  0  0  0  0  0  0  0  0  0  0  0
  191.1240  176.6210  144.8510 C   0  0  0  0  0  0  0  0  0  0  0  0
  187.1320  178.3000  144.7260 C   0  0  0  0  0  2  0  0  0  0  0  0
  189.8300  177.1690  140.5380 C   0  0  1  0  0  3  0  0  0  0  0  0
  186.3780  178.5790  141.0200 C   0  0  0  0  0  3  0  0  0  0  0  0
  185.4150  177.5820  146.3580 F   0  0  0  0  0  0  0  0  0  0  0  0
  191.1090  177.3380  141.3770 C   0  0  0  0  0  2  0  0  0  0  0  0
  188.5990  177.7430  141.2200 C   0  0  0  0  0  0  0  0  0  0  0  0
  189.7960  177.0170  144.7460 C   0  0  0  0  0  3  0  0  0  0  0  0
  184.6920  178.5070  144.3440 C   0  0  0  0  0  3  0  0  0  0  0  0
  190.8440  177.0490  142.7790 N   0  0  0  0  0  0  0  0  0  0  0  0
  191.7490  176.6650  143.6570 N   0  0  0  0  0  0  0  0  0  0  0  0
  187.5350  178.1370  140.4660 N   0  0  0  0  0  0  0  0  0  0  0  0
  186.2340  178.6160  142.4040 C   0  0  0  0  0  0  0  0  0  0  0  0
  184.9650  179.1470  143.0080 C   0  0  0  0  0  2  0  0  0  0  0  0
  191.8060  176.2580  146.1230 C   0  0  0  0  0  2  0  0  0  0  0  0
  190.9600  176.6870  147.3040 C   0  0  0  0  0  1  0  0  0  0  0  0
  190.0410  177.7720  139.1550 C   0  0  0  0  0  2  0  0  0  0  0  0
  193.3530  174.6170  136.4910 C   0  0  0  0  0  0  0  0  0  0  0  0
  192.7240  176.3050  138.1540 C   0  0  0  0  0  3  0  0  0  0  0  0
  189.7320  175.2790  136.5460 N   0  0  0  0  0  0  0  0  0  0  0  0
  189.2210  176.1740  137.3890 N   0  0  0  0  0  2  0  0  0  0  0  0
  194.4090  173.8110  135.8260 C   0  0  0  0  0  1  0  0  0  0  0  0
  190.2210  176.6980  138.1330 C   0  0  0  0  0  0  0  0  0  0  0  0
  193.7070  175.5310  137.5110 C   0  0  0  0  0  3  0  0  0  0  0  0
  191.0600  175.2460  136.7580 C   0  0  0  0  0  0  0  0  0  0  0  0
  191.4070  176.1250  137.7430 C   0  0  0  0  0  0  0  0  0  0  0  0
  192.0080  174.4670  136.1000 C   0  0  0  0  0  3  0  0  0  0  0  0
  1  2  1  0  0  0  0
  1  4  1  0  0  0  0
  2  6  1  0  0  0  0
  3  9  1  0  0  0  0
  4 12  2  0  0  0  0
  5 19  1  0  0  0  0
  6  3  1  0  0  0  0
  7 21  1  6  0  0  0
  7 11  1  0  0  0  0
  7 10  1  0  0  0  0
  8 17  1  0  0  0  0
 10 14  1  0  0  0  0
 11  1  2  0  0  0  0
 12  5  1  0  0  0  0
 13  3  2  0  0  0  0
 14  4  1  0  0  0  0
 14 15  1  0  0  0  0
 15  5  2  0  0  0  0
 16  8  2  0  0  0  0
 16 11  1  0  0  0  0
 17 18  1  0  0  0  0
 17  2  2  0  0  0  0
 18 13  1  0  0  0  0
 19 20  1  0  0  0  0
 22 28  1  0  0  0  0
 24 29  2  0  0  0  0
 24 25  1  0  0  0  0
 25 27  1  0  0  0  0
 26 22  1  0  0  0  0
 27 21  1  0  0  0  0
 28 23  2  0  0  0  0
 29 30  1  0  0  0  0
 30 27  2  0  0  0  0
 30 23  1  0  0  0  0
 31 22  2  0  0  0  0
 31 29  1  0  0  0  0
M  END
>  <MODEL>
7

>  <REMARK>
 VINA RESULT:      -9.4      2.017      2.699
  Name = 
  3 active torsions:
  status: ('A' for Active; 'I' for Inactive)
    1  A    between atoms: C_2  and  C_13
    2  A    between atoms: C_9  and  C_23
    3  A    between atoms: C_15  and  C_23
                            x       y       z     vdW  Elec       q    Type
                         _______ _______ _______ _____ _____    ______ ____

>  <TORSDO>
F 3

$$$$
=
 OpenBabel10262419333D

 31 36  0  0  1  0  0  0  0  0999 V2000
  188.1790  177.7660  142.1970 C   0  0  0  0  0  0  0  0  0  0  0  0
  186.8690  178.2950  142.2210 C   0  0  0  0  0  0  0  0  0  0  0  0
  184.6700  178.5210  143.3830 C   0  0  0  0  0  0  0  0  0  0  0  0
  188.9680  177.4590  143.4100 C   0  0  0  0  0  0  0  0  0  0  0  0
  189.7350  177.0700  145.3930 C   0  0  0  0  0  0  0  0  0  0  0  0
  186.1660  178.6480  143.5100 C   0  0  0  0  0  2  0  0  0  0  0  0
  190.1650  176.8590  140.8820 C   0  0  1  0  0  3  0  0  0  0  0  0
  186.8570  178.2820  139.7990 C   0  0  0  0  0  3  0  0  0  0  0  0
  183.9320  178.1940  144.4740 F   0  0  0  0  0  0  0  0  0  0  0  0
  191.0480  177.1860  142.0990 C   0  0  0  0  0  2  0  0  0  0  0  0
  188.7990  177.5230  140.9500 C   0  0  0  0  0  0  0  0  0  0  0  0
  188.5630  177.4240  144.7350 C   0  0  0  0  0  3  0  0  0  0  0  0
  184.0560  178.7520  142.2140 C   0  0  0  0  0  3  0  0  0  0  0  0
  190.2660  177.1360  143.3270 N   0  0  0  0  0  0  0  0  0  0  0  0
  190.7600  176.9190  144.5300 N   0  0  0  0  0  0  0  0  0  0  0  0
  188.1130  177.7680  139.7990 N   0  0  0  0  0  0  0  0  0  0  0  0
  186.2120  178.5520  141.0030 C   0  0  0  0  0  0  0  0  0  0  0  0
  184.8380  179.1600  140.9930 C   0  0  0  0  0  2  0  0  0  0  0  0
  189.8770  176.9380  146.8680 C   0  0  0  0  0  2  0  0  0  0  0  0
  188.7510  177.6760  147.5640 C   0  0  0  0  0  1  0  0  0  0  0  0
  190.9040  177.2200  139.6000 C   0  0  0  0  0  2  0  0  0  0  0  0
  193.9500  174.0620  136.6390 C   0  0  0  0  0  0  0  0  0  0  0  0
  193.4790  175.8970  138.1960 C   0  0  0  0  0  3  0  0  0  0  0  0
  190.3680  174.3710  137.4310 N   0  0  0  0  0  0  0  0  0  0  0  0
  189.9380  175.3200  138.2590 N   0  0  0  0  0  2  0  0  0  0  0  0
  194.9350  173.2780  135.8490 C   0  0  0  0  0  1  0  0  0  0  0  0
  190.9990  176.0370  138.6940 C   0  0  0  0  0  0  0  0  0  0  0  0
  194.3940  175.1400  137.4400 C   0  0  0  0  0  3  0  0  0  0  0  0
  191.7040  174.4970  137.3410 C   0  0  0  0  0  0  0  0  0  0  0  0
  192.1380  175.5340  138.1150 C   0  0  0  0  0  0  0  0  0  0  0  0
  192.5830  173.7290  136.5800 C   0  0  0  0  0  3  0  0  0  0  0  0
  1  2  1  0  0  0  0
  1  4  1  0  0  0  0
  2  6  1  0  0  0  0
  3  6  1  0  0  0  0
  3  9  1  0  0  0  0
  4 12  2  0  0  0  0
  5 19  1  0  0  0  0
  7 21  1  6  0  0  0
  7 11  1  0  0  0  0
  7 10  1  0  0  0  0
  8 17  1  0  0  0  0
 10 14  1  0  0  0  0
 11  1  2  0  0  0  0
 12  5  1  0  0  0  0
 13  3  2  0  0  0  0
 14  4  1  0  0  0  0
 14 15  1  0  0  0  0
 15  5  2  0  0  0  0
 16  8  2  0  0  0  0
 16 11  1  0  0  0  0
 17  2  2  0  0  0  0
 18 17  1  0  0  0  0
 18 13  1  0  0  0  0
 19 20  1  0  0  0  0
 22 28  1  0  0  0  0
 24 25  1  0  0  0  0
 25 27  1  0  0  0  0
 26 22  1  0  0  0  0
 27 21  1  0  0  0  0
 28 23  2  0  0  0  0
 29 24  2  0  0  0  0
 29 30  1  0  0  0  0
 30 23  1  0  0  0  0
 30 27  2  0  0  0  0
 31 22  2  0  0  0  0
 31 29  1  0  0  0  0
M  END
>  <MODEL>
8

>  <REMARK>
 VINA RESULT:      -9.4      2.337      3.209
  Name = 
  3 active torsions:
  status: ('A' for Active; 'I' for Inactive)
    1  A    between atoms: C_2  and  C_13
    2  A    between atoms: C_9  and  C_23
    3  A    between atoms: C_15  and  C_23
                            x       y       z     vdW  Elec       q    Type
                         _______ _______ _______ _____ _____    ______ ____

>  <TORSDO>
F 3

$$$$
=
 OpenBabel10262419333D

 31 36  0  0  1  0  0  0  0  0999 V2000
  185.6960  178.4080  142.8450 C   0  0  0  0  0  0  0  0  0  0  0  0
  186.0770  178.3790  144.2050 C   0  0  0  0  0  0  0  0  0  0  0  0
  187.6730  177.6160  145.9680 C   0  0  0  0  0  0  0  0  0  0  0  0
  186.6490  178.3170  141.7180 C   0  0  0  0  0  0  0  0  0  0  0  0
  188.3330  178.0660  140.3860 C   0  0  0  0  0  0  0  0  0  0  0  0
  187.5220  178.3020  144.6350 C   0  0  0  0  0  2  0  0  0  0  0  0
  183.8680  178.4810  141.0700 C   0  0  1  0  0  3  0  0  0  0  0  0
  183.7470  178.5990  144.8270 C   0  0  0  0  0  3  0  0  0  0  0  0
  188.8070  176.9220  146.2380 F   0  0  0  0  0  0  0  0  0  0  0  0
  184.9250  179.0060  140.0840 C   0  0  0  0  0  2  0  0  0  0  0  0
  184.3280  178.5500  142.5180 C   0  0  0  0  0  0  0  0  0  0  0  0
  187.9980  177.9980  141.7330 C   0  0  0  0  0  3  0  0  0  0  0  0
  186.7120  177.7020  146.9000 C   0  0  0  0  0  3  0  0  0  0  0  0
  186.2520  178.5350  140.4560 N   0  0  0  0  0  0  0  0  0  0  0  0
  187.2720  178.4120  139.6300 N   0  0  0  0  0  0  0  0  0  0  0  0
  183.4020  178.6180  143.5150 N   0  0  0  0  0  0  0  0  0  0  0  0
  185.0830  178.4770  145.1980 C   0  0  0  0  0  0  0  0  0  0  0  0
  185.4590  178.4990  146.6520 C   0  0  0  0  0  2  0  0  0  0  0  0
  189.7000  177.8570  139.8360 C   0  0  0  0  0  2  0  0  0  0  0  0
  190.5790  177.1940  140.8780 C   0  0  0  0  0  1  0  0  0  0  0  0
  182.5550  179.2260  140.8600 C   0  0  0  0  0  2  0  0  0  0  0  0
  180.6780  181.3920  136.4100 C   0  0  0  0  0  0  0  0  0  0  0  0
  181.6030  181.3920  138.6810 C   0  0  0  0  0  3  0  0  0  0  0  0
  181.3660  178.0010  137.6670 N   0  0  0  0  0  0  0  0  0  0  0  0
  181.8670  177.8200  138.8870 N   0  0  0  0  0  2  0  0  0  0  0  0
  180.1590  182.1490  135.2420 C   0  0  0  0  0  1  0  0  0  0  0  0
  182.0540  179.0270  139.4680 C   0  0  0  0  0  0  0  0  0  0  0  0
  181.1090  182.0890  137.5630 C   0  0  0  0  0  3  0  0  0  0  0  0
  181.2310  179.3260  137.4840 C   0  0  0  0  0  0  0  0  0  0  0  0
  181.6480  180.0040  138.5930 C   0  0  0  0  0  0  0  0  0  0  0  0
  180.7340  179.9850  136.3620 C   0  0  0  0  0  3  0  0  0  0  0  0
  1  2  1  0  0  0  0
  2  6  1  0  0  0  0
  2 17  2  0  0  0  0
  3  9  1  0  0  0  0
  3 13  2  0  0  0  0
  4 12  2  0  0  0  0
  4  1  1  0  0  0  0
  5 12  1  0  0  0  0
  6  3  1  0  0  0  0
  7 21  1  1  0  0  0
  7 11  1  0  0  0  0
  8 17  1  0  0  0  0
 10 14  1  0  0  0  0
 10  7  1  0  0  0  0
 11  1  2  0  0  0  0
 11 16  1  0  0  0  0
 14  4  1  0  0  0  0
 15  5  2  0  0  0  0
 15 14  1  0  0  0  0
 16  8  2  0  0  0  0
 17 18  1  0  0  0  0
 18 13  1  0  0  0  0
 19  5  1  0  0  0  0
 19 20  1  0  0  0  0
 22 28  1  0  0  0  0
 24 25  1  0  0  0  0
 25 27  1  0  0  0  0
 26 22  1  0  0  0  0
 27 21  1  0  0  0  0
 28 23  2  0  0  0  0
 29 24  2  0  0  0  0
 29 30  1  0  0  0  0
 30 23  1  0  0  0  0
 30 27  2  0  0  0  0
 31 22  2  0  0  0  0
 31 29  1  0  0  0  0
M  END
>  <MODEL>
9

>  <REMARK>
 VINA RESULT:      -9.3      4.051      6.355
  Name = 
  3 active torsions:
  status: ('A' for Active; 'I' for Inactive)
    1  A    between atoms: C_2  and  C_13
    2  A    between atoms: C_9  and  C_23
    3  A    between atoms: C_15  and  C_23
                            x       y       z     vdW  Elec       q    Type
                         _______ _______ _______ _____ _____    ______ ____

>  <TORSDO>
F 3

$$$$
