=
 OpenBabel10262419443D

 25 28  0  0  1  0  0  0  0  0999 V2000
  187.2480  177.8710  145.4320 C   0  0  0  0  0  0  0  0  0  0  0  0
  188.5620  177.3790  145.1960 C   0  0  0  0  0  0  0  0  0  0  0  0
  187.7470  177.8660  147.8220 C   0  0  0  0  0  3  0  0  0  0  0  0
  186.2890  178.1520  144.4170 C   0  0  0  0  0  0  0  0  0  0  0  0
  184.0940  178.8170  143.6160 C   0  0  0  0  0  2  0  0  0  0  0  0
  188.9910  177.3940  147.5660 N   0  0  0  0  0  0  0  0  0  0  0  0
  184.6610  178.8460  146.0730 C   0  0  0  0  0  3  0  0  0  0  0  0
  185.0240  178.6100  144.7500 C   0  0  0  0  0  0  0  0  0  0  0  0
  190.7250  176.6500  146.0930 C   0  0  0  0  0  0  0  0  0  0  0  0
  191.6480  176.3900  147.2340 C   0  0  0  0  0  1  0  0  0  0  0  0
  189.0470  177.1090  143.9080 C   0  0  0  0  0  3  0  0  0  0  0  0
  184.6740  178.0280  142.4500 C   0  0  0  0  0  2  0  0  0  0  0  0
  186.8590  178.1110  146.7800 C   0  0  0  0  0  0  0  0  0  0  0  0
  185.5830  178.5970  147.0870 C   0  0  0  0  0  3  0  0  0  0  0  0
  191.1740  176.3920  144.7970 C   0  0  0  0  0  3  0  0  0  0  0  0
  186.4860  177.9530  142.6460 S   0  0  0  0  0  0  0  0  0  0  0  0
  190.3410  176.6270  143.7060 C   0  0  0  0  0  0  0  0  0  0  0  0
  189.4230  177.1440  146.3020 C   0  0  0  0  0  0  0  0  0  0  0  0
  190.8160  176.3260  142.3260 C   0  0  0  0  0  2  0  0  0  0  0  0
  190.6340  177.4900  141.4740 N   0  0  0  0  0  0  0  0  0  0  0  0
  191.8480  177.6280  140.6880 C   0  0  0  0  0  1  0  0  0  0  0  0
  189.5690  177.1640  140.5380 C   0  0  0  0  0  2  0  0  0  0  0  0
  189.5830  176.9630  138.1240 N   0  0  0  0  0  1  0  0  0  0  0  0
  189.7920  177.8870  139.2230 C   0  0  1  0  0  3  0  0  0  0  0  0
  188.8970  178.9510  139.1070 O   0  0  0  0  0  1  0  0  0  0  0  0
  1 13  1  0  0  0  0
  2  1  2  0  0  0  0
  2 18  1  0  0  0  0
  4  8  2  0  0  0  0
  4  1  1  0  0  0  0
  5  8  1  0  0  0  0
  6  3  1  0  0  0  0
  7 14  2  0  0  0  0
  8  7  1  0  0  0  0
  9 18  1  0  0  0  0
  9 10  1  0  0  0  0
 11  2  1  0  0  0  0
 12 16  1  0  0  0  0
 12  5  1  0  0  0  0
 13 14  1  0  0  0  0
 13  3  2  0  0  0  0
 15  9  2  0  0  0  0
 16  4  1  0  0  0  0
 17 11  2  0  0  0  0
 17 15  1  0  0  0  0
 18  6  2  0  0  0  0
 19 17  1  0  0  0  0
 20 19  1  0  0  0  0
 21 20  1  0  0  0  0
 22 20  1  0  0  0  0
 24 23  1  6  0  0  0
 24 22  1  0  0  0  0
 25 24  1  0  0  0  0
M  END
>  <MODEL>
1

>  <REMARK>
 VINA RESULT:      -9.9      0.000      0.000
  Name = 
  4 active torsions:
  status: ('A' for Active; 'I' for Inactive)
    1  A    between atoms: C_6  and  N_15
    2  A    between atoms: C_6  and  C_23
    3  A    between atoms: C_7  and  C_21
    4  A    between atoms: N_15  and  C_21
                            x       y       z     vdW  Elec       q    Type
                         _______ _______ _______ _____ _____    ______ ____

>  <TORSDO>
F 4

$$$$
=
 OpenBabel10262419443D

 25 28  0  0  1  0  0  0  0  0999 V2000
  185.8550  178.4180  144.3530 C   0  0  0  0  0  0  0  0  0  0  0  0
  187.0160  178.0400  145.0850 C   0  0  0  0  0  0  0  0  0  0  0  0
  184.6330  178.5070  146.4640 C   0  0  0  0  0  3  0  0  0  0  0  0
  185.8050  178.5910  142.9390 C   0  0  0  0  0  0  0  0  0  0  0  0
  184.6730  179.0430  140.8380 C   0  0  0  0  0  2  0  0  0  0  0  0
  185.7530  178.1420  147.1330 N   0  0  0  0  0  0  0  0  0  0  0  0
  183.4540  179.1720  143.0410 C   0  0  0  0  0  3  0  0  0  0  0  0
  184.6190  178.9430  142.3150 C   0  0  0  0  0  0  0  0  0  0  0  0
  188.0630  177.5250  147.2420 C   0  0  0  0  0  0  0  0  0  0  0  0
  188.0020  177.3710  148.7230 C   0  0  0  0  0  1  0  0  0  0  0  0
  188.2500  177.7880  144.4670 C   0  0  0  0  0  3  0  0  0  0  0  0
  185.9230  178.2850  140.4130 C   0  0  0  0  0  2  0  0  0  0  0  0
  184.6550  178.6500  145.0800 C   0  0  0  0  0  0  0  0  0  0  0  0
  183.4760  179.0270  144.4270 C   0  0  0  0  0  3  0  0  0  0  0  0
  189.2750  177.2810  146.5930 C   0  0  0  0  0  3  0  0  0  0  0  0
  187.1440  178.3750  141.7660 S   0  0  0  0  0  0  0  0  0  0  0  0
  189.3710  177.4190  145.2100 C   0  0  0  0  0  0  0  0  0  0  0  0
  186.9310  177.9050  146.4970 C   0  0  0  0  0  0  0  0  0  0  0  0
  190.6610  177.1320  144.5200 C   0  0  0  0  0  2  0  0  0  0  0  0
  190.8780  178.0990  143.4550 N   0  0  0  0  0  0  0  0  0  0  0  0
  191.6730  179.1750  144.0220 C   0  0  0  0  0  1  0  0  0  0  0  0
  191.7120  177.4460  142.4590 C   0  0  0  0  0  2  0  0  0  0  0  0
  191.9070  177.3180  140.0480 N   0  0  0  0  0  1  0  0  0  0  0  0
  190.9600  177.3260  141.1460 C   0  0  1  0  0  3  0  0  0  0  0  0
  190.2200  176.1440  141.1280 O   0  0  0  0  0  1  0  0  0  0  0  0
  1 13  1  0  0  0  0
  1  2  2  0  0  0  0
  2 18  1  0  0  0  0
  3  6  1  0  0  0  0
  4  1  1  0  0  0  0
  5  8  1  0  0  0  0
  7 14  2  0  0  0  0
  8  4  2  0  0  0  0
  8  7  1  0  0  0  0
  9 10  1  0  0  0  0
 11  2  1  0  0  0  0
 11 17  2  0  0  0  0
 12  5  1  0  0  0  0
 12 16  1  0  0  0  0
 13  3  2  0  0  0  0
 14 13  1  0  0  0  0
 15  9  2  0  0  0  0
 16  4  1  0  0  0  0
 17 15  1  0  0  0  0
 18  6  2  0  0  0  0
 18  9  1  0  0  0  0
 19 17  1  0  0  0  0
 20 21  1  0  0  0  0
 20 19  1  0  0  0  0
 22 20  1  0  0  0  0
 24 23  1  6  0  0  0
 24 22  1  0  0  0  0
 25 24  1  0  0  0  0
M  END
>  <MODEL>
2

>  <REMARK>
 VINA RESULT:      -9.4      1.655      2.752
  Name = 
  4 active torsions:
  status: ('A' for Active; 'I' for Inactive)
    1  A    between atoms: C_6  and  N_15
    2  A    between atoms: C_6  and  C_23
    3  A    between atoms: C_7  and  C_21
    4  A    between atoms: N_15  and  C_21
                            x       y       z     vdW  Elec       q    Type
                         _______ _______ _______ _____ _____    ______ ____

>  <TORSDO>
F 4

$$$$
=
 OpenBabel10262419443D

 25 28  0  0  1  0  0  0  0  0999 V2000
  187.0160  177.8630  144.7540 C   0  0  0  0  0  0  0  0  0  0  0  0
  188.1190  177.4020  143.9820 C   0  0  0  0  0  0  0  0  0  0  0  0
  188.3460  177.4790  146.7640 C   0  0  0  0  0  3  0  0  0  0  0  0
  185.7740  178.3090  144.2140 C   0  0  0  0  0  0  0  0  0  0  0  0
  183.4890  179.1120  144.3810 C   0  0  0  0  0  2  0  0  0  0  0  0
  189.3780  177.0420  146.0040 N   0  0  0  0  0  0  0  0  0  0  0  0
  184.9070  178.7500  146.4340 C   0  0  0  0  0  3  0  0  0  0  0  0
  184.7500  178.7210  145.0510 C   0  0  0  0  0  0  0  0  0  0  0  0
  190.4070  176.5210  143.9060 C   0  0  0  0  0  0  0  0  0  0  0  0
  191.6620  176.0770  144.5770 C   0  0  0  0  0  1  0  0  0  0  0  0
  188.0860  177.3320  142.5820 C   0  0  0  0  0  3  0  0  0  0  0  0
  183.5520  178.5100  142.9850 C   0  0  0  0  0  2  0  0  0  0  0  0
  187.1580  177.8930  146.1690 C   0  0  0  0  0  0  0  0  0  0  0  0
  186.1160  178.3370  146.9900 C   0  0  0  0  0  3  0  0  0  0  0  0
  190.3370  176.4650  142.5130 C   0  0  0  0  0  3  0  0  0  0  0  0
  185.3030  178.3880  142.4860 S   0  0  0  0  0  0  0  0  0  0  0  0
  189.1830  176.8760  141.8510 C   0  0  0  0  0  0  0  0  0  0  0  0
  189.3050  176.9880  144.6480 C   0  0  0  0  0  0  0  0  0  0  0  0
  189.1040  176.7900  140.3660 C   0  0  0  0  0  2  0  0  0  0  0  0
  189.9570  177.8030  139.7650 N   0  0  0  0  0  0  0  0  0  0  0  0
  190.9130  177.1020  138.9240 C   0  0  0  0  0  1  0  0  0  0  0  0
  189.1160  178.5870  138.8740 C   0  0  0  0  0  2  0  0  0  0  0  0
  186.6950  178.5490  138.7950 N   0  0  0  0  0  1  0  0  0  0  0  0
  187.8880  177.7870  138.4790 C   0  0  1  0  0  3  0  0  0  0  0  0
  187.9160  177.5170  137.1110 O   0  0  0  0  0  1  0  0  0  0  0  0
  1 13  1  0  0  0  0
  2 18  1  0  0  0  0
  2  1  1  0  0  0  0
  4  1  2  0  0  0  0
  4  8  1  0  0  0  0
  5  8  1  0  0  0  0
  6  3  2  0  0  0  0
  7 14  1  0  0  0  0
  8  7  2  0  0  0  0
  9 10  1  0  0  0  0
  9 18  2  0  0  0  0
 11  2  2  0  0  0  0
 12  5  1  0  0  0  0
 13  3  1  0  0  0  0
 13 14  2  0  0  0  0
 15  9  1  0  0  0  0
 16 12  1  0  0  0  0
 16  4  1  0  0  0  0
 17 15  2  0  0  0  0
 17 11  1  0  0  0  0
 18  6  1  0  0  0  0
 19 17  1  0  0  0  0
 20 19  1  0  0  0  0
 21 20  1  0  0  0  0
 22 20  1  0  0  0  0
 24 25  1  6  0  0  0
 24 23  1  0  0  0  0
 24 22  1  0  0  0  0
M  END
>  <MODEL>
3

>  <REMARK>
 VINA RESULT:      -9.4      1.358      1.823
  Name = 
  4 active torsions:
  status: ('A' for Active; 'I' for Inactive)
    1  A    between atoms: C_6  and  N_15
    2  A    between atoms: C_6  and  C_23
    3  A    between atoms: C_7  and  C_21
    4  A    between atoms: N_15  and  C_21
                            x       y       z     vdW  Elec       q    Type
                         _______ _______ _______ _____ _____    ______ ____

>  <TORSDO>
F 4

$$$$
=
 OpenBabel10262419443D

 25 28  0  0  1  0  0  0  0  0999 V2000
  186.2630  178.3770  143.0830 C   0  0  0  0  0  0  0  0  0  0  0  0
  187.4940  178.2060  142.3900 C   0  0  0  0  0  0  0  0  0  0  0  0
  185.1920  178.8240  140.9360 C   0  0  0  0  0  3  0  0  0  0  0  0
  186.0980  178.2490  144.4930 C   0  0  0  0  0  0  0  0  0  0  0  0
  184.8170  178.3480  146.5540 C   0  0  0  0  0  2  0  0  0  0  0  0
  186.3780  178.6590  140.3040 N   0  0  0  0  0  0  0  0  0  0  0  0
  183.7340  178.7560  144.3150 C   0  0  0  0  0  3  0  0  0  0  0  0
  184.8580  178.4550  145.0780 C   0  0  0  0  0  0  0  0  0  0  0  0
  188.7280  178.2020  140.2710 C   0  0  0  0  0  0  0  0  0  0  0  0
  188.7870  178.3610  138.7900 C   0  0  0  0  0  1  0  0  0  0  0  0
  188.6940  177.8950  143.0470 C   0  0  0  0  0  3  0  0  0  0  0  0
  186.2580  178.4840  147.0240 C   0  0  0  0  0  2  0  0  0  0  0  0
  185.1050  178.6910  142.3180 C   0  0  0  0  0  0  0  0  0  0  0  0
  183.8610  178.8710  142.9320 C   0  0  0  0  0  3  0  0  0  0  0  0
  189.9030  177.8930  140.9580 C   0  0  0  0  0  3  0  0  0  0  0  0
  187.3580  177.8630  145.7070 S   0  0  0  0  0  0  0  0  0  0  0  0
  189.8860  177.7330  142.3410 C   0  0  0  0  0  0  0  0  0  0  0  0
  187.5210  178.3590  140.9770 C   0  0  0  0  0  0  0  0  0  0  0  0
  191.1480  177.4290  143.0720 C   0  0  0  0  0  2  0  0  0  0  0  0
  190.8630  176.5900  144.2250 N   0  0  0  0  0  0  0  0  0  0  0  0
  191.5540  175.3300  144.0080 C   0  0  0  0  0  1  0  0  0  0  0  0
  191.5000  177.2190  145.3720 C   0  0  0  0  0  2  0  0  0  0  0  0
  192.4090  176.2010  147.3730 N   0  0  0  0  0  1  0  0  0  0  0  0
  191.1830  176.4420  146.6360 C   0  0  1  0  0  3  0  0  0  0  0  0
  190.3000  177.1700  147.4330 O   0  0  0  0  0  1  0  0  0  0  0  0
  1  4  2  0  0  0  0
  2 11  1  0  0  0  0
  2  1  1  0  0  0  0
  3 13  1  0  0  0  0
  4  8  1  0  0  0  0
  4 16  1  0  0  0  0
  5 12  1  0  0  0  0
  6  3  2  0  0  0  0
  6 18  1  0  0  0  0
  7  8  2  0  0  0  0
  8  5  1  0  0  0  0
  9 15  2  0  0  0  0
  9 18  1  0  0  0  0
 10  9  1  0  0  0  0
 13 14  2  0  0  0  0
 13  1  1  0  0  0  0
 14  7  1  0  0  0  0
 15 17  1  0  0  0  0
 16 12  1  0  0  0  0
 17 11  2  0  0  0  0
 17 19  1  0  0  0  0
 18  2  2  0  0  0  0
 19 20  1  0  0  0  0
 20 22  1  0  0  0  0
 21 20  1  0  0  0  0
 22 24  1  0  0  0  0
 24 23  1  1  0  0  0
 24 25  1  0  0  0  0
M  END
>  <MODEL>
4

>  <REMARK>
 VINA RESULT:      -9.2      2.507      5.236
  Name = 
  4 active torsions:
  status: ('A' for Active; 'I' for Inactive)
    1  A    between atoms: C_6  and  N_15
    2  A    between atoms: C_6  and  C_23
    3  A    between atoms: C_7  and  C_21
    4  A    between atoms: N_15  and  C_21
                            x       y       z     vdW  Elec       q    Type
                         _______ _______ _______ _____ _____    ______ ____

>  <TORSDO>
F 4

$$$$
=
 OpenBabel10262419443D

 25 28  0  0  1  0  0  0  0  0999 V2000
  186.9300  177.9300  144.6380 C   0  0  0  0  0  0  0  0  0  0  0  0
  188.2290  177.5840  144.1690 C   0  0  0  0  0  0  0  0  0  0  0  0
  187.7230  177.5460  146.9150 C   0  0  0  0  0  3  0  0  0  0  0  0
  185.8390  178.3120  143.8050 C   0  0  0  0  0  0  0  0  0  0  0  0
  183.5300  178.9440  143.3930 C   0  0  0  0  0  2  0  0  0  0  0  0
  188.9480  177.2190  146.4380 N   0  0  0  0  0  0  0  0  0  0  0  0
  184.3960  178.5860  145.7340 C   0  0  0  0  0  3  0  0  0  0  0  0
  184.6030  178.6110  144.3580 C   0  0  0  0  0  0  0  0  0  0  0  0
  190.5220  176.8720  144.6680 C   0  0  0  0  0  0  0  0  0  0  0  0
  191.5920  176.4850  145.6300 C   0  0  0  0  0  1  0  0  0  0  0  0
  188.5630  177.5790  142.8070 C   0  0  0  0  0  3  0  0  0  0  0  0
  184.0000  178.4150  142.0460 C   0  0  0  0  0  2  0  0  0  0  0  0
  186.7000  177.9030  146.0420 C   0  0  0  0  0  0  0  0  0  0  0  0
  185.4490  178.2330  146.5750 C   0  0  0  0  0  3  0  0  0  0  0  0
  190.8180  176.8770  143.3040 C   0  0  0  0  0  3  0  0  0  0  0  0
  185.8250  178.4400  142.0170 S   0  0  0  0  0  0  0  0  0  0  0  0
  189.8450  177.2360  142.3750 C   0  0  0  0  0  0  0  0  0  0  0  0
  189.2320  177.2240  145.1090 C   0  0  0  0  0  0  0  0  0  0  0  0
  190.1590  177.2150  140.9190 C   0  0  0  0  0  2  0  0  0  0  0  0
  188.9360  177.3580  140.1450 N   0  0  0  0  0  0  0  0  0  0  0  0
  188.8940  178.7330  139.6790 C   0  0  0  0  0  1  0  0  0  0  0  0
  189.0850  176.5240  138.9640 C   0  0  0  0  0  2  0  0  0  0  0  0
  190.8780  175.0180  138.3430 N   0  0  0  0  0  1  0  0  0  0  0  0
  190.5510  176.4100  138.5880 C   0  0  1  0  0  3  0  0  0  0  0  0
  190.8060  177.1530  137.4360 O   0  0  0  0  0  1  0  0  0  0  0  0
  1 13  1  0  0  0  0
  2  1  2  0  0  0  0
  2 18  1  0  0  0  0
  4  8  2  0  0  0  0
  4  1  1  0  0  0  0
  5  8  1  0  0  0  0
  6  3  1  0  0  0  0
  7 14  2  0  0  0  0
  8  7  1  0  0  0  0
  9 18  1  0  0  0  0
  9 10  1  0  0  0  0
 11  2  1  0  0  0  0
 12  5  1  0  0  0  0
 13 14  1  0  0  0  0
 13  3  2  0  0  0  0
 15  9  2  0  0  0  0
 16 12  1  0  0  0  0
 16  4  1  0  0  0  0
 17 11  2  0  0  0  0
 17 15  1  0  0  0  0
 18  6  2  0  0  0  0
 19 17  1  0  0  0  0
 20 19  1  0  0  0  0
 21 20  1  0  0  0  0
 22 20  1  0  0  0  0
 23 24  1  0  0  0  0
 24 25  1  6  0  0  0
 24 22  1  0  0  0  0
M  END
>  <MODEL>
5

>  <REMARK>
 VINA RESULT:      -9.2      1.292      1.571
  Name = 
  4 active torsions:
  status: ('A' for Active; 'I' for Inactive)
    1  A    between atoms: C_6  and  N_15
    2  A    between atoms: C_6  and  C_23
    3  A    between atoms: C_7  and  C_21
    4  A    between atoms: N_15  and  C_21
                            x       y       z     vdW  Elec       q    Type
                         _______ _______ _______ _____ _____    ______ ____

>  <TORSDO>
F 4

$$$$
=
 OpenBabel10262419443D

 25 28  0  0  1  0  0  0  0  0999 V2000
  186.8190  178.0080  145.0880 C   0  0  0  0  0  0  0  0  0  0  0  0
  185.7360  178.2690  144.2020 C   0  0  0  0  0  0  0  0  0  0  0  0
  185.2890  178.3580  146.9570 C   0  0  0  0  0  3  0  0  0  0  0  0
  188.1470  177.6890  144.6790 C   0  0  0  0  0  0  0  0  0  0  0  0
  190.4910  177.1990  145.0790 C   0  0  0  0  0  2  0  0  0  0  0  0
  184.2780  178.6050  146.0900 N   0  0  0  0  0  0  0  0  0  0  0  0
  188.8720  177.5190  146.9850 C   0  0  0  0  0  3  0  0  0  0  0  0
  189.1400  177.4710  145.6200 C   0  0  0  0  0  0  0  0  0  0  0  0
  183.3720  178.8410  143.8860 C   0  0  0  0  0  0  0  0  0  0  0  0
  182.0210  179.1670  144.4250 C   0  0  0  0  0  1  0  0  0  0  0  0
  185.8780  178.2430  142.8070 C   0  0  0  0  0  3  0  0  0  0  0  0
  190.4720  177.6880  143.6380 C   0  0  0  0  0  2  0  0  0  0  0  0
  186.5640  178.0590  146.4870 C   0  0  0  0  0  0  0  0  0  0  0  0
  187.5800  177.8120  147.4160 C   0  0  0  0  0  3  0  0  0  0  0  0
  183.5510  178.8070  142.5020 C   0  0  0  0  0  3  0  0  0  0  0  0
  188.7660  177.5490  143.0020 S   0  0  0  0  0  0  0  0  0  0  0  0
  184.7980  178.5020  141.9620 C   0  0  0  0  0  0  0  0  0  0  0  0
  184.4570  178.5720  144.7420 C   0  0  0  0  0  0  0  0  0  0  0  0
  184.9890  178.4930  140.4850 C   0  0  0  0  0  2  0  0  0  0  0  0
  183.6990  178.5700  139.8180 N   0  0  0  0  0  0  0  0  0  0  0  0
  183.7450  179.7330  138.9490 C   0  0  0  0  0  1  0  0  0  0  0  0
  183.6050  177.4070  138.9500 C   0  0  0  0  0  2  0  0  0  0  0  0
  181.4330  177.0100  139.9480 N   0  0  0  0  0  1  0  0  0  0  0  0
  182.6790  176.3720  139.5640 C   0  0  1  0  0  3  0  0  0  0  0  0
  182.4150  175.3620  138.6390 O   0  0  0  0  0  1  0  0  0  0  0  0
  1 13  1  0  0  0  0
  2 18  1  0  0  0  0
  2  1  1  0  0  0  0
  4  1  2  0  0  0  0
  4  8  1  0  0  0  0
  5  8  1  0  0  0  0
  6  3  2  0  0  0  0
  7 14  1  0  0  0  0
  8  7  2  0  0  0  0
  9 10  1  0  0  0  0
  9 18  2  0  0  0  0
 11  2  2  0  0  0  0
 12  5  1  0  0  0  0
 13  3  1  0  0  0  0
 13 14  2  0  0  0  0
 15  9  1  0  0  0  0
 16 12  1  0  0  0  0
 16  4  1  0  0  0  0
 17 15  2  0  0  0  0
 17 11  1  0  0  0  0
 18  6  1  0  0  0  0
 19 17  1  0  0  0  0
 20 19  1  0  0  0  0
 21 20  1  0  0  0  0
 22 24  1  0  0  0  0
 22 20  1  0  0  0  0
 24 25  1  6  0  0  0
 24 23  1  0  0  0  0
M  END
>  <MODEL>
6

>  <REMARK>
 VINA RESULT:      -9.0      3.228      5.935
  Name = 
  4 active torsions:
  status: ('A' for Active; 'I' for Inactive)
    1  A    between atoms: C_6  and  N_15
    2  A    between atoms: C_6  and  C_23
    3  A    between atoms: C_7  and  C_21
    4  A    between atoms: N_15  and  C_21
                            x       y       z     vdW  Elec       q    Type
                         _______ _______ _______ _____ _____    ______ ____

>  <TORSDO>
F 4

$$$$
=
 OpenBabel10262419443D

 25 28  0  0  1  0  0  0  0  0999 V2000
  187.3910  178.1030  142.3320 C   0  0  0  0  0  0  0  0  0  0  0  0
  186.7810  178.0950  143.6190 C   0  0  0  0  0  0  0  0  0  0  0  0
  185.3110  179.0040  141.4260 C   0  0  0  0  0  3  0  0  0  0  0  0
  188.7250  177.6830  142.0610 C   0  0  0  0  0  0  0  0  0  0  0  0
  190.6020  177.2000  140.5970 C   0  0  0  0  0  2  0  0  0  0  0  0
  184.7570  178.9820  142.6610 N   0  0  0  0  0  0  0  0  0  0  0  0
  188.4560  178.1760  139.7030 C   0  0  0  0  0  3  0  0  0  0  0  0
  189.2220  177.7090  140.7670 C   0  0  0  0  0  0  0  0  0  0  0  0
  184.8140  178.5410  145.0140 C   0  0  0  0  0  0  0  0  0  0  0  0
  183.4070  179.0020  145.1830 C   0  0  0  0  0  1  0  0  0  0  0  0
  187.4520  177.6550  144.7690 C   0  0  0  0  0  3  0  0  0  0  0  0
  190.9010  176.3770  141.8420 C   0  0  0  0  0  2  0  0  0  0  0  0
  186.6190  178.5720  141.2320 C   0  0  0  0  0  0  0  0  0  0  0  0
  187.1540  178.6090  139.9400 C   0  0  0  0  0  3  0  0  0  0  0  0
  185.5120  178.0940  146.1370 C   0  0  0  0  0  3  0  0  0  0  0  0
  189.9280  177.0520  143.2310 S   0  0  0  0  0  0  0  0  0  0  0  0
  186.8300  177.6590  146.0180 C   0  0  0  0  0  0  0  0  0  0  0  0
  185.4400  178.5460  143.7530 C   0  0  0  0  0  0  0  0  0  0  0  0
  187.5610  177.1600  147.2160 C   0  0  0  0  0  2  0  0  0  0  0  0
  188.9460  177.6010  147.1710 N   0  0  0  0  0  0  0  0  0  0  0  0
  189.2180  178.2560  148.4380 C   0  0  0  0  0  1  0  0  0  0  0  0
  189.7690  176.4030  147.1380 C   0  0  0  0  0  2  0  0  0  0  0  0
  191.9760  175.5920  147.7200 N   0  0  0  0  0  1  0  0  0  0  0  0
  191.2310  176.7700  147.3180 C   0  0  1  0  0  3  0  0  0  0  0  0
  191.7500  177.2580  146.1190 O   0  0  0  0  0  1  0  0  0  0  0  0
  1  2  2  0  0  0  0
  2 18  1  0  0  0  0
  2 11  1  0  0  0  0
  3  6  1  0  0  0  0
  4  1  1  0  0  0  0
  4 16  1  0  0  0  0
  5  8  1  0  0  0  0
  5 12  1  0  0  0  0
  6 18  2  0  0  0  0
  7 14  2  0  0  0  0
  7  8  1  0  0  0  0
  8  4  2  0  0  0  0
  9 10  1  0  0  0  0
  9 15  2  0  0  0  0
 11 17  2  0  0  0  0
 12 16  1  0  0  0  0
 13  3  2  0  0  0  0
 13  1  1  0  0  0  0
 14 13  1  0  0  0  0
 17 15  1  0  0  0  0
 17 19  1  0  0  0  0
 18  9  1  0  0  0  0
 20 19  1  0  0  0  0
 20 21  1  0  0  0  0
 22 20  1  0  0  0  0
 22 24  1  0  0  0  0
 24 25  1  6  0  0  0
 24 23  1  0  0  0  0
M  END
>  <MODEL>
7

>  <REMARK>
 VINA RESULT:      -8.9      2.757      6.376
  Name = 
  4 active torsions:
  status: ('A' for Active; 'I' for Inactive)
    1  A    between atoms: C_6  and  N_15
    2  A    between atoms: C_6  and  C_23
    3  A    between atoms: C_7  and  C_21
    4  A    between atoms: N_15  and  C_21
                            x       y       z     vdW  Elec       q    Type
                         _______ _______ _______ _____ _____    ______ ____

>  <TORSDO>
F 4

$$$$
=
 OpenBabel10262419443D

 25 28  0  0  1  0  0  0  0  0999 V2000
  187.7680  177.8110  145.9530 C   0  0  0  0  0  0  0  0  0  0  0  0
  187.0780  177.9550  144.7160 C   0  0  0  0  0  0  0  0  0  0  0  0
  185.7720  178.6390  147.0880 C   0  0  0  0  0  3  0  0  0  0  0  0
  189.1020  177.3270  146.0900 C   0  0  0  0  0  0  0  0  0  0  0  0
  191.1000  176.7760  147.3550 C   0  0  0  0  0  2  0  0  0  0  0  0
  185.1420  178.7690  145.8950 N   0  0  0  0  0  0  0  0  0  0  0  0
  189.0050  177.5880  148.4980 C   0  0  0  0  0  3  0  0  0  0  0  0
  189.6950  177.2420  147.3400 C   0  0  0  0  0  0  0  0  0  0  0  0
  185.0450  178.6050  143.5090 C   0  0  0  0  0  0  0  0  0  0  0  0
  183.6480  179.1240  143.4820 C   0  0  0  0  0  1  0  0  0  0  0  0
  187.6640  177.6330  143.4830 C   0  0  0  0  0  3  0  0  0  0  0  0
  191.6170  176.9580  145.9350 C   0  0  0  0  0  2  0  0  0  0  0  0
  187.0790  178.1660  147.1460 C   0  0  0  0  0  0  0  0  0  0  0  0
  187.6940  178.0490  148.3970 C   0  0  0  0  0  3  0  0  0  0  0  0
  185.6600  178.2760  142.3000 C   0  0  0  0  0  3  0  0  0  0  0  0
  190.2110  176.8040  144.7820 S   0  0  0  0  0  0  0  0  0  0  0  0
  186.9640  177.7840  142.2860 C   0  0  0  0  0  0  0  0  0  0  0  0
  185.7450  178.4470  144.7200 C   0  0  0  0  0  0  0  0  0  0  0  0
  187.6240  177.4580  140.9910 C   0  0  0  0  0  2  0  0  0  0  0  0
  188.8340  178.2500  140.8390 N   0  0  0  0  0  0  0  0  0  0  0  0
  189.9530  177.3540  141.0710 C   0  0  0  0  0  1  0  0  0  0  0  0
  188.9030  178.6480  139.4420 C   0  0  0  0  0  2  0  0  0  0  0  0
  187.1510  178.7260  137.7710 N   0  0  0  0  0  1  0  0  0  0  0  0
  187.9200  177.8350  138.6190 C   0  0  1  0  0  3  0  0  0  0  0  0
  188.6090  176.9200  137.8230 O   0  0  0  0  0  1  0  0  0  0  0  0
  1  4  2  0  0  0  0
  1 13  1  0  0  0  0
  2 18  1  0  0  0  0
  2  1  1  0  0  0  0
  3 13  1  0  0  0  0
  4  8  1  0  0  0  0
  6  3  2  0  0  0  0
  8  5  1  0  0  0  0
  8  7  2  0  0  0  0
  9 18  2  0  0  0  0
 10  9  1  0  0  0  0
 11  2  2  0  0  0  0
 12  5  1  0  0  0  0
 13 14  2  0  0  0  0
 14  7  1  0  0  0  0
 15  9  1  0  0  0  0
 16 12  1  0  0  0  0
 16  4  1  0  0  0  0
 17 15  2  0  0  0  0
 17 11  1  0  0  0  0
 18  6  1  0  0  0  0
 19 17  1  0  0  0  0
 20 19  1  0  0  0  0
 20 21  1  0  0  0  0
 22 20  1  0  0  0  0
 24 23  1  6  0  0  0
 24 22  1  0  0  0  0
 25 24  1  0  0  0  0
M  END
>  <MODEL>
8

>  <REMARK>
 VINA RESULT:      -8.8      1.865      4.465
  Name = 
  4 active torsions:
  status: ('A' for Active; 'I' for Inactive)
    1  A    between atoms: C_6  and  N_15
    2  A    between atoms: C_6  and  C_23
    3  A    between atoms: C_7  and  C_21
    4  A    between atoms: N_15  and  C_21
                            x       y       z     vdW  Elec       q    Type
                         _______ _______ _______ _____ _____    ______ ____

>  <TORSDO>
F 4

$$$$
=
 OpenBabel10262419443D

 25 28  0  0  1  0  0  0  0  0999 V2000
  187.9080  177.6630  144.5630 C   0  0  0  0  0  0  0  0  0  0  0  0
  186.6850  178.0430  143.9430 C   0  0  0  0  0  0  0  0  0  0  0  0
  186.7880  177.8320  146.7250 C   0  0  0  0  0  3  0  0  0  0  0  0
  189.1160  177.3660  143.8670 C   0  0  0  0  0  0  0  0  0  0  0  0
  191.4710  176.7880  143.7390 C   0  0  0  0  0  2  0  0  0  0  0  0
  185.6390  178.1950  146.1070 N   0  0  0  0  0  0  0  0  0  0  0  0
  190.2700  176.9250  145.9520 C   0  0  0  0  0  3  0  0  0  0  0  0
  190.2640  177.0240  144.5640 C   0  0  0  0  0  0  0  0  0  0  0  0
  184.3310  178.6930  144.1650 C   0  0  0  0  0  0  0  0  0  0  0  0
  183.1250  178.9840  144.9930 C   0  0  0  0  0  1  0  0  0  0  0  0
  186.5500  178.1710  142.5530 C   0  0  0  0  0  3  0  0  0  0  0  0
  191.1910  177.4360  142.3910 C   0  0  0  0  0  2  0  0  0  0  0  0
  187.9330  177.5630  145.9820 C   0  0  0  0  0  0  0  0  0  0  0  0
  189.1000  177.1930  146.6590 C   0  0  0  0  0  3  0  0  0  0  0  0
  184.2340  178.8120  142.7780 C   0  0  0  0  0  3  0  0  0  0  0  0
  189.3900  177.4030  142.0960 S   0  0  0  0  0  0  0  0  0  0  0  0
  185.3380  178.5450  141.9720 C   0  0  0  0  0  0  0  0  0  0  0  0
  185.5500  178.3090  144.7550 C   0  0  0  0  0  0  0  0  0  0  0  0
  185.2370  178.6970  140.4930 C   0  0  0  0  0  2  0  0  0  0  0  0
  183.8400  178.7820  140.0990 N   0  0  0  0  0  0  0  0  0  0  0  0
  183.7590  179.7900  139.0550 C   0  0  0  0  0  1  0  0  0  0  0  0
  183.5000  177.5120  139.4760 C   0  0  0  0  0  2  0  0  0  0  0  0
  181.7480  175.8400  139.4960 N   0  0  0  0  0  1  0  0  0  0  0  0
  182.0060  177.2650  139.5770 C   0  0  1  0  0  3  0  0  0  0  0  0
  181.5240  177.7540  140.7910 O   0  0  0  0  0  1  0  0  0  0  0  0
  1 13  1  0  0  0  0
  2  1  2  0  0  0  0
  2 18  1  0  0  0  0
  4  1  1  0  0  0  0
  4  8  2  0  0  0  0
  5  8  1  0  0  0  0
  6  3  1  0  0  0  0
  7 14  2  0  0  0  0
  8  7  1  0  0  0  0
  9 18  1  0  0  0  0
  9 10  1  0  0  0  0
 11  2  1  0  0  0  0
 12  5  1  0  0  0  0
 13 14  1  0  0  0  0
 13  3  2  0  0  0  0
 15  9  2  0  0  0  0
 16 12  1  0  0  0  0
 16  4  1  0  0  0  0
 17 11  2  0  0  0  0
 17 15  1  0  0  0  0
 18  6  2  0  0  0  0
 19 17  1  0  0  0  0
 20 19  1  0  0  0  0
 21 20  1  0  0  0  0
 22 24  1  0  0  0  0
 22 20  1  0  0  0  0
 24 23  1  1  0  0  0
 24 25  1  0  0  0  0
M  END
>  <MODEL>
9

>  <REMARK>
 VINA RESULT:      -8.8      3.151      5.865
  Name = 
  4 active torsions:
  status: ('A' for Active; 'I' for Inactive)
    1  A    between atoms: C_6  and  N_15
    2  A    between atoms: C_6  and  C_23
    3  A    between atoms: C_7  and  C_21
    4  A    between atoms: N_15  and  C_21
                            x       y       z     vdW  Elec       q    Type
                         _______ _______ _______ _____ _____    ______ ____

>  <TORSDO>
F 4

$$$$
