=
 OpenBabel10262421373D

 32 37  0  0  1  0  0  0  0  0999 V2000
  190.5590  177.3660  138.4530 C   0  0  2  0  0  3  0  0  0  0  0  0
  186.7440  178.0320  137.7630 C   0  0  0  0  0  2  0  0  0  0  0  0
  186.7400  177.3420  136.3890 C   0  0  0  0  0  2  0  0  0  0  0  0
  192.4580  175.6130  137.9590 C   0  0  1  0  0  3  0  0  0  0  0  0
  192.5670  174.3200  137.1890 C   0  0  0  0  0  0  0  0  0  0  0  0
  192.0810  172.5950  135.8660 C   0  0  0  0  0  0  0  0  0  0  0  0
  188.1550  178.5300  138.1140 C   0  0  0  0  0  2  0  0  0  0  0  0
  189.1670  177.4490  137.8730 C   0  0  0  0  0  0  0  0  0  0  0  0
  190.1010  175.6210  136.9590 C   0  0  0  0  0  0  0  0  0  0  0  0
  193.3660  172.4080  136.3490 O   0  0  0  0  0  0  0  0  0  0  0  0
  193.7070  173.4590  137.1740 N   0  0  0  0  0  0  0  0  0  0  0  0
  187.7270  176.3070  136.3380 O   0  0  0  0  0  0  0  0  0  0  0  0
  188.9370  176.4620  137.0180 C   0  0  0  0  0  0  0  0  0  0  0  0
  190.2820  174.4970  136.2660 C   0  0  0  0  0  3  0  0  0  0  0  0
  193.4700  176.6100  137.4240 C   0  0  0  0  0  1  0  0  0  0  0  0
  191.4460  171.7730  135.0440 C   0  0  0  0  0  1  0  0  0  0  0  0
  191.0990  176.1610  137.8210 N   0  0  0  0  0  0  0  0  0  0  0  0
  191.5880  173.8390  136.4270 C   0  0  0  0  0  0  0  0  0  0  0  0
  190.8800  178.6790  143.8920 C   0  0  0  0  0  2  0  0  0  0  0  0
  189.6510  176.7460  142.0010 C   0  0  1  0  0  3  0  0  0  0  0  0
  191.4800  177.4210  140.7190 N   0  0  0  0  0  0  0  0  0  0  0  0
  191.7370  177.6120  143.2100 C   0  0  0  0  0  2  0  0  0  0  0  0
  190.4870  177.1800  139.9340 C   0  0  0  0  0  0  0  0  0  0  0  0
  189.4290  178.2080  144.0660 C   0  0  1  0  0  3  0  0  0  0  0  0
  191.0530  177.1370  142.0170 N   0  0  0  0  0  0  0  0  0  0  0  0
  188.8150  177.8110  142.7180 C   0  0  0  0  0  2  0  0  0  0  0  0
  189.3470  176.7620  140.6130 O   0  0  0  0  0  0  0  0  0  0  0  0
  189.3190  177.0720  145.0750 C   0  0  0  0  0  2  0  0  0  0  0  0
  189.1940  177.5070  147.5530 C   0  0  0  0  0  0  0  0  0  0  0  0
  188.6000  177.5250  146.2550 N   0  0  0  0  0  2  0  0  0  0  0  0
  188.4000  177.9450  148.7300 C   0  0  0  0  0  1  0  0  0  0  0  0
  190.3880  177.1320  147.7090 O   0  0  0  0  0  0  0  0  0  0  0  0
  1 23  1  1  0  0  0
  2  7  1  0  0  0  0
  3  2  1  0  0  0  0
  4 15  1  6  0  0  0
  5  4  1  0  0  0  0
  6 10  1  0  0  0  0
  6 18  2  0  0  0  0
  8  7  1  0  0  0  0
  8  1  1  0  0  0  0
  9 13  1  0  0  0  0
  9 17  1  0  0  0  0
 10 11  1  0  0  0  0
 11  5  2  0  0  0  0
 12  3  1  0  0  0  0
 12 13  1  0  0  0  0
 13  8  2  0  0  0  0
 14 18  1  0  0  0  0
 14  9  2  0  0  0  0
 16  6  1  0  0  0  0
 17  4  1  0  0  0  0
 17  1  1  0  0  0  0
 18  5  1  0  0  0  0
 19 24  1  0  0  0  0
 20 25  1  0  0  0  0
 20 26  1  1  0  0  0
 21 25  1  0  0  0  0
 22 19  1  0  0  0  0
 23 27  1  0  0  0  0
 23 21  2  0  0  0  0
 24 28  1  1  0  0  0
 25 22  1  0  0  0  0
 26 24  1  0  0  0  0
 27 20  1  0  0  0  0
 28 30  1  0  0  0  0
 29 32  2  0  0  0  0
 29 31  1  0  0  0  0
 30 29  1  0  0  0  0
M  END
>  <MODEL>
1

>  <REMARK>
 VINA RESULT:      -8.5      0.000      0.000
  Name = 
  3 active torsions:
  status: ('A' for Active; 'I' for Inactive)
    1  A    between atoms: C_3  and  C_14
    2  A    between atoms: N_10  and  C_24
    3  A    between atoms: C_19  and  C_24
                            x       y       z     vdW  Elec       q    Type
                         _______ _______ _______ _____ _____    ______ ____

>  <TORSDO>
F 3

$$$$
=
 OpenBabel10262421373D

 32 37  0  0  1  0  0  0  0  0999 V2000
  190.1020  177.2140  138.5860 C   0  0  2  0  0  3  0  0  0  0  0  0
  186.2960  177.6400  137.6900 C   0  0  0  0  0  2  0  0  0  0  0  0
  186.4230  177.0180  136.2900 C   0  0  0  0  0  2  0  0  0  0  0  0
  192.1500  175.6250  138.1350 C   0  0  1  0  0  3  0  0  0  0  0  0
  192.4000  174.3810  137.3190 C   0  0  0  0  0  0  0  0  0  0  0  0
  192.1200  172.6900  135.8950 C   0  0  0  0  0  0  0  0  0  0  0  0
  187.6430  178.2190  138.1480 C   0  0  0  0  0  2  0  0  0  0  0  0
  188.7440  177.2250  137.9250 C   0  0  0  0  0  0  0  0  0  0  0  0
  189.8620  175.5130  136.9930 C   0  0  0  0  0  0  0  0  0  0  0  0
  193.3850  172.5720  136.4480 O   0  0  0  0  0  0  0  0  0  0  0  0
  193.5990  173.6040  137.3370 N   0  0  0  0  0  0  0  0  0  0  0  0
  187.4850  176.0580  136.2560 O   0  0  0  0  0  0  0  0  0  0  0  0
  188.6380  176.2670  137.0150 C   0  0  0  0  0  0  0  0  0  0  0  0
  190.1650  174.4390  136.2650 C   0  0  0  0  0  3  0  0  0  0  0  0
  193.1160  176.7150  137.7070 C   0  0  0  0  0  1  0  0  0  0  0  0
  191.5960  171.8650  135.0010 C   0  0  0  0  0  1  0  0  0  0  0  0
  190.7660  176.0810  137.9370 N   0  0  0  0  0  0  0  0  0  0  0  0
  191.5040  173.8690  136.4770 C   0  0  0  0  0  0  0  0  0  0  0  0
  191.2160  177.5290  144.0690 C   0  0  0  0  0  2  0  0  0  0  0  0
  189.0580  176.8780  142.1340 C   0  0  1  0  0  3  0  0  0  0  0  0
  190.9150  176.4900  140.7760 N   0  0  0  0  0  0  0  0  0  0  0  0
  191.2730  176.2390  143.2500 C   0  0  0  0  0  2  0  0  0  0  0  0
  189.9580  176.9540  140.0500 C   0  0  0  0  0  0  0  0  0  0  0  0
  189.7670  177.9760  144.3120 C   0  0  1  0  0  3  0  0  0  0  0  0
  190.4230  176.3760  142.0780 N   0  0  0  0  0  0  0  0  0  0  0  0
  189.0160  178.1510  142.9870 C   0  0  0  0  0  2  0  0  0  0  0  0
  188.8000  177.2100  140.7770 O   0  0  0  0  0  0  0  0  0  0  0  0
  189.0270  177.0200  145.2400 C   0  0  0  0  0  2  0  0  0  0  0  0
  186.7940  177.9340  145.9590 C   0  0  0  0  0  0  0  0  0  0  0  0
  188.1960  177.7710  146.1670 N   0  0  0  0  0  2  0  0  0  0  0  0
  185.9980  178.7440  146.9180 C   0  0  0  0  0  1  0  0  0  0  0  0
  186.2210  177.3910  144.9760 O   0  0  0  0  0  0  0  0  0  0  0  0
  1 23  1  1  0  0  0
  2  7  1  0  0  0  0
  3  2  1  0  0  0  0
  4 15  1  6  0  0  0
  5 11  2  0  0  0  0
  5  4  1  0  0  0  0
  6 10  1  0  0  0  0
  6 18  2  0  0  0  0
  8  7  1  0  0  0  0
  8  1  1  0  0  0  0
  9 13  1  0  0  0  0
  9 17  1  0  0  0  0
 10 11  1  0  0  0  0
 12  3  1  0  0  0  0
 12 13  1  0  0  0  0
 13  8  2  0  0  0  0
 14 18  1  0  0  0  0
 14  9  2  0  0  0  0
 16  6  1  0  0  0  0
 17  4  1  0  0  0  0
 17  1  1  0  0  0  0
 18  5  1  0  0  0  0
 19 24  1  0  0  0  0
 20 26  1  1  0  0  0
 21 25  1  0  0  0  0
 22 19  1  0  0  0  0
 23 21  2  0  0  0  0
 23 27  1  0  0  0  0
 24 28  1  1  0  0  0
 25 20  1  0  0  0  0
 25 22  1  0  0  0  0
 26 24  1  0  0  0  0
 27 20  1  0  0  0  0
 28 30  1  0  0  0  0
 29 30  1  0  0  0  0
 29 31  1  0  0  0  0
 32 29  2  0  0  0  0
M  END
>  <MODEL>
2

>  <REMARK>
 VINA RESULT:      -8.1      1.278      1.291
  Name = 
  3 active torsions:
  status: ('A' for Active; 'I' for Inactive)
    1  A    between atoms: C_3  and  C_14
    2  A    between atoms: N_10  and  C_24
    3  A    between atoms: C_19  and  C_24
                            x       y       z     vdW  Elec       q    Type
                         _______ _______ _______ _____ _____    ______ ____

>  <TORSDO>
F 3

$$$$
=
 OpenBabel10262421373D

 32 37  0  0  1  0  0  0  0  0999 V2000
  185.4880  179.1230  141.4690 C   0  0  2  0  0  3  0  0  0  0  0  0
  183.5460  179.1310  144.8890 C   0  0  0  0  0  2  0  0  0  0  0  0
  182.1570  178.9840  144.2480 C   0  0  0  0  0  2  0  0  0  0  0  0
  185.3610  178.1190  139.0400 C   0  0  1  0  0  3  0  0  0  0  0  0
  184.4030  177.2360  138.2790 C   0  0  0  0  0  0  0  0  0  0  0  0
  182.6130  176.0240  137.7400 C   0  0  0  0  0  0  0  0  0  0  0  0
  184.5330  179.7720  143.9000 C   0  0  0  0  0  2  0  0  0  0  0  0
  184.4490  179.0950  142.5640 C   0  0  0  0  0  0  0  0  0  0  0  0
  183.5540  177.9580  140.8450 C   0  0  0  0  0  0  0  0  0  0  0  0
  183.4990  175.9660  136.6750 O   0  0  0  0  0  0  0  0  0  0  0  0
  184.6230  176.7090  136.9690 N   0  0  0  0  0  0  0  0  0  0  0  0
  182.2430  178.2770  143.0060 O   0  0  0  0  0  0  0  0  0  0  0  0
  183.3570  178.4470  142.1830 C   0  0  0  0  0  0  0  0  0  0  0  0
  182.7330  177.2180  140.1010 C   0  0  0  0  0  3  0  0  0  0  0  0
  185.5300  179.4370  138.3060 C   0  0  0  0  0  1  0  0  0  0  0  0
  181.4330  175.4230  137.7850 C   0  0  0  0  0  1  0  0  0  0  0  0
  184.8420  178.3670  140.3940 N   0  0  0  0  0  0  0  0  0  0  0  0
  183.2240  176.8510  138.7640 C   0  0  0  0  0  0  0  0  0  0  0  0
  190.7610  178.4810  143.2540 C   0  0  0  0  0  2  0  0  0  0  0  0
  188.1250  177.1170  143.1470 C   0  0  1  0  0  3  0  0  0  0  0  0
  187.8700  178.5780  141.3450 N   0  0  0  0  0  0  0  0  0  0  0  0
  190.2260  177.9330  141.9300 C   0  0  0  0  0  2  0  0  0  0  0  0
  186.7260  178.4190  141.9180 C   0  0  0  0  0  0  0  0  0  0  0  0
  190.2320  177.6760  144.4500 C   0  0  1  0  0  3  0  0  0  0  0  0
  188.7830  177.7710  142.0260 N   0  0  0  0  0  0  0  0  0  0  0  0
  188.6990  177.6540  144.4610 C   0  0  0  0  0  2  0  0  0  0  0  0
  186.7790  177.5520  143.0050 O   0  0  0  0  0  0  0  0  0  0  0  0
  190.8020  176.2630  144.4790 C   0  0  0  0  0  2  0  0  0  0  0  0
  191.4180  176.1730  146.9180 C   0  0  0  0  0  0  0  0  0  0  0  0
  191.7880  176.1470  145.5410 N   0  0  0  0  0  2  0  0  0  0  0  0
  192.4710  176.0890  147.9640 C   0  0  0  0  0  1  0  0  0  0  0  0
  190.2070  176.2570  147.2590 O   0  0  0  0  0  0  0  0  0  0  0  0
  1 23  1  1  0  0  0
  1  8  1  0  0  0  0
  3  2  1  0  0  0  0
  4 15  1  6  0  0  0
  4 17  1  0  0  0  0
  5 18  1  0  0  0  0
  5  4  1  0  0  0  0
  6 16  1  0  0  0  0
  6 18  2  0  0  0  0
  7  2  1  0  0  0  0
  8  7  1  0  0  0  0
  9 13  1  0  0  0  0
 10 11  1  0  0  0  0
 10  6  1  0  0  0  0
 11  5  2  0  0  0  0
 12  3  1  0  0  0  0
 13  8  2  0  0  0  0
 13 12  1  0  0  0  0
 14  9  2  0  0  0  0
 17  9  1  0  0  0  0
 17  1  1  0  0  0  0
 18 14  1  0  0  0  0
 19 24  1  0  0  0  0
 20 26  1  1  0  0  0
 21 23  2  0  0  0  0
 21 25  1  0  0  0  0
 22 25  1  0  0  0  0
 22 19  1  0  0  0  0
 23 27  1  0  0  0  0
 24 26  1  0  0  0  0
 24 28  1  6  0  0  0
 25 20  1  0  0  0  0
 27 20  1  0  0  0  0
 28 30  1  0  0  0  0
 29 32  2  0  0  0  0
 29 31  1  0  0  0  0
 30 29  1  0  0  0  0
M  END
>  <MODEL>
3

>  <REMARK>
 VINA RESULT:      -7.7      4.818      6.716
  Name = 
  3 active torsions:
  status: ('A' for Active; 'I' for Inactive)
    1  A    between atoms: C_3  and  C_14
    2  A    between atoms: N_10  and  C_24
    3  A    between atoms: C_19  and  C_24
                            x       y       z     vdW  Elec       q    Type
                         _______ _______ _______ _____ _____    ______ ____

>  <TORSDO>
F 3

$$$$
=
 OpenBabel10262421373D

 32 37  0  0  1  0  0  0  0  0999 V2000
  187.2850  178.0960  138.3420 C   0  0  2  0  0  3  0  0  0  0  0  0
  183.3620  178.3720  138.4240 C   0  0  0  0  0  2  0  0  0  0  0  0
  183.1400  177.4050  137.2490 C   0  0  0  0  0  2  0  0  0  0  0  0
  189.2100  176.3930  137.7780 C   0  0  1  0  0  3  0  0  0  0  0  0
  189.2900  174.9740  137.2720 C   0  0  0  0  0  0  0  0  0  0  0  0
  188.7200  172.9810  136.4570 C   0  0  0  0  0  0  0  0  0  0  0  0
  184.7550  179.0160  138.3390 C   0  0  0  0  0  2  0  0  0  0  0  0
  185.8010  177.9700  138.0900 C   0  0  0  0  0  0  0  0  0  0  0  0
  186.7080  176.0480  137.3620 C   0  0  0  0  0  0  0  0  0  0  0  0
  190.0910  172.9770  136.6610 O   0  0  0  0  0  0  0  0  0  0  0  0
  190.4860  174.1990  137.1640 N   0  0  0  0  0  0  0  0  0  0  0  0
  184.1980  176.4430  137.1770 O   0  0  0  0  0  0  0  0  0  0  0  0
  185.5010  176.8120  137.5190 C   0  0  0  0  0  0  0  0  0  0  0  0
  186.8560  174.8150  136.8790 C   0  0  0  0  0  3  0  0  0  0  0  0
  189.9760  177.3110  136.8420 C   0  0  0  0  0  1  0  0  0  0  0  0
  188.0160  171.9660  135.9790 C   0  0  0  0  0  1  0  0  0  0  0  0
  187.8030  176.8170  137.8500 N   0  0  0  0  0  0  0  0  0  0  0  0
  188.2280  174.2850  136.8620 C   0  0  0  0  0  0  0  0  0  0  0  0
  187.0440  176.8870  143.8080 C   0  0  0  0  0  2  0  0  0  0  0  0
  188.6650  178.3300  141.7810 C   0  0  1  0  0  3  0  0  0  0  0  0
  186.6070  178.3170  140.6820 N   0  0  0  0  0  0  0  0  0  0  0  0
  186.5300  178.1870  143.1890 C   0  0  0  0  0  2  0  0  0  0  0  0
  187.5480  178.2270  139.8060 C   0  0  0  0  0  0  0  0  0  0  0  0
  188.5790  176.8480  143.8420 C   0  0  1  0  0  3  0  0  0  0  0  0
  187.2210  178.4250  141.9310 N   0  0  0  0  0  0  0  0  0  0  0  0
  189.1630  177.0390  142.4380 C   0  0  0  0  0  2  0  0  0  0  0  0
  188.8190  178.2340  140.3710 O   0  0  0  0  0  0  0  0  0  0  0  0
  189.1490  177.8700  144.8180 C   0  0  0  0  0  2  0  0  0  0  0  0
  188.9350  177.5010  147.3000 C   0  0  0  0  0  0  0  0  0  0  0  0
  188.3690  177.8750  146.0450 N   0  0  0  0  0  2  0  0  0  0  0  0
  188.0810  177.4870  148.5160 C   0  0  0  0  0  1  0  0  0  0  0  0
  190.1540  177.1900  147.3890 O   0  0  0  0  0  0  0  0  0  0  0  0
  1 23  1  1  0  0  0
  3  2  1  0  0  0  0
  4 15  1  6  0  0  0
  4 17  1  0  0  0  0
  5  4  1  0  0  0  0
  6 10  1  0  0  0  0
  6 18  2  0  0  0  0
  7  2  1  0  0  0  0
  8  7  1  0  0  0  0
  8  1  1  0  0  0  0
  9 13  1  0  0  0  0
  9 17  1  0  0  0  0
 10 11  1  0  0  0  0
 11  5  2  0  0  0  0
 12  3  1  0  0  0  0
 12 13  1  0  0  0  0
 13  8  2  0  0  0  0
 14  9  2  0  0  0  0
 16  6  1  0  0  0  0
 17  1  1  0  0  0  0
 18 14  1  0  0  0  0
 18  5  1  0  0  0  0
 19 24  1  0  0  0  0
 20 25  1  0  0  0  0
 20 26  1  1  0  0  0
 21 25  1  0  0  0  0
 22 19  1  0  0  0  0
 23 27  1  0  0  0  0
 23 21  2  0  0  0  0
 24 28  1  1  0  0  0
 25 22  1  0  0  0  0
 26 24  1  0  0  0  0
 27 20  1  0  0  0  0
 28 30  1  0  0  0  0
 29 32  2  0  0  0  0
 29 31  1  0  0  0  0
 30 29  1  0  0  0  0
M  END
>  <MODEL>
4

>  <REMARK>
 VINA RESULT:      -7.7      2.364      3.172
  Name = 
  3 active torsions:
  status: ('A' for Active; 'I' for Inactive)
    1  A    between atoms: C_3  and  C_14
    2  A    between atoms: N_10  and  C_24
    3  A    between atoms: C_19  and  C_24
                            x       y       z     vdW  Elec       q    Type
                         _______ _______ _______ _____ _____    ______ ____

>  <TORSDO>
F 3

$$$$
=
 OpenBabel10262421373D

 32 37  0  0  1  0  0  0  0  0999 V2000
  185.8460  178.3700  138.2730 C   0  0  2  0  0  3  0  0  0  0  0  0
  182.2610  179.4530  139.4740 C   0  0  0  0  0  2  0  0  0  0  0  0
  181.5130  178.5590  138.4710 C   0  0  0  0  0  2  0  0  0  0  0  0
  187.1380  176.3070  137.2730 C   0  0  1  0  0  3  0  0  0  0  0  0
  186.7800  174.9050  136.8470 C   0  0  0  0  0  0  0  0  0  0  0  0
  185.6090  173.0770  136.3480 C   0  0  0  0  0  0  0  0  0  0  0  0
  183.6650  179.7940  138.9530 C   0  0  0  0  0  2  0  0  0  0  0  0
  184.3600  178.5560  138.4700 C   0  0  0  0  0  0  0  0  0  0  0  0
  184.6090  176.4900  137.6210 C   0  0  0  0  0  0  0  0  0  0  0  0
  186.9490  172.7880  136.1450 O   0  0  0  0  0  0  0  0  0  0  0  0
  187.7110  173.8990  136.4420 N   0  0  0  0  0  0  0  0  0  0  0  0
  182.2880  177.3990  138.1510 O   0  0  0  0  0  0  0  0  0  0  0  0
  183.6800  177.4880  138.0780 C   0  0  0  0  0  0  0  0  0  0  0  0
  184.3580  175.2560  137.1870 C   0  0  0  0  0  3  0  0  0  0  0  0
  187.7600  177.0510  136.1050 C   0  0  0  0  0  1  0  0  0  0  0  0
  184.6070  172.2320  136.1530 C   0  0  0  0  0  1  0  0  0  0  0  0
  185.9300  177.0140  137.7260 N   0  0  0  0  0  0  0  0  0  0  0  0
  185.5290  174.4530  136.8030 C   0  0  0  0  0  0  0  0  0  0  0  0
  187.5360  176.7590  143.3680 C   0  0  0  0  0  2  0  0  0  0  0  0
  188.2260  178.5700  141.1170 C   0  0  1  0  0  3  0  0  0  0  0  0
  185.9400  178.3210  140.7170 N   0  0  0  0  0  0  0  0  0  0  0  0
  186.6950  178.0060  143.0920 C   0  0  0  0  0  2  0  0  0  0  0  0
  186.5500  178.4360  139.5880 C   0  0  0  0  0  0  0  0  0  0  0  0
  188.9920  176.9520  142.9180 C   0  0  1  0  0  3  0  0  0  0  0  0
  186.9070  178.4340  141.7180 N   0  0  0  0  0  0  0  0  0  0  0  0
  189.0630  177.3270  141.4330 C   0  0  0  0  0  2  0  0  0  0  0  0
  187.9250  178.5980  139.7280 O   0  0  0  0  0  0  0  0  0  0  0  0
  189.7190  177.9770  143.7790 C   0  0  0  0  0  2  0  0  0  0  0  0
  190.6450  176.9510  145.8840 C   0  0  0  0  0  0  0  0  0  0  0  0
  190.7940  177.3330  144.5170 N   0  0  0  0  0  2  0  0  0  0  0  0
  191.7890  176.3300  146.6020 C   0  0  0  0  0  1  0  0  0  0  0  0
  189.5510  177.1250  146.4870 O   0  0  0  0  0  0  0  0  0  0  0  0
  1  8  1  0  0  0  0
  1 23  1  1  0  0  0
  3  2  1  0  0  0  0
  4 15  1  6  0  0  0
  4 17  1  0  0  0  0
  5  4  1  0  0  0  0
  6 18  2  0  0  0  0
  7  2  1  0  0  0  0
  8  7  1  0  0  0  0
  9 17  1  0  0  0  0
  9 13  1  0  0  0  0
 10  6  1  0  0  0  0
 10 11  1  0  0  0  0
 11  5  2  0  0  0  0
 12  3  1  0  0  0  0
 13 12  1  0  0  0  0
 13  8  2  0  0  0  0
 14  9  2  0  0  0  0
 16  6  1  0  0  0  0
 17  1  1  0  0  0  0
 18  5  1  0  0  0  0
 18 14  1  0  0  0  0
 20 26  1  6  0  0  0
 20 25  1  0  0  0  0
 21 25  1  0  0  0  0
 22 19  1  0  0  0  0
 23 27  1  0  0  0  0
 23 21  2  0  0  0  0
 24 19  1  0  0  0  0
 24 28  1  1  0  0  0
 25 22  1  0  0  0  0
 26 24  1  0  0  0  0
 27 20  1  0  0  0  0
 28 30  1  0  0  0  0
 29 32  2  0  0  0  0
 29 31  1  0  0  0  0
 30 29  1  0  0  0  0
M  END
>  <MODEL>
5

>  <REMARK>
 VINA RESULT:      -7.6      3.602      4.853
  Name = 
  3 active torsions:
  status: ('A' for Active; 'I' for Inactive)
    1  A    between atoms: C_3  and  C_14
    2  A    between atoms: N_10  and  C_24
    3  A    between atoms: C_19  and  C_24
                            x       y       z     vdW  Elec       q    Type
                         _______ _______ _______ _____ _____    ______ ____

>  <TORSDO>
F 3

$$$$
=
 OpenBabel10262421373D

 32 37  0  0  1  0  0  0  0  0999 V2000
  190.6530  176.4960  137.7840 C   0  0  2  0  0  3  0  0  0  0  0  0
  187.2220  174.6770  137.1600 C   0  0  0  0  0  2  0  0  0  0  0  0
  187.8120  173.6040  136.2300 C   0  0  0  0  0  2  0  0  0  0  0  0
  193.2320  176.0060  137.9640 C   0  0  1  0  0  3  0  0  0  0  0  0
  194.1180  174.7920  137.8310 C   0  0  0  0  0  0  0  0  0  0  0  0
  194.8190  172.7150  137.4350 C   0  0  0  0  0  0  0  0  0  0  0  0
  188.0960  175.9410  137.1510 C   0  0  0  0  0  2  0  0  0  0  0  0
  189.5410  175.5800  137.3320 C   0  0  0  0  0  0  0  0  0  0  0  0
  191.4190  174.3500  137.2420 C   0  0  0  0  0  0  0  0  0  0  0  0
  195.9120  173.4570  137.8540 O   0  0  0  0  0  0  0  0  0  0  0  0
  195.5190  174.7540  138.1080 N   0  0  0  0  0  0  0  0  0  0  0  0
  189.1800  173.3420  136.5630 O   0  0  0  0  0  0  0  0  0  0  0  0
  190.0000  174.3780  137.0140 C   0  0  0  0  0  0  0  0  0  0  0  0
  192.2650  173.3300  137.0980 C   0  0  0  0  0  3  0  0  0  0  0  0
  193.6730  177.0680  136.9730 C   0  0  0  0  0  1  0  0  0  0  0  0
  194.8470  171.4320  137.1060 C   0  0  0  0  0  1  0  0  0  0  0  0
  191.8330  175.6320  137.7030 N   0  0  0  0  0  0  0  0  0  0  0  0
  193.6720  173.6030  137.4310 C   0  0  0  0  0  0  0  0  0  0  0  0
  188.0050  177.0830  142.6880 C   0  0  0  0  0  2  0  0  0  0  0  0
  190.7010  177.1330  141.4420 C   0  0  1  0  0  3  0  0  0  0  0  0
  189.4060  177.6190  139.5630 N   0  0  0  0  0  0  0  0  0  0  0  0
  188.4200  178.2460  141.7870 C   0  0  0  0  0  2  0  0  0  0  0  0
  190.4250  176.9220  139.1970 C   0  0  0  0  0  0  0  0  0  0  0  0
  189.2180  176.4540  143.3890 C   0  0  1  0  0  3  0  0  0  0  0  0
  189.5250  177.8270  140.9390 N   0  0  0  0  0  0  0  0  0  0  0  0
  190.2650  175.9930  142.3690 C   0  0  0  0  0  2  0  0  0  0  0  0
  191.2640  176.5890  140.2560 O   0  0  0  0  0  0  0  0  0  0  0  0
  189.8310  177.4000  144.4150 C   0  0  0  0  0  2  0  0  0  0  0  0
  189.2220  177.2080  146.8510 C   0  0  0  0  0  0  0  0  0  0  0  0
  188.9050  177.6040  145.5180 N   0  0  0  0  0  2  0  0  0  0  0  0
  188.2240  177.4050  147.9340 C   0  0  0  0  0  1  0  0  0  0  0  0
  190.3450  176.7000  147.1230 O   0  0  0  0  0  0  0  0  0  0  0  0
  1 23  1  1  0  0  0
  3 12  1  0  0  0  0
  3  2  1  0  0  0  0
  4 15  1  6  0  0  0
  5  4  1  0  0  0  0
  5 11  2  0  0  0  0
  6 10  1  0  0  0  0
  7  2  1  0  0  0  0
  7  8  1  0  0  0  0
  8  1  1  0  0  0  0
  9 17  1  0  0  0  0
 10 11  1  0  0  0  0
 12 13  1  0  0  0  0
 13  9  1  0  0  0  0
 13  8  2  0  0  0  0
 14  9  2  0  0  0  0
 14 18  1  0  0  0  0
 16  6  1  0  0  0  0
 17  1  1  0  0  0  0
 17  4  1  0  0  0  0
 18  6  2  0  0  0  0
 18  5  1  0  0  0  0
 19 24  1  0  0  0  0
 20 26  1  1  0  0  0
 21 25  1  0  0  0  0
 22 19  1  0  0  0  0
 23 21  2  0  0  0  0
 23 27  1  0  0  0  0
 24 28  1  1  0  0  0
 25 20  1  0  0  0  0
 25 22  1  0  0  0  0
 26 24  1  0  0  0  0
 27 20  1  0  0  0  0
 28 30  1  0  0  0  0
 29 32  2  0  0  0  0
 29 31  1  0  0  0  0
 30 29  1  0  0  0  0
M  END
>  <MODEL>
6

>  <REMARK>
 VINA RESULT:      -7.4      1.723      2.316
  Name = 
  3 active torsions:
  status: ('A' for Active; 'I' for Inactive)
    1  A    between atoms: C_3  and  C_14
    2  A    between atoms: N_10  and  C_24
    3  A    between atoms: C_19  and  C_24
                            x       y       z     vdW  Elec       q    Type
                         _______ _______ _______ _____ _____    ______ ____

>  <TORSDO>
F 3

$$$$
=
 OpenBabel10262421373D

 32 37  0  0  1  0  0  0  0  0999 V2000
  184.1410  178.3580  139.2770 C   0  0  2  0  0  3  0  0  0  0  0  0
  181.0280  178.5950  141.6690 C   0  0  0  0  0  2  0  0  0  0  0  0
  180.1410  177.6710  140.8190 C   0  0  0  0  0  2  0  0  0  0  0  0
  185.3370  176.6960  137.6240 C   0  0  1  0  0  3  0  0  0  0  0  0
  185.0820  175.2980  137.1180 C   0  0  0  0  0  0  0  0  0  0  0  0
  184.1110  173.3310  136.7270 C   0  0  0  0  0  0  0  0  0  0  0  0
  182.1110  179.2540  140.8020 C   0  0  0  0  0  2  0  0  0  0  0  0
  182.7930  178.2290  139.9460 C   0  0  0  0  0  0  0  0  0  0  0  0
  183.0670  176.3430  138.7540 C   0  0  0  0  0  0  0  0  0  0  0  0
  185.3370  173.3330  136.0820 O   0  0  0  0  0  0  0  0  0  0  0  0
  185.9720  174.5380  136.2980 N   0  0  0  0  0  0  0  0  0  0  0  0
  180.9390  176.7220  140.1020 O   0  0  0  0  0  0  0  0  0  0  0  0
  182.1970  177.0900  139.6210 C   0  0  0  0  0  0  0  0  0  0  0  0
  182.8830  175.1310  138.2330 C   0  0  0  0  0  3  0  0  0  0  0  0
  185.4160  177.6560  136.4510 C   0  0  0  0  0  1  0  0  0  0  0  0
  183.2460  172.3290  136.7210 C   0  0  0  0  0  1  0  0  0  0  0  0
  184.2500  177.1040  138.5290 N   0  0  0  0  0  0  0  0  0  0  0  0
  183.9720  174.6150  137.3900 C   0  0  0  0  0  0  0  0  0  0  0  0
  187.5230  176.6820  143.4190 C   0  0  0  0  0  2  0  0  0  0  0  0
  187.2750  178.6890  141.2420 C   0  0  1  0  0  3  0  0  0  0  0  0
  185.0180  178.1850  141.5540 N   0  0  0  0  0  0  0  0  0  0  0  0
  186.5210  177.8310  143.5350 C   0  0  0  0  0  2  0  0  0  0  0  0
  185.2200  178.4370  140.3070 C   0  0  0  0  0  0  0  0  0  0  0  0
  188.7320  177.0770  142.5570 C   0  0  1  0  0  3  0  0  0  0  0  0
  186.2380  178.3580  142.2090 N   0  0  0  0  0  0  0  0  0  0  0  0
  188.2870  177.5410  141.1660 C   0  0  0  0  0  2  0  0  0  0  0  0
  186.5440  178.7570  140.0250 O   0  0  0  0  0  0  0  0  0  0  0  0
  189.5930  178.1340  143.2390 C   0  0  0  0  0  2  0  0  0  0  0  0
  190.5220  177.3990  145.4610 C   0  0  0  0  0  0  0  0  0  0  0  0
  190.6230  177.4930  144.0410 N   0  0  0  0  0  2  0  0  0  0  0  0
  191.6220  176.7680  146.2360 C   0  0  0  0  0  1  0  0  0  0  0  0
  189.5060  177.8370  146.0650 O   0  0  0  0  0  0  0  0  0  0  0  0
  1  8  1  0  0  0  0
  1 23  1  1  0  0  0
  3  2  1  0  0  0  0
  4 15  1  6  0  0  0
  4 17  1  0  0  0  0
  5 18  1  0  0  0  0
  5  4  1  0  0  0  0
  6 18  2  0  0  0  0
  7  2  1  0  0  0  0
  8  7  1  0  0  0  0
  9 13  1  0  0  0  0
 10 11  1  0  0  0  0
 10  6  1  0  0  0  0
 11  5  2  0  0  0  0
 12  3  1  0  0  0  0
 13  8  2  0  0  0  0
 13 12  1  0  0  0  0
 14  9  2  0  0  0  0
 16  6  1  0  0  0  0
 17  9  1  0  0  0  0
 17  1  1  0  0  0  0
 18 14  1  0  0  0  0
 19 22  1  0  0  0  0
 20 26  1  6  0  0  0
 20 25  1  0  0  0  0
 21 25  1  0  0  0  0
 23 21  2  0  0  0  0
 24 28  1  1  0  0  0
 24 19  1  0  0  0  0
 25 22  1  0  0  0  0
 26 24  1  0  0  0  0
 27 23  1  0  0  0  0
 27 20  1  0  0  0  0
 28 30  1  0  0  0  0
 29 32  2  0  0  0  0
 29 31  1  0  0  0  0
 30 29  1  0  0  0  0
M  END
>  <MODEL>
7

>  <REMARK>
 VINA RESULT:      -7.2      4.464      6.190
  Name = 
  3 active torsions:
  status: ('A' for Active; 'I' for Inactive)
    1  A    between atoms: C_3  and  C_14
    2  A    between atoms: N_10  and  C_24
    3  A    between atoms: C_19  and  C_24
                            x       y       z     vdW  Elec       q    Type
                         _______ _______ _______ _____ _____    ______ ____

>  <TORSDO>
F 3

$$$$
=
 OpenBabel10262421373D

 32 37  0  0  1  0  0  0  0  0999 V2000
  184.0960  178.9260  140.9190 C   0  0  2  0  0  3  0  0  0  0  0  0
  186.0530  178.2530  137.5740 C   0  0  0  0  0  2  0  0  0  0  0  0
  187.4400  178.5160  138.1820 C   0  0  0  0  0  2  0  0  0  0  0  0
  184.3520  178.6980  143.5270 C   0  0  1  0  0  3  0  0  0  0  0  0
  185.4300  178.2330  144.4760 C   0  0  0  0  0  0  0  0  0  0  0  0
  187.3830  177.5230  145.2770 C   0  0  0  0  0  0  0  0  0  0  0  0
  184.9650  178.9880  138.3710 C   0  0  0  0  0  2  0  0  0  0  0  0
  185.1390  178.7470  139.8420 C   0  0  0  0  0  0  0  0  0  0  0  0
  186.1830  178.3080  141.7820 C   0  0  0  0  0  0  0  0  0  0  0  0
  186.5050  177.6370  146.3430 O   0  0  0  0  0  0  0  0  0  0  0  0
  185.2800  178.0780  145.8880 N   0  0  0  0  0  0  0  0  0  0  0  0
  187.4530  178.1930  139.5770 O   0  0  0  0  0  0  0  0  0  0  0  0
  186.3160  178.4160  140.3550 C   0  0  0  0  0  0  0  0  0  0  0  0
  187.1030  177.9530  142.6790 C   0  0  0  0  0  3  0  0  0  0  0  0
  183.9660  180.1280  143.8580 C   0  0  0  0  0  1  0  0  0  0  0  0
  188.6440  177.1280  145.3650 C   0  0  0  0  0  1  0  0  0  0  0  0
  184.8410  178.6230  142.1420 N   0  0  0  0  0  0  0  0  0  0  0  0
  186.6600  177.9140  144.0810 C   0  0  0  0  0  0  0  0  0  0  0  0
  179.2690  176.7990  139.0260 C   0  0  0  0  0  2  0  0  0  0  0  0
  181.8980  176.0270  140.1720 C   0  0  1  0  0  3  0  0  0  0  0  0
  181.7580  178.2100  140.9820 N   0  0  0  0  0  0  0  0  0  0  0  0
  179.5770  177.0600  140.5010 C   0  0  0  0  0  2  0  0  0  0  0  0
  182.9920  177.9380  140.7330 C   0  0  0  0  0  0  0  0  0  0  0  0
  180.0420  175.5820  138.4970 C   0  0  1  0  0  3  0  0  0  0  0  0
  181.0190  177.0610  140.6970 N   0  0  0  0  0  0  0  0  0  0  0  0
  181.5510  175.7570  138.7040 C   0  0  0  0  0  2  0  0  0  0  0  0
  183.1750  176.6460  140.2490 O   0  0  0  0  0  0  0  0  0  0  0  0
  179.5480  174.2830  139.1210 C   0  0  0  0  0  2  0  0  0  0  0  0
  179.6190  172.3130  137.5540 C   0  0  0  0  0  0  0  0  0  0  0  0
  178.9400  173.4420  138.1020 N   0  0  0  0  0  2  0  0  0  0  0  0
  178.9670  171.5090  136.4880 C   0  0  0  0  0  1  0  0  0  0  0  0
  180.7630  171.9840  137.9710 O   0  0  0  0  0  0  0  0  0  0  0  0
  1 23  1  6  0  0  0
  1 17  1  0  0  0  0
  2  3  1  0  0  0  0
  2  7  1  0  0  0  0
  3 12  1  0  0  0  0
  4 15  1  1  0  0  0
  4  5  1  0  0  0  0
  5 11  2  0  0  0  0
  6 16  1  0  0  0  0
  6 10  1  0  0  0  0
  7  8  1  0  0  0  0
  8 13  2  0  0  0  0
  8  1  1  0  0  0  0
  9 17  1  0  0  0  0
  9 14  2  0  0  0  0
 11 10  1  0  0  0  0
 12 13  1  0  0  0  0
 13  9  1  0  0  0  0
 14 18  1  0  0  0  0
 17  4  1  0  0  0  0
 18  5  1  0  0  0  0
 18  6  2  0  0  0  0
 19 22  1  0  0  0  0
 20 26  1  6  0  0  0
 20 27  1  0  0  0  0
 20 25  1  0  0  0  0
 22 25  1  0  0  0  0
 23 21  2  0  0  0  0
 24 26  1  0  0  0  0
 24 19  1  0  0  0  0
 24 28  1  1  0  0  0
 25 21  1  0  0  0  0
 27 23  1  0  0  0  0
 29 32  2  0  0  0  0
 29 30  1  0  0  0  0
 30 28  1  0  0  0  0
 31 29  1  0  0  0  0
M  END
>  <MODEL>
8

>  <REMARK>
 VINA RESULT:      -6.9      5.910     10.138
  Name = 
  3 active torsions:
  status: ('A' for Active; 'I' for Inactive)
    1  A    between atoms: C_3  and  C_14
    2  A    between atoms: N_10  and  C_24
    3  A    between atoms: C_19  and  C_24
                            x       y       z     vdW  Elec       q    Type
                         _______ _______ _______ _____ _____    ______ ____

>  <TORSDO>
F 3

$$$$
=
 OpenBabel10262421373D

 32 37  0  0  1  0  0  0  0  0999 V2000
  186.2740  178.1480  137.9870 C   0  0  2  0  0  3  0  0  0  0  0  0
  190.0980  177.2290  138.0380 C   0  0  0  0  0  2  0  0  0  0  0  0
  190.3950  177.9820  139.3440 C   0  0  0  0  0  2  0  0  0  0  0  0
  184.2570  178.6240  139.6090 C   0  0  1  0  0  3  0  0  0  0  0  0
  184.0590  178.6960  141.1020 C   0  0  0  0  0  0  0  0  0  0  0  0
  184.4630  178.7320  143.2930 C   0  0  0  0  0  0  0  0  0  0  0  0
  188.8670  177.8240  137.3380 C   0  0  0  0  0  2  0  0  0  0  0  0
  187.7410  177.9950  138.3140 C   0  0  0  0  0  0  0  0  0  0  0  0
  186.7080  178.3200  140.2830 C   0  0  0  0  0  0  0  0  0  0  0  0
  183.0950  178.8650  143.1130 O   0  0  0  0  0  0  0  0  0  0  0  0
  182.8030  178.8490  141.7660 N   0  0  0  0  0  0  0  0  0  0  0  0
  189.2350  178.0160  140.1840 O   0  0  0  0  0  0  0  0  0  0  0  0
  187.9640  178.1140  139.6150 C   0  0  0  0  0  0  0  0  0  0  0  0
  186.4690  178.4410  141.5880 C   0  0  0  0  0  3  0  0  0  0  0  0
  183.8430  179.9400  138.9760 C   0  0  0  0  0  1  0  0  0  0  0  0
  185.0820  178.7120  144.4640 C   0  0  0  0  0  1  0  0  0  0  0  0
  185.6710  178.3500  139.3060 N   0  0  0  0  0  0  0  0  0  0  0  0
  185.0620  178.6240  141.9760 C   0  0  0  0  0  0  0  0  0  0  0  0
  184.8700  172.7380  137.5790 C   0  0  0  0  0  2  0  0  0  0  0  0
  184.3250  175.4120  136.4050 C   0  0  1  0  0  3  0  0  0  0  0  0
  186.4480  175.8100  137.2870 N   0  0  0  0  0  0  0  0  0  0  0  0
  185.9160  173.4260  136.7010 C   0  0  0  0  0  2  0  0  0  0  0  0
  185.7520  176.8910  137.3720 C   0  0  0  0  0  0  0  0  0  0  0  0
  183.4460  173.1630  137.1930 C   0  0  1  0  0  3  0  0  0  0  0  0
  185.6450  174.8550  136.6610 N   0  0  0  0  0  0  0  0  0  0  0  0
  183.2880  174.6860  137.2680 C   0  0  0  0  0  2  0  0  0  0  0  0
  184.4660  176.7500  136.8610 O   0  0  0  0  0  0  0  0  0  0  0  0
  183.0500  172.6360  135.8190 C   0  0  0  0  0  2  0  0  0  0  0  0
  180.6510  171.8840  135.9630 C   0  0  0  0  0  0  0  0  0  0  0  0
  182.0480  171.5920  135.9560 N   0  0  0  0  0  2  0  0  0  0  0  0
  179.6710  170.7830  136.1460 C   0  0  0  0  0  1  0  0  0  0  0  0
  180.2400  173.0660  135.8080 O   0  0  0  0  0  0  0  0  0  0  0  0
  1 23  1  1  0  0  0
  1  8  1  0  0  0  0
  1 17  1  0  0  0  0
  2  3  1  0  0  0  0
  3 12  1  0  0  0  0
  4 15  1  6  0  0  0
  4  5  1  0  0  0  0
  5 11  2  0  0  0  0
  5 18  1  0  0  0  0
  6 16  1  0  0  0  0
  7  2  1  0  0  0  0
  7  8  1  0  0  0  0
  8 13  2  0  0  0  0
  9 14  2  0  0  0  0
 10  6  1  0  0  0  0
 11 10  1  0  0  0  0
 13 12  1  0  0  0  0
 13  9  1  0  0  0  0
 14 18  1  0  0  0  0
 17  4  1  0  0  0  0
 17  9  1  0  0  0  0
 18  6  2  0  0  0  0
 20 25  1  0  0  0  0
 20 27  1  0  0  0  0
 20 26  1  1  0  0  0
 21 23  2  0  0  0  0
 22 19  1  0  0  0  0
 24 28  1  6  0  0  0
 24 26  1  0  0  0  0
 24 19  1  0  0  0  0
 25 22  1  0  0  0  0
 25 21  1  0  0  0  0
 27 23  1  0  0  0  0
 28 30  1  0  0  0  0
 29 31  1  0  0  0  0
 30 29  1  0  0  0  0
 32 29  2  0  0  0  0
M  END
>  <MODEL>
9

>  <REMARK>
 VINA RESULT:      -6.7      4.987      9.716
  Name = 
  3 active torsions:
  status: ('A' for Active; 'I' for Inactive)
    1  A    between atoms: C_3  and  C_14
    2  A    between atoms: N_10  and  C_24
    3  A    between atoms: C_19  and  C_24
                            x       y       z     vdW  Elec       q    Type
                         _______ _______ _______ _____ _____    ______ ____

>  <TORSDO>
F 3

$$$$
