=
 OpenBabel10262420043D

 27 31  0  0  1  0  0  0  0  0999 V2000
  188.2740  176.1310  143.4440 C   0  0  0  0  0  2  0  0  0  0  0  0
  186.7050  177.7440  144.5850 C   0  0  1  0  0  3  0  0  0  0  0  0
  186.8750  178.4420  142.2680 O   0  0  0  0  0  0  0  0  0  0  0  0
  182.6060  178.8990  144.3930 C   0  0  0  0  0  3  0  0  0  0  0  0
  180.6110  179.7610  143.1640 C   0  0  0  0  0  1  0  0  0  0  0  0
  185.7390  177.1650  145.6110 C   0  0  0  0  0  2  0  0  0  0  0  0
  184.0390  178.6650  142.0050 C   0  0  0  0  0  3  0  0  0  0  0  0
  188.9780  178.1990  139.4970 C   0  0  0  0  0  3  0  0  0  0  0  0
  182.7230  179.1340  141.9880 C   0  0  0  0  0  3  0  0  0  0  0  0
  189.8040  177.1630  139.3790 C   0  0  0  0  0  3  0  0  0  0  0  0
  184.6570  178.3260  143.2160 C   0  0  0  0  0  0  0  0  0  0  0  0
  187.9630  176.9880  144.5860 N   0  0  0  0  0  0  0  0  0  0  0  0
  182.0090  179.2550  143.1820 C   0  0  0  0  0  0  0  0  0  0  0  0
  183.9180  178.4160  144.4190 C   0  0  0  0  0  0  0  0  0  0  0  0
  188.8030  176.9450  142.3020 C   0  0  0  0  0  0  0  0  0  0  0  0
  186.0490  177.7420  143.1960 C   0  0  2  0  0  3  0  0  0  0  0  0
  188.7770  178.9110  140.7910 C   0  0  0  0  0  2  0  0  0  0  0  0
  184.5380  178.0930  145.7490 C   0  0  0  0  0  2  0  0  0  0  0  0
  190.5350  176.5540  140.5060 C   0  0  0  0  0  3  0  0  0  0  0  0
  190.1030  176.4720  141.7700 C   0  0  0  0  0  3  0  0  0  0  0  0
  188.1440  178.0300  141.8170 C   0  0  0  0  0  0  0  0  0  0  0  0
  190.8620  177.6130  147.6380 C   0  0  0  0  0  3  0  0  0  0  0  0
  188.9470  177.2020  145.6200 C   0  0  0  0  0  0  0  0  0  0  0  0
  190.2980  176.8840  145.4000 C   0  0  0  0  0  3  0  0  0  0  0  0
  191.2500  177.0890  146.4030 C   0  0  0  0  0  3  0  0  0  0  0  0
  189.5220  177.9330  147.8700 C   0  0  0  0  0  3  0  0  0  0  0  0
  188.5710  177.7280  146.8670 C   0  0  0  0  0  3  0  0  0  0  0  0
  1 12  1  0  0  0  0
  2 12  1  0  0  0  0
  2  6  1  1  0  0  0
  4 14  1  0  0  0  0
  5 13  1  0  0  0  0
  6 18  1  0  0  0  0
  7 11  1  0  0  0  0
  8 17  1  0  0  0  0
  9  7  2  0  0  0  0
  9 13  1  0  0  0  0
 10  8  2  0  0  0  0
 10 19  1  0  0  0  0
 11 14  2  0  0  0  0
 12 23  1  0  0  0  0
 13  4  2  0  0  0  0
 14 18  1  0  0  0  0
 15  1  1  0  0  0  0
 16  3  1  6  0  0  0
 16 11  1  0  0  0  0
 16  2  1  0  0  0  0
 17 21  1  0  0  0  0
 19 20  2  0  0  0  0
 20 15  1  0  0  0  0
 21  3  1  0  0  0  0
 21 15  2  0  0  0  0
 22 26  1  0  0  0  0
 23 27  1  0  0  0  0
 24 23  2  0  0  0  0
 24 25  1  0  0  0  0
 25 22  2  0  0  0  0
 27 26  2  0  0  0  0
M  END
>  <MODEL>
1

>  <REMARK>
 VINA RESULT:      -9.7      0.000      0.000
  Name = 
  1 active torsions:
  status: ('A' for Active; 'I' for Inactive)
    1  A    between atoms: C_9  and  N_15
                            x       y       z     vdW  Elec       q    Type
                         _______ _______ _______ _____ _____    ______ ____

>  <TORSDO>
F 1

$$$$
=
 OpenBabel10262420043D

 27 31  0  0  1  0  0  0  0  0999 V2000
  189.6330  178.5750  144.5280 C   0  0  0  0  0  2  0  0  0  0  0  0
  190.2650  177.1980  142.5100 C   0  0  1  0  0  3  0  0  0  0  0  0
  187.8560  177.4790  142.4490 O   0  0  0  0  0  0  0  0  0  0  0  0
  190.1800  177.5220  138.2600 C   0  0  0  0  0  3  0  0  0  0  0  0
  188.9850  177.8790  136.0980 C   0  0  0  0  0  1  0  0  0  0  0  0
  191.5510  177.5780  141.7860 C   0  0  0  0  0  2  0  0  0  0  0  0
  187.8990  178.2520  139.6990 C   0  0  0  0  0  3  0  0  0  0  0  0
  185.1410  178.1670  144.5250 C   0  0  0  0  0  3  0  0  0  0  0  0
  187.8750  178.2530  138.3020 C   0  0  0  0  0  3  0  0  0  0  0  0
  185.3220  178.8580  145.6470 C   0  0  0  0  0  3  0  0  0  0  0  0
  189.0560  177.8690  140.3910 C   0  0  0  0  0  0  0  0  0  0  0  0
  190.3920  177.4690  143.9470 N   0  0  0  0  0  0  0  0  0  0  0  0
  189.0130  177.8840  137.5840 C   0  0  0  0  0  0  0  0  0  0  0  0
  190.2190  177.5300  139.6580 C   0  0  0  0  0  0  0  0  0  0  0  0
  188.2090  178.1720  144.7640 C   0  0  0  0  0  0  0  0  0  0  0  0
  189.0800  177.9590  141.8970 C   0  0  2  0  0  3  0  0  0  0  0  0
  186.0790  177.0910  144.0960 C   0  0  0  0  0  2  0  0  0  0  0  0
  191.4790  177.0860  140.3450 C   0  0  0  0  0  2  0  0  0  0  0  0
  186.4900  178.7080  146.5340 C   0  0  0  0  0  3  0  0  0  0  0  0
  187.7350  178.4010  146.1480 C   0  0  0  0  0  3  0  0  0  0  0  0
  187.4370  177.6310  143.7850 C   0  0  0  0  0  0  0  0  0  0  0  0
  192.5600  174.8160  146.4710 C   0  0  0  0  0  3  0  0  0  0  0  0
  191.1290  176.5690  144.8020 C   0  0  0  0  0  0  0  0  0  0  0  0
  191.6810  175.3830  144.2890 C   0  0  0  0  0  3  0  0  0  0  0  0
  192.3930  174.5120  145.1180 C   0  0  0  0  0  3  0  0  0  0  0  0
  192.0160  175.9910  146.9940 C   0  0  0  0  0  3  0  0  0  0  0  0
  191.3060  176.8630  146.1640 C   0  0  0  0  0  3  0  0  0  0  0  0
  1 15  1  0  0  0  0
  2  6  1  6  0  0  0
  2 12  1  0  0  0  0
  3 21  1  0  0  0  0
  4 14  1  0  0  0  0
  5 13  1  0  0  0  0
  7 11  1  0  0  0  0
  8 10  2  0  0  0  0
  9  7  2  0  0  0  0
 10 19  1  0  0  0  0
 12  1  1  0  0  0  0
 12 23  1  0  0  0  0
 13  4  2  0  0  0  0
 13  9  1  0  0  0  0
 14 18  1  0  0  0  0
 14 11  2  0  0  0  0
 15 20  1  0  0  0  0
 16 11  1  6  0  0  0
 16  3  1  0  0  0  0
 16  2  1  0  0  0  0
 17  8  1  0  0  0  0
 18  6  1  0  0  0  0
 20 19  2  0  0  0  0
 21 17  1  0  0  0  0
 21 15  2  0  0  0  0
 22 26  1  0  0  0  0
 23 27  1  0  0  0  0
 24 23  2  0  0  0  0
 24 25  1  0  0  0  0
 25 22  2  0  0  0  0
 27 26  2  0  0  0  0
M  END
>  <MODEL>
2

>  <REMARK>
 VINA RESULT:      -8.9      2.002      5.779
  Name = 
  1 active torsions:
  status: ('A' for Active; 'I' for Inactive)
    1  A    between atoms: C_9  and  N_15
                            x       y       z     vdW  Elec       q    Type
                         _______ _______ _______ _____ _____    ______ ____

>  <TORSDO>
F 1

$$$$
=
 OpenBabel10262420043D

 27 31  0  0  1  0  0  0  0  0999 V2000
  188.6490  179.1040  141.4970 C   0  0  0  0  0  2  0  0  0  0  0  0
  186.3650  178.1660  140.9770 C   0  0  1  0  0  3  0  0  0  0  0  0
  186.8200  177.6720  143.3080 O   0  0  0  0  0  0  0  0  0  0  0  0
  182.3100  178.7890  142.1380 C   0  0  0  0  0  3  0  0  0  0  0  0
  180.5020  178.9220  143.8540 C   0  0  0  0  0  1  0  0  0  0  0  0
  185.4670  178.9920  140.0640 C   0  0  0  0  0  2  0  0  0  0  0  0
  184.2610  178.6380  144.1340 C   0  0  0  0  0  3  0  0  0  0  0  0
  189.4660  177.2920  145.5460 C   0  0  0  0  0  3  0  0  0  0  0  0
  182.9120  178.7450  144.4810 C   0  0  0  0  0  3  0  0  0  0  0  0
  190.6210  177.9120  145.3190 C   0  0  0  0  0  3  0  0  0  0  0  0
  184.6470  178.5880  142.7880 C   0  0  0  0  0  0  0  0  0  0  0  0
  187.7730  178.3460  140.6050 N   0  0  0  0  0  0  0  0  0  0  0  0
  181.9370  178.8160  143.4840 C   0  0  0  0  0  0  0  0  0  0  0  0
  183.6590  178.6960  141.7800 C   0  0  0  0  0  0  0  0  0  0  0  0
  189.0970  178.2520  142.6450 C   0  0  0  0  0  0  0  0  0  0  0  0
  186.1160  178.5590  142.4420 C   0  0  2  0  0  3  0  0  0  0  0  0
  188.7060  176.6080  144.4620 C   0  0  0  0  0  2  0  0  0  0  0  0
  184.0110  178.6200  140.3220 C   0  0  0  0  0  2  0  0  0  0  0  0
  191.2290  178.0690  143.9860 C   0  0  0  0  0  3  0  0  0  0  0  0
  190.5660  178.2050  142.8310 C   0  0  0  0  0  3  0  0  0  0  0  0
  188.2190  177.5740  143.4320 C   0  0  0  0  0  0  0  0  0  0  0  0
  189.3950  176.3320  137.2250 C   0  0  0  0  0  3  0  0  0  0  0  0
  188.3230  177.6610  139.4600 C   0  0  0  0  0  0  0  0  0  0  0  0
  189.6000  177.0780  139.5190 C   0  0  0  0  0  3  0  0  0  0  0  0
  190.1320  176.4160  138.4090 C   0  0  0  0  0  3  0  0  0  0  0  0
  188.1240  176.9080  137.1530 C   0  0  0  0  0  3  0  0  0  0  0  0
  187.5920  177.5680  138.2640 C   0  0  0  0  0  3  0  0  0  0  0  0
  1 15  1  0  0  0  0
  2  6  1  6  0  0  0
  2 16  1  0  0  0  0
  3 21  1  0  0  0  0
  4 13  1  0  0  0  0
  6 18  1  0  0  0  0
  7  9  1  0  0  0  0
 10  8  2  0  0  0  0
 11  7  2  0  0  0  0
 12  2  1  0  0  0  0
 12  1  1  0  0  0  0
 13  5  1  0  0  0  0
 13  9  2  0  0  0  0
 14  4  2  0  0  0  0
 14 11  1  0  0  0  0
 15 20  1  0  0  0  0
 15 21  2  0  0  0  0
 16 11  1  1  0  0  0
 16  3  1  0  0  0  0
 17  8  1  0  0  0  0
 18 14  1  0  0  0  0
 19 10  1  0  0  0  0
 20 19  2  0  0  0  0
 21 17  1  0  0  0  0
 22 25  1  0  0  0  0
 23 24  1  0  0  0  0
 23 12  1  0  0  0  0
 25 24  2  0  0  0  0
 26 22  2  0  0  0  0
 26 27  1  0  0  0  0
 27 23  2  0  0  0  0
M  END
>  <MODEL>
3

>  <REMARK>
 VINA RESULT:      -8.9      1.624      5.082
  Name = 
  1 active torsions:
  status: ('A' for Active; 'I' for Inactive)
    1  A    between atoms: C_9  and  N_15
                            x       y       z     vdW  Elec       q    Type
                         _______ _______ _______ _____ _____    ______ ____

>  <TORSDO>
F 1

$$$$
=
 OpenBabel10262420043D

 27 31  0  0  1  0  0  0  0  0999 V2000
  188.9900  178.7430  140.1340 C   0  0  0  0  0  2  0  0  0  0  0  0
  186.5810  178.0000  140.0230 C   0  0  1  0  0  3  0  0  0  0  0  0
  187.4330  177.3200  142.1910 O   0  0  0  0  0  0  0  0  0  0  0  0
  182.8870  178.8190  141.9860 C   0  0  0  0  0  3  0  0  0  0  0  0
  181.4560  178.9590  144.0280 C   0  0  0  0  0  1  0  0  0  0  0  0
  185.5940  178.9440  139.3480 C   0  0  0  0  0  2  0  0  0  0  0  0
  185.1640  178.4010  143.5510 C   0  0  0  0  0  3  0  0  0  0  0  0
  190.4190  176.6120  143.8440 C   0  0  0  0  0  3  0  0  0  0  0  0
  183.9190  178.5760  144.1600 C   0  0  0  0  0  3  0  0  0  0  0  0
  191.5550  177.1660  143.4280 C   0  0  0  0  0  3  0  0  0  0  0  0
  185.2810  178.4160  142.1540 C   0  0  0  0  0  0  0  0  0  0  0  0
  187.9020  178.1080  139.3920 N   0  0  0  0  0  0  0  0  0  0  0  0
  182.7810  178.7800  143.3790 C   0  0  0  0  0  0  0  0  0  0  0  0
  184.1300  178.6580  141.3670 C   0  0  0  0  0  0  0  0  0  0  0  0
  189.5800  177.7870  141.1260 C   0  0  0  0  0  0  0  0  0  0  0  0
  186.6490  178.3100  141.5260 C   0  0  2  0  0  3  0  0  0  0  0  0
  189.4140  176.0560  142.8950 C   0  0  0  0  0  2  0  0  0  0  0  0
  184.1900  178.6560  139.8660 C   0  0  0  0  0  2  0  0  0  0  0  0
  191.9080  177.3710  142.0110 C   0  0  0  0  0  3  0  0  0  0  0  0
  191.0490  177.6280  141.0180 C   0  0  0  0  0  3  0  0  0  0  0  0
  188.8170  177.1200  142.0330 C   0  0  0  0  0  0  0  0  0  0  0  0
  188.6880  176.2110  135.6650 C   0  0  0  0  0  3  0  0  0  0  0  0
  188.1660  177.4650  138.1270 C   0  0  0  0  0  0  0  0  0  0  0  0
  187.4110  176.3530  137.7160 C   0  0  0  0  0  3  0  0  0  0  0  0
  187.6700  175.7310  136.4920 C   0  0  0  0  0  3  0  0  0  0  0  0
  189.4460  177.3160  136.0610 C   0  0  0  0  0  3  0  0  0  0  0  0
  189.1860  177.9390  137.2850 C   0  0  0  0  0  3  0  0  0  0  0  0
  1 15  1  0  0  0  0
  2  6  1  6  0  0  0
  2 16  1  0  0  0  0
  4 13  1  0  0  0  0
  6 18  1  0  0  0  0
  7  9  1  0  0  0  0
 10  8  2  0  0  0  0
 11  7  2  0  0  0  0
 12  2  1  0  0  0  0
 12  1  1  0  0  0  0
 13  5  1  0  0  0  0
 13  9  2  0  0  0  0
 14  4  2  0  0  0  0
 14 11  1  0  0  0  0
 15 21  2  0  0  0  0
 16 11  1  1  0  0  0
 16  3  1  0  0  0  0
 17  8  1  0  0  0  0
 18 14  1  0  0  0  0
 19 10  1  0  0  0  0
 20 15  1  0  0  0  0
 20 19  2  0  0  0  0
 21  3  1  0  0  0  0
 21 17  1  0  0  0  0
 22 26  2  0  0  0  0
 22 25  1  0  0  0  0
 23 12  1  0  0  0  0
 24 23  1  0  0  0  0
 25 24  2  0  0  0  0
 26 27  1  0  0  0  0
 27 23  2  0  0  0  0
M  END
>  <MODEL>
4

>  <REMARK>
 VINA RESULT:      -8.2      2.224      5.667
  Name = 
  1 active torsions:
  status: ('A' for Active; 'I' for Inactive)
    1  A    between atoms: C_9  and  N_15
                            x       y       z     vdW  Elec       q    Type
                         _______ _______ _______ _____ _____    ______ ____

>  <TORSDO>
F 1

$$$$
=
 OpenBabel10262420043D

 27 31  0  0  1  0  0  0  0  0999 V2000
  187.1660  179.3570  140.9570 C   0  0  0  0  0  2  0  0  0  0  0  0
  186.0580  178.2880  142.9560 C   0  0  1  0  0  3  0  0  0  0  0  0
  188.2720  177.3150  142.7700 O   0  0  0  0  0  0  0  0  0  0  0  0
  186.5790  178.0970  147.1830 C   0  0  0  0  0  3  0  0  0  0  0  0
  187.9300  177.5860  149.2190 C   0  0  0  0  0  1  0  0  0  0  0  0
  185.1960  179.1860  143.8350 C   0  0  0  0  0  2  0  0  0  0  0  0
  188.8120  177.7240  145.5450 C   0  0  0  0  0  3  0  0  0  0  0  0
  190.8140  176.7530  140.4510 C   0  0  0  0  0  3  0  0  0  0  0  0
  188.9270  177.5720  146.9290 C   0  0  0  0  0  3  0  0  0  0  0  0
  190.9360  177.5510  139.3930 C   0  0  0  0  0  3  0  0  0  0  0  0
  187.5780  178.0450  144.9640 C   0  0  0  0  0  0  0  0  0  0  0  0
  185.9900  178.7290  141.5580 N   0  0  0  0  0  0  0  0  0  0  0  0
  187.8100  177.7540  147.7470 C   0  0  0  0  0  0  0  0  0  0  0  0
  186.4570  178.2640  145.8000 C   0  0  0  0  0  0  0  0  0  0  0  0
  188.1670  178.3200  140.5480 C   0  0  0  0  0  0  0  0  0  0  0  0
  187.5030  178.2860  143.4760 C   0  0  2  0  0  3  0  0  0  0  0  0
  189.4900  176.2560  140.9220 C   0  0  0  0  0  2  0  0  0  0  0  0
  185.1030  178.5830  145.2310 C   0  0  0  0  0  2  0  0  0  0  0  0
  189.7980  178.0970  138.6320 C   0  0  0  0  0  3  0  0  0  0  0  0
  188.5990  178.4180  139.1330 C   0  0  0  0  0  3  0  0  0  0  0  0
  188.6210  177.3700  141.4070 C   0  0  0  0  0  0  0  0  0  0  0  0
  182.6110  177.7890  139.1480 C   0  0  0  0  0  3  0  0  0  0  0  0
  184.8430  178.4120  140.7420 C   0  0  0  0  0  0  0  0  0  0  0  0
  183.6780  177.8780  141.3190 C   0  0  0  0  0  3  0  0  0  0  0  0
  182.5690  177.5700  140.5270 C   0  0  0  0  0  3  0  0  0  0  0  0
  183.7630  178.3190  138.5610 C   0  0  0  0  0  3  0  0  0  0  0  0
  184.8720  178.6280  139.3540 C   0  0  0  0  0  3  0  0  0  0  0  0
  1 12  1  0  0  0  0
  2 16  1  0  0  0  0
  2  6  1  1  0  0  0
  4 13  1  0  0  0  0
  6 18  1  0  0  0  0
  7  9  1  0  0  0  0
  8 17  1  0  0  0  0
  9 13  2  0  0  0  0
 10  8  2  0  0  0  0
 11  7  2  0  0  0  0
 11 14  1  0  0  0  0
 12  2  1  0  0  0  0
 13  5  1  0  0  0  0
 14  4  2  0  0  0  0
 15  1  1  0  0  0  0
 15 21  2  0  0  0  0
 16  3  1  6  0  0  0
 16 11  1  0  0  0  0
 17 21  1  0  0  0  0
 18 14  1  0  0  0  0
 19 20  2  0  0  0  0
 19 10  1  0  0  0  0
 20 15  1  0  0  0  0
 21  3  1  0  0  0  0
 22 25  1  0  0  0  0
 23 24  1  0  0  0  0
 23 12  1  0  0  0  0
 25 24  2  0  0  0  0
 26 22  2  0  0  0  0
 26 27  1  0  0  0  0
 27 23  2  0  0  0  0
M  END
>  <MODEL>
5

>  <REMARK>
 VINA RESULT:      -8.2      1.803      5.884
  Name = 
  1 active torsions:
  status: ('A' for Active; 'I' for Inactive)
    1  A    between atoms: C_9  and  N_15
                            x       y       z     vdW  Elec       q    Type
                         _______ _______ _______ _____ _____    ______ ____

>  <TORSDO>
F 1

$$$$
=
 OpenBabel10262420043D

 27 31  0  0  1  0  0  0  0  0999 V2000
  189.3120  178.2070  137.9450 C   0  0  0  0  0  2  0  0  0  0  0  0
  188.3620  177.4960  140.1720 C   0  0  1  0  0  3  0  0  0  0  0  0
  190.3890  176.2090  139.8230 O   0  0  0  0  0  0  0  0  0  0  0  0
  189.4310  177.6300  144.2970 C   0  0  0  0  0  3  0  0  0  0  0  0
  190.9740  177.1280  146.1940 C   0  0  0  0  0  1  0  0  0  0  0  0
  187.7500  178.5840  141.0450 C   0  0  0  0  0  2  0  0  0  0  0  0
  191.3530  176.7960  142.4480 C   0  0  0  0  0  3  0  0  0  0  0  0
  192.4960  175.0810  137.2850 C   0  0  0  0  0  3  0  0  0  0  0  0
  191.6360  176.7600  143.8150 C   0  0  0  0  0  3  0  0  0  0  0  0
  192.5710  175.7510  136.1380 C   0  0  0  0  0  3  0  0  0  0  0  0
  190.1020  177.2310  141.9920 C   0  0  0  0  0  0  0  0  0  0  0  0
  188.1600  177.8090  138.7530 N   0  0  0  0  0  0  0  0  0  0  0  0
  190.6740  177.1730  144.7390 C   0  0  0  0  0  0  0  0  0  0  0  0
  189.1420  177.6820  142.9300 C   0  0  0  0  0  0  0  0  0  0  0  0
  190.1080  177.0060  137.5330 C   0  0  0  0  0  0  0  0  0  0  0  0
  189.8530  177.3400  140.5070 C   0  0  2  0  0  3  0  0  0  0  0  0
  191.1970  174.8210  137.9680 C   0  0  0  0  0  2  0  0  0  0  0  0
  187.7750  178.1330  142.5010 C   0  0  0  0  0  2  0  0  0  0  0  0
  191.4180  176.3780  135.4670 C   0  0  0  0  0  3  0  0  0  0  0  0
  190.3500  176.9090  136.0740 C   0  0  0  0  0  3  0  0  0  0  0  0
  190.5510  176.0860  138.4300 C   0  0  0  0  0  0  0  0  0  0  0  0
  184.3880  177.1290  136.9040 C   0  0  0  0  0  3  0  0  0  0  0  0
  186.8810  177.5810  138.1250 C   0  0  0  0  0  0  0  0  0  0  0  0
  185.7310  178.2540  138.5730 C   0  0  0  0  0  3  0  0  0  0  0  0
  184.4930  178.0310  137.9660 C   0  0  0  0  0  3  0  0  0  0  0  0
  185.5220  176.4520  136.4490 C   0  0  0  0  0  3  0  0  0  0  0  0
  186.7610  176.6770  137.0560 C   0  0  0  0  0  3  0  0  0  0  0  0
  1 12  1  0  0  0  0
  2 16  1  0  0  0  0
  2  6  1  1  0  0  0
  4 13  1  0  0  0  0
  6 18  1  0  0  0  0
  7  9  1  0  0  0  0
  8 17  1  0  0  0  0
  9 13  2  0  0  0  0
 10  8  2  0  0  0  0
 11  7  2  0  0  0  0
 11 14  1  0  0  0  0
 12  2  1  0  0  0  0
 13  5  1  0  0  0  0
 14  4  2  0  0  0  0
 15  1  1  0  0  0  0
 15 21  2  0  0  0  0
 16  3  1  6  0  0  0
 16 11  1  0  0  0  0
 17 21  1  0  0  0  0
 18 14  1  0  0  0  0
 19 20  2  0  0  0  0
 19 10  1  0  0  0  0
 20 15  1  0  0  0  0
 21  3  1  0  0  0  0
 22 25  1  0  0  0  0
 23 24  1  0  0  0  0
 23 12  1  0  0  0  0
 25 24  2  0  0  0  0
 26 22  2  0  0  0  0
 26 27  1  0  0  0  0
 27 23  2  0  0  0  0
M  END
>  <MODEL>
6

>  <REMARK>
 VINA RESULT:      -8.1      3.366      7.413
  Name = 
  1 active torsions:
  status: ('A' for Active; 'I' for Inactive)
    1  A    between atoms: C_9  and  N_15
                            x       y       z     vdW  Elec       q    Type
                         _______ _______ _______ _____ _____    ______ ____

>  <TORSDO>
F 1

$$$$
=
 OpenBabel10262420043D

 27 31  0  0  1  0  0  0  0  0999 V2000
  188.8780  176.3800  141.8190 C   0  0  0  0  0  2  0  0  0  0  0  0
  187.4150  177.9480  143.1480 C   0  0  1  0  0  3  0  0  0  0  0  0
  187.0760  178.4790  140.8050 O   0  0  0  0  0  0  0  0  0  0  0  0
  183.2670  178.7630  143.6960 C   0  0  0  0  0  3  0  0  0  0  0  0
  181.0040  179.3710  142.8330 C   0  0  0  0  0  1  0  0  0  0  0  0
  186.7190  177.3750  144.3760 C   0  0  0  0  0  2  0  0  0  0  0  0
  184.2330  178.4610  141.0920 C   0  0  0  0  0  3  0  0  0  0  0  0
  188.6260  178.1910  137.6950 C   0  0  0  0  0  3  0  0  0  0  0  0
  182.9010  178.8230  141.3060 C   0  0  0  0  0  3  0  0  0  0  0  0
  189.5050  177.2160  137.4790 C   0  0  0  0  0  3  0  0  0  0  0  0
  185.1000  178.2630  142.1750 C   0  0  0  0  0  0  0  0  0  0  0  0
  188.7140  177.2940  142.9470 N   0  0  0  0  0  0  0  0  0  0  0  0
  182.4200  178.9780  142.6070 C   0  0  0  0  0  0  0  0  0  0  0  0
  184.5980  178.3870  143.4930 C   0  0  0  0  0  0  0  0  0  0  0  0
  189.1040  177.1430  140.5490 C   0  0  0  0  0  0  0  0  0  0  0  0
  186.5090  177.7890  141.9170 C   0  0  2  0  0  3  0  0  0  0  0  0
  188.6110  178.9820  138.9580 C   0  0  0  0  0  2  0  0  0  0  0  0
  185.4870  178.2140  144.6920 C   0  0  0  0  0  2  0  0  0  0  0  0
  190.4900  176.7530  138.4740 C   0  0  0  0  0  3  0  0  0  0  0  0
  190.3160  176.7340  139.8010 C   0  0  0  0  0  3  0  0  0  0  0  0
  188.2680  178.1340  140.1390 C   0  0  0  0  0  0  0  0  0  0  0  0
  192.0770  178.3700  145.3220 C   0  0  0  0  0  3  0  0  0  0  0  0
  189.8530  177.6610  143.7530 C   0  0  0  0  0  0  0  0  0  0  0  0
  190.5740  178.8370  143.4830 C   0  0  0  0  0  3  0  0  0  0  0  0
  191.6780  179.1900  144.2630 C   0  0  0  0  0  3  0  0  0  0  0  0
  191.3690  177.1990  145.6010 C   0  0  0  0  0  3  0  0  0  0  0  0
  190.2640  176.8470  144.8220 C   0  0  0  0  0  3  0  0  0  0  0  0
  1 12  1  0  0  0  0
  2  6  1  1  0  0  0
  6 18  1  0  0  0  0
  7  9  2  0  0  0  0
  7 11  1  0  0  0  0
  8 17  1  0  0  0  0
  9 13  1  0  0  0  0
 10  8  2  0  0  0  0
 10 19  1  0  0  0  0
 11 14  2  0  0  0  0
 12  2  1  0  0  0  0
 12 23  1  0  0  0  0
 13  5  1  0  0  0  0
 13  4  2  0  0  0  0
 14  4  1  0  0  0  0
 14 18  1  0  0  0  0
 15  1  1  0  0  0  0
 16  3  1  6  0  0  0
 16 11  1  0  0  0  0
 16  2  1  0  0  0  0
 17 21  1  0  0  0  0
 19 20  2  0  0  0  0
 20 15  1  0  0  0  0
 21 15  2  0  0  0  0
 21  3  1  0  0  0  0
 22 26  1  0  0  0  0
 23 27  1  0  0  0  0
 24 23  2  0  0  0  0
 24 25  1  0  0  0  0
 25 22  2  0  0  0  0
 27 26  2  0  0  0  0
M  END
>  <MODEL>
7

>  <REMARK>
 VINA RESULT:      -8.1      1.408      1.865
  Name = 
  1 active torsions:
  status: ('A' for Active; 'I' for Inactive)
    1  A    between atoms: C_9  and  N_15
                            x       y       z     vdW  Elec       q    Type
                         _______ _______ _______ _____ _____    ______ ____

>  <TORSDO>
F 1

$$$$
=
 OpenBabel10262420043D

 27 31  0  0  1  0  0  0  0  0999 V2000
  188.2030  179.2160  141.3400 C   0  0  0  0  0  2  0  0  0  0  0  0
  187.9110  177.8270  143.4260 C   0  0  1  0  0  3  0  0  0  0  0  0
  189.6230  176.7460  142.0900 O   0  0  0  0  0  0  0  0  0  0  0  0
  190.1780  176.6760  146.8480 C   0  0  0  0  0  3  0  0  0  0  0  0
  192.1730  175.6280  147.9230 C   0  0  0  0  0  1  0  0  0  0  0  0
  187.6830  178.5760  144.7330 C   0  0  0  0  0  2  0  0  0  0  0  0
  191.3780  176.4950  144.3300 C   0  0  0  0  0  3  0  0  0  0  0  0
  190.7680  176.5050  138.8050 C   0  0  0  0  0  3  0  0  0  0  0  0
  192.0550  176.0360  145.4630 C   0  0  0  0  0  3  0  0  0  0  0  0
  190.5500  177.5030  137.9520 C   0  0  0  0  0  3  0  0  0  0  0  0
  190.0890  177.0320  144.4420 C   0  0  0  0  0  0  0  0  0  0  0  0
  187.3180  178.5660  142.3050 N   0  0  0  0  0  0  0  0  0  0  0  0
  191.4540  176.1230  146.7190 C   0  0  0  0  0  0  0  0  0  0  0  0
  189.4970  177.1500  145.7220 C   0  0  0  0  0  0  0  0  0  0  0  0
  188.7340  178.2180  140.3560 C   0  0  0  0  0  0  0  0  0  0  0  0
  189.4150  177.5970  143.2150 C   0  0  2  0  0  3  0  0  0  0  0  0
  189.7180  176.0240  139.7470 C   0  0  0  0  0  2  0  0  0  0  0  0
  188.1070  177.6910  145.8990 C   0  0  0  0  0  2  0  0  0  0  0  0
  189.3050  178.2900  137.8970 C   0  0  0  0  0  3  0  0  0  0  0  0
  188.5170  178.5870  138.9380 C   0  0  0  0  0  3  0  0  0  0  0  0
  189.3480  177.0700  140.7470 C   0  0  0  0  0  0  0  0  0  0  0  0
  183.1220  178.4430  141.6070 C   0  0  0  0  0  3  0  0  0  0  0  0
  185.8950  178.5260  142.0700 C   0  0  0  0  0  0  0  0  0  0  0  0
  184.9990  178.2930  143.1270 C   0  0  0  0  0  3  0  0  0  0  0  0
  183.6220  178.2530  142.8980 C   0  0  0  0  0  3  0  0  0  0  0  0
  184.0010  178.6760  140.5470 C   0  0  0  0  0  3  0  0  0  0  0  0
  185.3790  178.7180  140.7770 C   0  0  0  0  0  3  0  0  0  0  0  0
  1 12  1  0  0  0  0
  2  6  1  1  0  0  0
  6 18  1  0  0  0  0
  7 11  2  0  0  0  0
  7  9  1  0  0  0  0
  8 17  1  0  0  0  0
  9 13  2  0  0  0  0
 10  8  2  0  0  0  0
 11 14  1  0  0  0  0
 12  2  1  0  0  0  0
 13  4  1  0  0  0  0
 13  5  1  0  0  0  0
 14 18  1  0  0  0  0
 14  4  2  0  0  0  0
 15 21  2  0  0  0  0
 15  1  1  0  0  0  0
 16  3  1  6  0  0  0
 16  2  1  0  0  0  0
 16 11  1  0  0  0  0
 17 21  1  0  0  0  0
 19 10  1  0  0  0  0
 19 20  2  0  0  0  0
 20 15  1  0  0  0  0
 21  3  1  0  0  0  0
 22 25  1  0  0  0  0
 23 12  1  0  0  0  0
 23 24  1  0  0  0  0
 25 24  2  0  0  0  0
 26 27  1  0  0  0  0
 26 22  2  0  0  0  0
 27 23  2  0  0  0  0
M  END
>  <MODEL>
8

>  <REMARK>
 VINA RESULT:      -8.0      1.699      6.309
  Name = 
  1 active torsions:
  status: ('A' for Active; 'I' for Inactive)
    1  A    between atoms: C_9  and  N_15
                            x       y       z     vdW  Elec       q    Type
                         _______ _______ _______ _____ _____    ______ ____

>  <TORSDO>
F 1

$$$$
=
 OpenBabel10262420043D

 27 31  0  0  1  0  0  0  0  0999 V2000
  190.7640  178.0000  140.4850 C   0  0  0  0  0  2  0  0  0  0  0  0
  188.8150  177.3410  139.0250 C   0  0  1  0  0  3  0  0  0  0  0  0
  188.0660  177.1700  141.3260 O   0  0  0  0  0  0  0  0  0  0  0  0
  184.8970  178.7400  138.0940 C   0  0  0  0  0  3  0  0  0  0  0  0
  182.5840  179.4170  138.7430 C   0  0  0  0  0  1  0  0  0  0  0  0
  188.6130  178.1300  137.7380 C   0  0  0  0  0  2  0  0  0  0  0  0
  185.6700  178.6270  140.7770 C   0  0  0  0  0  3  0  0  0  0  0  0
  189.2890  176.7710  144.5670 C   0  0  0  0  0  3  0  0  0  0  0  0
  184.3640  178.9880  140.4400 C   0  0  0  0  0  3  0  0  0  0  0  0
  190.5240  177.1670  144.8630 C   0  0  0  0  0  3  0  0  0  0  0  0
  186.5980  178.3020  139.7780 C   0  0  0  0  0  0  0  0  0  0  0  0
  190.2440  177.2460  139.3450 N   0  0  0  0  0  0  0  0  0  0  0  0
  183.9760  179.0400  139.1000 C   0  0  0  0  0  0  0  0  0  0  0  0
  186.2120  178.3900  138.4200 C   0  0  0  0  0  0  0  0  0  0  0  0
  190.4640  177.2890  141.7690 C   0  0  0  0  0  0  0  0  0  0  0  0
  188.0250  177.9990  140.1660 C   0  0  2  0  0  3  0  0  0  0  0  0
  188.9710  176.0400  143.3070 C   0  0  0  0  0  2  0  0  0  0  0  0
  187.1550  178.0260  137.3080 C   0  0  0  0  0  2  0  0  0  0  0  0
  191.6820  177.0130  143.9640 C   0  0  0  0  0  3  0  0  0  0  0  0
  191.6490  177.0550  142.6270 C   0  0  0  0  0  3  0  0  0  0  0  0
  189.2080  176.8870  142.1000 C   0  0  0  0  0  0  0  0  0  0  0  0
  192.7430  174.4860  137.2850 C   0  0  0  0  0  3  0  0  0  0  0  0
  191.0930  176.3090  138.6490 C   0  0  0  0  0  0  0  0  0  0  0  0
  192.4880  176.4770  138.6370 C   0  0  0  0  0  3  0  0  0  0  0  0
  193.3080  175.5700  137.9610 C   0  0  0  0  0  3  0  0  0  0  0  0
  191.3580  174.3080  137.2880 C   0  0  0  0  0  3  0  0  0  0  0  0
  190.5380  175.2140  137.9660 C   0  0  0  0  0  3  0  0  0  0  0  0
  1 15  1  0  0  0  0
  2  6  1  6  0  0  0
  2 12  1  0  0  0  0
  2 16  1  0  0  0  0
  3 21  1  0  0  0  0
  4 14  2  0  0  0  0
  4 13  1  0  0  0  0
  5 13  1  0  0  0  0
  8 10  2  0  0  0  0
  9  7  1  0  0  0  0
 11  7  2  0  0  0  0
 12  1  1  0  0  0  0
 13  9  2  0  0  0  0
 14 11  1  0  0  0  0
 15 21  2  0  0  0  0
 15 20  1  0  0  0  0
 16 11  1  6  0  0  0
 16  3  1  0  0  0  0
 17  8  1  0  0  0  0
 18  6  1  0  0  0  0
 18 14  1  0  0  0  0
 19 10  1  0  0  0  0
 20 19  2  0  0  0  0
 21 17  1  0  0  0  0
 22 26  2  0  0  0  0
 22 25  1  0  0  0  0
 23 12  1  0  0  0  0
 24 23  1  0  0  0  0
 25 24  2  0  0  0  0
 26 27  1  0  0  0  0
 27 23  2  0  0  0  0
M  END
>  <MODEL>
9

>  <REMARK>
 VINA RESULT:      -7.9      2.828      6.161
  Name = 
  1 active torsions:
  status: ('A' for Active; 'I' for Inactive)
    1  A    between atoms: C_9  and  N_15
                            x       y       z     vdW  Elec       q    Type
                         _______ _______ _______ _____ _____    ______ ____

>  <TORSDO>
F 1

$$$$
