=
 OpenBabel10262420503D

 28 31  0  0  1  0  0  0  0  0999 V2000
  186.9080  177.8470  145.8260 C   0  0  0  0  0  0  0  0  0  0  0  0
  188.4010  178.1550  140.7260 C   0  0  0  0  0  2  0  0  0  0  0  0
  191.6630  177.3110  145.8430 O   0  0  0  0  0  0  0  0  0  0  0  0
  190.8250  177.6460  140.8900 C   0  0  2  0  0  3  0  0  0  0  0  0
  189.4300  177.9210  143.0010 C   0  0  1  0  0  3  0  0  0  0  0  0
  189.5930  177.3390  138.6910 C   0  0  0  0  0  0  0  0  0  0  0  0
  189.4590  177.4200  141.5490 C   0  0  1  0  0  3  0  0  0  0  0  0
  191.9450  177.6390  143.0970 C   0  0  0  0  0  2  0  0  0  0  0  0
  190.8410  177.0400  139.4870 C   0  0  0  0  0  2  0  0  0  0  0  0
  189.3220  177.6510  145.8830 C   0  0  0  0  0  0  0  0  0  0  0  0
  188.1620  177.3780  143.6720 C   0  0  0  0  0  2  0  0  0  0  0  0
  191.9190  177.0010  141.7200 C   0  0  0  0  0  2  0  0  0  0  0  0
  188.1310  178.0420  147.9000 C   0  0  0  0  0  3  0  0  0  0  0  0
  190.6020  177.4780  145.1810 C   0  0  0  0  0  0  0  0  0  0  0  0
  189.2960  177.8410  147.2300 N   0  0  0  0  0  0  0  0  0  0  0  0
  189.5670  177.0110  137.3740 F   0  0  0  0  0  0  0  0  0  0  0  0
  188.4640  177.7710  139.2720 C   0  0  0  0  0  3  0  0  0  0  0  0
  190.6390  177.5170  143.7440 N   0  0  0  0  0  0  0  0  0  0  0  0
  186.9200  178.0530  147.2090 C   0  0  0  0  0  3  0  0  0  0  0  0
  188.1270  177.6640  145.1470 C   0  0  0  0  0  0  0  0  0  0  0  0
  185.5880  177.8530  145.0920 C   0  0  0  0  0  2  0  0  0  0  0  0
  184.8650  179.1330  145.1740 N   0  0  0  0  0  0  0  0  0  0  0  0
  183.9270  179.0260  146.1500 O   0  0  0  0  0  1  0  0  0  0  0  0
  182.7810  178.9340  143.8970 C   0  0  0  0  0  1  0  0  0  0  0  0
  184.2150  179.4440  143.8890 C   0  0  2  0  0  3  0  0  0  0  0  0
  184.9260  178.8210  142.6810 C   0  0  1  0  0  3  0  0  0  0  0  0
  183.9420  178.1370  141.7500 C   0  0  0  0  0  1  0  0  0  0  0  0
  185.6750  179.7710  141.9820 O   0  0  0  0  0  1  0  0  0  0  0  0
  1 19  1  0  0  0  0
  4  9  1  6  0  0  0
  4  7  1  0  0  0  0
  4 12  1  0  0  0  0
  5 11  1  1  0  0  0
  5 18  1  0  0  0  0
  6 17  2  0  0  0  0
  6  9  1  0  0  0  0
  7  2  1  6  0  0  0
  7  5  1  0  0  0  0
  8 18  1  0  0  0  0
 10 15  2  0  0  0  0
 11 20  1  0  0  0  0
 12  8  1  0  0  0  0
 14  3  2  0  0  0  0
 14 10  1  0  0  0  0
 15 13  1  0  0  0  0
 16  6  1  0  0  0  0
 17  2  1  0  0  0  0
 18 14  1  0  0  0  0
 19 13  2  0  0  0  0
 20  1  2  0  0  0  0
 20 10  1  0  0  0  0
 21 22  1  0  0  0  0
 21  1  1  0  0  0  0
 22 23  1  0  0  0  0
 25 24  1  1  0  0  0
 25 22  1  0  0  0  0
 26 27  1  6  0  0  0
 26 25  1  0  0  0  0
 28 26  1  0  0  0  0
M  END
>  <MODEL>
1

>  <REMARK>
 VINA RESULT:     -10.0      0.000      0.000
  Name = 
  4 active torsions:
  status: ('A' for Active; 'I' for Inactive)
    1  A    between atoms: C_1  and  C_2
    2  A    between atoms: C_2  and  N_3
    3  A    between atoms: N_3  and  C_11
    4  A    between atoms: C_6  and  C_11
                            x       y       z     vdW  Elec       q    Type
                         _______ _______ _______ _____ _____    ______ ____

>  <TORSDO>
F 4

$$$$
=
 OpenBabel10262420503D

 28 31  0  0  1  0  0  0  0  0999 V2000
  185.9380  178.1460  142.1170 C   0  0  0  0  0  0  0  0  0  0  0  0
  190.3910  177.3680  144.9280 C   0  0  0  0  0  2  0  0  0  0  0  0
  184.6640  178.6280  146.7040 O   0  0  0  0  0  0  0  0  0  0  0  0
  189.5240  177.4340  147.2530 C   0  0  2  0  0  3  0  0  0  0  0  0
  187.9860  177.9740  145.2990 C   0  0  1  0  0  3  0  0  0  0  0  0
  191.7360  176.2980  146.7380 C   0  0  0  0  0  0  0  0  0  0  0  0
  189.1600  177.1170  145.7980 C   0  0  1  0  0  3  0  0  0  0  0  0
  187.2320  178.2530  147.7010 C   0  0  0  0  0  2  0  0  0  0  0  0
  190.6230  176.4880  147.7400 C   0  0  0  0  0  2  0  0  0  0  0  0
  185.2710  178.4760  144.4230 C   0  0  0  0  0  0  0  0  0  0  0  0
  187.4880  177.3830  143.9750 C   0  0  0  0  0  2  0  0  0  0  0  0
  188.3050  177.2760  148.1440 C   0  0  0  0  0  2  0  0  0  0  0  0
  183.8090  179.1420  142.6740 C   0  0  0  0  0  3  0  0  0  0  0  0
  185.5700  178.3880  145.8600 C   0  0  0  0  0  0  0  0  0  0  0  0
  184.0960  179.0120  143.9960 N   0  0  0  0  0  0  0  0  0  0  0  0
  192.8520  175.6280  147.1240 F   0  0  0  0  0  0  0  0  0  0  0  0
  191.5950  176.6270  145.4450 C   0  0  0  0  0  3  0  0  0  0  0  0
  186.8970  178.0430  146.2930 N   0  0  0  0  0  0  0  0  0  0  0  0
  184.7270  178.7160  141.7140 C   0  0  0  0  0  3  0  0  0  0  0  0
  186.2270  178.0420  143.4910 C   0  0  0  0  0  0  0  0  0  0  0  0
  186.9200  177.6820  141.0670 C   0  0  0  0  0  2  0  0  0  0  0  0
  187.3640  178.7470  140.1530 N   0  0  0  0  0  0  0  0  0  0  0  0
  186.6670  178.6280  138.9940 O   0  0  0  0  0  1  0  0  0  0  0  0
  189.0550  178.6480  138.3800 C   0  0  0  0  0  1  0  0  0  0  0  0
  188.8070  178.6270  139.8810 C   0  0  2  0  0  3  0  0  0  0  0  0
  189.4270  177.3390  140.4390 C   0  0  1  0  0  3  0  0  0  0  0  0
  190.1650  176.5670  139.3610 C   0  0  0  0  0  1  0  0  0  0  0  0
  190.2770  177.6040  141.5150 O   0  0  0  0  0  1  0  0  0  0  0  0
  1 20  1  0  0  0  0
  2 17  1  0  0  0  0
  4  9  1  1  0  0  0
  4 12  1  0  0  0  0
  5 11  1  6  0  0  0
  5  7  1  0  0  0  0
  5 18  1  0  0  0  0
  6 16  1  0  0  0  0
  6  9  1  0  0  0  0
  7  2  1  6  0  0  0
  7  4  1  0  0  0  0
  8 12  1  0  0  0  0
 10 14  1  0  0  0  0
 13 15  2  0  0  0  0
 14 18  1  0  0  0  0
 14  3  2  0  0  0  0
 15 10  1  0  0  0  0
 17  6  2  0  0  0  0
 18  8  1  0  0  0  0
 19  1  2  0  0  0  0
 19 13  1  0  0  0  0
 20 11  1  0  0  0  0
 20 10  2  0  0  0  0
 21  1  1  0  0  0  0
 22 21  1  0  0  0  0
 23 22  1  0  0  0  0
 25 24  1  6  0  0  0
 25 22  1  0  0  0  0
 25 26  1  0  0  0  0
 26 27  1  6  0  0  0
 26 28  1  0  0  0  0
M  END
>  <MODEL>
2

>  <REMARK>
 VINA RESULT:      -9.7      2.728      6.159
  Name = 
  4 active torsions:
  status: ('A' for Active; 'I' for Inactive)
    1  A    between atoms: C_1  and  C_2
    2  A    between atoms: C_2  and  N_3
    3  A    between atoms: N_3  and  C_11
    4  A    between atoms: C_6  and  C_11
                            x       y       z     vdW  Elec       q    Type
                         _______ _______ _______ _____ _____    ______ ____

>  <TORSDO>
F 4

$$$$
=
 OpenBabel10262420503D

 28 31  0  0  1  0  0  0  0  0999 V2000
  190.6230  177.2910  144.6970 C   0  0  0  0  0  0  0  0  0  0  0  0
  185.6630  177.8420  142.8440 C   0  0  0  0  0  2  0  0  0  0  0  0
  187.8410  177.6960  148.5690 O   0  0  0  0  0  0  0  0  0  0  0  0
  184.3970  178.2530  144.9400 C   0  0  2  0  0  3  0  0  0  0  0  0
  186.8670  177.6480  145.0360 C   0  0  1  0  0  3  0  0  0  0  0  0
  183.4410  178.9710  142.6990 C   0  0  0  0  0  0  0  0  0  0  0  0
  185.7670  178.3940  144.2660 C   0  0  1  0  0  3  0  0  0  0  0  0
  185.4640  177.8460  147.1350 C   0  0  0  0  0  2  0  0  0  0  0  0
  183.3560  179.0950  144.2010 C   0  0  0  0  0  2  0  0  0  0  0  0
  189.2390  177.4120  146.6820 C   0  0  0  0  0  0  0  0  0  0  0  0
  188.2270  178.0970  144.4870 C   0  0  0  0  0  2  0  0  0  0  0  0
  184.4740  178.7160  146.3830 C   0  0  0  0  0  2  0  0  0  0  0  0
  191.4980  176.7050  146.8710 C   0  0  0  0  0  3  0  0  0  0  0  0
  187.9370  177.6730  147.3120 C   0  0  0  0  0  0  0  0  0  0  0  0
  190.2930  176.9910  147.4310 N   0  0  0  0  0  0  0  0  0  0  0  0
  182.4600  179.5250  141.9430 F   0  0  0  0  0  0  0  0  0  0  0  0
  184.5260  178.4730  142.0860 C   0  0  0  0  0  3  0  0  0  0  0  0
  186.7760  177.8860  146.4890 N   0  0  0  0  0  0  0  0  0  0  0  0
  191.6810  176.8450  145.4950 C   0  0  0  0  0  3  0  0  0  0  0  0
  189.3760  177.5590  145.2920 C   0  0  0  0  0  0  0  0  0  0  0  0
  190.8370  177.4450  143.2090 C   0  0  0  0  0  2  0  0  0  0  0  0
  190.0070  176.5480  142.3900 N   0  0  0  0  0  0  0  0  0  0  0  0
  190.1820  175.2800  142.8420 O   0  0  0  0  0  1  0  0  0  0  0  0
  191.6370  177.5030  140.8270 C   0  0  0  0  0  1  0  0  0  0  0  0
  190.3980  176.6310  140.9720 C   0  0  2  0  0  3  0  0  0  0  0  0
  189.3040  177.2220  140.0720 C   0  0  1  0  0  3  0  0  0  0  0  0
  188.4730  178.2530  140.8140 C   0  0  0  0  0  1  0  0  0  0  0  0
  189.8420  177.7770  138.9090 O   0  0  0  0  0  1  0  0  0  0  0  0
  1 20  2  0  0  0  0
  1 19  1  0  0  0  0
  4  9  1  6  0  0  0
  4 12  1  0  0  0  0
  5 11  1  6  0  0  0
  5 18  1  0  0  0  0
  6  9  1  0  0  0  0
  7  2  1  6  0  0  0
  7  4  1  0  0  0  0
  7  5  1  0  0  0  0
 10 14  1  0  0  0  0
 10 15  2  0  0  0  0
 11 20  1  0  0  0  0
 12  8  1  0  0  0  0
 13 15  1  0  0  0  0
 14  3  2  0  0  0  0
 16  6  1  0  0  0  0
 17  6  2  0  0  0  0
 17  2  1  0  0  0  0
 18  8  1  0  0  0  0
 18 14  1  0  0  0  0
 19 13  2  0  0  0  0
 20 10  1  0  0  0  0
 21  1  1  0  0  0  0
 22 23  1  0  0  0  0
 22 21  1  0  0  0  0
 25 24  1  1  0  0  0
 25 22  1  0  0  0  0
 26 27  1  1  0  0  0
 26 25  1  0  0  0  0
 28 26  1  0  0  0  0
M  END
>  <MODEL>
3

>  <REMARK>
 VINA RESULT:      -9.6      2.567      5.861
  Name = 
  4 active torsions:
  status: ('A' for Active; 'I' for Inactive)
    1  A    between atoms: C_1  and  C_2
    2  A    between atoms: C_2  and  N_3
    3  A    between atoms: N_3  and  C_11
    4  A    between atoms: C_6  and  C_11
                            x       y       z     vdW  Elec       q    Type
                         _______ _______ _______ _____ _____    ______ ____

>  <TORSDO>
F 4

$$$$
=
 OpenBabel10262420503D

 28 31  0  0  1  0  0  0  0  0999 V2000
  189.0470  177.3190  140.4350 C   0  0  0  0  0  0  0  0  0  0  0  0
  188.4290  177.9130  145.6890 C   0  0  0  0  0  2  0  0  0  0  0  0
  184.7040  179.2430  141.0100 O   0  0  0  0  0  0  0  0  0  0  0  0
  186.0800  178.7040  145.8220 C   0  0  2  0  0  3  0  0  0  0  0  0
  187.2050  178.4150  143.5580 C   0  0  1  0  0  3  0  0  0  0  0  0
  187.1950  177.6410  147.8410 C   0  0  0  0  0  0  0  0  0  0  0  0
  187.0690  177.8780  144.9910 C   0  0  1  0  0  3  0  0  0  0  0  0
  184.9000  179.4400  143.7760 C   0  0  0  0  0  2  0  0  0  0  0  0
  185.8960  178.0740  147.2030 C   0  0  0  0  0  2  0  0  0  0  0  0
  186.8760  178.3650  140.6810 C   0  0  0  0  0  0  0  0  0  0  0  0
  187.9480  177.3670  142.7200 C   0  0  0  0  0  2  0  0  0  0  0  0
  184.7340  178.7640  145.1240 C   0  0  0  0  0  2  0  0  0  0  0  0
  187.8950  178.2710  138.5370 C   0  0  0  0  0  3  0  0  0  0  0  0
  185.7620  178.8000  141.5350 C   0  0  0  0  0  0  0  0  0  0  0  0
  186.8620  178.6260  139.3450 N   0  0  0  0  0  0  0  0  0  0  0  0
  187.1810  177.2370  149.1360 F   0  0  0  0  0  0  0  0  0  0  0  0
  188.3230  177.4940  147.1300 C   0  0  0  0  0  3  0  0  0  0  0  0
  185.8920  178.7340  142.9660 N   0  0  0  0  0  0  0  0  0  0  0  0
  189.0060  177.6160  139.0690 C   0  0  0  0  0  3  0  0  0  0  0  0
  187.9780  177.7160  141.2600 C   0  0  0  0  0  0  0  0  0  0  0  0
  190.2530  176.6020  140.9970 C   0  0  0  0  0  2  0  0  0  0  0  0
  191.2770  177.5020  141.5520 N   0  0  0  0  0  0  0  0  0  0  0  0
  192.2940  177.5880  140.6570 O   0  0  0  0  0  1  0  0  0  0  0  0
  190.8600  175.8870  143.3500 C   0  0  0  0  0  1  0  0  0  0  0  0
  191.7840  176.9810  142.8340 C   0  0  2  0  0  3  0  0  0  0  0  0
  191.8920  178.0540  143.9260 C   0  0  1  0  0  3  0  0  0  0  0  0
  190.9310  179.2010  143.6730 C   0  0  0  0  0  1  0  0  0  0  0  0
  191.6800  177.5140  145.1960 O   0  0  0  0  0  1  0  0  0  0  0  0
  1 21  1  0  0  0  0
  1 20  1  0  0  0  0
  2 17  1  0  0  0  0
  3 14  2  0  0  0  0
  4 12  1  6  0  0  0
  4  9  1  0  0  0  0
  5 11  1  6  0  0  0
  5  7  1  0  0  0  0
  6 16  1  0  0  0  0
  7  2  1  1  0  0  0
  7  4  1  0  0  0  0
  8 12  1  0  0  0  0
  9  6  1  0  0  0  0
 10 20  2  0  0  0  0
 10 14  1  0  0  0  0
 13 19  1  0  0  0  0
 13 15  2  0  0  0  0
 14 18  1  0  0  0  0
 15 10  1  0  0  0  0
 17  6  2  0  0  0  0
 18  5  1  0  0  0  0
 18  8  1  0  0  0  0
 19  1  2  0  0  0  0
 20 11  1  0  0  0  0
 21 22  1  0  0  0  0
 22 25  1  0  0  0  0
 23 22  1  0  0  0  0
 25 24  1  1  0  0  0
 25 26  1  0  0  0  0
 26 27  1  6  0  0  0
 26 28  1  0  0  0  0
M  END
>  <MODEL>
4

>  <REMARK>
 VINA RESULT:      -9.3      2.983      7.416
  Name = 
  4 active torsions:
  status: ('A' for Active; 'I' for Inactive)
    1  A    between atoms: C_1  and  C_2
    2  A    between atoms: C_2  and  N_3
    3  A    between atoms: N_3  and  C_11
    4  A    between atoms: C_6  and  C_11
                            x       y       z     vdW  Elec       q    Type
                         _______ _______ _______ _____ _____    ______ ____

>  <TORSDO>
F 4

$$$$
=
 OpenBabel10262420503D

 28 31  0  0  1  0  0  0  0  0999 V2000
  187.1600  178.4430  140.4040 C   0  0  0  0  0  0  0  0  0  0  0  0
  187.4070  177.5350  145.6430 C   0  0  0  0  0  2  0  0  0  0  0  0
  191.6110  176.8950  141.2320 O   0  0  0  0  0  0  0  0  0  0  0  0
  189.8050  176.9590  145.9310 C   0  0  2  0  0  3  0  0  0  0  0  0
  188.8430  177.3020  143.6000 C   0  0  1  0  0  3  0  0  0  0  0  0
  188.4300  177.7660  147.9080 C   0  0  0  0  0  0  0  0  0  0  0  0
  188.8090  177.7450  145.0710 C   0  0  1  0  0  3  0  0  0  0  0  0
  191.2130  176.4830  143.9520 C   0  0  0  0  0  2  0  0  0  0  0  0
  189.8120  177.5030  147.3600 C   0  0  0  0  0  2  0  0  0  0  0  0
  189.3970  177.5880  140.7710 C   0  0  0  0  0  0  0  0  0  0  0  0
  188.0700  178.3340  142.7680 C   0  0  0  0  0  2  0  0  0  0  0  0
  191.2020  177.0740  145.3500 C   0  0  0  0  0  2  0  0  0  0  0  0
  188.5500  177.7400  138.5570 C   0  0  0  0  0  3  0  0  0  0  0  0
  190.4760  177.1990  141.6900 C   0  0  0  0  0  0  0  0  0  0  0  0
  189.5450  177.4250  139.4280 N   0  0  0  0  0  0  0  0  0  0  0  0
  188.3000  178.0760  149.2220 F   0  0  0  0  0  0  0  0  0  0  0  0
  187.3540  177.8570  147.1120 C   0  0  0  0  0  3  0  0  0  0  0  0
  190.2250  177.1500  143.1060 N   0  0  0  0  0  0  0  0  0  0  0  0
  187.3410  178.2480  139.0310 C   0  0  0  0  0  3  0  0  0  0  0  0
  188.1930  178.0890  141.2910 C   0  0  0  0  0  0  0  0  0  0  0  0
  185.8480  179.0010  140.9020 C   0  0  0  0  0  2  0  0  0  0  0  0
  184.7480  178.9010  139.9290 N   0  0  0  0  0  0  0  0  0  0  0  0
  184.5550  180.1270  139.3810 O   0  0  0  0  0  1  0  0  0  0  0  0
  183.7620  178.2540  142.0790 C   0  0  0  0  0  1  0  0  0  0  0  0
  183.5110  178.4500  140.5910 C   0  0  2  0  0  3  0  0  0  0  0  0
  182.9680  177.1280  140.0310 C   0  0  1  0  0  3  0  0  0  0  0  0
  181.4550  177.1530  139.9190 C   0  0  0  0  0  1  0  0  0  0  0  0
  183.5420  176.8240  138.7940 O   0  0  0  0  0  1  0  0  0  0  0  0
  1 21  1  0  0  0  0
  1 20  1  0  0  0  0
  2 17  1  0  0  0  0
  3 14  2  0  0  0  0
  4 12  1  6  0  0  0
  4  9  1  0  0  0  0
  5 11  1  6  0  0  0
  5  7  1  0  0  0  0
  6 16  1  0  0  0  0
  7  2  1  1  0  0  0
  7  4  1  0  0  0  0
  8 12  1  0  0  0  0
  9  6  1  0  0  0  0
 10 20  2  0  0  0  0
 10 14  1  0  0  0  0
 13 19  1  0  0  0  0
 13 15  2  0  0  0  0
 14 18  1  0  0  0  0
 15 10  1  0  0  0  0
 17  6  2  0  0  0  0
 18  5  1  0  0  0  0
 18  8  1  0  0  0  0
 19  1  2  0  0  0  0
 20 11  1  0  0  0  0
 22 25  1  0  0  0  0
 22 21  1  0  0  0  0
 23 22  1  0  0  0  0
 25 24  1  1  0  0  0
 26 27  1  6  0  0  0
 26 25  1  0  0  0  0
 28 26  1  0  0  0  0
M  END
>  <MODEL>
5

>  <REMARK>
 VINA RESULT:      -9.1      3.267      5.732
  Name = 
  4 active torsions:
  status: ('A' for Active; 'I' for Inactive)
    1  A    between atoms: C_1  and  C_2
    2  A    between atoms: C_2  and  N_3
    3  A    between atoms: N_3  and  C_11
    4  A    between atoms: C_6  and  C_11
                            x       y       z     vdW  Elec       q    Type
                         _______ _______ _______ _____ _____    ______ ____

>  <TORSDO>
F 4

$$$$
=
 OpenBabel10262420503D

 28 31  0  0  1  0  0  0  0  0999 V2000
  189.5400  177.3420  141.2710 C   0  0  0  0  0  0  0  0  0  0  0  0
  184.3710  177.9520  142.3860 C   0  0  0  0  0  2  0  0  0  0  0  0
  189.3020  177.8600  146.0220 O   0  0  0  0  0  0  0  0  0  0  0  0
  184.4440  178.4200  144.8230 C   0  0  2  0  0  3  0  0  0  0  0  0
  186.5690  177.7730  143.5800 C   0  0  1  0  0  3  0  0  0  0  0  0
  182.4320  179.1180  143.4400 C   0  0  0  0  0  0  0  0  0  0  0  0
  185.2320  178.5260  143.5110 C   0  0  1  0  0  3  0  0  0  0  0  0
  186.5280  178.0300  146.1000 C   0  0  0  0  0  2  0  0  0  0  0  0
  183.1750  179.2690  144.7460 C   0  0  0  0  0  2  0  0  0  0  0  0
  189.4530  177.5220  143.6850 C   0  0  0  0  0  0  0  0  0  0  0  0
  187.4180  178.1880  142.3730 C   0  0  0  0  0  2  0  0  0  0  0  0
  185.2940  178.9060  145.9830 C   0  0  0  0  0  2  0  0  0  0  0  0
  191.4500  176.7760  142.6380 C   0  0  0  0  0  3  0  0  0  0  0  0
  188.7010  177.8160  144.9140 C   0  0  0  0  0  0  0  0  0  0  0  0
  190.7420  177.0930  143.7540 N   0  0  0  0  0  0  0  0  0  0  0  0
  181.2010  179.6780  143.3230 F   0  0  0  0  0  0  0  0  0  0  0  0
  183.0090  178.5910  142.3490 C   0  0  0  0  0  3  0  0  0  0  0  0
  187.2810  178.0360  144.8460 N   0  0  0  0  0  0  0  0  0  0  0  0
  190.8590  176.8910  141.3800 C   0  0  0  0  0  3  0  0  0  0  0  0
  188.8160  177.6430  142.4400 C   0  0  0  0  0  0  0  0  0  0  0  0
  188.9160  177.4690  139.9010 C   0  0  0  0  0  2  0  0  0  0  0  0
  189.7530  178.1880  138.9270 N   0  0  0  0  0  0  0  0  0  0  0  0
  189.0750  179.2910  138.5210 O   0  0  0  0  0  1  0  0  0  0  0  0
  189.2930  177.8290  136.5460 C   0  0  0  0  0  1  0  0  0  0  0  0
  190.0510  177.3300  137.7670 C   0  0  2  0  0  3  0  0  0  0  0  0
  189.6710  175.8590  137.9850 C   0  0  1  0  0  3  0  0  0  0  0  0
  188.8740  175.3140  136.8140 C   0  0  0  0  0  1  0  0  0  0  0  0
  190.7990  175.0680  138.2160 O   0  0  0  0  0  1  0  0  0  0  0  0
  1 19  2  0  0  0  0
  1 20  1  0  0  0  0
  4  9  1  6  0  0  0
  4 12  1  0  0  0  0
  5 11  1  6  0  0  0
  5 18  1  0  0  0  0
  6  9  1  0  0  0  0
  7  2  1  6  0  0  0
  7  5  1  0  0  0  0
  7  4  1  0  0  0  0
 10 15  1  0  0  0  0
 10 14  1  0  0  0  0
 11 20  1  0  0  0  0
 12  8  1  0  0  0  0
 13 15  2  0  0  0  0
 14  3  2  0  0  0  0
 16  6  1  0  0  0  0
 17  2  1  0  0  0  0
 17  6  2  0  0  0  0
 18 14  1  0  0  0  0
 18  8  1  0  0  0  0
 19 13  1  0  0  0  0
 20 10  2  0  0  0  0
 21  1  1  0  0  0  0
 22 21  1  0  0  0  0
 23 22  1  0  0  0  0
 25 24  1  6  0  0  0
 25 26  1  0  0  0  0
 25 22  1  0  0  0  0
 26 27  1  6  0  0  0
 26 28  1  0  0  0  0
M  END
>  <MODEL>
6

>  <REMARK>
 VINA RESULT:      -9.1      3.115      6.647
  Name = 
  4 active torsions:
  status: ('A' for Active; 'I' for Inactive)
    1  A    between atoms: C_1  and  C_2
    2  A    between atoms: C_2  and  N_3
    3  A    between atoms: N_3  and  C_11
    4  A    between atoms: C_6  and  C_11
                            x       y       z     vdW  Elec       q    Type
                         _______ _______ _______ _____ _____    ______ ____

>  <TORSDO>
F 4

$$$$
=
 OpenBabel10262420503D

 28 31  0  0  1  0  0  0  0  0999 V2000
  183.7690  178.4210  141.5440 C   0  0  0  0  0  0  0  0  0  0  0  0
  188.9270  177.8450  142.7240 C   0  0  0  0  0  2  0  0  0  0  0  0
  184.0320  178.6640  146.3150 O   0  0  0  0  0  0  0  0  0  0  0  0
  188.8610  177.7760  145.2040 C   0  0  2  0  0  3  0  0  0  0  0  0
  186.7460  178.2780  143.8820 C   0  0  1  0  0  3  0  0  0  0  0  0
  190.8410  176.8060  143.9440 C   0  0  0  0  0  0  0  0  0  0  0  0
  188.0600  177.4850  143.9300 C   0  0  1  0  0  3  0  0  0  0  0  0
  186.8000  178.4270  146.4100 C   0  0  0  0  0  2  0  0  0  0  0  0
  190.1050  176.8890  145.2600 C   0  0  0  0  0  2  0  0  0  0  0  0
  183.8710  178.6280  143.9550 C   0  0  0  0  0  0  0  0  0  0  0  0
  185.8750  177.7000  142.7600 C   0  0  0  0  0  2  0  0  0  0  0  0
  188.0080  177.5090  146.4310 C   0  0  0  0  0  2  0  0  0  0  0  0
  181.8870  179.2550  142.8090 C   0  0  0  0  0  3  0  0  0  0  0  0
  184.6240  178.5130  145.2130 C   0  0  0  0  0  0  0  0  0  0  0  0
  182.5950  179.1000  143.9590 N   0  0  0  0  0  0  0  0  0  0  0  0
  192.0540  176.1990  143.9140 F   0  0  0  0  0  0  0  0  0  0  0  0
  190.2700  177.1690  142.7850 C   0  0  0  0  0  3  0  0  0  0  0  0
  186.0370  178.2430  145.1760 N   0  0  0  0  0  0  0  0  0  0  0  0
  182.4640  178.9220  141.5840 C   0  0  0  0  0  3  0  0  0  0  0  0
  184.4930  178.2900  142.7430 C   0  0  0  0  0  0  0  0  0  0  0  0
  184.3780  178.0570  140.2100 C   0  0  0  0  0  2  0  0  0  0  0  0
  185.2740  179.0880  139.6630 N   0  0  0  0  0  0  0  0  0  0  0  0
  184.5120  180.1270  139.2340 O   0  0  0  0  0  1  0  0  0  0  0  0
  185.2400  177.5090  137.7870 C   0  0  0  0  0  1  0  0  0  0  0  0
  186.0590  178.5480  138.5380 C   0  0  2  0  0  3  0  0  0  0  0  0
  187.3700  177.8820  138.9760 C   0  0  1  0  0  3  0  0  0  0  0  0
  187.8260  176.8410  137.9710 C   0  0  0  0  0  1  0  0  0  0  0  0
  188.3780  178.8260  139.1880 O   0  0  0  0  0  1  0  0  0  0  0  0
  1 19  2  0  0  0  0
  1 20  1  0  0  0  0
  2 17  1  0  0  0  0
  4  9  1  1  0  0  0
  4 12  1  0  0  0  0
  5 11  1  6  0  0  0
  5  7  1  0  0  0  0
  5 18  1  0  0  0  0
  6  9  1  0  0  0  0
  7  2  1  6  0  0  0
  7  4  1  0  0  0  0
  8 12  1  0  0  0  0
 10 15  1  0  0  0  0
 10 14  1  0  0  0  0
 13 15  2  0  0  0  0
 14  3  2  0  0  0  0
 16  6  1  0  0  0  0
 17  6  2  0  0  0  0
 18 14  1  0  0  0  0
 18  8  1  0  0  0  0
 19 13  1  0  0  0  0
 20 11  1  0  0  0  0
 20 10  2  0  0  0  0
 21  1  1  0  0  0  0
 22 21  1  0  0  0  0
 23 22  1  0  0  0  0
 25 24  1  1  0  0  0
 25 26  1  0  0  0  0
 25 22  1  0  0  0  0
 26 27  1  6  0  0  0
 26 28  1  0  0  0  0
M  END
>  <MODEL>
7

>  <REMARK>
 VINA RESULT:      -9.0      2.676      5.618
  Name = 
  4 active torsions:
  status: ('A' for Active; 'I' for Inactive)
    1  A    between atoms: C_1  and  C_2
    2  A    between atoms: C_2  and  N_3
    3  A    between atoms: N_3  and  C_11
    4  A    between atoms: C_6  and  C_11
                            x       y       z     vdW  Elec       q    Type
                         _______ _______ _______ _____ _____    ______ ____

>  <TORSDO>
F 4

$$$$
=
 OpenBabel10262420503D

 28 31  0  0  1  0  0  0  0  0999 V2000
  189.9510  177.2580  142.5880 C   0  0  0  0  0  0  0  0  0  0  0  0
  185.0790  178.7710  144.1090 C   0  0  0  0  0  2  0  0  0  0  0  0
  187.5730  178.1960  138.5430 O   0  0  0  0  0  0  0  0  0  0  0  0
  183.9290  179.0040  141.9210 C   0  0  2  0  0  3  0  0  0  0  0  0
  186.4270  178.5210  142.0090 C   0  0  1  0  0  3  0  0  0  0  0  0
  182.5860  178.6730  144.0500 C   0  0  0  0  0  0  0  0  0  0  0  0
  185.0580  178.2770  142.6630 C   0  0  1  0  0  3  0  0  0  0  0  0
  185.2420  179.0040  139.8230 C   0  0  0  0  0  2  0  0  0  0  0  0
  182.5770  178.6500  142.5410 C   0  0  0  0  0  2  0  0  0  0  0  0
  188.8060  177.7990  140.5230 C   0  0  0  0  0  0  0  0  0  0  0  0
  187.4280  177.5240  142.6040 C   0  0  0  0  0  2  0  0  0  0  0  0
  183.9230  178.6030  140.4580 C   0  0  0  0  0  2  0  0  0  0  0  0
  191.1620  177.5010  140.5120 C   0  0  0  0  0  3  0  0  0  0  0  0
  187.5680  178.1310  139.8020 C   0  0  0  0  0  0  0  0  0  0  0  0
  189.9970  177.7660  139.8650 N   0  0  0  0  0  0  0  0  0  0  0  0
  181.4050  178.5550  144.7100 F   0  0  0  0  0  0  0  0  0  0  0  0
  183.7260  178.6480  144.7570 C   0  0  0  0  0  3  0  0  0  0  0  0
  186.3620  178.3950  140.5400 N   0  0  0  0  0  0  0  0  0  0  0  0
  191.1580  177.2480  141.8830 C   0  0  0  0  0  3  0  0  0  0  0  0
  188.7570  177.5590  141.9050 C   0  0  0  0  0  0  0  0  0  0  0  0
  189.9610  176.9750  144.0720 C   0  0  0  0  0  2  0  0  0  0  0  0
  189.7050  178.1590  144.9080 N   0  0  0  0  0  0  0  0  0  0  0  0
  190.5560  179.1420  144.5190 O   0  0  0  0  0  1  0  0  0  0  0  0
  190.9750  176.7550  146.4660 C   0  0  0  0  0  1  0  0  0  0  0  0
  189.9210  177.8450  146.3310 C   0  0  2  0  0  3  0  0  0  0  0  0
  188.6540  177.3610  147.0470 C   0  0  1  0  0  3  0  0  0  0  0  0
  188.5890  177.8780  148.4720 C   0  0  0  0  0  1  0  0  0  0  0  0
  187.5010  177.7230  146.3460 O   0  0  0  0  0  1  0  0  0  0  0  0
  1 21  1  0  0  0  0
  2 17  1  0  0  0  0
  3 14  2  0  0  0  0
  4 12  1  6  0  0  0
  4  9  1  0  0  0  0
  4  7  1  0  0  0  0
  5 11  1  1  0  0  0
  5  7  1  0  0  0  0
  6 16  1  0  0  0  0
  6 17  2  0  0  0  0
  7  2  1  1  0  0  0
  8 12  1  0  0  0  0
  8 18  1  0  0  0  0
  9  6  1  0  0  0  0
 10 20  2  0  0  0  0
 13 19  1  0  0  0  0
 14 10  1  0  0  0  0
 14 18  1  0  0  0  0
 15 13  2  0  0  0  0
 15 10  1  0  0  0  0
 18  5  1  0  0  0  0
 19  1  2  0  0  0  0
 20  1  1  0  0  0  0
 20 11  1  0  0  0  0
 21 22  1  0  0  0  0
 22 25  1  0  0  0  0
 23 22  1  0  0  0  0
 25 24  1  6  0  0  0
 25 26  1  0  0  0  0
 26 27  1  1  0  0  0
 28 26  1  0  0  0  0
M  END
>  <MODEL>
8

>  <REMARK>
 VINA RESULT:      -8.9      2.887      6.742
  Name = 
  4 active torsions:
  status: ('A' for Active; 'I' for Inactive)
    1  A    between atoms: C_1  and  C_2
    2  A    between atoms: C_2  and  N_3
    3  A    between atoms: N_3  and  C_11
    4  A    between atoms: C_6  and  C_11
                            x       y       z     vdW  Elec       q    Type
                         _______ _______ _______ _____ _____    ______ ____

>  <TORSDO>
F 4

$$$$
=
 OpenBabel10262420503D

 28 31  0  0  1  0  0  0  0  0999 V2000
  189.5480  177.8750  139.9190 C   0  0  0  0  0  0  0  0  0  0  0  0
  185.0870  177.9420  142.8230 C   0  0  0  0  0  2  0  0  0  0  0  0
  190.9600  177.3240  144.4580 O   0  0  0  0  0  0  0  0  0  0  0  0
  186.0000  177.8670  145.1300 C   0  0  2  0  0  3  0  0  0  0  0  0
  187.5560  177.6250  143.1310 C   0  0  1  0  0  3  0  0  0  0  0  0
  183.6540  178.7410  144.7040 C   0  0  0  0  0  0  0  0  0  0  0  0
  186.2940  178.3010  143.6890 C   0  0  1  0  0  3  0  0  0  0  0  0
  188.3840  177.3210  145.5050 C   0  0  0  0  0  2  0  0  0  0  0  0
  184.8010  178.6410  145.6800 C   0  0  0  0  0  2  0  0  0  0  0  0
  190.2950  177.5150  142.1950 C   0  0  0  0  0  0  0  0  0  0  0  0
  187.9510  178.3410  141.8340 C   0  0  0  0  0  2  0  0  0  0  0  0
  187.2060  178.1320  146.0130 C   0  0  0  0  0  2  0  0  0  0  0  0
  191.7950  177.1280  140.3950 C   0  0  0  0  0  3  0  0  0  0  0  0
  190.0160  177.4910  143.6380 C   0  0  0  0  0  0  0  0  0  0  0  0
  191.5200  177.1530  141.7260 N   0  0  0  0  0  0  0  0  0  0  0  0
  182.4710  179.2440  145.1390 F   0  0  0  0  0  0  0  0  0  0  0  0
  183.8110  178.4980  143.3940 C   0  0  0  0  0  3  0  0  0  0  0  0
  188.6640  177.6430  144.1060 N   0  0  0  0  0  0  0  0  0  0  0  0
  190.8130  177.4830  139.4710 C   0  0  0  0  0  3  0  0  0  0  0  0
  189.2750  177.8720  141.2990 C   0  0  0  0  0  0  0  0  0  0  0  0
  188.4960  178.2650  138.9070 C   0  0  0  0  0  2  0  0  0  0  0  0
  189.0060  178.3810  137.5310 N   0  0  0  0  0  0  0  0  0  0  0  0
  189.0830  179.7000  137.2200 O   0  0  0  0  0  1  0  0  0  0  0  0
  186.7230  177.5470  137.2040 C   0  0  0  0  0  1  0  0  0  0  0  0
  188.1060  177.6970  136.5860 C   0  0  2  0  0  3  0  0  0  0  0  0
  188.5930  176.2980  136.1870 C   0  0  1  0  0  3  0  0  0  0  0  0
  190.1070  176.2410  136.1040 C   0  0  0  0  0  1  0  0  0  0  0  0
  188.1180  175.3210  137.0660 O   0  0  0  0  0  1  0  0  0  0  0  0
  1 20  1  0  0  0  0
  2 17  1  0  0  0  0
  4  9  1  1  0  0  0
  4 12  1  0  0  0  0
  5 11  1  6  0  0  0
  5  7  1  0  0  0  0
  5 18  1  0  0  0  0
  6 16  1  0  0  0  0
  6  9  1  0  0  0  0
  7  2  1  6  0  0  0
  7  4  1  0  0  0  0
  8 12  1  0  0  0  0
 10 14  1  0  0  0  0
 13 15  2  0  0  0  0
 14 18  1  0  0  0  0
 14  3  2  0  0  0  0
 15 10  1  0  0  0  0
 17  6  2  0  0  0  0
 18  8  1  0  0  0  0
 19  1  2  0  0  0  0
 19 13  1  0  0  0  0
 20 11  1  0  0  0  0
 20 10  2  0  0  0  0
 21  1  1  0  0  0  0
 22 21  1  0  0  0  0
 23 22  1  0  0  0  0
 25 24  1  1  0  0  0
 25 22  1  0  0  0  0
 26 27  1  1  0  0  0
 26 25  1  0  0  0  0
 26 28  1  0  0  0  0
M  END
>  <MODEL>
9

>  <REMARK>
 VINA RESULT:      -8.9      3.277      6.704
  Name = 
  4 active torsions:
  status: ('A' for Active; 'I' for Inactive)
    1  A    between atoms: C_1  and  C_2
    2  A    between atoms: C_2  and  N_3
    3  A    between atoms: N_3  and  C_11
    4  A    between atoms: C_6  and  C_11
                            x       y       z     vdW  Elec       q    Type
                         _______ _______ _______ _____ _____    ______ ____

>  <TORSDO>
F 4

$$$$
