=
 OpenBabel10252415013D

 34 40  0  0  1  0  0  0  0  0999 V2000
  184.1900  178.6300  142.0790 C   0  0  0  0  0  0  0  0  0  0  0  0
  185.3750  178.7340  139.9440 C   0  0  0  0  0  0  0  0  0  0  0  0
  186.5610  178.1400  141.9680 C   0  0  0  0  0  0  0  0  0  0  0  0
  188.9210  177.6500  141.8700 C   0  0  0  0  0  0  0  0  0  0  0  0
  183.0020  179.2260  140.0520 C   0  0  0  0  0  3  0  0  0  0  0  0
  184.1840  179.0960  139.3070 C   0  0  0  0  0  3  0  0  0  0  0  0
  187.7050  178.2450  139.8410 C   0  0  0  0  0  0  0  0  0  0  0  0
  185.3720  178.5030  141.3320 C   0  0  0  0  0  0  0  0  0  0  0  0
  188.9440  178.0770  139.0630 C   0  0  0  0  0  0  0  0  0  0  0  0
  190.2130  177.5350  141.1040 C   0  0  0  0  0  2  0  0  0  0  0  0
  183.0040  178.9940  141.4350 C   0  0  0  0  0  3  0  0  0  0  0  0
  186.5660  177.9050  143.3520 C   0  0  0  0  0  0  0  0  0  0  0  0
  184.2310  178.3890  143.4570 C   0  0  0  0  0  3  0  0  0  0  0  0
  186.5320  178.6000  139.2360 N   0  0  0  0  0  0  0  0  0  0  0  0
  188.9120  177.4290  143.2150 N   0  0  0  0  0  0  0  0  0  0  0  0
  187.7800  177.5400  143.9700 C   0  0  0  0  0  0  0  0  0  0  0  0
  190.0530  177.7380  139.6550 N   0  0  0  0  0  0  0  0  0  0  0  0
  187.7370  178.0120  141.2210 C   0  0  0  0  0  0  0  0  0  0  0  0
  185.4040  178.0350  144.0570 N   0  0  0  0  0  0  0  0  0  0  0  0
  189.4340  176.8140  147.3860 C   0  0  1  0  0  3  0  0  0  0  0  0
  188.2490  177.2910  148.2380 C   0  0  0  0  0  2  0  0  0  0  0  0
  187.8820  177.2700  145.4420 C   0  0  1  0  0  3  0  0  0  0  0  0
  187.5960  178.5390  147.6510 C   0  0  0  0  0  2  0  0  0  0  0  0
  189.3380  177.2200  145.9100 C   0  0  0  0  0  2  0  0  0  0  0  0
  187.0280  178.2560  146.2560 C   0  0  0  0  0  2  0  0  0  0  0  0
  190.6250  177.3010  147.9220 O   0  0  0  0  0  1  0  0  0  0  0  0
  188.9310  178.2410  137.5770 C   0  0  0  0  0  2  0  0  0  0  0  0
  189.5720  177.8750  134.7110 N   0  0  0  0  0  1  0  0  0  0  0  0
  188.9250  176.8850  136.8710 C   0  0  2  0  0  3  0  0  0  0  0  0
  188.5910  177.0360  135.3790 C   0  0  1  0  0  3  0  0  0  0  0  0
  186.2300  177.0640  136.1030 C   0  0  0  0  0  2  0  0  0  0  0  0
  186.6350  175.7470  136.7620 C   0  0  0  0  0  2  0  0  0  0  0  0
  187.9360  175.9250  137.5500 C   0  0  0  0  0  2  0  0  0  0  0  0
  187.2370  177.5670  135.1500 N   0  0  0  0  0  2  0  0  0  0  0  0
  1 13  1  0  0  0  0
  2  8  1  0  0  0  0
  3 12  1  0  0  0  0
  4 15  2  0  0  0  0
  5 11  1  0  0  0  0
  6  2  1  0  0  0  0
  6  5  2  0  0  0  0
  7 18  2  0  0  0  0
  8  3  2  0  0  0  0
  8  1  1  0  0  0  0
  9 17  2  0  0  0  0
  9  7  1  0  0  0  0
 10  4  1  0  0  0  0
 11  1  2  0  0  0  0
 12 16  2  0  0  0  0
 12 19  1  0  0  0  0
 13 19  2  0  0  0  0
 14  7  1  0  0  0  0
 14  2  2  0  0  0  0
 15 16  1  0  0  0  0
 17 10  1  0  0  0  0
 18  4  1  0  0  0  0
 18  3  1  0  0  0  0
 20 26  1  1  0  0  0
 20 21  1  0  0  0  0
 22 16  1  6  0  0  0
 22 24  1  0  0  0  0
 22 25  1  0  0  0  0
 23 21  1  0  0  0  0
 24 20  1  0  0  0  0
 25 23  1  0  0  0  0
 27  9  1  0  0  0  0
 29 33  1  0  0  0  0
 29 27  1  1  0  0  0
 30 28  1  1  0  0  0
 30 29  1  0  0  0  0
 31 32  1  0  0  0  0
 32 33  1  0  0  0  0
 34 30  1  0  0  0  0
 34 31  1  0  0  0  0
M  END
>  <MODEL>
1

>  <REMARK>
 VINA RESULT:     -10.2      0.000      0.000
  Name = 
  3 active torsions:
  status: ('A' for Active; 'I' for Inactive)
    1  A    between atoms: C_3  and  C_13
    2  A    between atoms: C_3  and  C_17
    3  A    between atoms: C_12  and  C_28
                            x       y       z     vdW  Elec       q    Type
                         _______ _______ _______ _____ _____    ______ ____

>  <TORSDO>
F 3

$$$$
=
 OpenBabel10252415013D

 34 40  0  0  1  0  0  0  0  0999 V2000
  186.7150  178.2050  138.7570 C   0  0  0  0  0  0  0  0  0  0  0  0
  186.7660  178.4840  141.1840 C   0  0  0  0  0  0  0  0  0  0  0  0
  188.7090  177.6400  140.0140 C   0  0  0  0  0  0  0  0  0  0  0  0
  190.7000  177.0740  141.2530 C   0  0  0  0  0  0  0  0  0  0  0  0
  184.7690  179.0490  139.9300 C   0  0  0  0  0  3  0  0  0  0  0  0
  185.4500  178.9540  141.1520 C   0  0  0  0  0  3  0  0  0  0  0  0
  188.7320  177.9310  142.4130 C   0  0  0  0  0  0  0  0  0  0  0  0
  187.3940  178.1090  139.9820 C   0  0  0  0  0  0  0  0  0  0  0  0
  189.4660  177.8570  143.6880 C   0  0  0  0  0  0  0  0  0  0  0  0
  191.4470  176.9300  142.5530 C   0  0  0  0  0  3  0  0  0  0  0  0
  185.3990  178.6750  138.7330 C   0  0  0  0  0  3  0  0  0  0  0  0
  189.3430  177.2670  138.8180 C   0  0  0  0  0  0  0  0  0  0  0  0
  187.3770  177.8240  137.5840 C   0  0  0  0  0  3  0  0  0  0  0  0
  187.4450  178.3880  142.3620 N   0  0  0  0  0  0  0  0  0  0  0  0
  191.3020  176.7130  140.0850 N   0  0  0  0  0  2  0  0  0  0  0  0
  190.6720  176.7960  138.8770 C   0  0  0  0  0  0  0  0  0  0  0  0
  190.6920  177.4210  143.7180 N   0  0  0  0  0  0  0  0  0  0  0  0
  189.3840  177.5470  141.2350 C   0  0  0  0  0  0  0  0  0  0  0  0
  188.6620  177.3690  137.6380 N   0  0  0  0  0  0  0  0  0  0  0  0
  193.6920  176.2430  136.5310 C   0  0  1  0  0  3  0  0  0  0  0  0
  193.0250  175.1600  135.6700 C   0  0  0  0  0  2  0  0  0  0  0  0
  191.4290  176.3750  137.6530 C   0  0  1  0  0  3  0  0  0  0  0  0
  192.1840  174.2060  136.5130 C   0  0  0  0  0  2  0  0  0  0  0  0
  192.9380  176.5510  137.8310 C   0  0  0  0  0  2  0  0  0  0  0  0
  191.0430  174.9530  137.2130 C   0  0  0  0  0  2  0  0  0  0  0  0
  195.0000  175.8660  136.8330 O   0  0  0  0  0  1  0  0  0  0  0  0
  188.8300  178.3320  144.9550 C   0  0  0  0  0  2  0  0  0  0  0  0
  185.9590  177.6160  145.0270 N   0  0  0  0  0  1  0  0  0  0  0  0
  188.2650  177.1630  145.7620 C   0  0  2  0  0  3  0  0  0  0  0  0
  186.8130  177.4310  146.1880 C   0  0  1  0  0  3  0  0  0  0  0  0
  187.7950  178.7070  148.0600 C   0  0  0  0  0  2  0  0  0  0  0  0
  188.5300  177.3890  148.2980 C   0  0  0  0  0  2  0  0  0  0  0  0
  189.1430  176.8790  146.9910 C   0  0  0  0  0  2  0  0  0  0  0  0
  186.6890  178.5860  147.0920 N   0  0  0  0  0  2  0  0  0  0  0  0
  1  8  2  0  0  0  0
  2 14  1  0  0  0  0
  3 18  2  0  0  0  0
  4 10  2  0  0  0  0
  5  6  1  0  0  0  0
  6  2  2  0  0  0  0
  7  9  1  0  0  0  0
  8  3  1  0  0  0  0
  8  2  1  0  0  0  0
  9 17  2  0  0  0  0
  9 27  1  0  0  0  0
 10 17  1  0  0  0  0
 11  1  1  0  0  0  0
 11  5  2  0  0  0  0
 12 16  2  0  0  0  0
 12  3  1  0  0  0  0
 13 19  2  0  0  0  0
 13  1  1  0  0  0  0
 14  7  2  0  0  0  0
 15  4  1  0  0  0  0
 16 15  1  0  0  0  0
 18  4  1  0  0  0  0
 18  7  1  0  0  0  0
 19 12  1  0  0  0  0
 20 26  1  1  0  0  0
 20 24  1  0  0  0  0
 21 23  1  0  0  0  0
 21 20  1  0  0  0  0
 22 24  1  0  0  0  0
 22 16  1  1  0  0  0
 23 25  1  0  0  0  0
 25 22  1  0  0  0  0
 29 27  1  1  0  0  0
 29 30  1  0  0  0  0
 29 33  1  0  0  0  0
 30 28  1  6  0  0  0
 30 34  1  0  0  0  0
 31 32  1  0  0  0  0
 33 32  1  0  0  0  0
 34 31  1  0  0  0  0
M  END
>  <MODEL>
2

>  <REMARK>
 VINA RESULT:     -10.2      2.945      7.839
  Name = 
  3 active torsions:
  status: ('A' for Active; 'I' for Inactive)
    1  A    between atoms: C_3  and  C_13
    2  A    between atoms: C_3  and  C_17
    3  A    between atoms: C_12  and  C_28
                            x       y       z     vdW  Elec       q    Type
                         _______ _______ _______ _____ _____    ______ ____

>  <TORSDO>
F 3

$$$$
=
 OpenBabel10252415013D

 34 40  0  0  1  0  0  0  0  0999 V2000
  186.3020  178.0690  146.2480 C   0  0  0  0  0  0  0  0  0  0  0  0
  187.9700  177.8930  144.4700 C   0  0  0  0  0  0  0  0  0  0  0  0
  185.6730  178.4390  143.9370 C   0  0  0  0  0  0  0  0  0  0  0  0
  185.0340  178.8100  141.6410 C   0  0  0  0  0  0  0  0  0  0  0  0
  188.6020  177.5210  146.7820 C   0  0  0  0  0  3  0  0  0  0  0  0
  188.9460  177.5860  145.4240 C   0  0  0  0  0  3  0  0  0  0  0  0
  187.3450  178.2640  142.2010 C   0  0  0  0  0  0  0  0  0  0  0  0
  186.6480  178.1320  144.8890 C   0  0  0  0  0  0  0  0  0  0  0  0
  187.7020  178.3650  140.7750 C   0  0  0  0  0  0  0  0  0  0  0  0
  185.3640  178.8560  140.1720 C   0  0  0  0  0  2  0  0  0  0  0  0
  187.2840  177.7610  147.1950 C   0  0  0  0  0  3  0  0  0  0  0  0
  184.3530  178.6820  144.3480 C   0  0  0  0  0  0  0  0  0  0  0  0
  184.9760  178.3160  146.6230 C   0  0  0  0  0  3  0  0  0  0  0  0
  188.2850  177.9650  143.1470 N   0  0  0  0  0  0  0  0  0  0  0  0
  183.7560  179.0410  142.0540 N   0  0  0  0  0  0  0  0  0  0  0  0
  183.3870  178.9900  143.3670 C   0  0  0  0  0  0  0  0  0  0  0  0
  186.7940  178.6520  139.8880 N   0  0  0  0  0  0  0  0  0  0  0  0
  186.0200  178.5040  142.5840 C   0  0  0  0  0  0  0  0  0  0  0  0
  184.0410  178.6150  145.6760 N   0  0  0  0  0  0  0  0  0  0  0  0
  179.7520  180.2180  142.9090 C   0  0  1  0  0  3  0  0  0  0  0  0
  179.1510  179.3460  144.0210 C   0  0  0  0  0  2  0  0  0  0  0  0
  181.9530  179.2640  143.7100 C   0  0  1  0  0  3  0  0  0  0  0  0
  179.7750  177.9540  144.0480 C   0  0  0  0  0  2  0  0  0  0  0  0
  181.1790  179.8190  142.5130 C   0  0  0  0  0  2  0  0  0  0  0  0
  181.2780  178.0320  144.3360 C   0  0  0  0  0  2  0  0  0  0  0  0
  178.9310  180.1770  141.7830 O   0  0  0  0  0  1  0  0  0  0  0  0
  189.1210  178.1930  140.3380 C   0  0  0  0  0  2  0  0  0  0  0  0
  190.9470  176.7320  142.1520 N   0  0  0  0  0  1  0  0  0  0  0  0
  189.4750  176.7140  140.1780 C   0  0  2  0  0  3  0  0  0  0  0  0
  190.8750  176.4130  140.7370 C   0  0  1  0  0  3  0  0  0  0  0  0
  191.7110  177.2100  138.5540 C   0  0  0  0  0  2  0  0  0  0  0  0
  190.7480  176.1440  138.0320 C   0  0  0  0  0  2  0  0  0  0  0  0
  189.3810  176.2890  138.7040 C   0  0  0  0  0  2  0  0  0  0  0  0
  191.9410  177.1190  140.0070 N   0  0  0  0  0  2  0  0  0  0  0  0
  1 13  1  0  0  0  0
  1 11  2  0  0  0  0
  2  8  1  0  0  0  0
  2  6  1  0  0  0  0
  3 12  1  0  0  0  0
  3  8  2  0  0  0  0
  4 15  2  0  0  0  0
  4 18  1  0  0  0  0
  5 11  1  0  0  0  0
  6  5  2  0  0  0  0
  7 18  2  0  0  0  0
  7 14  1  0  0  0  0
  8  1  1  0  0  0  0
  9  7  1  0  0  0  0
 10  4  1  0  0  0  0
 12 19  1  0  0  0  0
 14  2  2  0  0  0  0
 15 16  1  0  0  0  0
 16 12  2  0  0  0  0
 17 10  1  0  0  0  0
 17  9  2  0  0  0  0
 18  3  1  0  0  0  0
 19 13  2  0  0  0  0
 20 26  1  6  0  0  0
 20 21  1  0  0  0  0
 21 23  1  0  0  0  0
 22 16  1  6  0  0  0
 22 25  1  0  0  0  0
 23 25  1  0  0  0  0
 24 20  1  0  0  0  0
 24 22  1  0  0  0  0
 27  9  1  0  0  0  0
 29 27  1  6  0  0  0
 29 30  1  0  0  0  0
 30 28  1  1  0  0  0
 31 34  1  0  0  0  0
 32 31  1  0  0  0  0
 32 33  1  0  0  0  0
 33 29  1  0  0  0  0
 34 30  1  0  0  0  0
M  END
>  <MODEL>
3

>  <REMARK>
 VINA RESULT:     -10.1      3.141      6.169
  Name = 
  3 active torsions:
  status: ('A' for Active; 'I' for Inactive)
    1  A    between atoms: C_3  and  C_13
    2  A    between atoms: C_3  and  C_17
    3  A    between atoms: C_12  and  C_28
                            x       y       z     vdW  Elec       q    Type
                         _______ _______ _______ _____ _____    ______ ____

>  <TORSDO>
F 3

$$$$
=
 OpenBabel10252415013D

 34 40  0  0  1  0  0  0  0  0999 V2000
  182.5220  178.8990  143.1170 C   0  0  0  0  0  0  0  0  0  0  0  0
  184.9510  178.6730  143.2740 C   0  0  0  0  0  0  0  0  0  0  0  0
  183.8710  178.7350  141.1090 C   0  0  0  0  0  0  0  0  0  0  0  0
  185.2010  178.5720  139.1040 C   0  0  0  0  0  0  0  0  0  0  0  0
  183.6040  178.8370  145.2850 C   0  0  0  0  0  3  0  0  0  0  0  0
  184.8580  178.7070  144.6690 C   0  0  0  0  0  3  0  0  0  0  0  0
  186.2700  178.5170  141.2960 C   0  0  0  0  0  0  0  0  0  0  0  0
  183.7780  178.7680  142.5020 C   0  0  0  0  0  0  0  0  0  0  0  0
  187.5850  178.4130  140.6390 C   0  0  0  0  0  0  0  0  0  0  0  0
  186.5290  178.4010  138.4130 C   0  0  0  0  0  3  0  0  0  0  0  0
  182.4380  178.9320  144.5120 C   0  0  0  0  0  3  0  0  0  0  0  0
  182.7050  178.8320  140.3330 C   0  0  0  0  0  0  0  0  0  0  0  0
  181.3810  178.9930  142.3120 C   0  0  0  0  0  3  0  0  0  0  0  0
  186.1600  178.5520  142.6580 N   0  0  0  0  0  0  0  0  0  0  0  0
  184.0610  178.6640  138.3630 N   0  0  0  0  0  2  0  0  0  0  0  0
  182.8260  178.7950  138.9270 C   0  0  0  0  0  0  0  0  0  0  0  0
  187.6720  178.3820  139.3400 N   0  0  0  0  0  0  0  0  0  0  0  0
  185.1220  178.6060  140.4990 C   0  0  0  0  0  0  0  0  0  0  0  0
  181.4950  178.9590  140.9530 N   0  0  0  0  0  0  0  0  0  0  0  0
  180.0470  180.4410  136.8070 C   0  0  1  0  0  3  0  0  0  0  0  0
  179.7790  179.2160  135.9200 C   0  0  0  0  0  2  0  0  0  0  0  0
  181.6380  178.8920  138.0170 C   0  0  1  0  0  3  0  0  0  0  0  0
  181.0720  178.4940  135.5480 C   0  0  0  0  0  2  0  0  0  0  0  0
  181.3380  180.3410  137.6280 C   0  0  0  0  0  2  0  0  0  0  0  0
  181.7840  177.9660  136.7980 C   0  0  0  0  0  2  0  0  0  0  0  0
  180.0870  181.5910  136.0200 O   0  0  0  0  0  1  0  0  0  0  0  0
  188.8370  178.3950  141.4550 C   0  0  0  0  0  2  0  0  0  0  0  0
  188.3440  175.9590  143.0620 N   0  0  0  0  0  1  0  0  0  0  0  0
  189.6010  177.0830  141.2680 C   0  0  2  0  0  3  0  0  0  0  0  0
  189.6740  176.2900  142.5820 C   0  0  1  0  0  3  0  0  0  0  0  0
  191.5980  177.7390  143.1300 C   0  0  0  0  0  2  0  0  0  0  0  0
  192.1040  177.2200  141.7840 C   0  0  0  0  0  2  0  0  0  0  0  0
  191.0120  177.3500  140.7200 C   0  0  0  0  0  2  0  0  0  0  0  0
  190.4270  176.9970  143.6320 N   0  0  0  0  0  2  0  0  0  0  0  0
  1 11  1  0  0  0  0
  2  6  2  0  0  0  0
  3  8  1  0  0  0  0
  4 18  1  0  0  0  0
  6  5  1  0  0  0  0
  7 14  2  0  0  0  0
  8  1  2  0  0  0  0
  8  2  1  0  0  0  0
  9  7  1  0  0  0  0
  9 27  1  0  0  0  0
 10  4  2  0  0  0  0
 10 17  1  0  0  0  0
 11  5  2  0  0  0  0
 12 19  1  0  0  0  0
 12  3  1  0  0  0  0
 13  1  1  0  0  0  0
 14  2  1  0  0  0  0
 15 16  1  0  0  0  0
 15  4  1  0  0  0  0
 16 12  2  0  0  0  0
 17  9  2  0  0  0  0
 18  3  2  0  0  0  0
 18  7  1  0  0  0  0
 19 13  2  0  0  0  0
 20 26  1  6  0  0  0
 20 24  1  0  0  0  0
 21 20  1  0  0  0  0
 22 16  1  6  0  0  0
 23 21  1  0  0  0  0
 23 25  1  0  0  0  0
 24 22  1  0  0  0  0
 25 22  1  0  0  0  0
 29 27  1  1  0  0  0
 29 30  1  0  0  0  0
 30 28  1  1  0  0  0
 30 34  1  0  0  0  0
 31 34  1  0  0  0  0
 32 31  1  0  0  0  0
 33 29  1  0  0  0  0
 33 32  1  0  0  0  0
M  END
>  <MODEL>
4

>  <REMARK>
 VINA RESULT:      -9.9      3.857      7.657
  Name = 
  3 active torsions:
  status: ('A' for Active; 'I' for Inactive)
    1  A    between atoms: C_3  and  C_13
    2  A    between atoms: C_3  and  C_17
    3  A    between atoms: C_12  and  C_28
                            x       y       z     vdW  Elec       q    Type
                         _______ _______ _______ _____ _____    ______ ____

>  <TORSDO>
F 3

$$$$
=
 OpenBabel10252415013D

 34 40  0  0  1  0  0  0  0  0999 V2000
  188.0140  178.1350  138.0190 C   0  0  0  0  0  0  0  0  0  0  0  0
  189.0540  177.6150  140.1690 C   0  0  0  0  0  0  0  0  0  0  0  0
  186.7200  178.2460  140.0650 C   0  0  0  0  0  0  0  0  0  0  0  0
  185.4200  178.3600  142.0940 C   0  0  0  0  0  0  0  0  0  0  0  0
  190.3520  177.5040  138.1230 C   0  0  0  0  0  3  0  0  0  0  0  0
  190.2660  177.3680  139.5170 C   0  0  0  0  0  3  0  0  0  0  0  0
  187.7730  177.7200  142.1760 C   0  0  0  0  0  0  0  0  0  0  0  0
  187.9300  178.0000  139.4140 C   0  0  0  0  0  0  0  0  0  0  0  0
  187.6650  177.5500  143.6350 C   0  0  0  0  0  0  0  0  0  0  0  0
  185.3040  178.2540  143.5920 C   0  0  0  0  0  3  0  0  0  0  0  0
  189.2300  177.8870  137.3750 C   0  0  0  0  0  3  0  0  0  0  0  0
  185.5940  178.6280  139.3190 C   0  0  0  0  0  0  0  0  0  0  0  0
  186.8720  178.5180  137.3060 C   0  0  0  0  0  3  0  0  0  0  0  0
  188.9500  177.4840  141.5220 N   0  0  0  0  0  0  0  0  0  0  0  0
  184.3370  178.7330  141.3570 N   0  0  0  0  0  2  0  0  0  0  0  0
  184.3830  178.8710  140.0000 C   0  0  0  0  0  0  0  0  0  0  0  0
  186.5360  177.7790  144.2430 N   0  0  0  0  0  0  0  0  0  0  0  0
  186.6380  178.1090  141.4550 C   0  0  0  0  0  0  0  0  0  0  0  0
  185.7000  178.7530  137.9630 N   0  0  0  0  0  0  0  0  0  0  0  0
  180.6020  179.3460  139.3600 C   0  0  1  0  0  3  0  0  0  0  0  0
  180.7590  180.4690  138.3240 C   0  0  0  0  0  2  0  0  0  0  0  0
  183.1300  179.2830  139.2870 C   0  0  1  0  0  3  0  0  0  0  0  0
  181.8720  181.4410  138.7060 C   0  0  0  0  0  2  0  0  0  0  0  0
  181.8850  179.0460  140.1450 C   0  0  0  0  0  2  0  0  0  0  0  0
  183.2260  180.7270  138.7660 C   0  0  0  0  0  2  0  0  0  0  0  0
  179.5790  179.6680  140.2510 O   0  0  0  0  0  1  0  0  0  0  0  0
  188.8340  177.0610  144.4280 C   0  0  0  0  0  2  0  0  0  0  0  0
  190.9250  179.0930  143.9200 N   0  0  0  0  0  1  0  0  0  0  0  0
  189.2780  178.1010  145.4580 C   0  0  2  0  0  3  0  0  0  0  0  0
  190.7420  178.5110  145.2390 C   0  0  1  0  0  3  0  0  0  0  0  0
  191.3070  176.4810  146.5260 C   0  0  0  0  0  2  0  0  0  0  0  0
  190.3790  177.1280  147.5530 C   0  0  0  0  0  2  0  0  0  0  0  0
  189.0750  177.5710  146.8860 C   0  0  0  0  0  2  0  0  0  0  0  0
  191.6800  177.3930  145.4290 N   0  0  0  0  0  2  0  0  0  0  0  0
  1  8  2  0  0  0  0
  2 14  1  0  0  0  0
  3 18  2  0  0  0  0
  4 10  2  0  0  0  0
  5  6  1  0  0  0  0
  6  2  2  0  0  0  0
  7  9  1  0  0  0  0
  8  3  1  0  0  0  0
  8  2  1  0  0  0  0
  9 17  2  0  0  0  0
  9 27  1  0  0  0  0
 10 17  1  0  0  0  0
 11  1  1  0  0  0  0
 11  5  2  0  0  0  0
 12 16  2  0  0  0  0
 12  3  1  0  0  0  0
 13 19  2  0  0  0  0
 13  1  1  0  0  0  0
 14  7  2  0  0  0  0
 15  4  1  0  0  0  0
 16 15  1  0  0  0  0
 18  4  1  0  0  0  0
 18  7  1  0  0  0  0
 19 12  1  0  0  0  0
 20 24  1  0  0  0  0
 20 26  1  1  0  0  0
 21 23  1  0  0  0  0
 21 20  1  0  0  0  0
 22 16  1  1  0  0  0
 22 24  1  0  0  0  0
 23 25  1  0  0  0  0
 25 22  1  0  0  0  0
 29 27  1  6  0  0  0
 29 33  1  0  0  0  0
 30 28  1  6  0  0  0
 30 34  1  0  0  0  0
 30 29  1  0  0  0  0
 31 32  1  0  0  0  0
 33 32  1  0  0  0  0
 34 31  1  0  0  0  0
M  END
>  <MODEL>
5

>  <REMARK>
 VINA RESULT:      -9.6      2.924      7.945
  Name = 
  3 active torsions:
  status: ('A' for Active; 'I' for Inactive)
    1  A    between atoms: C_3  and  C_13
    2  A    between atoms: C_3  and  C_17
    3  A    between atoms: C_12  and  C_28
                            x       y       z     vdW  Elec       q    Type
                         _______ _______ _______ _____ _____    ______ ____

>  <TORSDO>
F 3

$$$$
=
 OpenBabel10252415013D

 34 40  0  0  1  0  0  0  0  0999 V2000
  189.6700  177.5010  140.2600 C   0  0  0  0  0  0  0  0  0  0  0  0
  187.6280  178.2550  139.1490 C   0  0  0  0  0  0  0  0  0  0  0  0
  187.6460  177.8770  141.5390 C   0  0  0  0  0  0  0  0  0  0  0  0
  185.6390  178.2480  142.8240 C   0  0  0  0  0  0  0  0  0  0  0  0
  189.6510  177.8780  137.8650 C   0  0  0  0  0  3  0  0  0  0  0  0
  188.3010  178.2540  137.9230 C   0  0  0  0  0  3  0  0  0  0  0  0
  185.6430  178.6280  140.4140 C   0  0  0  0  0  0  0  0  0  0  0  0
  188.3180  177.8760  140.3150 C   0  0  0  0  0  0  0  0  0  0  0  0
  184.2340  179.0500  140.4890 C   0  0  0  0  0  0  0  0  0  0  0  0
  184.1800  178.6150  142.9140 C   0  0  0  0  0  3  0  0  0  0  0  0
  190.3360  177.5020  139.0300 C   0  0  0  0  0  3  0  0  0  0  0  0
  188.3290  177.5030  142.7070 C   0  0  0  0  0  0  0  0  0  0  0  0
  190.3200  177.1330  141.4440 C   0  0  0  0  0  3  0  0  0  0  0  0
  186.3170  178.6200  139.2250 N   0  0  0  0  0  0  0  0  0  0  0  0
  186.3130  177.8790  143.9490 N   0  0  0  0  0  0  0  0  0  0  0  0
  187.6270  177.5120  143.9310 C   0  0  0  0  0  0  0  0  0  0  0  0
  183.6070  179.0520  141.6310 N   0  0  0  0  0  0  0  0  0  0  0  0
  186.3000  178.2520  141.5920 C   0  0  1  0  0  3  0  0  0  0  0  0
  189.6440  177.1420  142.6280 N   0  0  0  0  0  0  0  0  0  0  0  0
  190.4540  176.7750  146.4600 C   0  0  1  0  0  3  0  0  0  0  0  0
  189.5890  176.9510  147.7170 C   0  0  0  0  0  2  0  0  0  0  0  0
  188.2730  177.1280  145.2290 C   0  0  1  0  0  3  0  0  0  0  0  0
  188.6100  178.1130  147.5720 C   0  0  0  0  0  2  0  0  0  0  0  0
  189.7930  177.2940  145.1770 C   0  0  0  0  0  2  0  0  0  0  0  0
  187.6340  177.8660  146.4170 C   0  0  0  0  0  2  0  0  0  0  0  0
  191.6800  177.4140  146.6390 O   0  0  0  0  0  1  0  0  0  0  0  0
  183.5230  179.5320  139.2650 C   0  0  0  0  0  2  0  0  0  0  0  0
  181.9280  177.0390  139.3040 N   0  0  0  0  0  1  0  0  0  0  0  0
  182.0070  179.4950  139.4560 C   0  0  2  0  0  3  0  0  0  0  0  0
  181.3880  178.2730  138.7610 C   0  0  1  0  0  3  0  0  0  0  0  0
  181.4490  179.6450  136.7090 C   0  0  0  0  0  2  0  0  0  0  0  0
  180.6670  180.6190  137.5880 C   0  0  0  0  0  2  0  0  0  0  0  0
  181.3640  180.7920  138.9390 C   0  0  0  0  0  2  0  0  0  0  0  0
  181.5660  178.2990  137.3000 N   0  0  0  0  0  2  0  0  0  0  0  0
  1  8  1  0  0  0  0
  1 13  1  0  0  0  0
  2 14  2  0  0  0  0
  2  8  1  0  0  0  0
  3 18  1  0  0  0  0
  3 12  1  0  0  0  0
  4 10  1  0  0  0  0
  4 15  2  0  0  0  0
  5  6  2  0  0  0  0
  5 11  1  0  0  0  0
  6  2  1  0  0  0  0
  7  9  2  0  0  0  0
  8  3  2  0  0  0  0
  9 17  1  0  0  0  0
 11  1  2  0  0  0  0
 12 16  2  0  0  0  0
 13 19  2  0  0  0  0
 14  7  1  0  0  0  0
 16 15  1  0  0  0  0
 17 10  2  0  0  0  0
 18  7  1  1  0  0  0
 18  4  1  0  0  0  0
 19 12  1  0  0  0  0
 20 26  1  1  0  0  0
 20 21  1  0  0  0  0
 22 16  1  6  0  0  0
 22 25  1  0  0  0  0
 23 21  1  0  0  0  0
 24 22  1  0  0  0  0
 24 20  1  0  0  0  0
 25 23  1  0  0  0  0
 27  9  1  0  0  0  0
 29 27  1  6  0  0  0
 30 28  1  1  0  0  0
 30 29  1  0  0  0  0
 31 34  1  0  0  0  0
 31 32  1  0  0  0  0
 32 33  1  0  0  0  0
 33 29  1  0  0  0  0
 34 30  1  0  0  0  0
M  END
>  <MODEL>
6

>  <REMARK>
 VINA RESULT:      -9.5      1.903      4.962
  Name = 
  3 active torsions:
  status: ('A' for Active; 'I' for Inactive)
    1  A    between atoms: C_3  and  C_13
    2  A    between atoms: C_3  and  C_17
    3  A    between atoms: C_12  and  C_28
                            x       y       z     vdW  Elec       q    Type
                         _______ _______ _______ _____ _____    ______ ____

>  <TORSDO>
F 3

$$$$
=
 OpenBabel10252415013D

 34 40  0  0  1  0  0  0  0  0999 V2000
  184.5100  178.6350  144.7200 C   0  0  0  0  0  0  0  0  0  0  0  0
  183.8630  178.7500  142.3670 C   0  0  0  0  0  0  0  0  0  0  0  0
  186.1760  178.3880  142.9780 C   0  0  0  0  0  0  0  0  0  0  0  0
  187.8450  178.1410  141.2540 C   0  0  0  0  0  0  0  0  0  0  0  0
  182.1930  178.9980  144.1080 C   0  0  0  0  0  3  0  0  0  0  0  0
  182.5330  178.9530  142.7480 C   0  0  0  0  0  3  0  0  0  0  0  0
  185.5060  178.5010  140.6590 C   0  0  0  0  0  0  0  0  0  0  0  0
  184.8490  178.5920  143.3590 C   0  0  0  0  0  0  0  0  0  0  0  0
  185.8690  178.4220  139.2330 C   0  0  0  0  0  0  0  0  0  0  0  0
  188.2470  178.1210  139.8020 C   0  0  0  0  0  2  0  0  0  0  0  0
  183.1780  178.8400  145.0940 C   0  0  0  0  0  3  0  0  0  0  0  0
  187.1640  178.2270  143.9620 C   0  0  0  0  0  0  0  0  0  0  0  0
  185.5210  178.4710  145.6750 C   0  0  0  0  0  3  0  0  0  0  0  0
  184.2120  178.7000  141.0500 N   0  0  0  0  0  0  0  0  0  0  0  0
  188.7940  177.9900  142.2190 N   0  0  0  0  0  0  0  0  0  0  0  0
  188.4990  178.0230  143.5510 C   0  0  0  0  0  0  0  0  0  0  0  0
  187.1070  178.2310  138.8780 N   0  0  0  0  0  0  0  0  0  0  0  0
  186.5110  178.3440  141.6210 C   0  0  0  0  0  0  0  0  0  0  0  0
  186.8110  178.2730  145.2810 N   0  0  0  0  0  0  0  0  0  0  0  0
  190.2740  177.0750  146.8500 C   0  0  1  0  0  3  0  0  0  0  0  0
  191.6800  176.9610  146.2440 C   0  0  0  0  0  2  0  0  0  0  0  0
  189.6210  177.8420  144.5300 C   0  0  1  0  0  3  0  0  0  0  0  0
  191.6510  176.3120  144.8640 C   0  0  0  0  0  2  0  0  0  0  0  0
  189.1530  177.1370  145.8050 C   0  0  0  0  0  2  0  0  0  0  0  0
  190.8320  177.1530  143.8790 C   0  0  0  0  0  2  0  0  0  0  0  0
  190.0440  176.0030  147.7110 O   0  0  0  0  0  1  0  0  0  0  0  0
  184.8120  178.5060  138.1790 C   0  0  0  0  0  2  0  0  0  0  0  0
  185.4120  177.1280  135.6300 N   0  0  0  0  0  1  0  0  0  0  0  0
  184.2800  177.1190  137.8160 C   0  0  2  0  0  3  0  0  0  0  0  0
  184.1320  176.9600  136.2950 C   0  0  1  0  0  3  0  0  0  0  0  0
  181.9610  178.1040  136.5770 C   0  0  0  0  0  2  0  0  0  0  0  0
  181.7350  176.9760  137.5840 C   0  0  0  0  0  2  0  0  0  0  0  0
  182.9400  176.8510  138.5190 C   0  0  0  0  0  2  0  0  0  0  0  0
  183.1410  177.8860  135.7210 N   0  0  0  0  0  2  0  0  0  0  0  0
  1 11  2  0  0  0  0
  1 13  1  0  0  0  0
  2  6  1  0  0  0  0
  2  8  1  0  0  0  0
  3  8  2  0  0  0  0
  3 12  1  0  0  0  0
  4 18  1  0  0  0  0
  4 15  2  0  0  0  0
  5 11  1  0  0  0  0
  6  5  2  0  0  0  0
  7 14  1  0  0  0  0
  7 18  2  0  0  0  0
  8  1  1  0  0  0  0
  9  7  1  0  0  0  0
 10  4  1  0  0  0  0
 12 19  1  0  0  0  0
 14  2  2  0  0  0  0
 15 16  1  0  0  0  0
 16 12  2  0  0  0  0
 17  9  2  0  0  0  0
 17 10  1  0  0  0  0
 18  3  1  0  0  0  0
 19 13  2  0  0  0  0
 20 26  1  1  0  0  0
 21 20  1  0  0  0  0
 22 16  1  6  0  0  0
 22 24  1  0  0  0  0
 23 21  1  0  0  0  0
 24 20  1  0  0  0  0
 25 22  1  0  0  0  0
 25 23  1  0  0  0  0
 27  9  1  0  0  0  0
 29 27  1  6  0  0  0
 29 33  1  0  0  0  0
 30 28  1  6  0  0  0
 30 29  1  0  0  0  0
 31 32  1  0  0  0  0
 32 33  1  0  0  0  0
 34 30  1  0  0  0  0
 34 31  1  0  0  0  0
M  END
>  <MODEL>
7

>  <REMARK>
 VINA RESULT:      -9.5      2.022      3.276
  Name = 
  3 active torsions:
  status: ('A' for Active; 'I' for Inactive)
    1  A    between atoms: C_3  and  C_13
    2  A    between atoms: C_3  and  C_17
    3  A    between atoms: C_12  and  C_28
                            x       y       z     vdW  Elec       q    Type
                         _______ _______ _______ _____ _____    ______ ____

>  <TORSDO>
F 3

$$$$
=
 OpenBabel10252415013D

 34 40  0  0  1  0  0  0  0  0999 V2000
  188.8350  177.4850  144.6680 C   0  0  0  0  0  0  0  0  0  0  0  0
  190.3850  177.0940  142.8200 C   0  0  0  0  0  0  0  0  0  0  0  0
  188.1350  177.8670  142.3790 C   0  0  0  0  0  0  0  0  0  0  0  0
  187.4260  178.2500  140.1050 C   0  0  0  0  0  0  0  0  0  0  0  0
  191.0880  176.7100  145.1090 C   0  0  0  0  0  3  0  0  0  0  0  0
  191.3700  176.7080  143.7350 C   0  0  0  0  0  3  0  0  0  0  0  0
  189.6910  177.4770  140.5720 C   0  0  0  0  0  0  0  0  0  0  0  0
  189.1170  177.4810  143.2930 C   0  0  0  0  0  0  0  0  0  0  0  0
  189.9870  177.5070  139.1290 C   0  0  0  0  0  0  0  0  0  0  0  0
  187.6860  178.2280  138.6220 C   0  0  0  0  0  2  0  0  0  0  0  0
  189.8240  177.0970  145.5760 C   0  0  0  0  0  3  0  0  0  0  0  0
  186.8690  178.2570  142.8430 C   0  0  0  0  0  0  0  0  0  0  0  0
  187.5610  177.8790  145.0960 C   0  0  0  0  0  3  0  0  0  0  0  0
  190.6410  177.1020  141.4810 N   0  0  0  0  0  0  0  0  0  0  0  0
  186.2000  178.6230  140.5700 N   0  0  0  0  0  0  0  0  0  0  0  0
  185.8930  178.6420  141.9000 C   0  0  0  0  0  0  0  0  0  0  0  0
  189.0710  177.8680  138.2770 N   0  0  0  0  0  0  0  0  0  0  0  0
  188.4190  177.8630  141.0100 C   0  0  0  0  0  0  0  0  0  0  0  0
  186.6170  178.2530  144.1860 N   0  0  0  0  0  0  0  0  0  0  0  0
  182.0400  178.9150  141.8000 C   0  0  1  0  0  3  0  0  0  0  0  0
  181.8770  179.3650  143.2600 C   0  0  0  0  0  2  0  0  0  0  0  0
  184.5140  179.0730  142.3020 C   0  0  1  0  0  3  0  0  0  0  0  0
  182.8360  178.6280  144.1890 C   0  0  0  0  0  2  0  0  0  0  0  0
  183.4360  178.3710  141.4720 C   0  0  0  0  0  2  0  0  0  0  0  0
  184.2940  178.9190  143.8160 C   0  0  0  0  0  2  0  0  0  0  0  0
  181.0840  177.9460  141.4970 O   0  0  0  0  0  1  0  0  0  0  0  0
  191.3570  177.1770  138.6310 C   0  0  0  0  0  2  0  0  0  0  0  0
  193.9540  175.7980  138.2900 N   0  0  0  0  0  1  0  0  0  0  0  0
  191.4950  175.6810  138.3440 C   0  0  2  0  0  3  0  0  0  0  0  0
  192.7760  175.3830  137.5490 C   0  0  1  0  0  3  0  0  0  0  0  0
  191.4570  176.0020  135.5550 C   0  0  0  0  0  2  0  0  0  0  0  0
  190.5170  174.9280  136.1020 C   0  0  0  0  0  2  0  0  0  0  0  0
  190.2610  175.1570  137.5930 C   0  0  0  0  0  2  0  0  0  0  0  0
  192.7750  176.0070  136.2150 N   0  0  0  0  0  2  0  0  0  0  0  0
  1 13  1  0  0  0  0
  1 11  2  0  0  0  0
  2  8  1  0  0  0  0
  2  6  1  0  0  0  0
  3 12  1  0  0  0  0
  3  8  2  0  0  0  0
  4 15  2  0  0  0  0
  4 18  1  0  0  0  0
  5 11  1  0  0  0  0
  6  5  2  0  0  0  0
  7 18  2  0  0  0  0
  7 14  1  0  0  0  0
  8  1  1  0  0  0  0
  9  7  1  0  0  0  0
 10  4  1  0  0  0  0
 12 19  1  0  0  0  0
 14  2  2  0  0  0  0
 15 16  1  0  0  0  0
 16 12  2  0  0  0  0
 17 10  1  0  0  0  0
 17  9  2  0  0  0  0
 18  3  1  0  0  0  0
 19 13  2  0  0  0  0
 20 26  1  1  0  0  0
 20 21  1  0  0  0  0
 21 23  1  0  0  0  0
 22 16  1  6  0  0  0
 22 25  1  0  0  0  0
 24 20  1  0  0  0  0
 24 22  1  0  0  0  0
 25 23  1  0  0  0  0
 27  9  1  0  0  0  0
 29 27  1  6  0  0  0
 30 28  1  1  0  0  0
 30 29  1  0  0  0  0
 31 32  1  0  0  0  0
 31 34  1  0  0  0  0
 32 33  1  0  0  0  0
 33 29  1  0  0  0  0
 34 30  1  0  0  0  0
M  END
>  <MODEL>
8

>  <REMARK>
 VINA RESULT:      -9.5      2.830      5.447
  Name = 
  3 active torsions:
  status: ('A' for Active; 'I' for Inactive)
    1  A    between atoms: C_3  and  C_13
    2  A    between atoms: C_3  and  C_17
    3  A    between atoms: C_12  and  C_28
                            x       y       z     vdW  Elec       q    Type
                         _______ _______ _______ _____ _____    ______ ____

>  <TORSDO>
F 3

$$$$
=
 OpenBabel10252415013D

 34 40  0  0  1  0  0  0  0  0999 V2000
  188.4200  177.5630  144.6860 C   0  0  0  0  0  0  0  0  0  0  0  0
  186.0800  178.2270  144.9220 C   0  0  0  0  0  0  0  0  0  0  0  0
  187.1040  178.1310  142.7320 C   0  0  0  0  0  0  0  0  0  0  0  0
  185.8050  178.6940  140.7790 C   0  0  0  0  0  0  0  0  0  0  0  0
  187.3950  177.6590  146.8800 C   0  0  0  0  0  3  0  0  0  0  0  0
  186.1810  178.0680  146.3080 C   0  0  0  0  0  3  0  0  0  0  0  0
  184.7910  178.7790  142.9960 C   0  0  0  0  0  0  0  0  0  0  0  0
  187.2050  177.9730  144.1160 C   0  0  0  0  0  0  0  0  0  0  0  0
  183.5120  179.1780  142.3830 C   0  0  0  0  0  0  0  0  0  0  0  0
  184.5250  179.1630  140.1370 C   0  0  0  0  0  3  0  0  0  0  0  0
  188.5130  177.4070  146.0720 C   0  0  0  0  0  3  0  0  0  0  0  0
  188.2210  177.8770  141.9200 C   0  0  0  0  0  0  0  0  0  0  0  0
  189.5140  177.3190  143.8470 C   0  0  0  0  0  3  0  0  0  0  0  0
  184.9080  178.6190  144.3480 N   0  0  0  0  0  0  0  0  0  0  0  0
  186.8980  178.4480  140.0040 N   0  0  0  0  0  2  0  0  0  0  0  0
  188.0930  178.0440  140.5250 C   0  0  0  0  0  0  0  0  0  0  0  0
  183.4170  179.3240  141.0930 N   0  0  0  0  0  0  0  0  0  0  0  0
  185.8920  178.5380  142.1660 C   0  0  0  0  0  0  0  0  0  0  0  0
  189.3930  177.4790  142.4980 N   0  0  0  0  0  0  0  0  0  0  0  0
  190.8490  176.0910  138.6500 C   0  0  1  0  0  3  0  0  0  0  0  0
  190.9840  177.0860  137.4880 C   0  0  0  0  0  2  0  0  0  0  0  0
  189.2310  177.7980  139.5800 C   0  0  1  0  0  3  0  0  0  0  0  0
  189.6280  177.6340  137.0520 C   0  0  0  0  0  2  0  0  0  0  0  0
  189.6030  176.3150  139.5150 C   0  0  0  0  0  2  0  0  0  0  0  0
  188.9550  178.4040  138.1940 C   0  0  0  0  0  2  0  0  0  0  0  0
  190.8400  174.7880  138.1540 O   0  0  0  0  0  1  0  0  0  0  0  0
  182.2950  179.3670  143.2300 C   0  0  0  0  0  2  0  0  0  0  0  0
  180.6140  180.3670  141.0090 N   0  0  0  0  0  1  0  0  0  0  0  0
  181.0990  178.6040  142.6580 C   0  0  2  0  0  3  0  0  0  0  0  0
  180.0490  179.5670  142.0820 C   0  0  1  0  0  3  0  0  0  0  0  0
  179.2460  179.7830  144.4070 C   0  0  0  0  0  2  0  0  0  0  0  0
  179.1650  178.2610  144.3000 C   0  0  0  0  0  2  0  0  0  0  0  0
  180.4700  177.6990  143.7300 C   0  0  0  0  0  2  0  0  0  0  0  0
  179.4590  180.4440  143.1070 N   0  0  0  0  0  2  0  0  0  0  0  0
  1 11  1  0  0  0  0
  2  6  2  0  0  0  0
  3  8  1  0  0  0  0
  4 18  1  0  0  0  0
  6  5  1  0  0  0  0
  7 14  2  0  0  0  0
  8  1  2  0  0  0  0
  8  2  1  0  0  0  0
  9  7  1  0  0  0  0
  9 27  1  0  0  0  0
 10  4  2  0  0  0  0
 10 17  1  0  0  0  0
 11  5  2  0  0  0  0
 12 19  1  0  0  0  0
 12  3  1  0  0  0  0
 13  1  1  0  0  0  0
 14  2  1  0  0  0  0
 15 16  1  0  0  0  0
 15  4  1  0  0  0  0
 16 12  2  0  0  0  0
 17  9  2  0  0  0  0
 18  3  2  0  0  0  0
 18  7  1  0  0  0  0
 19 13  2  0  0  0  0
 20 26  1  6  0  0  0
 20 24  1  0  0  0  0
 21 20  1  0  0  0  0
 22 16  1  1  0  0  0
 23 21  1  0  0  0  0
 23 25  1  0  0  0  0
 24 22  1  0  0  0  0
 25 22  1  0  0  0  0
 29 27  1  1  0  0  0
 29 33  1  0  0  0  0
 30 28  1  6  0  0  0
 30 29  1  0  0  0  0
 30 34  1  0  0  0  0
 32 31  1  0  0  0  0
 33 32  1  0  0  0  0
 34 31  1  0  0  0  0
M  END
>  <MODEL>
9

>  <REMARK>
 VINA RESULT:      -9.4      3.016      7.627
  Name = 
  3 active torsions:
  status: ('A' for Active; 'I' for Inactive)
    1  A    between atoms: C_3  and  C_13
    2  A    between atoms: C_3  and  C_17
    3  A    between atoms: C_12  and  C_28
                            x       y       z     vdW  Elec       q    Type
                         _______ _______ _______ _____ _____    ______ ____

>  <TORSDO>
F 3

$$$$
