=
 OpenBabel10262419523D

 25 29  0  0  1  0  0  0  0  0999 V2000
  186.7650  178.1510  144.5640 C   0  0  0  0  0  0  0  0  0  0  0  0
  187.9990  177.7200  144.0720 C   0  0  0  0  0  0  0  0  0  0  0  0
  187.3620  177.5320  146.8240 C   0  0  0  0  0  3  0  0  0  0  0  0
  185.6660  178.8580  143.8550 C   0  0  2  0  0  3  0  0  0  0  0  0
  182.8100  178.8430  143.4860 C   0  0  0  0  0  3  0  0  0  0  0  0
  188.5960  177.0600  146.3490 C   0  0  0  0  0  3  0  0  0  0  0  0
  184.6790  179.0220  144.9790 C   0  0  0  0  0  0  0  0  0  0  0  0
  183.2640  179.2520  144.6780 C   0  0  0  0  0  3  0  0  0  0  0  0
  190.1740  176.6460  144.4920 N   0  0  0  0  0  0  0  0  0  0  0  0
  191.3730  176.7070  145.3120 C   0  0  0  0  0  1  0  0  0  0  0  0
  188.3290  177.8910  142.6880 N   0  0  0  0  0  2  0  0  0  0  0  0
  183.7050  178.1370  142.5300 C   0  0  0  0  0  3  0  0  0  0  0  0
  186.4690  178.0810  145.9080 C   0  0  0  0  0  0  0  0  0  0  0  0
  185.1320  178.5950  146.1560 C   0  0  0  0  0  3  0  0  0  0  0  0
  190.3090  176.0720  142.8240 S   0  0  0  0  0  0  0  0  0  0  0  0
  185.0340  178.0830  142.7280 C   0  0  0  0  0  3  0  0  0  0  0  0
  189.6730  177.6480  142.1730 C   0  0  1  0  0  3  0  0  0  0  0  0
  188.9180  177.1400  144.9760 C   0  0  0  0  0  0  0  0  0  0  0  0
  190.7280  177.0070  138.5950 C   0  0  0  0  0  0  0  0  0  0  0  0
  189.6680  177.6450  140.6790 C   0  0  0  0  0  0  0  0  0  0  0  0
  190.7180  177.0280  139.9930 C   0  0  0  0  0  3  0  0  0  0  0  0
  192.0460  176.2350  137.7420 Cl  0  0  0  0  0  0  0  0  0  0  0  0
  188.6200  178.2380  139.9580 C   0  0  0  0  0  3  0  0  0  0  0  0
  189.6840  177.6020  137.8790 C   0  0  0  0  0  3  0  0  0  0  0  0
  188.6300  178.2170  138.5610 C   0  0  0  0  0  3  0  0  0  0  0  0
  1 13  1  0  0  0  0
  2  1  2  0  0  0  0
  2 18  1  0  0  0  0
  4 16  1  6  0  0  0
  4  1  1  0  0  0  0
  4  7  1  0  0  0  0
  5  8  2  0  0  0  0
  6  3  1  0  0  0  0
  7 14  2  0  0  0  0
  8  7  1  0  0  0  0
  9 18  1  0  0  0  0
  9 10  1  0  0  0  0
 11  2  1  0  0  0  0
 12 16  2  0  0  0  0
 12  5  1  0  0  0  0
 13 14  1  0  0  0  0
 13  3  2  0  0  0  0
 15  9  1  0  0  0  0
 17 20  1  6  0  0  0
 17 11  1  0  0  0  0
 17 15  1  0  0  0  0
 18  6  2  0  0  0  0
 19 21  1  0  0  0  0
 21 20  2  0  0  0  0
 22 19  1  0  0  0  0
 23 20  1  0  0  0  0
 24 25  1  0  0  0  0
 24 19  2  0  0  0  0
 25 23  2  0  0  0  0
M  END
>  <MODEL>
1

>  <REMARK>
 VINA RESULT:     -10.9      0.000      0.000
  Name = 
  1 active torsions:
  status: ('A' for Active; 'I' for Inactive)
    1  A    between atoms: C_6  and  C_23
                            x       y       z     vdW  Elec       q    Type
                         _______ _______ _______ _____ _____    ______ ____

>  <TORSDO>
F 1

$$$$
=
 OpenBabel10262419523D

 25 29  0  0  1  0  0  0  0  0999 V2000
  186.8160  178.1530  144.5230 C   0  0  0  0  0  0  0  0  0  0  0  0
  188.0440  177.6890  144.0460 C   0  0  0  0  0  0  0  0  0  0  0  0
  187.4140  177.6180  146.8050 C   0  0  0  0  0  3  0  0  0  0  0  0
  185.7230  178.8430  143.7900 C   0  0  2  0  0  3  0  0  0  0  0  0
  182.8660  178.8460  143.4300 C   0  0  0  0  0  3  0  0  0  0  0  0
  188.6400  177.1130  146.3460 C   0  0  0  0  0  3  0  0  0  0  0  0
  184.7420  179.0630  144.9090 C   0  0  0  0  0  0  0  0  0  0  0  0
  183.3280  179.2970  144.6030 C   0  0  0  0  0  3  0  0  0  0  0  0
  190.2080  176.6070  144.5030 N   0  0  0  0  0  0  0  0  0  0  0  0
  191.4100  176.6870  145.3160 C   0  0  0  0  0  1  0  0  0  0  0  0
  188.3710  177.8000  142.6550 N   0  0  0  0  0  2  0  0  0  0  0  0
  183.7500  178.0920  142.5010 C   0  0  0  0  0  3  0  0  0  0  0  0
  186.5240  178.1410  145.8700 C   0  0  0  0  0  0  0  0  0  0  0  0
  185.1930  178.6790  146.1010 C   0  0  0  0  0  3  0  0  0  0  0  0
  190.3310  175.9640  142.8590 S   0  0  0  0  0  0  0  0  0  0  0  0
  185.0780  178.0310  142.6970 C   0  0  0  0  0  3  0  0  0  0  0  0
  189.7110  177.5200  142.1470 C   0  0  1  0  0  3  0  0  0  0  0  0
  188.9590  177.1350  144.9700 C   0  0  0  0  0  0  0  0  0  0  0  0
  188.5170  177.7930  138.5650 C   0  0  0  0  0  0  0  0  0  0  0  0
  189.7000  177.4570  140.6540 C   0  0  0  0  0  0  0  0  0  0  0  0
  188.5450  177.8360  139.9630 C   0  0  0  0  0  3  0  0  0  0  0  0
  187.0690  178.2650  137.7050 Cl  0  0  0  0  0  0  0  0  0  0  0  0
  190.8330  177.0400  139.9390 C   0  0  0  0  0  3  0  0  0  0  0  0
  189.6470  177.3730  137.8550 C   0  0  0  0  0  3  0  0  0  0  0  0
  190.8040  176.9970  138.5430 C   0  0  0  0  0  3  0  0  0  0  0  0
  1 13  1  0  0  0  0
  2  1  2  0  0  0  0
  2 18  1  0  0  0  0
  4 16  1  6  0  0  0
  4  1  1  0  0  0  0
  4  7  1  0  0  0  0
  5  8  2  0  0  0  0
  6  3  1  0  0  0  0
  7 14  2  0  0  0  0
  8  7  1  0  0  0  0
  9 18  1  0  0  0  0
  9 10  1  0  0  0  0
 11  2  1  0  0  0  0
 12 16  2  0  0  0  0
 12  5  1  0  0  0  0
 13 14  1  0  0  0  0
 13  3  2  0  0  0  0
 15  9  1  0  0  0  0
 17 20  1  6  0  0  0
 17 11  1  0  0  0  0
 17 15  1  0  0  0  0
 18  6  2  0  0  0  0
 19 21  1  0  0  0  0
 21 20  2  0  0  0  0
 22 19  1  0  0  0  0
 23 20  1  0  0  0  0
 24 25  1  0  0  0  0
 24 19  2  0  0  0  0
 25 23  2  0  0  0  0
M  END
>  <MODEL>
2

>  <REMARK>
 VINA RESULT:     -10.8      1.087      1.450
  Name = 
  1 active torsions:
  status: ('A' for Active; 'I' for Inactive)
    1  A    between atoms: C_6  and  C_23
                            x       y       z     vdW  Elec       q    Type
                         _______ _______ _______ _____ _____    ______ ____

>  <TORSDO>
F 1

$$$$
=
 OpenBabel10262419523D

 25 29  0  0  1  0  0  0  0  0999 V2000
  185.6000  178.3850  143.8920 C   0  0  0  0  0  0  0  0  0  0  0  0
  186.9170  177.9730  143.6720 C   0  0  0  0  0  0  0  0  0  0  0  0
  185.7880  177.9790  146.2690 C   0  0  0  0  0  3  0  0  0  0  0  0
  184.6310  178.9800  142.9360 C   0  0  2  0  0  3  0  0  0  0  0  0
  181.8940  178.8030  142.0570 C   0  0  0  0  0  3  0  0  0  0  0  0
  187.1020  177.5270  146.0690 C   0  0  0  0  0  3  0  0  0  0  0  0
  183.4480  179.1890  143.8430 C   0  0  0  0  0  0  0  0  0  0  0  0
  182.1060  179.3280  143.2710 C   0  0  0  0  0  3  0  0  0  0  0  0
  189.0090  177.0380  144.5730 N   0  0  0  0  0  0  0  0  0  0  0  0
  190.0330  177.2210  145.5890 C   0  0  0  0  0  1  0  0  0  0  0  0
  187.4920  178.0460  142.3610 N   0  0  0  0  0  2  0  0  0  0  0  0
  182.9710  178.0640  141.3460 C   0  0  0  0  0  3  0  0  0  0  0  0
  185.0630  178.4100  145.1610 C   0  0  0  0  0  0  0  0  0  0  0  0
  183.6880  178.8800  145.1150 C   0  0  0  0  0  3  0  0  0  0  0  0
  189.4670  176.3370  143.0150 S   0  0  0  0  0  0  0  0  0  0  0  0
  184.2410  178.0880  141.7850 C   0  0  0  0  0  3  0  0  0  0  0  0
  188.9140  177.8240  142.1230 C   0  0  1  0  0  3  0  0  0  0  0  0
  187.6700  177.5110  144.7760 C   0  0  0  0  0  0  0  0  0  0  0  0
  190.6740  177.0320  138.8670 C   0  0  0  0  0  0  0  0  0  0  0  0
  189.1850  177.7000  140.6590 C   0  0  0  0  0  0  0  0  0  0  0  0
  190.4040  177.1640  140.2330 C   0  0  0  0  0  3  0  0  0  0  0  0
  192.2020  176.3630  138.3390 Cl  0  0  0  0  0  0  0  0  0  0  0  0
  188.2310  178.0990  139.7100 C   0  0  0  0  0  3  0  0  0  0  0  0
  189.7230  177.4330  137.9230 C   0  0  0  0  0  3  0  0  0  0  0  0
  188.5020  177.9670  138.3450 C   0  0  0  0  0  3  0  0  0  0  0  0
  1 13  1  0  0  0  0
  2  1  2  0  0  0  0
  2 18  1  0  0  0  0
  4 16  1  6  0  0  0
  4  7  1  0  0  0  0
  4  1  1  0  0  0  0
  5  8  2  0  0  0  0
  6  3  1  0  0  0  0
  7 14  2  0  0  0  0
  8  7  1  0  0  0  0
  9 18  1  0  0  0  0
  9 10  1  0  0  0  0
 11  2  1  0  0  0  0
 12 16  2  0  0  0  0
 12  5  1  0  0  0  0
 13  3  2  0  0  0  0
 14 13  1  0  0  0  0
 15  9  1  0  0  0  0
 17 20  1  6  0  0  0
 17 11  1  0  0  0  0
 17 15  1  0  0  0  0
 18  6  2  0  0  0  0
 19 21  1  0  0  0  0
 21 20  2  0  0  0  0
 22 19  1  0  0  0  0
 23 20  1  0  0  0  0
 24 25  1  0  0  0  0
 24 19  2  0  0  0  0
 25 23  2  0  0  0  0
M  END
>  <MODEL>
3

>  <REMARK>
 VINA RESULT:     -10.6      0.868      1.233
  Name = 
  1 active torsions:
  status: ('A' for Active; 'I' for Inactive)
    1  A    between atoms: C_6  and  C_23
                            x       y       z     vdW  Elec       q    Type
                         _______ _______ _______ _____ _____    ______ ____

>  <TORSDO>
F 1

$$$$
=
 OpenBabel10262419523D

 25 29  0  0  1  0  0  0  0  0999 V2000
  186.5680  178.0560  142.3590 C   0  0  0  0  0  0  0  0  0  0  0  0
  187.9430  177.8130  142.3960 C   0  0  0  0  0  0  0  0  0  0  0  0
  186.6300  178.4920  139.9810 C   0  0  0  0  0  3  0  0  0  0  0  0
  185.5580  177.9000  143.4380 C   0  0  2  0  0  3  0  0  0  0  0  0
  183.3340  179.2330  144.6890 C   0  0  0  0  0  3  0  0  0  0  0  0
  188.0190  178.2870  139.9980 C   0  0  0  0  0  3  0  0  0  0  0  0
  184.3110  178.3080  142.7030 C   0  0  0  0  0  0  0  0  0  0  0  0
  183.1340  178.7520  143.4550 C   0  0  0  0  0  3  0  0  0  0  0  0
  190.1040  177.7610  141.2170 N   0  0  0  0  0  0  0  0  0  0  0  0
  190.8000  177.2040  140.0680 C   0  0  0  0  0  1  0  0  0  0  0  0
  188.5760  177.4000  143.6140 N   0  0  0  0  0  2  0  0  0  0  0  0
  184.7070  179.3560  145.2470 C   0  0  0  0  0  3  0  0  0  0  0  0
  185.9290  178.3610  141.1770 C   0  0  0  0  0  0  0  0  0  0  0  0
  184.5080  178.5600  141.4110 C   0  0  0  0  0  3  0  0  0  0  0  0
  191.0170  178.0730  142.7000 S   0  0  0  0  0  0  0  0  0  0  0  0
  185.7620  178.7910  144.6360 C   0  0  0  0  0  3  0  0  0  0  0  0
  189.9600  176.9390  143.6530 C   0  0  1  0  0  3  0  0  0  0  0  0
  188.6840  177.9580  141.2000 C   0  0  0  0  0  0  0  0  0  0  0  0
  190.0810  177.2830  147.4200 C   0  0  0  0  0  0  0  0  0  0  0  0
  190.4340  176.8290  145.0660 C   0  0  0  0  0  0  0  0  0  0  0  0
  189.6610  177.3840  146.0900 C   0  0  0  0  0  3  0  0  0  0  0  0
  189.1110  177.9810  148.6980 Cl  0  0  0  0  0  0  0  0  0  0  0  0
  191.6300  176.1660  145.3790 C   0  0  0  0  0  3  0  0  0  0  0  0
  191.2760  176.6260  147.7290 C   0  0  0  0  0  3  0  0  0  0  0  0
  192.0510  176.0670  146.7080 C   0  0  0  0  0  3  0  0  0  0  0  0
  1  2  1  0  0  0  0
  1  4  1  0  0  0  0
  2 11  1  0  0  0  0
  3  6  2  0  0  0  0
  3 13  1  0  0  0  0
  4 16  1  1  0  0  0
  5 12  1  0  0  0  0
  6 18  1  0  0  0  0
  7  4  1  0  0  0  0
  7  8  1  0  0  0  0
  8  5  2  0  0  0  0
  9 15  1  0  0  0  0
 10  9  1  0  0  0  0
 11 17  1  0  0  0  0
 13 14  1  0  0  0  0
 13  1  2  0  0  0  0
 14  7  2  0  0  0  0
 15 17  1  0  0  0  0
 16 12  2  0  0  0  0
 17 20  1  1  0  0  0
 18  9  1  0  0  0  0
 18  2  2  0  0  0  0
 19 24  1  0  0  0  0
 19 22  1  0  0  0  0
 20 23  2  0  0  0  0
 20 21  1  0  0  0  0
 21 19  2  0  0  0  0
 23 25  1  0  0  0  0
 25 24  2  0  0  0  0
M  END
>  <MODEL>
4

>  <REMARK>
 VINA RESULT:     -10.3      2.674      5.394
  Name = 
  1 active torsions:
  status: ('A' for Active; 'I' for Inactive)
    1  A    between atoms: C_6  and  C_23
                            x       y       z     vdW  Elec       q    Type
                         _______ _______ _______ _____ _____    ______ ____

>  <TORSDO>
F 1

$$$$
=
 OpenBabel10262419523D

 25 29  0  0  1  0  0  0  0  0999 V2000
  189.1130  177.2980  143.2700 C   0  0  0  0  0  0  0  0  0  0  0  0
  188.1090  177.6020  144.1920 C   0  0  0  0  0  0  0  0  0  0  0  0
  190.7820  177.1630  145.0160 C   0  0  0  0  0  3  0  0  0  0  0  0
  189.0000  177.0290  141.8140 C   0  0  2  0  0  3  0  0  0  0  0  0
  190.1910  177.6850  139.2750 C   0  0  0  0  0  3  0  0  0  0  0  0
  189.7980  177.5020  145.9580 C   0  0  0  0  0  3  0  0  0  0  0  0
  190.4410  176.7600  141.4750 C   0  0  0  0  0  0  0  0  0  0  0  0
  190.9010  176.8930  140.0900 C   0  0  0  0  0  3  0  0  0  0  0  0
  187.4630  178.0920  146.5180 N   0  0  0  0  0  0  0  0  0  0  0  0
  187.5140  177.5860  147.8800 C   0  0  0  0  0  1  0  0  0  0  0  0
  186.7490  177.7490  143.7630 N   0  0  0  0  0  2  0  0  0  0  0  0
  189.0130  178.4380  139.7790 C   0  0  0  0  0  3  0  0  0  0  0  0
  190.4080  177.0600  143.6790 C   0  0  0  0  0  0  0  0  0  0  0  0
  191.2500  176.7620  142.5320 C   0  0  0  0  0  3  0  0  0  0  0  0
  186.0670  179.0560  146.0170 S   0  0  0  0  0  0  0  0  0  0  0  0
  188.4880  178.1830  140.9910 C   0  0  0  0  0  3  0  0  0  0  0  0
  185.6430  177.8620  144.7090 C   0  0  1  0  0  3  0  0  0  0  0  0
  188.4640  177.7330  145.5550 C   0  0  0  0  0  0  0  0  0  0  0  0
  183.1990  178.6280  141.9230 C   0  0  0  0  0  0  0  0  0  0  0  0
  184.3910  178.2670  144.0020 C   0  0  0  0  0  0  0  0  0  0  0  0
  184.3640  178.2610  142.6040 C   0  0  0  0  0  3  0  0  0  0  0  0
  183.1700  178.6210  140.1740 Cl  0  0  0  0  0  0  0  0  0  0  0  0
  183.2420  178.6360  144.7190 C   0  0  0  0  0  3  0  0  0  0  0  0
  182.0560  178.9990  142.6400 C   0  0  0  0  0  3  0  0  0  0  0  0
  182.0790  179.0030  144.0370 C   0  0  0  0  0  3  0  0  0  0  0  0
  1 13  2  0  0  0  0
  1  2  1  0  0  0  0
  2 18  2  0  0  0  0
  3  6  2  0  0  0  0
  4 16  1  6  0  0  0
  4  1  1  0  0  0  0
  5 12  1  0  0  0  0
  5  8  2  0  0  0  0
  7  4  1  0  0  0  0
  7 14  2  0  0  0  0
  8  7  1  0  0  0  0
  9 10  1  0  0  0  0
 11  2  1  0  0  0  0
 11 17  1  0  0  0  0
 12 16  2  0  0  0  0
 13  3  1  0  0  0  0
 14 13  1  0  0  0  0
 15  9  1  0  0  0  0
 17 20  1  6  0  0  0
 17 15  1  0  0  0  0
 18  6  1  0  0  0  0
 18  9  1  0  0  0  0
 19 21  2  0  0  0  0
 19 24  1  0  0  0  0
 20 23  2  0  0  0  0
 21 20  1  0  0  0  0
 22 19  1  0  0  0  0
 24 25  2  0  0  0  0
 25 23  1  0  0  0  0
M  END
>  <MODEL>
5

>  <REMARK>
 VINA RESULT:      -9.7      2.605      6.118
  Name = 
  1 active torsions:
  status: ('A' for Active; 'I' for Inactive)
    1  A    between atoms: C_6  and  C_23
                            x       y       z     vdW  Elec       q    Type
                         _______ _______ _______ _____ _____    ______ ____

>  <TORSDO>
F 1

$$$$
=
 OpenBabel10262419523D

 25 29  0  0  1  0  0  0  0  0999 V2000
  187.7860  177.5100  145.2310 C   0  0  0  0  0  0  0  0  0  0  0  0
  187.0310  177.8760  144.1140 C   0  0  0  0  0  0  0  0  0  0  0  0
  185.9740  178.0660  146.7330 C   0  0  0  0  0  3  0  0  0  0  0  0
  189.1280  176.8750  145.2900 C   0  0  2  0  0  3  0  0  0  0  0  0
  191.6790  177.0560  146.6140 C   0  0  0  0  0  3  0  0  0  0  0  0
  185.2080  178.4740  145.6290 C   0  0  0  0  0  3  0  0  0  0  0  0
  189.3050  176.7530  146.7790 C   0  0  0  0  0  0  0  0  0  0  0  0
  190.6490  176.6070  147.3440 C   0  0  0  0  0  3  0  0  0  0  0  0
  184.9510  178.8210  143.1960 N   0  0  0  0  0  0  0  0  0  0  0  0
  183.5040  178.6820  143.1870 C   0  0  0  0  0  1  0  0  0  0  0  0
  187.5590  177.7040  142.7920 N   0  0  0  0  0  2  0  0  0  0  0  0
  191.4530  177.7220  145.3040 C   0  0  0  0  0  3  0  0  0  0  0  0
  187.2580  177.5790  146.5020 C   0  0  0  0  0  0  0  0  0  0  0  0
  188.2410  177.1390  147.4790 C   0  0  0  0  0  3  0  0  0  0  0  0
  185.7610  179.4070  141.7360 S   0  0  0  0  0  0  0  0  0  0  0  0
  190.2480  177.6980  144.7070 C   0  0  0  0  0  3  0  0  0  0  0  0
  186.7380  177.8780  141.5980 C   0  0  1  0  0  3  0  0  0  0  0  0
  185.7310  178.3920  144.3200 C   0  0  0  0  0  0  0  0  0  0  0  0
  189.7620  177.5590  139.3440 C   0  0  0  0  0  0  0  0  0  0  0  0
  187.5940  177.9000  140.3740 C   0  0  0  0  0  0  0  0  0  0  0  0
  188.9450  177.5540  140.4800 C   0  0  0  0  0  3  0  0  0  0  0  0
  191.4520  177.1280  139.4820 Cl  0  0  0  0  0  0  0  0  0  0  0  0
  187.0610  178.2470  139.1240 C   0  0  0  0  0  3  0  0  0  0  0  0
  189.2280  177.9090  138.1000 C   0  0  0  0  0  3  0  0  0  0  0  0
  187.8770  178.2520  137.9900 C   0  0  0  0  0  3  0  0  0  0  0  0
  1  4  1  0  0  0  0
  1 13  1  0  0  0  0
  2 18  1  0  0  0  0
  2  1  2  0  0  0  0
  4 16  1  1  0  0  0
  4  7  1  0  0  0  0
  5  8  2  0  0  0  0
  6  3  1  0  0  0  0
  7  8  1  0  0  0  0
  7 14  2  0  0  0  0
  9 18  1  0  0  0  0
 10  9  1  0  0  0  0
 11  2  1  0  0  0  0
 12  5  1  0  0  0  0
 13  3  2  0  0  0  0
 13 14  1  0  0  0  0
 15  9  1  0  0  0  0
 16 12  2  0  0  0  0
 17 20  1  6  0  0  0
 17 15  1  0  0  0  0
 17 11  1  0  0  0  0
 18  6  2  0  0  0  0
 19 22  1  0  0  0  0
 19 21  1  0  0  0  0
 20 21  2  0  0  0  0
 23 20  1  0  0  0  0
 24 19  2  0  0  0  0
 25 24  1  0  0  0  0
 25 23  2  0  0  0  0
M  END
>  <MODEL>
6

>  <REMARK>
 VINA RESULT:      -9.4      1.771      4.553
  Name = 
  1 active torsions:
  status: ('A' for Active; 'I' for Inactive)
    1  A    between atoms: C_6  and  C_23
                            x       y       z     vdW  Elec       q    Type
                         _______ _______ _______ _____ _____    ______ ____

>  <TORSDO>
F 1

$$$$
=
 OpenBabel10262419523D

 25 29  0  0  1  0  0  0  0  0999 V2000
  187.5360  177.7060  142.9380 C   0  0  0  0  0  0  0  0  0  0  0  0
  187.8140  177.7790  141.5700 C   0  0  0  0  0  0  0  0  0  0  0  0
  185.3100  178.5940  142.6120 C   0  0  0  0  0  3  0  0  0  0  0  0
  188.3540  177.1210  144.0320 C   0  0  2  0  0  3  0  0  0  0  0  0
  189.3120  177.6500  146.6950 C   0  0  0  0  0  3  0  0  0  0  0  0
  185.5770  178.7090  141.2390 C   0  0  0  0  0  3  0  0  0  0  0  0
  187.4500  177.3700  145.2090 C   0  0  0  0  0  0  0  0  0  0  0  0
  188.0060  177.3820  146.5640 C   0  0  0  0  0  3  0  0  0  0  0  0
  187.1010  178.4460  139.3100 N   0  0  0  0  0  0  0  0  0  0  0  0
  186.0470  178.2930  138.3200 C   0  0  0  0  0  1  0  0  0  0  0  0
  189.0600  177.2940  141.0550 N   0  0  0  0  0  2  0  0  0  0  0  0
  190.1480  177.9710  145.5080 C   0  0  0  0  0  3  0  0  0  0  0  0
  186.3070  178.0800  143.4370 C   0  0  0  0  0  0  0  0  0  0  0  0
  186.2760  177.9030  144.8790 C   0  0  0  0  0  3  0  0  0  0  0  0
  188.7670  178.6660  138.7570 S   0  0  0  0  0  0  0  0  0  0  0  0
  189.6860  177.7880  144.2590 C   0  0  0  0  0  3  0  0  0  0  0  0
  189.3100  177.1610  139.6230 C   0  0  1  0  0  3  0  0  0  0  0  0
  186.8270  178.3150  140.7110 C   0  0  0  0  0  0  0  0  0  0  0  0
  192.4710  175.8140  138.0360 C   0  0  0  0  0  0  0  0  0  0  0  0
  190.7580  176.8910  139.3690 C   0  0  0  0  0  0  0  0  0  0  0  0
  191.1220  176.0720  138.2960 C   0  0  0  0  0  3  0  0  0  0  0  0
  192.9210  174.7870  136.6930 Cl  0  0  0  0  0  0  0  0  0  0  0  0
  191.7530  177.4570  140.1810 C   0  0  0  0  0  3  0  0  0  0  0  0
  193.4610  176.3770  138.8480 C   0  0  0  0  0  3  0  0  0  0  0  0
  193.1010  177.1980  139.9200 C   0  0  0  0  0  3  0  0  0  0  0  0
  1 13  1  0  0  0  0
  1  4  1  0  0  0  0
  2  1  2  0  0  0  0
  3 13  2  0  0  0  0
  4 16  1  1  0  0  0
  4  7  1  0  0  0  0
  6  3  1  0  0  0  0
  7  8  1  0  0  0  0
  8  5  2  0  0  0  0
  9 18  1  0  0  0  0
 10  9  1  0  0  0  0
 11  2  1  0  0  0  0
 12  5  1  0  0  0  0
 13 14  1  0  0  0  0
 14  7  2  0  0  0  0
 15  9  1  0  0  0  0
 15 17  1  0  0  0  0
 16 12  2  0  0  0  0
 17 20  1  1  0  0  0
 17 11  1  0  0  0  0
 18  6  2  0  0  0  0
 18  2  1  0  0  0  0
 19 21  2  0  0  0  0
 19 24  1  0  0  0  0
 20 23  2  0  0  0  0
 21 20  1  0  0  0  0
 22 19  1  0  0  0  0
 24 25  2  0  0  0  0
 25 23  1  0  0  0  0
M  END
>  <MODEL>
7

>  <REMARK>
 VINA RESULT:      -9.2      1.969      4.493
  Name = 
  1 active torsions:
  status: ('A' for Active; 'I' for Inactive)
    1  A    between atoms: C_6  and  C_23
                            x       y       z     vdW  Elec       q    Type
                         _______ _______ _______ _____ _____    ______ ____

>  <TORSDO>
F 1

$$$$
=
 OpenBabel10262419523D

 25 29  0  0  1  0  0  0  0  0999 V2000
  187.9470  177.4990  143.2860 C   0  0  0  0  0  0  0  0  0  0  0  0
  186.7110  177.9060  143.7950 C   0  0  0  0  0  0  0  0  0  0  0  0
  188.9430  177.5060  145.4910 C   0  0  0  0  0  3  0  0  0  0  0  0
  188.3060  177.0930  141.9030 C   0  0  2  0  0  3  0  0  0  0  0  0
  190.2930  177.4840  139.8550 C   0  0  0  0  0  3  0  0  0  0  0  0
  187.7210  177.9490  146.0210 C   0  0  0  0  0  3  0  0  0  0  0  0
  189.7650  176.7710  142.0840 C   0  0  0  0  0  0  0  0  0  0  0  0
  190.6590  176.7620  140.9230 C   0  0  0  0  0  3  0  0  0  0  0  0
  185.3620  178.6260  145.7240 N   0  0  0  0  0  0  0  0  0  0  0  0
  184.9400  178.2530  147.0650 C   0  0  0  0  0  1  0  0  0  0  0  0
  185.5760  178.0320  142.9290 N   0  0  0  0  0  2  0  0  0  0  0  0
  189.0500  178.3000  139.8750 C   0  0  0  0  0  3  0  0  0  0  0  0
  189.0240  177.2810  144.1190 C   0  0  0  0  0  0  0  0  0  0  0  0
  190.1810  176.8610  143.3450 C   0  0  0  0  0  3  0  0  0  0  0  0
  184.2540  179.5590  144.7090 S   0  0  0  0  0  0  0  0  0  0  0  0
  188.1460  178.1710  140.8610 C   0  0  0  0  0  3  0  0  0  0  0  0
  184.2280  178.2530  143.4420 C   0  0  1  0  0  3  0  0  0  0  0  0
  186.6050  178.1610  145.1810 C   0  0  0  0  0  0  0  0  0  0  0  0
  182.8930  178.8510  139.9510 C   0  0  0  0  0  0  0  0  0  0  0  0
  183.2970  178.6070  142.3290 C   0  0  0  0  0  0  0  0  0  0  0  0
  183.7510  178.5320  141.0090 C   0  0  0  0  0  3  0  0  0  0  0  0
  183.4670  178.7570  138.3010 Cl  0  0  0  0  0  0  0  0  0  0  0  0
  181.9740  178.9980  142.5880 C   0  0  0  0  0  3  0  0  0  0  0  0
  181.5760  179.2430  140.2120 C   0  0  0  0  0  3  0  0  0  0  0  0
  181.1170  179.3170  141.5310 C   0  0  0  0  0  3  0  0  0  0  0  0
  1  2  2  0  0  0  0
  1 13  1  0  0  0  0
  2 18  1  0  0  0  0
  3  6  1  0  0  0  0
  4 16  1  6  0  0  0
  4  7  1  0  0  0  0
  4  1  1  0  0  0  0
  5 12  1  0  0  0  0
  5  8  2  0  0  0  0
  7 14  2  0  0  0  0
  8  7  1  0  0  0  0
  9 10  1  0  0  0  0
 11 17  1  0  0  0  0
 11  2  1  0  0  0  0
 12 16  2  0  0  0  0
 13  3  2  0  0  0  0
 14 13  1  0  0  0  0
 15  9  1  0  0  0  0
 17 20  1  6  0  0  0
 17 15  1  0  0  0  0
 18  9  1  0  0  0  0
 18  6  2  0  0  0  0
 19 24  2  0  0  0  0
 19 21  1  0  0  0  0
 20 23  1  0  0  0  0
 21 20  2  0  0  0  0
 22 19  1  0  0  0  0
 24 25  1  0  0  0  0
 25 23  2  0  0  0  0
M  END
>  <MODEL>
8

>  <REMARK>
 VINA RESULT:      -9.1      2.849      6.048
  Name = 
  1 active torsions:
  status: ('A' for Active; 'I' for Inactive)
    1  A    between atoms: C_6  and  C_23
                            x       y       z     vdW  Elec       q    Type
                         _______ _______ _______ _____ _____    ______ ____

>  <TORSDO>
F 1

$$$$
=
 OpenBabel10262419523D

 25 29  0  0  1  0  0  0  0  0999 V2000
  186.6670  177.9470  145.0610 C   0  0  0  0  0  0  0  0  0  0  0  0
  186.5960  178.0590  143.6710 C   0  0  0  0  0  0  0  0  0  0  0  0
  184.3930  178.7300  145.3160 C   0  0  0  0  0  3  0  0  0  0  0  0
  187.7520  177.3820  145.9040 C   0  0  2  0  0  3  0  0  0  0  0  0
  189.3110  177.9070  148.2670 C   0  0  0  0  0  3  0  0  0  0  0  0
  184.3090  178.8840  143.9230 C   0  0  0  0  0  3  0  0  0  0  0  0
  187.1550  177.5640  147.2730 C   0  0  0  0  0  0  0  0  0  0  0  0
  188.0260  177.5780  148.4520 C   0  0  0  0  0  3  0  0  0  0  0  0
  185.3230  178.7320  141.6740 N   0  0  0  0  0  0  0  0  0  0  0  0
  184.0660  178.5460  140.9670 C   0  0  0  0  0  1  0  0  0  0  0  0
  187.6980  177.6450  142.8520 N   0  0  0  0  0  2  0  0  0  0  0  0
  189.8150  178.2910  146.9220 C   0  0  0  0  0  3  0  0  0  0  0  0
  185.5830  178.2500  145.8570 C   0  0  0  0  0  0  0  0  0  0  0  0
  185.9150  178.0450  147.2570 C   0  0  0  0  0  3  0  0  0  0  0  0
  186.7910  179.0440  140.7380 S   0  0  0  0  0  0  0  0  0  0  0  0
  189.0690  178.1100  145.8190 C   0  0  0  0  0  3  0  0  0  0  0  0
  187.5950  177.5510  141.3990 C   0  0  1  0  0  3  0  0  0  0  0  0
  185.4070  178.5620  143.0950 C   0  0  0  0  0  0  0  0  0  0  0  0
  190.3090  177.0020  138.8190 C   0  0  0  0  0  0  0  0  0  0  0  0
  188.9450  177.3580  140.7910 C   0  0  0  0  0  0  0  0  0  0  0  0
  189.0520  177.1760  139.4090 C   0  0  0  0  0  3  0  0  0  0  0  0
  190.4370  176.7730  137.0890 Cl  0  0  0  0  0  0  0  0  0  0  0  0
  190.1040  177.3700  141.5820 C   0  0  0  0  0  3  0  0  0  0  0  0
  191.4610  177.0110  139.6100 C   0  0  0  0  0  3  0  0  0  0  0  0
  191.3590  177.1950  140.9920 C   0  0  0  0  0  3  0  0  0  0  0  0
  1 13  1  0  0  0  0
  1  4  1  0  0  0  0
  2  1  2  0  0  0  0
  3 13  2  0  0  0  0
  4 16  1  1  0  0  0
  4  7  1  0  0  0  0
  5  8  2  0  0  0  0
  6  3  1  0  0  0  0
  7  8  1  0  0  0  0
  9 18  1  0  0  0  0
 10  9  1  0  0  0  0
 11  2  1  0  0  0  0
 12  5  1  0  0  0  0
 13 14  1  0  0  0  0
 14  7  2  0  0  0  0
 15 17  1  0  0  0  0
 15  9  1  0  0  0  0
 16 12  2  0  0  0  0
 17 20  1  6  0  0  0
 17 11  1  0  0  0  0
 18  2  1  0  0  0  0
 18  6  2  0  0  0  0
 19 21  2  0  0  0  0
 19 24  1  0  0  0  0
 20 23  2  0  0  0  0
 21 20  1  0  0  0  0
 22 19  1  0  0  0  0
 24 25  2  0  0  0  0
 25 23  1  0  0  0  0
M  END
>  <MODEL>
9

>  <REMARK>
 VINA RESULT:      -9.0      1.692      4.253
  Name = 
  1 active torsions:
  status: ('A' for Active; 'I' for Inactive)
    1  A    between atoms: C_6  and  C_23
                            x       y       z     vdW  Elec       q    Type
                         _______ _______ _______ _____ _____    ______ ____

>  <TORSDO>
F 1

$$$$
