=
 OpenBabel10262422503D

 37 41  0  0  1  0  0  0  0  0999 V2000
  184.0450  178.0800  140.1030 C   0  0  1  0  0  0  0  0  0  0  0  0
  186.6900  178.2180  137.3090 C   0  0  1  0  0  0  0  0  0  0  0  0
  188.1560  178.6730  140.8140 C   0  0  2  0  0  3  0  0  0  0  0  0
  182.9550  179.1160  139.7370 C   0  0  1  0  0  3  0  0  0  0  0  0
  188.9410  177.6870  138.2450 C   0  0  0  0  0  3  0  0  0  0  0  0
  187.4150  177.8830  141.8730 C   0  0  0  0  0  0  0  0  0  0  0  0
  182.0530  179.4050  142.0940 C   0  0  0  0  0  0  0  0  0  0  0  0
  187.4050  178.8380  139.6160 O   0  0  0  0  0  0  0  0  0  0  0  0
  188.1220  177.4500  142.9500 C   0  0  0  0  0  0  0  0  0  0  0  0
  191.1740  177.0540  139.1720 N   0  0  0  0  0  1  0  0  0  0  0  0
  181.9080  179.3310  140.6990 O   0  0  0  0  0  0  0  0  0  0  0  0
  184.7380  177.5270  138.8390 C   0  0  0  0  0  2  0  0  0  0  0  0
  186.6200  176.8650  136.6110 C   0  0  0  0  0  1  0  0  0  0  0  0
  190.2890  177.7960  141.8040 C   0  0  0  0  0  3  0  0  0  0  0  0
  189.9000  177.6630  139.3670 C   0  0  0  0  0  0  0  0  0  0  0  0
  185.3070  178.5840  137.8780 C   0  0  0  0  0  2  0  0  0  0  0  0
  183.2620  178.9050  142.8240 C   0  0  0  0  0  2  0  0  0  0  0  0
  185.9660  177.5030  141.6730 C   0  0  0  0  0  2  0  0  0  0  0  0
  189.5190  178.0810  140.5840 C   0  0  0  0  0  0  0  0  0  0  0  0
  185.0970  178.6280  141.1030 C   0  0  2  0  0  3  0  0  0  0  0  0
  187.7230  178.2180  138.4070 C   0  0  0  0  0  0  0  0  0  0  0  0
  187.0410  179.1830  136.3650 O   0  0  0  0  0  1  0  0  0  0  0  0
  184.5380  179.4820  142.2430 C   0  0  0  0  0  2  0  0  0  0  0  0
  181.0920  179.8470  142.7750 O   0  0  0  0  0  0  0  0  0  0  0  0
  183.4010  176.9980  140.6840 F   0  0  0  0  0  0  0  0  0  0  0  0
  189.6150  177.5300  142.9320 C   0  0  0  0  0  3  0  0  0  0  0  0
  187.3070  175.5110  144.0540 O   0  0  0  0  0  0  0  0  0  0  0  0
  187.4830  176.7600  144.1000 C   0  0  0  0  0  0  0  0  0  0  0  0
  185.8500  178.1980  145.3590 C   0  0  0  0  0  3  0  0  0  0  0  0
  187.0670  177.4980  145.3160 C   0  0  0  0  0  0  0  0  0  0  0  0
  187.8800  177.4770  146.4590 C   0  0  0  0  0  3  0  0  0  0  0  0
  188.3630  178.1260  148.8220 C   0  0  0  0  0  1  0  0  0  0  0  0
  186.2820  178.8520  147.6480 C   0  0  0  0  0  3  0  0  0  0  0  0
  187.4920  178.1530  147.6190 C   0  0  0  0  0  0  0  0  0  0  0  0
  185.4620  178.8740  146.5180 C   0  0  0  0  0  3  0  0  0  0  0  0
  182.2880  180.9710  138.5520 C   0  0  0  0  0  1  0  0  0  0  0  0
  183.3930  180.2860  139.0720 O   0  0  0  0  0  0  0  0  0  0  0  0
  1 25  1  1  0  0  0
  1 20  1  0  0  0  0
  2 13  1  6  0  0  0
  2 16  1  0  0  0  0
  2 21  1  0  0  0  0
  3  8  1  6  0  0  0
  3  6  1  0  0  0  0
  4 37  1  1  0  0  0
  4  1  1  0  0  0  0
  4 11  1  0  0  0  0
  5 21  2  0  0  0  0
  5 15  1  0  0  0  0
  6  9  2  0  0  0  0
  7 24  2  0  0  0  0
  7 17  1  0  0  0  0
  9 28  1  0  0  0  0
 10 15  1  0  0  0  0
 11  7  1  0  0  0  0
 12  1  1  0  0  0  0
 14 26  2  0  0  0  0
 15 19  2  0  0  0  0
 16 12  1  0  0  0  0
 18  6  1  0  0  0  0
 19  3  1  0  0  0  0
 19 14  1  0  0  0  0
 20 18  1  1  0  0  0
 20 23  1  0  0  0  0
 21  8  1  0  0  0  0
 22  2  1  0  0  0  0
 23 17  1  0  0  0  0
 26  9  1  0  0  0  0
 27 28  2  0  0  0  0
 28 30  1  0  0  0  0
 29 35  1  0  0  0  0
 30 29  2  0  0  0  0
 30 31  1  0  0  0  0
 31 34  2  0  0  0  0
 34 33  1  0  0  0  0
 34 32  1  0  0  0  0
 35 33  2  0  0  0  0
 36 37  1  0  0  0  0
M  END
>  <MODEL>
1

>  <REMARK>
 VINA RESULT:      -8.1      0.000      0.000
  Name = 
  3 active torsions:
  status: ('A' for Active; 'I' for Inactive)
    1  A    between atoms: C_5  and  O_23
    2  A    between atoms: C_6  and  C_31
    3  A    between atoms: C_14  and  C_31
                            x       y       z     vdW  Elec       q    Type
                         _______ _______ _______ _____ _____    ______ ____

>  <TORSDO>
F 3

$$$$
=
 OpenBabel10262422503D

 37 41  0  0  1  0  0  0  0  0999 V2000
  182.4950  177.2460  138.0310 C   0  0  1  0  0  0  0  0  0  0  0  0
  185.3500  175.7720  135.9080 C   0  0  1  0  0  0  0  0  0  0  0  0
  186.5380  178.3470  138.4780 C   0  0  2  0  0  3  0  0  0  0  0  0
  181.4370  177.7870  137.0400 C   0  0  1  0  0  3  0  0  0  0  0  0
  187.5220  176.0340  137.1090 C   0  0  0  0  0  3  0  0  0  0  0  0
  185.7180  178.3360  139.7500 C   0  0  0  0  0  0  0  0  0  0  0  0
  180.3540  179.4140  138.6620 C   0  0  0  0  0  0  0  0  0  0  0  0
  185.8830  177.7080  137.3870 O   0  0  0  0  0  0  0  0  0  0  0  0
  186.3390  178.6870  140.9070 C   0  0  0  0  0  0  0  0  0  0  0  0
  189.6760  176.2100  138.3630 N   0  0  0  0  0  1  0  0  0  0  0  0
  180.3170  178.4950  137.6010 O   0  0  0  0  0  0  0  0  0  0  0  0
  183.2850  176.0690  137.4170 C   0  0  0  0  0  2  0  0  0  0  0  0
  185.3350  174.2730  136.1860 C   0  0  0  0  0  1  0  0  0  0  0  0
  188.5880  178.3640  139.9260 C   0  0  0  0  0  3  0  0  0  0  0  0
  188.3910  176.7480  138.0650 C   0  0  0  0  0  0  0  0  0  0  0  0
  183.9260  176.3420  136.0470 C   0  0  0  0  0  2  0  0  0  0  0  0
  181.5020  179.5250  139.6180 C   0  0  0  0  0  2  0  0  0  0  0  0
  184.2890  177.8430  139.7380 C   0  0  0  0  0  2  0  0  0  0  0  0
  187.9150  177.8050  138.7430 C   0  0  0  0  0  0  0  0  0  0  0  0
  183.4670  178.3410  138.5450 C   0  0  2  0  0  3  0  0  0  0  0  0
  186.2950  176.4940  136.8360 C   0  0  0  0  0  0  0  0  0  0  0  0
  185.7730  175.9730  134.5950 O   0  0  0  0  0  1  0  0  0  0  0  0
  182.8200  179.6860  138.8840 C   0  0  0  0  0  2  0  0  0  0  0  0
  179.3430  180.1330  138.8680 O   0  0  0  0  0  0  0  0  0  0  0  0
  181.8090  176.7160  139.1130 F   0  0  0  0  0  0  0  0  0  0  0  0
  187.8280  178.8120  140.9350 C   0  0  0  0  0  3  0  0  0  0  0  0
  184.4800  179.3710  142.2170 O   0  0  0  0  0  0  0  0  0  0  0  0
  185.6120  178.8160  142.1970 C   0  0  0  0  0  0  0  0  0  0  0  0
  187.2840  177.4260  143.4580 C   0  0  0  0  0  3  0  0  0  0  0  0
  186.1730  178.2850  143.4610 C   0  0  0  0  0  0  0  0  0  0  0  0
  185.6120  178.6660  144.6890 C   0  0  0  0  0  3  0  0  0  0  0  0
  185.5370  178.5960  147.1850 C   0  0  0  0  0  1  0  0  0  0  0  0
  187.2440  177.3280  145.8750 C   0  0  0  0  0  3  0  0  0  0  0  0
  186.1420  178.1870  145.8910 C   0  0  0  0  0  0  0  0  0  0  0  0
  187.8150  176.9480  144.6590 C   0  0  0  0  0  3  0  0  0  0  0  0
  180.9610  178.1640  134.8210 C   0  0  0  0  0  1  0  0  0  0  0  0
  181.9250  178.3240  135.8250 O   0  0  0  0  0  0  0  0  0  0  0  0
  1 20  1  0  0  0  0
  1 25  1  1  0  0  0
  2 16  1  0  0  0  0
  2 13  1  1  0  0  0
  2 21  1  0  0  0  0
  3  8  1  6  0  0  0
  3 19  1  0  0  0  0
  3  6  1  0  0  0  0
  4 37  1  6  0  0  0
  4 11  1  0  0  0  0
  4  1  1  0  0  0  0
  5 15  1  0  0  0  0
  6  9  2  0  0  0  0
  7 24  2  0  0  0  0
  7 17  1  0  0  0  0
  9 26  1  0  0  0  0
  9 28  1  0  0  0  0
 11  7  1  0  0  0  0
 12  1  1  0  0  0  0
 14 26  2  0  0  0  0
 15 10  1  0  0  0  0
 15 19  2  0  0  0  0
 16 12  1  0  0  0  0
 18  6  1  0  0  0  0
 19 14  1  0  0  0  0
 20 23  1  1  0  0  0
 20 18  1  0  0  0  0
 21  5  2  0  0  0  0
 21  8  1  0  0  0  0
 22  2  1  0  0  0  0
 23 17  1  0  0  0  0
 28 27  2  0  0  0  0
 28 30  1  0  0  0  0
 29 30  2  0  0  0  0
 29 35  1  0  0  0  0
 30 31  1  0  0  0  0
 31 34  2  0  0  0  0
 33 34  1  0  0  0  0
 34 32  1  0  0  0  0
 35 33  2  0  0  0  0
 36 37  1  0  0  0  0
M  END
>  <MODEL>
2

>  <REMARK>
 VINA RESULT:      -7.3      2.172      3.178
  Name = 
  3 active torsions:
  status: ('A' for Active; 'I' for Inactive)
    1  A    between atoms: C_5  and  O_23
    2  A    between atoms: C_6  and  C_31
    3  A    between atoms: C_14  and  C_31
                            x       y       z     vdW  Elec       q    Type
                         _______ _______ _______ _____ _____    ______ ____

>  <TORSDO>
F 3

$$$$
=
 OpenBabel10262422503D

 37 41  0  0  1  0  0  0  0  0999 V2000
  182.3160  177.2380  138.2480 C   0  0  1  0  0  0  0  0  0  0  0  0
  185.3870  176.1300  136.2060 C   0  0  1  0  0  0  0  0  0  0  0  0
  186.2410  178.5470  139.0480 C   0  0  2  0  0  3  0  0  0  0  0  0
  181.2860  177.7950  137.2360 C   0  0  1  0  0  3  0  0  0  0  0  0
  187.4600  176.4240  137.5640 C   0  0  0  0  0  3  0  0  0  0  0  0
  185.3480  178.3770  140.2580 C   0  0  0  0  0  0  0  0  0  0  0  0
  180.0000  179.2070  138.9100 C   0  0  0  0  0  0  0  0  0  0  0  0
  185.6970  177.9630  137.8690 O   0  0  0  0  0  0  0  0  0  0  0  0
  185.8730  178.6670  141.4790 C   0  0  0  0  0  0  0  0  0  0  0  0
  189.5170  176.6260  138.9680 N   0  0  0  0  0  1  0  0  0  0  0  0
  180.0890  178.3810  137.7780 O   0  0  0  0  0  0  0  0  0  0  0  0
  183.2190  176.1690  137.5950 C   0  0  0  0  0  2  0  0  0  0  0  0
  185.4570  174.6150  136.3600 C   0  0  0  0  0  1  0  0  0  0  0  0
  188.1940  178.5680  140.6240 C   0  0  0  0  0  3  0  0  0  0  0  0
  188.2190  177.1070  138.6310 C   0  0  0  0  0  0  0  0  0  0  0  0
  183.9220  176.5970  136.2970 C   0  0  0  0  0  2  0  0  0  0  0  0
  181.0780  179.3080  139.9450 C   0  0  0  0  0  2  0  0  0  0  0  0
  183.9590  177.7990  140.1120 C   0  0  0  0  0  2  0  0  0  0  0  0
  187.6330  178.0710  139.3590 C   0  0  0  0  0  0  0  0  0  0  0  0
  183.1790  178.3430  138.9120 C   0  0  2  0  0  3  0  0  0  0  0  0
  186.2230  176.8280  137.2490 C   0  0  0  0  0  0  0  0  0  0  0  0
  185.8740  176.4680  134.9440 O   0  0  0  0  0  1  0  0  0  0  0  0
  182.4230  179.6120  139.3150 C   0  0  0  0  0  2  0  0  0  0  0  0
  178.9310  179.8420  139.1060 O   0  0  0  0  0  0  0  0  0  0  0  0
  181.6030  176.5770  139.2360 F   0  0  0  0  0  0  0  0  0  0  0  0
  187.3460  178.8800  141.6150 C   0  0  0  0  0  3  0  0  0  0  0  0
  183.8110  178.7800  142.6510 O   0  0  0  0  0  0  0  0  0  0  0  0
  185.0620  178.6390  142.7240 C   0  0  0  0  0  0  0  0  0  0  0  0
  185.0060  178.7650  145.2330 C   0  0  0  0  0  3  0  0  0  0  0  0
  185.6840  178.4270  144.0510 C   0  0  0  0  0  0  0  0  0  0  0  0
  186.9590  177.8490  144.1410 C   0  0  0  0  0  3  0  0  0  0  0  0
  188.9040  177.0150  145.4690 C   0  0  0  0  0  1  0  0  0  0  0  0
  186.8700  177.9730  146.5570 C   0  0  0  0  0  3  0  0  0  0  0  0
  187.5510  177.6250  145.3880 C   0  0  0  0  0  0  0  0  0  0  0  0
  185.5970  178.5420  146.4790 C   0  0  0  0  0  3  0  0  0  0  0  0
  180.7980  178.6280  135.1490 C   0  0  0  0  0  1  0  0  0  0  0  0
  181.8090  178.4620  136.1040 O   0  0  0  0  0  0  0  0  0  0  0  0
  1 20  1  0  0  0  0
  1 25  1  1  0  0  0
  2 16  1  0  0  0  0
  2 13  1  1  0  0  0
  2 21  1  0  0  0  0
  3  8  1  6  0  0  0
  3 19  1  0  0  0  0
  3  6  1  0  0  0  0
  4 37  1  1  0  0  0
  4 11  1  0  0  0  0
  4  1  1  0  0  0  0
  5 15  1  0  0  0  0
  6  9  2  0  0  0  0
  7 24  2  0  0  0  0
  7 17  1  0  0  0  0
  9 26  1  0  0  0  0
  9 28  1  0  0  0  0
 11  7  1  0  0  0  0
 12  1  1  0  0  0  0
 14 26  2  0  0  0  0
 15 10  1  0  0  0  0
 15 19  2  0  0  0  0
 16 12  1  0  0  0  0
 18  6  1  0  0  0  0
 19 14  1  0  0  0  0
 20 23  1  1  0  0  0
 20 18  1  0  0  0  0
 21  5  2  0  0  0  0
 21  8  1  0  0  0  0
 22  2  1  0  0  0  0
 23 17  1  0  0  0  0
 27 28  2  0  0  0  0
 28 30  1  0  0  0  0
 29 35  1  0  0  0  0
 30 31  1  0  0  0  0
 30 29  2  0  0  0  0
 31 34  2  0  0  0  0
 34 32  1  0  0  0  0
 34 33  1  0  0  0  0
 35 33  2  0  0  0  0
 36 37  1  0  0  0  0
M  END
>  <MODEL>
3

>  <REMARK>
 VINA RESULT:      -7.3      2.096      2.927
  Name = 
  3 active torsions:
  status: ('A' for Active; 'I' for Inactive)
    1  A    between atoms: C_5  and  O_23
    2  A    between atoms: C_6  and  C_31
    3  A    between atoms: C_14  and  C_31
                            x       y       z     vdW  Elec       q    Type
                         _______ _______ _______ _____ _____    ______ ____

>  <TORSDO>
F 3

$$$$
=
 OpenBabel10262422503D

 37 41  0  0  1  0  0  0  0  0999 V2000
  184.0280  179.4110  143.1130 C   0  0  1  0  0  0  0  0  0  0  0  0
  185.5690  178.5180  146.5260 C   0  0  1  0  0  0  0  0  0  0  0  0
  187.2890  176.7830  143.5810 C   0  0  0  0  0  0  0  0  0  0  0  0
  182.5120  179.1190  143.2180 C   0  0  1  0  0  3  0  0  0  0  0  0
  187.9110  177.7130  146.2160 C   0  0  0  0  0  3  0  0  0  0  0  0
  187.3020  177.6250  142.3230 C   0  0  0  0  0  0  0  0  0  0  0  0
  182.1090  178.8810  140.7220 C   0  0  0  0  0  0  0  0  0  0  0  0
  186.3280  177.2230  144.5350 O   0  0  0  0  0  0  0  0  0  0  0  0
  188.3380  177.4580  141.4590 C   0  0  0  0  0  0  0  0  0  0  0  0
  190.2860  177.0040  145.9030 N   0  0  0  0  0  1  0  0  0  0  0  0
  181.7330  179.2690  142.0180 O   0  0  0  0  0  0  0  0  0  0  0  0
  184.6240  179.7780  144.4890 C   0  0  0  0  0  2  0  0  0  0  0  0
  186.0620  179.8370  147.1110 C   0  0  0  0  0  1  0  0  0  0  0  0
  189.7210  176.3200  143.1690 C   0  0  0  0  0  2  0  0  0  0  0  0
  188.9550  177.0650  145.3980 C   0  0  0  0  0  0  0  0  0  0  0  0
  184.3510  178.7730  145.6200 C   0  0  0  0  0  2  0  0  0  0  0  0
  183.5230  178.5910  140.3250 C   0  0  0  0  0  2  0  0  0  0  0  0
  186.2520  178.6890  142.1010 C   0  0  0  0  0  2  0  0  0  0  0  0
  188.6780  176.6710  144.1450 C   0  0  0  0  0  0  0  0  0  0  0  0
  184.8310  178.2510  142.4670 C   0  0  2  0  0  3  0  0  0  0  0  0
  186.6590  177.8190  145.7530 C   0  0  0  0  0  0  0  0  0  0  0  0
  185.1660  177.6940  147.5760 O   0  0  0  0  0  1  0  0  0  0  0  0
  184.1650  177.5840  141.2610 C   0  0  0  0  0  2  0  0  0  0  0  0
  181.2250  178.8450  139.8270 O   0  0  0  0  0  0  0  0  0  0  0  0
  184.1720  180.5440  142.3260 F   0  0  0  0  0  0  0  0  0  0  0  0
  189.5340  176.6700  141.8880 C   0  0  0  0  0  3  0  0  0  0  0  0
  188.9060  179.3050  140.0790 O   0  0  0  0  0  0  0  0  0  0  0  0
  188.4040  178.1500  140.1460 C   0  0  0  0  0  0  0  0  0  0  0  0
  188.7210  176.6080  138.1870 C   0  0  0  0  0  3  0  0  0  0  0  0
  187.9160  177.5070  138.9040 C   0  0  0  0  0  0  0  0  0  0  0  0
  186.6160  177.7700  138.4450 C   0  0  0  0  0  3  0  0  0  0  0  0
  184.7590  177.4460  136.8060 C   0  0  0  0  0  1  0  0  0  0  0  0
  186.9490  176.2690  136.5750 C   0  0  0  0  0  3  0  0  0  0  0  0
  186.1360  177.1570  137.2840 C   0  0  0  0  0  0  0  0  0  0  0  0
  188.2420  175.9940  137.0270 C   0  0  0  0  0  3  0  0  0  0  0  0
  180.7530  178.0670  144.2610 C   0  0  0  0  0  1  0  0  0  0  0  0
  182.1340  178.0270  144.0340 O   0  0  0  0  0  0  0  0  0  0  0  0
  1 25  1  6  0  0  0
  1  4  1  0  0  0  0
  1 12  1  0  0  0  0
  2 13  1  1  0  0  0
  2 22  1  0  0  0  0
  3 19  1  0  0  0  0
  3  8  1  0  0  0  0
  4 37  1  6  0  0  0
  6  3  2  0  0  0  0
  7 11  1  0  0  0  0
  8 21  1  0  0  0  0
  9 26  2  0  0  0  0
  9  6  1  0  0  0  0
 11  4  1  0  0  0  0
 12 16  1  0  0  0  0
 14 19  1  0  0  0  0
 15 10  1  0  0  0  0
 15  5  1  0  0  0  0
 16  2  1  0  0  0  0
 17  7  1  0  0  0  0
 17 23  1  0  0  0  0
 18  6  1  0  0  0  0
 18 20  1  0  0  0  0
 19 15  2  0  0  0  0
 20 23  1  6  0  0  0
 20  1  1  0  0  0  0
 21  5  2  0  0  0  0
 21  2  1  0  0  0  0
 24  7  2  0  0  0  0
 26 14  1  0  0  0  0
 27 28  2  0  0  0  0
 28  9  1  0  0  0  0
 29 30  1  0  0  0  0
 30 28  1  0  0  0  0
 31 30  2  0  0  0  0
 32 34  1  0  0  0  0
 33 35  1  0  0  0  0
 33 34  2  0  0  0  0
 34 31  1  0  0  0  0
 35 29  2  0  0  0  0
 37 36  1  0  0  0  0
M  END
>  <MODEL>
4

>  <REMARK>
 VINA RESULT:      -7.1      1.993      6.513
  Name = 
  3 active torsions:
  status: ('A' for Active; 'I' for Inactive)
    1  A    between atoms: C_5  and  O_23
    2  A    between atoms: C_6  and  C_31
    3  A    between atoms: C_14  and  C_31
                            x       y       z     vdW  Elec       q    Type
                         _______ _______ _______ _____ _____    ______ ____

>  <TORSDO>
F 3

$$$$
=
 OpenBabel10262422503D

 37 41  0  0  1  0  0  0  0  0999 V2000
  189.0360  177.0430  142.4890 C   0  0  1  0  0  0  0  0  0  0  0  0
  186.3610  178.1690  145.0200 C   0  0  1  0  0  0  0  0  0  0  0  0
  185.6240  179.2800  141.4330 C   0  0  0  0  0  0  0  0  0  0  0  0
  190.3980  177.5340  143.0330 C   0  0  1  0  0  3  0  0  0  0  0  0
  184.2120  178.6280  143.8360 C   0  0  0  0  0  3  0  0  0  0  0  0
  186.1040  178.2880  140.3950 C   0  0  0  0  0  0  0  0  0  0  0  0
  191.6100  177.4960  140.8020 C   0  0  0  0  0  0  0  0  0  0  0  0
  186.2320  179.0910  142.7060 O   0  0  0  0  0  0  0  0  0  0  0  0
  185.4140  178.2110  139.2260 C   0  0  0  0  0  0  0  0  0  0  0  0
  182.0400  178.9870  142.6550 N   0  0  0  0  0  1  0  0  0  0  0  0
  191.5490  177.3300  142.1950 O   0  0  0  0  0  0  0  0  0  0  0  0
  188.0360  176.7860  143.6370 C   0  0  0  0  0  2  0  0  0  0  0  0
  185.7980  176.8850  145.6190 C   0  0  0  0  0  1  0  0  0  0  0  0
  183.4510  179.3780  140.1810 C   0  0  0  0  0  2  0  0  0  0  0  0
  183.4640  179.0290  142.6280 C   0  0  0  0  0  0  0  0  0  0  0  0
  187.8310  177.9540  144.6140 C   0  0  0  0  0  2  0  0  0  0  0  0
  190.3980  177.5540  139.9240 C   0  0  0  0  0  2  0  0  0  0  0  0
  187.2430  177.3440  140.7040 C   0  0  0  0  0  2  0  0  0  0  0  0
  184.1220  179.2890  141.4870 C   0  0  0  0  0  0  0  0  0  0  0  0
  188.4170  178.0000  141.4360 C   0  0  2  0  0  3  0  0  0  0  0  0
  185.5510  178.6210  143.8300 C   0  0  0  0  0  0  0  0  0  0  0  0
  186.3190  179.1660  145.9940 O   0  0  0  0  0  1  0  0  0  0  0  0
  189.4020  178.5840  140.4210 C   0  0  0  0  0  2  0  0  0  0  0  0
  192.7410  177.5270  140.2500 O   0  0  0  0  0  0  0  0  0  0  0  0
  189.2540  175.8100  141.8950 F   0  0  0  0  0  0  0  0  0  0  0  0
  184.0890  178.8920  139.1060 C   0  0  0  0  0  3  0  0  0  0  0  0
  185.0440  176.5200  137.5990 O   0  0  0  0  0  0  0  0  0  0  0  0
  185.8530  177.3530  138.0950 C   0  0  0  0  0  0  0  0  0  0  0  0
  187.7660  178.7180  137.2040 C   0  0  0  0  0  3  0  0  0  0  0  0
  187.2110  177.4660  137.5140 C   0  0  0  0  0  0  0  0  0  0  0  0
  187.9760  176.3110  137.2960 C   0  0  0  0  0  3  0  0  0  0  0  0
  190.0660  175.1720  136.5360 C   0  0  0  0  0  1  0  0  0  0  0  0
  189.8050  177.6550  136.4540 C   0  0  0  0  0  3  0  0  0  0  0  0
  189.2660  176.4040  136.7650 C   0  0  0  0  0  0  0  0  0  0  0  0
  189.0550  178.8120  136.6740 C   0  0  0  0  0  3  0  0  0  0  0  0
  191.6810  179.0330  144.2160 C   0  0  0  0  0  1  0  0  0  0  0  0
  190.3930  178.7610  143.7380 O   0  0  0  0  0  0  0  0  0  0  0  0
  1 25  1  6  0  0  0
  1  4  1  0  0  0  0
  1 12  1  0  0  0  0
  2 13  1  1  0  0  0
  2 22  1  0  0  0  0
  3 19  1  0  0  0  0
  3  8  1  0  0  0  0
  4 37  1  6  0  0  0
  6 18  1  0  0  0  0
  6  3  2  0  0  0  0
  7 11  1  0  0  0  0
  8 21  1  0  0  0  0
  9  6  1  0  0  0  0
 11  4  1  0  0  0  0
 12 16  1  0  0  0  0
 14 19  1  0  0  0  0
 15 10  1  0  0  0  0
 15  5  1  0  0  0  0
 16  2  1  0  0  0  0
 17 23  1  0  0  0  0
 17  7  1  0  0  0  0
 18 20  1  0  0  0  0
 19 15  2  0  0  0  0
 20 23  1  6  0  0  0
 20  1  1  0  0  0  0
 21  5  2  0  0  0  0
 21  2  1  0  0  0  0
 24  7  2  0  0  0  0
 26  9  2  0  0  0  0
 26 14  1  0  0  0  0
 27 28  2  0  0  0  0
 28  9  1  0  0  0  0
 29 30  1  0  0  0  0
 30 28  1  0  0  0  0
 31 30  2  0  0  0  0
 32 34  1  0  0  0  0
 33 35  1  0  0  0  0
 33 34  2  0  0  0  0
 34 31  1  0  0  0  0
 35 29  2  0  0  0  0
 37 36  1  0  0  0  0
M  END
>  <MODEL>
5

>  <REMARK>
 VINA RESULT:      -6.8      2.936      7.983
  Name = 
  3 active torsions:
  status: ('A' for Active; 'I' for Inactive)
    1  A    between atoms: C_5  and  O_23
    2  A    between atoms: C_6  and  C_31
    3  A    between atoms: C_14  and  C_31
                            x       y       z     vdW  Elec       q    Type
                         _______ _______ _______ _____ _____    ______ ____

>  <TORSDO>
F 3

$$$$
=
 OpenBabel10262422503D

 37 41  0  0  1  0  0  0  0  0999 V2000
  186.3490  178.9310  141.7130 C   0  0  1  0  0  0  0  0  0  0  0  0
  188.4820  177.5280  138.8300 C   0  0  1  0  0  0  0  0  0  0  0  0
  184.7160  177.2590  138.2060 C   0  0  0  0  0  0  0  0  0  0  0  0
  186.8260  178.2240  143.0040 C   0  0  1  0  0  3  0  0  0  0  0  0
  187.1490  177.5090  136.7200 C   0  0  0  0  0  3  0  0  0  0  0  0
  183.9320  178.4030  138.8130 C   0  0  0  0  0  0  0  0  0  0  0  0
  184.7000  178.6270  144.3330 C   0  0  0  0  0  0  0  0  0  0  0  0
  186.0220  177.1250  138.7570 O   0  0  0  0  0  0  0  0  0  0  0  0
  182.7810  178.7810  138.1950 C   0  0  0  0  0  0  0  0  0  0  0  0
  185.8400  177.5890  134.5940 N   0  0  0  0  0  1  0  0  0  0  0  0
  186.0930  178.5020  144.2100 O   0  0  0  0  0  0  0  0  0  0  0  0
  187.4880  179.0250  140.6740 C   0  0  0  0  0  2  0  0  0  0  0  0
  189.3200  178.7000  138.3320 C   0  0  0  0  0  1  0  0  0  0  0  0
  183.3930  177.6080  136.1020 C   0  0  0  0  0  2  0  0  0  0  0  0
  185.8570  177.4340  136.0100 C   0  0  0  0  0  0  0  0  0  0  0  0
  188.1850  177.6990  140.3310 C   0  0  0  0  0  2  0  0  0  0  0  0
  183.7860  178.8570  143.1690 C   0  0  0  0  0  2  0  0  0  0  0  0
  184.4770  179.1620  140.0010 C   0  0  0  0  0  2  0  0  0  0  0  0
  184.7120  177.3640  136.7070 C   0  0  0  0  0  0  0  0  0  0  0  0
  185.0950  178.2710  141.0820 C   0  0  2  0  0  3  0  0  0  0  0  0
  187.1950  177.4050  138.0540 C   0  0  0  0  0  0  0  0  0  0  0  0
  189.2180  176.3560  138.6620 O   0  0  0  0  0  1  0  0  0  0  0  0
  184.0150  177.8320  142.0750 C   0  0  0  0  0  2  0  0  0  0  0  0
  184.1960  178.6180  145.4870 O   0  0  0  0  0  0  0  0  0  0  0  0
  186.0400  180.2390  142.0530 F   0  0  0  0  0  0  0  0  0  0  0  0
  182.4710  178.2540  136.8310 C   0  0  0  0  0  3  0  0  0  0  0  0
  181.9420  180.9990  138.3190 O   0  0  0  0  0  0  0  0  0  0  0  0
  181.8760  179.8170  138.7560 C   0  0  0  0  0  0  0  0  0  0  0  0
  180.2020  180.5080  140.4980 C   0  0  0  0  0  3  0  0  0  0  0  0
  180.8770  179.4940  139.8010 C   0  0  0  0  0  0  0  0  0  0  0  0
  180.5710  178.1540  140.0850 C   0  0  0  0  0  3  0  0  0  0  0  0
  179.3050  176.4110  141.3490 C   0  0  0  0  0  1  0  0  0  0  0  0
  178.9570  178.8520  141.7480 C   0  0  0  0  0  3  0  0  0  0  0  0
  179.6180  177.8340  141.0560 C   0  0  0  0  0  0  0  0  0  0  0  0
  179.2490  180.1890  141.4690 C   0  0  0  0  0  3  0  0  0  0  0  0
  188.2060  176.5920  143.8530 C   0  0  0  0  0  1  0  0  0  0  0  0
  187.2520  176.8810  142.8700 O   0  0  0  0  0  0  0  0  0  0  0  0
  1 25  1  1  0  0  0
  1  4  1  0  0  0  0
  2 13  1  6  0  0  0
  2 16  1  0  0  0  0
  3  8  1  0  0  0  0
  3  6  2  0  0  0  0
  4 37  1  6  0  0  0
  4 11  1  0  0  0  0
  5 21  2  0  0  0  0
  6 18  1  0  0  0  0
  7 24  2  0  0  0  0
  9 28  1  0  0  0  0
  9  6  1  0  0  0  0
 10 15  1  0  0  0  0
 11  7  1  0  0  0  0
 12  1  1  0  0  0  0
 14 19  1  0  0  0  0
 14 26  1  0  0  0  0
 15 19  2  0  0  0  0
 15  5  1  0  0  0  0
 16 12  1  0  0  0  0
 17  7  1  0  0  0  0
 19  3  1  0  0  0  0
 20 18  1  6  0  0  0
 20  1  1  0  0  0  0
 20 23  1  0  0  0  0
 21  8  1  0  0  0  0
 21  2  1  0  0  0  0
 22  2  1  0  0  0  0
 23 17  1  0  0  0  0
 26  9  2  0  0  0  0
 27 28  2  0  0  0  0
 28 30  1  0  0  0  0
 29 35  1  0  0  0  0
 30 31  1  0  0  0  0
 30 29  2  0  0  0  0
 31 34  2  0  0  0  0
 34 32  1  0  0  0  0
 34 33  1  0  0  0  0
 35 33  2  0  0  0  0
 37 36  1  0  0  0  0
M  END
>  <MODEL>
6

>  <REMARK>
 VINA RESULT:      -6.5      2.524      6.364
  Name = 
  3 active torsions:
  status: ('A' for Active; 'I' for Inactive)
    1  A    between atoms: C_5  and  O_23
    2  A    between atoms: C_6  and  C_31
    3  A    between atoms: C_14  and  C_31
                            x       y       z     vdW  Elec       q    Type
                         _______ _______ _______ _____ _____    ______ ____

>  <TORSDO>
F 3

$$$$
=
 OpenBabel10262422503D

 37 41  0  0  1  0  0  0  0  0999 V2000
  186.2260  178.9550  141.6950 C   0  0  1  0  0  0  0  0  0  0  0  0
  188.2430  177.5480  138.7320 C   0  0  1  0  0  0  0  0  0  0  0  0
  184.4550  177.2680  138.2640 C   0  0  0  0  0  0  0  0  0  0  0  0
  186.7570  178.2530  142.9680 C   0  0  1  0  0  3  0  0  0  0  0  0
  186.8250  177.5190  136.6780 C   0  0  0  0  0  3  0  0  0  0  0  0
  183.6940  178.4120  138.8990 C   0  0  0  0  0  0  0  0  0  0  0  0
  184.6860  178.6550  144.3820 C   0  0  0  0  0  0  0  0  0  0  0  0
  185.7830  177.1390  138.7610 O   0  0  0  0  0  0  0  0  0  0  0  0
  182.5180  178.7850  138.3270 C   0  0  0  0  0  0  0  0  0  0  0  0
  185.4300  177.5890  134.6070 N   0  0  0  0  0  1  0  0  0  0  0  0
  186.0730  178.5330  144.2020 O   0  0  0  0  0  0  0  0  0  0  0  0
  187.3220  179.0480  140.6110 C   0  0  0  0  0  2  0  0  0  0  0  0
  189.0570  178.7200  138.1970 C   0  0  0  0  0  1  0  0  0  0  0  0
  183.0460  177.6070  136.2140 C   0  0  0  0  0  2  0  0  0  0  0  0
  185.5050  177.4390  136.0220 C   0  0  0  0  0  0  0  0  0  0  0  0
  188.0080  177.7230  140.2440 C   0  0  0  0  0  2  0  0  0  0  0  0
  183.7250  178.8790  143.2550 C   0  0  0  0  0  2  0  0  0  0  0  0
  184.2850  179.1760  140.0610 C   0  0  0  0  0  2  0  0  0  0  0  0
  184.3900  177.3680  136.7650 C   0  0  0  0  0  0  0  0  0  0  0  0
  184.9490  178.2890  141.1190 C   0  0  2  0  0  3  0  0  0  0  0  0
  186.9250  177.4190  138.0100 C   0  0  0  0  0  0  0  0  0  0  0  0
  188.9750  176.3770  138.5380 O   0  0  0  0  0  1  0  0  0  0  0  0
  183.9120  177.8510  142.1560 C   0  0  0  0  0  2  0  0  0  0  0  0
  184.2300  178.6480  145.5550 O   0  0  0  0  0  0  0  0  0  0  0  0
  185.9280  180.2630  142.0440 F   0  0  0  0  0  0  0  0  0  0  0  0
  182.1530  178.2520  136.9780 C   0  0  0  0  0  3  0  0  0  0  0  0
  181.3230  179.7440  140.1410 O   0  0  0  0  0  0  0  0  0  0  0  0
  181.6340  179.8210  138.9210 C   0  0  0  0  0  0  0  0  0  0  0  0
  180.0060  180.8160  137.2850 C   0  0  0  0  0  3  0  0  0  0  0  0
  181.1240  180.9590  138.1220 C   0  0  0  0  0  0  0  0  0  0  0  0
  181.7440  182.2140  138.2190 C   0  0  0  0  0  3  0  0  0  0  0  0
  181.9300  184.6250  137.5940 C   0  0  0  0  0  1  0  0  0  0  0  0
  180.1530  183.1460  136.6500 C   0  0  0  0  0  3  0  0  0  0  0  0
  181.2630  183.3020  137.4840 C   0  0  0  0  0  0  0  0  0  0  0  0
  179.5250  181.9030  136.5510 C   0  0  0  0  0  3  0  0  0  0  0  0
  188.1930  176.6340  143.7480 C   0  0  0  0  0  1  0  0  0  0  0  0
  187.1800  176.9110  142.8200 O   0  0  0  0  0  0  0  0  0  0  0  0
  1 25  1  1  0  0  0
  1  4  1  0  0  0  0
  2 13  1  6  0  0  0
  2 16  1  0  0  0  0
  3  8  1  0  0  0  0
  3  6  2  0  0  0  0
  4 37  1  6  0  0  0
  4 11  1  0  0  0  0
  5 21  2  0  0  0  0
  6 18  1  0  0  0  0
  7 24  2  0  0  0  0
  9  6  1  0  0  0  0
  9 28  1  0  0  0  0
 10 15  1  0  0  0  0
 11  7  1  0  0  0  0
 12  1  1  0  0  0  0
 14 19  1  0  0  0  0
 14 26  1  0  0  0  0
 15  5  1  0  0  0  0
 15 19  2  0  0  0  0
 16 12  1  0  0  0  0
 17  7  1  0  0  0  0
 19  3  1  0  0  0  0
 20 18  1  6  0  0  0
 20  1  1  0  0  0  0
 20 23  1  0  0  0  0
 21  2  1  0  0  0  0
 21  8  1  0  0  0  0
 22  2  1  0  0  0  0
 23 17  1  0  0  0  0
 26  9  2  0  0  0  0
 28 27  2  0  0  0  0
 29 30  1  0  0  0  0
 30 31  2  0  0  0  0
 30 28  1  0  0  0  0
 33 34  2  0  0  0  0
 34 32  1  0  0  0  0
 34 31  1  0  0  0  0
 35 33  1  0  0  0  0
 35 29  2  0  0  0  0
 37 36  1  0  0  0  0
M  END
>  <MODEL>
7

>  <REMARK>
 VINA RESULT:      -6.3      2.483      7.152
  Name = 
  3 active torsions:
  status: ('A' for Active; 'I' for Inactive)
    1  A    between atoms: C_5  and  O_23
    2  A    between atoms: C_6  and  C_31
    3  A    between atoms: C_14  and  C_31
                            x       y       z     vdW  Elec       q    Type
                         _______ _______ _______ _____ _____    ______ ____

>  <TORSDO>
F 3

$$$$
=
 OpenBabel10262422503D

 37 41  0  0  1  0  0  0  0  0999 V2000
  189.7660  176.8700  141.9230 C   0  0  1  0  0  0  0  0  0  0  0  0
  186.9530  177.8780  144.3510 C   0  0  1  0  0  0  0  0  0  0  0  0
  186.3270  179.0030  140.7470 C   0  0  0  0  0  0  0  0  0  0  0  0
  191.0880  177.4010  142.5270 C   0  0  1  0  0  3  0  0  0  0  0  0
  184.8410  178.2770  143.0830 C   0  0  0  0  0  3  0  0  0  0  0  0
  186.8820  178.0380  139.7210 C   0  0  0  0  0  0  0  0  0  0  0  0
  192.3910  177.4280  140.3480 C   0  0  0  0  0  0  0  0  0  0  0  0
  186.8880  178.8200  142.0430 O   0  0  0  0  0  0  0  0  0  0  0  0
  186.2450  177.9510  138.5230 C   0  0  0  0  0  0  0  0  0  0  0  0
  182.7080  178.5760  141.8170 N   0  0  0  0  0  1  0  0  0  0  0  0
  192.2780  177.2440  141.7350 O   0  0  0  0  0  0  0  0  0  0  0  0
  188.7290  176.5670  143.0260 C   0  0  0  0  0  2  0  0  0  0  0  0
  186.4100  176.5700  144.9140 C   0  0  0  0  0  1  0  0  0  0  0  0
  184.2050  179.0410  139.4070 C   0  0  0  0  0  2  0  0  0  0  0  0
  184.1290  178.6660  141.8490 C   0  0  0  0  0  0  0  0  0  0  0  0
  188.4450  177.7170  144.0050 C   0  0  0  0  0  2  0  0  0  0  0  0
  191.2150  177.4540  139.4210 C   0  0  0  0  0  2  0  0  0  0  0  0
  188.0390  177.1300  140.0680 C   0  0  0  0  0  2  0  0  0  0  0  0
  184.8240  178.9610  140.7390 C   0  0  0  0  0  0  0  0  0  0  0  0
  189.1600  177.8180  140.8540 C   0  0  2  0  0  3  0  0  0  0  0  0
  186.1780  178.3150  143.1340 C   0  0  0  0  0  0  0  0  0  0  0  0
  186.8370  178.8620  145.3320 O   0  0  0  0  0  1  0  0  0  0  0  0
  190.1650  178.4450  139.8860 C   0  0  0  0  0  2  0  0  0  0  0  0
  193.5420  177.5030  139.8430 O   0  0  0  0  0  0  0  0  0  0  0  0
  190.0500  175.6510  141.3260 F   0  0  0  0  0  0  0  0  0  0  0  0
  184.9030  178.5890  138.3550 C   0  0  0  0  0  3  0  0  0  0  0  0
  187.5950  177.6140  136.5990 O   0  0  0  0  0  0  0  0  0  0  0  0
  186.7580  177.1210  137.4030 C   0  0  0  0  0  0  0  0  0  0  0  0
  184.9710  175.3790  137.1000 C   0  0  0  0  0  3  0  0  0  0  0  0
  186.3290  175.7150  137.2180 C   0  0  0  0  0  0  0  0  0  0  0  0
  187.2910  174.6970  137.1270 C   0  0  0  0  0  3  0  0  0  0  0  0
  187.9300  172.2990  136.8430 C   0  0  0  0  0  1  0  0  0  0  0  0
  185.5470  173.0460  136.8250 C   0  0  0  0  0  3  0  0  0  0  0  0
  186.9020  173.3680  136.9350 C   0  0  0  0  0  0  0  0  0  0  0  0
  184.5820  174.0510  136.9080 C   0  0  0  0  0  3  0  0  0  0  0  0
  191.8790  178.5730  144.3420 C   0  0  0  0  0  1  0  0  0  0  0  0
  191.0120  178.6190  143.2420 O   0  0  0  0  0  0  0  0  0  0  0  0
  1 25  1  6  0  0  0
  1  4  1  0  0  0  0
  1 12  1  0  0  0  0
  2 13  1  1  0  0  0
  2 22  1  0  0  0  0
  3  8  1  0  0  0  0
  4 37  1  6  0  0  0
  5 21  2  0  0  0  0
  6 18  1  0  0  0  0
  6  3  2  0  0  0  0
  7 11  1  0  0  0  0
  8 21  1  0  0  0  0
  9  6  1  0  0  0  0
 10 15  1  0  0  0  0
 11  4  1  0  0  0  0
 12 16  1  0  0  0  0
 14 19  1  0  0  0  0
 15  5  1  0  0  0  0
 16  2  1  0  0  0  0
 17 23  1  0  0  0  0
 17  7  1  0  0  0  0
 18 20  1  0  0  0  0
 19  3  1  0  0  0  0
 19 15  2  0  0  0  0
 20 23  1  6  0  0  0
 20  1  1  0  0  0  0
 21  2  1  0  0  0  0
 24  7  2  0  0  0  0
 26  9  2  0  0  0  0
 26 14  1  0  0  0  0
 27 28  2  0  0  0  0
 28  9  1  0  0  0  0
 29 30  1  0  0  0  0
 30 28  1  0  0  0  0
 31 30  2  0  0  0  0
 32 34  1  0  0  0  0
 33 35  1  0  0  0  0
 33 34  2  0  0  0  0
 34 31  1  0  0  0  0
 35 29  2  0  0  0  0
 37 36  1  0  0  0  0
M  END
>  <MODEL>
8

>  <REMARK>
 VINA RESULT:      -6.2      3.129      8.143
  Name = 
  3 active torsions:
  status: ('A' for Active; 'I' for Inactive)
    1  A    between atoms: C_5  and  O_23
    2  A    between atoms: C_6  and  C_31
    3  A    between atoms: C_14  and  C_31
                            x       y       z     vdW  Elec       q    Type
                         _______ _______ _______ _____ _____    ______ ____

>  <TORSDO>
F 3

$$$$
=
 OpenBabel10262422503D

 37 41  0  0  1  0  0  0  0  0999 V2000
  185.7360  176.9390  136.8280 C   0  0  1  0  0  0  0  0  0  0  0  0
  187.8830  173.8240  136.1140 C   0  0  1  0  0  0  0  0  0  0  0  0
  184.3510  172.9910  137.3300 C   0  0  0  0  0  0  0  0  0  0  0  0
  186.5460  177.8250  137.8050 C   0  0  1  0  0  3  0  0  0  0  0  0
  186.4080  171.8550  135.6960 C   0  0  0  0  0  3  0  0  0  0  0  0
  183.3150  173.9950  136.8720 C   0  0  0  0  0  0  0  0  0  0  0  0
  184.5550  179.1100  138.7180 C   0  0  0  0  0  0  0  0  0  0  0  0
  185.6830  173.4860  137.2400 O   0  0  0  0  0  0  0  0  0  0  0  0
  182.0450  173.5510  136.6760 C   0  0  0  0  0  0  0  0  0  0  0  0
  184.9220  169.9130  135.1800 N   0  0  0  0  0  1  0  0  0  0  0  0
  185.8950  179.0030  138.3120 O   0  0  0  0  0  0  0  0  0  0  0  0
  186.6690  176.0880  135.9400 C   0  0  0  0  0  2  0  0  0  0  0  0
  188.2500  173.9080  134.6370 C   0  0  0  0  0  1  0  0  0  0  0  0
  182.7700  171.1850  136.5990 C   0  0  0  0  0  2  0  0  0  0  0  0
  185.1380  171.1280  135.8920 C   0  0  0  0  0  0  0  0  0  0  0  0
  187.7090  175.2410  136.6910 C   0  0  0  0  0  2  0  0  0  0  0  0
  183.4970  178.1190  138.3430 C   0  0  0  0  0  2  0  0  0  0  0  0
  183.7150  175.4150  136.5410 C   0  0  0  0  0  2  0  0  0  0  0  0
  184.1540  171.6810  136.6200 C   0  0  0  0  0  0  0  0  0  0  0  0
  184.6950  176.0370  137.5410 C   0  0  2  0  0  3  0  0  0  0  0  0
  186.6260  173.0170  136.3230 C   0  0  0  0  0  0  0  0  0  0  0  0
  188.9300  173.2020  136.7940 O   0  0  0  0  0  1  0  0  0  0  0  0
  183.9210  176.7020  138.6820 C   0  0  0  0  0  2  0  0  0  0  0  0
  184.2060  180.1280  139.3720 O   0  0  0  0  0  0  0  0  0  0  0  0
  185.0670  177.7920  135.9630 F   0  0  0  0  0  0  0  0  0  0  0  0
  181.7740  172.0810  136.6600 C   0  0  0  0  0  3  0  0  0  0  0  0
  180.2900  174.2840  135.2540 O   0  0  0  0  0  0  0  0  0  0  0  0
  180.9240  174.4620  136.3300 C   0  0  0  0  0  0  0  0  0  0  0  0
  180.2950  176.8610  136.7380 C   0  0  0  0  0  3  0  0  0  0  0  0
  180.5120  175.5640  137.2310 C   0  0  0  0  0  0  0  0  0  0  0  0
  180.3020  175.3110  138.5940 C   0  0  0  0  0  3  0  0  0  0  0  0
  179.6800  176.0580  140.8960 C   0  0  0  0  0  1  0  0  0  0  0  0
  179.6900  177.6260  138.9520 C   0  0  0  0  0  3  0  0  0  0  0  0
  179.8960  176.3380  139.4520 C   0  0  0  0  0  0  0  0  0  0  0  0
  179.8900  177.8870  137.5950 C   0  0  0  0  0  3  0  0  0  0  0  0
  188.3060  178.0350  139.2710 C   0  0  0  0  0  1  0  0  0  0  0  0
  187.3570  177.1480  138.7460 O   0  0  0  0  0  0  0  0  0  0  0  0
  1 25  1  6  0  0  0
  1 20  1  0  0  0  0
  1  4  1  0  0  0  0
  2 13  1  6  0  0  0
  2 21  1  0  0  0  0
  2 16  1  0  0  0  0
  2 22  1  0  0  0  0
  4 11  1  0  0  0  0
  4 37  1  1  0  0  0
  5 15  1  0  0  0  0
  5 21  2  0  0  0  0
  6  3  2  0  0  0  0
  7 24  2  0  0  0  0
  8  3  1  0  0  0  0
  9  6  1  0  0  0  0
 10 15  1  0  0  0  0
 11  7  1  0  0  0  0
 12 16  1  0  0  0  0
 12  1  1  0  0  0  0
 14 19  1  0  0  0  0
 14 26  1  0  0  0  0
 15 19  2  0  0  0  0
 17 23  1  0  0  0  0
 17  7  1  0  0  0  0
 18  6  1  0  0  0  0
 19  3  1  0  0  0  0
 20 18  1  6  0  0  0
 20 23  1  0  0  0  0
 21  8  1  0  0  0  0
 26  9  2  0  0  0  0
 27 28  2  0  0  0  0
 28  9  1  0  0  0  0
 28 30  1  0  0  0  0
 29 30  2  0  0  0  0
 29 35  1  0  0  0  0
 30 31  1  0  0  0  0
 31 34  2  0  0  0  0
 33 34  1  0  0  0  0
 34 32  1  0  0  0  0
 35 33  2  0  0  0  0
 37 36  1  0  0  0  0
M  END
>  <MODEL>
9

>  <REMARK>
 VINA RESULT:      -6.2      4.658      7.936
  Name = 
  3 active torsions:
  status: ('A' for Active; 'I' for Inactive)
    1  A    between atoms: C_5  and  O_23
    2  A    between atoms: C_6  and  C_31
    3  A    between atoms: C_14  and  C_31
                            x       y       z     vdW  Elec       q    Type
                         _______ _______ _______ _____ _____    ______ ____

>  <TORSDO>
F 3

$$$$
