=
 OpenBabel10262423243D

 34 38  0  0  1  0  0  0  0  0999 V2000
  185.9420  177.9110  143.3600 C   0  0  0  0  0  0  0  0  0  0  0  0
  188.6530  178.1010  145.8920 C   0  0  0  0  0  2  0  0  0  0  0  0
  186.3760  178.4250  146.1160 C   0  0  0  0  0  3  0  0  0  0  0  0
  183.6460  178.6230  143.8950 N   0  0  0  0  0  0  0  0  0  0  0  0
  183.1170  178.9950  145.0920 C   0  0  0  0  0  3  0  0  0  0  0  0
  185.1340  178.5820  145.5230 C   0  0  0  0  0  0  0  0  0  0  0  0
  184.9300  178.3700  144.2020 C   0  0  0  0  0  0  0  0  0  0  0  0
  184.0120  178.9690  146.0660 O   0  0  0  0  0  0  0  0  0  0  0  0
  189.9700  178.0350  145.1930 C   0  0  0  0  0  2  0  0  0  0  0  0
  190.1970  176.7350  144.5100 C   0  0  0  0  0  0  0  0  0  0  0  0
  189.3740  176.3180  143.5500 C   0  0  0  0  0  3  0  0  0  0  0  0
  187.4530  178.0070  145.3130 C   0  0  0  0  0  0  0  0  0  0  0  0
  188.0800  176.9210  143.1840 C   0  0  0  0  0  2  0  0  0  0  0  0
  187.2240  177.6480  143.9330 C   0  0  0  0  0  0  0  0  0  0  0  0
  191.4420  175.9960  144.7810 C   0  0  0  0  0  0  0  0  0  0  0  0
  192.0440  176.0820  146.0290 O   0  0  0  0  0  1  0  0  0  0  0  0
  191.9740  175.2820  143.8860 O   0  0  0  0  0  0  0  0  0  0  0  0
  185.6370  177.6760  141.9060 C   0  0  0  0  0  2  0  0  0  0  0  0
  186.0010  178.8790  141.1070 C   0  0  0  0  0  0  0  0  0  0  0  0
  186.0480  180.0050  141.6720 O   0  0  0  0  0  0  0  0  0  0  0  0
  186.3020  178.7270  139.7470 O   0  0  0  0  0  0  0  0  0  0  0  0
  188.7270  177.3800  137.3070 C   0  0  0  0  0  3  0  0  0  0  0  0
  188.6550  178.0670  140.0120 C   0  0  0  0  0  3  0  0  0  0  0  0
  192.1270  176.1620  138.4590 C   0  0  2  0  0  3  0  0  0  0  0  0
  191.1270  176.7060  137.4420 C   0  0  0  0  0  2  0  0  0  0  0  0
  189.8650  177.1980  138.0950 C   0  0  0  0  0  0  0  0  0  0  0  0
  191.0110  177.3240  140.3640 C   0  0  0  0  0  2  0  0  0  0  0  0
  189.8360  177.5660  139.4580 C   0  0  0  0  0  0  0  0  0  0  0  0
  192.3160  177.1690  139.5880 C   0  0  0  0  0  2  0  0  0  0  0  0
  187.5090  178.2420  139.2220 C   0  0  0  0  0  0  0  0  0  0  0  0
  187.5550  177.8930  137.8690 C   0  0  0  0  0  3  0  0  0  0  0  0
  193.4300  175.8710  137.7970 C   0  0  0  0  0  0  0  0  0  0  0  0
  194.0260  174.7890  138.0450 O   0  0  0  0  0  1  0  0  0  0  0  0
  193.9930  176.7840  136.9130 O   0  0  0  0  0  0  0  0  0  0  0  0
  1 14  2  0  0  0  0
  1  7  1  0  0  0  0
  4  7  1  0  0  0  0
  4  5  2  0  0  0  0
  5  8  1  0  0  0  0
  6  8  1  0  0  0  0
  6  3  1  0  0  0  0
  7  6  2  0  0  0  0
  9  2  1  0  0  0  0
 10 15  1  0  0  0  0
 10  9  1  0  0  0  0
 11 10  2  0  0  0  0
 12  2  1  0  0  0  0
 12  3  2  0  0  0  0
 13 11  1  0  0  0  0
 13 14  1  0  0  0  0
 14 12  1  0  0  0  0
 15 16  1  0  0  0  0
 17 15  2  0  0  0  0
 18  1  1  0  0  0  0
 19 20  2  0  0  0  0
 19 18  1  0  0  0  0
 21 19  1  0  0  0  0
 22 31  2  0  0  0  0
 22 26  1  0  0  0  0
 24 32  1  6  0  0  0
 24 29  1  0  0  0  0
 25 26  1  0  0  0  0
 25 24  1  0  0  0  0
 26 28  2  0  0  0  0
 28 23  1  0  0  0  0
 28 27  1  0  0  0  0
 29 27  1  0  0  0  0
 30 21  1  0  0  0  0
 30 23  2  0  0  0  0
 31 30  1  0  0  0  0
 32 33  1  0  0  0  0
 34 32  2  0  0  0  0
M  END
>  <MODEL>
1

>  <REMARK>
 VINA RESULT:     -10.0      0.000      0.000
  Name = 
  6 active torsions:
  status: ('A' for Active; 'I' for Inactive)
    1  A    between atoms: C_1  and  C_9
    2  A    between atoms: C_3  and  C_25
    3  A    between atoms: C_7  and  C_11
    4  A    between atoms: C_8  and  C_9
    5  A    between atoms: C_8  and  O_18
    6  A    between atoms: O_18  and  C_30
                            x       y       z     vdW  Elec       q    Type
                         _______ _______ _______ _____ _____    ______ ____

>  <TORSDO>
F 6

$$$$
=
 OpenBabel10262423243D

 34 38  0  0  1  0  0  0  0  0999 V2000
  190.0650  176.8320  144.6110 C   0  0  0  0  0  0  0  0  0  0  0  0
  186.6460  177.8600  145.6360 C   0  0  0  0  0  2  0  0  0  0  0  0
  188.5950  177.7200  146.8690 C   0  0  0  0  0  3  0  0  0  0  0  0
  191.8500  176.5050  146.2760 N   0  0  0  0  0  0  0  0  0  0  0  0
  191.8430  176.7710  147.6100 C   0  0  0  0  0  3  0  0  0  0  0  0
  189.9160  177.3120  146.9620 C   0  0  0  0  0  0  0  0  0  0  0  0
  190.6110  176.8570  145.8940 C   0  0  0  0  0  0  0  0  0  0  0  0
  190.6810  177.2550  148.0180 O   0  0  0  0  0  0  0  0  0  0  0  0
  185.6990  177.5580  144.5220 C   0  0  0  0  0  2  0  0  0  0  0  0
  185.9710  178.3570  143.2990 C   0  0  0  0  0  0  0  0  0  0  0  0
  187.1430  178.2660  142.6740 C   0  0  0  0  0  3  0  0  0  0  0  0
  187.9690  177.6780  145.6100 C   0  0  0  0  0  0  0  0  0  0  0  0
  188.3490  177.5800  143.1700 C   0  0  0  0  0  2  0  0  0  0  0  0
  188.7350  177.3230  144.4380 C   0  0  0  0  0  0  0  0  0  0  0  0
  184.8690  179.1160  142.6850 C   0  0  0  0  0  0  0  0  0  0  0  0
  183.7770  179.5010  143.4520 O   0  0  0  0  0  1  0  0  0  0  0  0
  184.9010  179.4210  141.4610 O   0  0  0  0  0  0  0  0  0  0  0  0
  190.9040  176.3330  143.4660 C   0  0  0  0  0  2  0  0  0  0  0  0
  191.5810  177.4780  142.7940 C   0  0  0  0  0  0  0  0  0  0  0  0
  191.6910  178.5750  143.4040 O   0  0  0  0  0  0  0  0  0  0  0  0
  192.0950  177.3000  141.5030 O   0  0  0  0  0  0  0  0  0  0  0  0
  191.2700  176.7350  137.9460 C   0  0  0  0  0  3  0  0  0  0  0  0
  189.9970  177.6290  140.2650 C   0  0  0  0  0  3  0  0  0  0  0  0
  187.9210  177.8420  136.5590 C   0  0  2  0  0  3  0  0  0  0  0  0
  189.1930  176.9990  136.5870 C   0  0  0  0  0  2  0  0  0  0  0  0
  189.9340  177.1350  137.8880 C   0  0  0  0  0  0  0  0  0  0  0  0
  187.8680  178.0720  139.0420 C   0  0  0  0  0  2  0  0  0  0  0  0
  189.2830  177.5660  139.0650 C   0  0  0  0  0  0  0  0  0  0  0  0
  187.1000  177.5830  137.8170 C   0  0  0  0  0  2  0  0  0  0  0  0
  191.3430  177.2360  140.3210 C   0  0  0  0  0  0  0  0  0  0  0  0
  191.9720  176.7920  139.1530 C   0  0  0  0  0  3  0  0  0  0  0  0
  187.1210  177.5280  135.3410 C   0  0  0  0  0  0  0  0  0  0  0  0
  186.7260  178.4650  134.5960 O   0  0  0  0  0  0  0  0  0  0  0  0
  186.8040  176.2130  135.0230 O   0  0  0  0  0  1  0  0  0  0  0  0
  1  7  1  0  0  0  0
  3  6  1  0  0  0  0
  4  5  2  0  0  0  0
  5  8  1  0  0  0  0
  6  8  1  0  0  0  0
  7  4  1  0  0  0  0
  7  6  2  0  0  0  0
  9  2  1  0  0  0  0
 10  9  1  0  0  0  0
 11 13  1  0  0  0  0
 11 10  2  0  0  0  0
 12  2  1  0  0  0  0
 12  3  2  0  0  0  0
 13 14  1  0  0  0  0
 14  1  2  0  0  0  0
 14 12  1  0  0  0  0
 15 10  1  0  0  0  0
 15 16  1  0  0  0  0
 17 15  2  0  0  0  0
 18  1  1  0  0  0  0
 19 20  2  0  0  0  0
 19 18  1  0  0  0  0
 21 19  1  0  0  0  0
 22 31  1  0  0  0  0
 23 30  1  0  0  0  0
 24 32  1  6  0  0  0
 24 25  1  0  0  0  0
 24 29  1  0  0  0  0
 25 26  1  0  0  0  0
 26 22  2  0  0  0  0
 26 28  1  0  0  0  0
 27 28  1  0  0  0  0
 28 23  2  0  0  0  0
 29 27  1  0  0  0  0
 30 21  1  0  0  0  0
 31 30  2  0  0  0  0
 33 32  2  0  0  0  0
 34 32  1  0  0  0  0
M  END
>  <MODEL>
2

>  <REMARK>
 VINA RESULT:      -9.5      2.509      5.498
  Name = 
  6 active torsions:
  status: ('A' for Active; 'I' for Inactive)
    1  A    between atoms: C_1  and  C_9
    2  A    between atoms: C_3  and  C_25
    3  A    between atoms: C_7  and  C_11
    4  A    between atoms: C_8  and  C_9
    5  A    between atoms: C_8  and  O_18
    6  A    between atoms: O_18  and  C_30
                            x       y       z     vdW  Elec       q    Type
                         _______ _______ _______ _____ _____    ______ ____

>  <TORSDO>
F 6

$$$$
=
 OpenBabel10262423243D

 34 38  0  0  1  0  0  0  0  0999 V2000
  184.3420  178.2390  142.6800 C   0  0  0  0  0  0  0  0  0  0  0  0
  185.2170  178.9550  146.2180 C   0  0  0  0  0  2  0  0  0  0  0  0
  183.1700  179.0070  145.1470 C   0  0  0  0  0  3  0  0  0  0  0  0
  182.0840  178.6950  141.8080 N   0  0  0  0  0  0  0  0  0  0  0  0
  180.9660  179.0850  142.4770 C   0  0  0  0  0  3  0  0  0  0  0  0
  182.4450  178.9620  143.9670 C   0  0  0  0  0  0  0  0  0  0  0  0
  183.0070  178.6280  142.7830 C   0  0  0  0  0  0  0  0  0  0  0  0
  181.1860  179.2450  143.7720 O   0  0  0  0  0  0  0  0  0  0  0  0
  186.7030  179.0020  146.3460 C   0  0  0  0  0  2  0  0  0  0  0  0
  187.3490  177.6930  146.0660 C   0  0  0  0  0  0  0  0  0  0  0  0
  187.2110  177.1060  144.8790 C   0  0  0  0  0  3  0  0  0  0  0  0
  184.5360  178.6680  145.1060 C   0  0  0  0  0  0  0  0  0  0  0  0
  186.2890  177.5130  143.8030 C   0  0  0  0  0  2  0  0  0  0  0  0
  185.1180  178.1810  143.8770 C   0  0  0  0  0  0  0  0  0  0  0  0
  188.2910  177.1380  147.0530 C   0  0  0  0  0  0  0  0  0  0  0  0
  189.5890  176.8200  146.6730 O   0  0  0  0  0  0  0  0  0  0  0  0
  187.9320  176.9430  148.2460 O   0  0  0  0  0  1  0  0  0  0  0  0
  184.8940  177.8590  141.3330 C   0  0  0  0  0  2  0  0  0  0  0  0
  185.5340  179.0430  140.6930 C   0  0  0  0  0  0  0  0  0  0  0  0
  184.8610  179.7560  139.9010 O   0  0  0  0  0  0  0  0  0  0  0  0
  186.8670  179.3440  141.0010 O   0  0  0  0  0  0  0  0  0  0  0  0
  190.0630  177.4980  141.1650 C   0  0  0  0  0  3  0  0  0  0  0  0
  188.2360  178.3370  139.2260 C   0  0  0  0  0  3  0  0  0  0  0  0
  191.8890  176.5480  137.9820 C   0  0  2  0  0  3  0  0  0  0  0  0
  191.5230  176.4100  139.4570 C   0  0  0  0  0  2  0  0  0  0  0  0
  190.3110  177.2230  139.8180 C   0  0  0  0  0  0  0  0  0  0  0  0
  189.6310  177.4150  137.3730 C   0  0  0  0  0  2  0  0  0  0  0  0
  189.3760  177.6260  138.8400 C   0  0  0  0  0  0  0  0  0  0  0  0
  190.6560  176.3130  137.1180 C   0  0  0  0  0  2  0  0  0  0  0  0
  187.9920  178.6210  140.5780 C   0  0  0  0  0  0  0  0  0  0  0  0
  188.9140  178.1990  141.5410 C   0  0  0  0  0  3  0  0  0  0  0  0
  192.9670  175.5820  137.6250 C   0  0  0  0  0  0  0  0  0  0  0  0
  192.6690  174.3890  137.3510 O   0  0  0  0  0  0  0  0  0  0  0  0
  194.2970  175.9860  137.5950 O   0  0  0  0  0  1  0  0  0  0  0  0
  1  7  2  0  0  0  0
  1 14  1  0  0  0  0
  2  9  1  0  0  0  0
  4  5  2  0  0  0  0
  4  7  1  0  0  0  0
  5  8  1  0  0  0  0
  6  3  2  0  0  0  0
  7  6  1  0  0  0  0
  8  6  1  0  0  0  0
 10  9  1  0  0  0  0
 10 15  1  0  0  0  0
 11 10  2  0  0  0  0
 12  3  1  0  0  0  0
 12  2  1  0  0  0  0
 13 14  1  0  0  0  0
 13 11  1  0  0  0  0
 14 12  2  0  0  0  0
 15 17  1  0  0  0  0
 16 15  2  0  0  0  0
 18  1  1  0  0  0  0
 19 21  1  0  0  0  0
 19 18  1  0  0  0  0
 20 19  2  0  0  0  0
 22 31  1  0  0  0  0
 23 30  1  0  0  0  0
 24 32  1  6  0  0  0
 24 25  1  0  0  0  0
 25 26  1  0  0  0  0
 26 22  2  0  0  0  0
 27 28  1  0  0  0  0
 28 23  2  0  0  0  0
 28 26  1  0  0  0  0
 29 27  1  0  0  0  0
 29 24  1  0  0  0  0
 30 21  1  0  0  0  0
 30 31  2  0  0  0  0
 33 32  2  0  0  0  0
 34 32  1  0  0  0  0
M  END
>  <MODEL>
3

>  <REMARK>
 VINA RESULT:      -9.4      1.788      2.773
  Name = 
  6 active torsions:
  status: ('A' for Active; 'I' for Inactive)
    1  A    between atoms: C_1  and  C_9
    2  A    between atoms: C_3  and  C_25
    3  A    between atoms: C_7  and  C_11
    4  A    between atoms: C_8  and  C_9
    5  A    between atoms: C_8  and  O_18
    6  A    between atoms: O_18  and  C_30
                            x       y       z     vdW  Elec       q    Type
                         _______ _______ _______ _____ _____    ______ ____

>  <TORSDO>
F 6

$$$$
=
 OpenBabel10262423243D

 34 38  0  0  1  0  0  0  0  0999 V2000
  187.5460  177.4600  144.9750 C   0  0  0  0  0  0  0  0  0  0  0  0
  184.1590  178.7620  144.1790 C   0  0  0  0  0  2  0  0  0  0  0  0
  185.3970  178.9110  146.1250 C   0  0  0  0  0  3  0  0  0  0  0  0
  188.4360  177.5400  147.2700 N   0  0  0  0  0  0  0  0  0  0  0  0
  187.9130  178.1350  148.3760 C   0  0  0  0  0  3  0  0  0  0  0  0
  186.5030  178.5210  146.8620 C   0  0  0  0  0  0  0  0  0  0  0  0
  187.5150  177.8010  146.3270 C   0  0  0  0  0  0  0  0  0  0  0  0
  186.7530  178.7230  148.1280 O   0  0  0  0  0  0  0  0  0  0  0  0
  183.7250  178.2020  142.8660 C   0  0  0  0  0  2  0  0  0  0  0  0
  184.5700  178.6610  141.7330 C   0  0  0  0  0  0  0  0  0  0  0  0
  185.8750  178.3980  141.7070 C   0  0  0  0  0  3  0  0  0  0  0  0
  185.3440  178.5610  144.7630 C   0  0  0  0  0  0  0  0  0  0  0  0
  186.6780  177.8430  142.8110 C   0  0  0  0  0  2  0  0  0  0  0  0
  186.4750  177.9100  144.1440 C   0  0  0  0  0  0  0  0  0  0  0  0
  183.9190  179.2550  140.5530 C   0  0  0  0  0  0  0  0  0  0  0  0
  182.5460  179.1310  140.3810 O   0  0  0  0  0  1  0  0  0  0  0  0
  184.5950  179.8780  139.6890 O   0  0  0  0  0  0  0  0  0  0  0  0
  188.7150  176.6770  144.4430 C   0  0  0  0  0  2  0  0  0  0  0  0
  189.8940  177.5710  144.2730 C   0  0  0  0  0  0  0  0  0  0  0  0
  190.7670  177.6210  145.1800 O   0  0  0  0  0  0  0  0  0  0  0  0
  190.0120  178.3240  143.0970 O   0  0  0  0  0  0  0  0  0  0  0  0
  192.1290  177.1320  140.3130 C   0  0  0  0  0  3  0  0  0  0  0  0
  189.4210  177.5760  140.8320 C   0  0  0  0  0  3  0  0  0  0  0  0
  190.6190  176.5090  136.8920 C   0  0  2  0  0  3  0  0  0  0  0  0
  191.6530  176.3230  138.0000 C   0  0  0  0  0  2  0  0  0  0  0  0
  191.1860  176.8910  139.3110 C   0  0  0  0  0  0  0  0  0  0  0  0
  188.7690  176.9150  138.5160 C   0  0  0  0  0  2  0  0  0  0  0  0
  189.8140  177.0930  139.5810 C   0  0  0  0  0  0  0  0  0  0  0  0
  189.2540  176.0280  137.3720 C   0  0  0  0  0  2  0  0  0  0  0  0
  190.3690  177.8260  141.8350 C   0  0  0  0  0  0  0  0  0  0  0  0
  191.7230  177.6030  141.5640 C   0  0  0  0  0  3  0  0  0  0  0  0
  191.0330  175.7640  135.6690 C   0  0  0  0  0  0  0  0  0  0  0  0
  192.2270  175.8310  135.2740 O   0  0  0  0  0  1  0  0  0  0  0  0
  190.1120  175.0010  134.9610 O   0  0  0  0  0  0  0  0  0  0  0  0
  1  7  1  0  0  0  0
  2 12  1  0  0  0  0
  3  6  1  0  0  0  0
  4  5  2  0  0  0  0
  6  8  1  0  0  0  0
  7  6  2  0  0  0  0
  7  4  1  0  0  0  0
  8  5  1  0  0  0  0
  9  2  1  0  0  0  0
 10  9  1  0  0  0  0
 11 10  2  0  0  0  0
 11 13  1  0  0  0  0
 12  3  2  0  0  0  0
 13 14  1  0  0  0  0
 14 12  1  0  0  0  0
 14  1  2  0  0  0  0
 15 10  1  0  0  0  0
 16 15  1  0  0  0  0
 17 15  2  0  0  0  0
 18  1  1  0  0  0  0
 19 18  1  0  0  0  0
 19 20  2  0  0  0  0
 21 19  1  0  0  0  0
 22 31  1  0  0  0  0
 23 30  1  0  0  0  0
 24 32  1  6  0  0  0
 24 29  1  0  0  0  0
 24 25  1  0  0  0  0
 25 26  1  0  0  0  0
 26 28  1  0  0  0  0
 26 22  2  0  0  0  0
 27 28  1  0  0  0  0
 28 23  2  0  0  0  0
 29 27  1  0  0  0  0
 30 21  1  0  0  0  0
 31 30  2  0  0  0  0
 33 32  1  0  0  0  0
 34 32  2  0  0  0  0
M  END
>  <MODEL>
4

>  <REMARK>
 VINA RESULT:      -9.4      2.140      4.876
  Name = 
  6 active torsions:
  status: ('A' for Active; 'I' for Inactive)
    1  A    between atoms: C_1  and  C_9
    2  A    between atoms: C_3  and  C_25
    3  A    between atoms: C_7  and  C_11
    4  A    between atoms: C_8  and  C_9
    5  A    between atoms: C_8  and  O_18
    6  A    between atoms: O_18  and  C_30
                            x       y       z     vdW  Elec       q    Type
                         _______ _______ _______ _____ _____    ______ ____

>  <TORSDO>
F 6

$$$$
=
 OpenBabel10262423243D

 34 38  0  0  1  0  0  0  0  0999 V2000
  189.5440  177.1840  142.0380 C   0  0  0  0  0  0  0  0  0  0  0  0
  190.6180  177.2310  145.5940 C   0  0  0  0  0  2  0  0  0  0  0  0
  191.8440  177.5430  143.6600 C   0  0  0  0  0  3  0  0  0  0  0  0
  191.1920  177.2520  140.2090 N   0  0  0  0  0  0  0  0  0  0  0  0
  192.5370  177.4400  140.2680 C   0  0  0  0  0  3  0  0  0  0  0  0
  191.9170  177.4900  142.2780 C   0  0  0  0  0  0  0  0  0  0  0  0
  190.8270  177.2860  141.5020 C   0  0  0  0  0  0  0  0  0  0  0  0
  192.9690  177.5830  141.5110 O   0  0  0  0  0  0  0  0  0  0  0  0
  189.4900  176.7480  146.4440 C   0  0  0  0  0  2  0  0  0  0  0  0
  188.3100  177.6510  146.4050 C   0  0  0  0  0  0  0  0  0  0  0  0
  187.6810  177.9000  145.2580 C   0  0  0  0  0  3  0  0  0  0  0  0
  190.5830  177.4020  144.2700 C   0  0  0  0  0  0  0  0  0  0  0  0
  188.1430  177.5280  143.9090 C   0  0  0  0  0  2  0  0  0  0  0  0
  189.3960  177.3180  143.4530 C   0  0  0  0  0  0  0  0  0  0  0  0
  187.7340  178.1250  147.6750 C   0  0  0  0  0  0  0  0  0  0  0  0
  188.3870  177.8670  148.8740 O   0  0  0  0  0  1  0  0  0  0  0  0
  186.6470  178.7650  147.6890 O   0  0  0  0  0  0  0  0  0  0  0  0
  188.3760  176.9800  141.1130 C   0  0  0  0  0  2  0  0  0  0  0  0
  187.9860  178.2760  140.4910 C   0  0  0  0  0  0  0  0  0  0  0  0
  188.3730  178.5410  139.3220 O   0  0  0  0  0  0  0  0  0  0  0  0
  187.1800  179.1630  141.2170 O   0  0  0  0  0  0  0  0  0  0  0  0
  183.5800  178.7620  140.4840 C   0  0  0  0  0  3  0  0  0  0  0  0
  185.2320  179.0830  142.7130 C   0  0  0  0  0  3  0  0  0  0  0  0
  181.0120  179.1380  143.2470 C   0  0  2  0  0  3  0  0  0  0  0  0
  181.5290  178.6360  141.9010 C   0  0  0  0  0  2  0  0  0  0  0  0
  183.0140  178.8230  141.7590 C   0  0  0  0  0  0  0  0  0  0  0  0
  183.2850  179.1030  144.2740 C   0  0  0  0  0  2  0  0  0  0  0  0
  183.8500  178.9620  142.8890 C   0  0  0  0  0  0  0  0  0  0  0  0
  181.8610  178.5620  144.3750 C   0  0  0  0  0  2  0  0  0  0  0  0
  185.8000  179.0310  141.4320 C   0  0  0  0  0  0  0  0  0  0  0  0
  184.9640  178.8720  140.3220 C   0  0  0  0  0  3  0  0  0  0  0  0
  179.5820  178.7570  143.4250 C   0  0  0  0  0  0  0  0  0  0  0  0
  178.9310  179.2180  144.3990 O   0  0  0  0  0  1  0  0  0  0  0  0
  178.9630  177.8950  142.5270 O   0  0  0  0  0  0  0  0  0  0  0  0
  1 14  1  0  0  0  0
  2  9  1  0  0  0  0
  3 12  1  0  0  0  0
  4  5  2  0  0  0  0
  4  7  1  0  0  0  0
  5  8  1  0  0  0  0
  6  3  2  0  0  0  0
  7  1  2  0  0  0  0
  7  6  1  0  0  0  0
  8  6  1  0  0  0  0
 10  9  1  0  0  0  0
 10 15  1  0  0  0  0
 11 10  2  0  0  0  0
 12  2  1  0  0  0  0
 13 11  1  0  0  0  0
 14 13  1  0  0  0  0
 14 12  2  0  0  0  0
 15 17  2  0  0  0  0
 15 16  1  0  0  0  0
 18  1  1  0  0  0  0
 19 18  1  0  0  0  0
 19 21  1  0  0  0  0
 20 19  2  0  0  0  0
 21 30  1  0  0  0  0
 22 26  1  0  0  0  0
 23 28  1  0  0  0  0
 24 32  1  1  0  0  0
 24 29  1  0  0  0  0
 25 24  1  0  0  0  0
 26 25  1  0  0  0  0
 26 28  2  0  0  0  0
 27 29  1  0  0  0  0
 28 27  1  0  0  0  0
 30 23  2  0  0  0  0
 31 22  2  0  0  0  0
 31 30  1  0  0  0  0
 32 33  1  0  0  0  0
 34 32  2  0  0  0  0
M  END
>  <MODEL>
5

>  <REMARK>
 VINA RESULT:      -9.4      2.879      7.812
  Name = 
  6 active torsions:
  status: ('A' for Active; 'I' for Inactive)
    1  A    between atoms: C_1  and  C_9
    2  A    between atoms: C_3  and  C_25
    3  A    between atoms: C_7  and  C_11
    4  A    between atoms: C_8  and  C_9
    5  A    between atoms: C_8  and  O_18
    6  A    between atoms: O_18  and  C_30
                            x       y       z     vdW  Elec       q    Type
                         _______ _______ _______ _____ _____    ______ ____

>  <TORSDO>
F 6

$$$$
=
 OpenBabel10262423243D

 34 38  0  0  1  0  0  0  0  0999 V2000
  179.6490  178.2310  140.9390 C   0  0  0  0  0  0  0  0  0  0  0  0
  181.7300  179.4440  138.1110 C   0  0  0  0  0  2  0  0  0  0  0  0
  180.9850  177.3140  138.6100 C   0  0  0  0  0  3  0  0  0  0  0  0
  179.3020  175.8230  141.3250 N   0  0  0  0  0  0  0  0  0  0  0  0
  179.6690  174.7660  140.5520 C   0  0  0  0  0  3  0  0  0  0  0  0
  180.3810  176.4460  139.5050 C   0  0  0  0  0  0  0  0  0  0  0  0
  179.7720  176.8760  140.6340 C   0  0  0  0  0  0  0  0  0  0  0  0
  180.3160  175.1430  139.4610 O   0  0  0  0  0  0  0  0  0  0  0  0
  182.1180  180.8610  138.3730 C   0  0  0  0  0  2  0  0  0  0  0  0
  180.9540  181.7850  138.3950 C   0  0  0  0  0  0  0  0  0  0  0  0
  179.9710  181.6200  139.2770 C   0  0  0  0  0  3  0  0  0  0  0  0
  180.9370  178.6940  138.8810 C   0  0  0  0  0  0  0  0  0  0  0  0
  179.7770  180.4590  140.1640 C   0  0  0  0  0  2  0  0  0  0  0  0
  180.1760  179.1790  140.0090 C   0  0  0  0  0  0  0  0  0  0  0  0
  180.9860  182.9910  137.5490 C   0  0  0  0  0  0  0  0  0  0  0  0
  182.0220  183.9060  137.6820 O   0  0  0  0  0  1  0  0  0  0  0  0
  180.0770  183.2070  136.7020 O   0  0  0  0  0  0  0  0  0  0  0  0
  178.9390  178.6370  142.2010 C   0  0  0  0  0  2  0  0  0  0  0  0
  179.8890  178.6250  143.3480 C   0  0  0  0  0  0  0  0  0  0  0  0
  179.6890  177.8350  144.3080 O   0  0  0  0  0  0  0  0  0  0  0  0
  180.9970  179.4830  143.3220 O   0  0  0  0  0  0  0  0  0  0  0  0
  184.3760  178.2700  142.4510 C   0  0  0  0  0  3  0  0  0  0  0  0
  182.9760  179.0880  144.7240 C   0  0  0  0  0  3  0  0  0  0  0  0
  186.8870  177.4790  145.1780 C   0  0  2  0  0  3  0  0  0  0  0  0
  186.4600  177.8590  143.7630 C   0  0  0  0  0  2  0  0  0  0  0  0
  185.0100  178.2500  143.6950 C   0  0  0  0  0  0  0  0  0  0  0  0
  184.9230  178.6170  146.2120 C   0  0  0  0  0  2  0  0  0  0  0  0
  184.3090  178.6850  144.8420 C   0  0  0  0  0  0  0  0  0  0  0  0
  186.4480  178.5590  146.1600 C   0  0  0  0  0  2  0  0  0  0  0  0
  182.3370  179.1000  143.4750 C   0  0  0  0  0  0  0  0  0  0  0  0
  183.0470  178.6860  142.3430 C   0  0  0  0  0  3  0  0  0  0  0  0
  188.3650  177.2900  145.2380 C   0  0  0  0  0  0  0  0  0  0  0  0
  189.0040  177.0410  144.1820 O   0  0  0  0  0  0  0  0  0  0  0  0
  189.0400  177.3830  146.4490 O   0  0  0  0  0  1  0  0  0  0  0  0
  1 18  1  0  0  0  0
  2  9  1  0  0  0  0
  2 12  1  0  0  0  0
  3 12  2  0  0  0  0
  3  6  1  0  0  0  0
  5  4  2  0  0  0  0
  6  7  2  0  0  0  0
  7  1  1  0  0  0  0
  7  4  1  0  0  0  0
  8  6  1  0  0  0  0
  8  5  1  0  0  0  0
  9 10  1  0  0  0  0
 10 11  2  0  0  0  0
 11 13  1  0  0  0  0
 12 14  1  0  0  0  0
 14 13  1  0  0  0  0
 14  1  2  0  0  0  0
 15 16  1  0  0  0  0
 15 10  1  0  0  0  0
 17 15  2  0  0  0  0
 18 19  1  0  0  0  0
 19 20  2  0  0  0  0
 21 19  1  0  0  0  0
 21 30  1  0  0  0  0
 22 26  1  0  0  0  0
 23 28  1  0  0  0  0
 24 32  1  6  0  0  0
 24 29  1  0  0  0  0
 25 24  1  0  0  0  0
 26 25  1  0  0  0  0
 26 28  2  0  0  0  0
 28 27  1  0  0  0  0
 29 27  1  0  0  0  0
 30 23  2  0  0  0  0
 31 22  2  0  0  0  0
 31 30  1  0  0  0  0
 32 34  1  0  0  0  0
 33 32  2  0  0  0  0
M  END
>  <MODEL>
6

>  <REMARK>
 VINA RESULT:      -9.2      4.837      9.213
  Name = 
  6 active torsions:
  status: ('A' for Active; 'I' for Inactive)
    1  A    between atoms: C_1  and  C_9
    2  A    between atoms: C_3  and  C_25
    3  A    between atoms: C_7  and  C_11
    4  A    between atoms: C_8  and  C_9
    5  A    between atoms: C_8  and  O_18
    6  A    between atoms: O_18  and  C_30
                            x       y       z     vdW  Elec       q    Type
                         _______ _______ _______ _____ _____    ______ ____

>  <TORSDO>
F 6

$$$$
=
 OpenBabel10262423243D

 34 38  0  0  1  0  0  0  0  0999 V2000
  187.4910  177.6160  145.6160 C   0  0  0  0  0  0  0  0  0  0  0  0
  190.4740  178.0580  143.4460 C   0  0  0  0  0  2  0  0  0  0  0  0
  190.3250  177.6810  145.7220 C   0  0  0  0  0  3  0  0  0  0  0  0
  187.7000  177.5370  148.0690 N   0  0  0  0  0  0  0  0  0  0  0  0
  188.8220  177.5040  148.8370 C   0  0  0  0  0  3  0  0  0  0  0  0
  189.5460  177.5970  146.8640 C   0  0  0  0  0  0  0  0  0  0  0  0
  188.1940  177.5990  146.8210 C   0  0  0  0  0  0  0  0  0  0  0  0
  189.9280  177.5400  148.1110 O   0  0  0  0  0  0  0  0  0  0  0  0
  190.0240  178.5010  142.0940 C   0  0  0  0  0  2  0  0  0  0  0  0
  189.2080  177.4760  141.3920 C   0  0  0  0  0  0  0  0  0  0  0  0
  188.0640  177.0420  141.9160 C   0  0  0  0  0  3  0  0  0  0  0  0
  189.6790  177.7470  144.4730 C   0  0  0  0  0  0  0  0  0  0  0  0
  187.5620  177.3180  143.2740 C   0  0  0  0  0  2  0  0  0  0  0  0
  188.2420  177.6150  144.4010 C   0  0  0  0  0  0  0  0  0  0  0  0
  189.5880  177.0770  140.0260 C   0  0  0  0  0  0  0  0  0  0  0  0
  190.7330  176.3210  139.8160 O   0  0  0  0  0  1  0  0  0  0  0  0
  188.8830  177.4180  139.0370 O   0  0  0  0  0  0  0  0  0  0  0  0
  185.9870  177.5940  145.6430 C   0  0  0  0  0  2  0  0  0  0  0  0
  185.4620  178.9680  145.8780 C   0  0  0  0  0  0  0  0  0  0  0  0
  185.3040  179.3750  147.0610 O   0  0  0  0  0  0  0  0  0  0  0  0
  185.1720  179.7830  144.7760 O   0  0  0  0  0  0  0  0  0  0  0  0
  182.4680  178.6260  142.5390 C   0  0  0  0  0  3  0  0  0  0  0  0
  185.1850  179.2500  142.3770 C   0  0  0  0  0  3  0  0  0  0  0  0
  183.2470  177.5770  138.9800 C   0  0  2  0  0  3  0  0  0  0  0  0
  182.3480  178.0850  140.1050 C   0  0  0  0  0  2  0  0  0  0  0  0
  183.1350  178.4910  141.3190 C   0  0  0  0  0  0  0  0  0  0  0  0
  185.2820  178.6340  139.9610 C   0  0  0  0  0  2  0  0  0  0  0  0
  184.5040  178.8280  141.2320 C   0  0  0  0  0  0  0  0  0  0  0  0
  184.3770  178.5690  138.7330 C   0  0  0  0  0  2  0  0  0  0  0  0
  184.5170  179.3770  143.6040 C   0  0  0  0  0  0  0  0  0  0  0  0
  183.1570  179.0600  143.6750 C   0  0  0  0  0  3  0  0  0  0  0  0
  182.4510  177.3730  137.7360 C   0  0  0  0  0  0  0  0  0  0  0  0
  181.2980  176.8730  137.8090 O   0  0  0  0  0  1  0  0  0  0  0  0
  182.9740  177.7260  136.4980 O   0  0  0  0  0  0  0  0  0  0  0  0
  1 18  1  0  0  0  0
  1  7  1  0  0  0  0
  2 12  1  0  0  0  0
  3  6  1  0  0  0  0
  4  5  2  0  0  0  0
  6  8  1  0  0  0  0
  7  6  2  0  0  0  0
  7  4  1  0  0  0  0
  8  5  1  0  0  0  0
  9  2  1  0  0  0  0
 10 11  2  0  0  0  0
 10  9  1  0  0  0  0
 11 13  1  0  0  0  0
 12  3  2  0  0  0  0
 13 14  1  0  0  0  0
 14 12  1  0  0  0  0
 14  1  2  0  0  0  0
 15 10  1  0  0  0  0
 16 15  1  0  0  0  0
 17 15  2  0  0  0  0
 18 19  1  0  0  0  0
 19 20  2  0  0  0  0
 21 19  1  0  0  0  0
 22 31  1  0  0  0  0
 23 30  1  0  0  0  0
 24 32  1  6  0  0  0
 24 25  1  0  0  0  0
 25 26  1  0  0  0  0
 26 22  2  0  0  0  0
 27 28  1  0  0  0  0
 28 26  1  0  0  0  0
 28 23  2  0  0  0  0
 29 24  1  0  0  0  0
 29 27  1  0  0  0  0
 30 31  2  0  0  0  0
 30 21  1  0  0  0  0
 32 33  1  0  0  0  0
 34 32  2  0  0  0  0
M  END
>  <MODEL>
7

>  <REMARK>
 VINA RESULT:      -9.1      2.710      6.354
  Name = 
  6 active torsions:
  status: ('A' for Active; 'I' for Inactive)
    1  A    between atoms: C_1  and  C_9
    2  A    between atoms: C_3  and  C_25
    3  A    between atoms: C_7  and  C_11
    4  A    between atoms: C_8  and  C_9
    5  A    between atoms: C_8  and  O_18
    6  A    between atoms: O_18  and  C_30
                            x       y       z     vdW  Elec       q    Type
                         _______ _______ _______ _____ _____    ______ ____

>  <TORSDO>
F 6

$$$$
=
 OpenBabel10262423243D

 34 38  0  0  1  0  0  0  0  0999 V2000
  188.7330  177.8880  138.5220 C   0  0  0  0  0  0  0  0  0  0  0  0
  185.0440  178.3120  138.6220 C   0  0  0  0  0  2  0  0  0  0  0  0
  186.3740  177.1560  137.1270 C   0  0  0  0  0  3  0  0  0  0  0  0
  189.8440  176.8350  136.5920 N   0  0  0  0  0  0  0  0  0  0  0  0
  189.2920  176.2180  135.5130 C   0  0  0  0  0  3  0  0  0  0  0  0
  187.6390  176.8550  136.6480 C   0  0  0  0  0  0  0  0  0  0  0  0
  188.7670  177.2310  137.2930 C   0  0  0  0  0  0  0  0  0  0  0  0
  187.9690  176.2320  135.5490 O   0  0  0  0  0  0  0  0  0  0  0  0
  184.7060  179.3350  139.6540 C   0  0  0  0  0  2  0  0  0  0  0  0
  185.0630  178.9080  141.0320 C   0  0  0  0  0  0  0  0  0  0  0  0
  186.3250  178.6270  141.3510 C   0  0  0  0  0  3  0  0  0  0  0  0
  186.2690  177.8570  138.3420 C   0  0  0  0  0  0  0  0  0  0  0  0
  187.4550  178.4910  140.4150 C   0  0  0  0  0  2  0  0  0  0  0  0
  187.4580  178.1470  139.1090 C   0  0  0  0  0  0  0  0  0  0  0  0
  184.0360  178.9700  142.0850 C   0  0  0  0  0  0  0  0  0  0  0  0
  184.3740  179.4070  143.3600 O   0  0  0  0  0  1  0  0  0  0  0  0
  182.8460  178.6270  141.8460 O   0  0  0  0  0  0  0  0  0  0  0  0
  190.0290  178.2550  139.1930 C   0  0  0  0  0  2  0  0  0  0  0  0
  190.7450  177.0240  139.6280 C   0  0  0  0  0  0  0  0  0  0  0  0
  191.8520  176.7350  139.1010 O   0  0  0  0  0  0  0  0  0  0  0  0
  190.1770  176.2250  140.6290 O   0  0  0  0  0  0  0  0  0  0  0  0
  191.2370  177.0080  144.0800 C   0  0  0  0  0  3  0  0  0  0  0  0
  188.8600  176.6930  142.6510 C   0  0  0  0  0  3  0  0  0  0  0  0
  188.6770  177.2250  146.8670 C   0  0  2  0  0  3  0  0  0  0  0  0
  190.0120  177.5280  146.1930 C   0  0  0  0  0  2  0  0  0  0  0  0
  190.0140  177.1400  144.7400 C   0  0  0  0  0  0  0  0  0  0  0  0
  187.4700  177.0680  144.6900 C   0  0  0  0  0  2  0  0  0  0  0  0
  188.8110  177.0040  144.0130 C   0  0  0  0  0  0  0  0  0  0  0  0
  187.5350  177.7920  146.0310 C   0  0  0  0  0  2  0  0  0  0  0  0
  190.0890  176.5510  141.9900 C   0  0  0  0  0  0  0  0  0  0  0  0
  191.2740  176.7080  142.7160 C   0  0  0  0  0  3  0  0  0  0  0  0
  188.6510  177.8000  148.2420 C   0  0  0  0  0  0  0  0  0  0  0  0
  187.5590  177.8790  148.8650 O   0  0  0  0  0  1  0  0  0  0  0  0
  189.8210  178.2530  148.8400 O   0  0  0  0  0  0  0  0  0  0  0  0
  1 14  1  0  0  0  0
  1 18  1  0  0  0  0
  2  9  1  0  0  0  0
  3 12  1  0  0  0  0
  4  7  1  0  0  0  0
  5  8  1  0  0  0  0
  5  4  2  0  0  0  0
  6  3  2  0  0  0  0
  6  7  1  0  0  0  0
  7  1  2  0  0  0  0
  8  6  1  0  0  0  0
  9 10  1  0  0  0  0
 10 11  2  0  0  0  0
 10 15  1  0  0  0  0
 12  2  1  0  0  0  0
 12 14  2  0  0  0  0
 13 11  1  0  0  0  0
 14 13  1  0  0  0  0
 15 16  1  0  0  0  0
 17 15  2  0  0  0  0
 18 19  1  0  0  0  0
 19 21  1  0  0  0  0
 20 19  2  0  0  0  0
 21 30  1  0  0  0  0
 22 26  1  0  0  0  0
 23 28  1  0  0  0  0
 24 32  1  1  0  0  0
 25 24  1  0  0  0  0
 26 25  1  0  0  0  0
 27 29  1  0  0  0  0
 28 27  1  0  0  0  0
 28 26  2  0  0  0  0
 29 24  1  0  0  0  0
 30 23  2  0  0  0  0
 30 31  1  0  0  0  0
 31 22  2  0  0  0  0
 32 34  2  0  0  0  0
 32 33  1  0  0  0  0
M  END
>  <MODEL>
8

>  <REMARK>
 VINA RESULT:      -9.1      2.742      8.020
  Name = 
  6 active torsions:
  status: ('A' for Active; 'I' for Inactive)
    1  A    between atoms: C_1  and  C_9
    2  A    between atoms: C_3  and  C_25
    3  A    between atoms: C_7  and  C_11
    4  A    between atoms: C_8  and  C_9
    5  A    between atoms: C_8  and  O_18
    6  A    between atoms: O_18  and  C_30
                            x       y       z     vdW  Elec       q    Type
                         _______ _______ _______ _____ _____    ______ ____

>  <TORSDO>
F 6

$$$$
=
 OpenBabel10262423243D

 34 38  0  0  1  0  0  0  0  0999 V2000
  190.0110  176.7710  138.4040 C   0  0  0  0  0  0  0  0  0  0  0  0
  186.6290  176.4530  136.9010 C   0  0  0  0  0  2  0  0  0  0  0  0
  188.3840  174.9510  136.9600 C   0  0  0  0  0  3  0  0  0  0  0  0
  191.7480  175.0700  138.0060 N   0  0  0  0  0  0  0  0  0  0  0  0
  191.6480  173.8680  137.3770 C   0  0  0  0  0  3  0  0  0  0  0  0
  189.7150  174.6890  137.2400 C   0  0  0  0  0  0  0  0  0  0  0  0
  190.5040  175.5680  137.8990 C   0  0  0  0  0  0  0  0  0  0  0  0
  190.4270  173.6430  136.9190 O   0  0  0  0  0  0  0  0  0  0  0  0
  185.9590  177.7860  136.9380 C   0  0  0  0  0  2  0  0  0  0  0  0
  185.7020  178.2660  138.3210 C   0  0  0  0  0  0  0  0  0  0  0  0
  186.7080  178.4590  139.1720 C   0  0  0  0  0  3  0  0  0  0  0  0
  187.8340  176.1680  137.4020 C   0  0  0  0  0  0  0  0  0  0  0  0
  188.1110  178.0530  138.9750 C   0  0  0  0  0  2  0  0  0  0  0  0
  188.6240  177.0570  138.2220 C   0  0  0  0  0  0  0  0  0  0  0  0
  184.3410  178.6960  138.6840 C   0  0  0  0  0  0  0  0  0  0  0  0
  184.1340  179.9540  139.2360 O   0  0  0  0  0  1  0  0  0  0  0  0
  183.3540  177.9320  138.5030 O   0  0  0  0  0  0  0  0  0  0  0  0
  190.9410  177.6910  139.1470 C   0  0  0  0  0  2  0  0  0  0  0  0
  191.3950  177.0450  140.4100 C   0  0  0  0  0  0  0  0  0  0  0  0
  192.5760  177.2300  140.8090 O   0  0  0  0  0  0  0  0  0  0  0  0
  190.4900  176.2590  141.1350 O   0  0  0  0  0  0  0  0  0  0  0  0
  189.5780  177.0580  144.6260 C   0  0  0  0  0  3  0  0  0  0  0  0
  188.3910  177.1010  142.0980 C   0  0  0  0  0  3  0  0  0  0  0  0
  186.0010  177.9400  145.5150 C   0  0  2  0  0  3  0  0  0  0  0  0
  187.5140  177.9390  145.7180 C   0  0  0  0  0  2  0  0  0  0  0  0
  188.2480  177.4620  144.4960 C   0  0  0  0  0  0  0  0  0  0  0  0
  186.2070  177.8670  143.0310 C   0  0  0  0  0  2  0  0  0  0  0  0
  187.6540  177.5060  143.2150 C   0  0  0  0  0  0  0  0  0  0  0  0
  185.6520  178.6550  144.2150 C   0  0  0  0  0  2  0  0  0  0  0  0
  189.7250  176.6860  142.2310 C   0  0  0  0  0  0  0  0  0  0  0  0
  190.3090  176.6660  143.5010 C   0  0  0  0  0  3  0  0  0  0  0  0
  185.3260  178.6000  146.6690 C   0  0  0  0  0  0  0  0  0  0  0  0
  184.1930  178.1970  147.0420 O   0  0  0  0  0  0  0  0  0  0  0  0
  185.9360  179.6580  147.3330 O   0  0  0  0  0  1  0  0  0  0  0  0
  1 18  1  0  0  0  0
  2  9  1  0  0  0  0
  2 12  1  0  0  0  0
  3  6  2  0  0  0  0
  3 12  1  0  0  0  0
  5  4  2  0  0  0  0
  6  7  1  0  0  0  0
  7  4  1  0  0  0  0
  7  1  2  0  0  0  0
  8  6  1  0  0  0  0
  8  5  1  0  0  0  0
  9 10  1  0  0  0  0
 10 15  1  0  0  0  0
 10 11  2  0  0  0  0
 12 14  2  0  0  0  0
 13 11  1  0  0  0  0
 14  1  1  0  0  0  0
 14 13  1  0  0  0  0
 15 16  1  0  0  0  0
 17 15  2  0  0  0  0
 18 19  1  0  0  0  0
 19 20  2  0  0  0  0
 19 21  1  0  0  0  0
 21 30  1  0  0  0  0
 23 30  2  0  0  0  0
 23 28  1  0  0  0  0
 24 25  1  0  0  0  0
 24 32  1  1  0  0  0
 26 22  1  0  0  0  0
 26 25  1  0  0  0  0
 27 28  1  0  0  0  0
 27 29  1  0  0  0  0
 28 26  2  0  0  0  0
 29 24  1  0  0  0  0
 30 31  1  0  0  0  0
 31 22  2  0  0  0  0
 32 33  2  0  0  0  0
 32 34  1  0  0  0  0
M  END
>  <MODEL>
9

>  <REMARK>
 VINA RESULT:      -9.0      2.690      8.716
  Name = 
  6 active torsions:
  status: ('A' for Active; 'I' for Inactive)
    1  A    between atoms: C_1  and  C_9
    2  A    between atoms: C_3  and  C_25
    3  A    between atoms: C_7  and  C_11
    4  A    between atoms: C_8  and  C_9
    5  A    between atoms: C_8  and  O_18
    6  A    between atoms: O_18  and  C_30
                            x       y       z     vdW  Elec       q    Type
                         _______ _______ _______ _____ _____    ______ ____

>  <TORSDO>
F 6

$$$$
