=
 OpenBabel10262419593D

 27 31  0  0  1  0  0  0  0  0999 V2000
  185.7960  178.9890  144.4290 C   0  0  0  0  0  2  0  0  0  0  0  0
  186.7530  178.4540  142.1560 N   0  0  0  0  0  0  0  0  0  0  0  0
  187.7710  176.3470  143.4750 S   0  0  0  0  0  0  0  0  0  0  0  0
  190.0290  177.8640  138.9670 C   0  0  0  0  0  3  0  0  0  0  0  0
  192.0790  177.0920  139.9240 F   0  0  0  0  0  0  0  0  0  0  0  0
  186.8370  178.6310  140.7650 N   0  0  0  0  0  2  0  0  0  0  0  0
  181.6860  178.5170  141.5410 N   0  0  0  0  0  2  0  0  0  0  0  0
  190.2100  177.4710  141.3710 C   0  0  0  0  0  0  0  0  0  0  0  0
  184.3440  178.8070  142.4410 C   0  0  0  0  0  0  0  0  0  0  0  0
  187.8900  177.6320  147.3280 C   0  0  2  0  0  3  0  0  0  0  0  0
  184.0700  178.5370  140.9820 C   0  0  0  0  0  2  0  0  0  0  0  0
  190.9330  177.1060  142.4580 F   0  0  0  0  0  0  0  0  0  0  0  0
  189.1150  178.3240  147.8850 C   0  0  0  0  0  1  0  0  0  0  0  0
  188.8750  177.8600  141.4940 C   0  0  0  0  0  0  0  0  0  0  0  0
  185.5940  178.7700  142.9540 C   0  0  0  0  0  0  0  0  0  0  0  0
  190.7870  177.4690  140.0880 C   0  0  0  0  0  0  0  0  0  0  0  0
  188.6890  178.2640  139.1160 C   0  0  0  0  0  3  0  0  0  0  0  0
  185.8960  177.6660  145.1860 C   0  0  2  0  0  3  0  0  0  0  0  0
  188.0260  177.9790  142.7150 C   0  0  1  0  0  3  0  0  0  0  0  0
  188.1650  177.1480  145.9870 N   0  0  0  0  0  0  0  0  0  0  0  0
  188.1450  178.2500  140.3990 C   0  0  0  0  0  0  0  0  0  0  0  0
  186.6930  178.5730  147.3690 C   0  0  0  0  0  2  0  0  0  0  0  0
  182.7350  177.8160  140.8080 C   0  0  0  0  0  2  0  0  0  0  0  0
  185.5330  177.9020  146.6500 C   0  0  0  0  0  2  0  0  0  0  0  0
  181.9390  179.0610  142.8410 C   0  0  0  0  0  3  0  0  0  0  0  0
  187.2850  177.0720  145.0430 C   0  0  0  0  0  0  0  0  0  0  0  0
  183.1890  179.1770  143.2920 C   0  0  0  0  0  3  0  0  0  0  0  0
  2 19  1  0  0  0  0
  2 15  1  0  0  0  0
  3 26  1  0  0  0  0
  4 17  2  0  0  0  0
  4 16  1  0  0  0  0
  5 16  1  0  0  0  0
  6  2  1  0  0  0  0
  7 25  1  0  0  0  0
  8 14  1  0  0  0  0
  8 12  1  0  0  0  0
  9 15  2  0  0  0  0
  9 27  1  0  0  0  0
 10 22  1  0  0  0  0
 10 13  1  6  0  0  0
 11  9  1  0  0  0  0
 15  1  1  0  0  0  0
 16  8  2  0  0  0  0
 17 21  1  0  0  0  0
 18  1  1  6  0  0  0
 18 24  1  0  0  0  0
 19 14  1  6  0  0  0
 19  3  1  0  0  0  0
 20 10  1  0  0  0  0
 21  6  1  0  0  0  0
 21 14  2  0  0  0  0
 23 11  1  0  0  0  0
 23  7  1  0  0  0  0
 24 22  1  0  0  0  0
 25 27  2  0  0  0  0
 26 18  1  0  0  0  0
 26 20  2  0  0  0  0
M  END
>  <MODEL>
1

>  <REMARK>
 VINA RESULT:     -10.2      0.000      0.000
  Name = 
  0 active torsions:
  status: ('A' for Active; 'I' for Inactive)
                            x       y       z     vdW  Elec       q    Type
                         _______ _______ _______ _____ _____    ______ ____

>  <TORSDO>
F 0

$$$$
=
 OpenBabel10262419593D

 27 31  0  0  1  0  0  0  0  0999 V2000
  187.2340  177.2430  141.7000 C   0  0  0  0  0  2  0  0  0  0  0  0
  187.9510  177.3550  144.1170 N   0  0  0  0  0  0  0  0  0  0  0  0
  190.0270  178.6970  143.0680 S   0  0  0  0  0  0  0  0  0  0  0  0
  190.5670  176.4690  147.8080 C   0  0  0  0  0  3  0  0  0  0  0  0
  192.8640  176.1650  147.2220 F   0  0  0  0  0  0  0  0  0  0  0  0
  187.7190  177.2090  145.4950 N   0  0  0  0  0  2  0  0  0  0  0  0
  183.4090  179.6750  143.9170 N   0  0  0  0  0  2  0  0  0  0  0  0
  191.2930  176.6460  145.4830 C   0  0  0  0  0  0  0  0  0  0  0  0
  185.7340  178.1510  143.4390 C   0  0  0  0  0  0  0  0  0  0  0  0
  190.1520  177.3670  139.2320 C   0  0  2  0  0  3  0  0  0  0  0  0
  185.3870  178.5700  144.8460 C   0  0  0  0  0  2  0  0  0  0  0  0
  192.2660  176.5940  144.5400 F   0  0  0  0  0  0  0  0  0  0  0  0
  190.9870  176.1640  138.8460 C   0  0  0  0  0  1  0  0  0  0  0  0
  189.9690  176.9180  145.1330 C   0  0  0  0  0  0  0  0  0  0  0  0
  186.9230  177.5840  143.1320 C   0  0  0  0  0  0  0  0  0  0  0  0
  191.5910  176.4260  146.8400 C   0  0  0  0  0  0  0  0  0  0  0  0
  189.2380  176.7330  147.4310 C   0  0  0  0  0  3  0  0  0  0  0  0
  188.0560  178.3400  141.0260 C   0  0  2  0  0  3  0  0  0  0  0  0
  189.3700  177.1630  143.7880 C   0  0  1  0  0  3  0  0  0  0  0  0
  190.4020  177.7150  140.6190 N   0  0  0  0  0  0  0  0  0  0  0  0
  188.9770  176.9520  146.0800 C   0  0  0  0  0  0  0  0  0  0  0  0
  188.6790  177.0890  138.9600 C   0  0  0  0  0  2  0  0  0  0  0  0
  184.5310  179.8340  144.8370 C   0  0  0  0  0  2  0  0  0  0  0  0
  187.8650  178.2470  139.5150 C   0  0  0  0  0  2  0  0  0  0  0  0
  183.5850  179.0290  142.6510 C   0  0  0  0  0  3  0  0  0  0  0  0
  189.5190  178.2260  141.4130 C   0  0  0  0  0  0  0  0  0  0  0  0
  184.6920  178.3290  142.4000 C   0  0  0  0  0  3  0  0  0  0  0  0
  1 15  1  0  0  0  0
  2  6  1  0  0  0  0
  6 21  1  0  0  0  0
  7 23  1  0  0  0  0
  8 16  1  0  0  0  0
  9 11  1  0  0  0  0
 10 13  1  1  0  0  0
 10 20  1  0  0  0  0
 12  8  1  0  0  0  0
 14  8  2  0  0  0  0
 14 21  1  0  0  0  0
 15  9  2  0  0  0  0
 15  2  1  0  0  0  0
 16  5  1  0  0  0  0
 16  4  2  0  0  0  0
 17  4  1  0  0  0  0
 18 24  1  6  0  0  0
 18 26  1  0  0  0  0
 18  1  1  0  0  0  0
 19  3  1  1  0  0  0
 19  2  1  0  0  0  0
 19 14  1  0  0  0  0
 20 26  2  0  0  0  0
 21 17  2  0  0  0  0
 22 10  1  0  0  0  0
 22 24  1  0  0  0  0
 23 11  1  0  0  0  0
 25  7  1  0  0  0  0
 26  3  1  0  0  0  0
 27 25  2  0  0  0  0
 27  9  1  0  0  0  0
M  END
>  <MODEL>
2

>  <REMARK>
 VINA RESULT:      -8.5      2.224      5.515
  Name = 
  0 active torsions:
  status: ('A' for Active; 'I' for Inactive)
                            x       y       z     vdW  Elec       q    Type
                         _______ _______ _______ _____ _____    ______ ____

>  <TORSDO>
F 0

$$$$
=
 OpenBabel10262419593D

 27 31  0  0  1  0  0  0  0  0999 V2000
  187.1180  177.1180  143.4850 C   0  0  0  0  0  2  0  0  0  0  0  0
  189.0330  177.0360  141.8430 N   0  0  0  0  0  0  0  0  0  0  0  0
  187.9310  179.3330  140.9900 S   0  0  0  0  0  0  0  0  0  0  0  0
  191.0750  176.6500  137.7280 C   0  0  0  0  0  3  0  0  0  0  0  0
  189.7040  177.5050  135.9670 F   0  0  0  0  0  0  0  0  0  0  0  0
  190.2560  176.5260  141.3790 N   0  0  0  0  0  2  0  0  0  0  0  0
  191.1860  177.1280  146.4700 N   0  0  0  0  0  2  0  0  0  0  0  0
  188.8750  177.5950  138.2100 C   0  0  0  0  0  0  0  0  0  0  0  0
  189.4550  176.9050  144.2540 C   0  0  0  0  0  0  0  0  0  0  0  0
  184.0590  179.0030  142.1750 C   0  0  2  0  0  3  0  0  0  0  0  0
  190.9470  176.8340  144.0510 C   0  0  0  0  0  2  0  0  0  0  0  0
  187.7170  178.1670  137.7970 F   0  0  0  0  0  0  0  0  0  0  0  0
  183.0120  178.3920  141.2690 C   0  0  0  0  0  1  0  0  0  0  0  0
  189.1010  177.3270  139.5620 C   0  0  0  0  0  0  0  0  0  0  0  0
  188.5920  176.9890  143.2160 C   0  0  0  0  0  0  0  0  0  0  0  0
  189.8810  177.2560  137.2870 C   0  0  0  0  0  0  0  0  0  0  0  0
  191.2750  176.3770  139.0930 C   0  0  0  0  0  3  0  0  0  0  0  0
  186.6630  178.5750  143.4400 C   0  0  2  0  0  3  0  0  0  0  0  0
  188.2130  177.5540  140.7400 C   0  0  1  0  0  3  0  0  0  0  0  0
  185.3150  179.1350  141.4580 N   0  0  0  0  0  0  0  0  0  0  0  0
  190.2630  176.7300  139.9830 C   0  0  0  0  0  0  0  0  0  0  0  0
  184.2010  178.1720  143.4440 C   0  0  0  0  0  2  0  0  0  0  0  0
  191.6800  177.5700  145.1700 C   0  0  0  0  0  2  0  0  0  0  0  0
  185.3730  178.7190  144.2440 C   0  0  0  0  0  2  0  0  0  0  0  0
  189.7890  176.8970  146.6830 C   0  0  0  0  0  3  0  0  0  0  0  0
  186.4820  179.0350  142.0050 C   0  0  0  0  0  0  0  0  0  0  0  0
  188.9530  176.8180  145.6460 C   0  0  0  0  0  3  0  0  0  0  0  0
  2 15  1  0  0  0  0
  3 26  1  0  0  0  0
  4 17  1  0  0  0  0
  5 16  1  0  0  0  0
  6  2  1  0  0  0  0
  7 25  1  0  0  0  0
  8 14  2  0  0  0  0
  9 27  1  0  0  0  0
 10 13  1  6  0  0  0
 10 22  1  0  0  0  0
 11  9  1  0  0  0  0
 11 23  1  0  0  0  0
 12  8  1  0  0  0  0
 14 21  1  0  0  0  0
 15  1  1  0  0  0  0
 15  9  2  0  0  0  0
 16  4  2  0  0  0  0
 16  8  1  0  0  0  0
 17 21  2  0  0  0  0
 18  1  1  6  0  0  0
 18 24  1  0  0  0  0
 19 14  1  6  0  0  0
 19  3  1  0  0  0  0
 19  2  1  0  0  0  0
 20 26  2  0  0  0  0
 20 10  1  0  0  0  0
 21  6  1  0  0  0  0
 22 24  1  0  0  0  0
 23  7  1  0  0  0  0
 26 18  1  0  0  0  0
 27 25  2  0  0  0  0
M  END
>  <MODEL>
3

>  <REMARK>
 VINA RESULT:      -8.1      2.402      5.439
  Name = 
  0 active torsions:
  status: ('A' for Active; 'I' for Inactive)
                            x       y       z     vdW  Elec       q    Type
                         _______ _______ _______ _____ _____    ______ ____

>  <TORSDO>
F 0

$$$$
=
 OpenBabel10262419593D

 27 31  0  0  1  0  0  0  0  0999 V2000
  185.7780  177.5150  144.5540 C   0  0  0  0  0  2  0  0  0  0  0  0
  187.9240  177.4410  143.2270 N   0  0  0  0  0  0  0  0  0  0  0  0
  186.8810  179.6420  142.0940 S   0  0  0  0  0  0  0  0  0  0  0  0
  190.5850  176.9500  139.4950 C   0  0  0  0  0  3  0  0  0  0  0  0
  189.4700  177.6570  137.5030 F   0  0  0  0  0  0  0  0  0  0  0  0
  189.2220  176.9660  142.9820 N   0  0  0  0  0  2  0  0  0  0  0  0
  189.3380  177.8520  148.1140 N   0  0  0  0  0  2  0  0  0  0  0  0
  188.3040  177.8170  139.5870 C   0  0  0  0  0  0  0  0  0  0  0  0
  187.9760  177.4450  145.6770 C   0  0  0  0  0  0  0  0  0  0  0  0
  182.8880  179.1950  142.6960 C   0  0  2  0  0  3  0  0  0  0  0  0
  189.4840  177.4320  145.7060 C   0  0  0  0  0  2  0  0  0  0  0  0
  187.2020  178.3160  138.9730 F   0  0  0  0  0  0  0  0  0  0  0  0
  182.0160  178.4950  141.6760 C   0  0  0  0  0  1  0  0  0  0  0  0
  188.3300  177.6250  140.9690 C   0  0  0  0  0  0  0  0  0  0  0  0
  187.2800  177.4400  144.5180 C   0  0  0  0  0  0  0  0  0  0  0  0
  189.4510  177.4800  138.8460 C   0  0  0  0  0  0  0  0  0  0  0  0
  190.5840  176.7530  140.8870 C   0  0  0  0  0  3  0  0  0  0  0  0
  185.2810  178.9470  144.3610 C   0  0  2  0  0  3  0  0  0  0  0  0
  187.2640  177.8680  141.9860 C   0  0  1  0  0  3  0  0  0  0  0  0
  184.2330  179.3490  142.1710 N   0  0  0  0  0  0  0  0  0  0  0  0
  189.4350  177.1020  141.5930 C   0  0  0  0  0  0  0  0  0  0  0  0
  182.8650  178.4330  144.0150 C   0  0  0  0  0  2  0  0  0  0  0  0
  190.0090  178.2530  146.8810 C   0  0  0  0  0  2  0  0  0  0  0  0
  183.8790  179.0700  144.9520 C   0  0  0  0  0  2  0  0  0  0  0  0
  187.9340  177.5680  148.1260 C   0  0  0  0  0  3  0  0  0  0  0  0
  185.3050  179.3280  142.8920 C   0  0  0  0  0  0  0  0  0  0  0  0
  187.2700  177.4030  146.9800 C   0  0  0  0  0  3  0  0  0  0  0  0
  2 15  1  0  0  0  0
  3 26  1  0  0  0  0
  4 17  1  0  0  0  0
  5 16  1  0  0  0  0
  6  2  1  0  0  0  0
  7 25  1  0  0  0  0
  8 14  2  0  0  0  0
  9 11  1  0  0  0  0
  9 27  1  0  0  0  0
 10 13  1  6  0  0  0
 10 22  1  0  0  0  0
 11 23  1  0  0  0  0
 12  8  1  0  0  0  0
 14 21  1  0  0  0  0
 15  1  1  0  0  0  0
 15  9  2  0  0  0  0
 16  4  2  0  0  0  0
 16  8  1  0  0  0  0
 17 21  2  0  0  0  0
 18  1  1  6  0  0  0
 18 24  1  0  0  0  0
 19 14  1  6  0  0  0
 19  3  1  0  0  0  0
 19  2  1  0  0  0  0
 20 10  1  0  0  0  0
 20 26  2  0  0  0  0
 21  6  1  0  0  0  0
 22 24  1  0  0  0  0
 23  7  1  0  0  0  0
 26 18  1  0  0  0  0
 27 25  2  0  0  0  0
M  END
>  <MODEL>
4

>  <REMARK>
 VINA RESULT:      -8.0      1.954      5.089
  Name = 
  0 active torsions:
  status: ('A' for Active; 'I' for Inactive)
                            x       y       z     vdW  Elec       q    Type
                         _______ _______ _______ _____ _____    ______ ____

>  <TORSDO>
F 0

$$$$
=
 OpenBabel10262419593D

 27 31  0  0  1  0  0  0  0  0999 V2000
  190.0680  176.0310  142.6360 C   0  0  0  0  0  2  0  0  0  0  0  0
  187.8990  177.3220  142.6080 N   0  0  0  0  0  0  0  0  0  0  0  0
  189.0870  178.6670  144.6060 S   0  0  0  0  0  0  0  0  0  0  0  0
  183.8410  178.8260  144.1940 C   0  0  0  0  0  3  0  0  0  0  0  0
  183.8230  179.0000  146.5780 F   0  0  0  0  0  0  0  0  0  0  0  0
  186.6740  177.6880  142.0280 N   0  0  0  0  0  2  0  0  0  0  0  0
  189.9160  177.9110  137.9560 N   0  0  0  0  0  2  0  0  0  0  0  0
  185.8220  178.2470  145.5000 C   0  0  0  0  0  0  0  0  0  0  0  0
  189.2320  177.0830  140.5640 C   0  0  0  0  0  0  0  0  0  0  0  0
  191.7810  175.9920  146.0550 C   0  0  2  0  0  3  0  0  0  0  0  0
  188.2630  177.9150  139.7620 C   0  0  0  0  0  2  0  0  0  0  0  0
  186.4530  178.1050  146.6910 F   0  0  0  0  0  0  0  0  0  0  0  0
  191.4160  175.0410  147.1740 C   0  0  0  0  0  1  0  0  0  0  0  0
  186.4750  177.9500  144.3020 C   0  0  0  0  0  0  0  0  0  0  0  0
  189.0350  176.8170  141.8750 C   0  0  0  0  0  0  0  0  0  0  0  0
  184.4900  178.6960  145.4390 C   0  0  0  0  0  0  0  0  0  0  0  0
  184.5140  178.5100  143.0010 C   0  0  0  0  0  3  0  0  0  0  0  0
  191.0260  176.9480  143.3940 C   0  0  2  0  0  3  0  0  0  0  0  0
  187.8580  177.4390  144.0720 C   0  0  1  0  0  3  0  0  0  0  0  0
  190.6960  176.9320  145.8330 N   0  0  0  0  0  0  0  0  0  0  0  0
  185.8340  178.0730  143.0950 C   0  0  0  0  0  0  0  0  0  0  0  0
  192.1340  175.2080  144.7980 C   0  0  0  0  0  2  0  0  0  0  0  0
  189.0030  178.7530  138.7220 C   0  0  0  0  0  2  0  0  0  0  0  0
  192.3290  176.1960  143.6580 C   0  0  0  0  0  2  0  0  0  0  0  0
  190.6850  176.8890  138.5990 C   0  0  0  0  0  3  0  0  0  0  0  0
  190.3910  177.4360  144.6830 C   0  0  0  0  0  0  0  0  0  0  0  0
  190.3930  176.5080  139.8440 C   0  0  0  0  0  3  0  0  0  0  0  0
  2 19  1  0  0  0  0
  3 26  1  0  0  0  0
  4 16  1  0  0  0  0
  6  2  1  0  0  0  0
  6 21  1  0  0  0  0
  7 25  1  0  0  0  0
  7 23  1  0  0  0  0
  8 12  1  0  0  0  0
  9 15  2  0  0  0  0
 10 13  1  1  0  0  0
 11  9  1  0  0  0  0
 14  8  1  0  0  0  0
 15  2  1  0  0  0  0
 15  1  1  0  0  0  0
 16  8  2  0  0  0  0
 16  5  1  0  0  0  0
 17 21  1  0  0  0  0
 17  4  2  0  0  0  0
 18  1  1  1  0  0  0
 18 24  1  0  0  0  0
 18 26  1  0  0  0  0
 19 14  1  6  0  0  0
 19  3  1  0  0  0  0
 20 10  1  0  0  0  0
 21 14  2  0  0  0  0
 22 10  1  0  0  0  0
 23 11  1  0  0  0  0
 24 22  1  0  0  0  0
 25 27  2  0  0  0  0
 26 20  2  0  0  0  0
 27  9  1  0  0  0  0
M  END
>  <MODEL>
5

>  <REMARK>
 VINA RESULT:      -7.6      3.005      6.036
  Name = 
  0 active torsions:
  status: ('A' for Active; 'I' for Inactive)
                            x       y       z     vdW  Elec       q    Type
                         _______ _______ _______ _____ _____    ______ ____

>  <TORSDO>
F 0

$$$$
=
 OpenBabel10262419593D

 27 31  0  0  1  0  0  0  0  0999 V2000
  187.0260  178.9310  141.3470 C   0  0  0  0  0  2  0  0  0  0  0  0
  188.9970  177.9730  142.6000 N   0  0  0  0  0  0  0  0  0  0  0  0
  187.0850  176.4770  143.7480 S   0  0  0  0  0  0  0  0  0  0  0  0
  191.6810  177.0890  146.2420 C   0  0  0  0  0  3  0  0  0  0  0  0
  190.4180  176.9300  148.2650 F   0  0  0  0  0  0  0  0  0  0  0  0
  190.3740  177.7890  142.8050 N   0  0  0  0  0  2  0  0  0  0  0  0
  189.9310  177.0730  137.6630 N   0  0  0  0  0  2  0  0  0  0  0  0
  189.2560  177.3770  146.2210 C   0  0  0  0  0  0  0  0  0  0  0  0
  188.9770  178.0050  140.1490 C   0  0  0  0  0  0  0  0  0  0  0  0
  183.7370  178.7330  143.2880 C   0  0  2  0  0  3  0  0  0  0  0  0
  190.3180  177.3200  140.0680 C   0  0  0  0  0  2  0  0  0  0  0  0
  188.0650  177.4290  146.8680 F   0  0  0  0  0  0  0  0  0  0  0  0
  183.3150  179.7320  144.3440 C   0  0  0  0  0  1  0  0  0  0  0  0
  189.3310  177.5690  144.8400 C   0  0  0  0  0  0  0  0  0  0  0  0
  188.3930  178.3030  141.3320 C   0  0  0  0  0  0  0  0  0  0  0  0
  190.4480  177.1280  146.9250 C   0  0  0  0  0  0  0  0  0  0  0  0
  191.7350  177.2970  144.8530 C   0  0  0  0  0  3  0  0  0  0  0  0
  185.9290  177.8870  141.5430 C   0  0  2  0  0  3  0  0  0  0  0  0
  188.2470  177.8700  143.8590 C   0  0  1  0  0  3  0  0  0  0  0  0
  184.8720  177.9620  143.7650 N   0  0  0  0  0  0  0  0  0  0  0  0
  190.5360  177.5360  144.1840 C   0  0  0  0  0  0  0  0  0  0  0  0
  184.0340  179.4510  141.9780 C   0  0  0  0  0  2  0  0  0  0  0  0
  190.3720  176.3780  138.8680 C   0  0  0  0  0  2  0  0  0  0  0  0
  184.6140  178.4400  141.0000 C   0  0  0  0  0  2  0  0  0  0  0  0
  188.8180  177.9730  137.7030 C   0  0  0  0  0  3  0  0  0  0  0  0
  185.8120  177.5030  143.0070 C   0  0  0  0  0  0  0  0  0  0  0  0
  188.3370  178.4000  138.8720 C   0  0  0  0  0  3  0  0  0  0  0  0
  1 18  1  0  0  0  0
  2  6  1  0  0  0  0
  2 19  1  0  0  0  0
  4 16  1  0  0  0  0
  6 21  1  0  0  0  0
  7 25  1  0  0  0  0
  7 23  1  0  0  0  0
  8 12  1  0  0  0  0
  8 16  2  0  0  0  0
  9 15  2  0  0  0  0
 10 20  1  0  0  0  0
 10 13  1  1  0  0  0
 11  9  1  0  0  0  0
 14  8  1  0  0  0  0
 15  1  1  0  0  0  0
 15  2  1  0  0  0  0
 16  5  1  0  0  0  0
 17  4  2  0  0  0  0
 18 24  1  1  0  0  0
 18 26  1  0  0  0  0
 19  3  1  6  0  0  0
 19 14  1  0  0  0  0
 21 14  2  0  0  0  0
 21 17  1  0  0  0  0
 22 10  1  0  0  0  0
 23 11  1  0  0  0  0
 24 22  1  0  0  0  0
 25 27  2  0  0  0  0
 26  3  1  0  0  0  0
 26 20  2  0  0  0  0
 27  9  1  0  0  0  0
M  END
>  <MODEL>
6

>  <REMARK>
 VINA RESULT:      -7.6      2.678      5.703
  Name = 
  0 active torsions:
  status: ('A' for Active; 'I' for Inactive)
                            x       y       z     vdW  Elec       q    Type
                         _______ _______ _______ _____ _____    ______ ____

>  <TORSDO>
F 0

$$$$
=
 OpenBabel10262419593D

 27 31  0  0  1  0  0  0  0  0999 V2000
  183.2040  177.8320  140.3890 C   0  0  0  0  0  2  0  0  0  0  0  0
  183.7160  178.3190  142.8120 N   0  0  0  0  0  0  0  0  0  0  0  0
  185.7330  179.7270  141.7330 S   0  0  0  0  0  0  0  0  0  0  0  0
  186.1070  178.1780  146.7510 C   0  0  0  0  0  3  0  0  0  0  0  0
  188.4610  178.0410  146.3620 F   0  0  0  0  0  0  0  0  0  0  0  0
  183.3910  178.3240  144.1780 N   0  0  0  0  0  2  0  0  0  0  0  0
  179.0060  180.1140  142.0090 N   0  0  0  0  0  2  0  0  0  0  0  0
  186.9930  178.1360  144.4750 C   0  0  0  0  0  0  0  0  0  0  0  0
  181.4940  178.7910  141.8900 C   0  0  0  0  0  0  0  0  0  0  0  0
  186.2830  177.9470  138.1230 C   0  0  2  0  0  3  0  0  0  0  0  0
  181.0000  179.3450  143.2030 C   0  0  0  0  0  2  0  0  0  0  0  0
  188.0380  178.0670  143.6140 F   0  0  0  0  0  0  0  0  0  0  0  0
  187.2550  176.7990  137.9550 C   0  0  0  0  0  1  0  0  0  0  0  0
  185.6810  178.2230  144.0060 C   0  0  0  0  0  0  0  0  0  0  0  0
  182.7510  178.3160  141.7400 C   0  0  0  0  0  0  0  0  0  0  0  0
  187.2030  178.1190  145.8660 C   0  0  0  0  0  0  0  0  0  0  0  0
  184.7930  178.2530  146.2560 C   0  0  0  0  0  3  0  0  0  0  0  0
  183.9700  178.9150  139.6310 C   0  0  2  0  0  3  0  0  0  0  0  0
  185.1680  178.2350  142.6040 C   0  0  1  0  0  3  0  0  0  0  0  0
  186.3890  178.4900  139.4650 N   0  0  0  0  0  0  0  0  0  0  0  0
  184.6190  178.2730  144.8740 C   0  0  0  0  0  0  0  0  0  0  0  0
  184.8680  177.4860  137.7940 C   0  0  0  0  0  2  0  0  0  0  0  0
  180.0330  180.5020  142.9710 C   0  0  0  0  0  2  0  0  0  0  0  0
  183.9080  178.6150  138.1360 C   0  0  0  0  0  2  0  0  0  0  0  0
  179.3410  179.3360  140.8540 C   0  0  0  0  0  3  0  0  0  0  0  0
  185.4030  179.0020  140.1250 C   0  0  0  0  0  0  0  0  0  0  0  0
  180.5250  178.7290  140.7700 C   0  0  0  0  0  3  0  0  0  0  0  0
  1 15  1  0  0  0  0
  2  6  1  0  0  0  0
  6 21  1  0  0  0  0
  7 23  1  0  0  0  0
  8 16  1  0  0  0  0
  9 11  1  0  0  0  0
 10 13  1  1  0  0  0
 10 20  1  0  0  0  0
 12  8  1  0  0  0  0
 14  8  2  0  0  0  0
 14 21  1  0  0  0  0
 15  9  2  0  0  0  0
 15  2  1  0  0  0  0
 16  5  1  0  0  0  0
 16  4  2  0  0  0  0
 17  4  1  0  0  0  0
 18 24  1  6  0  0  0
 18 26  1  0  0  0  0
 18  1  1  0  0  0  0
 19  3  1  6  0  0  0
 19  2  1  0  0  0  0
 19 14  1  0  0  0  0
 20 26  2  0  0  0  0
 21 17  2  0  0  0  0
 22 10  1  0  0  0  0
 22 24  1  0  0  0  0
 23 11  1  0  0  0  0
 25  7  1  0  0  0  0
 26  3  1  0  0  0  0
 27 25  2  0  0  0  0
 27  9  1  0  0  0  0
M  END
>  <MODEL>
7

>  <REMARK>
 VINA RESULT:      -7.6      2.755      6.008
  Name = 
  0 active torsions:
  status: ('A' for Active; 'I' for Inactive)
                            x       y       z     vdW  Elec       q    Type
                         _______ _______ _______ _____ _____    ______ ____

>  <TORSDO>
F 0

$$$$
=
 OpenBabel10262419593D

 27 31  0  0  1  0  0  0  0  0999 V2000
  190.3260  177.8210  143.6080 C   0  0  0  0  0  2  0  0  0  0  0  0
  188.2050  177.8330  144.9770 N   0  0  0  0  0  0  0  0  0  0  0  0
  187.2770  176.4120  142.8950 S   0  0  0  0  0  0  0  0  0  0  0  0
  183.8420  178.8870  146.0230 C   0  0  0  0  0  3  0  0  0  0  0  0
  182.4880  179.1330  144.0690 F   0  0  0  0  0  0  0  0  0  0  0  0
  187.4890  178.0550  146.1640 N   0  0  0  0  0  2  0  0  0  0  0  0
  191.7190  175.5570  147.8960 N   0  0  0  0  0  2  0  0  0  0  0  0
  184.8000  178.5770  143.7990 C   0  0  0  0  0  0  0  0  0  0  0  0
  190.3070  177.0260  145.9460 C   0  0  0  0  0  0  0  0  0  0  0  0
  189.7160  177.5310  139.8440 C   0  0  2  0  0  3  0  0  0  0  0  0
  189.6440  176.6880  147.2570 C   0  0  0  0  0  2  0  0  0  0  0  0
  184.6770  178.5670  142.4480 F   0  0  0  0  0  0  0  0  0  0  0  0
  189.3650  178.7010  138.9500 C   0  0  0  0  0  1  0  0  0  0  0  0
  186.0250  178.3010  144.4090 C   0  0  0  0  0  0  0  0  0  0  0  0
  189.6210  177.5620  144.9120 C   0  0  0  0  0  0  0  0  0  0  0  0
  183.6970  178.8670  144.6210 C   0  0  0  0  0  0  0  0  0  0  0  0
  185.0880  178.6190  146.6160 C   0  0  0  0  0  3  0  0  0  0  0  0
  190.1120  176.6800  142.6160 C   0  0  2  0  0  3  0  0  0  0  0  0
  187.3490  177.9910  143.7930 C   0  0  1  0  0  3  0  0  0  0  0  0
  188.6140  177.2550  140.7490 N   0  0  0  0  0  0  0  0  0  0  0  0
  186.1600  178.3300  145.7750 C   0  0  0  0  0  0  0  0  0  0  0  0
  191.0170  177.8110  140.5840 C   0  0  0  0  0  2  0  0  0  0  0  0
  190.2650  175.4350  147.8690 C   0  0  0  0  0  2  0  0  0  0  0  0
  191.2430  176.6930  141.5910 C   0  0  0  0  0  2  0  0  0  0  0  0
  192.4270  176.1310  146.7920 C   0  0  0  0  0  3  0  0  0  0  0  0
  188.7530  176.7990  141.9500 C   0  0  0  0  0  0  0  0  0  0  0  0
  191.7690  176.8030  145.8460 C   0  0  0  0  0  3  0  0  0  0  0  0
  1 15  1  0  0  0  0
  2  6  1  0  0  0  0
  4 17  1  0  0  0  0
  5 16  1  0  0  0  0
  8 14  2  0  0  0  0
  8 16  1  0  0  0  0
  9 11  1  0  0  0  0
 10 13  1  1  0  0  0
 10 22  1  0  0  0  0
 10 20  1  0  0  0  0
 11 23  1  0  0  0  0
 12  8  1  0  0  0  0
 14 21  1  0  0  0  0
 15  2  1  0  0  0  0
 15  9  2  0  0  0  0
 16  4  2  0  0  0  0
 18 24  1  6  0  0  0
 18  1  1  0  0  0  0
 19  3  1  1  0  0  0
 19 14  1  0  0  0  0
 19  2  1  0  0  0  0
 20 26  2  0  0  0  0
 21  6  1  0  0  0  0
 21 17  2  0  0  0  0
 22 24  1  0  0  0  0
 23  7  1  0  0  0  0
 25  7  1  0  0  0  0
 26 18  1  0  0  0  0
 26  3  1  0  0  0  0
 27  9  1  0  0  0  0
 27 25  2  0  0  0  0
M  END
>  <MODEL>
8

>  <REMARK>
 VINA RESULT:      -7.3      2.901      7.440
  Name = 
  0 active torsions:
  status: ('A' for Active; 'I' for Inactive)
                            x       y       z     vdW  Elec       q    Type
                         _______ _______ _______ _____ _____    ______ ____

>  <TORSDO>
F 0

$$$$
