=
 OpenBabel10262420033D

 27 30  0  0  1  0  0  0  0  0999 V2000
  182.8080  178.9060  142.3110 C   0  0  1  0  0  3  0  0  0  0  0  0
  183.7540  178.3920  143.4080 C   0  0  2  0  0  3  0  0  0  0  0  0
  186.8180  178.1470  146.4600 C   0  0  0  0  0  3  0  0  0  0  0  0
  188.7520  177.1210  147.2420 F   0  0  0  0  0  0  0  0  0  0  0  0
  183.5710  179.1880  144.7020 C   0  0  0  0  0  2  0  0  0  0  0  0
  187.5490  177.7960  143.7040 C   0  0  0  0  0  2  0  0  0  0  0  0
  188.3850  177.1260  144.8000 C   0  0  0  0  0  2  0  0  0  0  0  0
  185.2240  178.3640  142.9770 C   0  0  0  0  0  2  0  0  0  0  0  0
  187.9830  177.5320  146.2010 C   0  0  0  0  0  0  0  0  0  0  0  0
  185.9140  178.6330  145.3610 C   0  0  1  0  0  3  0  0  0  0  0  0
  186.0810  177.7870  144.0970 C   0  0  2  0  0  3  0  0  0  0  0  0
  184.4590  178.6270  145.8120 C   0  0  0  0  0  2  0  0  0  0  0  0
  182.9120  178.2560  140.9070 C   0  0  0  0  0  0  0  0  0  0  0  0
  180.5570  177.3750  140.4210 O   0  0  0  0  0  0  0  0  0  0  0  0
  181.4180  180.4020  138.9360 O   0  0  0  0  0  0  0  0  0  0  0  0
  182.3620  178.4460  137.6720 O   0  0  0  0  0  0  0  0  0  0  0  0
  183.6130  177.0630  140.9680 F   0  0  0  0  0  0  0  0  0  0  0  0
  182.1690  179.1030  139.0100 S   0  0  0  0  0  0  0  0  0  0  0  0
  183.6210  179.1950  139.9500 C   0  0  0  0  0  0  0  0  0  0  0  0
  184.7020  179.7530  139.8740 O   0  0  0  0  0  0  0  0  0  0  0  0
  181.5700  178.0260  140.2280 C   0  0  0  0  0  0  0  0  0  0  0  0
  179.3990  180.3450  142.8330 C   0  0  0  0  0  3  0  0  0  0  0  0
  180.8770  178.0030  143.6290 C   0  0  0  0  0  2  0  0  0  0  0  0
  181.4330  179.0650  142.7850 N   0  0  0  0  0  0  0  0  0  0  0  0
  180.5970  180.1280  142.2940 C   0  0  0  0  0  3  0  0  0  0  0  0
  178.9310  179.5060  143.9460 C   0  0  0  0  0  3  0  0  0  0  0  0
  179.6270  178.4410  144.3440 C   0  0  0  0  0  3  0  0  0  0  0  0
  1 13  1  6  0  0  0
  1 24  1  0  0  0  0
  2  1  1  6  0  0  0
  2  5  1  0  0  0  0
  5 12  1  0  0  0  0
  6 11  1  0  0  0  0
  6  7  1  0  0  0  0
  7  9  1  0  0  0  0
  8  2  1  0  0  0  0
  9  3  2  0  0  0  0
  9  4  1  0  0  0  0
 10 12  1  1  0  0  0
 10  3  1  0  0  0  0
 11  8  1  6  0  0  0
 11 10  1  0  0  0  0
 13 17  1  0  0  0  0
 15 18  2  0  0  0  0
 16 18  2  0  0  0  0
 18 19  1  0  0  0  0
 18 21  1  0  0  0  0
 19 13  1  0  0  0  0
 20 19  2  0  0  0  0
 21 14  2  0  0  0  0
 21 13  1  0  0  0  0
 22 26  1  0  0  0  0
 23 27  1  0  0  0  0
 24 23  1  0  0  0  0
 25 24  1  0  0  0  0
 25 22  2  0  0  0  0
 26 27  2  0  0  0  0
M  END
>  <MODEL>
1

>  <REMARK>
 VINA RESULT:      -9.0      0.000      0.000
  Name = 
  3 active torsions:
  status: ('A' for Active; 'I' for Inactive)
    1  A    between atoms: C_1  and  C_15
    2  A    between atoms: C_2  and  C_15
    3  A    between atoms: N_11  and  C_15
                            x       y       z     vdW  Elec       q    Type
                         _______ _______ _______ _____ _____    ______ ____

>  <TORSDO>
F 3

$$$$
=
 OpenBabel10262420033D

 27 30  0  0  1  0  0  0  0  0999 V2000
  189.1030  177.0130  141.5390 C   0  0  1  0  0  3  0  0  0  0  0  0
  187.6810  177.3600  142.0080 C   0  0  2  0  0  3  0  0  0  0  0  0
  184.2460  179.4260  143.6500 C   0  0  0  0  0  3  0  0  0  0  0  0
  182.4920  179.4410  145.1760 F   0  0  0  0  0  0  0  0  0  0  0  0
  187.1640  178.6120  141.2960 C   0  0  0  0  0  2  0  0  0  0  0  0
  185.9840  177.9680  145.4130 C   0  0  0  0  0  2  0  0  0  0  0  0
  184.5100  178.1570  145.7890 C   0  0  0  0  0  2  0  0  0  0  0  0
  187.5600  177.4970  143.5290 C   0  0  0  0  0  2  0  0  0  0  0  0
  183.7600  179.0800  144.8540 C   0  0  0  0  0  0  0  0  0  0  0  0
  185.6410  179.0650  143.2220 C   0  0  1  0  0  3  0  0  0  0  0  0
  186.1130  177.7810  143.9100 C   0  0  2  0  0  3  0  0  0  0  0  0
  185.7240  178.9120  141.7080 C   0  0  0  0  0  2  0  0  0  0  0  0
  189.5870  177.6210  140.1960 C   0  0  0  0  0  0  0  0  0  0  0  0
  192.1420  177.6450  140.3760 O   0  0  0  0  0  0  0  0  0  0  0  0
  190.7390  175.0440  138.5370 O   0  0  0  0  0  0  0  0  0  0  0  0
  190.8570  177.1680  137.1990 O   0  0  0  0  0  0  0  0  0  0  0  0
  189.3310  178.9820  140.1530 F   0  0  0  0  0  0  0  0  0  0  0  0
  190.4700  176.5210  138.5000 S   0  0  0  0  0  0  0  0  0  0  0  0
  188.8790  176.9490  139.0360 C   0  0  0  0  0  0  0  0  0  0  0  0
  187.7330  176.7860  138.6550 O   0  0  0  0  0  0  0  0  0  0  0  0
  191.0560  177.3680  139.8930 C   0  0  0  0  0  0  0  0  0  0  0  0
  191.5670  176.0120  144.1640 C   0  0  0  0  0  3  0  0  0  0  0  0
  190.4860  178.4450  143.0610 C   0  0  0  0  0  2  0  0  0  0  0  0
  190.0890  177.1060  142.6160 N   0  0  0  0  0  0  0  0  0  0  0  0
  190.7770  175.9370  143.0940 C   0  0  0  0  0  3  0  0  0  0  0  0
  191.7250  177.2910  144.8730 C   0  0  0  0  0  3  0  0  0  0  0  0
  191.1980  178.4150  144.3870 C   0  0  0  0  0  3  0  0  0  0  0  0
  1 13  1  6  0  0  0
  1 24  1  0  0  0  0
  2  1  1  1  0  0  0
  2  8  1  0  0  0  0
  3  9  2  0  0  0  0
  5 12  1  0  0  0  0
  5  2  1  0  0  0  0
  6  7  1  0  0  0  0
  9  4  1  0  0  0  0
  9  7  1  0  0  0  0
 10 12  1  6  0  0  0
 10  3  1  0  0  0  0
 10 11  1  0  0  0  0
 11  8  1  1  0  0  0
 11  6  1  0  0  0  0
 16 18  2  0  0  0  0
 17 13  1  0  0  0  0
 18 15  2  0  0  0  0
 18 19  1  0  0  0  0
 18 21  1  0  0  0  0
 19 13  1  0  0  0  0
 20 19  2  0  0  0  0
 21 13  1  0  0  0  0
 21 14  2  0  0  0  0
 22 26  1  0  0  0  0
 23 27  1  0  0  0  0
 24 23  1  0  0  0  0
 24 25  1  0  0  0  0
 25 22  2  0  0  0  0
 27 26  2  0  0  0  0
M  END
>  <MODEL>
2

>  <REMARK>
 VINA RESULT:      -8.2      4.514      7.741
  Name = 
  3 active torsions:
  status: ('A' for Active; 'I' for Inactive)
    1  A    between atoms: C_1  and  C_15
    2  A    between atoms: C_2  and  C_15
    3  A    between atoms: N_11  and  C_15
                            x       y       z     vdW  Elec       q    Type
                         _______ _______ _______ _____ _____    ______ ____

>  <TORSDO>
F 3

$$$$
=
 OpenBabel10262420033D

 27 30  0  0  1  0  0  0  0  0999 V2000
  187.6160  178.0010  144.9030 C   0  0  1  0  0  3  0  0  0  0  0  0
  186.5060  177.8960  143.8440 C   0  0  2  0  0  3  0  0  0  0  0  0
  183.5640  178.8550  140.8130 C   0  0  0  0  0  3  0  0  0  0  0  0
  181.3520  178.7570  140.1040 F   0  0  0  0  0  0  0  0  0  0  0  0
  186.9860  178.4400  142.4960 C   0  0  0  0  0  2  0  0  0  0  0  0
  182.8390  179.0470  143.5850 C   0  0  0  0  0  2  0  0  0  0  0  0
  181.7570  178.7540  142.5400 C   0  0  0  0  0  2  0  0  0  0  0  0
  185.1930  178.5580  144.2740 C   0  0  0  0  0  2  0  0  0  0  0  0
  182.2550  178.8450  141.1140 C   0  0  0  0  0  0  0  0  0  0  0  0
  184.6230  178.9540  141.8750 C   0  0  1  0  0  3  0  0  0  0  0  0
  184.1350  178.3550  143.1960 C   0  0  2  0  0  3  0  0  0  0  0  0
  185.9080  178.2670  141.4280 C   0  0  0  0  0  2  0  0  0  0  0  0
  187.3150  177.4440  146.3190 C   0  0  0  0  0  0  0  0  0  0  0  0
  189.3960  176.0890  146.9420 O   0  0  0  0  0  0  0  0  0  0  0  0
  189.1650  179.2880  148.2940 O   0  0  0  0  0  0  0  0  0  0  0  0
  187.7630  177.6370  149.5690 O   0  0  0  0  0  0  0  0  0  0  0  0
  186.3710  176.4320  146.2590 F   0  0  0  0  0  0  0  0  0  0  0  0
  188.1500  178.1830  148.2230 S   0  0  0  0  0  0  0  0  0  0  0  0
  186.7930  178.5530  147.2120 C   0  0  0  0  0  0  0  0  0  0  0  0
  185.8580  179.3360  147.2210 O   0  0  0  0  0  0  0  0  0  0  0  0
  188.5440  176.9540  147.0680 C   0  0  0  0  0  0  0  0  0  0  0  0
  190.2950  176.0020  143.2330 C   0  0  0  0  0  3  0  0  0  0  0  0
  190.0340  178.5530  144.5460 C   0  0  0  0  0  2  0  0  0  0  0  0
  188.9260  177.6080  144.3830 N   0  0  0  0  0  0  0  0  0  0  0  0
  189.0810  176.4230  143.5820 C   0  0  0  0  0  3  0  0  0  0  0  0
  191.4860  176.7390  143.6790 C   0  0  0  0  0  3  0  0  0  0  0  0
  191.3730  177.9040  144.3190 C   0  0  0  0  0  3  0  0  0  0  0  0
  1 24  1  6  0  0  0
  1 13  1  0  0  0  0
  2  8  1  0  0  0  0
  2  1  1  1  0  0  0
  3  9  2  0  0  0  0
  4  9  1  0  0  0  0
  5  2  1  0  0  0  0
  7  6  1  0  0  0  0
  9  7  1  0  0  0  0
 10  3  1  6  0  0  0
 10 11  1  0  0  0  0
 11  6  1  1  0  0  0
 11  8  1  0  0  0  0
 12 10  1  0  0  0  0
 12  5  1  0  0  0  0
 13 21  1  0  0  0  0
 13 19  1  0  0  0  0
 14 21  2  0  0  0  0
 17 13  1  0  0  0  0
 18 15  2  0  0  0  0
 18 16  2  0  0  0  0
 19 20  2  0  0  0  0
 19 18  1  0  0  0  0
 21 18  1  0  0  0  0
 22 25  2  0  0  0  0
 22 26  1  0  0  0  0
 24 23  1  0  0  0  0
 25 24  1  0  0  0  0
 26 27  2  0  0  0  0
 27 23  1  0  0  0  0
M  END
>  <MODEL>
3

>  <REMARK>
 VINA RESULT:      -8.0      4.676      8.442
  Name = 
  3 active torsions:
  status: ('A' for Active; 'I' for Inactive)
    1  A    between atoms: C_1  and  C_15
    2  A    between atoms: C_2  and  C_15
    3  A    between atoms: N_11  and  C_15
                            x       y       z     vdW  Elec       q    Type
                         _______ _______ _______ _____ _____    ______ ____

>  <TORSDO>
F 3

$$$$
=
 OpenBabel10262420033D

 27 30  0  0  1  0  0  0  0  0999 V2000
  182.6250  178.6300  141.0330 C   0  0  1  0  0  3  0  0  0  0  0  0
  183.3960  178.2670  142.3130 C   0  0  2  0  0  3  0  0  0  0  0  0
  185.9340  178.4550  145.8180 C   0  0  0  0  0  3  0  0  0  0  0  0
  187.7420  177.5930  146.9980 F   0  0  0  0  0  0  0  0  0  0  0  0
  182.9860  179.1790  143.4720 C   0  0  0  0  0  2  0  0  0  0  0  0
  187.1070  177.8640  143.2640 C   0  0  0  0  0  2  0  0  0  0  0  0
  187.7730  177.3400  144.5410 C   0  0  0  0  0  2  0  0  0  0  0  0
  184.9160  178.2580  142.1240 C   0  0  0  0  0  2  0  0  0  0  0  0
  187.1410  177.8660  145.8120 C   0  0  0  0  0  0  0  0  0  0  0  0
  185.2060  178.7910  144.5460 C   0  0  1  0  0  3  0  0  0  0  0  0
  185.5960  177.8320  143.4190 C   0  0  2  0  0  3  0  0  0  0  0  0
  183.6980  178.7690  144.7600 C   0  0  0  0  0  2  0  0  0  0  0  0
  182.6250  177.5970  139.8760 C   0  0  0  0  0  0  0  0  0  0  0  0
  180.1500  177.0820  139.4650 O   0  0  0  0  0  0  0  0  0  0  0  0
  181.6500  179.3340  137.2760 O   0  0  0  0  0  0  0  0  0  0  0  0
  182.1990  176.9550  136.6810 O   0  0  0  0  0  0  0  0  0  0  0  0
  183.0630  176.3610  140.3200 F   0  0  0  0  0  0  0  0  0  0  0  0
  182.1150  177.9920  137.7650 S   0  0  0  0  0  0  0  0  0  0  0  0
  183.5330  178.0700  138.7570 C   0  0  0  0  0  0  0  0  0  0  0  0
  184.7080  178.3640  138.6160 O   0  0  0  0  0  0  0  0  0  0  0  0
  181.2800  177.4440  139.1810 C   0  0  0  0  0  0  0  0  0  0  0  0
  179.6490  180.8830  140.8760 C   0  0  0  0  0  3  0  0  0  0  0  0
  180.4640  178.5130  142.2960 C   0  0  0  0  0  2  0  0  0  0  0  0
  181.3080  179.2000  141.3140 N   0  0  0  0  0  0  0  0  0  0  0  0
  180.7850  180.2830  140.5250 C   0  0  0  0  0  3  0  0  0  0  0  0
  178.9310  180.4500  142.0830 C   0  0  0  0  0  3  0  0  0  0  0  0
  179.3220  179.3740  142.7660 C   0  0  0  0  0  3  0  0  0  0  0  0
  1 13  1  6  0  0  0
  1 24  1  0  0  0  0
  2  1  1  6  0  0  0
  2  5  1  0  0  0  0
  5 12  1  0  0  0  0
  6 11  1  0  0  0  0
  6  7  1  0  0  0  0
  7  9  1  0  0  0  0
  8  2  1  0  0  0  0
  9  3  2  0  0  0  0
  9  4  1  0  0  0  0
 10 12  1  1  0  0  0
 10  3  1  0  0  0  0
 11  8  1  6  0  0  0
 11 10  1  0  0  0  0
 13 17  1  0  0  0  0
 15 18  2  0  0  0  0
 16 18  2  0  0  0  0
 18 19  1  0  0  0  0
 18 21  1  0  0  0  0
 19 13  1  0  0  0  0
 20 19  2  0  0  0  0
 21 14  2  0  0  0  0
 21 13  1  0  0  0  0
 22 26  1  0  0  0  0
 23 27  1  0  0  0  0
 24 23  1  0  0  0  0
 25 22  2  0  0  0  0
 25 24  1  0  0  0  0
 26 27  2  0  0  0  0
M  END
>  <MODEL>
4

>  <REMARK>
 VINA RESULT:      -7.6      1.218      1.428
  Name = 
  3 active torsions:
  status: ('A' for Active; 'I' for Inactive)
    1  A    between atoms: C_1  and  C_15
    2  A    between atoms: C_2  and  C_15
    3  A    between atoms: N_11  and  C_15
                            x       y       z     vdW  Elec       q    Type
                         _______ _______ _______ _____ _____    ______ ____

>  <TORSDO>
F 3

$$$$
=
 OpenBabel10262420033D

 27 30  0  0  1  0  0  0  0  0999 V2000
  188.3320  177.5440  144.2570 C   0  0  1  0  0  3  0  0  0  0  0  0
  186.9450  178.2060  144.2090 C   0  0  2  0  0  3  0  0  0  0  0  0
  182.6650  178.8700  144.2550 C   0  0  0  0  0  3  0  0  0  0  0  0
  180.7820  179.7060  143.1770 F   0  0  0  0  0  0  0  0  0  0  0  0
  186.1730  177.9460  145.5040 C   0  0  0  0  0  2  0  0  0  0  0  0
  183.9440  178.1200  141.7950 C   0  0  0  0  0  2  0  0  0  0  0  0
  182.6530  178.9470  141.7560 C   0  0  0  0  0  2  0  0  0  0  0  0
  186.1220  177.8020  142.9810 C   0  0  0  0  0  2  0  0  0  0  0  0
  182.0070  179.1240  143.1120 C   0  0  0  0  0  0  0  0  0  0  0  0
  184.0230  178.2260  144.2650 C   0  0  1  0  0  3  0  0  0  0  0  0
  184.7930  178.5460  142.9820 C   0  0  2  0  0  3  0  0  0  0  0  0
  184.8250  178.6660  145.4840 C   0  0  0  0  0  2  0  0  0  0  0  0
  189.3620  177.9510  143.1710 C   0  0  0  0  0  0  0  0  0  0  0  0
  191.1600  179.2630  144.4380 O   0  0  0  0  0  0  0  0  0  0  0  0
  191.8930  175.9420  143.7000 O   0  0  0  0  0  0  0  0  0  0  0  0
  192.2630  177.4370  141.7140 O   0  0  0  0  0  0  0  0  0  0  0  0
  188.8520  178.9520  142.3600 F   0  0  0  0  0  0  0  0  0  0  0  0
  191.3410  177.0350  142.8310 S   0  0  0  0  0  0  0  0  0  0  0  0
  189.7120  176.7520  142.3120 C   0  0  0  0  0  0  0  0  0  0  0  0
  189.1280  175.9590  141.5920 O   0  0  0  0  0  0  0  0  0  0  0  0
  190.7120  178.3800  143.7250 C   0  0  0  0  0  0  0  0  0  0  0  0
  189.0330  178.4570  147.8120 C   0  0  0  0  0  3  0  0  0  0  0  0
  189.7940  176.4010  145.9420 C   0  0  0  0  0  2  0  0  0  0  0  0
  188.8880  177.5050  145.6100 N   0  0  0  0  0  0  0  0  0  0  0  0
  188.4240  178.4080  146.6280 C   0  0  0  0  0  3  0  0  0  0  0  0
  190.1950  177.5970  148.0770 C   0  0  0  0  0  3  0  0  0  0  0  0
  190.5750  176.6670  147.2010 C   0  0  0  0  0  3  0  0  0  0  0  0
  1 13  1  6  0  0  0
  1 24  1  0  0  0  0
  2  1  1  1  0  0  0
  2  5  1  0  0  0  0
  7  6  1  0  0  0  0
  7  9  1  0  0  0  0
  8 11  1  0  0  0  0
  8  2  1  0  0  0  0
  9  4  1  0  0  0  0
  9  3  2  0  0  0  0
 10  3  1  6  0  0  0
 10 12  1  0  0  0  0
 11  6  1  6  0  0  0
 11 10  1  0  0  0  0
 12  5  1  0  0  0  0
 13 21  1  0  0  0  0
 16 18  2  0  0  0  0
 17 13  1  0  0  0  0
 18 15  2  0  0  0  0
 18 21  1  0  0  0  0
 19 18  1  0  0  0  0
 19 13  1  0  0  0  0
 20 19  2  0  0  0  0
 21 14  2  0  0  0  0
 22 26  1  0  0  0  0
 23 27  1  0  0  0  0
 24 23  1  0  0  0  0
 24 25  1  0  0  0  0
 25 22  2  0  0  0  0
 27 26  2  0  0  0  0
M  END
>  <MODEL>
5

>  <REMARK>
 VINA RESULT:      -7.6      4.448      7.901
  Name = 
  3 active torsions:
  status: ('A' for Active; 'I' for Inactive)
    1  A    between atoms: C_1  and  C_15
    2  A    between atoms: C_2  and  C_15
    3  A    between atoms: N_11  and  C_15
                            x       y       z     vdW  Elec       q    Type
                         _______ _______ _______ _____ _____    ______ ____

>  <TORSDO>
F 3

$$$$
=
 OpenBabel10262420033D

 27 30  0  0  1  0  0  0  0  0999 V2000
  189.5540  177.0800  139.2210 C   0  0  1  0  0  3  0  0  0  0  0  0
  189.6620  177.5490  140.6820 C   0  0  2  0  0  3  0  0  0  0  0  0
  190.1910  177.6360  144.9800 C   0  0  0  0  0  3  0  0  0  0  0  0
  189.3310  178.1940  147.0670 F   0  0  0  0  0  0  0  0  0  0  0  0
  191.0370  177.2100  141.2620 C   0  0  0  0  0  2  0  0  0  0  0  0
  187.6030  177.0220  143.8950 C   0  0  0  0  0  2  0  0  0  0  0  0
  187.7090  177.6680  145.2810 C   0  0  0  0  0  2  0  0  0  0  0  0
  188.5360  177.0170  141.5750 C   0  0  0  0  0  2  0  0  0  0  0  0
  189.1290  177.7800  145.7890 C   0  0  0  0  0  0  0  0  0  0  0  0
  190.0480  177.1800  143.5540 C   0  0  1  0  0  3  0  0  0  0  0  0
  188.6850  177.5770  142.9830 C   0  0  2  0  0  3  0  0  0  0  0  0
  191.1680  177.7430  142.6880 C   0  0  0  0  0  2  0  0  0  0  0  0
  188.9320  178.0610  138.1940 C   0  0  0  0  0  0  0  0  0  0  0  0
  190.0070  177.4290  135.9570 O   0  0  0  0  0  0  0  0  0  0  0  0
  186.7990  176.2100  136.5360 O   0  0  0  0  0  0  0  0  0  0  0  0
  186.7590  178.6090  135.7900 O   0  0  0  0  0  0  0  0  0  0  0  0
  189.4430  179.3380  138.3610 F   0  0  0  0  0  0  0  0  0  0  0  0
  187.3650  177.5900  136.7130 S   0  0  0  0  0  0  0  0  0  0  0  0
  187.4260  178.1070  138.3660 C   0  0  0  0  0  0  0  0  0  0  0  0
  186.6290  178.3800  139.2480 O   0  0  0  0  0  0  0  0  0  0  0  0
  189.0970  177.6290  136.7450 C   0  0  0  0  0  0  0  0  0  0  0  0
  193.1390  176.5430  138.3130 C   0  0  0  0  0  3  0  0  0  0  0  0
  190.6850  175.0320  138.3200 C   0  0  0  0  0  2  0  0  0  0  0  0
  190.7780  176.4310  138.7480 N   0  0  0  0  0  0  0  0  0  0  0  0
  192.0550  177.0810  138.8710 C   0  0  0  0  0  3  0  0  0  0  0  0
  193.0300  175.2880  137.5550 C   0  0  0  0  0  3  0  0  0  0  0  0
  191.8880  174.6010  137.5240 C   0  0  0  0  0  3  0  0  0  0  0  0
  1 13  1  6  0  0  0
  2  1  1  6  0  0  0
  2  5  1  0  0  0  0
  2  8  1  0  0  0  0
  3  9  2  0  0  0  0
  5 12  1  0  0  0  0
  6  7  1  0  0  0  0
  7  9  1  0  0  0  0
  9  4  1  0  0  0  0
 10 12  1  6  0  0  0
 10  3  1  0  0  0  0
 11  8  1  6  0  0  0
 11 10  1  0  0  0  0
 11  6  1  0  0  0  0
 13 17  1  0  0  0  0
 13 19  1  0  0  0  0
 14 21  2  0  0  0  0
 15 18  2  0  0  0  0
 16 18  2  0  0  0  0
 18 21  1  0  0  0  0
 18 19  1  0  0  0  0
 19 20  2  0  0  0  0
 21 13  1  0  0  0  0
 22 25  2  0  0  0  0
 23 24  1  0  0  0  0
 24 25  1  0  0  0  0
 24  1  1  0  0  0  0
 26 22  1  0  0  0  0
 27 26  2  0  0  0  0
 27 23  1  0  0  0  0
M  END
>  <MODEL>
6

>  <REMARK>
 VINA RESULT:      -7.5      5.460      8.126
  Name = 
  3 active torsions:
  status: ('A' for Active; 'I' for Inactive)
    1  A    between atoms: C_1  and  C_15
    2  A    between atoms: C_2  and  C_15
    3  A    between atoms: N_11  and  C_15
                            x       y       z     vdW  Elec       q    Type
                         _______ _______ _______ _____ _____    ______ ____

>  <TORSDO>
F 3

$$$$
=
 OpenBabel10262420033D

 27 30  0  0  1  0  0  0  0  0999 V2000
  189.0000  178.2080  141.6280 C   0  0  1  0  0  3  0  0  0  0  0  0
  187.5380  178.0180  142.0640 C   0  0  2  0  0  3  0  0  0  0  0  0
  183.4020  178.7410  143.1300 C   0  0  0  0  0  3  0  0  0  0  0  0
  181.6980  178.5240  144.6960 F   0  0  0  0  0  0  0  0  0  0  0  0
  186.5780  178.5330  140.9880 C   0  0  0  0  0  2  0  0  0  0  0  0
  185.4380  179.0040  145.1390 C   0  0  0  0  0  2  0  0  0  0  0  0
  184.0110  178.6280  145.5530 C   0  0  0  0  0  2  0  0  0  0  0  0
  187.2260  178.6400  143.4290 C   0  0  0  0  0  2  0  0  0  0  0  0
  183.0160  178.6880  144.4150 C   0  0  0  0  0  0  0  0  0  0  0  0
  184.8430  178.9230  142.7400 C   0  0  1  0  0  3  0  0  0  0  0  0
  185.7780  178.3540  143.8090 C   0  0  2  0  0  3  0  0  0  0  0  0
  185.1270  178.2750  141.3910 C   0  0  0  0  0  2  0  0  0  0  0  0
  190.1050  177.6010  142.5310 C   0  0  0  0  0  0  0  0  0  0  0  0
  190.9770  179.5750  143.9090 O   0  0  0  0  0  0  0  0  0  0  0  0
  188.7090  177.4610  145.4900 O   0  0  0  0  0  0  0  0  0  0  0  0
  191.0300  176.4970  145.4850 O   0  0  0  0  0  0  0  0  0  0  0  0
  191.2360  177.3000  141.7890 F   0  0  0  0  0  0  0  0  0  0  0  0
  189.9370  177.1470  144.6840 S   0  0  0  0  0  0  0  0  0  0  0  0
  189.5970  176.3340  143.1920 C   0  0  0  0  0  0  0  0  0  0  0  0
  189.1590  175.2510  142.8430 O   0  0  0  0  0  0  0  0  0  0  0  0
  190.4880  178.4750  143.7160 C   0  0  0  0  0  0  0  0  0  0  0  0
  189.1010  178.7270  137.9290 C   0  0  0  0  0  3  0  0  0  0  0  0
  189.7270  176.6390  139.8140 C   0  0  0  0  0  2  0  0  0  0  0  0
  189.1980  177.9510  140.2010 N   0  0  0  0  0  0  0  0  0  0  0  0
  189.0550  179.0030  139.2310 C   0  0  0  0  0  3  0  0  0  0  0  0
  189.2830  177.3400  137.4760 C   0  0  0  0  0  3  0  0  0  0  0  0
  189.5380  176.3620  138.3460 C   0  0  0  0  0  3  0  0  0  0  0  0
  1 24  1  6  0  0  0
  1 13  1  0  0  0  0
  2  1  1  6  0  0  0
  2  8  1  0  0  0  0
  3  9  2  0  0  0  0
  5 12  1  0  0  0  0
  5  2  1  0  0  0  0
  6  7  1  0  0  0  0
  9  4  1  0  0  0  0
  9  7  1  0  0  0  0
 10 12  1  6  0  0  0
 10  3  1  0  0  0  0
 10 11  1  0  0  0  0
 11  8  1  6  0  0  0
 11  6  1  0  0  0  0
 13 19  1  0  0  0  0
 13 21  1  0  0  0  0
 17 13  1  0  0  0  0
 18 16  2  0  0  0  0
 18 15  2  0  0  0  0
 19 18  1  0  0  0  0
 20 19  2  0  0  0  0
 21 14  2  0  0  0  0
 21 18  1  0  0  0  0
 22 25  2  0  0  0  0
 23 24  1  0  0  0  0
 25 24  1  0  0  0  0
 26 22  1  0  0  0  0
 26 27  2  0  0  0  0
 27 23  1  0  0  0  0
M  END
>  <MODEL>
7

>  <REMARK>
 VINA RESULT:      -7.1      4.932      7.902
  Name = 
  3 active torsions:
  status: ('A' for Active; 'I' for Inactive)
    1  A    between atoms: C_1  and  C_15
    2  A    between atoms: C_2  and  C_15
    3  A    between atoms: N_11  and  C_15
                            x       y       z     vdW  Elec       q    Type
                         _______ _______ _______ _____ _____    ______ ____

>  <TORSDO>
F 3

$$$$
=
 OpenBabel10262420033D

 27 30  0  0  1  0  0  0  0  0999 V2000
  181.9330  178.4810  139.6980 C   0  0  1  0  0  3  0  0  0  0  0  0
  182.3650  178.2900  141.1620 C   0  0  2  0  0  3  0  0  0  0  0  0
  183.7680  179.0020  145.1970 C   0  0  0  0  0  3  0  0  0  0  0  0
  185.2890  178.4930  146.8800 F   0  0  0  0  0  0  0  0  0  0  0  0
  181.5120  179.1500  142.0980 C   0  0  0  0  0  2  0  0  0  0  0  0
  185.6820  178.5510  143.1040 C   0  0  0  0  0  2  0  0  0  0  0  0
  186.0400  178.1840  144.5480 C   0  0  0  0  0  2  0  0  0  0  0  0
  183.8600  178.5350  141.3910 C   0  0  0  0  0  2  0  0  0  0  0  0
  185.0060  178.6280  145.5590 C   0  0  0  0  0  0  0  0  0  0  0  0
  183.3780  179.1750  143.7560 C   0  0  1  0  0  3  0  0  0  0  0  0
  184.2110  178.2660  142.8480 C   0  0  2  0  0  3  0  0  0  0  0  0
  181.8930  178.9020  143.5560 C   0  0  0  0  0  2  0  0  0  0  0  0
  181.1080  177.3460  139.0370 C   0  0  0  0  0  0  0  0  0  0  0  0
  179.8490  178.4890  137.1220 O   0  0  0  0  0  0  0  0  0  0  0  0
  182.7200  176.7240  136.2560 O   0  0  0  0  0  0  0  0  0  0  0  0
  180.7530  175.1940  136.5790 O   0  0  0  0  0  0  0  0  0  0  0  0
  180.0450  176.9760  139.8450 F   0  0  0  0  0  0  0  0  0  0  0  0
  181.5620  176.3350  137.1300 S   0  0  0  0  0  0  0  0  0  0  0  0
  181.9890  176.1360  138.7970 C   0  0  0  0  0  0  0  0  0  0  0  0
  182.6740  175.3760  139.4610 O   0  0  0  0  0  0  0  0  0  0  0  0
  180.5990  177.6800  137.6430 C   0  0  0  0  0  0  0  0  0  0  0  0
  179.6240  181.4190  139.6730 C   0  0  0  0  0  3  0  0  0  0  0  0
  182.2650  180.7660  138.7220 C   0  0  0  0  0  2  0  0  0  0  0  0
  181.4040  179.8200  139.4400 N   0  0  0  0  0  0  0  0  0  0  0  0
  180.1630  180.2530  140.0250 C   0  0  0  0  0  3  0  0  0  0  0  0
  180.2890  182.2630  138.6700 C   0  0  0  0  0  3  0  0  0  0  0  0
  181.4960  181.9490  138.1990 C   0  0  0  0  0  3  0  0  0  0  0  0
  1 13  1  1  0  0  0
  2  1  1  6  0  0  0
  2  8  1  0  0  0  0
  2  5  1  0  0  0  0
  3  9  2  0  0  0  0
  5 12  1  0  0  0  0
  6  7  1  0  0  0  0
  7  9  1  0  0  0  0
  9  4  1  0  0  0  0
 10 12  1  1  0  0  0
 10  3  1  0  0  0  0
 11  8  1  6  0  0  0
 11  6  1  0  0  0  0
 11 10  1  0  0  0  0
 13 17  1  0  0  0  0
 14 21  2  0  0  0  0
 15 18  2  0  0  0  0
 16 18  2  0  0  0  0
 18 21  1  0  0  0  0
 18 19  1  0  0  0  0
 19 13  1  0  0  0  0
 19 20  2  0  0  0  0
 21 13  1  0  0  0  0
 22 25  2  0  0  0  0
 23 24  1  0  0  0  0
 24  1  1  0  0  0  0
 24 25  1  0  0  0  0
 26 22  1  0  0  0  0
 27 26  2  0  0  0  0
 27 23  1  0  0  0  0
M  END
>  <MODEL>
8

>  <REMARK>
 VINA RESULT:      -7.1      2.469      3.769
  Name = 
  3 active torsions:
  status: ('A' for Active; 'I' for Inactive)
    1  A    between atoms: C_1  and  C_15
    2  A    between atoms: C_2  and  C_15
    3  A    between atoms: N_11  and  C_15
                            x       y       z     vdW  Elec       q    Type
                         _______ _______ _______ _____ _____    ______ ____

>  <TORSDO>
F 3

$$$$
=
 OpenBabel10262420033D

 27 30  0  0  1  0  0  0  0  0999 V2000
  187.0920  177.8920  140.8710 C   0  0  1  0  0  3  0  0  0  0  0  0
  188.1920  177.9120  141.9450 C   0  0  2  0  0  3  0  0  0  0  0  0
  191.0650  176.7200  144.9600 C   0  0  0  0  0  3  0  0  0  0  0  0
  191.8670  176.9570  147.1290 F   0  0  0  0  0  0  0  0  0  0  0  0
  189.3730  177.0290  141.5310 C   0  0  0  0  0  2  0  0  0  0  0  0
  188.3460  177.2320  145.7330 C   0  0  0  0  0  2  0  0  0  0  0  0
  189.4730  177.4340  146.7520 C   0  0  0  0  0  2  0  0  0  0  0  0
  187.6850  177.5400  143.3410 C   0  0  0  0  0  2  0  0  0  0  0  0
  190.8260  176.9700  146.2580 C   0  0  0  0  0  0  0  0  0  0  0  0
  189.9640  176.7140  143.9360 C   0  0  1  0  0  3  0  0  0  0  0  0
  188.8220  177.6440  144.3500 C   0  0  2  0  0  3  0  0  0  0  0  0
  190.4950  177.1100  142.5640 C   0  0  0  0  0  2  0  0  0  0  0  0
  185.8560  178.8030  141.0890 C   0  0  0  0  0  0  0  0  0  0  0  0
  185.1470  179.5140  138.7330 O   0  0  0  0  0  0  0  0  0  0  0  0
  183.3290  176.9270  140.1860 O   0  0  0  0  0  0  0  0  0  0  0  0
  182.5910  179.1730  141.0390 O   0  0  0  0  0  0  0  0  0  0  0  0
  186.2350  180.0290  141.6130 F   0  0  0  0  0  0  0  0  0  0  0  0
  183.7460  178.2580  140.7430 S   0  0  0  0  0  0  0  0  0  0  0  0
  184.8830  178.1390  142.0440 C   0  0  0  0  0  0  0  0  0  0  0  0
  184.8920  177.7200  143.1890 O   0  0  0  0  0  0  0  0  0  0  0  0
  185.0150  179.0190  139.8400 C   0  0  0  0  0  0  0  0  0  0  0  0
  189.0910  178.9910  137.9120 C   0  0  0  0  0  3  0  0  0  0  0  0
  187.1780  176.9350  138.5560 C   0  0  0  0  0  2  0  0  0  0  0  0
  187.6320  177.9490  139.5120 N   0  0  0  0  0  0  0  0  0  0  0  0
  188.7030  178.8490  139.1780 C   0  0  0  0  0  3  0  0  0  0  0  0
  188.4130  178.2390  136.8460 C   0  0  0  0  0  3  0  0  0  0  0  0
  187.5010  177.3100  137.1340 C   0  0  0  0  0  3  0  0  0  0  0  0
  1 24  1  6  0  0  0
  1 13  1  0  0  0  0
  2  1  1  6  0  0  0
  2  8  1  0  0  0  0
  3  9  2  0  0  0  0
  5  2  1  0  0  0  0
  5 12  1  0  0  0  0
  6  7  1  0  0  0  0
  9  7  1  0  0  0  0
  9  4  1  0  0  0  0
 10 12  1  6  0  0  0
 10 11  1  0  0  0  0
 10  3  1  0  0  0  0
 11  8  1  6  0  0  0
 11  6  1  0  0  0  0
 13 17  1  0  0  0  0
 13 19  1  0  0  0  0
 14 21  2  0  0  0  0
 15 18  2  0  0  0  0
 18 16  2  0  0  0  0
 18 19  1  0  0  0  0
 19 20  2  0  0  0  0
 21 18  1  0  0  0  0
 21 13  1  0  0  0  0
 22 25  2  0  0  0  0
 23 24  1  0  0  0  0
 25 24  1  0  0  0  0
 26 27  2  0  0  0  0
 26 22  1  0  0  0  0
 27 23  1  0  0  0  0
M  END
>  <MODEL>
9

>  <REMARK>
 VINA RESULT:      -7.0      3.492      5.850
  Name = 
  3 active torsions:
  status: ('A' for Active; 'I' for Inactive)
    1  A    between atoms: C_1  and  C_15
    2  A    between atoms: C_2  and  C_15
    3  A    between atoms: N_11  and  C_15
                            x       y       z     vdW  Elec       q    Type
                         _______ _______ _______ _____ _____    ______ ____

>  <TORSDO>
F 3

$$$$
