=
 OpenBabel10262420053D

 27 31  0  0  1  0  0  0  0  0999 V2000
  190.2230  178.6730  143.3210 C   0  0  0  0  0  2  0  0  0  0  0  0
  188.1560  178.1520  142.0480 C   0  0  0  0  0  0  0  0  0  0  0  0
  187.6110  177.8620  144.4990 N   0  0  0  0  0  2  0  0  0  0  0  0
  183.8400  178.9400  141.4630 S   0  0  0  0  0  0  0  0  0  0  0  0
  182.2860  178.9700  143.8100 C   0  0  0  0  0  1  0  0  0  0  0  0
  187.6680  178.3510  140.7400 C   0  0  0  0  0  3  0  0  0  0  0  0
  184.8180  178.5510  143.7590 C   0  0  0  0  0  0  0  0  0  0  0  0
  190.0090  176.4550  146.9710 C   0  0  0  0  0  3  0  0  0  0  0  0
  184.9380  178.3970  145.1710 N   0  0  0  0  0  1  0  0  0  0  0  0
  191.2440  176.8000  146.4210 C   0  0  0  0  0  0  0  0  0  0  0  0
  185.8960  178.4620  142.8600 C   0  0  0  0  0  0  0  0  0  0  0  0
  189.5660  177.9660  142.2420 N   0  0  0  0  0  0  0  0  0  0  0  0
  183.6020  178.8170  143.1310 C   0  0  0  0  0  0  0  0  0  0  0  0
  185.4920  178.6580  141.5490 C   0  0  0  0  0  0  0  0  0  0  0  0
  190.1160  177.8750  144.5640 C   0  0  0  0  0  0  0  0  0  0  0  0
  187.2490  178.1930  143.1440 C   0  0  0  0  0  0  0  0  0  0  0  0
  188.8290  176.8150  146.3160 C   0  0  0  0  0  3  0  0  0  0  0  0
  186.3510  178.5970  140.5060 N   0  0  0  0  0  0  0  0  0  0  0  0
  192.3900  176.4520  147.0530 F   0  0  0  0  0  0  0  0  0  0  0  0
  191.2950  177.5150  145.2230 C   0  0  0  0  0  3  0  0  0  0  0  0
  188.8670  177.5120  145.1020 C   0  0  0  0  0  0  0  0  0  0  0  0
  192.0680  176.5930  139.1650 C   0  0  0  0  0  3  0  0  0  0  0  0
  190.3880  177.1410  141.3590 C   0  0  1  0  0  3  0  0  0  0  0  0
  189.7760  177.0450  139.9540 C   0  0  0  0  0  2  0  0  0  0  0  0
  190.7550  176.4090  139.0070 C   0  0  0  0  0  3  0  0  0  0  0  0
  192.5630  177.3550  140.3250 C   0  0  0  0  0  3  0  0  0  0  0  0
  191.7680  177.6370  141.3150 N   0  0  0  0  0  0  0  0  0  0  0  0
  1 15  1  0  0  0  0
  2 12  1  0  0  0  0
  2 16  1  0  0  0  0
  3 21  1  0  0  0  0
  4 14  1  0  0  0  0
  4 13  1  0  0  0  0
  6  2  2  0  0  0  0
  7  9  1  0  0  0  0
 10  8  1  0  0  0  0
 10 19  1  0  0  0  0
 11 16  2  0  0  0  0
 11  7  1  0  0  0  0
 12  1  1  0  0  0  0
 13  7  2  0  0  0  0
 13  5  1  0  0  0  0
 14 11  1  0  0  0  0
 15 21  2  0  0  0  0
 15 20  1  0  0  0  0
 16  3  1  0  0  0  0
 17  8  2  0  0  0  0
 18  6  1  0  0  0  0
 18 14  2  0  0  0  0
 20 10  2  0  0  0  0
 21 17  1  0  0  0  0
 22 26  1  0  0  0  0
 23 24  1  6  0  0  0
 23 12  1  0  0  0  0
 25 22  2  0  0  0  0
 25 24  1  0  0  0  0
 26 27  2  0  0  0  0
 27 23  1  0  0  0  0
M  END
>  <MODEL>
1

>  <REMARK>
 VINA RESULT:      -9.8      0.000      0.000
  Name = 
  1 active torsions:
  status: ('A' for Active; 'I' for Inactive)
    1  A    between atoms: C_9  and  N_15
                            x       y       z     vdW  Elec       q    Type
                         _______ _______ _______ _____ _____    ______ ____

>  <TORSDO>
F 1

$$$$
=
 OpenBabel10262420053D

 27 31  0  0  1  0  0  0  0  0999 V2000
  187.8120  176.5030  143.9260 C   0  0  0  0  0  2  0  0  0  0  0  0
  185.8850  178.0060  144.3600 C   0  0  0  0  0  0  0  0  0  0  0  0
  186.3710  178.1220  141.8830 N   0  0  0  0  0  2  0  0  0  0  0  0
  181.7360  179.1440  143.3180 S   0  0  0  0  0  0  0  0  0  0  0  0
  181.2050  179.3980  140.5660 C   0  0  0  0  0  1  0  0  0  0  0  0
  184.9530  178.2220  145.3970 C   0  0  0  0  0  3  0  0  0  0  0  0
  183.4890  178.7510  141.5430 C   0  0  0  0  0  0  0  0  0  0  0  0
  189.8140  178.0400  140.4730 C   0  0  0  0  0  3  0  0  0  0  0  0
  184.1270  178.6280  140.2740 N   0  0  0  0  0  1  0  0  0  0  0  0
  190.5130  177.3080  141.4330 C   0  0  0  0  0  0  0  0  0  0  0  0
  184.1290  178.5260  142.7750 C   0  0  0  0  0  0  0  0  0  0  0  0
  187.2100  177.5700  144.6960 N   0  0  0  0  0  0  0  0  0  0  0  0
  182.1460  179.1010  141.6800 C   0  0  0  0  0  0  0  0  0  0  0  0
  183.2700  178.7120  143.8450 C   0  0  0  0  0  0  0  0  0  0  0  0
  188.4830  177.0780  142.7380 C   0  0  0  0  0  0  0  0  0  0  0  0
  185.4730  178.1740  143.0080 C   0  0  0  0  0  0  0  0  0  0  0  0
  188.4510  178.2960  140.6470 C   0  0  0  0  0  3  0  0  0  0  0  0
  183.6670  178.5730  145.1300 N   0  0  0  0  0  0  0  0  0  0  0  0
  191.8340  177.0590  141.2670 F   0  0  0  0  0  0  0  0  0  0  0  0
  189.8460  176.8230  142.5590 C   0  0  0  0  0  3  0  0  0  0  0  0
  187.7750  177.8340  141.7840 C   0  0  0  0  0  0  0  0  0  0  0  0
  189.2810  178.0450  148.3160 C   0  0  0  0  0  3  0  0  0  0  0  0
  187.9610  178.1100  145.8280 C   0  0  1  0  0  3  0  0  0  0  0  0
  187.1270  178.0850  147.1160 C   0  0  0  0  0  2  0  0  0  0  0  0
  187.9960  178.4070  148.3000 C   0  0  0  0  0  3  0  0  0  0  0  0
  189.8720  177.4020  147.1290 C   0  0  0  0  0  3  0  0  0  0  0  0
  189.2360  177.4030  145.9950 N   0  0  0  0  0  0  0  0  0  0  0  0
  1 12  1  0  0  0  0
  2 12  1  0  0  0  0
  2  6  1  0  0  0  0
  3 16  1  0  0  0  0
  4 14  1  0  0  0  0
  5 13  1  0  0  0  0
  7 13  2  0  0  0  0
  7 11  1  0  0  0  0
  8 17  2  0  0  0  0
  8 10  1  0  0  0  0
  9  7  1  0  0  0  0
 10 20  2  0  0  0  0
 11 16  1  0  0  0  0
 11 14  2  0  0  0  0
 13  4  1  0  0  0  0
 14 18  1  0  0  0  0
 15  1  1  0  0  0  0
 16  2  2  0  0  0  0
 17 21  1  0  0  0  0
 18  6  2  0  0  0  0
 19 10  1  0  0  0  0
 20 15  1  0  0  0  0
 21  3  1  0  0  0  0
 21 15  2  0  0  0  0
 23 12  1  6  0  0  0
 23 27  1  0  0  0  0
 23 24  1  0  0  0  0
 24 25  1  0  0  0  0
 25 22  2  0  0  0  0
 26 22  1  0  0  0  0
 27 26  2  0  0  0  0
M  END
>  <MODEL>
2

>  <REMARK>
 VINA RESULT:      -9.7      2.247      5.087
  Name = 
  1 active torsions:
  status: ('A' for Active; 'I' for Inactive)
    1  A    between atoms: C_9  and  N_15
                            x       y       z     vdW  Elec       q    Type
                         _______ _______ _______ _____ _____    ______ ____

>  <TORSDO>
F 1

$$$$
=
 OpenBabel10262420053D

 27 31  0  0  1  0  0  0  0  0999 V2000
  186.8040  176.6690  144.5220 C   0  0  0  0  0  2  0  0  0  0  0  0
  187.6060  177.7800  142.4520 C   0  0  0  0  0  0  0  0  0  0  0  0
  189.6070  177.5090  143.9710 N   0  0  0  0  0  2  0  0  0  0  0  0
  190.4960  177.7770  139.1000 S   0  0  0  0  0  0  0  0  0  0  0  0
  193.1850  177.3670  139.8200 C   0  0  0  0  0  1  0  0  0  0  0  0
  187.1330  177.9910  141.1400 C   0  0  0  0  0  3  0  0  0  0  0  0
  191.2360  177.4280  141.4890 C   0  0  0  0  0  0  0  0  0  0  0  0
  189.4310  177.8900  147.6680 C   0  0  0  0  0  3  0  0  0  0  0  0
  192.0550  177.1980  142.6330 N   0  0  0  0  0  1  0  0  0  0  0  0
  188.1120  177.5280  147.9440 C   0  0  0  0  0  0  0  0  0  0  0  0
  189.8400  177.5920  141.5370 C   0  0  0  0  0  0  0  0  0  0  0  0
  186.6600  177.7120  143.5290 N   0  0  0  0  0  0  0  0  0  0  0  0
  191.7520  177.5030  140.1960 C   0  0  0  0  0  0  0  0  0  0  0  0
  189.3010  177.7950  140.2770 C   0  0  0  0  0  0  0  0  0  0  0  0
  187.7270  177.1300  145.5840 C   0  0  0  0  0  0  0  0  0  0  0  0
  189.0000  177.5880  142.6670 C   0  0  0  0  0  0  0  0  0  0  0  0
  189.8960  177.8780  146.3510 C   0  0  0  0  0  3  0  0  0  0  0  0
  187.9790  178.0000  140.0760 N   0  0  0  0  0  0  0  0  0  0  0  0
  187.6570  177.5400  149.2200 F   0  0  0  0  0  0  0  0  0  0  0  0
  187.2650  177.1430  146.9030 C   0  0  0  0  0  3  0  0  0  0  0  0
  189.0500  177.5150  145.2950 C   0  0  0  0  0  0  0  0  0  0  0  0
  182.8450  179.3380  144.1730 C   0  0  0  0  0  3  0  0  0  0  0  0
  185.5130  178.6120  143.6370 C   0  0  1  0  0  3  0  0  0  0  0  0
  184.4220  178.2530  142.6200 C   0  0  0  0  0  2  0  0  0  0  0  0
  183.1650  179.0230  142.9170 C   0  0  0  0  0  3  0  0  0  0  0  0
  183.7720  179.0030  145.2690 C   0  0  0  0  0  3  0  0  0  0  0  0
  184.9900  178.6300  145.0080 N   0  0  0  0  0  0  0  0  0  0  0  0
  1 15  1  0  0  0  0
  2 16  1  0  0  0  0
  2 12  1  0  0  0  0
  3 21  1  0  0  0  0
  4 13  1  0  0  0  0
  4 14  1  0  0  0  0
  5 13  1  0  0  0  0
  6  2  2  0  0  0  0
  7 11  1  0  0  0  0
  7  9  1  0  0  0  0
  8 10  1  0  0  0  0
 10 19  1  0  0  0  0
 11 16  2  0  0  0  0
 12 23  1  0  0  0  0
 12  1  1  0  0  0  0
 13  7  2  0  0  0  0
 14 11  1  0  0  0  0
 15 20  1  0  0  0  0
 16  3  1  0  0  0  0
 17  8  2  0  0  0  0
 18 14  2  0  0  0  0
 18  6  1  0  0  0  0
 20 10  2  0  0  0  0
 21 15  2  0  0  0  0
 21 17  1  0  0  0  0
 22 26  1  0  0  0  0
 23 24  1  6  0  0  0
 23 27  1  0  0  0  0
 24 25  1  0  0  0  0
 25 22  2  0  0  0  0
 27 26  2  0  0  0  0
M  END
>  <MODEL>
3

>  <REMARK>
 VINA RESULT:      -9.6      2.109      5.930
  Name = 
  1 active torsions:
  status: ('A' for Active; 'I' for Inactive)
    1  A    between atoms: C_9  and  N_15
                            x       y       z     vdW  Elec       q    Type
                         _______ _______ _______ _____ _____    ______ ____

>  <TORSDO>
F 1

$$$$
=
 OpenBabel10262420053D

 27 31  0  0  1  0  0  0  0  0999 V2000
  187.6810  179.2010  141.5790 C   0  0  0  0  0  2  0  0  0  0  0  0
  187.4480  178.0150  143.7470 C   0  0  0  0  0  0  0  0  0  0  0  0
  189.6380  177.2710  142.7270 N   0  0  0  0  0  2  0  0  0  0  0  0
  189.2520  177.0200  147.6650 S   0  0  0  0  0  0  0  0  0  0  0  0
  191.9310  176.1640  147.5820 C   0  0  0  0  0  1  0  0  0  0  0  0
  186.6620  178.1330  144.9130 C   0  0  0  0  0  3  0  0  0  0  0  0
  190.5620  176.8270  145.5150 C   0  0  0  0  0  0  0  0  0  0  0  0
  190.1060  176.7200  139.0770 C   0  0  0  0  0  3  0  0  0  0  0  0
  191.6220  176.5890  144.5920 N   0  0  0  0  0  1  0  0  0  0  0  0
  189.1750  177.5970  138.5200 C   0  0  0  0  0  0  0  0  0  0  0  0
  189.2830  177.2840  145.1480 C   0  0  0  0  0  0  0  0  0  0  0  0
  186.8840  178.4040  142.4870 N   0  0  0  0  0  0  0  0  0  0  0  0
  190.7020  176.6360  146.8880 C   0  0  0  0  0  0  0  0  0  0  0  0
  188.4540  177.4330  146.2480 C   0  0  0  0  0  0  0  0  0  0  0  0
  188.5100  178.3040  140.7420 C   0  0  0  0  0  0  0  0  0  0  0  0
  188.7940  177.5650  143.8580 C   0  0  0  0  0  0  0  0  0  0  0  0
  190.2360  176.6310  140.4660 C   0  0  0  0  0  3  0  0  0  0  0  0
  187.1690  177.8390  146.1400 N   0  0  0  0  0  0  0  0  0  0  0  0
  189.0470  177.6850  137.1750 F   0  0  0  0  0  0  0  0  0  0  0  0
  188.3840  178.3910  139.3520 C   0  0  0  0  0  3  0  0  0  0  0  0
  189.4330  177.4060  141.3120 C   0  0  0  0  0  0  0  0  0  0  0  0
  182.8870  178.6230  141.2250 C   0  0  0  0  0  3  0  0  0  0  0  0
  185.5110  178.0870  142.0990 C   0  0  1  0  0  3  0  0  0  0  0  0
  184.4990  178.6780  143.0890 C   0  0  0  0  0  2  0  0  0  0  0  0
  183.1050  178.5550  142.5400 C   0  0  0  0  0  3  0  0  0  0  0  0
  184.0300  178.7350  140.3010 C   0  0  0  0  0  3  0  0  0  0  0  0
  185.2410  178.5240  140.7250 N   0  0  0  0  0  0  0  0  0  0  0  0
  1 12  1  0  0  0  0
  2 16  2  0  0  0  0
  2  6  1  0  0  0  0
  3 16  1  0  0  0  0
  6 18  2  0  0  0  0
  7 13  2  0  0  0  0
  8 17  1  0  0  0  0
  9  7  1  0  0  0  0
 10  8  2  0  0  0  0
 10 20  1  0  0  0  0
 11  7  1  0  0  0  0
 11 14  2  0  0  0  0
 12  2  1  0  0  0  0
 13  5  1  0  0  0  0
 13  4  1  0  0  0  0
 14  4  1  0  0  0  0
 15 21  1  0  0  0  0
 15  1  1  0  0  0  0
 16 11  1  0  0  0  0
 17 21  2  0  0  0  0
 18 14  1  0  0  0  0
 19 10  1  0  0  0  0
 20 15  2  0  0  0  0
 21  3  1  0  0  0  0
 22 25  2  0  0  0  0
 23 12  1  1  0  0  0
 23 24  1  0  0  0  0
 25 24  1  0  0  0  0
 26 27  2  0  0  0  0
 26 22  1  0  0  0  0
 27 23  1  0  0  0  0
M  END
>  <MODEL>
4

>  <REMARK>
 VINA RESULT:      -9.3      2.930      6.613
  Name = 
  1 active torsions:
  status: ('A' for Active; 'I' for Inactive)
    1  A    between atoms: C_9  and  N_15
                            x       y       z     vdW  Elec       q    Type
                         _______ _______ _______ _____ _____    ______ ____

>  <TORSDO>
F 1

$$$$
=
 OpenBabel10262420053D

 27 31  0  0  1  0  0  0  0  0999 V2000
  190.1170  178.7220  144.5610 C   0  0  0  0  0  2  0  0  0  0  0  0
  190.5170  177.6530  142.3560 C   0  0  0  0  0  0  0  0  0  0  0  0
  188.0160  177.9190  142.6090 N   0  0  0  0  0  2  0  0  0  0  0  0
  189.8090  177.7400  137.9880 S   0  0  0  0  0  0  0  0  0  0  0  0
  187.1400  178.1650  137.2030 C   0  0  0  0  0  1  0  0  0  0  0  0
  191.6070  177.4590  141.4820 C   0  0  0  0  0  3  0  0  0  0  0  0
  187.9280  178.0570  139.6430 C   0  0  0  0  0  0  0  0  0  0  0  0
  186.2330  177.4750  145.8440 C   0  0  0  0  0  3  0  0  0  0  0  0
  186.6310  178.2760  140.1930 N   0  0  0  0  0  1  0  0  0  0  0  0
  187.2120  177.8200  146.7760 C   0  0  0  0  0  0  0  0  0  0  0  0
  189.0920  177.8790  140.4110 C   0  0  0  0  0  0  0  0  0  0  0  0
  190.7590  177.6940  143.7700 N   0  0  0  0  0  0  0  0  0  0  0  0
  188.1650  178.0090  138.2700 C   0  0  0  0  0  0  0  0  0  0  0  0
  190.2110  177.6910  139.6170 C   0  0  0  0  0  0  0  0  0  0  0  0
  188.7750  178.2530  144.9740 C   0  0  0  0  0  0  0  0  0  0  0  0
  189.2170  177.8560  141.8140 C   0  0  0  0  0  0  0  0  0  0  0  0
  186.5250  177.5140  144.4780 C   0  0  0  0  0  3  0  0  0  0  0  0
  191.4430  177.4770  140.1320 N   0  0  0  0  0  0  0  0  0  0  0  0
  186.9320  177.7830  148.1000 F   0  0  0  0  0  0  0  0  0  0  0  0
  188.4780  178.2140  146.3390 C   0  0  0  0  0  3  0  0  0  0  0  0
  187.7980  177.8860  144.0280 C   0  0  0  0  0  0  0  0  0  0  0  0
  192.4380  174.5030  145.9180 C   0  0  0  0  0  3  0  0  0  0  0  0
  191.6800  176.7810  144.4450 C   0  0  1  0  0  3  0  0  0  0  0  0
  191.4300  176.7520  145.9590 C   0  0  0  0  0  2  0  0  0  0  0  0
  192.2110  175.6330  146.5900 C   0  0  0  0  0  3  0  0  0  0  0  0
  191.9940  174.3850  144.5170 C   0  0  0  0  0  3  0  0  0  0  0  0
  191.6080  175.4380  143.8590 N   0  0  0  0  0  0  0  0  0  0  0  0
  1 15  1  0  0  0  0
  2 12  1  0  0  0  0
  3 21  1  0  0  0  0
  4 13  1  0  0  0  0
  4 14  1  0  0  0  0
  5 13  1  0  0  0  0
  6  2  2  0  0  0  0
  7  9  1  0  0  0  0
  7 11  1  0  0  0  0
  8 10  1  0  0  0  0
 10 19  1  0  0  0  0
 11 16  2  0  0  0  0
 12  1  1  0  0  0  0
 13  7  2  0  0  0  0
 14 18  2  0  0  0  0
 14 11  1  0  0  0  0
 15 20  1  0  0  0  0
 16  2  1  0  0  0  0
 16  3  1  0  0  0  0
 17  8  2  0  0  0  0
 18  6  1  0  0  0  0
 20 10  2  0  0  0  0
 21 17  1  0  0  0  0
 21 15  2  0  0  0  0
 22 25  2  0  0  0  0
 23 12  1  6  0  0  0
 23 24  1  0  0  0  0
 24 25  1  0  0  0  0
 26 22  1  0  0  0  0
 27 23  1  0  0  0  0
 27 26  2  0  0  0  0
M  END
>  <MODEL>
5

>  <REMARK>
 VINA RESULT:      -9.1      2.595      4.768
  Name = 
  1 active torsions:
  status: ('A' for Active; 'I' for Inactive)
    1  A    between atoms: C_9  and  N_15
                            x       y       z     vdW  Elec       q    Type
                         _______ _______ _______ _____ _____    ______ ____

>  <TORSDO>
F 1

$$$$
=
 OpenBabel10262420053D

 27 31  0  0  1  0  0  0  0  0999 V2000
  187.6360  176.6570  143.6920 C   0  0  0  0  0  2  0  0  0  0  0  0
  186.9020  178.0300  141.7590 C   0  0  0  0  0  0  0  0  0  0  0  0
  189.4100  177.7750  141.5780 N   0  0  0  0  0  2  0  0  0  0  0  0
  186.9190  178.5960  137.3690 S   0  0  0  0  0  0  0  0  0  0  0  0
  189.4310  178.3390  136.1250 C   0  0  0  0  0  1  0  0  0  0  0  0
  185.6900  178.3300  141.1020 C   0  0  0  0  0  3  0  0  0  0  0  0
  189.0340  178.0740  138.6470 C   0  0  0  0  0  0  0  0  0  0  0  0
  191.6790  177.7730  144.5260 C   0  0  0  0  0  3  0  0  0  0  0  0
  190.4000  177.8000  138.9510 N   0  0  0  0  0  1  0  0  0  0  0  0
  190.8560  177.2780  145.5380 C   0  0  0  0  0  0  0  0  0  0  0  0
  188.0050  178.1170  139.6040 C   0  0  0  0  0  0  0  0  0  0  0  0
  186.8830  177.7780  143.1710 N   0  0  0  0  0  0  0  0  0  0  0  0
  188.5860  178.3190  137.3500 C   0  0  0  0  0  0  0  0  0  0  0  0
  186.7760  178.3990  139.0290 C   0  0  0  0  0  0  0  0  0  0  0  0
  189.0290  177.0850  143.9570 C   0  0  0  0  0  0  0  0  0  0  0  0
  188.1010  177.9330  140.9970 C   0  0  0  0  0  0  0  0  0  0  0  0
  191.1770  177.9290  143.2320 C   0  0  0  0  0  3  0  0  0  0  0  0
  185.6420  178.5130  139.7560 N   0  0  0  0  0  0  0  0  0  0  0  0
  191.3400  177.1260  146.7940 F   0  0  0  0  0  0  0  0  0  0  0  0
  189.5350  176.9290  145.2500 C   0  0  0  0  0  3  0  0  0  0  0  0
  189.8470  177.6040  142.9350 C   0  0  0  0  0  0  0  0  0  0  0  0
  184.2660  179.0030  146.2150 C   0  0  0  0  0  3  0  0  0  0  0  0
  186.0840  178.5650  144.1080 C   0  0  1  0  0  3  0  0  0  0  0  0
  184.5810  178.3870  143.8490 C   0  0  0  0  0  2  0  0  0  0  0  0
  183.7880  178.9990  144.9690 C   0  0  0  0  0  3  0  0  0  0  0  0
  185.6180  178.4790  146.4790 C   0  0  0  0  0  3  0  0  0  0  0  0
  186.4360  178.2430  145.4950 N   0  0  0  0  0  0  0  0  0  0  0  0
  1 15  1  0  0  0  0
  2 12  1  0  0  0  0
  3 21  1  0  0  0  0
  4 14  1  0  0  0  0
  5 13  1  0  0  0  0
  6  2  1  0  0  0  0
  7  9  1  0  0  0  0
  7 11  1  0  0  0  0
  8 10  1  0  0  0  0
 10 19  1  0  0  0  0
 11 16  1  0  0  0  0
 12  1  1  0  0  0  0
 13  4  1  0  0  0  0
 13  7  2  0  0  0  0
 14 11  2  0  0  0  0
 14 18  1  0  0  0  0
 15 20  1  0  0  0  0
 16  3  1  0  0  0  0
 16  2  2  0  0  0  0
 17  8  2  0  0  0  0
 18  6  2  0  0  0  0
 20 10  2  0  0  0  0
 21 17  1  0  0  0  0
 21 15  2  0  0  0  0
 22 26  1  0  0  0  0
 23 12  1  6  0  0  0
 23 27  1  0  0  0  0
 24 23  1  0  0  0  0
 24 25  1  0  0  0  0
 25 22  2  0  0  0  0
 27 26  2  0  0  0  0
M  END
>  <MODEL>
6

>  <REMARK>
 VINA RESULT:      -9.0      1.966      5.539
  Name = 
  1 active torsions:
  status: ('A' for Active; 'I' for Inactive)
    1  A    between atoms: C_9  and  N_15
                            x       y       z     vdW  Elec       q    Type
                         _______ _______ _______ _____ _____    ______ ____

>  <TORSDO>
F 1

$$$$
=
 OpenBabel10262420053D

 27 31  0  0  1  0  0  0  0  0999 V2000
  188.6790  179.1140  141.6060 C   0  0  0  0  0  2  0  0  0  0  0  0
  186.4320  178.4400  140.7930 C   0  0  0  0  0  0  0  0  0  0  0  0
  186.4340  178.1380  143.3020 N   0  0  0  0  0  2  0  0  0  0  0  0
  182.0450  178.9260  141.1320 S   0  0  0  0  0  0  0  0  0  0  0  0
  181.0200  178.8730  143.7520 C   0  0  0  0  0  1  0  0  0  0  0  0
  185.6680  178.5930  139.6180 C   0  0  0  0  0  3  0  0  0  0  0  0
  183.5080  178.6270  143.1690 C   0  0  0  0  0  0  0  0  0  0  0  0
  189.3890  176.9230  145.2090 C   0  0  0  0  0  3  0  0  0  0  0  0
  183.9320  178.4960  144.5240 N   0  0  0  0  0  1  0  0  0  0  0  0
  190.4540  177.3460  144.4130 C   0  0  0  0  0  0  0  0  0  0  0  0
  184.3770  178.6030  142.0630 C   0  0  0  0  0  0  0  0  0  0  0  0
  187.8600  178.3530  140.6860 N   0  0  0  0  0  0  0  0  0  0  0  0
  182.1720  178.8030  142.8120 C   0  0  0  0  0  0  0  0  0  0  0  0
  183.6940  178.7580  140.8670 C   0  0  0  0  0  0  0  0  0  0  0  0
  188.8900  178.3230  142.8400 C   0  0  0  0  0  0  0  0  0  0  0  0
  185.7740  178.4300  142.0550 C   0  0  0  0  0  0  0  0  0  0  0  0
  188.0760  177.1950  144.8180 C   0  0  0  0  0  3  0  0  0  0  0  0
  184.3170  178.7450  139.6670 N   0  0  0  0  0  0  0  0  0  0  0  0
  191.7290  177.0840  144.7890 F   0  0  0  0  0  0  0  0  0  0  0  0
  190.2040  178.0510  143.2340 C   0  0  0  0  0  3  0  0  0  0  0  0
  187.8100  177.8810  143.6270 C   0  0  0  0  0  0  0  0  0  0  0  0
  190.6660  176.8070  137.9740 C   0  0  0  0  0  3  0  0  0  0  0  0
  188.5330  177.5780  139.6450 C   0  0  1  0  0  3  0  0  0  0  0  0
  188.8920  178.4540  138.4380 C   0  0  0  0  0  2  0  0  0  0  0  0
  189.7940  177.7000  137.5020 C   0  0  0  0  0  3  0  0  0  0  0  0
  190.6840  176.4960  139.4150 C   0  0  0  0  0  3  0  0  0  0  0  0
  189.7130  176.8920  140.1850 N   0  0  0  0  0  0  0  0  0  0  0  0
  1 15  1  0  0  0  0
  2 16  1  0  0  0  0
  3 21  1  0  0  0  0
  4 13  1  0  0  0  0
  6 18  1  0  0  0  0
  6  2  2  0  0  0  0
  7  9  1  0  0  0  0
 10 19  1  0  0  0  0
 10  8  2  0  0  0  0
 11  7  1  0  0  0  0
 12  2  1  0  0  0  0
 12  1  1  0  0  0  0
 13  7  2  0  0  0  0
 13  5  1  0  0  0  0
 14  4  1  0  0  0  0
 14 11  1  0  0  0  0
 15 20  2  0  0  0  0
 15 21  1  0  0  0  0
 16 11  2  0  0  0  0
 16  3  1  0  0  0  0
 17  8  1  0  0  0  0
 18 14  2  0  0  0  0
 20 10  1  0  0  0  0
 21 17  2  0  0  0  0
 22 26  1  0  0  0  0
 23 24  1  6  0  0  0
 23 27  1  0  0  0  0
 23 12  1  0  0  0  0
 25 22  2  0  0  0  0
 25 24  1  0  0  0  0
 26 27  2  0  0  0  0
M  END
>  <MODEL>
7

>  <REMARK>
 VINA RESULT:      -8.9      1.503      2.033
  Name = 
  1 active torsions:
  status: ('A' for Active; 'I' for Inactive)
    1  A    between atoms: C_9  and  N_15
                            x       y       z     vdW  Elec       q    Type
                         _______ _______ _______ _____ _____    ______ ____

>  <TORSDO>
F 1

$$$$
=
 OpenBabel10262420053D

 27 31  0  0  1  0  0  0  0  0999 V2000
  188.5470  176.4470  142.5180 C   0  0  0  0  0  2  0  0  0  0  0  0
  186.9020  177.8600  143.7260 C   0  0  0  0  0  0  0  0  0  0  0  0
  186.4660  178.1630  141.2550 N   0  0  0  0  0  2  0  0  0  0  0  0
  182.6540  178.9480  144.3290 S   0  0  0  0  0  0  0  0  0  0  0  0
  181.1690  179.3780  141.9770 C   0  0  0  0  0  1  0  0  0  0  0  0
  186.4050  177.9760  145.0410 C   0  0  0  0  0  3  0  0  0  0  0  0
  183.6520  178.7310  142.0190 C   0  0  0  0  0  0  0  0  0  0  0  0
  189.1720  178.2780  138.7040 C   0  0  0  0  0  3  0  0  0  0  0  0
  183.7930  178.7150  140.6000 N   0  0  0  0  0  1  0  0  0  0  0  0
  190.1710  177.5020  139.2920 C   0  0  0  0  0  0  0  0  0  0  0  0
  184.6930  178.4390  142.9190 C   0  0  0  0  0  0  0  0  0  0  0  0
  188.2600  177.4400  143.5320 N   0  0  0  0  0  0  0  0  0  0  0  0
  182.4490  179.0320  142.6540 C   0  0  0  0  0  0  0  0  0  0  0  0
  184.2750  178.5240  144.2370 C   0  0  0  0  0  0  0  0  0  0  0  0
  188.7460  177.1230  141.2160 C   0  0  0  0  0  0  0  0  0  0  0  0
  186.0310  178.1110  142.6280 C   0  0  0  0  0  0  0  0  0  0  0  0
  187.9630  178.4820  139.3740 C   0  0  0  0  0  3  0  0  0  0  0  0
  185.1080  178.3080  145.2800 N   0  0  0  0  0  0  0  0  0  0  0  0
  191.3440  177.3030  138.6450 F   0  0  0  0  0  0  0  0  0  0  0  0
  189.9540  176.9210  140.5420 C   0  0  0  0  0  3  0  0  0  0  0  0
  187.7410  177.9230  140.6390 C   0  0  0  0  0  0  0  0  0  0  0  0
  192.0560  178.4280  145.0260 C   0  0  0  0  0  3  0  0  0  0  0  0
  189.3670  177.9210  144.3570 C   0  0  1  0  0  3  0  0  0  0  0  0
  190.2470  176.7620  144.8440 C   0  0  0  0  0  2  0  0  0  0  0  0
  191.5040  177.2970  145.4710 C   0  0  0  0  0  3  0  0  0  0  0  0
  191.3810  179.2020  143.9690 C   0  0  0  0  0  3  0  0  0  0  0  0
  190.1520  178.9330  143.6400 N   0  0  0  0  0  0  0  0  0  0  0  0
  1 12  1  0  0  0  0
  2  6  1  0  0  0  0
  3 16  1  0  0  0  0
  5 13  1  0  0  0  0
  6 18  2  0  0  0  0
  7 13  2  0  0  0  0
  7 11  1  0  0  0  0
  8 10  2  0  0  0  0
  8 17  1  0  0  0  0
  9  7  1  0  0  0  0
 10 20  1  0  0  0  0
 11 14  2  0  0  0  0
 12  2  1  0  0  0  0
 13  4  1  0  0  0  0
 14  4  1  0  0  0  0
 14 18  1  0  0  0  0
 15  1  1  0  0  0  0
 16 11  1  0  0  0  0
 16  2  2  0  0  0  0
 17 21  2  0  0  0  0
 19 10  1  0  0  0  0
 20 15  2  0  0  0  0
 21 15  1  0  0  0  0
 21  3  1  0  0  0  0
 22 25  2  0  0  0  0
 23 12  1  6  0  0  0
 23 24  1  0  0  0  0
 24 25  1  0  0  0  0
 26 22  1  0  0  0  0
 27 26  2  0  0  0  0
 27 23  1  0  0  0  0
M  END
>  <MODEL>
8

>  <REMARK>
 VINA RESULT:      -8.7      2.222      4.632
  Name = 
  1 active torsions:
  status: ('A' for Active; 'I' for Inactive)
    1  A    between atoms: C_9  and  N_15
                            x       y       z     vdW  Elec       q    Type
                         _______ _______ _______ _____ _____    ______ ____

>  <TORSDO>
F 1

$$$$
=
 OpenBabel10262420053D

 27 31  0  0  1  0  0  0  0  0999 V2000
  189.0250  178.6270  144.8020 C   0  0  0  0  0  2  0  0  0  0  0  0
  189.7860  177.4620  142.7460 C   0  0  0  0  0  0  0  0  0  0  0  0
  187.3690  178.1050  142.3830 N   0  0  0  0  0  2  0  0  0  0  0  0
  190.1870  177.5580  138.3390 S   0  0  0  0  0  0  0  0  0  0  0  0
  187.8860  178.3610  136.9310 C   0  0  0  0  0  1  0  0  0  0  0  0
  191.0140  177.0890  142.1630 C   0  0  0  0  0  3  0  0  0  0  0  0
  188.0290  178.1900  139.4880 C   0  0  0  0  0  0  0  0  0  0  0  0
  184.8030  178.0050  145.0760 C   0  0  0  0  0  3  0  0  0  0  0  0
  186.6850  178.6130  139.7080 N   0  0  0  0  0  1  0  0  0  0  0  0
  185.5650  178.2190  146.2240 C   0  0  0  0  0  0  0  0  0  0  0  0
  188.9300  177.8560  140.5160 C   0  0  0  0  0  0  0  0  0  0  0  0
  189.6790  177.4980  144.1770 N   0  0  0  0  0  0  0  0  0  0  0  0
  188.5840  178.0760  138.2150 C   0  0  0  0  0  0  0  0  0  0  0  0
  190.1680  177.4850  140.0160 C   0  0  0  0  0  0  0  0  0  0  0  0
  187.5680  178.3740  144.8670 C   0  0  0  0  0  0  0  0  0  0  0  0
  188.7030  177.8450  141.9050 C   0  0  0  0  0  0  0  0  0  0  0  0
  185.4230  177.9690  143.8240 C   0  0  0  0  0  3  0  0  0  0  0  0
  191.1890  177.1010  140.8140 N   0  0  0  0  0  0  0  0  0  0  0  0
  184.9680  178.2530  147.4390 F   0  0  0  0  0  0  0  0  0  0  0  0
  186.9440  178.4100  146.1170 C   0  0  0  0  0  3  0  0  0  0  0  0
  186.8080  178.1360  143.7050 C   0  0  0  0  0  0  0  0  0  0  0  0
  192.0550  175.4050  146.9320 C   0  0  0  0  0  3  0  0  0  0  0  0
  190.2590  176.4720  145.0430 C   0  0  1  0  0  3  0  0  0  0  0  0
  191.6800  176.1020  144.5970 C   0  0  0  0  0  2  0  0  0  0  0  0
  192.3400  175.2420  145.6380 C   0  0  0  0  0  3  0  0  0  0  0  0
  191.0230  176.3770  147.3350 C   0  0  0  0  0  3  0  0  0  0  0  0
  190.2250  176.8940  146.4470 N   0  0  0  0  0  0  0  0  0  0  0  0
  1 15  1  0  0  0  0
  2 12  1  0  0  0  0
  3 21  1  0  0  0  0
  4 14  1  0  0  0  0
  5 13  1  0  0  0  0
  6  2  1  0  0  0  0
  7  9  1  0  0  0  0
  7 11  1  0  0  0  0
  8 10  1  0  0  0  0
 10 19  1  0  0  0  0
 11 16  1  0  0  0  0
 12  1  1  0  0  0  0
 13  4  1  0  0  0  0
 13  7  2  0  0  0  0
 14 11  2  0  0  0  0
 14 18  1  0  0  0  0
 15 20  1  0  0  0  0
 16  3  1  0  0  0  0
 16  2  2  0  0  0  0
 17  8  2  0  0  0  0
 18  6  2  0  0  0  0
 20 10  2  0  0  0  0
 21 17  1  0  0  0  0
 21 15  2  0  0  0  0
 22 26  1  0  0  0  0
 23 12  1  6  0  0  0
 23 27  1  0  0  0  0
 24 23  1  0  0  0  0
 24 25  1  0  0  0  0
 25 22  2  0  0  0  0
 27 26  2  0  0  0  0
M  END
>  <MODEL>
9

>  <REMARK>
 VINA RESULT:      -8.4      2.664      5.282
  Name = 
  1 active torsions:
  status: ('A' for Active; 'I' for Inactive)
    1  A    between atoms: C_9  and  N_15
                            x       y       z     vdW  Elec       q    Type
                         _______ _______ _______ _____ _____    ______ ____

>  <TORSDO>
F 1

$$$$
