=
 OpenBabel10262422093D

 43 48  0  0  1  0  0  0  0  0999 V2000
  183.9110  177.8650  142.1710 N   0  0  0  0  0  0  0  0  0  0  0  0
  185.0890  178.4260  142.2550 C   0  0  0  0  0  0  0  0  0  0  0  0
  188.8980  177.7720  147.5990 C   0  0  0  0  0  0  0  0  0  0  0  0
  186.0230  177.9860  143.3270 C   0  0  0  0  0  0  0  0  0  0  0  0
  188.0320  177.4780  145.3530 C   0  0  0  0  0  0  0  0  0  0  0  0
  187.6800  178.3260  148.0000 C   0  0  0  0  0  3  0  0  0  0  0  0
  189.9080  177.6390  148.4920 F   0  0  0  0  0  0  0  0  0  0  0  0
  186.8030  178.0320  145.7570 C   0  0  0  0  0  0  0  0  0  0  0  0
  189.0700  177.3390  146.2800 C   0  0  0  0  0  3  0  0  0  0  0  0
  186.6340  178.4550  147.0820 C   0  0  0  0  0  3  0  0  0  0  0  0
  184.5620  178.4940  145.1520 O   0  0  0  0  0  0  0  0  0  0  0  0
  185.7220  178.1900  144.7680 C   0  0  0  0  0  0  0  0  0  0  0  0
  187.1970  177.4370  142.9810 C   0  0  0  0  0  3  0  0  0  0  0  0
  188.2080  176.9190  143.9700 C   0  0  0  0  0  2  0  0  0  0  0  0
  180.8860  179.4540  140.3300 C   0  0  0  0  0  2  0  0  0  0  0  0
  180.4810  178.1660  139.6280 C   0  0  2  0  0  3  0  0  0  0  0  0
  182.7870  177.3380  140.1500 C   0  0  0  0  0  3  0  0  0  0  0  0
  181.7640  179.1240  141.5340 C   0  0  0  0  0  2  0  0  0  0  0  0
  182.8690  178.1360  141.2210 C   0  0  0  0  0  0  0  0  0  0  0  0
  181.7420  177.5020  139.0820 C   0  0  0  0  0  2  0  0  0  0  0  0
  180.2810  178.7370  137.2090 C   0  0  0  0  0  1  0  0  0  0  0  0
  179.5210  178.4860  138.4970 C   0  0  0  0  0  2  0  0  0  0  0  0
  185.5700  179.3800  141.2040 C   0  0  0  0  0  2  0  0  0  0  0  0
  186.8440  178.3640  139.2820 C   0  0  0  0  0  0  0  0  0  0  0  0
  186.8250  177.7220  138.0130 N   0  0  0  0  0  0  0  0  0  0  0  0
  187.9460  178.6320  139.8300 O   0  0  0  0  0  0  0  0  0  0  0  0
  187.4940  177.0940  136.8370 C   0  0  2  0  0  3  0  0  0  0  0  0
  185.6130  178.7020  139.9190 N   0  0  0  0  0  2  0  0  0  0  0  0
  186.1160  177.1360  136.8380 C   0  0  0  0  0  2  0  0  0  0  0  0
  187.9860  175.7130  137.2310 C   0  0  0  0  0  2  0  0  0  0  0  0
  188.9580  175.2310  136.2600 N   0  0  0  0  0  0  0  0  0  0  0  0
  190.4290  173.3460  136.3020 C   0  0  0  0  0  2  0  0  0  0  0  0
  188.3380  174.1880  135.5480 N   0  0  0  0  0  2  0  0  0  0  0  0
  190.0630  174.6310  136.9990 C   0  0  1  0  0  3  0  0  0  0  0  0
  189.3740  173.2130  135.2410 C   0  0  0  0  0  2  0  0  0  0  0  0
  191.2370  175.5710  137.0750 C   0  0  0  0  0  0  0  0  0  0  0  0
  192.1230  175.8730  135.7200 S   0  0  0  0  0  0  0  0  0  0  0  0
  191.5600  176.2390  138.3590 C   0  0  0  0  0  0  0  0  0  0  0  0
  193.1270  177.3480  139.8360 C   0  0  0  0  0  3  0  0  0  0  0  0
  190.8860  177.0310  140.5460 C   0  0  0  0  0  3  0  0  0  0  0  0
  192.1460  177.4880  140.7680 N   0  0  0  0  0  0  0  0  0  0  0  0
  190.5710  176.4010  139.3400 C   0  0  0  0  0  3  0  0  0  0  0  0
  192.8520  176.7220  138.6190 C   0  0  0  0  0  3  0  0  0  0  0  0
  1  2  2  0  0  0  0
  2  4  1  0  0  0  0
  3  6  1  0  0  0  0
  3  7  1  0  0  0  0
  4 12  1  0  0  0  0
  5  8  2  0  0  0  0
  5  9  1  0  0  0  0
  8 10  1  0  0  0  0
  9  3  2  0  0  0  0
 10  6  2  0  0  0  0
 12 11  2  0  0  0  0
 12  8  1  0  0  0  0
 13  4  2  0  0  0  0
 13 14  1  0  0  0  0
 14  5  1  0  0  0  0
 15 18  1  0  0  0  0
 16 22  1  6  0  0  0
 16 15  1  0  0  0  0
 17 19  2  0  0  0  0
 19 18  1  0  0  0  0
 19  1  1  0  0  0  0
 20 16  1  0  0  0  0
 20 17  1  0  0  0  0
 21 22  1  0  0  0  0
 23  2  1  0  0  0  0
 24 26  2  0  0  0  0
 24 28  1  0  0  0  0
 25 24  1  0  0  0  0
 27 29  1  0  0  0  0
 27 30  1  1  0  0  0
 27 25  1  0  0  0  0
 28 23  1  0  0  0  0
 29 25  1  0  0  0  0
 31 34  1  0  0  0  0
 31 30  1  0  0  0  0
 32 34  1  0  0  0  0
 33 31  1  0  0  0  0
 34 36  1  6  0  0  0
 35 33  1  0  0  0  0
 35 32  1  0  0  0  0
 36 38  1  0  0  0  0
 37 36  2  0  0  0  0
 38 43  2  0  0  0  0
 38 42  1  0  0  0  0
 39 41  2  0  0  0  0
 40 41  1  0  0  0  0
 42 40  2  0  0  0  0
 43 39  1  0  0  0  0
M  END
>  <MODEL>
1

>  <REMARK>
 VINA RESULT:      -9.3      0.000      0.000
  Name = 
  9 active torsions:
  status: ('A' for Active; 'I' for Inactive)
    1  A    between atoms: N_1  and  C_35
    2  A    between atoms: C_3  and  N_4
    3  A    between atoms: C_3  and  C_12
    4  A    between atoms: C_8  and  C_34
    5  A    between atoms: C_11  and  C_14
    6  A    between atoms: N_13  and  C_38
    7  A    between atoms: C_14  and  C_22
    8  A    between atoms: C_19  and  C_37
    9  A    between atoms: C_34  and  C_38
                            x       y       z     vdW  Elec       q    Type
                         _______ _______ _______ _____ _____    ______ ____

>  <TORSDO>
F 9

$$$$
=
 OpenBabel10262422093D

 43 48  0  0  1  0  0  0  0  0999 V2000
  190.8230  175.4810  136.6510 N   0  0  0  0  0  0  0  0  0  0  0  0
  190.0870  176.3320  137.3160 C   0  0  0  0  0  0  0  0  0  0  0  0
  183.5380  176.9070  137.8320 C   0  0  0  0  0  0  0  0  0  0  0  0
  188.6090  176.2910  137.1500 C   0  0  0  0  0  0  0  0  0  0  0  0
  185.7210  176.0600  137.2000 C   0  0  0  0  0  0  0  0  0  0  0  0
  184.1090  178.1370  138.1710 C   0  0  0  0  0  3  0  0  0  0  0  0
  182.2030  176.7200  137.9670 F   0  0  0  0  0  0  0  0  0  0  0  0
  186.2970  177.2990  137.5380 C   0  0  0  0  0  0  0  0  0  0  0  0
  184.3410  175.8740  137.3380 C   0  0  0  0  0  3  0  0  0  0  0  0
  185.4840  178.3330  138.0230 C   0  0  0  0  0  3  0  0  0  0  0  0
  188.2540  178.6300  137.5100 O   0  0  0  0  0  0  0  0  0  0  0  0
  187.7530  177.4790  137.4060 C   0  0  0  0  0  0  0  0  0  0  0  0
  188.0260  175.1310  136.8120 C   0  0  0  0  0  3  0  0  0  0  0  0
  186.5460  174.9700  136.5780 C   0  0  0  0  0  2  0  0  0  0  0  0
  194.6040  175.9250  135.8870 C   0  0  0  0  0  2  0  0  0  0  0  0
  194.9850  174.5260  136.3470 C   0  0  2  0  0  3  0  0  0  0  0  0
  192.7830  174.4840  137.5420 C   0  0  0  0  0  3  0  0  0  0  0  0
  193.1080  175.9710  135.5830 C   0  0  0  0  0  2  0  0  0  0  0  0
  192.2530  175.3480  136.6670 C   0  0  0  0  0  0  0  0  0  0  0  0
  194.2620  174.2390  137.6610 C   0  0  0  0  0  2  0  0  0  0  0  0
  197.1880  175.5000  135.7030 C   0  0  0  0  0  1  0  0  0  0  0  0
  196.4880  174.4500  136.5450 C   0  0  0  0  0  2  0  0  0  0  0  0
  190.6880  177.2320  138.3540 C   0  0  0  0  0  2  0  0  0  0  0  0
  191.0170  177.1240  140.8490 C   0  0  0  0  0  0  0  0  0  0  0  0
  190.5850  176.6380  142.1140 N   0  0  0  0  0  0  0  0  0  0  0  0
  192.0470  177.8450  140.7760 O   0  0  0  0  0  0  0  0  0  0  0  0
  190.6970  176.5250  143.5970 C   0  0  2  0  0  3  0  0  0  0  0  0
  190.2810  176.7850  139.6760 N   0  0  0  0  0  2  0  0  0  0  0  0
  189.6540  175.8640  142.9850 C   0  0  0  0  0  2  0  0  0  0  0  0
  190.2130  177.8190  144.2270 C   0  0  0  0  0  2  0  0  0  0  0  0
  190.4430  177.7940  145.6640 N   0  0  0  0  0  0  0  0  0  0  0  0
  190.1560  176.0520  147.2780 C   0  0  0  0  0  2  0  0  0  0  0  0
  191.6960  177.1850  145.8650 N   0  0  0  0  0  2  0  0  0  0  0  0
  189.4480  176.9060  146.2570 C   0  0  1  0  0  3  0  0  0  0  0  0
  191.6010  176.4230  147.1010 C   0  0  0  0  0  2  0  0  0  0  0  0
  188.3230  177.6900  146.8780 C   0  0  0  0  0  0  0  0  0  0  0  0
  188.4750  178.2420  148.4230 S   0  0  0  0  0  0  0  0  0  0  0  0
  187.1080  177.9860  146.0810 C   0  0  0  0  0  0  0  0  0  0  0  0
  185.8690  177.9240  144.0010 C   0  0  0  0  0  3  0  0  0  0  0  0
  184.8710  178.9000  145.9180 C   0  0  0  0  0  3  0  0  0  0  0  0
  184.8240  178.5470  144.6060 N   0  0  0  0  0  0  0  0  0  0  0  0
  186.0110  178.6260  146.6770 C   0  0  0  0  0  3  0  0  0  0  0  0
  187.0280  177.6340  144.7250 C   0  0  0  0  0  3  0  0  0  0  0  0
  1 19  1  0  0  0  0
  1  2  2  0  0  0  0
  2 23  1  0  0  0  0
  3  7  1  0  0  0  0
  3  6  1  0  0  0  0
  4  2  1  0  0  0  0
  4 12  1  0  0  0  0
  5  9  1  0  0  0  0
  5  8  2  0  0  0  0
  8 10  1  0  0  0  0
  9  3  2  0  0  0  0
 10  6  2  0  0  0  0
 12 11  2  0  0  0  0
 12  8  1  0  0  0  0
 13  4  2  0  0  0  0
 14 13  1  0  0  0  0
 14  5  1  0  0  0  0
 15 16  1  0  0  0  0
 16 22  1  1  0  0  0
 16 20  1  0  0  0  0
 17 20  1  0  0  0  0
 18 15  1  0  0  0  0
 18 19  1  0  0  0  0
 19 17  2  0  0  0  0
 21 22  1  0  0  0  0
 23 28  1  0  0  0  0
 24 25  1  0  0  0  0
 25 29  1  0  0  0  0
 25 27  1  0  0  0  0
 26 24  2  0  0  0  0
 27 30  1  1  0  0  0
 28 24  1  0  0  0  0
 29 27  1  0  0  0  0
 30 31  1  0  0  0  0
 31 33  1  0  0  0  0
 31 34  1  0  0  0  0
 33 35  1  0  0  0  0
 34 36  1  1  0  0  0
 34 32  1  0  0  0  0
 35 32  1  0  0  0  0
 36 37  2  0  0  0  0
 38 42  1  0  0  0  0
 38 36  1  0  0  0  0
 39 41  2  0  0  0  0
 39 43  1  0  0  0  0
 40 42  2  0  0  0  0
 41 40  1  0  0  0  0
 43 38  2  0  0  0  0
M  END
>  <MODEL>
2

>  <REMARK>
 VINA RESULT:      -9.1      3.921     10.146
  Name = 
  9 active torsions:
  status: ('A' for Active; 'I' for Inactive)
    1  A    between atoms: N_1  and  C_35
    2  A    between atoms: C_3  and  N_4
    3  A    between atoms: C_3  and  C_12
    4  A    between atoms: C_8  and  C_34
    5  A    between atoms: C_11  and  C_14
    6  A    between atoms: N_13  and  C_38
    7  A    between atoms: C_14  and  C_22
    8  A    between atoms: C_19  and  C_37
    9  A    between atoms: C_34  and  C_38
                            x       y       z     vdW  Elec       q    Type
                         _______ _______ _______ _____ _____    ______ ____

>  <TORSDO>
F 9

$$$$
=
 OpenBabel10262422093D

 43 48  0  0  1  0  0  0  0  0999 V2000
  189.7290  176.8170  140.6390 N   0  0  0  0  0  0  0  0  0  0  0  0
  188.8390  177.7050  140.9990 C   0  0  0  0  0  0  0  0  0  0  0  0
  188.2420  177.2240  147.5490 C   0  0  0  0  0  0  0  0  0  0  0  0
  188.4350  177.7810  142.4290 C   0  0  0  0  0  0  0  0  0  0  0  0
  187.6680  177.5270  145.2120 C   0  0  0  0  0  0  0  0  0  0  0  0
  189.5880  177.4540  147.2520 C   0  0  0  0  0  3  0  0  0  0  0  0
  187.8640  176.9720  148.8250 F   0  0  0  0  0  0  0  0  0  0  0  0
  189.0230  177.7630  144.9120 C   0  0  0  0  0  0  0  0  0  0  0  0
  187.2830  177.2710  146.5330 C   0  0  0  0  0  3  0  0  0  0  0  0
  189.9780  177.7240  145.9380 C   0  0  0  0  0  3  0  0  0  0  0  0
  190.5850  178.4210  143.2600 O   0  0  0  0  0  0  0  0  0  0  0  0
  189.4210  178.0140  143.5160 C   0  0  0  0  0  0  0  0  0  0  0  0
  187.1480  177.5780  142.7520 C   0  0  0  0  0  3  0  0  0  0  0  0
  186.6100  177.6660  144.1560 C   0  0  0  0  0  2  0  0  0  0  0  0
  190.0490  176.0260  136.8520 C   0  0  0  0  0  2  0  0  0  0  0  0
  191.4740  175.5030  136.9580 C   0  0  2  0  0  3  0  0  0  0  0  0
  191.5820  176.6860  139.1640 C   0  0  0  0  0  3  0  0  0  0  0  0
  189.3910  175.9930  138.2290 C   0  0  0  0  0  2  0  0  0  0  0  0
  190.2580  176.5780  139.3260 C   0  0  0  0  0  0  0  0  0  0  0  0
  192.2700  176.4550  137.8470 C   0  0  0  0  0  2  0  0  0  0  0  0
  193.4600  176.0870  135.5680 C   0  0  0  0  0  1  0  0  0  0  0  0
  192.0920  175.4330  135.5730 C   0  0  0  0  0  2  0  0  0  0  0  0
  188.3450  178.7410  140.0360 C   0  0  0  0  0  2  0  0  0  0  0  0
  185.8580  178.6060  139.6560 C   0  0  0  0  0  0  0  0  0  0  0  0
  184.7650  178.0500  138.9360 N   0  0  0  0  0  0  0  0  0  0  0  0
  185.6410  179.4270  140.5860 O   0  0  0  0  0  0  0  0  0  0  0  0
  183.3110  177.9120  138.6350 C   0  0  2  0  0  3  0  0  0  0  0  0
  187.1910  178.2250  139.3190 N   0  0  0  0  0  2  0  0  0  0  0  0
  184.1900  177.1670  137.8800 C   0  0  0  0  0  2  0  0  0  0  0  0
  182.8500  179.1370  137.8640 C   0  0  0  0  0  2  0  0  0  0  0  0
  181.4170  179.3280  138.0370 N   0  0  0  0  0  0  0  0  0  0  0  0
  180.1800  180.9700  139.2580 C   0  0  0  0  0  2  0  0  0  0  0  0
  181.0290  180.3320  137.1310 N   0  0  0  0  0  2  0  0  0  0  0  0
  181.2000  179.8660  139.3750 C   0  0  1  0  0  3  0  0  0  0  0  0
  179.9700  181.0940  137.7760 C   0  0  0  0  0  2  0  0  0  0  0  0
  180.7430  178.7920  140.3240 C   0  0  0  0  0  0  0  0  0  0  0  0
  179.7010  177.6310  139.7940 S   0  0  0  0  0  0  0  0  0  0  0  0
  181.2610  178.7700  141.7130 C   0  0  0  0  0  0  0  0  0  0  0  0
  183.0990  178.8070  143.2910 C   0  0  0  0  0  3  0  0  0  0  0  0
  180.8740  178.6710  144.1020 C   0  0  0  0  0  3  0  0  0  0  0  0
  182.2150  178.7290  144.3200 N   0  0  0  0  0  0  0  0  0  0  0  0
  180.3760  178.6910  142.7970 C   0  0  0  0  0  3  0  0  0  0  0  0
  182.6400  178.8280  141.9720 C   0  0  0  0  0  3  0  0  0  0  0  0
  1  2  2  0  0  0  0
  2  4  1  0  0  0  0
  3  7  1  0  0  0  0
  4 13  2  0  0  0  0
  4 12  1  0  0  0  0
  5  9  1  0  0  0  0
  6  3  1  0  0  0  0
  8  5  2  0  0  0  0
  8 10  1  0  0  0  0
  9  3  2  0  0  0  0
 10  6  2  0  0  0  0
 11 12  2  0  0  0  0
 12  8  1  0  0  0  0
 13 14  1  0  0  0  0
 14  5  1  0  0  0  0
 15 16  1  0  0  0  0
 15 18  1  0  0  0  0
 16 22  1  6  0  0  0
 16 20  1  0  0  0  0
 17 19  2  0  0  0  0
 18 19  1  0  0  0  0
 19  1  1  0  0  0  0
 20 17  1  0  0  0  0
 21 22  1  0  0  0  0
 23  2  1  0  0  0  0
 24 26  2  0  0  0  0
 25 24  1  0  0  0  0
 27 30  1  6  0  0  0
 27 25  1  0  0  0  0
 28 24  1  0  0  0  0
 28 23  1  0  0  0  0
 29 27  1  0  0  0  0
 29 25  1  0  0  0  0
 30 31  1  0  0  0  0
 31 34  1  0  0  0  0
 32 34  1  0  0  0  0
 33 35  1  0  0  0  0
 33 31  1  0  0  0  0
 34 36  1  1  0  0  0
 35 32  1  0  0  0  0
 36 38  1  0  0  0  0
 37 36  2  0  0  0  0
 38 43  2  0  0  0  0
 38 42  1  0  0  0  0
 39 41  2  0  0  0  0
 40 41  1  0  0  0  0
 42 40  2  0  0  0  0
 43 39  1  0  0  0  0
M  END
>  <MODEL>
3

>  <REMARK>
 VINA RESULT:      -9.0      2.902      8.068
  Name = 
  9 active torsions:
  status: ('A' for Active; 'I' for Inactive)
    1  A    between atoms: N_1  and  C_35
    2  A    between atoms: C_3  and  N_4
    3  A    between atoms: C_3  and  C_12
    4  A    between atoms: C_8  and  C_34
    5  A    between atoms: C_11  and  C_14
    6  A    between atoms: N_13  and  C_38
    7  A    between atoms: C_14  and  C_22
    8  A    between atoms: C_19  and  C_37
    9  A    between atoms: C_34  and  C_38
                            x       y       z     vdW  Elec       q    Type
                         _______ _______ _______ _____ _____    ______ ____

>  <TORSDO>
F 9

$$$$
=
 OpenBabel10262422093D

 43 48  0  0  1  0  0  0  0  0999 V2000
  190.3180  176.7020  140.7920 N   0  0  0  0  0  0  0  0  0  0  0  0
  189.5840  177.5350  141.4840 C   0  0  0  0  0  0  0  0  0  0  0  0
  188.3870  177.8660  147.9600 C   0  0  0  0  0  0  0  0  0  0  0  0
  189.6020  177.4490  142.9690 C   0  0  0  0  0  0  0  0  0  0  0  0
  189.5810  177.6830  145.8570 C   0  0  0  0  0  0  0  0  0  0  0  0
  187.1930  177.5320  147.3150 C   0  0  0  0  0  3  0  0  0  0  0  0
  188.3910  178.1100  149.2920 F   0  0  0  0  0  0  0  0  0  0  0  0
  188.3800  177.3430  145.2070 C   0  0  0  0  0  0  0  0  0  0  0  0
  189.5800  177.9310  147.2340 C   0  0  0  0  0  3  0  0  0  0  0  0
  187.1890  177.2700  145.9430 C   0  0  0  0  0  3  0  0  0  0  0  0
  187.3740  176.6060  143.1960 O   0  0  0  0  0  0  0  0  0  0  0  0
  188.3890  177.1020  143.7540 C   0  0  0  0  0  0  0  0  0  0  0  0
  190.7340  177.7500  143.6230 C   0  0  0  0  0  3  0  0  0  0  0  0
  190.8890  177.6660  145.1190 C   0  0  0  0  0  2  0  0  0  0  0  0
  189.5360  176.5920  136.9920 C   0  0  0  0  0  2  0  0  0  0  0  0
  190.7760  175.7850  136.6360 C   0  0  2  0  0  3  0  0  0  0  0  0
  191.6830  176.4850  138.8640 C   0  0  0  0  0  3  0  0  0  0  0  0
  189.2320  176.4310  138.4790 C   0  0  0  0  0  2  0  0  0  0  0  0
  190.4480  176.6140  139.3650 C   0  0  0  0  0  0  0  0  0  0  0  0
  191.9640  176.3750  137.3920 C   0  0  0  0  0  2  0  0  0  0  0  0
  192.5000  175.9030  134.8390 C   0  0  0  0  0  1  0  0  0  0  0  0
  191.0140  175.8560  135.1390 C   0  0  0  0  0  2  0  0  0  0  0  0
  188.8580  178.6650  140.8180 C   0  0  0  0  0  2  0  0  0  0  0  0
  186.3730  178.6710  140.4010 C   0  0  0  0  0  0  0  0  0  0  0  0
  185.0520  178.7390  140.9230 N   0  0  0  0  0  0  0  0  0  0  0  0
  186.5500  178.5870  139.1570 O   0  0  0  0  0  0  0  0  0  0  0  0
  183.5680  178.7430  140.7720 C   0  0  2  0  0  3  0  0  0  0  0  0
  187.4850  178.7060  141.2940 N   0  0  0  0  0  2  0  0  0  0  0  0
  184.0780  178.8380  142.0490 C   0  0  0  0  0  2  0  0  0  0  0  0
  183.0990  177.3260  140.4900 C   0  0  0  0  0  2  0  0  0  0  0  0
  182.2100  177.3130  139.3370 N   0  0  0  0  0  0  0  0  0  0  0  0
  180.9050  175.5570  138.3710 C   0  0  0  0  0  2  0  0  0  0  0  0
  180.8980  177.4310  139.8340 N   0  0  0  0  0  2  0  0  0  0  0  0
  182.3050  175.9950  138.7190 C   0  0  1  0  0  3  0  0  0  0  0  0
  180.0450  176.6370  138.9620 C   0  0  0  0  0  2  0  0  0  0  0  0
  183.1910  176.0290  137.5030 C   0  0  0  0  0  0  0  0  0  0  0  0
  182.9210  177.1590  136.3350 S   0  0  0  0  0  0  0  0  0  0  0  0
  184.3150  175.0690  137.3870 C   0  0  0  0  0  0  0  0  0  0  0  0
  185.2410  172.8460  137.6490 C   0  0  0  0  0  3  0  0  0  0  0  0
  186.6080  174.5790  136.7790 C   0  0  0  0  0  3  0  0  0  0  0  0
  186.4310  173.2860  137.1610 N   0  0  0  0  0  0  0  0  0  0  0  0
  185.5550  175.4900  136.8850 C   0  0  0  0  0  3  0  0  0  0  0  0
  184.1650  173.7280  137.7720 C   0  0  0  0  0  3  0  0  0  0  0  0
  1  2  2  0  0  0  0
  2  4  1  0  0  0  0
  3  7  1  0  0  0  0
  4 13  2  0  0  0  0
  4 12  1  0  0  0  0
  5  9  1  0  0  0  0
  6  3  1  0  0  0  0
  8  5  2  0  0  0  0
  8 10  1  0  0  0  0
  9  3  2  0  0  0  0
 10  6  2  0  0  0  0
 11 12  2  0  0  0  0
 12  8  1  0  0  0  0
 13 14  1  0  0  0  0
 14  5  1  0  0  0  0
 15 18  1  0  0  0  0
 16 22  1  6  0  0  0
 16 15  1  0  0  0  0
 16 20  1  0  0  0  0
 17 19  2  0  0  0  0
 18 19  1  0  0  0  0
 19  1  1  0  0  0  0
 20 17  1  0  0  0  0
 21 22  1  0  0  0  0
 23 28  1  0  0  0  0
 23  2  1  0  0  0  0
 24 25  1  0  0  0  0
 24 28  1  0  0  0  0
 25 29  1  0  0  0  0
 26 24  2  0  0  0  0
 27 30  1  1  0  0  0
 27 25  1  0  0  0  0
 27 29  1  0  0  0  0
 31 33  1  0  0  0  0
 31 30  1  0  0  0  0
 32 34  1  0  0  0  0
 32 35  1  0  0  0  0
 34 36  1  6  0  0  0
 34 31  1  0  0  0  0
 35 33  1  0  0  0  0
 37 36  2  0  0  0  0
 38 36  1  0  0  0  0
 38 43  1  0  0  0  0
 39 43  2  0  0  0  0
 40 42  1  0  0  0  0
 40 41  2  0  0  0  0
 41 39  1  0  0  0  0
 42 38  2  0  0  0  0
M  END
>  <MODEL>
4

>  <REMARK>
 VINA RESULT:      -9.0      2.487      6.934
  Name = 
  9 active torsions:
  status: ('A' for Active; 'I' for Inactive)
    1  A    between atoms: N_1  and  C_35
    2  A    between atoms: C_3  and  N_4
    3  A    between atoms: C_3  and  C_12
    4  A    between atoms: C_8  and  C_34
    5  A    between atoms: C_11  and  C_14
    6  A    between atoms: N_13  and  C_38
    7  A    between atoms: C_14  and  C_22
    8  A    between atoms: C_19  and  C_37
    9  A    between atoms: C_34  and  C_38
                            x       y       z     vdW  Elec       q    Type
                         _______ _______ _______ _____ _____    ______ ____

>  <TORSDO>
F 9

$$$$
=
 OpenBabel10262422093D

 43 48  0  0  1  0  0  0  0  0999 V2000
  182.8280  177.3480  141.0550 N   0  0  0  0  0  0  0  0  0  0  0  0
  183.6040  178.3770  141.2740 C   0  0  0  0  0  0  0  0  0  0  0  0
  186.8640  177.9910  146.9940 C   0  0  0  0  0  0  0  0  0  0  0  0
  184.1790  178.5710  142.6330 C   0  0  0  0  0  0  0  0  0  0  0  0
  185.1720  178.5700  145.3550 C   0  0  0  0  0  0  0  0  0  0  0  0
  187.7510  177.6590  145.9660 C   0  0  0  0  0  3  0  0  0  0  0  0
  187.2530  177.8780  148.2860 F   0  0  0  0  0  0  0  0  0  0  0  0
  186.0660  178.2400  144.3190 C   0  0  0  0  0  0  0  0  0  0  0  0
  185.5810  178.4560  146.6890 C   0  0  0  0  0  3  0  0  0  0  0  0
  187.3540  177.7840  144.6320 C   0  0  0  0  0  3  0  0  0  0  0  0
  186.4600  178.2500  141.9850 O   0  0  0  0  0  0  0  0  0  0  0  0
  185.6200  178.3470  142.9190 C   0  0  0  0  0  0  0  0  0  0  0  0
  183.3600  178.9030  143.6430 C   0  0  0  0  0  3  0  0  0  0  0  0
  183.8250  179.1610  145.0520 C   0  0  0  0  0  2  0  0  0  0  0  0
  180.5070  177.3160  137.9440 C   0  0  0  0  0  2  0  0  0  0  0  0
  180.5510  175.8040  137.7760 C   0  0  2  0  0  3  0  0  0  0  0  0
  182.5930  175.8560  139.2260 C   0  0  0  0  0  3  0  0  0  0  0  0
  180.9200  177.6830  139.3670 C   0  0  0  0  0  2  0  0  0  0  0  0
  182.1790  176.9760  139.8300 C   0  0  0  0  0  0  0  0  0  0  0  0
  181.9970  175.3460  137.9440 C   0  0  0  0  0  2  0  0  0  0  0  0
  180.5840  176.3850  135.3510 C   0  0  0  0  0  1  0  0  0  0  0  0
  180.0360  175.4330  136.3970 C   0  0  0  0  0  2  0  0  0  0  0  0
  184.0500  179.2650  140.1510 C   0  0  0  0  0  2  0  0  0  0  0  0
  185.4460  178.2530  138.3150 C   0  0  0  0  0  0  0  0  0  0  0  0
  185.5120  177.4950  137.1130 N   0  0  0  0  0  0  0  0  0  0  0  0
  186.5020  178.7210  138.8170 O   0  0  0  0  0  0  0  0  0  0  0  0
  186.2580  176.8550  135.9910 C   0  0  2  0  0  3  0  0  0  0  0  0
  184.1820  178.4780  138.9360 N   0  0  0  0  0  2  0  0  0  0  0  0
  184.8880  176.7070  136.0110 C   0  0  0  0  0  2  0  0  0  0  0  0
  186.9380  175.5990  136.5070 C   0  0  0  0  0  2  0  0  0  0  0  0
  188.3620  175.6390  136.2050 N   0  0  0  0  0  0  0  0  0  0  0  0
  190.2330  174.6160  137.2860 C   0  0  0  0  0  2  0  0  0  0  0  0
  188.6640  174.4550  135.5080 N   0  0  0  0  0  2  0  0  0  0  0  0
  189.0850  175.5740  137.4710 C   0  0  1  0  0  3  0  0  0  0  0  0
  190.0060  174.0610  135.9090 C   0  0  0  0  0  2  0  0  0  0  0  0
  189.5650  176.9370  137.8920 C   0  0  0  0  0  0  0  0  0  0  0  0
  189.4310  178.2030  136.8460 S   0  0  0  0  0  0  0  0  0  0  0  0
  190.1220  177.1310  139.2520 C   0  0  0  0  0  0  0  0  0  0  0  0
  189.8430  177.3120  141.6510 C   0  0  0  0  0  3  0  0  0  0  0  0
  192.0140  177.5030  140.7170 C   0  0  0  0  0  3  0  0  0  0  0  0
  191.1820  177.4950  141.7920 N   0  0  0  0  0  0  0  0  0  0  0  0
  191.5000  177.3200  139.4320 C   0  0  0  0  0  3  0  0  0  0  0  0
  189.2900  177.1280  140.3820 C   0  0  0  0  0  3  0  0  0  0  0  0
  1  2  2  0  0  0  0
  2  4  1  0  0  0  0
  3  7  1  0  0  0  0
  4 12  1  0  0  0  0
  4 13  2  0  0  0  0
  5  9  2  0  0  0  0
  6  3  2  0  0  0  0
  8 10  2  0  0  0  0
  8  5  1  0  0  0  0
  9  3  1  0  0  0  0
 10  6  1  0  0  0  0
 11 12  2  0  0  0  0
 12  8  1  0  0  0  0
 13 14  1  0  0  0  0
 14  5  1  0  0  0  0
 15 18  1  0  0  0  0
 16 22  1  6  0  0  0
 16 15  1  0  0  0  0
 16 20  1  0  0  0  0
 17 19  2  0  0  0  0
 18 19  1  0  0  0  0
 19  1  1  0  0  0  0
 20 17  1  0  0  0  0
 21 22  1  0  0  0  0
 23  2  1  0  0  0  0
 24 26  2  0  0  0  0
 24 28  1  0  0  0  0
 25 24  1  0  0  0  0
 27 29  1  0  0  0  0
 27 30  1  1  0  0  0
 27 25  1  0  0  0  0
 28 23  1  0  0  0  0
 29 25  1  0  0  0  0
 31 30  1  0  0  0  0
 31 34  1  0  0  0  0
 32 34  1  0  0  0  0
 33 35  1  0  0  0  0
 33 31  1  0  0  0  0
 34 36  1  6  0  0  0
 35 32  1  0  0  0  0
 36 38  1  0  0  0  0
 37 36  2  0  0  0  0
 38 42  2  0  0  0  0
 38 43  1  0  0  0  0
 39 41  1  0  0  0  0
 40 41  2  0  0  0  0
 42 40  1  0  0  0  0
 43 39  2  0  0  0  0
M  END
>  <MODEL>
5

>  <REMARK>
 VINA RESULT:      -8.9      1.695      2.498
  Name = 
  9 active torsions:
  status: ('A' for Active; 'I' for Inactive)
    1  A    between atoms: N_1  and  C_35
    2  A    between atoms: C_3  and  N_4
    3  A    between atoms: C_3  and  C_12
    4  A    between atoms: C_8  and  C_34
    5  A    between atoms: C_11  and  C_14
    6  A    between atoms: N_13  and  C_38
    7  A    between atoms: C_14  and  C_22
    8  A    between atoms: C_19  and  C_37
    9  A    between atoms: C_34  and  C_38
                            x       y       z     vdW  Elec       q    Type
                         _______ _______ _______ _____ _____    ______ ____

>  <TORSDO>
F 9

$$$$
=
 OpenBabel10262422093D

 43 48  0  0  1  0  0  0  0  0999 V2000
  190.4550  176.6910  140.3570 N   0  0  0  0  0  0  0  0  0  0  0  0
  189.5280  177.5720  140.6280 C   0  0  0  0  0  0  0  0  0  0  0  0
  188.4080  177.1550  147.1130 C   0  0  0  0  0  0  0  0  0  0  0  0
  189.0260  177.6850  142.0240 C   0  0  0  0  0  0  0  0  0  0  0  0
  188.0370  177.5010  144.7410 C   0  0  0  0  0  0  0  0  0  0  0  0
  189.7870  177.2700  146.9180 C   0  0  0  0  0  3  0  0  0  0  0  0
  187.9160  176.9380  148.3560 F   0  0  0  0  0  0  0  0  0  0  0  0
  189.4250  177.6210  144.5440 C   0  0  0  0  0  0  0  0  0  0  0  0
  187.5340  177.2800  146.0280 C   0  0  0  0  0  3  0  0  0  0  0  0
  190.2940  177.5040  145.6370 C   0  0  0  0  0  3  0  0  0  0  0  0
  191.1550  178.1420  143.0150 O   0  0  0  0  0  0  0  0  0  0  0  0
  189.9450  177.8350  143.1820 C   0  0  0  0  0  0  0  0  0  0  0  0
  187.7070  177.5920  142.2500 C   0  0  0  0  0  3  0  0  0  0  0  0
  187.0750  177.7270  143.6100 C   0  0  0  0  0  2  0  0  0  0  0  0
  191.0800  175.5880  136.6880 C   0  0  0  0  0  2  0  0  0  0  0  0
  192.5710  175.3560  136.8830 C   0  0  2  0  0  3  0  0  0  0  0  0
  192.3620  176.7600  138.9480 C   0  0  0  0  0  3  0  0  0  0  0  0
  190.3800  175.5730  138.0440 C   0  0  0  0  0  2  0  0  0  0  0  0
  191.0760  176.4210  139.0900 C   0  0  0  0  0  0  0  0  0  0  0  0
  193.1370  176.5280  137.6810 C   0  0  0  0  0  2  0  0  0  0  0  0
  194.3160  176.3330  135.3930 C   0  0  0  0  0  1  0  0  0  0  0  0
  193.2510  175.2620  135.5290 C   0  0  0  0  0  2  0  0  0  0  0  0
  189.0830  178.5690  139.6000 C   0  0  0  0  0  2  0  0  0  0  0  0
  187.4770  177.9540  137.7590 C   0  0  0  0  0  0  0  0  0  0  0  0
  186.1490  177.6420  137.3560 N   0  0  0  0  0  0  0  0  0  0  0  0
  188.3970  177.9970  136.9000 O   0  0  0  0  0  0  0  0  0  0  0  0
  185.1300  177.2690  136.3330 C   0  0  2  0  0  3  0  0  0  0  0  0
  187.7510  178.2210  139.1330 N   0  0  0  0  0  2  0  0  0  0  0  0
  184.7020  177.4130  137.6350 C   0  0  0  0  0  2  0  0  0  0  0  0
  185.2960  175.7990  135.9870 C   0  0  0  0  0  2  0  0  0  0  0  0
  184.5170  174.9770  136.9010 N   0  0  0  0  0  0  0  0  0  0  0  0
  183.4680  172.8480  136.6040 C   0  0  0  0  0  2  0  0  0  0  0  0
  185.3880  173.9960  137.4090 N   0  0  0  0  0  2  0  0  0  0  0  0
  183.5100  174.2730  136.1140 C   0  0  1  0  0  3  0  0  0  0  0  0
  184.6010  172.7860  137.5890 C   0  0  0  0  0  2  0  0  0  0  0  0
  182.1650  174.9380  136.2360 C   0  0  0  0  0  0  0  0  0  0  0  0
  181.5930  175.8460  134.9860 S   0  0  0  0  0  0  0  0  0  0  0  0
  181.3570  174.7390  137.4630 C   0  0  0  0  0  0  0  0  0  0  0  0
  179.5930  173.6100  138.6810 C   0  0  0  0  0  3  0  0  0  0  0  0
  180.8350  175.3220  139.7560 C   0  0  0  0  0  3  0  0  0  0  0  0
  179.8540  174.3810  139.7700 N   0  0  0  0  0  0  0  0  0  0  0  0
  181.6020  175.5170  138.6050 C   0  0  0  0  0  3  0  0  0  0  0  0
  180.3370  173.7760  137.5110 C   0  0  0  0  0  3  0  0  0  0  0  0
  1  2  2  0  0  0  0
  2  4  1  0  0  0  0
  3  7  1  0  0  0  0
  4 13  2  0  0  0  0
  4 12  1  0  0  0  0
  5  9  1  0  0  0  0
  6  3  1  0  0  0  0
  8  5  2  0  0  0  0
  8 10  1  0  0  0  0
  9  3  2  0  0  0  0
 10  6  2  0  0  0  0
 11 12  2  0  0  0  0
 12  8  1  0  0  0  0
 13 14  1  0  0  0  0
 14  5  1  0  0  0  0
 15 16  1  0  0  0  0
 15 18  1  0  0  0  0
 16 22  1  6  0  0  0
 16 20  1  0  0  0  0
 17 19  2  0  0  0  0
 18 19  1  0  0  0  0
 19  1  1  0  0  0  0
 20 17  1  0  0  0  0
 21 22  1  0  0  0  0
 23  2  1  0  0  0  0
 24 28  1  0  0  0  0
 25 29  1  0  0  0  0
 25 24  1  0  0  0  0
 26 24  2  0  0  0  0
 27 30  1  1  0  0  0
 27 25  1  0  0  0  0
 27 29  1  0  0  0  0
 28 23  1  0  0  0  0
 30 31  1  0  0  0  0
 31 33  1  0  0  0  0
 32 35  1  0  0  0  0
 33 35  1  0  0  0  0
 34 36  1  1  0  0  0
 34 32  1  0  0  0  0
 34 31  1  0  0  0  0
 36 38  1  0  0  0  0
 37 36  2  0  0  0  0
 38 43  2  0  0  0  0
 38 42  1  0  0  0  0
 39 41  2  0  0  0  0
 40 41  1  0  0  0  0
 42 40  2  0  0  0  0
 43 39  1  0  0  0  0
M  END
>  <MODEL>
6

>  <REMARK>
 VINA RESULT:      -8.9      3.073      7.656
  Name = 
  9 active torsions:
  status: ('A' for Active; 'I' for Inactive)
    1  A    between atoms: N_1  and  C_35
    2  A    between atoms: C_3  and  N_4
    3  A    between atoms: C_3  and  C_12
    4  A    between atoms: C_8  and  C_34
    5  A    between atoms: C_11  and  C_14
    6  A    between atoms: N_13  and  C_38
    7  A    between atoms: C_14  and  C_22
    8  A    between atoms: C_19  and  C_37
    9  A    between atoms: C_34  and  C_38
                            x       y       z     vdW  Elec       q    Type
                         _______ _______ _______ _____ _____    ______ ____

>  <TORSDO>
F 9

$$$$
=
 OpenBabel10262422093D

 43 48  0  0  1  0  0  0  0  0999 V2000
  190.5530  176.3750  139.8540 N   0  0  0  0  0  0  0  0  0  0  0  0
  189.7440  177.3560  140.1600 C   0  0  0  0  0  0  0  0  0  0  0  0
  188.9110  177.1200  146.6980 C   0  0  0  0  0  0  0  0  0  0  0  0
  189.3160  177.5210  141.5750 C   0  0  0  0  0  0  0  0  0  0  0  0
  188.4470  177.4410  144.3390 C   0  0  0  0  0  0  0  0  0  0  0  0
  190.2830  177.1580  146.4370 C   0  0  0  0  0  3  0  0  0  0  0  0
  188.4680  176.9530  147.9670 F   0  0  0  0  0  0  0  0  0  0  0  0
  189.8290  177.4830  144.0750 C   0  0  0  0  0  0  0  0  0  0  0  0
  187.9950  177.2720  145.6520 C   0  0  0  0  0  3  0  0  0  0  0  0
  190.7410  177.3400  145.1290 C   0  0  0  0  0  3  0  0  0  0  0  0
  191.5100  177.8830  142.4580 O   0  0  0  0  0  0  0  0  0  0  0  0
  190.2950  177.6440  142.6870 C   0  0  0  0  0  0  0  0  0  0  0  0
  188.0050  177.5030  141.8640 C   0  0  0  0  0  3  0  0  0  0  0  0
  187.4460  177.6970  143.2490 C   0  0  0  0  0  2  0  0  0  0  0  0
  190.9250  175.0990  136.2070 C   0  0  0  0  0  2  0  0  0  0  0  0
  192.4240  174.8550  136.3160 C   0  0  2  0  0  3  0  0  0  0  0  0
  192.3650  176.3530  138.3230 C   0  0  0  0  0  3  0  0  0  0  0  0
  190.3150  175.1560  137.6050 C   0  0  0  0  0  2  0  0  0  0  0  0
  191.0860  176.0400  138.5640 C   0  0  0  0  0  0  0  0  0  0  0  0
  193.0530  176.0540  137.0210 C   0  0  0  0  0  2  0  0  0  0  0  0
  194.5160  174.8850  134.9610 C   0  0  0  0  0  1  0  0  0  0  0  0
  193.0130  174.6900  134.9270 C   0  0  0  0  0  2  0  0  0  0  0  0
  189.3750  178.4000  139.1500 C   0  0  0  0  0  2  0  0  0  0  0  0
  187.0390  177.9710  138.3080 C   0  0  0  0  0  0  0  0  0  0  0  0
  185.6480  178.2540  138.3820 N   0  0  0  0  0  0  0  0  0  0  0  0
  187.4650  177.1430  137.4590 O   0  0  0  0  0  0  0  0  0  0  0  0
  184.2330  178.0590  137.9530 C   0  0  2  0  0  3  0  0  0  0  0  0
  187.9400  178.6310  139.1950 N   0  0  0  0  0  2  0  0  0  0  0  0
  184.4720  178.9640  138.9650 C   0  0  0  0  0  2  0  0  0  0  0  0
  183.7240  176.7450  138.5210 C   0  0  0  0  0  2  0  0  0  0  0  0
  183.0770  175.9640  137.4770 N   0  0  0  0  0  0  0  0  0  0  0  0
  182.8320  173.6020  137.1960 C   0  0  0  0  0  2  0  0  0  0  0  0
  181.8080  175.6050  137.9650 N   0  0  0  0  0  2  0  0  0  0  0  0
  183.8300  174.7250  137.3200 C   0  0  1  0  0  3  0  0  0  0  0  0
  181.5130  174.2800  137.4390 C   0  0  0  0  0  2  0  0  0  0  0  0
  184.7380  174.7900  136.1210 C   0  0  0  0  0  0  0  0  0  0  0  0
  184.3420  175.7680  134.8560 S   0  0  0  0  0  0  0  0  0  0  0  0
  185.9930  174.0010  136.1080 C   0  0  0  0  0  0  0  0  0  0  0  0
  188.0230  173.2650  135.0090 C   0  0  0  0  0  3  0  0  0  0  0  0
  187.5360  172.4840  137.1960 C   0  0  0  0  0  3  0  0  0  0  0  0
  188.3410  172.5190  136.1010 N   0  0  0  0  0  0  0  0  0  0  0  0
  186.3520  173.2230  137.2180 C   0  0  0  0  0  3  0  0  0  0  0  0
  186.8460  174.0160  134.9930 C   0  0  0  0  0  3  0  0  0  0  0  0
  1  2  2  0  0  0  0
  2  4  1  0  0  0  0
  3  7  1  0  0  0  0
  4 13  2  0  0  0  0
  4 12  1  0  0  0  0
  5  9  1  0  0  0  0
  6  3  1  0  0  0  0
  8  5  2  0  0  0  0
  8 10  1  0  0  0  0
  9  3  2  0  0  0  0
 10  6  2  0  0  0  0
 11 12  2  0  0  0  0
 12  8  1  0  0  0  0
 13 14  1  0  0  0  0
 14  5  1  0  0  0  0
 15 16  1  0  0  0  0
 15 18  1  0  0  0  0
 16 22  1  6  0  0  0
 16 20  1  0  0  0  0
 17 19  2  0  0  0  0
 18 19  1  0  0  0  0
 19  1  1  0  0  0  0
 20 17  1  0  0  0  0
 22 21  1  0  0  0  0
 23 28  1  0  0  0  0
 23  2  1  0  0  0  0
 24 25  1  0  0  0  0
 24 28  1  0  0  0  0
 25 29  1  0  0  0  0
 26 24  2  0  0  0  0
 27 25  1  0  0  0  0
 27 30  1  1  0  0  0
 27 29  1  0  0  0  0
 31 33  1  0  0  0  0
 31 30  1  0  0  0  0
 32 34  1  0  0  0  0
 32 35  1  0  0  0  0
 34 36  1  6  0  0  0
 34 31  1  0  0  0  0
 35 33  1  0  0  0  0
 37 36  2  0  0  0  0
 38 36  1  0  0  0  0
 38 42  1  0  0  0  0
 39 41  2  0  0  0  0
 40 42  2  0  0  0  0
 41 40  1  0  0  0  0
 43 39  1  0  0  0  0
 43 38  2  0  0  0  0
M  END
>  <MODEL>
7

>  <REMARK>
 VINA RESULT:      -8.8      2.753      7.013
  Name = 
  9 active torsions:
  status: ('A' for Active; 'I' for Inactive)
    1  A    between atoms: N_1  and  C_35
    2  A    between atoms: C_3  and  N_4
    3  A    between atoms: C_3  and  C_12
    4  A    between atoms: C_8  and  C_34
    5  A    between atoms: C_11  and  C_14
    6  A    between atoms: N_13  and  C_38
    7  A    between atoms: C_14  and  C_22
    8  A    between atoms: C_19  and  C_37
    9  A    between atoms: C_34  and  C_38
                            x       y       z     vdW  Elec       q    Type
                         _______ _______ _______ _____ _____    ______ ____

>  <TORSDO>
F 9

$$$$
=
 OpenBabel10262422093D

 43 48  0  0  1  0  0  0  0  0999 V2000
  184.4520  177.8760  142.8160 N   0  0  0  0  0  0  0  0  0  0  0  0
  185.6550  178.3820  142.7350 C   0  0  0  0  0  0  0  0  0  0  0  0
  190.1900  177.2010  147.3740 C   0  0  0  0  0  0  0  0  0  0  0  0
  186.7260  177.8370  143.6110 C   0  0  0  0  0  0  0  0  0  0  0  0
  189.0000  177.1280  145.2620 C   0  0  0  0  0  0  0  0  0  0  0  0
  189.0520  177.7170  148.0010 C   0  0  0  0  0  3  0  0  0  0  0  0
  191.3160  176.9780  148.0920 F   0  0  0  0  0  0  0  0  0  0  0  0
  187.8530  177.6450  145.8930 C   0  0  0  0  0  0  0  0  0  0  0  0
  190.1600  176.8970  146.0100 C   0  0  0  0  0  3  0  0  0  0  0  0
  187.8870  177.9380  147.2630 C   0  0  0  0  0  3  0  0  0  0  0  0
  185.5560  178.1710  145.6710 O   0  0  0  0  0  0  0  0  0  0  0  0
  186.6430  177.9020  145.0930 C   0  0  0  0  0  0  0  0  0  0  0  0
  187.8280  177.3200  143.0450 C   0  0  0  0  0  3  0  0  0  0  0  0
  188.9630  176.7050  143.8210 C   0  0  0  0  0  2  0  0  0  0  0  0
  181.1030  179.5120  141.7300 C   0  0  0  0  0  2  0  0  0  0  0  0
  180.7280  178.3940  140.7680 C   0  0  2  0  0  3  0  0  0  0  0  0
  183.1430  177.7290  140.8430 C   0  0  0  0  0  3  0  0  0  0  0  0
  182.1440  179.0030  142.7230 C   0  0  0  0  0  2  0  0  0  0  0  0
  183.2840  178.2500  142.0680 C   0  0  0  0  0  0  0  0  0  0  0  0
  181.9670  178.0270  139.9550 C   0  0  0  0  0  2  0  0  0  0  0  0
  179.3640  180.3510  140.0420 C   0  0  0  0  0  1  0  0  0  0  0  0
  179.6150  178.8680  139.8510 C   0  0  0  0  0  2  0  0  0  0  0  0
  186.0060  179.3800  141.6720 C   0  0  0  0  0  2  0  0  0  0  0  0
  187.1980  178.4680  139.6490 C   0  0  0  0  0  0  0  0  0  0  0  0
  187.1270  177.8480  138.3710 N   0  0  0  0  0  0  0  0  0  0  0  0
  188.3190  178.7870  140.1270 O   0  0  0  0  0  0  0  0  0  0  0  0
  187.7470  177.2780  137.1400 C   0  0  2  0  0  3  0  0  0  0  0  0
  185.9970  178.7270  140.3730 N   0  0  0  0  0  2  0  0  0  0  0  0
  186.3720  177.2430  137.2340 C   0  0  0  0  0  2  0  0  0  0  0  0
  188.3390  175.9190  137.4710 C   0  0  0  0  0  2  0  0  0  0  0  0
  189.5060  175.6640  136.6390 N   0  0  0  0  0  0  0  0  0  0  0  0
  190.9960  173.7960  136.5410 C   0  0  0  0  0  2  0  0  0  0  0  0
  189.0810  174.8320  135.5870 N   0  0  0  0  0  2  0  0  0  0  0  0
  190.4530  174.8850  137.4300 C   0  0  1  0  0  3  0  0  0  0  0  0
  190.1880  173.9390  135.2820 C   0  0  0  0  0  2  0  0  0  0  0  0
  191.5540  175.7570  137.9700 C   0  0  0  0  0  0  0  0  0  0  0  0
  191.2490  176.7490  139.2490 S   0  0  0  0  0  0  0  0  0  0  0  0
  192.9070  175.6880  137.3670 C   0  0  0  0  0  0  0  0  0  0  0  0
  194.4920  176.2960  135.6390 C   0  0  0  0  0  3  0  0  0  0  0  0
  195.1860  174.8700  137.4020 C   0  0  0  0  0  3  0  0  0  0  0  0
  195.4470  175.5490  136.2540 N   0  0  0  0  0  0  0  0  0  0  0  0
  193.9150  174.9290  137.9780 C   0  0  0  0  0  3  0  0  0  0  0  0
  193.2080  176.3780  136.1820 C   0  0  0  0  0  3  0  0  0  0  0  0
  2  1  2  0  0  0  0
  2  4  1  0  0  0  0
  3  6  1  0  0  0  0
  3  7  1  0  0  0  0
  4 12  1  0  0  0  0
  5  8  2  0  0  0  0
  5  9  1  0  0  0  0
  8 10  1  0  0  0  0
  9  3  2  0  0  0  0
 10  6  2  0  0  0  0
 12 11  2  0  0  0  0
 12  8  1  0  0  0  0
 13  4  2  0  0  0  0
 13 14  1  0  0  0  0
 14  5  1  0  0  0  0
 15 18  1  0  0  0  0
 16 22  1  6  0  0  0
 16 15  1  0  0  0  0
 17 19  2  0  0  0  0
 19 18  1  0  0  0  0
 19  1  1  0  0  0  0
 20 16  1  0  0  0  0
 20 17  1  0  0  0  0
 22 21  1  0  0  0  0
 23  2  1  0  0  0  0
 24 26  2  0  0  0  0
 24 28  1  0  0  0  0
 25 24  1  0  0  0  0
 27 29  1  0  0  0  0
 27 30  1  1  0  0  0
 27 25  1  0  0  0  0
 28 23  1  0  0  0  0
 29 25  1  0  0  0  0
 31 34  1  0  0  0  0
 31 30  1  0  0  0  0
 32 34  1  0  0  0  0
 33 31  1  0  0  0  0
 34 36  1  6  0  0  0
 35 33  1  0  0  0  0
 35 32  1  0  0  0  0
 36 37  2  0  0  0  0
 38 36  1  0  0  0  0
 38 42  1  0  0  0  0
 39 43  1  0  0  0  0
 39 41  2  0  0  0  0
 40 42  2  0  0  0  0
 41 40  1  0  0  0  0
 43 38  2  0  0  0  0
M  END
>  <MODEL>
8

>  <REMARK>
 VINA RESULT:      -8.7      1.624      2.006
  Name = 
  9 active torsions:
  status: ('A' for Active; 'I' for Inactive)
    1  A    between atoms: N_1  and  C_35
    2  A    between atoms: C_3  and  N_4
    3  A    between atoms: C_3  and  C_12
    4  A    between atoms: C_8  and  C_34
    5  A    between atoms: C_11  and  C_14
    6  A    between atoms: N_13  and  C_38
    7  A    between atoms: C_14  and  C_22
    8  A    between atoms: C_19  and  C_37
    9  A    between atoms: C_34  and  C_38
                            x       y       z     vdW  Elec       q    Type
                         _______ _______ _______ _____ _____    ______ ____

>  <TORSDO>
F 9

$$$$
=
 OpenBabel10262422093D

 43 48  0  0  1  0  0  0  0  0999 V2000
  187.3840  178.2620  145.0010 N   0  0  0  0  0  0  0  0  0  0  0  0
  186.8970  177.6280  143.9660 C   0  0  0  0  0  0  0  0  0  0  0  0
  180.6570  178.8760  142.2350 C   0  0  0  0  0  0  0  0  0  0  0  0
  185.6300  178.1120  143.3550 C   0  0  0  0  0  0  0  0  0  0  0  0
  183.0700  178.6640  142.1130 C   0  0  0  0  0  0  0  0  0  0  0  0
  180.7200  178.8380  143.6300 C   0  0  0  0  0  3  0  0  0  0  0  0
  179.4600  179.0030  141.6150 F   0  0  0  0  0  0  0  0  0  0  0  0
  183.1360  178.6300  143.5190 C   0  0  0  0  0  0  0  0  0  0  0  0
  181.8310  178.8000  141.4780 C   0  0  0  0  0  3  0  0  0  0  0  0
  181.9560  178.7170  144.2710 C   0  0  0  0  0  3  0  0  0  0  0  0
  184.5430  178.6370  145.4220 O   0  0  0  0  0  0  0  0  0  0  0  0
  184.4440  178.4690  144.1770 C   0  0  0  0  0  0  0  0  0  0  0  0
  185.5350  178.1740  142.0180 C   0  0  0  0  0  3  0  0  0  0  0  0
  184.3220  178.6810  141.2830 C   0  0  0  0  0  2  0  0  0  0  0  0
  191.1030  177.7310  145.9780 C   0  0  0  0  0  2  0  0  0  0  0  0
  190.7950  176.7430  147.0940 C   0  0  2  0  0  3  0  0  0  0  0  0
  188.4520  177.6280  147.0220 C   0  0  0  0  0  3  0  0  0  0  0  0
  189.9130  177.8100  145.0250 C   0  0  0  0  0  2  0  0  0  0  0  0
  188.5830  177.9680  145.7330 C   0  0  0  0  0  0  0  0  0  0  0  0
  189.6210  177.2870  147.9040 C   0  0  0  0  0  2  0  0  0  0  0  0
  192.6990  175.2550  147.7080 C   0  0  0  0  0  1  0  0  0  0  0  0
  192.0180  176.5830  147.9790 C   0  0  0  0  0  2  0  0  0  0  0  0
  187.6690  176.5330  143.2940 C   0  0  0  0  0  2  0  0  0  0  0  0
  189.4770  176.6060  141.5410 C   0  0  0  0  0  0  0  0  0  0  0  0
  189.9600  177.1360  140.3130 N   0  0  0  0  0  0  0  0  0  0  0  0
  190.1770  175.7800  142.1830 O   0  0  0  0  0  0  0  0  0  0  0  0
  190.9730  177.2380  139.2230 C   0  0  2  0  0  3  0  0  0  0  0  0
  188.2040  177.0210  142.0340 N   0  0  0  0  0  2  0  0  0  0  0  0
  189.8340  178.0050  139.1070 C   0  0  0  0  0  2  0  0  0  0  0  0
  190.8760  176.0020  138.3440 C   0  0  0  0  0  2  0  0  0  0  0  0
  191.1960  176.3410  136.9650 N   0  0  0  0  0  0  0  0  0  0  0  0
  191.1600  175.0270  134.9680 C   0  0  0  0  0  2  0  0  0  0  0  0
  189.9740  176.5870  136.3120 N   0  0  0  0  0  2  0  0  0  0  0  0
  191.7710  175.1560  136.3390 C   0  0  1  0  0  3  0  0  0  0  0  0
  190.1240  176.1140  134.9450 C   0  0  0  0  0  2  0  0  0  0  0  0
  193.2710  175.2550  136.2670 C   0  0  0  0  0  0  0  0  0  0  0  0
  193.9640  176.3710  135.2730 S   0  0  0  0  0  0  0  0  0  0  0  0
  194.1070  174.3730  137.1170 C   0  0  0  0  0  0  0  0  0  0  0  0
  195.0930  172.2150  137.6060 C   0  0  0  0  0  3  0  0  0  0  0  0
  195.5090  174.0390  139.0630 C   0  0  0  0  0  3  0  0  0  0  0  0
  195.6760  172.7350  138.7180 N   0  0  0  0  0  0  0  0  0  0  0  0
  194.7240  174.8790  138.2700 C   0  0  0  0  0  3  0  0  0  0  0  0
  194.2990  173.0220  136.7880 C   0  0  0  0  0  3  0  0  0  0  0  0
  1 19  1  0  0  0  0
  2  1  2  0  0  0  0
  3  6  1  0  0  0  0
  4  2  1  0  0  0  0
  4 12  1  0  0  0  0
  5  8  2  0  0  0  0
  6 10  2  0  0  0  0
  7  3  1  0  0  0  0
  8 12  1  0  0  0  0
  8 10  1  0  0  0  0
  9  5  1  0  0  0  0
  9  3  2  0  0  0  0
 12 11  2  0  0  0  0
 13  4  2  0  0  0  0
 14 13  1  0  0  0  0
 14  5  1  0  0  0  0
 15 16  1  0  0  0  0
 16 20  1  0  0  0  0
 16 22  1  1  0  0  0
 17 20  1  0  0  0  0
 18 19  1  0  0  0  0
 18 15  1  0  0  0  0
 19 17  2  0  0  0  0
 21 22  1  0  0  0  0
 23  2  1  0  0  0  0
 24 28  1  0  0  0  0
 24 26  2  0  0  0  0
 25 24  1  0  0  0  0
 27 30  1  6  0  0  0
 27 25  1  0  0  0  0
 28 23  1  0  0  0  0
 29 27  1  0  0  0  0
 29 25  1  0  0  0  0
 31 30  1  0  0  0  0
 32 34  1  0  0  0  0
 33 31  1  0  0  0  0
 34 36  1  6  0  0  0
 34 31  1  0  0  0  0
 35 32  1  0  0  0  0
 35 33  1  0  0  0  0
 36 38  1  0  0  0  0
 37 36  2  0  0  0  0
 38 42  1  0  0  0  0
 39 41  2  0  0  0  0
 41 40  1  0  0  0  0
 42 40  2  0  0  0  0
 43 38  2  0  0  0  0
 43 39  1  0  0  0  0
M  END
>  <MODEL>
9

>  <REMARK>
 VINA RESULT:      -8.7      3.185      6.915
  Name = 
  9 active torsions:
  status: ('A' for Active; 'I' for Inactive)
    1  A    between atoms: N_1  and  C_35
    2  A    between atoms: C_3  and  N_4
    3  A    between atoms: C_3  and  C_12
    4  A    between atoms: C_8  and  C_34
    5  A    between atoms: C_11  and  C_14
    6  A    between atoms: N_13  and  C_38
    7  A    between atoms: C_14  and  C_22
    8  A    between atoms: C_19  and  C_37
    9  A    between atoms: C_34  and  C_38
                            x       y       z     vdW  Elec       q    Type
                         _______ _______ _______ _____ _____    ______ ____

>  <TORSDO>
F 9

$$$$
