=
 OpenBabel10262422333D

 43 49  0  0  1  0  0  0  0  0999 V2000
  187.7380  177.6380  147.7160 C   0  0  0  0  0  0  0  0  0  0  0  0
  186.3020  178.5950  142.9540 C   0  0  0  0  0  0  0  0  0  0  0  0
  188.4610  177.8760  141.2900 C   0  0  0  0  0  0  0  0  0  0  0  0
  186.4940  178.2920  145.7430 C   0  0  0  0  0  0  0  0  0  0  0  0
  188.8240  177.2750  146.9170 C   0  0  0  0  0  3  0  0  0  0  0  0
  187.8120  177.4940  149.0940 O   0  0  0  0  0  1  0  0  0  0  0  0
  187.5910  177.9270  144.9230 C   0  0  0  0  0  0  0  0  0  0  0  0
  186.5750  178.1460  147.1300 C   0  0  0  0  0  3  0  0  0  0  0  0
  188.7530  177.4180  145.5290 C   0  0  0  0  0  3  0  0  0  0  0  0
  188.5570  177.7260  142.6790 C   0  0  0  0  0  3  0  0  0  0  0  0
  187.4930  178.0780  143.5240 C   0  0  0  0  0  0  0  0  0  0  0  0
  185.2320  178.9500  143.7880 C   0  0  0  0  0  3  0  0  0  0  0  0
  186.1940  178.7480  141.5610 C   0  0  0  0  0  0  0  0  0  0  0  0
  187.2760  178.3870  140.7450 C   0  0  0  0  0  3  0  0  0  0  0  0
  185.3280  178.8000  145.1710 C   0  0  0  0  0  3  0  0  0  0  0  0
  189.6020  177.4900  140.4300 C   0  0  0  0  0  0  0  0  0  0  0  0
  191.1230  177.4140  141.0590 S   0  0  0  0  0  0  0  0  0  0  0  0
  189.3400  177.1190  139.0660 N   0  0  0  0  0  2  0  0  0  0  0  0
  189.1750  177.9810  137.9330 C   0  0  0  0  0  0  0  0  0  0  0  0
  189.1210  179.2330  138.0600 O   0  0  0  0  0  0  0  0  0  0  0  0
  189.0020  177.3800  136.5830 C   0  0  0  0  0  2  0  0  0  0  0  0
  189.6080  176.0540  136.5540 N   0  0  0  0  0  0  0  0  0  0  0  0
  188.9340  174.5640  134.7380 C   0  0  0  0  0  2  0  0  0  0  0  0
  187.3000  174.9450  136.8590 C   0  0  2  0  0  3  0  0  0  0  0  0
  190.6050  176.0950  135.5540 N   0  0  0  0  0  2  0  0  0  0  0  0
  188.6100  175.1060  136.0900 C   0  0  2  0  0  0  0  0  0  0  0  0
  188.4490  173.9780  137.0900 C   0  0  0  0  0  2  0  0  0  0  0  0
  190.3640  175.0120  134.5950 C   0  0  0  0  0  2  0  0  0  0  0  0
  186.2200  174.2960  135.9970 C   0  0  0  0  0  3  0  0  0  0  0  0
  184.9940  172.9980  137.7640 C   0  0  0  0  0  2  0  0  0  0  0  0
  184.1790  175.0370  137.2590 C   0  0  0  0  0  2  0  0  0  0  0  0
  183.8130  173.6940  137.4580 O   0  0  0  0  0  0  0  0  0  0  0  0
  184.9660  175.1750  135.9540 C   0  0  0  0  0  2  0  0  0  0  0  0
  185.8800  172.8960  136.5190 C   0  0  0  0  0  2  0  0  0  0  0  0
  185.0120  179.2590  141.0060 O   0  0  0  0  0  0  0  0  0  0  0  0
  182.0760  177.1940  139.9120 C   0  0  0  0  0  2  0  0  0  0  0  0
  181.6160  178.1140  138.8610 N   0  0  0  0  0  0  0  0  0  0  0  0
  183.6830  179.4310  139.0070 C   0  0  0  0  0  2  0  0  0  0  0  0
  182.9950  177.9280  140.8830 C   0  0  0  0  0  2  0  0  0  0  0  0
  184.1810  178.5170  140.1200 C   0  0  0  0  0  3  0  0  0  0  0  0
  182.7440  178.6560  138.0870 C   0  0  0  0  0  2  0  0  0  0  0  0
  180.1340  176.3860  138.6810 C   0  0  0  0  0  1  0  0  0  0  0  0
  180.6820  177.5220  138.0440 O   0  0  0  0  0  0  0  0  0  0  0  0
  1  6  1  0  0  0  0
  2 11  1  0  0  0  0
  2 12  1  0  0  0  0
  3 10  1  0  0  0  0
  4  8  2  0  0  0  0
  5  1  2  0  0  0  0
  7  9  2  0  0  0  0
  7  4  1  0  0  0  0
  8  1  1  0  0  0  0
  9  5  1  0  0  0  0
 10 11  2  0  0  0  0
 11  7  1  0  0  0  0
 12 15  2  0  0  0  0
 13  2  2  0  0  0  0
 14  3  2  0  0  0  0
 14 13  1  0  0  0  0
 15  4  1  0  0  0  0
 16 17  2  0  0  0  0
 16  3  1  0  0  0  0
 18 16  1  0  0  0  0
 19 20  2  0  0  0  0
 19 18  1  0  0  0  0
 21 19  1  0  0  0  0
 22 21  1  0  0  0  0
 24 29  1  6  0  0  0
 24 27  1  0  0  0  0
 25 22  1  0  0  0  0
 26 23  1  6  0  0  0
 26 22  1  0  0  0  0
 26 24  1  0  0  0  0
 26 27  1  0  0  0  0
 28 23  1  0  0  0  0
 28 25  1  0  0  0  0
 29 34  1  0  0  0  0
 31 32  1  0  0  0  0
 32 30  1  0  0  0  0
 33 29  1  0  0  0  0
 33 31  1  0  0  0  0
 34 30  1  0  0  0  0
 35 13  1  0  0  0  0
 36 39  1  0  0  0  0
 37 36  1  0  0  0  0
 38 40  1  0  0  0  0
 40 39  1  0  0  0  0
 40 35  1  0  0  0  0
 41 37  1  0  0  0  0
 41 38  1  0  0  0  0
 43 42  1  0  0  0  0
 43 37  1  0  0  0  0
M  END
>  <MODEL>
1

>  <REMARK>
 VINA RESULT:      -9.5      0.000      0.000
  Name = 
  8 active torsions:
  status: ('A' for Active; 'I' for Inactive)
    1  A    between atoms: O_1  and  C_34
    2  A    between atoms: O_1  and  C_35
    3  A    between atoms: C_2  and  N_6
    4  A    between atoms: C_2  and  C_13
    5  A    between atoms: C_3  and  N_4
    6  A    between atoms: C_3  and  C_12
    7  A    between atoms: C_11  and  C_14
    8  A    between atoms: N_19  and  O_37
                            x       y       z     vdW  Elec       q    Type
                         _______ _______ _______ _____ _____    ______ ____

>  <TORSDO>
F 8

$$$$
=
 OpenBabel10262422333D

 43 49  0  0  1  0  0  0  0  0999 V2000
  191.6360  176.1440  147.2150 C   0  0  0  0  0  0  0  0  0  0  0  0
  187.7780  177.8420  144.4070 C   0  0  0  0  0  0  0  0  0  0  0  0
  188.5600  177.5910  141.7100 C   0  0  0  0  0  0  0  0  0  0  0  0
  189.5190  177.0540  146.4700 C   0  0  0  0  0  0  0  0  0  0  0  0
  192.0510  176.0100  145.8880 C   0  0  0  0  0  3  0  0  0  0  0  0
  192.4790  175.7580  148.2480 O   0  0  0  0  0  1  0  0  0  0  0  0
  189.9300  176.9220  145.1200 C   0  0  0  0  0  0  0  0  0  0  0  0
  190.3720  176.6650  147.5060 C   0  0  0  0  0  3  0  0  0  0  0  0
  191.2050  176.3960  144.8460 C   0  0  0  0  0  3  0  0  0  0  0  0
  189.4260  177.2000  142.7370 C   0  0  0  0  0  3  0  0  0  0  0  0
  189.0560  177.3170  144.0860 C   0  0  0  0  0  0  0  0  0  0  0  0
  187.3970  177.9630  145.7510 C   0  0  0  0  0  3  0  0  0  0  0  0
  186.8990  178.2350  143.3840 C   0  0  0  0  0  0  0  0  0  0  0  0
  187.3010  178.1060  142.0460 C   0  0  0  0  0  3  0  0  0  0  0  0
  188.2600  177.5720  146.7730 C   0  0  0  0  0  3  0  0  0  0  0  0
  188.9830  177.4490  140.2990 C   0  0  0  0  0  0  0  0  0  0  0  0
  190.5780  177.2790  139.9270 S   0  0  0  0  0  0  0  0  0  0  0  0
  187.9700  177.3920  139.2800 N   0  0  0  0  0  2  0  0  0  0  0  0
  187.8390  178.2220  138.1180 C   0  0  0  0  0  0  0  0  0  0  0  0
  188.5820  179.2230  137.9370 O   0  0  0  0  0  0  0  0  0  0  0  0
  186.7610  177.9300  137.1360 C   0  0  0  0  0  2  0  0  0  0  0  0
  186.7540  176.5060  136.8210 N   0  0  0  0  0  0  0  0  0  0  0  0
  185.4300  175.8000  134.8920 C   0  0  0  0  0  2  0  0  0  0  0  0
  184.2130  176.3820  137.2370 C   0  0  2  0  0  3  0  0  0  0  0  0
  187.6270  176.3390  135.7230 N   0  0  0  0  0  2  0  0  0  0  0  0
  185.4300  176.1500  136.3430 C   0  0  2  0  0  0  0  0  0  0  0  0
  184.8610  175.0100  137.1650 C   0  0  0  0  0  2  0  0  0  0  0  0
  186.9070  175.6550  134.6430 C   0  0  0  0  0  2  0  0  0  0  0  0
  182.9190  176.4040  136.4270 C   0  0  0  0  0  3  0  0  0  0  0  0
  181.2480  176.3040  138.2990 C   0  0  0  0  0  2  0  0  0  0  0  0
  181.7750  178.3530  137.5220 C   0  0  0  0  0  2  0  0  0  0  0  0
  180.6950  177.5240  137.8720 O   0  0  0  0  0  0  0  0  0  0  0  0
  182.4290  177.8430  136.2360 C   0  0  0  0  0  2  0  0  0  0  0  0
  181.8410  175.5520  137.1050 C   0  0  0  0  0  2  0  0  0  0  0  0
  185.6380  178.7530  143.7100 O   0  0  0  0  0  0  0  0  0  0  0  0
  181.9440  178.5250  143.0820 C   0  0  0  0  0  2  0  0  0  0  0  0
  181.9990  178.9220  141.6670 N   0  0  0  0  0  0  0  0  0  0  0  0
  184.4430  178.7010  141.6210 C   0  0  0  0  0  2  0  0  0  0  0  0
  183.2270  178.9470  143.7920 C   0  0  0  0  0  2  0  0  0  0  0  0
  184.4310  178.3140  143.0960 C   0  0  0  0  0  3  0  0  0  0  0  0
  183.1270  178.2850  140.9710 C   0  0  0  0  0  2  0  0  0  0  0  0
  179.9330  177.9750  141.8880 C   0  0  0  0  0  1  0  0  0  0  0  0
  180.8070  178.6760  141.0270 O   0  0  0  0  0  0  0  0  0  0  0  0
  1  8  1  0  0  0  0
  1  6  1  0  0  0  0
  2 12  1  0  0  0  0
  3 14  2  0  0  0  0
  3 10  1  0  0  0  0
  4 15  1  0  0  0  0
  4  8  2  0  0  0  0
  5  1  2  0  0  0  0
  7  4  1  0  0  0  0
  9  7  2  0  0  0  0
  9  5  1  0  0  0  0
 10 11  2  0  0  0  0
 11  2  1  0  0  0  0
 11  7  1  0  0  0  0
 12 15  2  0  0  0  0
 13 35  1  0  0  0  0
 13  2  2  0  0  0  0
 14 13  1  0  0  0  0
 16  3  1  0  0  0  0
 17 16  2  0  0  0  0
 18 16  1  0  0  0  0
 19 18  1  0  0  0  0
 20 19  2  0  0  0  0
 21 19  1  0  0  0  0
 22 21  1  0  0  0  0
 24 29  1  6  0  0  0
 25 22  1  0  0  0  0
 26 23  1  6  0  0  0
 26 22  1  0  0  0  0
 26 27  1  0  0  0  0
 26 24  1  0  0  0  0
 27 24  1  0  0  0  0
 28 23  1  0  0  0  0
 28 25  1  0  0  0  0
 29 34  1  0  0  0  0
 31 32  1  0  0  0  0
 32 30  1  0  0  0  0
 33 29  1  0  0  0  0
 33 31  1  0  0  0  0
 34 30  1  0  0  0  0
 36 39  1  0  0  0  0
 37 36  1  0  0  0  0
 38 40  1  0  0  0  0
 40 35  1  0  0  0  0
 40 39  1  0  0  0  0
 41 38  1  0  0  0  0
 41 37  1  0  0  0  0
 43 37  1  0  0  0  0
 43 42  1  0  0  0  0
M  END
>  <MODEL>
2

>  <REMARK>
 VINA RESULT:      -9.2      2.044      3.178
  Name = 
  8 active torsions:
  status: ('A' for Active; 'I' for Inactive)
    1  A    between atoms: O_1  and  C_34
    2  A    between atoms: O_1  and  C_35
    3  A    between atoms: C_2  and  N_6
    4  A    between atoms: C_2  and  C_13
    5  A    between atoms: C_3  and  N_4
    6  A    between atoms: C_3  and  C_12
    7  A    between atoms: C_11  and  C_14
    8  A    between atoms: N_19  and  O_37
                            x       y       z     vdW  Elec       q    Type
                         _______ _______ _______ _____ _____    ______ ____

>  <TORSDO>
F 8

$$$$
=
 OpenBabel10262422333D

 43 49  0  0  1  0  0  0  0  0999 V2000
  191.2830  176.7460  147.0040 C   0  0  0  0  0  0  0  0  0  0  0  0
  187.0950  177.8300  144.3700 C   0  0  0  0  0  0  0  0  0  0  0  0
  187.8400  177.9170  141.6520 C   0  0  0  0  0  0  0  0  0  0  0  0
  189.0090  177.2680  146.3510 C   0  0  0  0  0  0  0  0  0  0  0  0
  191.6810  176.7850  145.6660 C   0  0  0  0  0  3  0  0  0  0  0  0
  192.2120  176.4670  147.9960 O   0  0  0  0  0  1  0  0  0  0  0  0
  189.4030  177.3080  144.9900 C   0  0  0  0  0  0  0  0  0  0  0  0
  189.9490  176.9870  147.3460 C   0  0  0  0  0  3  0  0  0  0  0  0
  190.7490  177.0640  144.6640 C   0  0  0  0  0  3  0  0  0  0  0  0
  188.7930  177.6380  142.6390 C   0  0  0  0  0  3  0  0  0  0  0  0
  188.4420  177.5900  143.9970 C   0  0  0  0  0  0  0  0  0  0  0  0
  186.7320  177.7850  145.7230 C   0  0  0  0  0  3  0  0  0  0  0  0
  186.1290  178.1090  143.3880 C   0  0  0  0  0  0  0  0  0  0  0  0
  186.5130  178.1500  142.0390 C   0  0  0  0  0  3  0  0  0  0  0  0
  187.6820  177.5060  146.7050 C   0  0  0  0  0  3  0  0  0  0  0  0
  188.2460  177.9540  140.2300 C   0  0  0  0  0  0  0  0  0  0  0  0
  187.1270  178.2530  139.0580 S   0  0  0  0  0  0  0  0  0  0  0  0
  189.6370  177.7940  139.9070 N   0  0  0  0  0  2  0  0  0  0  0  0
  190.2780  176.6690  139.2910 C   0  0  0  0  0  0  0  0  0  0  0  0
  189.6550  175.5970  139.0700 O   0  0  0  0  0  0  0  0  0  0  0  0
  191.7260  176.7500  138.9600 C   0  0  0  0  0  2  0  0  0  0  0  0
  191.8940  176.9130  137.5210 N   0  0  0  0  0  0  0  0  0  0  0  0
  191.9530  174.8770  136.1710 C   0  0  0  0  0  2  0  0  0  0  0  0
  194.1270  175.6280  137.5920 C   0  0  2  0  0  3  0  0  0  0  0  0
  190.6160  176.7250  136.9490 N   0  0  0  0  0  2  0  0  0  0  0  0
  192.7200  175.8240  137.0310 C   0  0  2  0  0  0  0  0  0  0  0  0
  193.9210  176.3690  136.2820 C   0  0  0  0  0  2  0  0  0  0  0  0
  190.7030  175.6790  135.9240 C   0  0  0  0  0  2  0  0  0  0  0  0
  194.6430  174.2150  137.3320 C   0  0  0  0  0  3  0  0  0  0  0  0
  197.0700  174.7190  136.9260 C   0  0  0  0  0  2  0  0  0  0  0  0
  196.4960  174.1290  139.0240 C   0  0  0  0  0  2  0  0  0  0  0  0
  197.4240  173.8810  137.9970 O   0  0  0  0  0  0  0  0  0  0  0  0
  195.1260  173.5700  138.6340 C   0  0  0  0  0  2  0  0  0  0  0  0
  195.7660  174.2320  136.2890 C   0  0  0  0  0  2  0  0  0  0  0  0
  184.8000  178.3450  143.7650 O   0  0  0  0  0  0  0  0  0  0  0  0
  182.5480  178.3740  140.7630 C   0  0  0  0  0  2  0  0  0  0  0  0
  181.2860  178.4780  141.5110 N   0  0  0  0  0  0  0  0  0  0  0  0
  182.4790  178.9620  143.6010 C   0  0  0  0  0  2  0  0  0  0  0  0
  183.6600  177.8790  141.6820 C   0  0  0  0  0  2  0  0  0  0  0  0
  183.8090  178.8320  142.8670 C   0  0  0  0  0  3  0  0  0  0  0  0
  181.3990  179.4270  142.6290 C   0  0  0  0  0  2  0  0  0  0  0  0
  179.7990  180.1140  140.9400 C   0  0  0  0  0  1  0  0  0  0  0  0
  180.2340  178.7950  140.6840 O   0  0  0  0  0  0  0  0  0  0  0  0
  1  8  1  0  0  0  0
  1  6  1  0  0  0  0
  2 12  1  0  0  0  0
  3 14  2  0  0  0  0
  3 10  1  0  0  0  0
  4 15  1  0  0  0  0
  4  8  2  0  0  0  0
  5  1  2  0  0  0  0
  7  4  1  0  0  0  0
  9  7  2  0  0  0  0
  9  5  1  0  0  0  0
 10 11  2  0  0  0  0
 11  2  1  0  0  0  0
 11  7  1  0  0  0  0
 12 15  2  0  0  0  0
 13 35  1  0  0  0  0
 13  2  2  0  0  0  0
 14 13  1  0  0  0  0
 16  3  1  0  0  0  0
 17 16  2  0  0  0  0
 18 16  1  0  0  0  0
 19 18  1  0  0  0  0
 20 19  2  0  0  0  0
 21 19  1  0  0  0  0
 22 21  1  0  0  0  0
 24 29  1  6  0  0  0
 25 22  1  0  0  0  0
 26 23  1  6  0  0  0
 26 22  1  0  0  0  0
 26 24  1  0  0  0  0
 27 26  1  0  0  0  0
 27 24  1  0  0  0  0
 28 23  1  0  0  0  0
 28 25  1  0  0  0  0
 29 33  1  0  0  0  0
 30 32  1  0  0  0  0
 32 31  1  0  0  0  0
 33 31  1  0  0  0  0
 34 30  1  0  0  0  0
 34 29  1  0  0  0  0
 36 37  1  0  0  0  0
 36 39  1  0  0  0  0
 37 41  1  0  0  0  0
 39 40  1  0  0  0  0
 40 38  1  0  0  0  0
 40 35  1  0  0  0  0
 41 38  1  0  0  0  0
 43 42  1  0  0  0  0
 43 37  1  0  0  0  0
M  END
>  <MODEL>
3

>  <REMARK>
 VINA RESULT:      -8.7      3.512      5.197
  Name = 
  8 active torsions:
  status: ('A' for Active; 'I' for Inactive)
    1  A    between atoms: O_1  and  C_34
    2  A    between atoms: O_1  and  C_35
    3  A    between atoms: C_2  and  N_6
    4  A    between atoms: C_2  and  C_13
    5  A    between atoms: C_3  and  N_4
    6  A    between atoms: C_3  and  C_12
    7  A    between atoms: C_11  and  C_14
    8  A    between atoms: N_19  and  O_37
                            x       y       z     vdW  Elec       q    Type
                         _______ _______ _______ _____ _____    ______ ____

>  <TORSDO>
F 8

$$$$
=
 OpenBabel10262422333D

 43 49  0  0  1  0  0  0  0  0999 V2000
  190.8440  176.7750  146.8490 C   0  0  0  0  0  0  0  0  0  0  0  0
  188.9350  178.1270  142.3570 C   0  0  0  0  0  0  0  0  0  0  0  0
  186.1370  178.2780  142.6710 C   0  0  0  0  0  0  0  0  0  0  0  0
  190.5720  177.4130  144.5280 C   0  0  0  0  0  0  0  0  0  0  0  0
  189.4610  176.8400  147.0340 C   0  0  0  0  0  3  0  0  0  0  0  0
  191.6690  176.4280  147.9090 O   0  0  0  0  0  1  0  0  0  0  0  0
  189.1680  177.4820  144.7050 C   0  0  0  0  0  0  0  0  0  0  0  0
  191.3990  177.0610  145.5980 C   0  0  0  0  0  3  0  0  0  0  0  0
  188.6260  177.1910  145.9690 C   0  0  0  0  0  3  0  0  0  0  0  0
  186.9530  177.9220  143.7520 C   0  0  0  0  0  3  0  0  0  0  0  0
  188.3470  177.8410  143.6150 C   0  0  0  0  0  0  0  0  0  0  0  0
  190.3260  178.0510  142.2080 C   0  0  0  0  0  3  0  0  0  0  0  0
  188.1260  178.4890  141.2660 C   0  0  0  0  0  0  0  0  0  0  0  0
  186.7350  178.5590  141.4350 C   0  0  0  0  0  3  0  0  0  0  0  0
  191.1380  177.6970  143.2850 C   0  0  0  0  0  3  0  0  0  0  0  0
  184.6700  178.3580  142.8540 C   0  0  0  0  0  0  0  0  0  0  0  0
  184.0420  178.8450  144.2960 S   0  0  0  0  0  0  0  0  0  0  0  0
  183.8210  178.0700  141.7300 N   0  0  0  0  0  2  0  0  0  0  0  0
  182.4670  178.4890  141.5150 C   0  0  0  0  0  0  0  0  0  0  0  0
  181.8150  179.0900  142.4090 O   0  0  0  0  0  0  0  0  0  0  0  0
  181.7990  178.1540  140.2290 C   0  0  0  0  0  2  0  0  0  0  0  0
  182.4790  178.8290  139.1310 N   0  0  0  0  0  0  0  0  0  0  0  0
  181.2490  179.0500  137.0300 C   0  0  0  0  0  2  0  0  0  0  0  0
  182.3830  176.6880  137.6980 C   0  0  2  0  0  3  0  0  0  0  0  0
  181.9380  180.1320  139.0700 N   0  0  0  0  0  2  0  0  0  0  0  0
  182.1010  178.1760  137.8890 C   0  0  2  0  0  0  0  0  0  0  0  0
  183.3350  177.7270  137.1320 C   0  0  0  0  0  2  0  0  0  0  0  0
  181.4400  180.3790  137.7120 C   0  0  0  0  0  2  0  0  0  0  0  0
  181.5210  176.0920  136.5880 C   0  0  0  0  0  3  0  0  0  0  0  0
  182.8240  173.9960  136.1200 C   0  0  0  0  0  2  0  0  0  0  0  0
  181.1010  173.8150  137.5620 C   0  0  0  0  0  2  0  0  0  0  0  0
  181.6940  173.2220  136.4330 O   0  0  0  0  0  0  0  0  0  0  0  0
  180.4630  175.1510  137.1740 C   0  0  0  0  0  2  0  0  0  0  0  0
  182.3900  175.3550  135.5630 C   0  0  0  0  0  2  0  0  0  0  0  0
  188.7150  178.7700  140.0250 O   0  0  0  0  0  0  0  0  0  0  0  0
  188.5380  178.0200  136.3520 C   0  0  0  0  0  2  0  0  0  0  0  0
  189.3790  176.8130  136.3950 N   0  0  0  0  0  0  0  0  0  0  0  0
  189.2950  176.7530  138.8480 C   0  0  0  0  0  2  0  0  0  0  0  0
  188.7620  178.8570  137.6070 C   0  0  0  0  0  2  0  0  0  0  0  0
  188.4470  178.0190  138.8460 C   0  0  0  0  0  3  0  0  0  0  0  0
  189.0560  175.9730  137.5580 C   0  0  0  0  0  2  0  0  0  0  0  0
  190.5640  175.5520  134.9060 C   0  0  0  0  0  1  0  0  0  0  0  0
  189.3020  176.1020  135.2210 O   0  0  0  0  0  0  0  0  0  0  0  0
  1  5  1  0  0  0  0
  1  6  1  0  0  0  0
  2 11  1  0  0  0  0
  3 16  1  0  0  0  0
  3 10  1  0  0  0  0
  4  7  2  0  0  0  0
  4  8  1  0  0  0  0
  7  9  1  0  0  0  0
  8  1  2  0  0  0  0
  9  5  2  0  0  0  0
 11 10  2  0  0  0  0
 11  7  1  0  0  0  0
 12  2  1  0  0  0  0
 12 15  2  0  0  0  0
 13 14  1  0  0  0  0
 13  2  2  0  0  0  0
 14  3  2  0  0  0  0
 15  4  1  0  0  0  0
 16 17  2  0  0  0  0
 18 16  1  0  0  0  0
 19 18  1  0  0  0  0
 19 20  2  0  0  0  0
 21 19  1  0  0  0  0
 22 21  1  0  0  0  0
 23 28  1  0  0  0  0
 24 29  1  6  0  0  0
 24 26  1  0  0  0  0
 25 22  1  0  0  0  0
 26 23  1  6  0  0  0
 26 22  1  0  0  0  0
 27 24  1  0  0  0  0
 27 26  1  0  0  0  0
 28 25  1  0  0  0  0
 29 33  1  0  0  0  0
 30 32  1  0  0  0  0
 32 31  1  0  0  0  0
 33 31  1  0  0  0  0
 34 30  1  0  0  0  0
 34 29  1  0  0  0  0
 35 13  1  0  0  0  0
 36 37  1  0  0  0  0
 36 39  1  0  0  0  0
 37 41  1  0  0  0  0
 39 40  1  0  0  0  0
 40 38  1  0  0  0  0
 40 35  1  0  0  0  0
 41 38  1  0  0  0  0
 42 43  1  0  0  0  0
 43 37  1  0  0  0  0
M  END
>  <MODEL>
4

>  <REMARK>
 VINA RESULT:      -8.7      2.375      6.065
  Name = 
  8 active torsions:
  status: ('A' for Active; 'I' for Inactive)
    1  A    between atoms: O_1  and  C_34
    2  A    between atoms: O_1  and  C_35
    3  A    between atoms: C_2  and  N_6
    4  A    between atoms: C_2  and  C_13
    5  A    between atoms: C_3  and  N_4
    6  A    between atoms: C_3  and  C_12
    7  A    between atoms: C_11  and  C_14
    8  A    between atoms: N_19  and  O_37
                            x       y       z     vdW  Elec       q    Type
                         _______ _______ _______ _____ _____    ______ ____

>  <TORSDO>
F 8

$$$$
=
 OpenBabel10262422333D

 43 49  0  0  1  0  0  0  0  0999 V2000
  191.3710  176.5940  146.8220 C   0  0  0  0  0  0  0  0  0  0  0  0
  187.0430  177.8810  144.5290 C   0  0  0  0  0  0  0  0  0  0  0  0
  187.6040  178.0660  141.7710 C   0  0  0  0  0  0  0  0  0  0  0  0
  189.0720  177.1930  146.3480 C   0  0  0  0  0  0  0  0  0  0  0  0
  191.6790  176.6800  145.4620 C   0  0  0  0  0  3  0  0  0  0  0  0
  192.3580  176.2520  147.7360 O   0  0  0  0  0  1  0  0  0  0  0  0
  189.3740  177.2820  144.9670 C   0  0  0  0  0  0  0  0  0  0  0  0
  190.0710  176.8500  147.2640 C   0  0  0  0  0  3  0  0  0  0  0  0
  190.6880  177.0220  144.5380 C   0  0  0  0  0  3  0  0  0  0  0  0
  188.6140  177.7240  142.6780 C   0  0  0  0  0  3  0  0  0  0  0  0
  188.3550  177.6270  144.0540 C   0  0  0  0  0  0  0  0  0  0  0  0
  186.7720  177.7870  145.9000 C   0  0  0  0  0  3  0  0  0  0  0  0
  186.0200  178.2230  143.6270 C   0  0  0  0  0  0  0  0  0  0  0  0
  186.3130  178.3120  142.2580 C   0  0  0  0  0  3  0  0  0  0  0  0
  187.7780  177.4450  146.8020 C   0  0  0  0  0  3  0  0  0  0  0  0
  187.9130  178.1550  140.3270 C   0  0  0  0  0  0  0  0  0  0  0  0
  186.6930  178.2530  139.2250 S   0  0  0  0  0  0  0  0  0  0  0  0
  189.2900  178.2220  139.9220 N   0  0  0  0  0  2  0  0  0  0  0  0
  190.2450  177.1540  139.8540 C   0  0  0  0  0  0  0  0  0  0  0  0
  189.9760  176.0030  140.2890 O   0  0  0  0  0  0  0  0  0  0  0  0
  191.6030  177.4290  139.3140 C   0  0  0  0  0  2  0  0  0  0  0  0
  192.1520  176.2140  138.7220 N   0  0  0  0  0  0  0  0  0  0  0  0
  192.8860  176.3470  136.3950 C   0  0  0  0  0  2  0  0  0  0  0  0
  190.2530  176.1540  136.9790 C   0  0  2  0  0  3  0  0  0  0  0  0
  193.5550  176.3780  138.7090 N   0  0  0  0  0  2  0  0  0  0  0  0
  191.7390  176.1580  137.3310 C   0  0  2  0  0  0  0  0  0  0  0  0
  191.0290  174.8500  137.0430 C   0  0  0  0  0  2  0  0  0  0  0  0
  194.0460  176.1810  137.3410 C   0  0  0  0  0  2  0  0  0  0  0  0
  190.0190  176.5660  135.5280 C   0  0  0  0  0  3  0  0  0  0  0  0
  187.9570  175.2180  135.0350 C   0  0  0  0  0  2  0  0  0  0  0  0
  187.6390  177.3500  135.6960 C   0  0  0  0  0  2  0  0  0  0  0  0
  187.2570  176.3990  134.7330 O   0  0  0  0  0  0  0  0  0  0  0  0
  189.0870  177.7800  135.4570 C   0  0  0  0  0  2  0  0  0  0  0  0
  189.4440  175.3970  134.7200 C   0  0  0  0  0  2  0  0  0  0  0  0
  184.7250  178.4720  144.1040 O   0  0  0  0  0  0  0  0  0  0  0  0
  182.3640  178.6750  141.1940 C   0  0  0  0  0  2  0  0  0  0  0  0
  181.1280  178.6490  141.9900 N   0  0  0  0  0  0  0  0  0  0  0  0
  182.3750  178.9900  144.0770 C   0  0  0  0  0  2  0  0  0  0  0  0
  183.5310  178.1500  142.0250 C   0  0  0  0  0  2  0  0  0  0  0  0
  183.6810  178.9940  143.2900 C   0  0  0  0  0  3  0  0  0  0  0  0
  181.2400  179.4920  143.1900 C   0  0  0  0  0  2  0  0  0  0  0  0
  179.5430  180.2540  141.6340 C   0  0  0  0  0  1  0  0  0  0  0  0
  180.0330  178.9910  141.2330 O   0  0  0  0  0  0  0  0  0  0  0  0
  1  8  1  0  0  0  0
  1  6  1  0  0  0  0
  2 12  1  0  0  0  0
  3 14  2  0  0  0  0
  3 10  1  0  0  0  0
  4 15  1  0  0  0  0
  4  8  2  0  0  0  0
  5  1  2  0  0  0  0
  7  4  1  0  0  0  0
  9  7  2  0  0  0  0
  9  5  1  0  0  0  0
 10 11  2  0  0  0  0
 11  2  1  0  0  0  0
 11  7  1  0  0  0  0
 12 15  2  0  0  0  0
 13 35  1  0  0  0  0
 13  2  2  0  0  0  0
 14 13  1  0  0  0  0
 16  3  1  0  0  0  0
 17 16  2  0  0  0  0
 18 16  1  0  0  0  0
 19 18  1  0  0  0  0
 19 20  2  0  0  0  0
 21 19  1  0  0  0  0
 22 21  1  0  0  0  0
 23 28  1  0  0  0  0
 24 29  1  6  0  0  0
 24 27  1  0  0  0  0
 24 26  1  0  0  0  0
 25 22  1  0  0  0  0
 26 23  1  6  0  0  0
 26 22  1  0  0  0  0
 27 26  1  0  0  0  0
 28 25  1  0  0  0  0
 32 30  1  0  0  0  0
 32 31  1  0  0  0  0
 33 29  1  0  0  0  0
 33 31  1  0  0  0  0
 34 30  1  0  0  0  0
 34 29  1  0  0  0  0
 36 37  1  0  0  0  0
 36 39  1  0  0  0  0
 37 41  1  0  0  0  0
 39 40  1  0  0  0  0
 40 38  1  0  0  0  0
 40 35  1  0  0  0  0
 41 38  1  0  0  0  0
 43 42  1  0  0  0  0
 43 37  1  0  0  0  0
M  END
>  <MODEL>
5

>  <REMARK>
 VINA RESULT:      -8.6      2.610      3.560
  Name = 
  8 active torsions:
  status: ('A' for Active; 'I' for Inactive)
    1  A    between atoms: O_1  and  C_34
    2  A    between atoms: O_1  and  C_35
    3  A    between atoms: C_2  and  N_6
    4  A    between atoms: C_2  and  C_13
    5  A    between atoms: C_3  and  N_4
    6  A    between atoms: C_3  and  C_12
    7  A    between atoms: C_11  and  C_14
    8  A    between atoms: N_19  and  O_37
                            x       y       z     vdW  Elec       q    Type
                         _______ _______ _______ _____ _____    ______ ____

>  <TORSDO>
F 8

$$$$
=
 OpenBabel10262422333D

 43 49  0  0  1  0  0  0  0  0999 V2000
  191.9470  176.7060  138.5710 C   0  0  0  0  0  0  0  0  0  0  0  0
  187.2070  176.4630  136.8040 C   0  0  0  0  0  0  0  0  0  0  0  0
  185.6390  178.1380  138.4430 C   0  0  0  0  0  0  0  0  0  0  0  0
  189.9620  176.1760  137.2900 C   0  0  0  0  0  0  0  0  0  0  0  0
  191.1950  177.5410  139.4010 C   0  0  0  0  0  3  0  0  0  0  0  0
  193.3090  176.5530  138.7920 O   0  0  0  0  0  1  0  0  0  0  0  0
  189.1900  177.0210  138.1250 C   0  0  0  0  0  0  0  0  0  0  0  0
  191.3320  176.0240  137.5180 C   0  0  0  0  0  3  0  0  0  0  0  0
  189.8240  177.6990  139.1800 C   0  0  0  0  0  3  0  0  0  0  0  0
  187.0100  177.9940  138.6840 C   0  0  0  0  0  3  0  0  0  0  0  0
  187.8070  177.1650  137.8810 C   0  0  0  0  0  0  0  0  0  0  0  0
  187.9940  175.6330  135.9940 C   0  0  0  0  0  3  0  0  0  0  0  0
  185.8320  176.6020  136.5510 C   0  0  0  0  0  0  0  0  0  0  0  0
  185.0630  177.4380  137.3740 C   0  0  0  0  0  3  0  0  0  0  0  0
  189.3590  175.4910  136.2350 C   0  0  0  0  0  3  0  0  0  0  0  0
  184.8300  179.0240  139.3090 C   0  0  0  0  0  0  0  0  0  0  0  0
  183.3620  179.5660  138.7960 S   0  0  0  0  0  0  0  0  0  0  0  0
  185.3230  179.3390  140.6220 N   0  0  0  0  0  2  0  0  0  0  0  0
  185.0070  178.6940  141.8630 C   0  0  0  0  0  0  0  0  0  0  0  0
  184.1140  177.8100  141.9360 O   0  0  0  0  0  0  0  0  0  0  0  0
  185.7080  179.1240  143.1030 C   0  0  0  0  0  2  0  0  0  0  0  0
  185.6000  178.0810  144.1160 N   0  0  0  0  0  0  0  0  0  0  0  0
  186.7470  178.4700  146.2390 C   0  0  0  0  0  2  0  0  0  0  0  0
  188.1490  177.7000  144.0580 C   0  0  2  0  0  3  0  0  0  0  0  0
  184.6490  178.5380  145.0550 N   0  0  0  0  0  2  0  0  0  0  0  0
  186.8640  178.0020  144.8270 C   0  0  2  0  0  0  0  0  0  0  0  0
  187.4080  176.5870  144.7800 C   0  0  0  0  0  2  0  0  0  0  0  0
  185.2490  178.5100  146.3930 C   0  0  0  0  0  2  0  0  0  0  0  0
  189.3860  178.1180  144.8490 C   0  0  0  0  0  3  0  0  0  0  0  0
  190.9590  176.2800  144.1730 C   0  0  0  0  0  2  0  0  0  0  0  0
  191.0670  178.1920  142.9850 C   0  0  0  0  0  2  0  0  0  0  0  0
  191.8500  177.2330  143.6510 O   0  0  0  0  0  0  0  0  0  0  0  0
  190.2850  179.0250  144.0020 C   0  0  0  0  0  2  0  0  0  0  0  0
  190.1620  176.8870  145.3310 C   0  0  0  0  0  2  0  0  0  0  0  0
  185.2460  175.9050  135.4850 O   0  0  0  0  0  0  0  0  0  0  0  0
  184.2250  172.7190  137.1850 C   0  0  0  0  0  2  0  0  0  0  0  0
  182.7780  172.8880  136.9840 N   0  0  0  0  0  0  0  0  0  0  0  0
  183.1360  174.7480  135.4240 C   0  0  0  0  0  2  0  0  0  0  0  0
  184.9350  174.0580  137.0170 C   0  0  0  0  0  2  0  0  0  0  0  0
  184.6410  174.6240  135.6280 C   0  0  0  0  0  3  0  0  0  0  0  0
  182.4750  173.3900  135.6360 C   0  0  0  0  0  2  0  0  0  0  0  0
  180.7020  171.9810  137.2720 C   0  0  0  0  0  1  0  0  0  0  0  0
  182.0920  171.7280  137.2570 O   0  0  0  0  0  0  0  0  0  0  0  0
  1  6  1  0  0  0  0
  1  5  1  0  0  0  0
  2 11  1  0  0  0  0
  3 10  1  0  0  0  0
  3 16  1  0  0  0  0
  4  8  1  0  0  0  0
  4  7  2  0  0  0  0
  7  9  1  0  0  0  0
  8  1  2  0  0  0  0
  9  5  2  0  0  0  0
 11  7  1  0  0  0  0
 11 10  2  0  0  0  0
 12 15  2  0  0  0  0
 12  2  1  0  0  0  0
 13  2  2  0  0  0  0
 13 14  1  0  0  0  0
 14  3  2  0  0  0  0
 15  4  1  0  0  0  0
 16 18  1  0  0  0  0
 17 16  2  0  0  0  0
 18 19  1  0  0  0  0
 19 20  2  0  0  0  0
 19 21  1  0  0  0  0
 21 22  1  0  0  0  0
 22 26  1  0  0  0  0
 22 25  1  0  0  0  0
 23 28  1  0  0  0  0
 24 27  1  0  0  0  0
 24 26  1  0  0  0  0
 24 29  1  1  0  0  0
 25 28  1  0  0  0  0
 26 27  1  1  0  0  0
 26 23  1  0  0  0  0
 29 34  1  0  0  0  0
 30 34  1  0  0  0  0
 31 32  1  0  0  0  0
 31 33  1  0  0  0  0
 32 30  1  0  0  0  0
 33 29  1  0  0  0  0
 35 40  1  0  0  0  0
 35 13  1  0  0  0  0
 37 36  1  0  0  0  0
 37 43  1  0  0  0  0
 38 40  1  0  0  0  0
 38 41  1  0  0  0  0
 39 36  1  0  0  0  0
 40 39  1  0  0  0  0
 41 37  1  0  0  0  0
 43 42  1  0  0  0  0
M  END
>  <MODEL>
6

>  <REMARK>
 VINA RESULT:      -8.4      3.179      8.166
  Name = 
  8 active torsions:
  status: ('A' for Active; 'I' for Inactive)
    1  A    between atoms: O_1  and  C_34
    2  A    between atoms: O_1  and  C_35
    3  A    between atoms: C_2  and  N_6
    4  A    between atoms: C_2  and  C_13
    5  A    between atoms: C_3  and  N_4
    6  A    between atoms: C_3  and  C_12
    7  A    between atoms: C_11  and  C_14
    8  A    between atoms: N_19  and  O_37
                            x       y       z     vdW  Elec       q    Type
                         _______ _______ _______ _____ _____    ______ ____

>  <TORSDO>
F 8

$$$$
=
 OpenBabel10262422333D

 43 49  0  0  1  0  0  0  0  0999 V2000
  181.3700  178.8210  143.6010 C   0  0  0  0  0  0  0  0  0  0  0  0
  186.2290  178.6540  142.1810 C   0  0  0  0  0  0  0  0  0  0  0  0
  186.2500  178.2530  139.3900 C   0  0  0  0  0  0  0  0  0  0  0  0
  183.7920  178.8340  143.5720 C   0  0  0  0  0  0  0  0  0  0  0  0
  181.3500  178.6200  142.2190 C   0  0  0  0  0  3  0  0  0  0  0  0
  180.1780  178.9160  144.3060 O   0  0  0  0  0  1  0  0  0  0  0  0
  183.7820  178.6320  142.1700 C   0  0  0  0  0  0  0  0  0  0  0  0
  182.5890  178.9280  144.2770 C   0  0  0  0  0  3  0  0  0  0  0  0
  182.5480  178.5260  141.5060 C   0  0  0  0  0  3  0  0  0  0  0  0
  185.0370  178.3430  140.0840 C   0  0  0  0  0  3  0  0  0  0  0  0
  185.0060  178.5420  141.4720 C   0  0  0  0  0  0  0  0  0  0  0  0
  186.2100  178.8540  143.5680 C   0  0  0  0  0  3  0  0  0  0  0  0
  187.4520  178.5690  141.4950 C   0  0  0  0  0  0  0  0  0  0  0  0
  187.4490  178.3680  140.1070 C   0  0  0  0  0  3  0  0  0  0  0  0
  185.0020  178.9430  144.2580 C   0  0  0  0  0  3  0  0  0  0  0  0
  186.2440  178.0480  137.9250 C   0  0  0  0  0  0  0  0  0  0  0  0
  187.5520  178.4840  137.0240 S   0  0  0  0  0  0  0  0  0  0  0  0
  185.1090  177.4010  137.3260 N   0  0  0  0  0  2  0  0  0  0  0  0
  184.9700  176.0230  136.9550 C   0  0  0  0  0  0  0  0  0  0  0  0
  185.9420  175.2250  137.0150 O   0  0  0  0  0  0  0  0  0  0  0  0
  183.6640  175.5410  136.4310 C   0  0  0  0  0  2  0  0  0  0  0  0
  182.9250  174.8690  137.4940 N   0  0  0  0  0  0  0  0  0  0  0  0
  180.5090  174.6470  137.1980 C   0  0  0  0  0  2  0  0  0  0  0  0
  181.5720  177.0120  137.9660 C   0  0  2  0  0  3  0  0  0  0  0  0
  182.6550  173.5640  137.0250 N   0  0  0  0  0  2  0  0  0  0  0  0
  181.6350  175.5220  137.6360 C   0  0  2  0  0  0  0  0  0  0  0  0
  181.4290  175.9760  139.0680 C   0  0  0  0  0  2  0  0  0  0  0  0
  181.2110  173.3180  137.1070 C   0  0  0  0  0  2  0  0  0  0  0  0
  180.2110  177.6060  137.6130 C   0  0  0  0  0  3  0  0  0  0  0  0
  180.3830  179.8020  138.8210 C   0  0  0  0  0  2  0  0  0  0  0  0
  180.9530  179.7990  136.6410 C   0  0  0  0  0  2  0  0  0  0  0  0
  180.1970  180.4850  137.6070 O   0  0  0  0  0  0  0  0  0  0  0  0
  180.3060  178.4470  136.3360 C   0  0  0  0  0  2  0  0  0  0  0  0
  179.6700  178.4480  138.7740 C   0  0  0  0  0  2  0  0  0  0  0  0
  188.6580  178.6810  142.2030 O   0  0  0  0  0  0  0  0  0  0  0  0
  190.8770  175.8310  143.2200 C   0  0  0  0  0  2  0  0  0  0  0  0
  191.3950  176.4620  144.4440 N   0  0  0  0  0  0  0  0  0  0  0  0
  189.7210  178.2530  144.3190 C   0  0  0  0  0  2  0  0  0  0  0  0
  190.2830  176.8920  142.2990 C   0  0  0  0  0  2  0  0  0  0  0  0
  189.1750  177.6460  143.0320 C   0  0  0  0  0  3  0  0  0  0  0  0
  190.3310  177.1550  145.1860 C   0  0  0  0  0  2  0  0  0  0  0  0
  192.0550  175.9970  146.5810 C   0  0  0  0  0  1  0  0  0  0  0  0
  192.0550  175.5550  145.2390 O   0  0  0  0  0  0  0  0  0  0  0  0
  1  8  1  0  0  0  0
  1  6  1  0  0  0  0
  2 12  1  0  0  0  0
  3 10  2  0  0  0  0
  3 14  1  0  0  0  0
  4 15  1  0  0  0  0
  4  8  2  0  0  0  0
  5  1  2  0  0  0  0
  7  4  1  0  0  0  0
  9  7  2  0  0  0  0
  9  5  1  0  0  0  0
 10 11  1  0  0  0  0
 11  7  1  0  0  0  0
 11  2  2  0  0  0  0
 12 15  2  0  0  0  0
 13  2  1  0  0  0  0
 13 35  1  0  0  0  0
 14 13  2  0  0  0  0
 16  3  1  0  0  0  0
 17 16  2  0  0  0  0
 18 16  1  0  0  0  0
 19 20  2  0  0  0  0
 19 18  1  0  0  0  0
 21 19  1  0  0  0  0
 21 22  1  0  0  0  0
 22 26  1  0  0  0  0
 24 29  1  6  0  0  0
 24 27  1  0  0  0  0
 25 28  1  0  0  0  0
 25 22  1  0  0  0  0
 26 23  1  6  0  0  0
 26 24  1  0  0  0  0
 26 27  1  0  0  0  0
 28 23  1  0  0  0  0
 29 34  1  0  0  0  0
 31 32  1  0  0  0  0
 32 30  1  0  0  0  0
 33 31  1  0  0  0  0
 33 29  1  0  0  0  0
 34 30  1  0  0  0  0
 35 40  1  0  0  0  0
 36 37  1  0  0  0  0
 37 41  1  0  0  0  0
 37 43  1  0  0  0  0
 38 41  1  0  0  0  0
 39 40  1  0  0  0  0
 39 36  1  0  0  0  0
 40 38  1  0  0  0  0
 43 42  1  0  0  0  0
M  END
>  <MODEL>
7

>  <REMARK>
 VINA RESULT:      -8.2      3.123      7.114
  Name = 
  8 active torsions:
  status: ('A' for Active; 'I' for Inactive)
    1  A    between atoms: O_1  and  C_34
    2  A    between atoms: O_1  and  C_35
    3  A    between atoms: C_2  and  N_6
    4  A    between atoms: C_2  and  C_13
    5  A    between atoms: C_3  and  N_4
    6  A    between atoms: C_3  and  C_12
    7  A    between atoms: C_11  and  C_14
    8  A    between atoms: N_19  and  O_37
                            x       y       z     vdW  Elec       q    Type
                         _______ _______ _______ _____ _____    ______ ____

>  <TORSDO>
F 8

$$$$
=
 OpenBabel10262422333D

 43 49  0  0  1  0  0  0  0  0999 V2000
  184.7210  178.7000  145.3930 C   0  0  0  0  0  0  0  0  0  0  0  0
  182.3270  178.7800  140.9300 C   0  0  0  0  0  0  0  0  0  0  0  0
  184.2200  178.0380  138.9760 C   0  0  0  0  0  0  0  0  0  0  0  0
  183.0640  178.9220  143.6400 C   0  0  0  0  0  0  0  0  0  0  0  0
  185.6800  178.3320  144.4470 C   0  0  0  0  0  3  0  0  0  0  0  0
  185.0630  178.7730  146.7360 O   0  0  0  0  0  1  0  0  0  0  0  0
  184.0300  178.5480  142.6720 C   0  0  0  0  0  0  0  0  0  0  0  0
  183.4150  178.9950  144.9910 C   0  0  0  0  0  3  0  0  0  0  0  0
  185.3380  178.2560  143.0940 C   0  0  0  0  0  3  0  0  0  0  0  0
  184.5860  178.1100  140.3260 C   0  0  0  0  0  3  0  0  0  0  0  0
  183.6590  178.4770  141.3130 C   0  0  0  0  0  0  0  0  0  0  0  0
  181.3920  179.1470  141.9080 C   0  0  0  0  0  3  0  0  0  0  0  0
  181.9480  178.7090  139.5790 C   0  0  0  0  0  0  0  0  0  0  0  0
  182.8990  178.3400  138.6170 C   0  0  0  0  0  3  0  0  0  0  0  0
  181.7580  179.2170  143.2510 C   0  0  0  0  0  3  0  0  0  0  0  0
  185.2230  177.6430  137.9630 C   0  0  0  0  0  0  0  0  0  0  0  0
  184.7450  176.9080  136.5690 S   0  0  0  0  0  0  0  0  0  0  0  0
  186.6020  177.9760  138.1950 N   0  0  0  0  0  2  0  0  0  0  0  0
  187.5170  178.6240  137.3020 C   0  0  0  0  0  0  0  0  0  0  0  0
  187.2070  178.8700  136.1070 O   0  0  0  0  0  0  0  0  0  0  0  0
  188.8850  178.9600  137.7820 C   0  0  0  0  0  2  0  0  0  0  0  0
  189.8060  177.8850  137.4330 N   0  0  0  0  0  0  0  0  0  0  0  0
  189.3270  175.6700  138.3500 C   0  0  0  0  0  2  0  0  0  0  0  0
  190.4470  177.5730  139.9110 C   0  0  2  0  0  3  0  0  0  0  0  0
  189.1640  177.1210  136.4330 N   0  0  0  0  0  2  0  0  0  0  0  0
  189.9420  177.0090  138.5840 C   0  0  2  0  0  0  0  0  0  0  0  0
  191.4020  176.8630  138.9660 C   0  0  0  0  0  2  0  0  0  0  0  0
  189.1200  175.7180  136.8590 C   0  0  0  0  0  2  0  0  0  0  0  0
  190.0810  176.6650  141.0820 C   0  0  0  0  0  3  0  0  0  0  0  0
  191.2070  177.9110  142.9500 C   0  0  0  0  0  2  0  0  0  0  0  0
  189.0250  178.3570  142.6070 C   0  0  0  0  0  2  0  0  0  0  0  0
  189.9700  178.0520  143.6020 O   0  0  0  0  0  0  0  0  0  0  0  0
  188.7740  177.1270  141.7330 C   0  0  0  0  0  2  0  0  0  0  0  0
  191.2140  176.6280  142.1140 C   0  0  0  0  0  2  0  0  0  0  0  0
  180.6290  179.0100  139.2090 O   0  0  0  0  0  0  0  0  0  0  0  0
  180.8600  182.5480  137.9800 C   0  0  0  0  0  2  0  0  0  0  0  0
  180.9630  182.2140  136.5510 N   0  0  0  0  0  0  0  0  0  0  0  0
  180.3600  179.8730  136.9790 C   0  0  0  0  0  2  0  0  0  0  0  0
  181.2070  181.3280  138.8270 C   0  0  0  0  0  2  0  0  0  0  0  0
  180.2720  180.1730  138.4710 C   0  0  0  0  0  3  0  0  0  0  0  0
  180.0360  181.1330  136.1820 C   0  0  0  0  0  2  0  0  0  0  0  0
  181.1650  184.4870  136.4650 C   0  0  0  0  0  1  0  0  0  0  0  0
  180.7850  183.3240  135.7590 O   0  0  0  0  0  0  0  0  0  0  0  0
  1  6  1  0  0  0  0
  2 11  1  0  0  0  0
  2 12  1  0  0  0  0
  3 10  1  0  0  0  0
  4  8  2  0  0  0  0
  5  1  2  0  0  0  0
  7  9  2  0  0  0  0
  7  4  1  0  0  0  0
  8  1  1  0  0  0  0
  9  5  1  0  0  0  0
 10 11  2  0  0  0  0
 11  7  1  0  0  0  0
 12 15  2  0  0  0  0
 13  2  2  0  0  0  0
 14  3  2  0  0  0  0
 14 13  1  0  0  0  0
 15  4  1  0  0  0  0
 16 18  1  0  0  0  0
 16  3  1  0  0  0  0
 17 16  2  0  0  0  0
 19 21  1  0  0  0  0
 19 18  1  0  0  0  0
 20 19  2  0  0  0  0
 22 21  1  0  0  0  0
 22 26  1  0  0  0  0
 24 29  1  1  0  0  0
 25 28  1  0  0  0  0
 25 22  1  0  0  0  0
 26 23  1  1  0  0  0
 26 27  1  0  0  0  0
 26 24  1  0  0  0  0
 27 24  1  0  0  0  0
 28 23  1  0  0  0  0
 29 33  1  0  0  0  0
 29 34  1  0  0  0  0
 30 32  1  0  0  0  0
 31 32  1  0  0  0  0
 33 31  1  0  0  0  0
 34 30  1  0  0  0  0
 35 13  1  0  0  0  0
 36 39  1  0  0  0  0
 37 36  1  0  0  0  0
 38 40  1  0  0  0  0
 40 39  1  0  0  0  0
 40 35  1  0  0  0  0
 41 37  1  0  0  0  0
 41 38  1  0  0  0  0
 43 42  1  0  0  0  0
 43 37  1  0  0  0  0
M  END
>  <MODEL>
8

>  <REMARK>
 VINA RESULT:      -8.1      2.944      5.194
  Name = 
  8 active torsions:
  status: ('A' for Active; 'I' for Inactive)
    1  A    between atoms: O_1  and  C_34
    2  A    between atoms: O_1  and  C_35
    3  A    between atoms: C_2  and  N_6
    4  A    between atoms: C_2  and  C_13
    5  A    between atoms: C_3  and  N_4
    6  A    between atoms: C_3  and  C_12
    7  A    between atoms: C_11  and  C_14
    8  A    between atoms: N_19  and  O_37
                            x       y       z     vdW  Elec       q    Type
                         _______ _______ _______ _____ _____    ______ ____

>  <TORSDO>
F 8

$$$$
=
 OpenBabel10262422333D

 43 49  0  0  1  0  0  0  0  0999 V2000
  190.4600  176.8540  146.4670 C   0  0  0  0  0  0  0  0  0  0  0  0
  189.0180  177.9950  141.7480 C   0  0  0  0  0  0  0  0  0  0  0  0
  186.2570  178.5570  141.8520 C   0  0  0  0  0  0  0  0  0  0  0  0
  190.4130  177.2860  144.0840 C   0  0  0  0  0  0  0  0  0  0  0  0
  189.0920  177.1250  146.5490 C   0  0  0  0  0  3  0  0  0  0  0  0
  191.1670  176.5050  147.6090 O   0  0  0  0  0  1  0  0  0  0  0  0
  189.0250  177.5640  144.1560 C   0  0  0  0  0  0  0  0  0  0  0  0
  191.1190  176.9340  145.2370 C   0  0  0  0  0  3  0  0  0  0  0  0
  188.3770  177.4780  145.4010 C   0  0  0  0  0  3  0  0  0  0  0  0
  186.9520  178.2040  143.0150 C   0  0  0  0  0  3  0  0  0  0  0  0
  188.3260  177.9200  142.9840 C   0  0  0  0  0  0  0  0  0  0  0  0
  190.3910  177.7140  141.7050 C   0  0  0  0  0  3  0  0  0  0  0  0
  188.3310  178.3510  140.5750 C   0  0  0  0  0  0  0  0  0  0  0  0
  186.9580  178.6280  140.6400 C   0  0  0  0  0  3  0  0  0  0  0  0
  191.0820  177.3630  142.8630 C   0  0  0  0  0  3  0  0  0  0  0  0
  184.8090  178.8540  141.9240 C   0  0  0  0  0  0  0  0  0  0  0  0
  183.9920  178.6480  143.3390 S   0  0  0  0  0  0  0  0  0  0  0  0
  184.1580  179.3860  140.7580 N   0  0  0  0  0  2  0  0  0  0  0  0
  183.5050  178.6660  139.7040 C   0  0  0  0  0  0  0  0  0  0  0  0
  183.5510  177.4100  139.6390 O   0  0  0  0  0  0  0  0  0  0  0  0
  182.8080  179.4250  138.6310 C   0  0  0  0  0  2  0  0  0  0  0  0
  181.3840  179.1130  138.6520 N   0  0  0  0  0  0  0  0  0  0  0  0
  180.1390  179.4630  136.5780 C   0  0  0  0  0  2  0  0  0  0  0  0
  180.7940  181.5700  138.1410 C   0  0  2  0  0  3  0  0  0  0  0  0
  181.2420  177.8650  138.0050 N   0  0  0  0  0  2  0  0  0  0  0  0
  180.6920  180.0800  137.8190 C   0  0  2  0  0  0  0  0  0  0  0  0
  179.5930  180.7650  138.6070 C   0  0  0  0  0  2  0  0  0  0  0  0
  180.2700  178.0010  136.9150 C   0  0  0  0  0  2  0  0  0  0  0  0
  180.4250  182.4310  136.9360 C   0  0  0  0  0  3  0  0  0  0  0  0
  179.3780  184.3850  138.1180 C   0  0  0  0  0  2  0  0  0  0  0  0
  181.5610  184.5730  137.5910 C   0  0  0  0  0  2  0  0  0  0  0  0
  180.3270  185.2450  137.5390 O   0  0  0  0  0  0  0  0  0  0  0  0
  181.5610  183.4040  136.6030 C   0  0  0  0  0  2  0  0  0  0  0  0
  179.1200  183.1920  137.1930 C   0  0  0  0  0  2  0  0  0  0  0  0
  189.0230  178.4240  139.3570 O   0  0  0  0  0  0  0  0  0  0  0  0
  189.0100  177.1100  135.8420 C   0  0  0  0  0  2  0  0  0  0  0  0
  189.9430  175.9990  136.0840 N   0  0  0  0  0  0  0  0  0  0  0  0
  189.7950  176.3060  138.5150 C   0  0  0  0  0  2  0  0  0  0  0  0
  189.1310  178.1440  136.9560 C   0  0  0  0  0  2  0  0  0  0  0  0
  188.8490  177.4820  138.3040 C   0  0  0  0  0  3  0  0  0  0  0  0
  189.6560  175.3210  137.3570 C   0  0  0  0  0  2  0  0  0  0  0  0
  190.7390  173.9840  135.3610 C   0  0  0  0  0  1  0  0  0  0  0  0
  189.9550  175.1130  135.0320 O   0  0  0  0  0  0  0  0  0  0  0  0
  1  5  1  0  0  0  0
  1  6  1  0  0  0  0
  2 11  1  0  0  0  0
  3 16  1  0  0  0  0
  3 10  1  0  0  0  0
  4  7  2  0  0  0  0
  4  8  1  0  0  0  0
  7  9  1  0  0  0  0
  8  1  2  0  0  0  0
  9  5  2  0  0  0  0
 11 10  2  0  0  0  0
 11  7  1  0  0  0  0
 12  2  1  0  0  0  0
 12 15  2  0  0  0  0
 13 14  1  0  0  0  0
 13  2  2  0  0  0  0
 14  3  2  0  0  0  0
 15  4  1  0  0  0  0
 16 17  2  0  0  0  0
 18 16  1  0  0  0  0
 19 18  1  0  0  0  0
 20 19  2  0  0  0  0
 21 22  1  0  0  0  0
 21 19  1  0  0  0  0
 23 28  1  0  0  0  0
 24 29  1  6  0  0  0
 24 27  1  0  0  0  0
 25 22  1  0  0  0  0
 26 23  1  6  0  0  0
 26 24  1  0  0  0  0
 26 27  1  0  0  0  0
 26 22  1  0  0  0  0
 28 25  1  0  0  0  0
 29 34  1  0  0  0  0
 32 31  1  0  0  0  0
 32 30  1  0  0  0  0
 33 29  1  0  0  0  0
 33 31  1  0  0  0  0
 34 30  1  0  0  0  0
 35 13  1  0  0  0  0
 36 37  1  0  0  0  0
 36 39  1  0  0  0  0
 37 41  1  0  0  0  0
 39 40  1  0  0  0  0
 40 38  1  0  0  0  0
 40 35  1  0  0  0  0
 41 38  1  0  0  0  0
 43 42  1  0  0  0  0
 43 37  1  0  0  0  0
M  END
>  <MODEL>
9

>  <REMARK>
 VINA RESULT:      -8.1      3.165      7.520
  Name = 
  8 active torsions:
  status: ('A' for Active; 'I' for Inactive)
    1  A    between atoms: O_1  and  C_34
    2  A    between atoms: O_1  and  C_35
    3  A    between atoms: C_2  and  N_6
    4  A    between atoms: C_2  and  C_13
    5  A    between atoms: C_3  and  N_4
    6  A    between atoms: C_3  and  C_12
    7  A    between atoms: C_11  and  C_14
    8  A    between atoms: N_19  and  O_37
                            x       y       z     vdW  Elec       q    Type
                         _______ _______ _______ _____ _____    ______ ____

>  <TORSDO>
F 8

$$$$
