=
 OpenBabel10252414513D

 34 39  0  0  1  0  0  0  0  0999 V2000
  191.2710  176.5510  145.0490 C   0  0  2  0  0  3  0  0  0  0  0  0
  189.4020  177.5010  146.3550 C   0  0  0  0  0  0  0  0  0  0  0  0
  189.3210  177.4490  143.8190 C   0  0  0  0  0  0  0  0  0  0  0  0
  187.4510  177.7050  142.2680 N   0  0  1  0  0  0  0  0  0  0  0  0
  191.2160  176.3810  147.4430 C   0  0  0  0  0  3  0  0  0  0  0  0
  190.0450  177.0710  147.4750 N   0  0  0  0  0  0  0  0  0  0  0  0
  186.8020  177.3140  144.4570 C   0  0  0  0  0  2  0  0  0  0  0  0
  189.9250  177.1820  145.0770 C   0  0  0  0  0  0  0  0  0  0  0  0
  186.0630  178.1210  142.2980 C   0  0  0  0  0  2  0  0  0  0  0  0
  191.8580  176.1250  146.2350 C   0  0  0  0  0  3  0  0  0  0  0  0
  190.1350  177.3680  142.6600 C   0  0  0  0  0  0  0  0  0  0  0  0
  191.9280  176.4210  143.9080 O   0  0  0  0  0  0  0  0  0  0  0  0
  188.3860  178.2840  146.4960 N   0  0  0  0  0  1  0  0  0  0  0  0
  188.2570  178.5210  141.3800 C   0  0  0  0  0  2  0  0  0  0  0  0
  189.6560  177.8800  141.3060 C   0  0  2  0  0  3  0  0  0  0  0  0
  185.5500  177.6850  143.6710 C   0  0  2  0  0  3  0  0  0  0  0  0
  187.8970  177.9440  143.6270 C   0  0  1  0  0  3  0  0  0  0  0  0
  191.4260  176.8360  142.7540 C   0  0  0  0  0  3  0  0  0  0  0  0
  190.8770  176.7870  138.1530 C   0  0  0  0  0  0  0  0  0  0  0  0
  189.7630  176.7990  140.2170 C   0  0  2  0  0  3  0  0  0  0  0  0
  189.6350  176.9320  137.8540 N   0  0  0  0  0  0  0  0  0  0  0  0
  191.1590  176.7450  139.6100 C   0  0  0  0  0  2  0  0  0  0  0  0
  188.8090  177.0200  139.0420 C   0  0  0  0  0  2  0  0  0  0  0  0
  191.8520  176.6800  137.1620 O   0  0  0  0  0  0  0  0  0  0  0  0
  193.1980  176.3460  137.4640 C   0  0  0  0  0  1  0  0  0  0  0  0
  184.7930  178.8180  144.3550 C   0  0  0  0  0  2  0  0  0  0  0  0
  183.9330  179.4830  143.4310 O   0  0  0  0  0  0  0  0  0  0  0  0
  183.1190  178.9640  140.9430 O   0  0  0  0  0  0  0  0  0  0  0  0
  182.6420  179.0560  143.1690 N   0  0  0  0  0  0  0  0  0  0  0  0
  182.2820  178.8180  141.8730 C   0  0  0  0  0  0  0  0  0  0  0  0
  180.0540  178.2370  142.5940 C   0  0  0  0  0  3  0  0  0  0  0  0
  180.4350  178.4720  143.9130 C   0  0  0  0  0  3  0  0  0  0  0  0
  181.7400  178.8880  144.1820 C   0  0  0  0  0  3  0  0  0  0  0  0
  180.9820  178.4070  141.5650 C   0  0  0  0  0  3  0  0  0  0  0  0
  1  8  1  0  0  0  0
  1 10  1  1  0  0  0
  2 13  1  0  0  0  0
  2  6  2  0  0  0  0
  3  8  2  0  0  0  0
  4 14  1  6  0  0  0
  4  9  1  0  0  0  0
  4 17  1  0  0  0  0
  5  6  1  0  0  0  0
  8  2  1  0  0  0  0
  9 16  1  0  0  0  0
 10  5  2  0  0  0  0
 11 18  2  0  0  0  0
 11  3  1  0  0  0  0
 12  1  1  0  0  0  0
 15 14  1  1  0  0  0
 15 11  1  0  0  0  0
 16 26  1  1  0  0  0
 16  7  1  0  0  0  0
 17  3  1  0  0  0  0
 17  7  1  1  0  0  0
 18 12  1  0  0  0  0
 19 22  1  0  0  0  0
 20 23  1  6  0  0  0
 20 15  1  0  0  0  0
 21 19  2  0  0  0  0
 21 23  1  0  0  0  0
 22 20  1  0  0  0  0
 24 25  1  0  0  0  0
 24 19  1  0  0  0  0
 27 26  1  0  0  0  0
 28 30  2  0  0  0  0
 29 27  1  0  0  0  0
 29 33  1  0  0  0  0
 30 29  1  0  0  0  0
 31 32  1  0  0  0  0
 32 33  2  0  0  0  0
 34 30  1  0  0  0  0
 34 31  2  0  0  0  0
M  END
>  <MODEL>
1

>  <REMARK>
 VINA RESULT:      -9.4      0.000      0.000
  Name = 
  5 active torsions:
  status: ('A' for Active; 'I' for Inactive)
    1  A    between atoms: O_3  and  N_13
    2  A    between atoms: O_3  and  C_17
    3  A    between atoms: O_7  and  C_8
    4  A    between atoms: C_12  and  C_28
    5  A    between atoms: C_17  and  C_29
                            x       y       z     vdW  Elec       q    Type
                         _______ _______ _______ _____ _____    ______ ____

>  <TORSDO>
F 5

$$$$
=
 OpenBabel10252414513D

 34 39  0  0  1  0  0  0  0  0999 V2000
  189.3790  177.4810  147.2240 C   0  0  0  0  0  0  0  0  0  0  0  0
  191.0630  176.7390  145.5760 C   0  0  0  0  0  0  0  0  0  0  0  0
  188.7260  177.4000  144.8390 C   0  0  0  0  0  0  0  0  0  0  0  0
  187.8430  177.9810  142.6350 N   0  0  1  0  0  0  0  0  0  0  0  0
  191.6590  177.0940  147.8660 C   0  0  0  0  0  3  0  0  0  0  0  0
  191.9650  176.7240  146.5950 N   0  0  0  0  0  0  0  0  0  0  0  0
  190.1570  177.9950  142.7480 C   0  0  0  0  0  2  0  0  0  0  0  0
  189.7470  177.2100  145.8080 C   0  0  0  0  0  0  0  0  0  0  0  0
  188.2590  177.9220  141.2480 C   0  0  0  0  0  2  0  0  0  0  0  0
  190.3610  177.4610  148.2070 C   0  0  0  0  0  3  0  0  0  0  0  0
  187.3910  177.5490  145.2960 C   0  0  0  0  0  0  0  0  0  0  0  0
  188.1190  177.7090  147.5570 O   0  0  0  0  0  0  0  0  0  0  0  0
  191.4060  176.2170  144.4460 N   0  0  0  0  0  2  0  0  0  0  0  0
  186.6320  177.2240  142.8860 C   0  0  0  0  0  2  0  0  0  0  0  0
  186.2060  177.5010  144.3410 C   0  0  2  0  0  3  0  0  0  0  0  0
  189.7720  178.1360  141.2790 C   0  0  2  0  0  3  0  0  0  0  0  0
  188.9330  177.3280  143.3340 C   0  0  1  0  0  3  0  0  0  0  0  0
  187.1420  177.7120  146.6630 C   0  0  0  0  0  3  0  0  0  0  0  0
  183.0000  179.0300  144.2080 C   0  0  0  0  0  0  0  0  0  0  0  0
  185.3130  178.7470  144.4750 C   0  0  2  0  0  3  0  0  0  0  0  0
  183.5170  179.5440  143.1490 N   0  0  0  0  0  0  0  0  0  0  0  0
  183.9830  178.4190  145.1400 C   0  0  0  0  0  2  0  0  0  0  0  0
  184.9590  179.3920  143.1340 C   0  0  0  0  0  2  0  0  0  0  0  0
  181.6240  179.0630  144.4310 O   0  0  0  0  0  0  0  0  0  0  0  0
  180.6890  179.0210  143.3640 C   0  0  0  0  0  1  0  0  0  0  0  0
  190.4880  177.0950  140.4250 C   0  0  0  0  0  2  0  0  0  0  0  0
  190.6180  177.5470  139.0790 O   0  0  0  0  0  0  0  0  0  0  0  0
  189.0630  179.4390  138.0170 O   0  0  0  0  0  0  0  0  0  0  0  0
  189.6890  177.2500  138.0960 N   0  0  0  0  0  0  0  0  0  0  0  0
  188.9140  178.2600  137.6000 C   0  0  0  0  0  0  0  0  0  0  0  0
  187.7870  176.6920  136.1550 C   0  0  0  0  0  3  0  0  0  0  0  0
  188.5890  175.6710  136.6600 C   0  0  0  0  0  3  0  0  0  0  0  0
  189.5380  175.9700  137.6390 C   0  0  0  0  0  3  0  0  0  0  0  0
  187.9490  177.9960  136.6240 C   0  0  0  0  0  3  0  0  0  0  0  0
  1 12  1  0  0  0  0
  1 10  2  0  0  0  0
  2  8  1  0  0  0  0
  2  6  1  0  0  0  0
  3 11  1  0  0  0  0
  3  8  2  0  0  0  0
  4  9  1  6  0  0  0
  4 14  1  0  0  0  0
  4 17  1  0  0  0  0
  5 10  1  0  0  0  0
  6  5  2  0  0  0  0
  8  1  1  0  0  0  0
  9 16  1  0  0  0  0
 11 18  2  0  0  0  0
 13  2  2  0  0  0  0
 15 14  1  6  0  0  0
 15 20  1  0  0  0  0
 15 11  1  0  0  0  0
 16 26  1  6  0  0  0
 16  7  1  0  0  0  0
 17  7  1  1  0  0  0
 17  3  1  0  0  0  0
 18 12  1  0  0  0  0
 19 24  1  0  0  0  0
 19 22  1  0  0  0  0
 20 23  1  6  0  0  0
 20 22  1  0  0  0  0
 21 19  2  0  0  0  0
 23 21  1  0  0  0  0
 25 24  1  0  0  0  0
 27 26  1  0  0  0  0
 29 27  1  0  0  0  0
 30 28  2  0  0  0  0
 30 29  1  0  0  0  0
 31 34  2  0  0  0  0
 31 32  1  0  0  0  0
 32 33  2  0  0  0  0
 33 29  1  0  0  0  0
 34 30  1  0  0  0  0
M  END
>  <MODEL>
2

>  <REMARK>
 VINA RESULT:      -9.4      1.949      6.901
  Name = 
  5 active torsions:
  status: ('A' for Active; 'I' for Inactive)
    1  A    between atoms: O_3  and  N_13
    2  A    between atoms: O_3  and  C_17
    3  A    between atoms: O_7  and  C_8
    4  A    between atoms: C_12  and  C_28
    5  A    between atoms: C_17  and  C_29
                            x       y       z     vdW  Elec       q    Type
                         _______ _______ _______ _____ _____    ______ ____

>  <TORSDO>
F 5

$$$$
=
 OpenBabel10252414513D

 34 39  0  0  1  0  0  0  0  0999 V2000
  185.1230  178.3190  144.2270 C   0  0  0  0  0  0  0  0  0  0  0  0
  185.1600  178.9600  141.8420 C   0  0  0  0  0  0  0  0  0  0  0  0
  187.2900  178.2620  143.0320 C   0  0  0  0  0  0  0  0  0  0  0  0
  189.4600  177.5560  142.1580 N   0  0  1  0  0  0  0  0  0  0  0  0
  183.0910  178.7370  143.0220 C   0  0  0  0  0  3  0  0  0  0  0  0
  183.8020  179.0330  141.9020 N   0  0  0  0  0  0  0  0  0  0  0  0
  187.7660  177.5430  140.5770 C   0  0  0  0  0  2  0  0  0  0  0  0
  185.8920  178.5060  142.9670 C   0  0  0  0  0  0  0  0  0  0  0  0
  190.1660  177.5330  140.8920 C   0  0  0  0  0  2  0  0  0  0  0  0
  183.7360  178.3940  144.2050 C   0  0  0  0  0  3  0  0  0  0  0  0
  187.8860  178.1430  144.3140 C   0  0  0  0  0  0  0  0  0  0  0  0
  185.7530  178.1120  145.3720 O   0  0  0  0  0  0  0  0  0  0  0  0
  185.7510  179.4140  140.7880 N   0  0  0  0  0  2  0  0  0  0  0  0
  190.1540  178.3290  143.1690 C   0  0  0  0  0  2  0  0  0  0  0  0
  189.3990  178.1370  144.4980 C   0  0  2  0  0  3  0  0  0  0  0  0
  189.0800  177.3180  139.8380 C   0  0  2  0  0  3  0  0  0  0  0  0
  188.2260  178.2460  141.8340 C   0  0  1  0  0  3  0  0  0  0  0  0
  187.0750  178.0600  145.4510 C   0  0  0  0  0  3  0  0  0  0  0  0
  191.4640  176.6740  146.9930 C   0  0  0  0  0  0  0  0  0  0  0  0
  189.8740  176.9030  145.2840 C   0  0  2  0  0  3  0  0  0  0  0  0
  192.0380  176.1990  145.9450 N   0  0  0  0  0  0  0  0  0  0  0  0
  190.1060  177.2250  146.7540 C   0  0  0  0  0  2  0  0  0  0  0  0
  191.1950  176.3250  144.7740 C   0  0  0  0  0  2  0  0  0  0  0  0
  192.0970  176.6560  148.2360 O   0  0  0  0  0  0  0  0  0  0  0  0
  193.0990  175.7040  148.5550 C   0  0  0  0  0  1  0  0  0  0  0  0
  189.2350  178.3060  138.6860 C   0  0  0  0  0  2  0  0  0  0  0  0
  187.9630  178.6430  138.1340 O   0  0  0  0  0  0  0  0  0  0  0  0
  185.3960  177.9850  137.8150 O   0  0  0  0  0  0  0  0  0  0  0  0
  187.4980  178.1070  136.9450 N   0  0  0  0  0  0  0  0  0  0  0  0
  186.1760  177.7800  136.8460 C   0  0  0  0  0  0  0  0  0  0  0  0
  186.5320  176.9950  134.5940 C   0  0  0  0  0  3  0  0  0  0  0  0
  187.8780  177.3420  134.7000 C   0  0  0  0  0  3  0  0  0  0  0  0
  188.3460  177.8970  135.8930 C   0  0  0  0  0  3  0  0  0  0  0  0
  185.6730  177.2160  135.6710 C   0  0  0  0  0  3  0  0  0  0  0  0
  1 12  1  0  0  0  0
  2  6  1  0  0  0  0
  2  8  1  0  0  0  0
  3 11  1  0  0  0  0
  4  9  1  6  0  0  0
  4 14  1  0  0  0  0
  5 10  1  0  0  0  0
  6  5  2  0  0  0  0
  8  3  2  0  0  0  0
  8  1  1  0  0  0  0
 10  1  2  0  0  0  0
 11 15  1  0  0  0  0
 11 18  2  0  0  0  0
 12 18  1  0  0  0  0
 13  2  2  0  0  0  0
 15 14  1  6  0  0  0
 15 20  1  0  0  0  0
 16 26  1  6  0  0  0
 16  7  1  0  0  0  0
 16  9  1  0  0  0  0
 17  7  1  6  0  0  0
 17  4  1  0  0  0  0
 17  3  1  0  0  0  0
 19 24  1  0  0  0  0
 20 23  1  6  0  0  0
 20 22  1  0  0  0  0
 21 19  2  0  0  0  0
 22 19  1  0  0  0  0
 23 21  1  0  0  0  0
 24 25  1  0  0  0  0
 27 26  1  0  0  0  0
 29 27  1  0  0  0  0
 30 29  1  0  0  0  0
 30 28  2  0  0  0  0
 31 32  1  0  0  0  0
 31 34  2  0  0  0  0
 32 33  2  0  0  0  0
 33 29  1  0  0  0  0
 34 30  1  0  0  0  0
M  END
>  <MODEL>
3

>  <REMARK>
 VINA RESULT:      -9.3      2.455      7.090
  Name = 
  5 active torsions:
  status: ('A' for Active; 'I' for Inactive)
    1  A    between atoms: O_3  and  N_13
    2  A    between atoms: O_3  and  C_17
    3  A    between atoms: O_7  and  C_8
    4  A    between atoms: C_12  and  C_28
    5  A    between atoms: C_17  and  C_29
                            x       y       z     vdW  Elec       q    Type
                         _______ _______ _______ _____ _____    ______ ____

>  <TORSDO>
F 5

$$$$
=
 OpenBabel10252414513D

 34 39  0  0  1  0  0  0  0  0999 V2000
  189.0740  177.8800  147.6020 C   0  0  0  0  0  0  0  0  0  0  0  0
  190.8840  177.0140  146.1610 C   0  0  0  0  0  0  0  0  0  0  0  0
  188.6020  177.5600  145.1940 C   0  0  0  0  0  0  0  0  0  0  0  0
  187.8790  177.9120  142.8860 N   0  0  1  0  0  0  0  0  0  0  0  0
  191.3040  177.5970  148.4430 C   0  0  0  0  0  3  0  0  0  0  0  0
  191.7090  177.1120  147.2390 N   0  0  0  0  0  0  0  0  0  0  0  0
  190.1780  177.9780  143.1650 C   0  0  0  0  0  2  0  0  0  0  0  0
  189.5500  177.4810  146.2490 C   0  0  0  0  0  0  0  0  0  0  0  0
  188.3980  177.7280  141.5450 C   0  0  0  0  0  2  0  0  0  0  0  0
  189.9800  177.9710  148.6510 C   0  0  0  0  0  3  0  0  0  0  0  0
  187.2350  177.7270  145.5360 C   0  0  0  0  0  0  0  0  0  0  0  0
  187.7900  178.1160  147.8180 O   0  0  0  0  0  0  0  0  0  0  0  0
  191.3170  176.3940  145.1140 N   0  0  0  0  0  2  0  0  0  0  0  0
  186.6610  177.1600  143.1190 C   0  0  0  0  0  2  0  0  0  0  0  0
  186.1250  177.5670  144.5050 C   0  0  2  0  0  3  0  0  0  0  0  0
  189.9020  177.9720  141.6660 C   0  0  2  0  0  3  0  0  0  0  0  0
  188.9220  177.3480  143.7220 C   0  0  1  0  0  3  0  0  0  0  0  0
  186.8830  178.0150  146.8590 C   0  0  0  0  0  3  0  0  0  0  0  0
  182.9170  179.0150  144.0130 C   0  0  0  0  0  0  0  0  0  0  0  0
  185.2110  178.8030  144.4540 C   0  0  2  0  0  3  0  0  0  0  0  0
  183.4950  179.4280  142.9410 N   0  0  0  0  0  0  0  0  0  0  0  0
  183.8440  178.5220  145.0630 C   0  0  0  0  0  2  0  0  0  0  0  0
  184.9360  179.3010  143.0330 C   0  0  0  0  0  2  0  0  0  0  0  0
  181.5290  179.0460  144.1440 O   0  0  0  0  0  0  0  0  0  0  0  0
  180.6790  179.3770  143.0570 C   0  0  0  0  0  1  0  0  0  0  0  0
  190.6910  176.8670  140.9710 C   0  0  0  0  0  2  0  0  0  0  0  0
  191.1160  177.2870  139.6760 O   0  0  0  0  0  0  0  0  0  0  0  0
  191.0360  174.9860  138.3240 O   0  0  0  0  0  0  0  0  0  0  0  0
  190.3290  177.1410  138.5460 N   0  0  0  0  0  0  0  0  0  0  0  0
  190.3390  175.9420  137.8900 C   0  0  0  0  0  0  0  0  0  0  0  0
  188.7990  176.8180  136.2550 C   0  0  0  0  0  3  0  0  0  0  0  0
  188.7870  178.0340  136.9360 C   0  0  0  0  0  3  0  0  0  0  0  0
  189.5670  178.1780  138.0850 C   0  0  0  0  0  3  0  0  0  0  0  0
  189.5760  175.7630  136.7340 C   0  0  0  0  0  3  0  0  0  0  0  0
  1 12  1  0  0  0  0
  1 10  2  0  0  0  0
  2  8  1  0  0  0  0
  2  6  1  0  0  0  0
  3 11  1  0  0  0  0
  3  8  2  0  0  0  0
  4  9  1  6  0  0  0
  4 14  1  0  0  0  0
  4 17  1  0  0  0  0
  5 10  1  0  0  0  0
  6  5  2  0  0  0  0
  8  1  1  0  0  0  0
  9 16  1  0  0  0  0
 11 18  2  0  0  0  0
 13  2  2  0  0  0  0
 15 14  1  6  0  0  0
 15 11  1  0  0  0  0
 16 26  1  6  0  0  0
 16  7  1  0  0  0  0
 17  7  1  6  0  0  0
 17  3  1  0  0  0  0
 18 12  1  0  0  0  0
 19 24  1  0  0  0  0
 19 22  1  0  0  0  0
 20 23  1  6  0  0  0
 20 15  1  0  0  0  0
 20 22  1  0  0  0  0
 21 23  1  0  0  0  0
 21 19  2  0  0  0  0
 25 24  1  0  0  0  0
 27 26  1  0  0  0  0
 29 27  1  0  0  0  0
 30 28  2  0  0  0  0
 30 29  1  0  0  0  0
 31 34  2  0  0  0  0
 31 32  1  0  0  0  0
 32 33  2  0  0  0  0
 33 29  1  0  0  0  0
 34 30  1  0  0  0  0
M  END
>  <MODEL>
4

>  <REMARK>
 VINA RESULT:      -9.2      1.895      7.140
  Name = 
  5 active torsions:
  status: ('A' for Active; 'I' for Inactive)
    1  A    between atoms: O_3  and  N_13
    2  A    between atoms: O_3  and  C_17
    3  A    between atoms: O_7  and  C_8
    4  A    between atoms: C_12  and  C_28
    5  A    between atoms: C_17  and  C_29
                            x       y       z     vdW  Elec       q    Type
                         _______ _______ _______ _____ _____    ______ ____

>  <TORSDO>
F 5

$$$$
=
 OpenBabel10252414513D

 34 39  0  0  1  0  0  0  0  0999 V2000
  185.0950  178.3020  143.8590 C   0  0  0  0  0  0  0  0  0  0  0  0
  185.2160  178.9050  141.4670 C   0  0  0  0  0  0  0  0  0  0  0  0
  187.3030  178.2310  142.7440 C   0  0  0  0  0  0  0  0  0  0  0  0
  189.5040  177.5160  141.9590 N   0  0  1  0  0  0  0  0  0  0  0  0
  183.1060  178.6960  142.5750 C   0  0  0  0  0  3  0  0  0  0  0  0
  183.8570  178.9760  141.4770 N   0  0  0  0  0  0  0  0  0  0  0  0
  187.8680  177.4740  140.3180 C   0  0  0  0  0  2  0  0  0  0  0  0
  185.9070  178.4710  142.6240 C   0  0  0  0  0  0  0  0  0  0  0  0
  190.2550  177.4750  140.7200 C   0  0  0  0  0  2  0  0  0  0  0  0
  183.7090  178.3740  143.7870 C   0  0  0  0  0  3  0  0  0  0  0  0
  187.8530  178.1340  144.0480 C   0  0  0  0  0  0  0  0  0  0  0  0
  185.6840  178.1150  145.0290 O   0  0  0  0  0  0  0  0  0  0  0  0
  185.8430  179.3440  140.4270 N   0  0  0  0  0  2  0  0  0  0  0  0
  190.1600  178.3070  142.9820 C   0  0  0  0  0  2  0  0  0  0  0  0
  189.3580  178.1340  144.2860 C   0  0  2  0  0  3  0  0  0  0  0  0
  189.2080  177.2400  139.6310 C   0  0  2  0  0  3  0  0  0  0  0  0
  188.2810  178.1980  141.5800 C   0  0  1  0  0  3  0  0  0  0  0  0
  187.0010  178.0670  145.1560 C   0  0  0  0  0  3  0  0  0  0  0  0
  191.3950  176.7020  146.8210 C   0  0  0  0  0  0  0  0  0  0  0  0
  189.8070  176.9150  145.1080 C   0  0  2  0  0  3  0  0  0  0  0  0
  191.9560  176.1810  145.7870 N   0  0  0  0  0  0  0  0  0  0  0  0
  190.0490  177.2750  146.5680 C   0  0  0  0  0  2  0  0  0  0  0  0
  191.1130  176.2910  144.6130 C   0  0  0  0  0  2  0  0  0  0  0  0
  192.0300  176.7060  148.0630 O   0  0  0  0  0  0  0  0  0  0  0  0
  192.9300  175.6810  148.4510 C   0  0  0  0  0  1  0  0  0  0  0  0
  189.4020  178.2100  138.4700 C   0  0  0  0  0  2  0  0  0  0  0  0
  189.7330  177.5080  137.2730 O   0  0  0  0  0  0  0  0  0  0  0  0
  188.7610  175.0660  136.8040 O   0  0  0  0  0  0  0  0  0  0  0  0
  190.5550  176.3940  137.2620 N   0  0  0  0  0  0  0  0  0  0  0  0
  189.9970  175.1690  137.0270 C   0  0  0  0  0  0  0  0  0  0  0  0
  192.1600  174.1300  137.2700 C   0  0  0  0  0  3  0  0  0  0  0  0
  192.7220  175.3850  137.4980 C   0  0  0  0  0  3  0  0  0  0  0  0
  191.8970  176.5120  137.4940 C   0  0  0  0  0  3  0  0  0  0  0  0
  190.7900  174.0190  137.0300 C   0  0  0  0  0  3  0  0  0  0  0  0
  1 12  1  0  0  0  0
  2  6  1  0  0  0  0
  2  8  1  0  0  0  0
  3 11  1  0  0  0  0
  4  9  1  6  0  0  0
  4 14  1  0  0  0  0
  5 10  1  0  0  0  0
  6  5  2  0  0  0  0
  8  3  2  0  0  0  0
  8  1  1  0  0  0  0
 10  1  2  0  0  0  0
 11 15  1  0  0  0  0
 11 18  2  0  0  0  0
 12 18  1  0  0  0  0
 13  2  2  0  0  0  0
 15 14  1  6  0  0  0
 15 20  1  0  0  0  0
 16 26  1  6  0  0  0
 16  7  1  0  0  0  0
 16  9  1  0  0  0  0
 17  7  1  6  0  0  0
 17  4  1  0  0  0  0
 17  3  1  0  0  0  0
 19 24  1  0  0  0  0
 20 23  1  6  0  0  0
 20 22  1  0  0  0  0
 21 19  2  0  0  0  0
 22 19  1  0  0  0  0
 23 21  1  0  0  0  0
 24 25  1  0  0  0  0
 27 26  1  0  0  0  0
 28 30  2  0  0  0  0
 29 27  1  0  0  0  0
 29 33  1  0  0  0  0
 30 34  1  0  0  0  0
 30 29  1  0  0  0  0
 31 32  1  0  0  0  0
 33 32  2  0  0  0  0
 34 31  2  0  0  0  0
M  END
>  <MODEL>
5

>  <REMARK>
 VINA RESULT:      -9.2      2.008      7.962
  Name = 
  5 active torsions:
  status: ('A' for Active; 'I' for Inactive)
    1  A    between atoms: O_3  and  N_13
    2  A    between atoms: O_3  and  C_17
    3  A    between atoms: O_7  and  C_8
    4  A    between atoms: C_12  and  C_28
    5  A    between atoms: C_17  and  C_29
                            x       y       z     vdW  Elec       q    Type
                         _______ _______ _______ _____ _____    ______ ____

>  <TORSDO>
F 5

$$$$
=
 OpenBabel10252414513D

 34 39  0  0  1  0  0  0  0  0999 V2000
  189.3120  177.9540  139.7580 C   0  0  0  0  0  0  0  0  0  0  0  0
  186.9040  178.3310  139.3560 C   0  0  0  0  0  0  0  0  0  0  0  0
  187.7730  177.8660  141.6940 C   0  0  0  0  0  0  0  0  0  0  0  0
  186.7500  178.2160  143.8860 N   0  0  1  0  0  0  0  0  0  0  0  0
  188.5060  178.6420  137.6050 C   0  0  0  0  0  3  0  0  0  0  0  0
  187.2270  178.6270  138.0670 N   0  0  0  0  0  0  0  0  0  0  0  0
  185.6760  179.3340  142.1640 C   0  0  0  0  0  2  0  0  0  0  0  0
  187.9310  178.0740  140.2980 C   0  0  0  0  0  0  0  0  0  0  0  0
  185.4490  178.5390  144.4390 C   0  0  0  0  0  2  0  0  0  0  0  0
  189.5660  178.2890  138.4340 C   0  0  0  0  0  3  0  0  0  0  0  0
  188.8560  177.2910  142.4090 C   0  0  0  0  0  0  0  0  0  0  0  0
  190.2930  177.5000  140.5220 O   0  0  0  0  0  0  0  0  0  0  0  0
  185.6570  178.1860  139.6560 N   0  0  0  0  0  2  0  0  0  0  0  0
  187.2560  176.9430  144.3610 C   0  0  0  0  0  2  0  0  0  0  0  0
  188.6990  176.7950  143.8410 C   0  0  2  0  0  3  0  0  0  0  0  0
  184.7960  179.4530  143.4020 C   0  0  2  0  0  3  0  0  0  0  0  0
  186.4820  178.0910  142.4660 C   0  0  1  0  0  3  0  0  0  0  0  0
  190.0980  177.1410  141.7820 C   0  0  0  0  0  3  0  0  0  0  0  0
  191.2930  176.4530  146.2460 C   0  0  0  0  0  0  0  0  0  0  0  0
  189.7410  177.4260  144.7810 C   0  0  2  0  0  3  0  0  0  0  0  0
  190.3640  176.9090  147.0090 N   0  0  0  0  0  0  0  0  0  0  0  0
  191.0420  176.6350  144.7940 C   0  0  0  0  0  2  0  0  0  0  0  0
  189.2850  177.4960  146.2390 C   0  0  0  0  0  2  0  0  0  0  0  0
  192.4310  175.8450  146.7760 O   0  0  0  0  0  0  0  0  0  0  0  0
  192.6460  175.7430  148.1750 C   0  0  0  0  0  1  0  0  0  0  0  0
  183.3690  179.0040  143.1020 C   0  0  0  0  0  2  0  0  0  0  0  0
  183.2500  178.5690  141.7490 O   0  0  0  0  0  0  0  0  0  0  0  0
  182.8090  176.7130  139.8810 O   0  0  0  0  0  0  0  0  0  0  0  0
  182.0320  178.4770  141.0970 N   0  0  0  0  0  0  0  0  0  0  0  0
  181.8700  177.5130  140.1420 C   0  0  0  0  0  0  0  0  0  0  0  0
  179.6210  178.2830  139.7370 C   0  0  0  0  0  3  0  0  0  0  0  0
  179.7910  179.2550  140.7200 C   0  0  0  0  0  3  0  0  0  0  0  0
  181.0130  179.3400  141.3910 C   0  0  0  0  0  3  0  0  0  0  0  0
  180.6640  177.4030  139.4460 C   0  0  0  0  0  3  0  0  0  0  0  0
  1  8  1  0  0  0  0
  1 12  1  0  0  0  0
  2 13  2  0  0  0  0
  2  8  1  0  0  0  0
  3 11  1  0  0  0  0
  3 17  1  0  0  0  0
  4 14  1  1  0  0  0
  4  9  1  0  0  0  0
  5  6  2  0  0  0  0
  5 10  1  0  0  0  0
  6  2  1  0  0  0  0
  7 16  1  0  0  0  0
  8  3  2  0  0  0  0
 10  1  2  0  0  0  0
 11 15  1  0  0  0  0
 12 18  1  0  0  0  0
 15 14  1  1  0  0  0
 15 20  1  0  0  0  0
 16 26  1  6  0  0  0
 16  9  1  0  0  0  0
 17  7  1  6  0  0  0
 17  4  1  0  0  0  0
 18 11  2  0  0  0  0
 19 24  1  0  0  0  0
 19 21  2  0  0  0  0
 20 22  1  1  0  0  0
 20 23  1  0  0  0  0
 22 19  1  0  0  0  0
 23 21  1  0  0  0  0
 24 25  1  0  0  0  0
 27 26  1  0  0  0  0
 28 30  2  0  0  0  0
 29 33  1  0  0  0  0
 29 27  1  0  0  0  0
 30 29  1  0  0  0  0
 31 32  1  0  0  0  0
 32 33  2  0  0  0  0
 34 31  2  0  0  0  0
 34 30  1  0  0  0  0
M  END
>  <MODEL>
6

>  <REMARK>
 VINA RESULT:      -9.1      1.819      5.535
  Name = 
  5 active torsions:
  status: ('A' for Active; 'I' for Inactive)
    1  A    between atoms: O_3  and  N_13
    2  A    between atoms: O_3  and  C_17
    3  A    between atoms: O_7  and  C_8
    4  A    between atoms: C_12  and  C_28
    5  A    between atoms: C_17  and  C_29
                            x       y       z     vdW  Elec       q    Type
                         _______ _______ _______ _____ _____    ______ ____

>  <TORSDO>
F 5

$$$$
=
 OpenBabel10252414513D

 34 39  0  0  1  0  0  0  0  0999 V2000
  189.0850  177.7950  147.4190 C   0  0  0  0  0  0  0  0  0  0  0  0
  190.9220  176.9490  146.0010 C   0  0  0  0  0  0  0  0  0  0  0  0
  188.6580  177.5070  144.9980 C   0  0  0  0  0  0  0  0  0  0  0  0
  187.9790  177.8890  142.6820 N   0  0  1  0  0  0  0  0  0  0  0  0
  191.2980  177.5020  148.2980 C   0  0  0  0  0  3  0  0  0  0  0  0
  191.7250  177.0340  147.0960 N   0  0  0  0  0  0  0  0  0  0  0  0
  190.2720  177.9530  143.0060 C   0  0  0  0  0  2  0  0  0  0  0  0
  189.5860  177.4150  146.0710 C   0  0  0  0  0  0  0  0  0  0  0  0
  188.5230  177.7230  141.3490 C   0  0  0  0  0  2  0  0  0  0  0  0
  189.9700  177.8730  148.4860 C   0  0  0  0  0  3  0  0  0  0  0  0
  187.2850  177.6690  145.3170 C   0  0  0  0  0  0  0  0  0  0  0  0
  187.7970  178.0280  147.6140 O   0  0  0  0  0  0  0  0  0  0  0  0
  191.3740  176.3430  144.9550 N   0  0  0  0  0  2  0  0  0  0  0  0
  186.7570  177.1340  142.8830 C   0  0  0  0  0  2  0  0  0  0  0  0
  186.1940  177.5220  144.2630 C   0  0  2  0  0  3  0  0  0  0  0  0
  190.0240  177.9660  141.5020 C   0  0  2  0  0  3  0  0  0  0  0  0
  189.0060  177.3150  143.5300 C   0  0  1  0  0  3  0  0  0  0  0  0
  186.9070  177.9400  146.6370 C   0  0  0  0  0  3  0  0  0  0  0  0
  182.9640  178.9610  143.9050 C   0  0  0  0  0  0  0  0  0  0  0  0
  185.2810  178.7590  144.2110 C   0  0  2  0  0  3  0  0  0  0  0  0
  183.4750  179.3200  142.7800 N   0  0  0  0  0  0  0  0  0  0  0  0
  183.9540  178.5120  144.9160 C   0  0  0  0  0  2  0  0  0  0  0  0
  184.9190  179.1910  142.7880 C   0  0  0  0  0  2  0  0  0  0  0  0
  181.5870  179.0040  144.1200 O   0  0  0  0  0  0  0  0  0  0  0  0
  180.6810  179.4170  143.1090 C   0  0  0  0  0  1  0  0  0  0  0  0
  190.8270  176.8710  140.8070 C   0  0  0  0  0  2  0  0  0  0  0  0
  190.9190  177.1220  139.4060 O   0  0  0  0  0  0  0  0  0  0  0  0
  193.5610  177.1360  139.0280 O   0  0  0  0  0  0  0  0  0  0  0  0
  191.5260  176.2420  138.5260 N   0  0  0  0  0  0  0  0  0  0  0  0
  192.8810  176.3060  138.3670 C   0  0  0  0  0  0  0  0  0  0  0  0
  192.7790  174.5260  136.7430 C   0  0  0  0  0  3  0  0  0  0  0  0
  191.3990  174.4610  136.9200 C   0  0  0  0  0  3  0  0  0  0  0  0
  190.7860  175.3360  137.8190 C   0  0  0  0  0  3  0  0  0  0  0  0
  193.5290  175.4510  137.4710 C   0  0  0  0  0  3  0  0  0  0  0  0
  1 12  1  0  0  0  0
  1 10  2  0  0  0  0
  2  8  1  0  0  0  0
  2  6  1  0  0  0  0
  3 11  1  0  0  0  0
  3  8  2  0  0  0  0
  4  9  1  6  0  0  0
  4 14  1  0  0  0  0
  4 17  1  0  0  0  0
  5 10  1  0  0  0  0
  6  5  2  0  0  0  0
  8  1  1  0  0  0  0
  9 16  1  0  0  0  0
 11 18  2  0  0  0  0
 13  2  2  0  0  0  0
 15 14  1  6  0  0  0
 15 11  1  0  0  0  0
 16 26  1  6  0  0  0
 16  7  1  0  0  0  0
 17  7  1  1  0  0  0
 17  3  1  0  0  0  0
 18 12  1  0  0  0  0
 19 24  1  0  0  0  0
 19 22  1  0  0  0  0
 20 23  1  6  0  0  0
 20 15  1  0  0  0  0
 20 22  1  0  0  0  0
 21 23  1  0  0  0  0
 21 19  2  0  0  0  0
 25 24  1  0  0  0  0
 27 26  1  0  0  0  0
 29 27  1  0  0  0  0
 30 29  1  0  0  0  0
 30 28  2  0  0  0  0
 31 32  1  0  0  0  0
 31 34  2  0  0  0  0
 32 33  2  0  0  0  0
 33 29  1  0  0  0  0
 34 30  1  0  0  0  0
M  END
>  <MODEL>
7

>  <REMARK>
 VINA RESULT:      -9.1      1.838      7.831
  Name = 
  5 active torsions:
  status: ('A' for Active; 'I' for Inactive)
    1  A    between atoms: O_3  and  N_13
    2  A    between atoms: O_3  and  C_17
    3  A    between atoms: O_7  and  C_8
    4  A    between atoms: C_12  and  C_28
    5  A    between atoms: C_17  and  C_29
                            x       y       z     vdW  Elec       q    Type
                         _______ _______ _______ _____ _____    ______ ____

>  <TORSDO>
F 5

$$$$
=
 OpenBabel10252414513D

 34 39  0  0  1  0  0  0  0  0999 V2000
  189.2040  177.1470  146.0470 C   0  0  2  0  0  3  0  0  0  0  0  0
  187.0200  178.1870  146.5470 C   0  0  0  0  0  0  0  0  0  0  0  0
  187.8360  177.9650  144.1540 C   0  0  0  0  0  0  0  0  0  0  0  0
  186.6380  178.1200  142.0300 N   0  0  1  0  0  0  0  0  0  0  0  0
  188.3050  177.1380  148.2720 C   0  0  0  0  0  3  0  0  0  0  0  0
  187.2160  177.8320  147.8470 N   0  0  0  0  0  0  0  0  0  0  0  0
  185.2500  177.8790  143.8690 C   0  0  0  0  0  2  0  0  0  0  0  0
  187.9500  177.7820  145.5590 C   0  0  0  0  0  0  0  0  0  0  0  0
  185.3390  178.5410  141.5430 C   0  0  0  0  0  2  0  0  0  0  0  0
  189.3240  176.8000  147.3870 C   0  0  0  0  0  3  0  0  0  0  0  0
  189.0030  177.8050  143.3640 C   0  0  0  0  0  0  0  0  0  0  0  0
  190.2160  176.9390  145.2210 O   0  0  0  0  0  0  0  0  0  0  0  0
  186.0400  178.9800  146.2710 N   0  0  0  0  0  1  0  0  0  0  0  0
  187.7260  178.8730  141.4350 C   0  0  0  0  0  2  0  0  0  0  0  0
  189.0450  178.2260  141.9000 C   0  0  2  0  0  3  0  0  0  0  0  0
  184.3650  178.1990  142.6700 C   0  0  2  0  0  3  0  0  0  0  0  0
  186.5830  178.4500  143.4410 C   0  0  1  0  0  3  0  0  0  0  0  0
  190.1630  177.2770  143.9410 C   0  0  0  0  0  3  0  0  0  0  0  0
  191.2330  176.9400  139.4120 C   0  0  0  0  0  0  0  0  0  0  0  0
  189.5000  177.0740  140.9880 C   0  0  2  0  0  3  0  0  0  0  0  0
  190.1600  177.0400  138.7110 N   0  0  0  0  0  0  0  0  0  0  0  0
  191.0180  177.0050  140.8800 C   0  0  0  0  0  2  0  0  0  0  0  0
  188.9880  177.1940  139.5510 C   0  0  0  0  0  2  0  0  0  0  0  0
  192.4800  176.7840  138.8080 O   0  0  0  0  0  0  0  0  0  0  0  0
  192.6140  176.3770  137.4550 C   0  0  0  0  0  1  0  0  0  0  0  0
  183.4450  179.3780  142.9720 C   0  0  0  0  0  2  0  0  0  0  0  0
  182.1020  178.9350  143.1640 O   0  0  0  0  0  0  0  0  0  0  0  0
  179.6800  177.8840  143.5530 O   0  0  0  0  0  0  0  0  0  0  0  0
  181.2120  178.7680  142.1170 N   0  0  0  0  0  0  0  0  0  0  0  0
  179.9910  178.2130  142.3770 C   0  0  0  0  0  0  0  0  0  0  0  0
  179.4130  178.3760  140.0410 C   0  0  0  0  0  3  0  0  0  0  0  0
  180.6570  178.9510  139.7870 C   0  0  0  0  0  3  0  0  0  0  0  0
  181.5510  179.1360  140.8440 C   0  0  0  0  0  3  0  0  0  0  0  0
  179.0740  178.0070  141.3430 C   0  0  0  0  0  3  0  0  0  0  0  0
  1 10  1  1  0  0  0
  2  6  2  0  0  0  0
  3  8  2  0  0  0  0
  4 14  1  6  0  0  0
  4 17  1  0  0  0  0
  6  5  1  0  0  0  0
  8  1  1  0  0  0  0
  8  2  1  0  0  0  0
  9  4  1  0  0  0  0
  9 16  1  0  0  0  0
 10  5  2  0  0  0  0
 11 18  2  0  0  0  0
 11  3  1  0  0  0  0
 12  1  1  0  0  0  0
 13  2  1  0  0  0  0
 15 14  1  6  0  0  0
 15 11  1  0  0  0  0
 16 26  1  1  0  0  0
 16  7  1  0  0  0  0
 17  7  1  1  0  0  0
 17  3  1  0  0  0  0
 18 12  1  0  0  0  0
 19 22  1  0  0  0  0
 20 23  1  6  0  0  0
 20 15  1  0  0  0  0
 21 19  2  0  0  0  0
 21 23  1  0  0  0  0
 22 20  1  0  0  0  0
 24 19  1  0  0  0  0
 25 24  1  0  0  0  0
 26 27  1  0  0  0  0
 29 30  1  0  0  0  0
 29 27  1  0  0  0  0
 30 28  2  0  0  0  0
 31 34  2  0  0  0  0
 32 31  1  0  0  0  0
 32 33  2  0  0  0  0
 33 29  1  0  0  0  0
 34 30  1  0  0  0  0
M  END
>  <MODEL>
8

>  <REMARK>
 VINA RESULT:      -8.8      1.607      2.155
  Name = 
  5 active torsions:
  status: ('A' for Active; 'I' for Inactive)
    1  A    between atoms: O_3  and  N_13
    2  A    between atoms: O_3  and  C_17
    3  A    between atoms: O_7  and  C_8
    4  A    between atoms: C_12  and  C_28
    5  A    between atoms: C_17  and  C_29
                            x       y       z     vdW  Elec       q    Type
                         _______ _______ _______ _____ _____    ______ ____

>  <TORSDO>
F 5

$$$$
=
 OpenBabel10252414513D

 34 39  0  0  1  0  0  0  0  0999 V2000
  187.9040  177.8980  139.1510 C   0  0  2  0  0  3  0  0  0  0  0  0
  189.3840  177.8490  141.1270 C   0  0  0  0  0  0  0  0  0  0  0  0
  186.8950  178.2770  141.3780 C   0  0  0  0  0  0  0  0  0  0  0  0
  185.4360  178.1600  143.3350 N   0  0  1  0  0  0  0  0  0  0  0  0
  190.2060  177.2470  138.9620 C   0  0  0  0  0  3  0  0  0  0  0  0
  190.3860  177.4600  140.2930 N   0  0  0  0  0  0  0  0  0  0  0  0
  187.4930  177.1390  143.6410 C   0  0  0  0  0  2  0  0  0  0  0  0
  188.0670  177.9950  140.6260 C   0  0  0  0  0  0  0  0  0  0  0  0
  185.5560  178.0460  144.7750 C   0  0  0  0  0  2  0  0  0  0  0  0
  188.9710  177.4790  138.3650 C   0  0  0  0  0  3  0  0  0  0  0  0
  185.7440  178.7210  140.6770 C   0  0  0  0  0  0  0  0  0  0  0  0
  186.7600  178.2380  138.5790 O   0  0  0  0  0  0  0  0  0  0  0  0
  189.6890  178.1790  142.3370 N   0  0  0  0  0  1  0  0  0  0  0  0
  184.7410  179.3670  142.9280 C   0  0  0  0  0  2  0  0  0  0  0  0
  184.5310  179.2890  141.4030 C   0  0  2  0  0  3  0  0  0  0  0  0
  186.8050  177.1940  145.0000 C   0  0  2  0  0  3  0  0  0  0  0  0
  186.8140  178.2670  142.8960 C   0  0  1  0  0  3  0  0  0  0  0  0
  185.7220  178.6700  139.2790 C   0  0  0  0  0  3  0  0  0  0  0  0
  181.1930  179.3550  140.1870 C   0  0  0  0  0  0  0  0  0  0  0  0
  183.2370  178.5550  141.0140 C   0  0  2  0  0  3  0  0  0  0  0  0
  180.9580  179.0670  141.4180 N   0  0  0  0  0  0  0  0  0  0  0  0
  182.6020  179.1520  139.7660 C   0  0  0  0  0  2  0  0  0  0  0  0
  182.1550  178.6100  142.0950 C   0  0  0  0  0  2  0  0  0  0  0  0
  180.1800  179.8150  139.3460 O   0  0  0  0  0  0  0  0  0  0  0  0
  179.5200  181.0500  139.5710 C   0  0  0  0  0  1  0  0  0  0  0  0
  187.7150  177.8270  146.0470 C   0  0  0  0  0  2  0  0  0  0  0  0
  189.0380  177.9880  145.5370 O   0  0  0  0  0  0  0  0  0  0  0  0
  189.6820  177.7870  148.1200 O   0  0  0  0  0  0  0  0  0  0  0  0
  190.1020  177.2080  145.9570 N   0  0  0  0  0  0  0  0  0  0  0  0
  190.3890  177.1540  147.2910 C   0  0  0  0  0  0  0  0  0  0  0  0
  192.2510  175.6890  146.8370 C   0  0  0  0  0  3  0  0  0  0  0  0
  191.9430  175.7410  145.4790 C   0  0  0  0  0  3  0  0  0  0  0  0
  190.8610  176.5150  145.0550 C   0  0  0  0  0  3  0  0  0  0  0  0
  191.4690  176.3970  147.7520 C   0  0  0  0  0  3  0  0  0  0  0  0
  1 10  1  6  0  0  0
  1  8  1  0  0  0  0
  2 13  1  0  0  0  0
  3 17  1  0  0  0  0
  4 14  1  1  0  0  0
  4  9  1  0  0  0  0
  5  6  1  0  0  0  0
  6  2  2  0  0  0  0
  7 16  1  0  0  0  0
  8  2  1  0  0  0  0
  8  3  2  0  0  0  0
  9 16  1  0  0  0  0
 10  5  2  0  0  0  0
 11  3  1  0  0  0  0
 11 15  1  0  0  0  0
 12  1  1  0  0  0  0
 12 18  1  0  0  0  0
 15 14  1  1  0  0  0
 16 26  1  1  0  0  0
 17  4  1  0  0  0  0
 17  7  1  6  0  0  0
 18 11  2  0  0  0  0
 19 21  2  0  0  0  0
 20 22  1  6  0  0  0
 20 15  1  0  0  0  0
 20 23  1  0  0  0  0
 21 23  1  0  0  0  0
 22 19  1  0  0  0  0
 24 25  1  0  0  0  0
 24 19  1  0  0  0  0
 27 29  1  0  0  0  0
 27 26  1  0  0  0  0
 29 30  1  0  0  0  0
 30 34  1  0  0  0  0
 30 28  2  0  0  0  0
 31 34  2  0  0  0  0
 32 31  1  0  0  0  0
 33 32  2  0  0  0  0
 33 29  1  0  0  0  0
M  END
>  <MODEL>
9

>  <REMARK>
 VINA RESULT:      -8.6      2.228      7.912
  Name = 
  5 active torsions:
  status: ('A' for Active; 'I' for Inactive)
    1  A    between atoms: O_3  and  N_13
    2  A    between atoms: O_3  and  C_17
    3  A    between atoms: O_7  and  C_8
    4  A    between atoms: C_12  and  C_28
    5  A    between atoms: C_17  and  C_29
                            x       y       z     vdW  Elec       q    Type
                         _______ _______ _______ _____ _____    ______ ____

>  <TORSDO>
F 5

$$$$
