=
 OpenBabel10262421553D

 30 34  0  0  1  0  0  0  0  0999 V2000
  183.1400  176.9220  140.1070 C   0  0  0  0  0  2  0  0  0  0  0  0
  182.2220  177.2860  137.7840 C   0  0  0  0  0  0  0  0  0  0  0  0
  183.6270  177.7390  141.2250 N   0  0  2  0  0  0  0  0  0  0  0  0
  181.4420  178.0090  136.8770 C   0  0  0  0  0  3  0  0  0  0  0  0
  182.9630  176.0900  137.2900 C   0  0  0  0  0  1  0  0  0  0  0  0
  181.6830  179.3380  140.9750 C   0  0  1  0  0  3  0  0  0  0  0  0
  180.7420  179.1400  137.2970 C   0  0  0  0  0  3  0  0  0  0  0  0
  182.3040  177.7000  139.1280 C   0  0  0  0  0  0  0  0  0  0  0  0
  182.5190  178.4360  141.8990 C   0  0  2  0  0  3  0  0  0  0  0  0
  182.9820  179.1750  143.1480 C   0  0  0  0  0  1  0  0  0  0  0  0
  180.8120  179.5490  138.6290 C   0  0  0  0  0  3  0  0  0  0  0  0
  181.5700  178.8250  139.5590 C   0  0  0  0  0  0  0  0  0  0  0  0
  184.7920  178.5690  140.8450 C   0  0  1  0  0  0  0  0  0  0  0  0
  185.0350  179.6050  141.7650 O   0  0  0  0  0  0  0  0  0  0  0  0
  185.9650  178.5410  141.7610 C   0  0  1  0  0  3  0  0  0  0  0  0
  184.5690  179.9700  138.9570 O   0  0  0  0  0  0  0  0  0  0  0  0
  185.0700  178.9550  139.4170 C   0  0  0  0  0  0  0  0  0  0  0  0
  185.9040  178.0650  138.5420 C   0  0  1  0  0  3  0  0  0  0  0  0
  185.4150  178.0980  137.2320 O   0  0  0  0  0  0  0  0  0  0  0  0
  186.2980  177.3030  136.4980 C   0  0  0  0  0  1  0  0  0  0  0  0
  187.3610  178.5040  138.5620 C   0  0  0  0  0  2  0  0  0  0  0  0
  188.2100  177.4800  139.2890 C   0  0  0  0  0  1  0  0  0  0  0  0
  185.7370  177.7260  142.8740 O   0  0  0  0  0  0  0  0  0  0  0  0
  186.5430  178.2660  143.8770 C   0  0  2  0  0  3  0  0  0  0  0  0
  187.1140  177.1470  144.7270 C   0  0  2  0  0  3  0  0  0  0  0  0
  185.9440  177.9440  145.2330 C   0  0  1  0  0  3  0  0  0  0  0  0
  187.0710  177.5790  146.1790 C   0  0  0  0  0  2  0  0  0  0  0  0
  180.3140  179.6440  141.5920 C   0  0  0  0  0  2  0  0  0  0  0  0
  179.5190  178.3790  141.8770 C   0  0  0  0  0  2  0  0  0  0  0  0
  179.2300  178.3080  143.2390 O   0  0  0  0  0  1  0  0  0  0  0  0
  2  8  1  0  0  0  0
  3  1  1  6  0  0  0
  3  9  1  0  0  0  0
  4  7  1  0  0  0  0
  4  2  2  0  0  0  0
  5  2  1  0  0  0  0
  6 28  1  1  0  0  0
  6  9  1  0  0  0  0
  7 11  2  0  0  0  0
  8 12  2  0  0  0  0
  8  1  1  0  0  0  0
  9 10  1  1  0  0  0
 11 12  1  0  0  0  0
 12  6  1  0  0  0  0
 13 17  1  6  0  0  0
 13  3  1  0  0  0  0
 13 15  1  0  0  0  0
 13 14  1  0  0  0  0
 15 14  1  0  0  0  0
 15 23  1  1  0  0  0
 16 17  2  0  0  0  0
 18 21  1  6  0  0  0
 18 17  1  0  0  0  0
 19 18  1  0  0  0  0
 20 19  1  0  0  0  0
 21 22  1  0  0  0  0
 24 23  1  6  0  0  0
 24 25  1  0  0  0  0
 24 26  1  0  0  0  0
 25 26  1  0  0  0  0
 25 27  1  1  0  0  0
 26 27  1  1  0  0  0
 28 29  1  0  0  0  0
 29 30  1  0  0  0  0
M  END
>  <MODEL>
1

>  <REMARK>
 VINA RESULT:      -5.5      0.000      0.000
  Name = 
  9 active torsions:
  status: ('A' for Active; 'I' for Inactive)
    1  A    between atoms: C_3  and  C_11
    2  A    between atoms: C_3  and  C_19
    3  A    between atoms: N_4  and  C_13
    4  A    between atoms: O_5  and  C_12
    5  A    between atoms: C_7  and  O_16
    6  A    between atoms: C_8  and  C_12
    7  A    between atoms: C_8  and  C_13
    8  A    between atoms: C_9  and  C_12
    9  A    between atoms: O_16  and  C_30
                            x       y       z     vdW  Elec       q    Type
                         _______ _______ _______ _____ _____    ______ ____

>  <TORSDO>
F 9

$$$$
=
 OpenBabel10262421553D

 30 34  0  0  1  0  0  0  0  0999 V2000
  184.1040  179.2470  139.1160 C   0  0  0  0  0  2  0  0  0  0  0  0
  184.2450  178.9540  141.6190 C   0  0  0  0  0  0  0  0  0  0  0  0
  183.3040  178.7230  138.0030 N   0  0  2  0  0  0  0  0  0  0  0  0
  183.6390  178.7670  142.8640 C   0  0  0  0  0  3  0  0  0  0  0  0
  185.7330  179.0420  141.5580 C   0  0  0  0  0  1  0  0  0  0  0  0
  181.1700  179.0000  139.3340 C   0  0  1  0  0  3  0  0  0  0  0  0
  182.2510  178.6680  142.9630 C   0  0  0  0  0  3  0  0  0  0  0  0
  183.4540  179.0430  140.4570 C   0  0  0  0  0  0  0  0  0  0  0  0
  181.9350  179.2670  138.0260 C   0  0  2  0  0  3  0  0  0  0  0  0
  181.1310  178.8500  136.8020 C   0  0  0  0  0  1  0  0  0  0  0  0
  181.4620  178.7650  141.8170 C   0  0  0  0  0  3  0  0  0  0  0  0
  182.0490  178.9750  140.5620 C   0  0  0  0  0  0  0  0  0  0  0  0
  183.4240  177.2530  137.8700 C   0  0  1  0  0  0  0  0  0  0  0  0
  183.5440  176.8440  136.5290 O   0  0  0  0  0  0  0  0  0  0  0  0
  184.7060  176.7300  137.3250 C   0  0  1  0  0  3  0  0  0  0  0  0
  182.9740  176.0800  139.8690 O   0  0  0  0  0  0  0  0  0  0  0  0
  182.6230  176.3040  138.7200 C   0  0  0  0  0  0  0  0  0  0  0  0
  181.4360  175.5890  138.1430 C   0  0  1  0  0  3  0  0  0  0  0  0
  181.8210  174.3190  137.6990 O   0  0  0  0  0  0  0  0  0  0  0  0
  181.2740  174.2040  136.4190 C   0  0  0  0  0  1  0  0  0  0  0  0
  180.3290  175.4610  139.1800 C   0  0  0  0  0  2  0  0  0  0  0  0
  179.0590  176.1200  138.6780 C   0  0  0  0  0  1  0  0  0  0  0  0
  185.5910  177.7600  136.9970 O   0  0  0  0  0  0  0  0  0  0  0  0
  186.8580  177.2270  137.2370 C   0  0  2  0  0  3  0  0  0  0  0  0
  187.4940  177.9370  138.4160 C   0  0  2  0  0  3  0  0  0  0  0  0
  187.9080  178.3000  137.0170 C   0  0  1  0  0  3  0  0  0  0  0  0
  188.9580  178.1700  138.1020 C   0  0  0  0  0  2  0  0  0  0  0  0
  179.9860  179.9620  139.4870 C   0  0  0  0  0  2  0  0  0  0  0  0
  180.4030  181.4150  139.3130 C   0  0  0  0  0  2  0  0  0  0  0  0
  179.6290  182.0030  138.3130 O   0  0  0  0  0  1  0  0  0  0  0  0
  1  8  1  0  0  0  0
  2  4  1  0  0  0  0
  3  9  1  0  0  0  0
  3  1  1  1  0  0  0
  4  7  2  0  0  0  0
  5  2  1  0  0  0  0
  6 28  1  1  0  0  0
  6 12  1  0  0  0  0
  8 12  1  0  0  0  0
  8  2  2  0  0  0  0
  9 10  1  6  0  0  0
  9  6  1  0  0  0  0
 11  7  1  0  0  0  0
 12 11  2  0  0  0  0
 13  3  1  0  0  0  0
 13 17  1  1  0  0  0
 14 15  1  0  0  0  0
 14 13  1  0  0  0  0
 15 23  1  6  0  0  0
 15 13  1  0  0  0  0
 17 16  2  0  0  0  0
 18 17  1  0  0  0  0
 18 21  1  1  0  0  0
 19 18  1  0  0  0  0
 20 19  1  0  0  0  0
 22 21  1  0  0  0  0
 24 23  1  6  0  0  0
 24 25  1  0  0  0  0
 25 27  1  1  0  0  0
 26 24  1  0  0  0  0
 26 27  1  1  0  0  0
 26 25  1  0  0  0  0
 29 28  1  0  0  0  0
 30 29  1  0  0  0  0
M  END
>  <MODEL>
2

>  <REMARK>
 VINA RESULT:      -5.4      2.423      5.451
  Name = 
  9 active torsions:
  status: ('A' for Active; 'I' for Inactive)
    1  A    between atoms: C_3  and  C_11
    2  A    between atoms: C_3  and  C_19
    3  A    between atoms: N_4  and  C_13
    4  A    between atoms: O_5  and  C_12
    5  A    between atoms: C_7  and  O_16
    6  A    between atoms: C_8  and  C_12
    7  A    between atoms: C_8  and  C_13
    8  A    between atoms: C_9  and  C_12
    9  A    between atoms: O_16  and  C_30
                            x       y       z     vdW  Elec       q    Type
                         _______ _______ _______ _____ _____    ______ ____

>  <TORSDO>
F 9

$$$$
=
 OpenBabel10262421553D

 30 34  0  0  1  0  0  0  0  0999 V2000
  180.6240  177.9650  140.4860 C   0  0  0  0  0  2  0  0  0  0  0  0
  179.6010  175.8730  139.5100 C   0  0  0  0  0  0  0  0  0  0  0  0
  181.6880  178.9170  140.1440 N   0  0  2  0  0  0  0  0  0  0  0  0
  179.1700  175.1200  138.4150 C   0  0  0  0  0  3  0  0  0  0  0  0
  179.4650  175.2890  140.8760 C   0  0  0  0  0  1  0  0  0  0  0  0
  180.9070  179.0110  137.7400 C   0  0  1  0  0  3  0  0  0  0  0  0
  179.2900  175.6260  137.1210 C   0  0  0  0  0  3  0  0  0  0  0  0
  180.1620  177.1510  139.3090 C   0  0  0  0  0  0  0  0  0  0  0  0
  181.2920  179.7780  139.0160 C   0  0  2  0  0  3  0  0  0  0  0  0
  182.3200  180.8660  138.7380 C   0  0  0  0  0  1  0  0  0  0  0  0
  179.8350  176.8940  136.9170 C   0  0  0  0  0  3  0  0  0  0  0  0
  180.2530  177.6750  138.0030 C   0  0  0  0  0  0  0  0  0  0  0  0
  183.0120  178.2640  140.0390 C   0  0  1  0  0  0  0  0  0  0  0  0
  184.0690  179.1430  140.3360 O   0  0  0  0  0  0  0  0  0  0  0  0
  183.8020  178.1380  141.2930 C   0  0  1  0  0  3  0  0  0  0  0  0
  183.0530  176.1010  139.0910 O   0  0  0  0  0  0  0  0  0  0  0  0
  183.3350  177.2810  138.9450 C   0  0  0  0  0  0  0  0  0  0  0  0
  184.0560  177.7350  137.7090 C   0  0  1  0  0  3  0  0  0  0  0  0
  185.4060  177.9530  138.0040 O   0  0  0  0  0  0  0  0  0  0  0  0
  186.0920  176.9490  137.3180 C   0  0  0  0  0  1  0  0  0  0  0  0
  183.9290  176.6980  136.6020 C   0  0  0  0  0  2  0  0  0  0  0  0
  183.1090  177.2520  135.4540 C   0  0  0  0  0  1  0  0  0  0  0  0
  183.1390  178.7070  142.3850 O   0  0  0  0  0  0  0  0  0  0  0  0
  184.1470  179.3250  143.1270 C   0  0  2  0  0  3  0  0  0  0  0  0
  184.9490  178.2730  143.8700 C   0  0  2  0  0  3  0  0  0  0  0  0
  183.9110  179.0760  144.6040 C   0  0  1  0  0  3  0  0  0  0  0  0
  185.2470  178.7950  145.2610 C   0  0  0  0  0  2  0  0  0  0  0  0
  180.0750  179.8890  136.7980 C   0  0  0  0  0  2  0  0  0  0  0  0
  180.7890  180.1520  135.4800 C   0  0  0  0  0  2  0  0  0  0  0  0
  180.8090  181.5240  135.2300 O   0  0  0  0  0  1  0  0  0  0  0  0
  2  5  1  0  0  0  0
  3  1  1  6  0  0  0
  4  2  2  0  0  0  0
  6 28  1  1  0  0  0
  6 12  1  0  0  0  0
  6  9  1  0  0  0  0
  7  4  1  0  0  0  0
  8  2  1  0  0  0  0
  8  1  1  0  0  0  0
  9 10  1  6  0  0  0
  9  3  1  0  0  0  0
 11  7  2  0  0  0  0
 11 12  1  0  0  0  0
 12  8  2  0  0  0  0
 13 17  1  6  0  0  0
 13  3  1  0  0  0  0
 13 14  1  0  0  0  0
 13 15  1  0  0  0  0
 14 15  1  0  0  0  0
 15 23  1  1  0  0  0
 17 16  2  0  0  0  0
 18 21  1  6  0  0  0
 18 19  1  0  0  0  0
 18 17  1  0  0  0  0
 20 19  1  0  0  0  0
 22 21  1  0  0  0  0
 24 23  1  6  0  0  0
 24 25  1  0  0  0  0
 24 26  1  0  0  0  0
 25 26  1  0  0  0  0
 25 27  1  1  0  0  0
 26 27  1  1  0  0  0
 29 28  1  0  0  0  0
 30 29  1  0  0  0  0
M  END
>  <MODEL>
3

>  <REMARK>
 VINA RESULT:      -5.3      2.249      3.781
  Name = 
  9 active torsions:
  status: ('A' for Active; 'I' for Inactive)
    1  A    between atoms: C_3  and  C_11
    2  A    between atoms: C_3  and  C_19
    3  A    between atoms: N_4  and  C_13
    4  A    between atoms: O_5  and  C_12
    5  A    between atoms: C_7  and  O_16
    6  A    between atoms: C_8  and  C_12
    7  A    between atoms: C_8  and  C_13
    8  A    between atoms: C_9  and  C_12
    9  A    between atoms: O_16  and  C_30
                            x       y       z     vdW  Elec       q    Type
                         _______ _______ _______ _____ _____    ______ ____

>  <TORSDO>
F 9

$$$$
=
 OpenBabel10262421553D

 30 34  0  0  1  0  0  0  0  0999 V2000
  182.5570  176.9560  139.8050 C   0  0  0  0  0  2  0  0  0  0  0  0
  180.0650  177.1410  140.1670 C   0  0  0  0  0  0  0  0  0  0  0  0
  183.7400  177.8160  139.9250 N   0  0  2  0  0  0  0  0  0  0  0  0
  178.9670  177.6200  140.8870 C   0  0  0  0  0  3  0  0  0  0  0  0
  179.8150  176.2940  138.9650 C   0  0  0  0  0  1  0  0  0  0  0  0
  182.9470  178.6890  142.1630 C   0  0  1  0  0  3  0  0  0  0  0  0
  179.1570  178.4230  142.0100 C   0  0  0  0  0  3  0  0  0  0  0  0
  181.3720  177.4720  140.5760 C   0  0  0  0  0  0  0  0  0  0  0  0
  184.0820  178.0590  141.3370 C   0  0  2  0  0  3  0  0  0  0  0  0
  185.3870  178.8290  141.4860 C   0  0  0  0  0  1  0  0  0  0  0  0
  180.4500  178.7460  142.4250 C   0  0  0  0  0  3  0  0  0  0  0  0
  181.5650  178.2580  141.7310 C   0  0  0  0  0  0  0  0  0  0  0  0
  183.6560  179.0100  139.0540 C   0  0  1  0  0  0  0  0  0  0  0  0
  184.5440  180.0260  139.4500 O   0  0  0  0  0  0  0  0  0  0  0  0
  184.8650  179.3450  138.2540 C   0  0  1  0  0  3  0  0  0  0  0  0
  181.8090  178.9670  137.5830 O   0  0  0  0  0  0  0  0  0  0  0  0
  182.3440  179.5270  138.5290 C   0  0  0  0  0  0  0  0  0  0  0  0
  181.7250  180.7600  139.1200 C   0  0  1  0  0  3  0  0  0  0  0  0
  182.2060  181.8940  138.4560 O   0  0  0  0  0  0  0  0  0  0  0  0
  181.1850  182.2540  137.5730 C   0  0  0  0  0  1  0  0  0  0  0  0
  180.2080  180.7040  139.0160 C   0  0  0  0  0  2  0  0  0  0  0  0
  179.5720  181.3670  140.2210 C   0  0  0  0  0  1  0  0  0  0  0  0
  185.9150  178.4550  138.4990 O   0  0  0  0  0  0  0  0  0  0  0  0
  186.5460  178.3050  137.2640 C   0  0  2  0  0  3  0  0  0  0  0  0
  186.5950  176.8350  136.8940 C   0  0  2  0  0  3  0  0  0  0  0  0
  187.8230  177.5060  137.4440 C   0  0  1  0  0  3  0  0  0  0  0  0
  187.9510  176.5400  136.2820 C   0  0  0  0  0  2  0  0  0  0  0  0
  183.1760  178.4800  143.6650 C   0  0  0  0  0  2  0  0  0  0  0  0
  183.7290  179.7280  144.3380 C   0  0  0  0  0  2  0  0  0  0  0  0
  184.1420  179.4120  145.6310 O   0  0  0  0  0  1  0  0  0  0  0  0
  1  8  1  0  0  0  0
  2  8  2  0  0  0  0
  2  4  1  0  0  0  0
  3  1  1  1  0  0  0
  3  9  1  0  0  0  0
  4  7  2  0  0  0  0
  5  2  1  0  0  0  0
  6 28  1  1  0  0  0
  7 11  1  0  0  0  0
  8 12  1  0  0  0  0
  9 10  1  6  0  0  0
  9  6  1  0  0  0  0
 12  6  1  0  0  0  0
 12 11  2  0  0  0  0
 13 17  1  6  0  0  0
 13 14  1  0  0  0  0
 13  3  1  0  0  0  0
 15 23  1  1  0  0  0
 15 13  1  0  0  0  0
 15 14  1  0  0  0  0
 16 17  2  0  0  0  0
 17 18  1  0  0  0  0
 18 21  1  6  0  0  0
 19 18  1  0  0  0  0
 20 19  1  0  0  0  0
 21 22  1  0  0  0  0
 24 26  1  0  0  0  0
 24 23  1  1  0  0  0
 25 27  1  6  0  0  0
 25 24  1  0  0  0  0
 25 26  1  0  0  0  0
 26 27  1  6  0  0  0
 28 29  1  0  0  0  0
 29 30  1  0  0  0  0
M  END
>  <MODEL>
4

>  <REMARK>
 VINA RESULT:      -5.3      2.225      5.048
  Name = 
  9 active torsions:
  status: ('A' for Active; 'I' for Inactive)
    1  A    between atoms: C_3  and  C_11
    2  A    between atoms: C_3  and  C_19
    3  A    between atoms: N_4  and  C_13
    4  A    between atoms: O_5  and  C_12
    5  A    between atoms: C_7  and  O_16
    6  A    between atoms: C_8  and  C_12
    7  A    between atoms: C_8  and  C_13
    8  A    between atoms: C_9  and  C_12
    9  A    between atoms: O_16  and  C_30
                            x       y       z     vdW  Elec       q    Type
                         _______ _______ _______ _____ _____    ______ ____

>  <TORSDO>
F 9

$$$$
=
 OpenBabel10262421553D

 30 34  0  0  1  0  0  0  0  0999 V2000
  189.0570  178.9070  144.6290 C   0  0  0  0  0  2  0  0  0  0  0  0
  191.3270  177.8100  144.7480 C   0  0  0  0  0  0  0  0  0  0  0  0
  187.6480  178.4990  144.6810 N   0  0  2  0  0  0  0  0  0  0  0  0
  192.1940  176.8490  145.2760 C   0  0  0  0  0  3  0  0  0  0  0  0
  191.8470  178.7450  143.7090 C   0  0  0  0  0  1  0  0  0  0  0  0
  188.1050  176.9730  146.6460 C   0  0  1  0  0  3  0  0  0  0  0  0
  191.7440  175.9490  146.2410 C   0  0  0  0  0  3  0  0  0  0  0  0
  189.9910  177.8720  145.1920 C   0  0  0  0  0  0  0  0  0  0  0  0
  187.2560  178.1070  146.0460 C   0  0  2  0  0  3  0  0  0  0  0  0
  185.7650  177.8180  146.1530 C   0  0  0  0  0  1  0  0  0  0  0  0
  190.4250  176.0120  146.6910 C   0  0  0  0  0  3  0  0  0  0  0  0
  189.5460  176.9820  146.1920 C   0  0  0  0  0  0  0  0  0  0  0  0
  187.2980  177.5520  143.5990 C   0  0  1  0  0  0  0  0  0  0  0  0
  186.1750  176.7660  143.9160 O   0  0  0  0  0  0  0  0  0  0  0  0
  185.9870  177.7550  142.9250 C   0  0  1  0  0  3  0  0  0  0  0  0
  188.5970  175.6490  143.0800 O   0  0  0  0  0  0  0  0  0  0  0  0
  188.3460  176.8150  142.8100 C   0  0  0  0  0  0  0  0  0  0  0  0
  189.1260  177.5230  141.7400 C   0  0  1  0  0  3  0  0  0  0  0  0
  189.6110  176.5930  140.8160 O   0  0  0  0  0  0  0  0  0  0  0  0
  190.9810  176.8500  140.7310 C   0  0  0  0  0  1  0  0  0  0  0  0
  188.2540  178.5510  141.0320 C   0  0  0  0  0  2  0  0  0  0  0  0
  187.9710  178.1100  139.6100 C   0  0  0  0  0  1  0  0  0  0  0  0
  185.2800  178.8290  143.4750 O   0  0  0  0  0  0  0  0  0  0  0  0
  183.9950  178.3300  143.6940 C   0  0  2  0  0  3  0  0  0  0  0  0
  183.0580  178.8490  142.6200 C   0  0  2  0  0  3  0  0  0  0  0  0
  183.0500  179.4800  143.9850 C   0  0  1  0  0  3  0  0  0  0  0  0
  181.7390  179.2140  143.2720 C   0  0  0  0  0  2  0  0  0  0  0  0
  187.9790  176.9390  148.1740 C   0  0  0  0  0  2  0  0  0  0  0  0
  188.2000  178.3090  148.7980 C   0  0  0  0  0  2  0  0  0  0  0  0
  189.5660  178.5250  148.9690 O   0  0  0  0  0  1  0  0  0  0  0  0
  1  8  1  0  0  0  0
  2  8  2  0  0  0  0
  2  4  1  0  0  0  0
  3  1  1  1  0  0  0
  3  9  1  0  0  0  0
  4  7  2  0  0  0  0
  5  2  1  0  0  0  0
  6 28  1  1  0  0  0
  7 11  1  0  0  0  0
  8 12  1  0  0  0  0
  9 10  1  6  0  0  0
  9  6  1  0  0  0  0
 12  6  1  0  0  0  0
 12 11  2  0  0  0  0
 13 17  1  6  0  0  0
 13 14  1  0  0  0  0
 13  3  1  0  0  0  0
 15 23  1  1  0  0  0
 15 13  1  0  0  0  0
 15 14  1  0  0  0  0
 17 16  2  0  0  0  0
 18 21  1  6  0  0  0
 18 17  1  0  0  0  0
 19 18  1  0  0  0  0
 20 19  1  0  0  0  0
 22 21  1  0  0  0  0
 24 23  1  6  0  0  0
 24 26  1  0  0  0  0
 25 27  1  1  0  0  0
 25 24  1  0  0  0  0
 25 26  1  0  0  0  0
 26 27  1  1  0  0  0
 28 29  1  0  0  0  0
 29 30  1  0  0  0  0
M  END
>  <MODEL>
5

>  <REMARK>
 VINA RESULT:      -5.0      3.536      8.014
  Name = 
  9 active torsions:
  status: ('A' for Active; 'I' for Inactive)
    1  A    between atoms: C_3  and  C_11
    2  A    between atoms: C_3  and  C_19
    3  A    between atoms: N_4  and  C_13
    4  A    between atoms: O_5  and  C_12
    5  A    between atoms: C_7  and  O_16
    6  A    between atoms: C_8  and  C_12
    7  A    between atoms: C_8  and  C_13
    8  A    between atoms: C_9  and  C_12
    9  A    between atoms: O_16  and  C_30
                            x       y       z     vdW  Elec       q    Type
                         _______ _______ _______ _____ _____    ______ ____

>  <TORSDO>
F 9

$$$$
=
 OpenBabel10262421553D

 30 34  0  0  1  0  0  0  0  0999 V2000
  182.7110  176.9500  140.4120 C   0  0  0  0  0  2  0  0  0  0  0  0
  180.1970  177.1720  140.3580 C   0  0  0  0  0  0  0  0  0  0  0  0
  183.8790  177.8360  140.4790 N   0  0  2  0  0  0  0  0  0  0  0  0
  179.0150  177.7930  140.7710 C   0  0  0  0  0  3  0  0  0  0  0  0
  180.1060  176.0460  139.3840 C   0  0  0  0  0  1  0  0  0  0  0  0
  182.7900  179.2260  142.2910 C   0  0  1  0  0  3  0  0  0  0  0  0
  179.0570  178.8570  141.6730 C   0  0  0  0  0  3  0  0  0  0  0  0
  181.4380  177.6200  140.8520 C   0  0  0  0  0  0  0  0  0  0  0  0
  184.0210  178.4320  141.8190 C   0  0  2  0  0  3  0  0  0  0  0  0
  185.3040  179.2400  141.9540 C   0  0  0  0  0  1  0  0  0  0  0  0
  180.2830  179.2980  142.1730 C   0  0  0  0  0  3  0  0  0  0  0  0
  181.4770  178.6740  141.7890 C   0  0  0  0  0  0  0  0  0  0  0  0
  183.9410  178.7710  139.3340 C   0  0  1  0  0  0  0  0  0  0  0  0
  184.9280  179.7590  139.5000 O   0  0  0  0  0  0  0  0  0  0  0  0
  185.1910  178.7670  138.5280 C   0  0  1  0  0  3  0  0  0  0  0  0
  182.0320  180.1520  139.1580 O   0  0  0  0  0  0  0  0  0  0  0  0
  182.7010  179.2690  138.6400 C   0  0  0  0  0  0  0  0  0  0  0  0
  182.2530  178.6430  137.3510 C   0  0  1  0  0  3  0  0  0  0  0  0
  182.5190  177.2710  137.3750 O   0  0  0  0  0  0  0  0  0  0  0  0
  182.7890  176.9320  136.0470 C   0  0  0  0  0  1  0  0  0  0  0  0
  180.7660  178.8780  137.1280 C   0  0  0  0  0  2  0  0  0  0  0  0
  180.5530  179.9090  136.0380 C   0  0  0  0  0  1  0  0  0  0  0  0
  186.1330  177.8660  139.0340 O   0  0  0  0  0  0  0  0  0  0  0  0
  187.3490  178.2830  138.4890 C   0  0  2  0  0  3  0  0  0  0  0  0
  188.3340  177.1290  138.5030 C   0  0  2  0  0  3  0  0  0  0  0  0
  188.4300  178.2050  139.5500 C   0  0  1  0  0  3  0  0  0  0  0  0
  189.6930  177.6660  138.9070 C   0  0  0  0  0  2  0  0  0  0  0  0
  182.8000  179.4050  143.8130 C   0  0  0  0  0  2  0  0  0  0  0  0
  183.8200  178.5010  144.4900 C   0  0  0  0  0  2  0  0  0  0  0  0
  184.0860  178.9800  145.7720 O   0  0  0  0  0  1  0  0  0  0  0  0
  1  8  1  0  0  0  0
  2  4  2  0  0  0  0
  2  8  1  0  0  0  0
  3  1  1  1  0  0  0
  3  9  1  0  0  0  0
  4  7  1  0  0  0  0
  5  2  1  0  0  0  0
  6 28  1  1  0  0  0
  7 11  2  0  0  0  0
  8 12  2  0  0  0  0
  9 10  1  6  0  0  0
  9  6  1  0  0  0  0
 12 11  1  0  0  0  0
 12  6  1  0  0  0  0
 13 17  1  6  0  0  0
 13 14  1  0  0  0  0
 13  3  1  0  0  0  0
 15 23  1  1  0  0  0
 15 13  1  0  0  0  0
 15 14  1  0  0  0  0
 17 16  2  0  0  0  0
 18 21  1  1  0  0  0
 18 19  1  0  0  0  0
 18 17  1  0  0  0  0
 20 19  1  0  0  0  0
 22 21  1  0  0  0  0
 24 25  1  0  0  0  0
 24 23  1  1  0  0  0
 24 26  1  0  0  0  0
 25 27  1  6  0  0  0
 25 26  1  0  0  0  0
 26 27  1  6  0  0  0
 28 29  1  0  0  0  0
 29 30  1  0  0  0  0
M  END
>  <MODEL>
6

>  <REMARK>
 VINA RESULT:      -4.9      1.976      4.246
  Name = 
  9 active torsions:
  status: ('A' for Active; 'I' for Inactive)
    1  A    between atoms: C_3  and  C_11
    2  A    between atoms: C_3  and  C_19
    3  A    between atoms: N_4  and  C_13
    4  A    between atoms: O_5  and  C_12
    5  A    between atoms: C_7  and  O_16
    6  A    between atoms: C_8  and  C_12
    7  A    between atoms: C_8  and  C_13
    8  A    between atoms: C_9  and  C_12
    9  A    between atoms: O_16  and  C_30
                            x       y       z     vdW  Elec       q    Type
                         _______ _______ _______ _____ _____    ______ ____

>  <TORSDO>
F 9

$$$$
=
 OpenBabel10262421553D

 30 34  0  0  1  0  0  0  0  0999 V2000
  183.0550  177.0820  139.6200 C   0  0  0  0  0  2  0  0  0  0  0  0
  184.0780  177.4020  137.3340 C   0  0  0  0  0  0  0  0  0  0  0  0
  181.7690  177.3300  140.2810 N   0  0  2  0  0  0  0  0  0  0  0  0
  183.9830  177.3870  135.9400 C   0  0  0  0  0  3  0  0  0  0  0  0
  185.3780  177.7850  137.9560 C   0  0  0  0  0  1  0  0  0  0  0  0
  180.5070  176.3960  138.2970 C   0  0  1  0  0  3  0  0  0  0  0  0
  182.7810  177.0460  135.3200 C   0  0  0  0  0  3  0  0  0  0  0  0
  182.9560  177.0700  138.1200 C   0  0  0  0  0  0  0  0  0  0  0  0
  180.7390  176.3840  139.8170 C   0  0  2  0  0  3  0  0  0  0  0  0
  179.4360  176.5300  140.5920 C   0  0  0  0  0  1  0  0  0  0  0  0
  181.6700  176.7080  136.0920 C   0  0  0  0  0  3  0  0  0  0  0  0
  181.7500  176.6940  137.4910 C   0  0  0  0  0  0  0  0  0  0  0  0
  181.3980  178.7630  140.2650 C   0  0  1  0  0  0  0  0  0  0  0  0
  180.2200  179.0210  140.9890 O   0  0  0  0  0  0  0  0  0  0  0  0
  181.4240  179.4790  141.5700 C   0  0  1  0  0  3  0  0  0  0  0  0
  182.6240  180.1410  138.7900 O   0  0  0  0  0  0  0  0  0  0  0  0
  181.5480  179.6160  139.0340 C   0  0  0  0  0  0  0  0  0  0  0  0
  180.3670  179.8720  138.1430 C   0  0  1  0  0  3  0  0  0  0  0  0
  179.4460  180.6910  138.8040 O   0  0  0  0  0  0  0  0  0  0  0  0
  179.9820  181.9770  138.7200 C   0  0  0  0  0  1  0  0  0  0  0  0
  180.8060  180.5320  136.8440 C   0  0  0  0  0  2  0  0  0  0  0  0
  180.0960  179.8970  135.6640 C   0  0  0  0  0  1  0  0  0  0  0  0
  181.7790  178.6300  142.6220 O   0  0  0  0  0  0  0  0  0  0  0  0
  182.6600  179.3810  143.4000 C   0  0  2  0  0  3  0  0  0  0  0  0
  183.9690  178.6300  143.5530 C   0  0  2  0  0  3  0  0  0  0  0  0
  182.9730  178.6280  144.6790 C   0  0  1  0  0  3  0  0  0  0  0  0
  184.4490  178.7920  144.9820 C   0  0  0  0  0  2  0  0  0  0  0  0
  179.8100  175.1110  137.8340 C   0  0  0  0  0  2  0  0  0  0  0  0
  180.6370  173.8700  138.1380 C   0  0  0  0  0  2  0  0  0  0  0  0
  179.8460  172.7340  137.9720 O   0  0  0  0  0  1  0  0  0  0  0  0
  2  5  1  0  0  0  0
  2  8  1  0  0  0  0
  3  1  1  6  0  0  0
  4  2  2  0  0  0  0
  6 28  1  6  0  0  0
  6  9  1  0  0  0  0
  7  4  1  0  0  0  0
  7 11  2  0  0  0  0
  8  1  1  0  0  0  0
  9  3  1  0  0  0  0
  9 10  1  1  0  0  0
 11 12  1  0  0  0  0
 12  8  2  0  0  0  0
 12  6  1  0  0  0  0
 13 17  1  6  0  0  0
 13  3  1  0  0  0  0
 13 14  1  0  0  0  0
 13 15  1  0  0  0  0
 14 15  1  0  0  0  0
 15 23  1  1  0  0  0
 16 17  2  0  0  0  0
 18 21  1  6  0  0  0
 18 19  1  0  0  0  0
 18 17  1  0  0  0  0
 20 19  1  0  0  0  0
 22 21  1  0  0  0  0
 24 23  1  6  0  0  0
 24 25  1  0  0  0  0
 24 26  1  0  0  0  0
 25 26  1  0  0  0  0
 25 27  1  1  0  0  0
 26 27  1  1  0  0  0
 28 29  1  0  0  0  0
 30 29  1  0  0  0  0
M  END
>  <MODEL>
7

>  <REMARK>
 VINA RESULT:      -4.9      2.454      4.723
  Name = 
  9 active torsions:
  status: ('A' for Active; 'I' for Inactive)
    1  A    between atoms: C_3  and  C_11
    2  A    between atoms: C_3  and  C_19
    3  A    between atoms: N_4  and  C_13
    4  A    between atoms: O_5  and  C_12
    5  A    between atoms: C_7  and  O_16
    6  A    between atoms: C_8  and  C_12
    7  A    between atoms: C_8  and  C_13
    8  A    between atoms: C_9  and  C_12
    9  A    between atoms: O_16  and  C_30
                            x       y       z     vdW  Elec       q    Type
                         _______ _______ _______ _____ _____    ______ ____

>  <TORSDO>
F 9

$$$$
=
 OpenBabel10262421553D

 30 34  0  0  1  0  0  0  0  0999 V2000
  182.6980  180.0830  138.4930 C   0  0  0  0  0  2  0  0  0  0  0  0
  180.7570  181.2380  137.3650 C   0  0  0  0  0  0  0  0  0  0  0  0
  183.0580  178.7250  138.9170 N   0  0  2  0  0  0  0  0  0  0  0  0
  179.7320  181.2600  136.4140 C   0  0  0  0  0  3  0  0  0  0  0  0
  180.9270  182.4220  138.2560 C   0  0  0  0  0  1  0  0  0  0  0  0
  182.2410  177.7640  136.7240 C   0  0  1  0  0  3  0  0  0  0  0  0
  179.5320  180.1680  135.5700 C   0  0  0  0  0  3  0  0  0  0  0  0
  181.5920  180.1080  137.4730 C   0  0  0  0  0  0  0  0  0  0  0  0
  183.3740  177.8700  137.7600 C   0  0  2  0  0  3  0  0  0  0  0  0
  183.8880  176.5000  138.1830 C   0  0  0  0  0  1  0  0  0  0  0  0
  180.3620  179.0520  135.6660 C   0  0  0  0  0  3  0  0  0  0  0  0
  181.4100  179.0180  136.5960 C   0  0  0  0  0  0  0  0  0  0  0  0
  182.0990  178.1720  139.9000 C   0  0  1  0  0  0  0  0  0  0  0  0
  182.6430  177.1070  140.6400 O   0  0  0  0  0  0  0  0  0  0  0  0
  182.4490  178.3200  141.3380 C   0  0  1  0  0  3  0  0  0  0  0  0
  179.8880  178.9660  139.6480 O   0  0  0  0  0  0  0  0  0  0  0  0
  180.6370  178.0020  139.5830 C   0  0  0  0  0  0  0  0  0  0  0  0
  180.0880  176.6440  139.2520 C   0  0  1  0  0  3  0  0  0  0  0  0
  179.6590  176.0100  140.4230 O   0  0  0  0  0  0  0  0  0  0  0  0
  180.0160  174.6700  140.2590 C   0  0  0  0  0  1  0  0  0  0  0  0
  178.9310  176.7570  138.2700 C   0  0  0  0  0  2  0  0  0  0  0  0
  179.1600  175.8460  137.0800 C   0  0  0  0  0  1  0  0  0  0  0  0
  183.6840  178.9540  141.5110 O   0  0  0  0  0  0  0  0  0  0  0  0
  184.2320  178.3560  142.6460 C   0  0  2  0  0  3  0  0  0  0  0  0
  183.4920  178.8370  143.8810 C   0  0  2  0  0  3  0  0  0  0  0  0
  184.8330  179.4250  143.5390 C   0  0  1  0  0  3  0  0  0  0  0  0
  184.5070  179.0850  144.9790 C   0  0  0  0  0  2  0  0  0  0  0  0
  182.7750  177.2810  135.3700 C   0  0  0  0  0  2  0  0  0  0  0  0
  182.1080  175.9910  134.9190 C   0  0  0  0  0  2  0  0  0  0  0  0
  182.9540  174.9150  135.1810 O   0  0  0  0  0  1  0  0  0  0  0  0
  2  8  1  0  0  0  0
  2  5  1  0  0  0  0
  3  1  1  6  0  0  0
  3 13  1  0  0  0  0
  4  2  2  0  0  0  0
  6 28  1  6  0  0  0
  6  9  1  0  0  0  0
  7 11  2  0  0  0  0
  7  4  1  0  0  0  0
  8  1  1  0  0  0  0
  9 10  1  1  0  0  0
  9  3  1  0  0  0  0
 11 12  1  0  0  0  0
 12  6  1  0  0  0  0
 12  8  2  0  0  0  0
 13 17  1  6  0  0  0
 13 14  1  0  0  0  0
 13 15  1  0  0  0  0
 14 15  1  0  0  0  0
 15 23  1  6  0  0  0
 17 16  2  0  0  0  0
 18 21  1  6  0  0  0
 18 17  1  0  0  0  0
 18 19  1  0  0  0  0
 20 19  1  0  0  0  0
 22 21  1  0  0  0  0
 24 23  1  6  0  0  0
 24 26  1  0  0  0  0
 24 25  1  0  0  0  0
 25 27  1  1  0  0  0
 26 25  1  0  0  0  0
 26 27  1  1  0  0  0
 29 30  1  0  0  0  0
 29 28  1  0  0  0  0
M  END
>  <MODEL>
8

>  <REMARK>
 VINA RESULT:      -4.8      2.463      5.279
  Name = 
  9 active torsions:
  status: ('A' for Active; 'I' for Inactive)
    1  A    between atoms: C_3  and  C_11
    2  A    between atoms: C_3  and  C_19
    3  A    between atoms: N_4  and  C_13
    4  A    between atoms: O_5  and  C_12
    5  A    between atoms: C_7  and  O_16
    6  A    between atoms: C_8  and  C_12
    7  A    between atoms: C_8  and  C_13
    8  A    between atoms: C_9  and  C_12
    9  A    between atoms: O_16  and  C_30
                            x       y       z     vdW  Elec       q    Type
                         _______ _______ _______ _____ _____    ______ ____

>  <TORSDO>
F 9

$$$$
=
 OpenBabel10262421553D

 30 34  0  0  1  0  0  0  0  0999 V2000
  189.0230  179.0990  143.0250 C   0  0  0  0  0  2  0  0  0  0  0  0
  189.4170  178.2590  145.3730 C   0  0  0  0  0  0  0  0  0  0  0  0
  188.3640  178.6330  141.7990 N   0  0  2  0  0  0  0  0  0  0  0  0
  188.9870  177.5810  146.5170 C   0  0  0  0  0  3  0  0  0  0  0  0
  190.7880  178.8450  145.3650 C   0  0  0  0  0  1  0  0  0  0  0  0
  186.3480  177.8530  143.1140 C   0  0  1  0  0  3  0  0  0  0  0  0
  187.7160  177.0090  146.5600 C   0  0  0  0  0  3  0  0  0  0  0  0
  188.5640  178.3670  144.2560 C   0  0  0  0  0  0  0  0  0  0  0  0
  186.8970  178.6720  141.9340 C   0  0  2  0  0  3  0  0  0  0  0  0
  186.1930  178.3290  140.6280 C   0  0  0  0  0  1  0  0  0  0  0  0
  186.8640  177.1200  145.4610 C   0  0  0  0  0  3  0  0  0  0  0  0
  187.2670  177.8160  144.3130 C   0  0  0  0  0  0  0  0  0  0  0  0
  188.9440  177.3670  141.2980 C   0  0  1  0  0  0  0  0  0  0  0  0
  188.1590  176.7790  140.2890 O   0  0  0  0  0  0  0  0  0  0  0  0
  189.3860  177.3460  139.8770 C   0  0  1  0  0  3  0  0  0  0  0  0
  188.9000  175.5780  142.8400 O   0  0  0  0  0  0  0  0  0  0  0  0
  189.5950  176.3660  142.2150 C   0  0  0  0  0  0  0  0  0  0  0  0
  191.0840  176.3760  142.4100 C   0  0  1  0  0  3  0  0  0  0  0  0
  191.6170  177.5680  141.9100 O   0  0  0  0  0  0  0  0  0  0  0  0
  192.5890  177.1710  140.9900 C   0  0  0  0  0  1  0  0  0  0  0  0
  191.4330  176.2290  143.8840 C   0  0  0  0  0  2  0  0  0  0  0  0
  192.0550  174.8710  144.1440 C   0  0  0  0  0  1  0  0  0  0  0  0
  189.1390  178.5640  139.2370 O   0  0  0  0  0  0  0  0  0  0  0  0
  188.4320  178.2190  138.0840 C   0  0  2  0  0  3  0  0  0  0  0  0
  189.3410  177.4550  137.1400 C   0  0  2  0  0  3  0  0  0  0  0  0
  189.0550  178.9090  136.8850 C   0  0  1  0  0  3  0  0  0  0  0  0
  189.0720  177.9320  135.7270 C   0  0  0  0  0  2  0  0  0  0  0  0
  184.9290  178.3010  143.4840 C   0  0  0  0  0  2  0  0  0  0  0  0
  184.9300  179.5730  144.3180 C   0  0  0  0  0  2  0  0  0  0  0  0
  184.1590  179.3780  145.4630 O   0  0  0  0  0  1  0  0  0  0  0  0
  1  8  1  0  0  0  0
  2  4  1  0  0  0  0
  3  9  1  0  0  0  0
  3  1  1  1  0  0  0
  4  7  2  0  0  0  0
  5  2  1  0  0  0  0
  6 28  1  1  0  0  0
  6 12  1  0  0  0  0
  8 12  1  0  0  0  0
  8  2  2  0  0  0  0
  9 10  1  6  0  0  0
  9  6  1  0  0  0  0
 11  7  1  0  0  0  0
 12 11  2  0  0  0  0
 13  3  1  0  0  0  0
 13 17  1  1  0  0  0
 14 13  1  0  0  0  0
 15 23  1  6  0  0  0
 15 14  1  0  0  0  0
 15 13  1  0  0  0  0
 17 18  1  0  0  0  0
 17 16  2  0  0  0  0
 18 21  1  1  0  0  0
 19 18  1  0  0  0  0
 20 19  1  0  0  0  0
 21 22  1  0  0  0  0
 24 23  1  1  0  0  0
 25 27  1  6  0  0  0
 25 24  1  0  0  0  0
 26 27  1  6  0  0  0
 26 25  1  0  0  0  0
 26 24  1  0  0  0  0
 28 29  1  0  0  0  0
 29 30  1  0  0  0  0
M  END
>  <MODEL>
9

>  <REMARK>
 VINA RESULT:      -4.7      3.884      7.523
  Name = 
  9 active torsions:
  status: ('A' for Active; 'I' for Inactive)
    1  A    between atoms: C_3  and  C_11
    2  A    between atoms: C_3  and  C_19
    3  A    between atoms: N_4  and  C_13
    4  A    between atoms: O_5  and  C_12
    5  A    between atoms: C_7  and  O_16
    6  A    between atoms: C_8  and  C_12
    7  A    between atoms: C_8  and  C_13
    8  A    between atoms: C_9  and  C_12
    9  A    between atoms: O_16  and  C_30
                            x       y       z     vdW  Elec       q    Type
                         _______ _______ _______ _____ _____    ______ ____

>  <TORSDO>
F 9

$$$$
