=
 OpenBabel10262421383D

 32 36  0  0  1  0  0  0  0  0999 V2000
  181.5700  178.7760  142.1890 C   0  0  0  0  0  0  0  0  0  0  0  0
  186.3800  178.1890  143.7080 C   0  0  2  0  0  3  0  0  0  0  0  0
  187.9150  177.4250  145.5610 C   0  0  0  0  0  0  0  0  0  0  0  0
  189.2760  177.0920  146.0210 C   0  0  0  0  0  0  0  0  0  0  0  0
  183.9840  178.9020  143.6140 C   0  0  0  0  0  0  0  0  0  0  0  0
  185.1940  178.3370  141.5810 O   0  0  0  0  0  0  0  0  0  0  0  0
  191.8730  176.5440  146.9280 C   0  0  0  0  0  3  0  0  0  0  0  0
  182.7830  178.5310  141.5380 C   0  0  0  0  0  3  0  0  0  0  0  0
  186.4600  178.5400  142.2130 C   0  0  2  0  0  3  0  0  0  0  0  0
  187.5330  177.7120  141.4910 C   0  0  2  0  0  3  0  0  0  0  0  0
  188.9190  178.5050  143.4800 C   0  0  2  0  0  3  0  0  0  0  0  0
  190.7700  176.0140  147.6030 C   0  0  0  0  0  3  0  0  0  0  0  0
  181.5710  179.0930  143.5580 C   0  0  0  0  0  3  0  0  0  0  0  0
  183.9890  178.6000  142.2420 C   0  0  0  0  0  0  0  0  0  0  0  0
  189.4750  176.2890  147.1530 C   0  0  0  0  0  3  0  0  0  0  0  0
  182.7750  179.1590  144.2660 C   0  0  0  0  0  3  0  0  0  0  0  0
  188.8260  177.5170  142.3050 C   0  0  1  0  0  3  0  0  0  0  0  0
  190.2050  178.4110  144.1680 N   0  0  0  0  0  2  0  0  0  0  0  0
  185.2740  179.0110  144.3710 C   0  0  0  0  0  2  0  0  0  0  0  0
  186.9170  176.9300  146.1560 O   0  0  0  0  0  0  0  0  0  0  0  0
  191.6820  177.3420  145.7960 C   0  0  0  0  0  3  0  0  0  0  0  0
  187.7120  178.4270  144.4470 C   0  0  1  0  0  3  0  0  0  0  0  0
  190.3890  177.6090  145.3370 C   0  0  0  0  0  0  0  0  0  0  0  0
  188.7230  177.4200  139.6470 C   0  0  0  0  0  1  0  0  0  0  0  0
  187.8370  178.3050  140.2640 O   0  0  0  0  0  0  0  0  0  0  0  0
  190.1960  175.5570  142.3950 O   0  0  0  0  0  1  0  0  0  0  0  0
  188.9480  176.0670  142.7560 C   0  0  0  0  0  2  0  0  0  0  0  0
  180.3830  178.7000  141.4560 O   0  0  0  0  0  0  0  0  0  0  0  0
  180.2280  179.3100  140.1800 C   0  0  0  0  0  2  0  0  0  0  0  0
  180.0070  180.7700  140.3500 C   0  0  0  0  0  0  0  0  0  0  0  0
  180.3760  181.5710  139.4530 O   0  0  0  0  0  0  0  0  0  0  0  0
  179.4310  181.2530  141.5170 O   0  0  0  0  0  1  0  0  0  0  0  0
  1 13  1  0  0  0  0
  2 19  1  1  0  0  0
  2 22  1  0  0  0  0
  3  4  1  0  0  0  0
  3 20  2  0  0  0  0
  4 15  1  0  0  0  0
  5 16  1  0  0  0  0
  5 19  1  0  0  0  0
  6 14  1  0  0  0  0
  7 12  1  0  0  0  0
  8  1  2  0  0  0  0
  8 14  1  0  0  0  0
  9  6  1  6  0  0  0
  9  2  1  0  0  0  0
 10 25  1  6  0  0  0
 10  9  1  0  0  0  0
 10 17  1  0  0  0  0
 11 18  1  1  0  0  0
 11 22  1  0  0  0  0
 13 16  2  0  0  0  0
 14  5  2  0  0  0  0
 15 12  2  0  0  0  0
 17 27  1  1  0  0  0
 17 11  1  0  0  0  0
 18 23  1  0  0  0  0
 21  7  2  0  0  0  0
 22  3  1  1  0  0  0
 23 21  1  0  0  0  0
 23  4  2  0  0  0  0
 24 25  1  0  0  0  0
 26 27  1  0  0  0  0
 28  1  1  0  0  0  0
 29 30  1  0  0  0  0
 29 28  1  0  0  0  0
 30 32  1  0  0  0  0
 31 30  2  0  0  0  0
M  END
>  <MODEL>
1

>  <REMARK>
 VINA RESULT:      -8.3      0.000      0.000
  Name = 
  5 active torsions:
  status: ('A' for Active; 'I' for Inactive)
    1  A    between atoms: C_1  and  C_10
    2  A    between atoms: C_2  and  O_24
    3  A    between atoms: C_10  and  O_24
    4  A    between atoms: O_13  and  C_15
    5  A    between atoms: C_25  and  C_26
                            x       y       z     vdW  Elec       q    Type
                         _______ _______ _______ _____ _____    ______ ____

>  <TORSDO>
F 5

$$$$
=
 OpenBabel10262421383D

 32 36  0  0  1  0  0  0  0  0999 V2000
  187.5240  177.5460  144.5150 C   0  0  0  0  0  0  0  0  0  0  0  0
  184.1300  178.5080  140.8620 C   0  0  2  0  0  3  0  0  0  0  0  0
  183.4890  178.1450  138.4470 C   0  0  0  0  0  0  0  0  0  0  0  0
  182.4850  178.2590  137.3730 C   0  0  0  0  0  0  0  0  0  0  0  0
  186.2780  178.3580  142.1350 C   0  0  0  0  0  0  0  0  0  0  0  0
  184.1450  178.4420  143.3010 O   0  0  0  0  0  0  0  0  0  0  0  0
  180.6130  178.5540  135.3060 C   0  0  0  0  0  3  0  0  0  0  0  0
  186.1480  177.7960  144.4930 C   0  0  0  0  0  3  0  0  0  0  0  0
  183.4840  179.0060  142.1660 C   0  0  2  0  0  3  0  0  0  0  0  0
  181.9870  178.6710  142.2230 C   0  0  2  0  0  3  0  0  0  0  0  0
  182.0720  179.6990  139.8900 C   0  0  2  0  0  3  0  0  0  0  0  0
  181.6420  177.6150  135.1890 C   0  0  0  0  0  3  0  0  0  0  0  0
  188.2760  177.7120  143.3400 C   0  0  0  0  0  3  0  0  0  0  0  0
  185.5240  178.2090  143.3120 C   0  0  0  0  0  0  0  0  0  0  0  0
  182.5770  177.4690  136.2180 C   0  0  0  0  0  3  0  0  0  0  0  0
  187.6550  178.1190  142.1560 C   0  0  0  0  0  3  0  0  0  0  0  0
  181.2520  178.8570  140.8830 C   0  0  1  0  0  3  0  0  0  0  0  0
  181.3180  179.9870  138.6720 N   0  0  0  0  0  2  0  0  0  0  0  0
  185.6250  178.8310  140.8720 C   0  0  0  0  0  2  0  0  0  0  0  0
  184.4060  177.2830  138.3550 O   0  0  0  0  0  0  0  0  0  0  0  0
  180.5130  179.3420  136.4560 C   0  0  0  0  0  3  0  0  0  0  0  0
  183.4790  179.1180  139.6050 C   0  0  1  0  0  3  0  0  0  0  0  0
  181.4400  179.1900  137.4920 C   0  0  0  0  0  0  0  0  0  0  0  0
  180.4910  178.5770  143.8530 C   0  0  0  0  0  1  0  0  0  0  0  0
  181.3700  179.4470  143.2060 O   0  0  0  0  0  0  0  0  0  0  0  0
  179.5720  177.1600  140.7190 O   0  0  0  0  0  1  0  0  0  0  0  0
  180.8610  177.5010  140.3070 C   0  0  0  0  0  2  0  0  0  0  0  0
  188.1170  177.1360  145.7120 O   0  0  0  0  0  0  0  0  0  0  0  0
  187.5900  177.4830  146.9880 C   0  0  0  0  0  2  0  0  0  0  0  0
  188.7020  177.6140  147.9660 C   0  0  0  0  0  0  0  0  0  0  0  0
  188.5090  178.1980  149.0630 O   0  0  0  0  0  1  0  0  0  0  0  0
  189.9640  177.1290  147.6500 O   0  0  0  0  0  0  0  0  0  0  0  0
  1 28  1  0  0  0  0
  2 19  1  1  0  0  0
  2  9  1  0  0  0  0
  4 23  1  0  0  0  0
  4  3  1  0  0  0  0
  5 16  2  0  0  0  0
  5 14  1  0  0  0  0
  6 14  1  0  0  0  0
  7 21  1  0  0  0  0
  8  1  1  0  0  0  0
  9 10  1  0  0  0  0
  9  6  1  1  0  0  0
 10 25  1  1  0  0  0
 11 18  1  6  0  0  0
 11 17  1  0  0  0  0
 12  7  2  0  0  0  0
 12 15  1  0  0  0  0
 13  1  2  0  0  0  0
 14  8  2  0  0  0  0
 15  4  2  0  0  0  0
 16 13  1  0  0  0  0
 17 27  1  6  0  0  0
 17 10  1  0  0  0  0
 19  5  1  0  0  0  0
 20  3  2  0  0  0  0
 21 23  2  0  0  0  0
 22  3  1  6  0  0  0
 22 11  1  0  0  0  0
 22  2  1  0  0  0  0
 23 18  1  0  0  0  0
 25 24  1  0  0  0  0
 27 26  1  0  0  0  0
 28 29  1  0  0  0  0
 29 30  1  0  0  0  0
 30 31  1  0  0  0  0
 32 30  2  0  0  0  0
M  END
>  <MODEL>
2

>  <REMARK>
 VINA RESULT:      -7.5      3.150      9.331
  Name = 
  5 active torsions:
  status: ('A' for Active; 'I' for Inactive)
    1  A    between atoms: C_1  and  C_10
    2  A    between atoms: C_2  and  O_24
    3  A    between atoms: C_10  and  O_24
    4  A    between atoms: O_13  and  C_15
    5  A    between atoms: C_25  and  C_26
                            x       y       z     vdW  Elec       q    Type
                         _______ _______ _______ _____ _____    ______ ____

>  <TORSDO>
F 5

$$$$
=
 OpenBabel10262421383D

 32 36  0  0  1  0  0  0  0  0999 V2000
  185.5520  177.6180  136.9450 C   0  0  0  0  0  0  0  0  0  0  0  0
  188.0190  177.7850  141.3810 C   0  0  2  0  0  3  0  0  0  0  0  0
  187.8350  177.5840  143.8910 C   0  0  0  0  0  0  0  0  0  0  0  0
  188.4980  177.4770  145.2040 C   0  0  0  0  0  0  0  0  0  0  0  0
  186.3840  178.2590  139.5470 C   0  0  0  0  0  0  0  0  0  0  0  0
  188.5860  177.3560  139.0470 O   0  0  0  0  0  0  0  0  0  0  0  0
  189.7500  177.3610  147.7110 C   0  0  0  0  0  3  0  0  0  0  0  0
  186.8590  177.3350  137.3540 C   0  0  0  0  0  3  0  0  0  0  0  0
  189.1130  177.7990  140.3000 C   0  0  2  0  0  3  0  0  0  0  0  0
  190.3110  176.9220  140.6930 C   0  0  2  0  0  3  0  0  0  0  0  0
  190.0690  178.2510  142.8570 C   0  0  2  0  0  3  0  0  0  0  0  0
  188.4360  176.9060  147.5630 C   0  0  0  0  0  3  0  0  0  0  0  0
  184.6640  178.2320  137.8440 C   0  0  0  0  0  3  0  0  0  0  0  0
  187.2810  177.6590  138.6470 C   0  0  0  0  0  0  0  0  0  0  0  0
  187.8110  176.9660  146.3150 C   0  0  0  0  0  3  0  0  0  0  0  0
  185.0800  178.5540  139.1390 C   0  0  0  0  0  3  0  0  0  0  0  0
  190.6980  177.0220  142.1800 C   0  0  1  0  0  3  0  0  0  0  0  0
  190.5450  178.4200  144.2280 N   0  0  0  0  0  2  0  0  0  0  0  0
  186.8350  178.6400  140.9250 C   0  0  0  0  0  2  0  0  0  0  0  0
  186.6570  177.1540  143.7490 O   0  0  0  0  0  0  0  0  0  0  0  0
  190.4420  177.8680  146.6070 C   0  0  0  0  0  3  0  0  0  0  0  0
  188.5250  178.2920  142.7460 C   0  0  1  0  0  3  0  0  0  0  0  0
  189.8230  177.9180  145.3540 C   0  0  0  0  0  0  0  0  0  0  0  0
  191.4460  176.2660  138.9090 C   0  0  0  0  0  1  0  0  0  0  0  0
  191.4120  177.2500  139.8990 O   0  0  0  0  0  0  0  0  0  0  0  0
  191.4670  175.2520  143.5960 O   0  0  0  0  0  1  0  0  0  0  0  0
  190.3530  175.7240  142.9000 C   0  0  0  0  0  2  0  0  0  0  0  0
  185.1630  177.2830  135.6450 O   0  0  0  0  0  0  0  0  0  0  0  0
  184.0800  176.4030  135.3710 C   0  0  0  0  0  2  0  0  0  0  0  0
  184.3990  175.0450  135.8860 C   0  0  0  0  0  0  0  0  0  0  0  0
  183.7230  174.5540  136.8270 O   0  0  0  0  0  1  0  0  0  0  0  0
  185.4680  174.3360  135.3560 O   0  0  0  0  0  0  0  0  0  0  0  0
  1  8  2  0  0  0  0
  1 13  1  0  0  0  0
  2 19  1  6  0  0  0
  2 22  1  0  0  0  0
  3  4  1  0  0  0  0
  4 23  2  0  0  0  0
  4 15  1  0  0  0  0
  5 19  1  0  0  0  0
  8 14  1  0  0  0  0
  9  6  1  6  0  0  0
  9 10  1  0  0  0  0
  9  2  1  0  0  0  0
 10 25  1  6  0  0  0
 10 17  1  0  0  0  0
 11 18  1  1  0  0  0
 12  7  1  0  0  0  0
 13 16  2  0  0  0  0
 14  6  1  0  0  0  0
 14  5  2  0  0  0  0
 15 12  2  0  0  0  0
 16  5  1  0  0  0  0
 17 11  1  0  0  0  0
 17 27  1  1  0  0  0
 18 23  1  0  0  0  0
 20  3  2  0  0  0  0
 21  7  2  0  0  0  0
 22 11  1  0  0  0  0
 22  3  1  1  0  0  0
 23 21  1  0  0  0  0
 24 25  1  0  0  0  0
 27 26  1  0  0  0  0
 28  1  1  0  0  0  0
 29 28  1  0  0  0  0
 29 30  1  0  0  0  0
 30 31  1  0  0  0  0
 32 30  2  0  0  0  0
M  END
>  <MODEL>
3

>  <REMARK>
 VINA RESULT:      -7.4      3.555      4.670
  Name = 
  5 active torsions:
  status: ('A' for Active; 'I' for Inactive)
    1  A    between atoms: C_1  and  C_10
    2  A    between atoms: C_2  and  O_24
    3  A    between atoms: C_10  and  O_24
    4  A    between atoms: O_13  and  C_15
    5  A    between atoms: C_25  and  C_26
                            x       y       z     vdW  Elec       q    Type
                         _______ _______ _______ _____ _____    ______ ____

>  <TORSDO>
F 5

$$$$
=
 OpenBabel10262421383D

 32 36  0  0  1  0  0  0  0  0999 V2000
  185.6470  178.2470  145.5380 C   0  0  0  0  0  0  0  0  0  0  0  0
  182.6990  178.2830  141.4030 C   0  0  2  0  0  3  0  0  0  0  0  0
  182.1370  177.1490  139.2190 C   0  0  0  0  0  0  0  0  0  0  0  0
  181.2330  177.0060  138.0630 C   0  0  0  0  0  0  0  0  0  0  0  0
  184.7080  178.2930  142.8940 C   0  0  0  0  0  0  0  0  0  0  0  0
  182.5660  179.1300  143.6870 O   0  0  0  0  0  0  0  0  0  0  0  0
  179.5650  176.7900  135.8180 C   0  0  0  0  0  3  0  0  0  0  0  0
  184.3460  178.6780  145.2620 C   0  0  0  0  0  3  0  0  0  0  0  0
  182.0860  179.3240  142.3550 C   0  0  2  0  0  3  0  0  0  0  0  0
  180.5520  179.2680  142.3480 C   0  0  2  0  0  3  0  0  0  0  0  0
  180.9560  179.3250  139.8300 C   0  0  2  0  0  3  0  0  0  0  0  0
  180.4060  175.7300  136.1690 C   0  0  0  0  0  3  0  0  0  0  0  0
  186.4810  177.8460  144.4810 C   0  0  0  0  0  3  0  0  0  0  0  0
  183.8750  178.7110  143.9470 C   0  0  0  0  0  0  0  0  0  0  0  0
  181.2390  175.8380  137.2870 C   0  0  0  0  0  3  0  0  0  0  0  0
  186.0130  177.8720  143.1640 C   0  0  0  0  0  3  0  0  0  0  0  0
  179.9400  179.0500  140.9520 C   0  0  1  0  0  3  0  0  0  0  0  0
  180.3380  179.2500  138.5080 N   0  0  0  0  0  2  0  0  0  0  0  0
  184.2250  178.3550  141.4760 C   0  0  0  0  0  2  0  0  0  0  0  0
  182.8810  176.1850  139.5520 O   0  0  0  0  0  0  0  0  0  0  0  0
  179.5510  177.9560  136.5890 C   0  0  0  0  0  3  0  0  0  0  0  0
  182.2440  178.4720  139.9430 C   0  0  1  0  0  3  0  0  0  0  0  0
  180.3740  178.0620  137.7150 C   0  0  0  0  0  0  0  0  0  0  0  0
  178.9410  180.0240  143.6650 C   0  0  0  0  0  1  0  0  0  0  0  0
  180.0370  180.4400  142.9070 O   0  0  0  0  0  0  0  0  0  0  0  0
  179.3940  177.0220  142.0980 O   0  0  0  0  0  1  0  0  0  0  0  0
  179.3360  177.6540  140.8560 C   0  0  0  0  0  2  0  0  0  0  0  0
  186.0860  178.2280  146.8650 O   0  0  0  0  0  0  0  0  0  0  0  0
  187.3780  178.6790  147.2520 C   0  0  0  0  0  2  0  0  0  0  0  0
  188.0880  177.5910  147.9750 C   0  0  0  0  0  0  0  0  0  0  0  0
  187.9320  177.4530  149.2150 O   0  0  0  0  0  1  0  0  0  0  0  0
  188.9560  176.7530  147.2870 O   0  0  0  0  0  0  0  0  0  0  0  0
  1 28  1  0  0  0  0
  2 19  1  6  0  0  0
  2  9  1  0  0  0  0
  3 20  2  0  0  0  0
  4  3  1  0  0  0  0
  5 16  2  0  0  0  0
  5 14  1  0  0  0  0
  6 14  1  0  0  0  0
  7 12  2  0  0  0  0
  7 21  1  0  0  0  0
  8  1  1  0  0  0  0
  9  6  1  1  0  0  0
 10  9  1  0  0  0  0
 10 25  1  6  0  0  0
 11 18  1  6  0  0  0
 11 22  1  0  0  0  0
 11 17  1  0  0  0  0
 12 15  1  0  0  0  0
 13  1  2  0  0  0  0
 14  8  2  0  0  0  0
 15  4  2  0  0  0  0
 16 13  1  0  0  0  0
 17 27  1  1  0  0  0
 17 10  1  0  0  0  0
 19  5  1  0  0  0  0
 21 23  2  0  0  0  0
 22  3  1  1  0  0  0
 22  2  1  0  0  0  0
 23  4  1  0  0  0  0
 23 18  1  0  0  0  0
 25 24  1  0  0  0  0
 27 26  1  0  0  0  0
 28 29  1  0  0  0  0
 29 30  1  0  0  0  0
 30 31  1  0  0  0  0
 32 30  2  0  0  0  0
M  END
>  <MODEL>
4

>  <REMARK>
 VINA RESULT:      -7.3      3.350      9.508
  Name = 
  5 active torsions:
  status: ('A' for Active; 'I' for Inactive)
    1  A    between atoms: C_1  and  C_10
    2  A    between atoms: C_2  and  O_24
    3  A    between atoms: C_10  and  O_24
    4  A    between atoms: O_13  and  C_15
    5  A    between atoms: C_25  and  C_26
                            x       y       z     vdW  Elec       q    Type
                         _______ _______ _______ _____ _____    ______ ____

>  <TORSDO>
F 5

$$$$
=
 OpenBabel10262421383D

 32 36  0  0  1  0  0  0  0  0999 V2000
  190.3030  177.1140  142.5450 C   0  0  0  0  0  0  0  0  0  0  0  0
  186.0160  178.1400  140.0230 C   0  0  2  0  0  3  0  0  0  0  0  0
  184.6440  177.6920  137.9520 C   0  0  0  0  0  0  0  0  0  0  0  0
  183.3680  177.8270  137.2250 C   0  0  0  0  0  0  0  0  0  0  0  0
  188.4390  177.8870  140.5960 C   0  0  0  0  0  0  0  0  0  0  0  0
  186.7760  178.2150  142.3400 O   0  0  0  0  0  0  0  0  0  0  0  0
  180.9730  178.1550  135.8030 C   0  0  0  0  0  3  0  0  0  0  0  0
  189.0050  177.4760  142.9190 C   0  0  0  0  0  3  0  0  0  0  0  0
  185.8350  178.7650  141.4160 C   0  0  2  0  0  3  0  0  0  0  0  0
  184.4090  178.5600  141.9500 C   0  0  2  0  0  3  0  0  0  0  0  0
  183.8360  179.4390  139.6250 C   0  0  2  0  0  3  0  0  0  0  0  0
  181.8570  177.1280  135.4570 C   0  0  0  0  0  3  0  0  0  0  0  0
  190.6660  177.1480  141.1890 C   0  0  0  0  0  3  0  0  0  0  0  0
  188.0750  177.8700  141.9530 C   0  0  0  0  0  0  0  0  0  0  0  0
  183.0520  176.9660  136.1640 C   0  0  0  0  0  3  0  0  0  0  0  0
  189.7380  177.5370  140.2190 C   0  0  0  0  0  3  0  0  0  0  0  0
  183.3110  178.7270  140.8830 C   0  0  1  0  0  3  0  0  0  0  0  0
  182.7640  179.7180  138.6720 N   0  0  0  0  0  2  0  0  0  0  0  0
  187.4590  178.3390  139.5540 C   0  0  0  0  0  2  0  0  0  0  0  0
  185.4340  176.7530  137.6570 O   0  0  0  0  0  0  0  0  0  0  0  0
  181.2800  179.0140  136.8620 C   0  0  0  0  0  3  0  0  0  0  0  0
  185.0500  178.7280  138.9760 C   0  0  1  0  0  3  0  0  0  0  0  0
  182.4690  178.8460  137.5790 C   0  0  0  0  0  0  0  0  0  0  0  0
  183.7640  178.6280  144.0670 C   0  0  0  0  0  1  0  0  0  0  0  0
  184.1730  179.4410  143.0070 O   0  0  0  0  0  0  0  0  0  0  0  0
  181.2900  177.4720  140.6310 O   0  0  0  0  0  1  0  0  0  0  0  0
  182.6800  177.3780  140.5640 C   0  0  0  0  0  2  0  0  0  0  0  0
  191.2090  176.7270  143.5370 O   0  0  0  0  0  0  0  0  0  0  0  0
  191.5780  177.5790  144.6140 C   0  0  0  0  0  2  0  0  0  0  0  0
  191.1520  176.9680  145.9010 C   0  0  0  0  0  0  0  0  0  0  0  0
  189.9900  177.1690  146.3390 O   0  0  0  0  0  0  0  0  0  0  0  0
  192.0510  176.2090  146.6380 O   0  0  0  0  0  1  0  0  0  0  0  0
  1  8  1  0  0  0  0
  1 28  1  0  0  0  0
  2 19  1  6  0  0  0
  2  9  1  0  0  0  0
  4 23  1  0  0  0  0
  4  3  1  0  0  0  0
  5 14  1  0  0  0  0
  7 21  1  0  0  0  0
  9 10  1  0  0  0  0
  9  6  1  1  0  0  0
 10 25  1  1  0  0  0
 11 18  1  6  0  0  0
 11 17  1  0  0  0  0
 12  7  2  0  0  0  0
 12 15  1  0  0  0  0
 13  1  2  0  0  0  0
 14  6  1  0  0  0  0
 14  8  2  0  0  0  0
 15  4  2  0  0  0  0
 16  5  2  0  0  0  0
 16 13  1  0  0  0  0
 17 27  1  6  0  0  0
 17 10  1  0  0  0  0
 19  5  1  0  0  0  0
 20  3  2  0  0  0  0
 21 23  2  0  0  0  0
 22  3  1  6  0  0  0
 22 11  1  0  0  0  0
 22  2  1  0  0  0  0
 23 18  1  0  0  0  0
 25 24  1  0  0  0  0
 27 26  1  0  0  0  0
 28 29  1  0  0  0  0
 29 30  1  0  0  0  0
 30 31  2  0  0  0  0
 30 32  1  0  0  0  0
M  END
>  <MODEL>
5

>  <REMARK>
 VINA RESULT:      -7.0      3.214      9.367
  Name = 
  5 active torsions:
  status: ('A' for Active; 'I' for Inactive)
    1  A    between atoms: C_1  and  C_10
    2  A    between atoms: C_2  and  O_24
    3  A    between atoms: C_10  and  O_24
    4  A    between atoms: O_13  and  C_15
    5  A    between atoms: C_25  and  C_26
                            x       y       z     vdW  Elec       q    Type
                         _______ _______ _______ _____ _____    ______ ____

>  <TORSDO>
F 5

$$$$
=
 OpenBabel10262421383D

 32 36  0  0  1  0  0  0  0  0999 V2000
  187.8670  177.8480  145.3810 C   0  0  0  0  0  0  0  0  0  0  0  0
  189.0130  177.4410  140.4500 C   0  0  2  0  0  3  0  0  0  0  0  0
  190.4490  176.2940  138.7190 C   0  0  0  0  0  0  0  0  0  0  0  0
  190.7420  176.0140  137.3010 C   0  0  0  0  0  0  0  0  0  0  0  0
  189.2120  177.7980  142.9190 C   0  0  0  0  0  0  0  0  0  0  0  0
  187.0970  178.1640  141.7750 O   0  0  0  0  0  0  0  0  0  0  0  0
  191.3580  175.5490  134.6050 C   0  0  0  0  0  3  0  0  0  0  0  0
  187.1570  178.0210  144.1890 C   0  0  0  0  0  3  0  0  0  0  0  0
  187.7420  178.3050  140.5080 C   0  0  2  0  0  3  0  0  0  0  0  0
  186.7580  177.9440  139.3860 C   0  0  2  0  0  3  0  0  0  0  0  0
  188.8820  178.1690  137.9900 C   0  0  2  0  0  3  0  0  0  0  0  0
  191.8130  174.6660  135.5890 C   0  0  0  0  0  3  0  0  0  0  0  0
  189.2580  177.6580  145.3350 C   0  0  0  0  0  3  0  0  0  0  0  0
  187.8220  178.0050  142.9600 C   0  0  0  0  0  0  0  0  0  0  0  0
  191.5080  174.8980  136.9330 C   0  0  0  0  0  3  0  0  0  0  0  0
  189.9280  177.6370  144.1080 C   0  0  0  0  0  3  0  0  0  0  0  0
  187.4310  177.6580  138.0310 C   0  0  1  0  0  3  0  0  0  0  0  0
  189.4730  178.0180  136.6630 N   0  0  0  0  0  2  0  0  0  0  0  0
  189.9410  177.8120  141.6080 C   0  0  0  0  0  2  0  0  0  0  0  0
  190.8390  175.4860  139.6080 O   0  0  0  0  0  0  0  0  0  0  0  0
  190.5910  176.6610  134.9650 C   0  0  0  0  0  3  0  0  0  0  0  0
  189.7710  177.5860  139.1160 C   0  0  1  0  0  3  0  0  0  0  0  0
  190.2740  176.8890  136.3080 C   0  0  0  0  0  0  0  0  0  0  0  0
  184.5890  178.3200  139.1460 C   0  0  0  0  0  1  0  0  0  0  0  0
  185.8220  178.9700  139.2360 O   0  0  0  0  0  0  0  0  0  0  0  0
  186.6770  176.0000  136.4790 O   0  0  0  0  0  1  0  0  0  0  0  0
  187.3310  176.1740  137.6990 C   0  0  0  0  0  2  0  0  0  0  0  0
  187.1710  177.8710  146.5920 O   0  0  0  0  0  0  0  0  0  0  0  0
  186.4480  179.0110  147.0410 C   0  0  0  0  0  2  0  0  0  0  0  0
  185.0640  178.9670  146.5000 C   0  0  0  0  0  0  0  0  0  0  0  0
  184.2160  178.1850  147.0040 O   0  0  0  0  0  1  0  0  0  0  0  0
  184.7190  179.7590  145.4130 O   0  0  0  0  0  0  0  0  0  0  0  0
  1 28  1  0  0  0  0
  2  9  1  0  0  0  0
  2 19  1  1  0  0  0
  3 20  2  0  0  0  0
  4  3  1  0  0  0  0
  5 14  2  0  0  0  0
  5 16  1  0  0  0  0
  6 14  1  0  0  0  0
  7 21  2  0  0  0  0
  7 12  1  0  0  0  0
  8  1  2  0  0  0  0
  9  6  1  1  0  0  0
 10 25  1  6  0  0  0
 10  9  1  0  0  0  0
 11 18  1  6  0  0  0
 11 17  1  0  0  0  0
 11 22  1  0  0  0  0
 12 15  2  0  0  0  0
 13  1  1  0  0  0  0
 14  8  1  0  0  0  0
 15  4  1  0  0  0  0
 16 13  2  0  0  0  0
 17 27  1  1  0  0  0
 17 10  1  0  0  0  0
 19  5  1  0  0  0  0
 21 23  1  0  0  0  0
 22  3  1  6  0  0  0
 22  2  1  0  0  0  0
 23 18  1  0  0  0  0
 23  4  2  0  0  0  0
 24 25  1  0  0  0  0
 26 27  1  0  0  0  0
 28 29  1  0  0  0  0
 30 31  1  0  0  0  0
 30 29  1  0  0  0  0
 32 30  2  0  0  0  0
M  END
>  <MODEL>
6

>  <REMARK>
 VINA RESULT:      -6.8      3.385      7.294
  Name = 
  5 active torsions:
  status: ('A' for Active; 'I' for Inactive)
    1  A    between atoms: C_1  and  C_10
    2  A    between atoms: C_2  and  O_24
    3  A    between atoms: C_10  and  O_24
    4  A    between atoms: O_13  and  C_15
    5  A    between atoms: C_25  and  C_26
                            x       y       z     vdW  Elec       q    Type
                         _______ _______ _______ _____ _____    ______ ____

>  <TORSDO>
F 5

$$$$
=
 OpenBabel10262421383D

 32 36  0  0  1  0  0  0  0  0999 V2000
  182.7730  178.5990  139.0600 C   0  0  0  0  0  0  0  0  0  0  0  0
  186.7290  178.2570  142.2260 C   0  0  2  0  0  3  0  0  0  0  0  0
  187.5000  177.7040  144.5650 C   0  0  0  0  0  0  0  0  0  0  0  0
  188.6070  177.4440  145.5050 C   0  0  0  0  0  0  0  0  0  0  0  0
  184.5300  178.9090  141.2250 C   0  0  0  0  0  0  0  0  0  0  0  0
  186.3720  178.1800  139.8140 O   0  0  0  0  0  0  0  0  0  0  0  0
  190.7090  177.0380  147.3160 C   0  0  0  0  0  3  0  0  0  0  0  0
  184.1340  178.3180  138.9050 C   0  0  0  0  0  3  0  0  0  0  0  0
  187.3360  178.4670  140.8280 C   0  0  2  0  0  3  0  0  0  0  0  0
  188.5830  177.5970  140.6140 C   0  0  2  0  0  3  0  0  0  0  0  0
  189.1890  178.6030  142.8780 C   0  0  2  0  0  3  0  0  0  0  0  0
  189.4310  176.5510  147.6070 C   0  0  0  0  0  3  0  0  0  0  0  0
  182.2960  179.0440  140.3040 C   0  0  0  0  0  3  0  0  0  0  0  0
  185.0150  178.4780  139.9780 C   0  0  0  0  0  0  0  0  0  0  0  0
  188.3820  176.7560  146.7060 C   0  0  0  0  0  3  0  0  0  0  0  0
  183.1720  179.2010  141.3810 C   0  0  0  0  0  3  0  0  0  0  0  0
  189.5030  177.5070  141.8460 C   0  0  1  0  0  3  0  0  0  0  0  0
  190.1480  178.6010  143.9810 N   0  0  0  0  0  2  0  0  0  0  0  0
  185.4710  179.1150  142.3740 C   0  0  0  0  0  2  0  0  0  0  0  0
  186.3500  177.2470  144.8140 O   0  0  0  0  0  0  0  0  0  0  0  0
  190.9410  177.7210  146.1200 C   0  0  0  0  0  3  0  0  0  0  0  0
  187.7170  178.5920  143.3600 C   0  0  1  0  0  3  0  0  0  0  0  0
  189.8960  177.9170  145.2100 C   0  0  0  0  0  0  0  0  0  0  0  0
  190.4170  177.2350  139.4280 C   0  0  0  0  0  1  0  0  0  0  0  0
  189.3080  178.0780  139.5220 O   0  0  0  0  0  0  0  0  0  0  0  0
  190.7260  175.6390  142.7060 O   0  0  0  0  0  1  0  0  0  0  0  0
  189.4370  176.1090  142.4480 C   0  0  0  0  0  2  0  0  0  0  0  0
  181.9190  178.4290  137.9660 O   0  0  0  0  0  0  0  0  0  0  0  0
  181.1130  179.4820  137.4510 C   0  0  0  0  0  2  0  0  0  0  0  0
  181.0120  179.3540  135.9730 C   0  0  0  0  0  0  0  0  0  0  0  0
  180.1660  180.0350  135.3390 O   0  0  0  0  0  1  0  0  0  0  0  0
  181.8250  178.4530  135.2990 O   0  0  0  0  0  0  0  0  0  0  0  0
  1 13  1  0  0  0  0
  2 19  1  1  0  0  0
  2 22  1  0  0  0  0
  3 20  2  0  0  0  0
  3  4  1  0  0  0  0
  4 15  1  0  0  0  0
  5 16  1  0  0  0  0
  5 19  1  0  0  0  0
  6 14  1  0  0  0  0
  7 12  1  0  0  0  0
  8  1  2  0  0  0  0
  8 14  1  0  0  0  0
  9  6  1  6  0  0  0
  9  2  1  0  0  0  0
 10 25  1  6  0  0  0
 10  9  1  0  0  0  0
 10 17  1  0  0  0  0
 11 22  1  0  0  0  0
 11 18  1  1  0  0  0
 13 16  2  0  0  0  0
 14  5  2  0  0  0  0
 15 12  2  0  0  0  0
 17 27  1  1  0  0  0
 17 11  1  0  0  0  0
 18 23  1  0  0  0  0
 21  7  2  0  0  0  0
 22  3  1  1  0  0  0
 23  4  2  0  0  0  0
 23 21  1  0  0  0  0
 24 25  1  0  0  0  0
 27 26  1  0  0  0  0
 28  1  1  0  0  0  0
 29 28  1  0  0  0  0
 30 29  1  0  0  0  0
 31 30  1  0  0  0  0
 32 30  2  0  0  0  0
M  END
>  <MODEL>
7

>  <REMARK>
 VINA RESULT:      -6.5      2.066      2.523
  Name = 
  5 active torsions:
  status: ('A' for Active; 'I' for Inactive)
    1  A    between atoms: C_1  and  C_10
    2  A    between atoms: C_2  and  O_24
    3  A    between atoms: C_10  and  O_24
    4  A    between atoms: O_13  and  C_15
    5  A    between atoms: C_25  and  C_26
                            x       y       z     vdW  Elec       q    Type
                         _______ _______ _______ _____ _____    ______ ____

>  <TORSDO>
F 5

$$$$
=
 OpenBabel10262421383D

 32 36  0  0  1  0  0  0  0  0999 V2000
  183.2070  178.9680  143.1210 C   0  0  0  0  0  0  0  0  0  0  0  0
  186.6270  177.9920  139.4960 C   0  0  2  0  0  3  0  0  0  0  0  0
  188.9590  177.1750  138.9790 C   0  0  0  0  0  0  0  0  0  0  0  0
  189.9550  176.7350  137.9840 C   0  0  0  0  0  0  0  0  0  0  0  0
  185.5220  178.9290  141.5360 C   0  0  0  0  0  0  0  0  0  0  0  0
  184.1970  178.1490  139.6500 O   0  0  0  0  0  0  0  0  0  0  0  0
  191.8800  175.9810  136.0890 C   0  0  0  0  0  3  0  0  0  0  0  0
  183.1340  178.5740  141.7810 C   0  0  0  0  0  3  0  0  0  0  0  0
  185.3060  178.2590  138.7550 C   0  0  2  0  0  3  0  0  0  0  0  0
  185.1110  177.2950  137.5750 C   0  0  2  0  0  3  0  0  0  0  0  0
  187.4980  178.0470  137.0800 C   0  0  2  0  0  3  0  0  0  0  0  0
  192.0250  175.5960  137.4250 C   0  0  0  0  0  3  0  0  0  0  0  0
  184.4460  179.3510  143.6620 C   0  0  0  0  0  3  0  0  0  0  0  0
  184.2830  178.5600  140.9850 C   0  0  0  0  0  0  0  0  0  0  0  0
  191.0670  175.9730  138.3700 C   0  0  0  0  0  3  0  0  0  0  0  0
  185.5980  179.3350  142.8710 C   0  0  0  0  0  3  0  0  0  0  0  0
  186.3970  177.0160  136.7760 C   0  0  1  0  0  3  0  0  0  0  0  0
  188.6670  177.8630  136.2230 N   0  0  0  0  0  2  0  0  0  0  0  0
  186.7540  178.9500  140.6820 C   0  0  0  0  0  2  0  0  0  0  0  0
  189.0760  176.8090  140.1820 O   0  0  0  0  0  0  0  0  0  0  0  0
  190.7720  176.7370  135.6960 C   0  0  0  0  0  3  0  0  0  0  0  0
  187.8600  178.1360  138.5830 C   0  0  1  0  0  3  0  0  0  0  0  0
  189.8060  177.1060  136.6380 C   0  0  0  0  0  0  0  0  0  0  0  0
  183.2480  176.7290  136.5220 C   0  0  0  0  0  1  0  0  0  0  0  0
  184.1270  177.7950  136.7200 O   0  0  0  0  0  0  0  0  0  0  0  0
  185.7890  174.7940  137.4220 O   0  0  0  0  0  1  0  0  0  0  0  0
  186.8630  175.5850  137.0150 C   0  0  0  0  0  2  0  0  0  0  0  0
  182.0400  178.9720  143.8890 O   0  0  0  0  0  0  0  0  0  0  0  0
  180.7930  179.4380  143.3880 C   0  0  0  0  0  2  0  0  0  0  0  0
  179.7680  178.3710  143.5340 C   0  0  0  0  0  0  0  0  0  0  0  0
  179.6350  177.4990  142.6370 O   0  0  0  0  0  0  0  0  0  0  0  0
  178.9310  178.3610  144.6410 O   0  0  0  0  0  1  0  0  0  0  0  0
  1 13  1  0  0  0  0
  1 28  1  0  0  0  0
  2 19  1  1  0  0  0
  3 20  2  0  0  0  0
  4 15  1  0  0  0  0
  4  3  1  0  0  0  0
  5 16  1  0  0  0  0
  6 14  1  0  0  0  0
  7 12  1  0  0  0  0
  8  1  2  0  0  0  0
  9  2  1  0  0  0  0
  9  6  1  1  0  0  0
 10 25  1  6  0  0  0
 10  9  1  0  0  0  0
 11 18  1  6  0  0  0
 11 22  1  0  0  0  0
 12 15  2  0  0  0  0
 14  5  2  0  0  0  0
 14  8  1  0  0  0  0
 16 13  2  0  0  0  0
 17 27  1  1  0  0  0
 17 11  1  0  0  0  0
 17 10  1  0  0  0  0
 18 23  1  0  0  0  0
 19  5  1  0  0  0  0
 21  7  2  0  0  0  0
 21 23  1  0  0  0  0
 22  3  1  1  0  0  0
 22  2  1  0  0  0  0
 23  4  2  0  0  0  0
 24 25  1  0  0  0  0
 27 26  1  0  0  0  0
 29 30  1  0  0  0  0
 29 28  1  0  0  0  0
 30 32  1  0  0  0  0
 31 30  2  0  0  0  0
M  END
>  <MODEL>
8

>  <REMARK>
 VINA RESULT:      -6.3      4.088      5.985
  Name = 
  5 active torsions:
  status: ('A' for Active; 'I' for Inactive)
    1  A    between atoms: C_1  and  C_10
    2  A    between atoms: C_2  and  O_24
    3  A    between atoms: C_10  and  O_24
    4  A    between atoms: O_13  and  C_15
    5  A    between atoms: C_25  and  C_26
                            x       y       z     vdW  Elec       q    Type
                         _______ _______ _______ _____ _____    ______ ____

>  <TORSDO>
F 5

$$$$
=
 OpenBabel10262421383D

 32 36  0  0  1  0  0  0  0  0999 V2000
  189.8020  177.7470  143.5860 C   0  0  0  0  0  0  0  0  0  0  0  0
  192.1550  176.5010  139.2610 C   0  0  2  0  0  3  0  0  0  0  0  0
  194.2770  175.6360  138.2030 C   0  0  0  0  0  0  0  0  0  0  0  0
  194.9800  175.1220  137.0120 C   0  0  0  0  0  0  0  0  0  0  0  0
  191.6160  177.5840  141.4510 C   0  0  0  0  0  0  0  0  0  0  0  0
  189.8500  176.6850  140.0410 O   0  0  0  0  0  0  0  0  0  0  0  0
  196.3450  174.2280  134.7320 C   0  0  0  0  0  3  0  0  0  0  0  0
  189.3830  177.2620  142.3430 C   0  0  0  0  0  3  0  0  0  0  0  0
  190.6810  176.7250  138.8790 C   0  0  2  0  0  3  0  0  0  0  0  0
  190.1940  175.6840  137.8610 C   0  0  2  0  0  3  0  0  0  0  0  0
  192.3550  176.3850  136.7030 C   0  0  2  0  0  3  0  0  0  0  0  0
  196.8420  173.9340  136.0050 C   0  0  0  0  0  3  0  0  0  0  0  0
  191.1350  178.1590  143.7530 C   0  0  0  0  0  3  0  0  0  0  0  0
  190.2800  177.1860  141.2740 C   0  0  0  0  0  0  0  0  0  0  0  0
  196.1640  174.3820  137.1420 C   0  0  0  0  0  3  0  0  0  0  0  0
  192.0370  178.0800  142.6880 C   0  0  0  0  0  3  0  0  0  0  0  0
  191.2260  175.3420  136.7710 C   0  0  1  0  0  3  0  0  0  0  0  0
  193.2580  176.1340  135.5820 N   0  0  0  0  0  2  0  0  0  0  0  0
  192.5790  177.5380  140.3030 C   0  0  0  0  0  2  0  0  0  0  0  0
  194.7110  175.3540  139.3540 O   0  0  0  0  0  0  0  0  0  0  0  0
  195.1630  174.9620  134.5950 C   0  0  0  0  0  3  0  0  0  0  0  0
  193.1010  176.5740  138.0470 C   0  0  1  0  0  3  0  0  0  0  0  0
  194.4760  175.4010  135.7310 C   0  0  0  0  0  0  0  0  0  0  0  0
  189.2100  177.4950  137.0530 C   0  0  0  0  0  1  0  0  0  0  0  0
  189.0130  176.1300  137.2640 O   0  0  0  0  0  0  0  0  0  0  0  0
  191.5100  173.1570  135.8380 O   0  0  0  0  0  1  0  0  0  0  0  0
  191.7560  173.9280  136.9750 C   0  0  0  0  0  2  0  0  0  0  0  0
  188.8790  177.8110  144.6330 O   0  0  0  0  0  0  0  0  0  0  0  0
  189.0800  177.1480  145.8750 C   0  0  0  0  0  2  0  0  0  0  0  0
  188.0280  177.5680  146.8390 C   0  0  0  0  0  0  0  0  0  0  0  0
  186.8160  177.5300  146.5030 O   0  0  0  0  0  0  0  0  0  0  0  0
  188.3870  178.0410  148.0930 O   0  0  0  0  0  1  0  0  0  0  0  0
  1 13  1  0  0  0  0
  1 28  1  0  0  0  0
  2 19  1  1  0  0  0
  3 20  2  0  0  0  0
  4 15  1  0  0  0  0
  4  3  1  0  0  0  0
  5 16  1  0  0  0  0
  6 14  1  0  0  0  0
  7 12  1  0  0  0  0
  8  1  2  0  0  0  0
  9  2  1  0  0  0  0
  9  6  1  1  0  0  0
 10 25  1  6  0  0  0
 10  9  1  0  0  0  0
 11 18  1  6  0  0  0
 11 17  1  0  0  0  0
 11 22  1  0  0  0  0
 12 15  2  0  0  0  0
 14  5  2  0  0  0  0
 14  8  1  0  0  0  0
 16 13  2  0  0  0  0
 17 27  1  1  0  0  0
 17 10  1  0  0  0  0
 18 23  1  0  0  0  0
 19  5  1  0  0  0  0
 21  7  2  0  0  0  0
 21 23  1  0  0  0  0
 22  3  1  1  0  0  0
 22  2  1  0  0  0  0
 23  4  2  0  0  0  0
 24 25  1  0  0  0  0
 26 27  1  0  0  0  0
 28 29  1  0  0  0  0
 29 30  1  0  0  0  0
 30 32  1  0  0  0  0
 31 30  2  0  0  0  0
M  END
>  <MODEL>
9

>  <REMARK>
 VINA RESULT:      -6.2      5.407      9.078
  Name = 
  5 active torsions:
  status: ('A' for Active; 'I' for Inactive)
    1  A    between atoms: C_1  and  C_10
    2  A    between atoms: C_2  and  O_24
    3  A    between atoms: C_10  and  O_24
    4  A    between atoms: O_13  and  C_15
    5  A    between atoms: C_25  and  C_26
                            x       y       z     vdW  Elec       q    Type
                         _______ _______ _______ _____ _____    ______ ____

>  <TORSDO>
F 5

$$$$
