=
 OpenBabel10262419503D

 25 28  0  0  0  0  0  0  0  0999 V2000
  186.2100  178.2150  145.0780 C   0  0  0  0  0  0  0  0  0  0  0  0
  185.9870  177.7900  143.6630 C   0  0  0  0  0  0  0  0  0  0  0  0
  183.9540  179.0190  145.3700 C   0  0  0  0  0  3  0  0  0  0  0  0
  187.1800  177.9620  145.9350 C   0  0  0  0  0  0  0  0  0  0  0  0
  188.8610  177.6030  148.1100 C   0  0  0  0  0  3  0  0  0  0  0  0
  183.7640  178.8680  143.9460 N   0  0  0  0  0  0  0  0  0  0  0  0
  186.7610  178.3430  147.2070 C   0  0  0  0  0  0  0  0  0  0  0  0
  187.5930  178.1750  148.3140 C   0  0  0  0  0  3  0  0  0  0  0  0
  184.5010  178.3930  141.6860 C   0  0  0  0  0  0  0  0  0  0  0  0
  183.1510  178.5020  141.0670 C   0  0  0  0  0  1  0  0  0  0  0  0
  187.1030  178.1560  142.7880 N   0  0  0  0  0  2  0  0  0  0  0  0
  189.2710  177.2020  146.8210 C   0  0  0  0  0  3  0  0  0  0  0  0
  185.1440  178.7310  145.8870 C   0  0  0  0  0  0  0  0  0  0  0  0
  185.5480  178.8070  147.2510 N   0  0  0  0  0  0  0  0  0  0  0  0
  185.5890  178.3920  140.9110 C   0  0  0  0  0  3  0  0  0  0  0  0
  188.4240  177.3750  145.7140 C   0  0  0  0  0  3  0  0  0  0  0  0
  186.9440  178.3600  141.5080 C   0  0  0  0  0  0  0  0  0  0  0  0
  184.6740  178.3650  143.1470 C   0  0  0  0  0  0  0  0  0  0  0  0
  188.0990  178.6420  140.6540 C   0  0  0  0  0  3  0  0  0  0  0  0
  188.0600  178.4210  139.3800 N   0  0  0  0  0  0  0  0  0  0  0  0
  189.2130  178.6980  138.5370 C   0  0  0  0  0  2  0  0  0  0  0  0
  189.7180  177.4230  137.8730 C   0  0  0  0  0  2  0  0  0  0  0  0
  190.6400  176.6750  138.7740 C   0  0  0  0  0  0  0  0  0  0  0  0
  191.2830  177.3350  139.8120 O   0  0  0  0  0  1  0  0  0  0  0  0
  190.8500  175.4490  138.5850 O   0  0  0  0  0  0  0  0  0  0  0  0
  1 13  1  0  0  0  0
  1  4  1  0  0  0  0
  2  1  2  0  0  0  0
  3 13  1  0  0  0  0
  4  7  1  0  0  0  0
  5  8  1  0  0  0  0
  6  3  2  0  0  0  0
  7 14  1  0  0  0  0
  7  8  2  0  0  0  0
  9 18  2  0  0  0  0
 10  9  1  0  0  0  0
 11  2  1  0  0  0  0
 12  5  2  0  0  0  0
 13 14  2  0  0  0  0
 15 17  2  0  0  0  0
 15  9  1  0  0  0  0
 16  4  2  0  0  0  0
 16 12  1  0  0  0  0
 17 11  1  0  0  0  0
 18  2  1  0  0  0  0
 18  6  1  0  0  0  0
 19 17  1  0  0  0  0
 20 19  2  0  0  0  0
 21 20  1  0  0  0  0
 22 21  1  0  0  0  0
 22 23  1  0  0  0  0
 23 24  1  0  0  0  0
 25 23  2  0  0  0  0
M  END
>  <MODEL>
1

>  <REMARK>
 VINA RESULT:      -9.3      0.000      0.000
  Name = 
  4 active torsions:
  status: ('A' for Active; 'I' for Inactive)
    1  A    between atoms: C_2  and  C_25
    2  A    between atoms: C_6  and  C_23
    3  A    between atoms: N_15  and  C_21
    4  A    between atoms: C_21  and  C_25
                            x       y       z     vdW  Elec       q    Type
                         _______ _______ _______ _____ _____    ______ ____

>  <TORSDO>
F 4

$$$$
=
 OpenBabel10262419503D

 25 28  0  0  0  0  0  0  0  0999 V2000
  188.2110  177.5120  145.5960 C   0  0  0  0  0  0  0  0  0  0  0  0
  187.2200  177.3520  144.4900 C   0  0  0  0  0  0  0  0  0  0  0  0
  186.5790  178.3500  147.1640 C   0  0  0  0  0  3  0  0  0  0  0  0
  189.4440  177.0700  145.7500 C   0  0  0  0  0  0  0  0  0  0  0  0
  191.9560  176.2610  146.5990 C   0  0  0  0  0  3  0  0  0  0  0  0
  185.6470  178.4600  146.0660 N   0  0  0  0  0  0  0  0  0  0  0  0
  189.8160  177.2390  147.0810 C   0  0  0  0  0  0  0  0  0  0  0  0
  191.0760  176.8440  147.5280 C   0  0  0  0  0  3  0  0  0  0  0  0
  185.0080  178.3570  143.7300 C   0  0  0  0  0  0  0  0  0  0  0  0
  183.5620  178.6320  143.9620 C   0  0  0  0  0  1  0  0  0  0  0  0
  187.7410  177.8170  143.2020 N   0  0  0  0  0  2  0  0  0  0  0  0
  191.5660  176.0760  145.2560 C   0  0  0  0  0  3  0  0  0  0  0  0
  187.8120  177.9240  146.9110 C   0  0  0  0  0  0  0  0  0  0  0  0
  188.8820  177.7410  147.8340 N   0  0  0  0  0  0  0  0  0  0  0  0
  185.5100  178.4450  142.4950 C   0  0  0  0  0  3  0  0  0  0  0  0
  190.2930  176.4770  144.8180 C   0  0  0  0  0  3  0  0  0  0  0  0
  186.9580  178.2490  142.2510 C   0  0  0  0  0  0  0  0  0  0  0  0
  185.9220  178.0650  144.8450 C   0  0  0  0  0  0  0  0  0  0  0  0
  187.5120  178.6250  140.9490 C   0  0  0  0  0  3  0  0  0  0  0  0
  188.4890  177.9630  140.4200 N   0  0  0  0  0  0  0  0  0  0  0  0
  189.0380  178.3460  139.1280 C   0  0  0  0  0  2  0  0  0  0  0  0
  189.3670  177.1150  138.2920 C   0  0  0  0  0  2  0  0  0  0  0  0
  190.6090  176.4500  138.7780 C   0  0  0  0  0  0  0  0  0  0  0  0
  191.5550  177.1790  139.4860 O   0  0  0  0  0  1  0  0  0  0  0  0
  190.8110  175.2330  138.5330 O   0  0  0  0  0  0  0  0  0  0  0  0
  1  4  1  0  0  0  0
  1 13  1  0  0  0  0
  2 18  1  0  0  0  0
  2  1  2  0  0  0  0
  4  7  1  0  0  0  0
  5  8  1  0  0  0  0
  6  3  2  0  0  0  0
  7  8  2  0  0  0  0
  7 14  1  0  0  0  0
  9 10  1  0  0  0  0
  9 18  2  0  0  0  0
 11  2  1  0  0  0  0
 12  5  2  0  0  0  0
 13  3  1  0  0  0  0
 13 14  2  0  0  0  0
 15  9  1  0  0  0  0
 16 12  1  0  0  0  0
 16  4  2  0  0  0  0
 17 15  2  0  0  0  0
 17 11  1  0  0  0  0
 18  6  1  0  0  0  0
 19 17  1  0  0  0  0
 20 19  2  0  0  0  0
 21 20  1  0  0  0  0
 22 23  1  0  0  0  0
 22 21  1  0  0  0  0
 23 24  1  0  0  0  0
 25 23  2  0  0  0  0
M  END
>  <MODEL>
2

>  <REMARK>
 VINA RESULT:      -9.3      1.462      2.285
  Name = 
  4 active torsions:
  status: ('A' for Active; 'I' for Inactive)
    1  A    between atoms: C_2  and  C_25
    2  A    between atoms: C_6  and  C_23
    3  A    between atoms: N_15  and  C_21
    4  A    between atoms: C_21  and  C_25
                            x       y       z     vdW  Elec       q    Type
                         _______ _______ _______ _____ _____    ______ ____

>  <TORSDO>
F 4

$$$$
=
 OpenBabel10262419503D

 25 28  0  0  0  0  0  0  0  0999 V2000
  188.2140  177.5090  145.5620 C   0  0  0  0  0  0  0  0  0  0  0  0
  187.2370  177.3660  144.4420 C   0  0  0  0  0  0  0  0  0  0  0  0
  186.5570  178.2910  147.1320 C   0  0  0  0  0  3  0  0  0  0  0  0
  189.4500  177.0750  145.7190 C   0  0  0  0  0  0  0  0  0  0  0  0
  191.9610  176.2720  146.5750 C   0  0  0  0  0  3  0  0  0  0  0  0
  185.6360  178.4180  146.0270 N   0  0  0  0  0  0  0  0  0  0  0  0
  189.8060  177.2150  147.0580 C   0  0  0  0  0  0  0  0  0  0  0  0
  191.0650  176.8220  147.5080 C   0  0  0  0  0  3  0  0  0  0  0  0
  185.0230  178.3670  143.6820 C   0  0  0  0  0  0  0  0  0  0  0  0
  183.5720  178.6210  143.9050 C   0  0  0  0  0  1  0  0  0  0  0  0
  187.7660  177.8680  143.1720 N   0  0  0  0  0  2  0  0  0  0  0  0
  191.5870  176.1150  145.2240 C   0  0  0  0  0  3  0  0  0  0  0  0
  187.7970  177.8830  146.8830 C   0  0  0  0  0  0  0  0  0  0  0  0
  188.8590  177.6890  147.8120 N   0  0  0  0  0  0  0  0  0  0  0  0
  185.5370  178.4910  142.4560 C   0  0  0  0  0  3  0  0  0  0  0  0
  190.3150  176.5150  144.7820 C   0  0  0  0  0  3  0  0  0  0  0  0
  186.9900  178.3160  142.2230 C   0  0  0  0  0  0  0  0  0  0  0  0
  185.9270  178.0570  144.8000 C   0  0  0  0  0  0  0  0  0  0  0  0
  187.5530  178.7300  140.9370 C   0  0  0  0  0  3  0  0  0  0  0  0
  188.4240  177.9990  140.3200 N   0  0  0  0  0  0  0  0  0  0  0  0
  188.9840  178.4190  139.0440 C   0  0  0  0  0  2  0  0  0  0  0  0
  188.4190  177.5840  137.9020 C   0  0  0  0  0  2  0  0  0  0  0  0
  187.2750  178.2760  137.2430 C   0  0  0  0  0  0  0  0  0  0  0  0
  186.0600  177.6210  137.0930 O   0  0  0  0  0  1  0  0  0  0  0  0
  187.4130  179.4480  136.8060 O   0  0  0  0  0  0  0  0  0  0  0  0
  1  4  1  0  0  0  0
  1 13  1  0  0  0  0
  2 18  1  0  0  0  0
  2  1  2  0  0  0  0
  4  7  1  0  0  0  0
  5  8  1  0  0  0  0
  6  3  2  0  0  0  0
  7  8  2  0  0  0  0
  7 14  1  0  0  0  0
  9 10  1  0  0  0  0
  9 18  2  0  0  0  0
 11  2  1  0  0  0  0
 12  5  2  0  0  0  0
 13  3  1  0  0  0  0
 13 14  2  0  0  0  0
 15  9  1  0  0  0  0
 16 12  1  0  0  0  0
 16  4  2  0  0  0  0
 17 15  2  0  0  0  0
 17 11  1  0  0  0  0
 18  6  1  0  0  0  0
 19 17  1  0  0  0  0
 20 19  2  0  0  0  0
 21 20  1  0  0  0  0
 22 21  1  0  0  0  0
 23 22  1  0  0  0  0
 24 23  1  0  0  0  0
 25 23  2  0  0  0  0
M  END
>  <MODEL>
3

>  <REMARK>
 VINA RESULT:      -9.1      2.173      2.912
  Name = 
  4 active torsions:
  status: ('A' for Active; 'I' for Inactive)
    1  A    between atoms: C_2  and  C_25
    2  A    between atoms: C_6  and  C_23
    3  A    between atoms: N_15  and  C_21
    4  A    between atoms: C_21  and  C_25
                            x       y       z     vdW  Elec       q    Type
                         _______ _______ _______ _____ _____    ______ ____

>  <TORSDO>
F 4

$$$$
=
 OpenBabel10262419503D

 25 28  0  0  1  0  0  0  0  0999 V2000
  187.2980  177.8770  145.4430 C   0  0  0  0  0  0  0  0  0  0  0  0
  188.7200  177.9200  144.9910 C   0  0  2  0  0  3  0  0  0  0  0  0
  187.8520  177.1210  147.6670 C   0  0  0  0  0  3  0  0  0  0  0  0
  186.1880  178.3650  144.9230 C   0  0  0  0  0  0  0  0  0  0  0  0
  183.6520  179.3100  144.3260 C   0  0  0  0  0  3  0  0  0  0  0  0
  189.2020  176.8980  147.2060 N   0  0  0  0  0  0  0  0  0  0  0  0
  185.1840  178.3130  145.8850 C   0  0  0  0  0  0  0  0  0  0  0  0
  183.9000  178.7790  145.6050 C   0  0  0  0  0  3  0  0  0  0  0  0
  190.9420  176.7960  145.5200 C   0  0  0  0  0  0  0  0  0  0  0  0
  192.0490  176.4990  146.4720 C   0  0  0  0  0  1  0  0  0  0  0  0
  188.8950  177.3690  143.6450 N   0  0  0  0  0  0  0  0  0  0  0  0
  184.6790  179.3770  143.3630 C   0  0  0  0  0  3  0  0  0  0  0  0
  186.9480  177.5610  146.7980 C   0  0  0  0  0  0  0  0  0  0  0  0
  185.5720  177.8470  147.0350 N   0  0  0  0  0  0  0  0  0  0  0  0
  191.1300  176.6230  144.2090 C   0  0  0  0  0  3  0  0  0  0  0  0
  185.9690  178.9050  143.6580 C   0  0  0  0  0  3  0  0  0  0  0  0
  190.0210  176.8400  143.2510 C   0  0  0  0  0  0  0  0  0  0  0  0
  189.6100  177.2010  145.9960 C   0  0  0  0  0  0  0  0  0  0  0  0
  190.1800  176.3760  141.8720 C   0  0  0  0  0  3  0  0  0  0  0  0
  190.1820  177.2080  140.8810 N   0  0  0  0  0  0  0  0  0  0  0  0
  190.3350  176.7400  139.5110 C   0  0  0  0  0  2  0  0  0  0  0  0
  189.0300  176.8890  138.7390 C   0  0  0  0  0  2  0  0  0  0  0  0
  188.5220  178.2890  138.8040 C   0  0  0  0  0  0  0  0  0  0  0  0
  187.4430  178.5980  139.6210 O   0  0  0  0  0  1  0  0  0  0  0  0
  189.0580  179.1880  138.1050 O   0  0  0  0  0  0  0  0  0  0  0  0
  1 13  1  0  0  0  0
  2 11  1  6  0  0  0
  2  1  1  0  0  0  0
  2 18  1  0  0  0  0
  4  1  2  0  0  0  0
  4  7  1  0  0  0  0
  5  8  2  0  0  0  0
  6  3  1  0  0  0  0
  7 14  2  0  0  0  0
  8  7  1  0  0  0  0
  9 18  1  0  0  0  0
  9 10  1  0  0  0  0
 12 16  2  0  0  0  0
 12  5  1  0  0  0  0
 13 14  1  0  0  0  0
 13  3  2  0  0  0  0
 15  9  2  0  0  0  0
 16  4  1  0  0  0  0
 17 11  2  0  0  0  0
 17 15  1  0  0  0  0
 18  6  2  0  0  0  0
 19 17  1  0  0  0  0
 20 19  2  0  0  0  0
 21 20  1  0  0  0  0
 22 23  1  0  0  0  0
 22 21  1  0  0  0  0
 23 24  1  0  0  0  0
 25 23  2  0  0  0  0
M  END
>  <MODEL>
4

>  <REMARK>
 VINA RESULT:      -8.8      2.111      4.667
  Name = 
  4 active torsions:
  status: ('A' for Active; 'I' for Inactive)
    1  A    between atoms: C_2  and  C_25
    2  A    between atoms: C_6  and  C_23
    3  A    between atoms: N_15  and  C_21
    4  A    between atoms: C_21  and  C_25
                            x       y       z     vdW  Elec       q    Type
                         _______ _______ _______ _____ _____    ______ ____

>  <TORSDO>
F 4

$$$$
=
 OpenBabel10262419503D

 25 28  0  0  0  0  0  0  0  0999 V2000
  185.8660  178.2930  144.7610 C   0  0  0  0  0  0  0  0  0  0  0  0
  185.5350  177.8750  143.3660 C   0  0  0  0  0  0  0  0  0  0  0  0
  183.6770  179.2160  145.1830 C   0  0  0  0  0  3  0  0  0  0  0  0
  186.8710  177.9920  145.5600 C   0  0  0  0  0  0  0  0  0  0  0  0
  188.6600  177.5520  147.6320 C   0  0  0  0  0  3  0  0  0  0  0  0
  183.3930  179.0700  143.7740 N   0  0  0  0  0  0  0  0  0  0  0  0
  186.5510  178.3990  146.8520 C   0  0  0  0  0  0  0  0  0  0  0  0
  187.4380  178.1920  147.9080 C   0  0  0  0  0  3  0  0  0  0  0  0
  183.9660  178.5480  141.4770 C   0  0  0  0  0  0  0  0  0  0  0  0
  182.5880  178.7260  140.9390 C   0  0  0  0  0  1  0  0  0  0  0  0
  186.6140  178.1780  142.4220 N   0  0  0  0  0  2  0  0  0  0  0  0
  188.9690  177.1260  146.3240 C   0  0  0  0  0  3  0  0  0  0  0  0
  184.8790  178.8670  145.6290 C   0  0  0  0  0  0  0  0  0  0  0  0
  185.3680  178.9270  146.9650 N   0  0  0  0  0  0  0  0  0  0  0  0
  185.0030  178.4860  140.6380 C   0  0  0  0  0  3  0  0  0  0  0  0
  188.0670  177.3390  145.2690 C   0  0  0  0  0  3  0  0  0  0  0  0
  186.3890  178.3850  141.1530 C   0  0  0  0  0  0  0  0  0  0  0  0
  184.2260  178.5160  142.9250 C   0  0  0  0  0  0  0  0  0  0  0  0
  187.5030  178.6020  140.2280 C   0  0  0  0  0  3  0  0  0  0  0  0
  188.5730  177.8770  140.2860 N   0  0  0  0  0  0  0  0  0  0  0  0
  189.6790  178.1020  139.3680 C   0  0  0  0  0  2  0  0  0  0  0  0
  189.1790  178.6690  138.0450 C   0  0  0  0  0  2  0  0  0  0  0  0
  188.9200  177.5830  137.0560 C   0  0  0  0  0  0  0  0  0  0  0  0
  188.3620  176.3830  137.4740 O   0  0  0  0  0  1  0  0  0  0  0  0
  189.2240  177.7460  135.8470 O   0  0  0  0  0  0  0  0  0  0  0  0
  1  4  1  0  0  0  0
  1 13  1  0  0  0  0
  2  1  2  0  0  0  0
  3 13  1  0  0  0  0
  4  7  1  0  0  0  0
  5  8  1  0  0  0  0
  6  3  2  0  0  0  0
  7 14  1  0  0  0  0
  7  8  2  0  0  0  0
  9 18  2  0  0  0  0
 10  9  1  0  0  0  0
 11  2  1  0  0  0  0
 12  5  2  0  0  0  0
 13 14  2  0  0  0  0
 15 17  2  0  0  0  0
 15  9  1  0  0  0  0
 16  4  2  0  0  0  0
 16 12  1  0  0  0  0
 17 11  1  0  0  0  0
 18  2  1  0  0  0  0
 18  6  1  0  0  0  0
 19 20  2  0  0  0  0
 19 17  1  0  0  0  0
 21 20  1  0  0  0  0
 22 21  1  0  0  0  0
 23 24  1  0  0  0  0
 23 22  1  0  0  0  0
 25 23  2  0  0  0  0
M  END
>  <MODEL>
5

>  <REMARK>
 VINA RESULT:      -8.5      1.183      1.372
  Name = 
  4 active torsions:
  status: ('A' for Active; 'I' for Inactive)
    1  A    between atoms: C_2  and  C_25
    2  A    between atoms: C_6  and  C_23
    3  A    between atoms: N_15  and  C_21
    4  A    between atoms: C_21  and  C_25
                            x       y       z     vdW  Elec       q    Type
                         _______ _______ _______ _____ _____    ______ ____

>  <TORSDO>
F 4

$$$$
=
 OpenBabel10262419503D

 25 28  0  0  1  0  0  0  0  0999 V2000
  189.6540  177.4430  143.6620 C   0  0  0  0  0  0  0  0  0  0  0  0
  188.5250  177.1180  144.5840 C   0  0  2  0  0  3  0  0  0  0  0  0
  191.2870  177.5700  145.4350 C   0  0  0  0  0  3  0  0  0  0  0  0
  189.7720  177.3770  142.3500 C   0  0  0  0  0  0  0  0  0  0  0  0
  190.5530  177.2710  139.6920 C   0  0  0  0  0  3  0  0  0  0  0  0
  190.1970  177.5170  146.3810 N   0  0  0  0  0  0  0  0  0  0  0  0
  191.1180  177.5000  142.0160 C   0  0  0  0  0  0  0  0  0  0  0  0
  191.5320  177.4540  140.6860 C   0  0  0  0  0  3  0  0  0  0  0  0
  187.8560  177.4900  147.0120 C   0  0  0  0  0  0  0  0  0  0  0  0
  188.1010  177.2900  148.4680 C   0  0  0  0  0  1  0  0  0  0  0  0
  187.3050  177.8590  144.2560 N   0  0  0  0  0  0  0  0  0  0  0  0
  189.1930  177.1280  140.0400 C   0  0  0  0  0  3  0  0  0  0  0  0
  191.0020  177.5650  144.1360 C   0  0  0  0  0  0  0  0  0  0  0  0
  191.9110  177.6100  143.0400 N   0  0  0  0  0  0  0  0  0  0  0  0
  186.6460  177.8630  146.5880 C   0  0  0  0  0  3  0  0  0  0  0  0
  188.7890  177.1750  141.3840 C   0  0  0  0  0  3  0  0  0  0  0  0
  186.4000  178.1400  145.1530 C   0  0  0  0  0  0  0  0  0  0  0  0
  188.9430  177.3630  146.0280 C   0  0  0  0  0  0  0  0  0  0  0  0
  185.1560  178.8090  144.7680 C   0  0  0  0  0  3  0  0  0  0  0  0
  184.4870  178.4320  143.7270 N   0  0  0  0  0  0  0  0  0  0  0  0
  183.2540  179.1050  143.3460 C   0  0  0  0  0  2  0  0  0  0  0  0
  182.0890  178.6280  144.2030 C   0  0  0  0  0  2  0  0  0  0  0  0
  180.7810  178.9640  143.5710 C   0  0  0  0  0  0  0  0  0  0  0  0
  179.6830  178.1380  143.7680 O   0  0  0  0  0  1  0  0  0  0  0  0
  180.6760  179.9850  142.8440 O   0  0  0  0  0  0  0  0  0  0  0  0
  1 13  1  0  0  0  0
  2  1  1  6  0  0  0
  2 18  1  0  0  0  0
  3  6  1  0  0  0  0
  4  1  2  0  0  0  0
  5 12  1  0  0  0  0
  5  8  2  0  0  0  0
  7  4  1  0  0  0  0
  7 14  2  0  0  0  0
  8  7  1  0  0  0  0
  9 10  1  0  0  0  0
 11  2  1  0  0  0  0
 11 17  2  0  0  0  0
 12 16  2  0  0  0  0
 13  3  2  0  0  0  0
 14 13  1  0  0  0  0
 15  9  2  0  0  0  0
 16  4  1  0  0  0  0
 17 15  1  0  0  0  0
 18  6  2  0  0  0  0
 18  9  1  0  0  0  0
 19 17  1  0  0  0  0
 20 19  2  0  0  0  0
 21 20  1  0  0  0  0
 21 22  1  0  0  0  0
 23 24  1  0  0  0  0
 23 22  1  0  0  0  0
 25 23  2  0  0  0  0
M  END
>  <MODEL>
6

>  <REMARK>
 VINA RESULT:      -8.5      4.040      7.315
  Name = 
  4 active torsions:
  status: ('A' for Active; 'I' for Inactive)
    1  A    between atoms: C_2  and  C_25
    2  A    between atoms: C_6  and  C_23
    3  A    between atoms: N_15  and  C_21
    4  A    between atoms: C_21  and  C_25
                            x       y       z     vdW  Elec       q    Type
                         _______ _______ _______ _____ _____    ______ ____

>  <TORSDO>
F 4

$$$$
=
 OpenBabel10262419503D

 25 28  0  0  0  0  0  0  0  0999 V2000
  189.0290  177.5370  143.7280 C   0  0  0  0  0  0  0  0  0  0  0  0
  189.4920  178.0350  142.3980 C   0  0  0  0  0  0  0  0  0  0  0  0
  191.1920  176.6600  144.3410 C   0  0  0  0  0  3  0  0  0  0  0  0
  187.9340  177.7670  144.4270 C   0  0  0  0  0  0  0  0  0  0  0  0
  185.9190  178.0470  146.3100 C   0  0  0  0  0  3  0  0  0  0  0  0
  191.6190  176.8870  142.9800 N   0  0  0  0  0  0  0  0  0  0  0  0
  188.1290  177.3050  145.7250 C   0  0  0  0  0  0  0  0  0  0  0  0
  187.1270  177.4310  146.6870 C   0  0  0  0  0  3  0  0  0  0  0  0
  191.2770  177.5070  140.6620 C   0  0  0  0  0  0  0  0  0  0  0  0
  192.7100  177.3980  140.2690 C   0  0  0  0  0  1  0  0  0  0  0  0
  188.5330  177.7480  141.3290 N   0  0  0  0  0  2  0  0  0  0  0  0
  185.7370  178.5300  144.9980 C   0  0  0  0  0  3  0  0  0  0  0  0
  189.9380  176.9500  144.6700 C   0  0  0  0  0  0  0  0  0  0  0  0
  189.3100  176.8080  145.9410 N   0  0  0  0  0  0  0  0  0  0  0  0
  190.3340  177.5790  139.7180 C   0  0  0  0  0  3  0  0  0  0  0  0
  186.7540  178.3970  144.0380 C   0  0  0  0  0  3  0  0  0  0  0  0
  188.8990  177.6130  140.0840 C   0  0  0  0  0  0  0  0  0  0  0  0
  190.8630  177.4570  142.0720 C   0  0  0  0  0  0  0  0  0  0  0  0
  187.8990  177.4100  139.0350 C   0  0  0  0  0  3  0  0  0  0  0  0
  187.0380  178.3300  138.7420 N   0  0  0  0  0  0  0  0  0  0  0  0
  186.0430  178.1190  137.7010 C   0  0  0  0  0  2  0  0  0  0  0  0
  184.6420  178.0470  138.2970 C   0  0  0  0  0  2  0  0  0  0  0  0
  184.4470  179.0910  139.3430 C   0  0  0  0  0  0  0  0  0  0  0  0
  184.3520  178.7260  140.6790 O   0  0  0  0  0  1  0  0  0  0  0  0
  184.3500  180.3020  139.0150 O   0  0  0  0  0  0  0  0  0  0  0  0
  1  4  1  0  0  0  0
  1 13  1  0  0  0  0
  2  1  2  0  0  0  0
  3 13  1  0  0  0  0
  4  7  1  0  0  0  0
  5  8  1  0  0  0  0
  6  3  2  0  0  0  0
  7 14  1  0  0  0  0
  7  8  2  0  0  0  0
  9 18  2  0  0  0  0
 10  9  1  0  0  0  0
 11  2  1  0  0  0  0
 12  5  2  0  0  0  0
 13 14  2  0  0  0  0
 15 17  2  0  0  0  0
 15  9  1  0  0  0  0
 16  4  2  0  0  0  0
 16 12  1  0  0  0  0
 17 11  1  0  0  0  0
 18  2  1  0  0  0  0
 18  6  1  0  0  0  0
 19 17  1  0  0  0  0
 20 19  2  0  0  0  0
 21 22  1  0  0  0  0
 21 20  1  0  0  0  0
 22 23  1  0  0  0  0
 23 24  1  0  0  0  0
 25 23  2  0  0  0  0
M  END
>  <MODEL>
7

>  <REMARK>
 VINA RESULT:      -8.5      3.063      5.161
  Name = 
  4 active torsions:
  status: ('A' for Active; 'I' for Inactive)
    1  A    between atoms: C_2  and  C_25
    2  A    between atoms: C_6  and  C_23
    3  A    between atoms: N_15  and  C_21
    4  A    between atoms: C_21  and  C_25
                            x       y       z     vdW  Elec       q    Type
                         _______ _______ _______ _____ _____    ______ ____

>  <TORSDO>
F 4

$$$$
=
 OpenBabel10262419503D

 25 28  0  0  0  0  0  0  0  0999 V2000
  187.3580  177.7560  144.8620 C   0  0  0  0  0  0  0  0  0  0  0  0
  186.1040  177.6330  144.0600 C   0  0  0  0  0  0  0  0  0  0  0  0
  186.2140  178.5280  146.8420 C   0  0  0  0  0  3  0  0  0  0  0  0
  188.5840  177.3130  144.6620 C   0  0  0  0  0  0  0  0  0  0  0  0
  191.2270  176.4850  144.7710 C   0  0  0  0  0  3  0  0  0  0  0  0
  185.0210  178.6740  146.0410 N   0  0  0  0  0  0  0  0  0  0  0  0
  189.3020  177.4350  145.8490 C   0  0  0  0  0  0  0  0  0  0  0  0
  190.6330  177.0280  145.9240 C   0  0  0  0  0  3  0  0  0  0  0  0
  183.7750  178.6550  143.9610 C   0  0  0  0  0  0  0  0  0  0  0  0
  182.4470  178.9160  144.5850 C   0  0  0  0  0  1  0  0  0  0  0  0
  186.2610  178.1470  142.6970 N   0  0  0  0  0  2  0  0  0  0  0  0
  190.4880  176.3470  143.5770 C   0  0  0  0  0  3  0  0  0  0  0  0
  187.3310  178.1160  146.2510 C   0  0  0  0  0  0  0  0  0  0  0  0
  188.6090  177.9040  146.8430 N   0  0  0  0  0  0  0  0  0  0  0  0
  183.9260  178.7920  142.6410 C   0  0  0  0  0  3  0  0  0  0  0  0
  189.1470  176.7590  143.5140 C   0  0  0  0  0  3  0  0  0  0  0  0
  185.2540  178.6110  142.0090 C   0  0  0  0  0  0  0  0  0  0  0  0
  184.9540  178.3260  144.7780 C   0  0  0  0  0  0  0  0  0  0  0  0
  185.4380  179.0380  140.6210 C   0  0  0  0  0  3  0  0  0  0  0  0
  186.0310  178.2780  139.7580 N   0  0  0  0  0  0  0  0  0  0  0  0
  186.2160  178.7110  138.3820 C   0  0  0  0  0  2  0  0  0  0  0  0
  187.2130  177.8130  137.6600 C   0  0  0  0  0  2  0  0  0  0  0  0
  188.5360  178.4830  137.5170 C   0  0  0  0  0  0  0  0  0  0  0  0
  189.0570  179.2230  138.5690 O   0  0  0  0  0  1  0  0  0  0  0  0
  189.1750  178.3940  136.4370 O   0  0  0  0  0  0  0  0  0  0  0  0
  1 13  1  0  0  0  0
  2 18  1  0  0  0  0
  2  1  2  0  0  0  0
  4  1  1  0  0  0  0
  4  7  1  0  0  0  0
  5  8  1  0  0  0  0
  6  3  2  0  0  0  0
  7  8  2  0  0  0  0
  7 14  1  0  0  0  0
  9 10  1  0  0  0  0
  9 18  2  0  0  0  0
 11  2  1  0  0  0  0
 12  5  2  0  0  0  0
 13  3  1  0  0  0  0
 13 14  2  0  0  0  0
 15  9  1  0  0  0  0
 16 12  1  0  0  0  0
 16  4  2  0  0  0  0
 17 15  2  0  0  0  0
 17 11  1  0  0  0  0
 18  6  1  0  0  0  0
 19 17  1  0  0  0  0
 20 19  2  0  0  0  0
 21 20  1  0  0  0  0
 22 21  1  0  0  0  0
 23 22  1  0  0  0  0
 23 24  1  0  0  0  0
 25 23  2  0  0  0  0
M  END
>  <MODEL>
8

>  <REMARK>
 VINA RESULT:      -8.4      1.962      2.761
  Name = 
  4 active torsions:
  status: ('A' for Active; 'I' for Inactive)
    1  A    between atoms: C_2  and  C_25
    2  A    between atoms: C_6  and  C_23
    3  A    between atoms: N_15  and  C_21
    4  A    between atoms: C_21  and  C_25
                            x       y       z     vdW  Elec       q    Type
                         _______ _______ _______ _____ _____    ______ ____

>  <TORSDO>
F 4

$$$$
=
 OpenBabel10262419503D

 25 28  0  0  1  0  0  0  0  0999 V2000
  189.8160  177.3600  143.3410 C   0  0  0  0  0  0  0  0  0  0  0  0
  188.6440  176.9680  144.1790 C   0  0  2  0  0  3  0  0  0  0  0  0
  191.2690  177.7080  145.2360 C   0  0  0  0  0  3  0  0  0  0  0  0
  190.0550  177.2540  142.0480 C   0  0  0  0  0  0  0  0  0  0  0  0
  191.0740  177.1160  139.4730 C   0  0  0  0  0  3  0  0  0  0  0  0
  190.1090  177.5910  146.0890 N   0  0  0  0  0  0  0  0  0  0  0  0
  191.4090  177.4870  141.8230 C   0  0  0  0  0  0  0  0  0  0  0  0
  191.9410  177.4270  140.5360 C   0  0  0  0  0  3  0  0  0  0  0  0
  187.7340  177.3720  146.5210 C   0  0  0  0  0  0  0  0  0  0  0  0
  187.8650  177.2530  148.0010 C   0  0  0  0  0  1  0  0  0  0  0  0
  187.3960  177.5790  143.7140 N   0  0  0  0  0  0  0  0  0  0  0  0
  189.7070  176.8610  139.7110 C   0  0  0  0  0  3  0  0  0  0  0  0
  191.1020  177.6250  143.9210 C   0  0  0  0  0  0  0  0  0  0  0  0
  192.0960  177.7110  142.9040 N   0  0  0  0  0  0  0  0  0  0  0  0
  186.5370  177.6140  145.9790 C   0  0  0  0  0  3  0  0  0  0  0  0
  189.1830  176.9240  141.0130 C   0  0  0  0  0  3  0  0  0  0  0  0
  186.3940  177.8100  144.5180 C   0  0  0  0  0  0  0  0  0  0  0  0
  188.9090  177.3080  145.6400 C   0  0  0  0  0  0  0  0  0  0  0  0
  185.1350  178.3460  143.9980 C   0  0  0  0  0  3  0  0  0  0  0  0
  184.8400  178.2630  142.7410 N   0  0  0  0  0  0  0  0  0  0  0  0
  183.5890  178.8020  142.2290 C   0  0  0  0  0  2  0  0  0  0  0  0
  183.3130  178.2880  140.8210 C   0  0  0  0  0  2  0  0  0  0  0  0
  183.6750  179.3070  139.7950 C   0  0  0  0  0  0  0  0  0  0  0  0
  182.7020  179.8100  138.9430 O   0  0  0  0  0  0  0  0  0  0  0  0
  184.8660  179.7000  139.6880 O   0  0  0  0  0  1  0  0  0  0  0  0
  1 13  1  0  0  0  0
  2  1  1  6  0  0  0
  2 18  1  0  0  0  0
  3  6  1  0  0  0  0
  4  1  2  0  0  0  0
  5 12  1  0  0  0  0
  5  8  2  0  0  0  0
  7  4  1  0  0  0  0
  7 14  2  0  0  0  0
  8  7  1  0  0  0  0
  9 10  1  0  0  0  0
 11  2  1  0  0  0  0
 11 17  2  0  0  0  0
 12 16  2  0  0  0  0
 13  3  2  0  0  0  0
 14 13  1  0  0  0  0
 15  9  2  0  0  0  0
 16  4  1  0  0  0  0
 17 15  1  0  0  0  0
 18  6  2  0  0  0  0
 18  9  1  0  0  0  0
 19 17  1  0  0  0  0
 20 19  2  0  0  0  0
 21 20  1  0  0  0  0
 22 21  1  0  0  0  0
 23 22  1  0  0  0  0
 24 23  2  0  0  0  0
 25 23  1  0  0  0  0
M  END
>  <MODEL>
9

>  <REMARK>
 VINA RESULT:      -8.2      3.118      6.445
  Name = 
  4 active torsions:
  status: ('A' for Active; 'I' for Inactive)
    1  A    between atoms: C_2  and  C_25
    2  A    between atoms: C_6  and  C_23
    3  A    between atoms: N_15  and  C_21
    4  A    between atoms: C_21  and  C_25
                            x       y       z     vdW  Elec       q    Type
                         _______ _______ _______ _____ _____    ______ ____

>  <TORSDO>
F 4

$$$$
