=
 OpenBabel10262420443D

 28 34  0  0  1  0  0  0  0  0999 V2000
  187.7240  177.8790  145.0950 C   0  0  1  0  0  3  0  0  0  0  0  0
  185.3970  178.0180  142.3810 C   0  0  2  0  0  3  0  0  0  0  0  0
  184.7880  179.1900  144.5760 C   0  0  0  0  0  2  0  0  0  0  0  0
  187.3310  177.4120  143.8120 O   0  0  0  0  0  0  0  0  0  0  0  0
  185.5940  179.1930  145.9110 C   0  0  0  0  0  2  0  0  0  0  0  0
  186.5800  178.8470  141.9390 C   0  0  1  0  0  3  0  0  0  0  0  0
  185.1250  177.9950  143.8280 N   0  0  2  0  0  0  0  0  0  0  0  0
  186.5530  177.9780  146.1250 C   0  0  0  0  0  2  0  0  0  0  0  0
  186.4540  178.3970  143.3780 C   0  0  1  0  0  0  0  0  0  0  0  0
  191.4310  177.5160  141.0360 C   0  0  0  0  0  3  0  0  0  0  0  0
  189.7520  177.6770  139.1970 C   0  0  1  0  0  3  0  0  0  0  0  0
  189.0950  178.2160  141.5550 C   0  0  0  0  0  2  0  0  0  0  0  0
  192.0540  176.8500  138.7670 C   0  0  0  0  0  0  0  0  0  0  0  0
  189.9820  177.3470  140.6750 C   0  0  2  0  0  3  0  0  0  0  0  0
  187.4790  178.4190  139.6830 N   0  0  0  0  0  2  0  0  0  0  0  0
  190.6190  176.7710  138.3260 C   0  0  0  0  0  2  0  0  0  0  0  0
  188.2750  177.4970  138.8740 C   0  0  0  0  0  2  0  0  0  0  0  0
  192.9720  176.5490  137.9610 O   0  0  0  0  0  0  0  0  0  0  0  0
  192.3930  177.2500  140.1470 C   0  0  0  0  0  3  0  0  0  0  0  0
  187.6280  178.0770  141.1010 C   0  0  2  0  0  3  0  0  0  0  0  0
  188.7190  177.0390  145.6020 O   0  0  0  0  0  0  0  0  0  0  0  0
  189.7000  177.9020  146.1130 C   0  0  2  0  0  3  0  0  0  0  0  0
  191.6150  176.2700  144.9620 C   0  0  0  0  0  2  0  0  0  0  0  0
  190.4860  178.5630  144.9740 C   0  0  0  0  0  2  0  0  0  0  0  0
  190.5450  175.6900  147.1160 C   0  0  0  0  0  2  0  0  0  0  0  0
  190.6320  177.2090  147.1350 C   0  0  1  0  0  3  0  0  0  0  0  0
  191.7410  176.3660  146.4820 C   0  0  2  0  0  3  0  0  0  0  0  0
  191.5530  177.6620  144.3390 C   0  0  0  0  0  2  0  0  0  0  0  0
  1 21  1  1  0  0  0
  1  8  1  0  0  0  0
  2  9  1  0  0  0  0
  2  7  1  0  0  0  0
  3  5  1  0  0  0  0
  4  1  1  0  0  0  0
  5  8  1  0  0  0  0
  6  2  1  0  0  0  0
  6  9  1  0  0  0  0
  7  3  1  0  0  0  0
  9  4  1  0  0  0  0
  9  7  1  0  0  0  0
 11 14  1  0  0  0  0
 13 19  1  0  0  0  0
 14 10  1  0  0  0  0
 14 12  1  0  0  0  0
 15 20  1  0  0  0  0
 16 13  1  0  0  0  0
 16 11  1  0  0  0  0
 17 11  1  0  0  0  0
 17 15  1  0  0  0  0
 18 13  2  0  0  0  0
 19 10  2  0  0  0  0
 20 12  1  0  0  0  0
 20  6  1  0  0  0  0
 21 22  1  0  0  0  0
 22 26  1  0  0  0  0
 23 27  1  0  0  0  0
 24 22  1  0  0  0  0
 25 26  1  0  0  0  0
 27 25  1  0  0  0  0
 27 26  1  0  0  0  0
 28 23  1  0  0  0  0
 28 24  1  0  0  0  0
M  END
>  <MODEL>
1

>  <REMARK>
 VINA RESULT:      -9.1      0.000      0.000
  Name = 
  3 active torsions:
  status: ('A' for Active; 'I' for Inactive)
    1  A    between atoms: C_1  and  O_2
    2  A    between atoms: O_2  and  C_3
    3  A    between atoms: C_20  and  C_25
                            x       y       z     vdW  Elec       q    Type
                         _______ _______ _______ _____ _____    ______ ____

>  <TORSDO>
F 3

$$$$
=
 OpenBabel10262420443D

 28 34  0  0  1  0  0  0  0  0999 V2000
  187.4860  177.6840  144.2230 C   0  0  1  0  0  3  0  0  0  0  0  0
  184.4320  178.3650  142.4900 C   0  0  2  0  0  3  0  0  0  0  0  0
  184.7010  179.2390  144.8830 C   0  0  0  0  0  2  0  0  0  0  0  0
  186.6480  177.4350  143.1030 O   0  0  0  0  0  0  0  0  0  0  0  0
  185.8940  178.9950  145.8590 C   0  0  0  0  0  2  0  0  0  0  0  0
  185.4880  179.1730  141.7750 C   0  0  1  0  0  3  0  0  0  0  0  0
  184.6450  178.1470  143.9310 N   0  0  2  0  0  0  0  0  0  0  0  0
  186.7330  177.7040  145.5930 C   0  0  0  0  0  2  0  0  0  0  0  0
  185.7900  178.5270  143.1090 C   0  0  1  0  0  0  0  0  0  0  0  0
  189.6020  177.8080  139.0670 C   0  0  0  0  0  3  0  0  0  0  0  0
  187.3940  178.2200  137.9800 C   0  0  1  0  0  3  0  0  0  0  0  0
  187.6540  178.5150  140.4550 C   0  0  0  0  0  2  0  0  0  0  0  0
  189.3330  177.3780  136.6740 C   0  0  0  0  0  0  0  0  0  0  0  0
  188.1110  177.7230  139.2380 C   0  0  2  0  0  3  0  0  0  0  0  0
  185.4970  178.9710  139.3180 N   0  0  0  0  0  2  0  0  0  0  0  0
  187.8320  177.3900  136.7750 C   0  0  0  0  0  2  0  0  0  0  0  0
  185.8900  178.1210  138.1950 C   0  0  0  0  0  2  0  0  0  0  0  0
  189.8820  177.1410  135.5680 O   0  0  0  0  0  0  0  0  0  0  0  0
  190.1660  177.6130  137.8710 C   0  0  0  0  0  3  0  0  0  0  0  0
  186.1170  178.4700  140.5490 C   0  0  2  0  0  3  0  0  0  0  0  0
  188.4950  176.7180  144.2630 O   0  0  0  0  0  0  0  0  0  0  0  0
  189.2950  176.9770  143.1410 C   0  0  2  0  0  3  0  0  0  0  0  0
  191.5190  176.6540  144.7540 C   0  0  0  0  0  2  0  0  0  0  0  0
  190.1500  175.7530  142.7930 C   0  0  0  0  0  2  0  0  0  0  0  0
  190.2350  178.7690  144.7270 C   0  0  0  0  0  2  0  0  0  0  0  0
  190.1500  178.2570  143.2970 C   0  0  1  0  0  3  0  0  0  0  0  0
  191.4240  178.0460  144.1320 C   0  0  2  0  0  3  0  0  0  0  0  0
  191.3890  175.5760  143.6820 C   0  0  0  0  0  2  0  0  0  0  0  0
  1 21  1  1  0  0  0
  1  8  1  0  0  0  0
  2  9  1  0  0  0  0
  2  7  1  0  0  0  0
  3  5  1  0  0  0  0
  4  9  1  0  0  0  0
  4  1  1  0  0  0  0
  6  2  1  0  0  0  0
  6  9  1  0  0  0  0
  7  3  1  0  0  0  0
  8  5  1  0  0  0  0
  9  7  1  0  0  0  0
 10 14  1  0  0  0  0
 11 17  1  0  0  0  0
 11 14  1  0  0  0  0
 12 20  1  0  0  0  0
 13 16  1  0  0  0  0
 13 19  1  0  0  0  0
 14 12  1  0  0  0  0
 15 20  1  0  0  0  0
 16 11  1  0  0  0  0
 17 15  1  0  0  0  0
 18 13  2  0  0  0  0
 19 10  2  0  0  0  0
 20  6  1  0  0  0  0
 22 26  1  0  0  0  0
 22 21  1  0  0  0  0
 24 22  1  0  0  0  0
 24 28  1  0  0  0  0
 26 27  1  0  0  0  0
 26 25  1  0  0  0  0
 27 25  1  0  0  0  0
 27 23  1  0  0  0  0
 28 23  1  0  0  0  0
M  END
>  <MODEL>
2

>  <REMARK>
 VINA RESULT:      -9.0      1.671      2.397
  Name = 
  3 active torsions:
  status: ('A' for Active; 'I' for Inactive)
    1  A    between atoms: C_1  and  O_2
    2  A    between atoms: O_2  and  C_3
    3  A    between atoms: C_20  and  C_25
                            x       y       z     vdW  Elec       q    Type
                         _______ _______ _______ _____ _____    ______ ____

>  <TORSDO>
F 3

$$$$
=
 OpenBabel10262420443D

 28 34  0  0  1  0  0  0  0  0999 V2000
  188.7260  177.7830  145.3730 C   0  0  1  0  0  3  0  0  0  0  0  0
  185.7600  177.7140  147.3730 C   0  0  2  0  0  3  0  0  0  0  0  0
  187.9820  178.3100  148.5000 C   0  0  0  0  0  2  0  0  0  0  0  0
  187.3530  177.4370  145.4910 O   0  0  0  0  0  0  0  0  0  0  0  0
  189.4050  178.3190  147.8600 C   0  0  0  0  0  2  0  0  0  0  0  0
  185.5910  178.8930  146.4440 C   0  0  1  0  0  3  0  0  0  0  0  0
  187.1430  177.3860  147.7630 N   0  0  2  0  0  0  0  0  0  0  0  0
  189.5920  177.3940  146.6150 C   0  0  0  0  0  2  0  0  0  0  0  0
  186.9320  178.2030  146.5700 C   0  0  1  0  0  0  0  0  0  0  0  0
  185.2550  178.9830  141.3450 C   0  0  0  0  0  3  0  0  0  0  0  0
  183.2270  179.0930  142.7960 C   0  0  1  0  0  3  0  0  0  0  0  0
  185.5080  178.9790  143.8260 C   0  0  0  0  0  2  0  0  0  0  0  0
  183.0330  178.9500  140.3230 C   0  0  0  0  0  0  0  0  0  0  0  0
  184.6490  178.5430  142.6480 C   0  0  2  0  0  3  0  0  0  0  0  0
  183.4650  179.1510  145.2230 N   0  0  0  0  0  2  0  0  0  0  0  0
  182.3660  178.6150  141.6280 C   0  0  0  0  0  2  0  0  0  0  0  0
  182.6510  178.6290  144.1260 C   0  0  0  0  0  2  0  0  0  0  0  0
  182.3420  179.0470  139.2760 O   0  0  0  0  0  0  0  0  0  0  0  0
  184.4960  179.1390  140.2560 C   0  0  0  0  0  3  0  0  0  0  0  0
  184.8140  178.5820  145.1430 C   0  0  2  0  0  3  0  0  0  0  0  0
  189.2550  177.1770  144.2300 O   0  0  0  0  0  0  0  0  0  0  0  0
  189.7110  178.2360  143.4320 C   0  0  2  0  0  3  0  0  0  0  0  0
  190.2560  176.3910  141.4440 C   0  0  0  0  0  2  0  0  0  0  0  0
  188.8370  178.3850  142.1810 C   0  0  0  0  0  2  0  0  0  0  0  0
  191.7990  176.7380  143.3470 C   0  0  0  0  0  2  0  0  0  0  0  0
  191.2130  178.1160  143.0800 C   0  0  1  0  0  3  0  0  0  0  0  0
  191.4960  177.1450  141.9210 C   0  0  2  0  0  3  0  0  0  0  0  0
  189.1430  177.3670  141.0740 C   0  0  0  0  0  2  0  0  0  0  0  0
  1 21  1  6  0  0  0
  1  4  1  0  0  0  0
  1  8  1  0  0  0  0
  2  7  1  0  0  0  0
  4  9  1  0  0  0  0
  5  3  1  0  0  0  0
  6  9  1  0  0  0  0
  6  2  1  0  0  0  0
  7  3  1  0  0  0  0
  8  5  1  0  0  0  0
  9  2  1  0  0  0  0
  9  7  1  0  0  0  0
 10 14  1  0  0  0  0
 11 17  1  0  0  0  0
 12 20  1  0  0  0  0
 13 16  1  0  0  0  0
 14 11  1  0  0  0  0
 14 12  1  0  0  0  0
 16 11  1  0  0  0  0
 17 15  1  0  0  0  0
 18 13  2  0  0  0  0
 19 13  1  0  0  0  0
 19 10  2  0  0  0  0
 20 15  1  0  0  0  0
 20  6  1  0  0  0  0
 22 21  1  0  0  0  0
 23 27  1  0  0  0  0
 24 22  1  0  0  0  0
 26 25  1  0  0  0  0
 26 22  1  0  0  0  0
 27 26  1  0  0  0  0
 27 25  1  0  0  0  0
 28 23  1  0  0  0  0
 28 24  1  0  0  0  0
M  END
>  <MODEL>
3

>  <REMARK>
 VINA RESULT:      -8.9      2.516      5.616
  Name = 
  3 active torsions:
  status: ('A' for Active; 'I' for Inactive)
    1  A    between atoms: C_1  and  O_2
    2  A    between atoms: O_2  and  C_3
    3  A    between atoms: C_20  and  C_25
                            x       y       z     vdW  Elec       q    Type
                         _______ _______ _______ _____ _____    ______ ____

>  <TORSDO>
F 3

$$$$
=
 OpenBabel10262420443D

 28 34  0  0  1  0  0  0  0  0999 V2000
  187.7120  177.9560  139.7240 C   0  0  1  0  0  3  0  0  0  0  0  0
  184.5650  179.3780  140.6600 C   0  0  2  0  0  3  0  0  0  0  0  0
  184.7790  178.2950  138.3480 C   0  0  0  0  0  2  0  0  0  0  0  0
  186.9660  178.7550  140.6320 O   0  0  0  0  0  0  0  0  0  0  0  0
  186.0600  177.6940  137.6910 C   0  0  0  0  0  2  0  0  0  0  0  0
  184.7430  178.1720  141.5530 C   0  0  1  0  0  3  0  0  0  0  0  0
  185.1760  179.2920  139.3220 N   0  0  2  0  0  0  0  0  0  0  0  0
  187.4190  178.2570  138.2180 C   0  0  0  0  0  2  0  0  0  0  0  0
  185.6540  178.3870  140.3640 C   0  0  1  0  0  0  0  0  0  0  0  0
  188.2690  177.2140  145.1250 C   0  0  0  0  0  3  0  0  0  0  0  0
  186.0170  178.1140  145.7140 C   0  0  1  0  0  3  0  0  0  0  0  0
  186.5890  177.6120  143.3260 C   0  0  0  0  0  2  0  0  0  0  0  0
  187.7800  177.8310  147.4410 C   0  0  0  0  0  0  0  0  0  0  0  0
  187.1340  178.0850  144.6660 C   0  0  2  0  0  3  0  0  0  0  0  0
  184.3450  178.4500  143.9700 N   0  0  0  0  0  2  0  0  0  0  0  0
  186.5690  178.6290  147.0410 C   0  0  0  0  0  2  0  0  0  0  0  0
  184.8880  179.0030  145.2100 C   0  0  0  0  0  2  0  0  0  0  0  0
  188.1240  177.7830  148.6500 O   0  0  0  0  0  0  0  0  0  0  0  0
  188.5830  177.1280  146.4220 C   0  0  0  0  0  3  0  0  0  0  0  0
  185.3770  178.4780  142.9290 C   0  0  2  0  0  3  0  0  0  0  0  0
  189.0760  178.1290  139.9750 O   0  0  0  0  0  0  0  0  0  0  0  0
  189.5380  176.8670  140.3740 C   0  0  2  0  0  3  0  0  0  0  0  0
  192.1130  177.8730  140.2800 C   0  0  0  0  0  2  0  0  0  0  0  0
  190.2290  176.9520  141.7400 C   0  0  0  0  0  2  0  0  0  0  0  0
  190.9300  177.1470  138.2320 C   0  0  0  0  0  2  0  0  0  0  0  0
  190.4370  176.1950  139.3100 C   0  0  1  0  0  3  0  0  0  0  0  0
  191.8870  176.7070  139.3190 C   0  0  2  0  0  3  0  0  0  0  0  0
  191.6600  177.5030  141.6900 C   0  0  0  0  0  2  0  0  0  0  0  0
  1 21  1  6  0  0  0
  1  4  1  0  0  0  0
  2  6  1  0  0  0  0
  3  7  1  0  0  0  0
  5  8  1  0  0  0  0
  5  3  1  0  0  0  0
  6 20  1  0  0  0  0
  7  9  1  0  0  0  0
  7  2  1  0  0  0  0
  8  1  1  0  0  0  0
  9  4  1  0  0  0  0
  9  2  1  0  0  0  0
  9  6  1  0  0  0  0
 10 19  2  0  0  0  0
 11 16  1  0  0  0  0
 12 14  1  0  0  0  0
 13 18  2  0  0  0  0
 14 10  1  0  0  0  0
 14 11  1  0  0  0  0
 15 17  1  0  0  0  0
 16 13  1  0  0  0  0
 17 11  1  0  0  0  0
 19 13  1  0  0  0  0
 20 12  1  0  0  0  0
 20 15  1  0  0  0  0
 21 22  1  0  0  0  0
 22 24  1  0  0  0  0
 23 28  1  0  0  0  0
 25 26  1  0  0  0  0
 25 27  1  0  0  0  0
 26 27  1  0  0  0  0
 26 22  1  0  0  0  0
 27 23  1  0  0  0  0
 28 24  1  0  0  0  0
M  END
>  <MODEL>
4

>  <REMARK>
 VINA RESULT:      -8.6      2.044      6.419
  Name = 
  3 active torsions:
  status: ('A' for Active; 'I' for Inactive)
    1  A    between atoms: C_1  and  O_2
    2  A    between atoms: O_2  and  C_3
    3  A    between atoms: C_20  and  C_25
                            x       y       z     vdW  Elec       q    Type
                         _______ _______ _______ _____ _____    ______ ____

>  <TORSDO>
F 3

$$$$
=
 OpenBabel10262420443D

 28 34  0  0  1  0  0  0  0  0999 V2000
  188.5300  177.8220  144.9230 C   0  0  1  0  0  3  0  0  0  0  0  0
  191.8910  177.7050  143.7030 C   0  0  2  0  0  3  0  0  0  0  0  0
  191.3950  176.7260  146.0180 C   0  0  0  0  0  2  0  0  0  0  0  0
  189.4810  178.2390  143.9530 O   0  0  0  0  0  0  0  0  0  0  0  0
  190.0380  176.7400  146.7890 C   0  0  0  0  0  2  0  0  0  0  0  0
  191.1110  176.7570  142.8230 C   0  0  1  0  0  3  0  0  0  0  0  0
  191.4190  177.8410  145.0920 N   0  0  2  0  0  0  0  0  0  0  0  0
  189.0490  177.8830  146.3960 C   0  0  0  0  0  2  0  0  0  0  0  0
  190.4980  177.3040  144.0940 C   0  0  1  0  0  0  0  0  0  0  0  0
  187.2010  178.1310  139.8340 C   0  0  0  0  0  3  0  0  0  0  0  0
  189.4150  177.4820  138.8820 C   0  0  1  0  0  3  0  0  0  0  0  0
  189.0450  177.4300  141.3600 C   0  0  0  0  0  2  0  0  0  0  0  0
  187.5860  178.3250  137.4260 C   0  0  0  0  0  0  0  0  0  0  0  0
  188.6870  178.1360  140.0600 C   0  0  2  0  0  3  0  0  0  0  0  0
  191.2060  176.7360  140.3600 N   0  0  0  0  0  2  0  0  0  0  0  0
  189.0780  178.2260  137.5910 C   0  0  0  0  0  2  0  0  0  0  0  0
  190.9130  177.5040  139.1510 C   0  0  0  0  0  2  0  0  0  0  0  0
  187.0950  178.4950  136.2810 O   0  0  0  0  0  0  0  0  0  0  0  0
  186.6960  178.2530  138.6020 C   0  0  0  0  0  3  0  0  0  0  0  0
  190.5770  177.3850  141.5150 C   0  0  2  0  0  3  0  0  0  0  0  0
  187.3800  178.6070  144.8020 O   0  0  0  0  0  0  0  0  0  0  0  0
  186.3370  177.6970  144.5790 C   0  0  2  0  0  3  0  0  0  0  0  0
  184.6220  179.8540  144.3300 C   0  0  0  0  0  2  0  0  0  0  0  0
  185.7550  177.8780  143.1720 C   0  0  0  0  0  2  0  0  0  0  0  0
  185.3190  179.0020  146.5460 C   0  0  0  0  0  2  0  0  0  0  0  0
  185.2440  177.7600  145.6710 C   0  0  1  0  0  3  0  0  0  0  0  0
  184.2500  178.9180  145.4800 C   0  0  2  0  0  3  0  0  0  0  0  0
  184.7970  179.0690  143.0330 C   0  0  0  0  0  2  0  0  0  0  0  0
  1 21  1  1  0  0  0
  1  8  1  0  0  0  0
  2  9  1  0  0  0  0
  2  7  1  0  0  0  0
  3  5  1  0  0  0  0
  4  9  1  0  0  0  0
  4  1  1  0  0  0  0
  6  2  1  0  0  0  0
  6  9  1  0  0  0  0
  7  3  1  0  0  0  0
  8  5  1  0  0  0  0
  9  7  1  0  0  0  0
 10 14  1  0  0  0  0
 11 17  1  0  0  0  0
 11 14  1  0  0  0  0
 12 20  1  0  0  0  0
 13 16  1  0  0  0  0
 13 19  1  0  0  0  0
 14 12  1  0  0  0  0
 15 20  1  0  0  0  0
 16 11  1  0  0  0  0
 17 15  1  0  0  0  0
 18 13  2  0  0  0  0
 19 10  2  0  0  0  0
 20  6  1  0  0  0  0
 22 21  1  0  0  0  0
 22 26  1  0  0  0  0
 23 27  1  0  0  0  0
 24 22  1  0  0  0  0
 26 25  1  0  0  0  0
 27 26  1  0  0  0  0
 27 25  1  0  0  0  0
 28 24  1  0  0  0  0
 28 23  1  0  0  0  0
M  END
>  <MODEL>
5

>  <REMARK>
 VINA RESULT:      -8.6      2.229      4.900
  Name = 
  3 active torsions:
  status: ('A' for Active; 'I' for Inactive)
    1  A    between atoms: C_1  and  O_2
    2  A    between atoms: O_2  and  C_3
    3  A    between atoms: C_20  and  C_25
                            x       y       z     vdW  Elec       q    Type
                         _______ _______ _______ _____ _____    ______ ____

>  <TORSDO>
F 3

$$$$
=
 OpenBabel10262420443D

 28 34  0  0  1  0  0  0  0  0999 V2000
  187.5540  177.8940  145.1190 C   0  0  1  0  0  3  0  0  0  0  0  0
  184.1730  178.2720  144.0130 C   0  0  2  0  0  3  0  0  0  0  0  0
  184.7810  179.0540  146.3750 C   0  0  0  0  0  2  0  0  0  0  0  0
  186.5560  177.5990  144.1510 O   0  0  0  0  0  0  0  0  0  0  0  0
  186.1550  178.9140  147.1020 C   0  0  0  0  0  2  0  0  0  0  0  0
  184.9790  179.2410  143.1800 C   0  0  1  0  0  3  0  0  0  0  0  0
  184.6740  178.0120  145.3730 N   0  0  2  0  0  0  0  0  0  0  0  0
  187.0710  177.7530  146.5990 C   0  0  0  0  0  2  0  0  0  0  0  0
  185.5950  178.5720  144.3890 C   0  0  1  0  0  0  0  0  0  0  0  0
  188.6520  178.5120  139.7030 C   0  0  0  0  0  3  0  0  0  0  0  0
  186.2530  178.7240  139.0500 C   0  0  1  0  0  3  0  0  0  0  0  0
  186.9260  178.9110  141.4570 C   0  0  0  0  0  2  0  0  0  0  0  0
  188.0000  178.1840  137.3680 C   0  0  0  0  0  0  0  0  0  0  0  0
  187.2350  178.2450  140.1240 C   0  0  2  0  0  3  0  0  0  0  0  0
  184.5630  179.1760  140.7500 N   0  0  0  0  0  2  0  0  0  0  0  0
  186.5500  178.0180  137.7290 C   0  0  0  0  0  2  0  0  0  0  0  0
  184.8310  178.4390  139.5160 C   0  0  0  0  0  2  0  0  0  0  0  0
  188.3610  178.0740  136.1680 O   0  0  0  0  0  0  0  0  0  0  0  0
  189.0070  178.4490  138.4150 C   0  0  0  0  0  3  0  0  0  0  0  0
  185.4440  178.6830  141.8140 C   0  0  2  0  0  3  0  0  0  0  0  0
  188.6560  177.0620  144.9090 O   0  0  0  0  0  0  0  0  0  0  0  0
  188.9660  177.2010  143.5480 C   0  0  2  0  0  3  0  0  0  0  0  0
  191.5840  176.5540  144.1640 C   0  0  0  0  0  2  0  0  0  0  0  0
  189.4370  175.8640  142.9620 C   0  0  0  0  0  2  0  0  0  0  0  0
  190.6940  178.8350  144.5220 C   0  0  0  0  0  2  0  0  0  0  0  0
  189.9750  178.3410  143.2770 C   0  0  1  0  0  3  0  0  0  0  0  0
  191.4360  177.9450  143.5490 C   0  0  2  0  0  3  0  0  0  0  0  0
  190.8910  175.5070  143.2960 C   0  0  0  0  0  2  0  0  0  0  0  0
  1 21  1  1  0  0  0
  1  8  1  0  0  0  0
  2  9  1  0  0  0  0
  2  7  1  0  0  0  0
  3  5  1  0  0  0  0
  4  9  1  0  0  0  0
  4  1  1  0  0  0  0
  6  2  1  0  0  0  0
  6  9  1  0  0  0  0
  7  3  1  0  0  0  0
  8  5  1  0  0  0  0
  9  7  1  0  0  0  0
 10 14  1  0  0  0  0
 11 17  1  0  0  0  0
 11 14  1  0  0  0  0
 12 20  1  0  0  0  0
 13 16  1  0  0  0  0
 13 19  1  0  0  0  0
 14 12  1  0  0  0  0
 15 20  1  0  0  0  0
 16 11  1  0  0  0  0
 17 15  1  0  0  0  0
 18 13  2  0  0  0  0
 19 10  2  0  0  0  0
 20  6  1  0  0  0  0
 22 21  1  0  0  0  0
 24 28  1  0  0  0  0
 24 22  1  0  0  0  0
 26 22  1  0  0  0  0
 26 27  1  0  0  0  0
 26 25  1  0  0  0  0
 27 23  1  0  0  0  0
 27 25  1  0  0  0  0
 28 23  1  0  0  0  0
M  END
>  <MODEL>
6

>  <REMARK>
 VINA RESULT:      -8.5      2.131      2.923
  Name = 
  3 active torsions:
  status: ('A' for Active; 'I' for Inactive)
    1  A    between atoms: C_1  and  O_2
    2  A    between atoms: O_2  and  C_3
    3  A    between atoms: C_20  and  C_25
                            x       y       z     vdW  Elec       q    Type
                         _______ _______ _______ _____ _____    ______ ____

>  <TORSDO>
F 3

$$$$
=
 OpenBabel10262420443D

 28 34  0  0  1  0  0  0  0  0999 V2000
  186.7490  178.2590  142.0330 C   0  0  1  0  0  3  0  0  0  0  0  0
  185.1220  179.3570  145.0250 C   0  0  2  0  0  3  0  0  0  0  0  0
  183.6770  178.7530  142.9970 C   0  0  0  0  0  2  0  0  0  0  0  0
  186.8550  178.8380  143.3260 O   0  0  0  0  0  0  0  0  0  0  0  0
  184.1580  178.3380  141.5720 C   0  0  0  0  0  2  0  0  0  0  0  0
  185.7130  178.0080  145.3610 C   0  0  1  0  0  3  0  0  0  0  0  0
  184.7090  179.5550  143.6250 N   0  0  2  0  0  0  0  0  0  0  0  0
  185.5830  178.8360  141.1680 C   0  0  0  0  0  2  0  0  0  0  0  0
  185.6530  178.4830  143.9250 C   0  0  1  0  0  0  0  0  0  0  0  0
  190.6140  176.5660  145.4700 C   0  0  0  0  0  3  0  0  0  0  0  0
  189.3780  177.1710  147.5520 C   0  0  1  0  0  3  0  0  0  0  0  0
  188.2100  177.2150  145.3350 C   0  0  0  0  0  2  0  0  0  0  0  0
  191.8080  176.6530  147.6030 C   0  0  0  0  0  0  0  0  0  0  0  0
  189.5350  177.4350  146.0510 C   0  0  2  0  0  3  0  0  0  0  0  0
  187.0110  177.7490  147.4400 N   0  0  0  0  0  2  0  0  0  0  0  0
  190.7040  177.4330  148.2620 C   0  0  0  0  0  2  0  0  0  0  0  0
  188.2760  178.0670  148.1010 C   0  0  0  0  0  2  0  0  0  0  0  0
  192.8510  176.3780  148.2500 O   0  0  0  0  0  0  0  0  0  0  0  0
  191.6880  176.2320  146.1930 C   0  0  0  0  0  3  0  0  0  0  0  0
  187.1140  178.0620  146.0110 C   0  0  2  0  0  3  0  0  0  0  0  0
  187.9590  178.4280  141.3550 O   0  0  0  0  0  0  0  0  0  0  0  0
  188.3200  177.1440  140.9230 C   0  0  2  0  0  3  0  0  0  0  0  0
  190.9420  178.0170  140.7910 C   0  0  0  0  0  2  0  0  0  0  0  0
  189.2560  176.4760  141.9380 C   0  0  0  0  0  2  0  0  0  0  0  0
  189.3180  178.5140  138.9910 C   0  0  0  0  0  2  0  0  0  0  0  0
  188.9130  177.1380  139.4950 C   0  0  1  0  0  3  0  0  0  0  0  0
  190.3940  177.5510  139.4430 C   0  0  2  0  0  3  0  0  0  0  0  0
  190.7120  176.9540  141.8620 C   0  0  0  0  0  2  0  0  0  0  0  0
  1 21  1  6  0  0  0
  1  4  1  0  0  0  0
  2  6  1  0  0  0  0
  3  7  1  0  0  0  0
  4  9  1  0  0  0  0
  5  3  1  0  0  0  0
  6 20  1  0  0  0  0
  7  9  1  0  0  0  0
  7  2  1  0  0  0  0
  8  5  1  0  0  0  0
  8  1  1  0  0  0  0
  9  2  1  0  0  0  0
  9  6  1  0  0  0  0
 10 14  1  0  0  0  0
 10 19  2  0  0  0  0
 11 17  1  0  0  0  0
 11 16  1  0  0  0  0
 12 20  1  0  0  0  0
 12 14  1  0  0  0  0
 13 18  2  0  0  0  0
 13 16  1  0  0  0  0
 14 11  1  0  0  0  0
 15 17  1  0  0  0  0
 19 13  1  0  0  0  0
 20 15  1  0  0  0  0
 22 21  1  0  0  0  0
 22 24  1  0  0  0  0
 23 28  1  0  0  0  0
 25 27  1  0  0  0  0
 25 26  1  0  0  0  0
 26 22  1  0  0  0  0
 27 26  1  0  0  0  0
 27 23  1  0  0  0  0
 28 24  1  0  0  0  0
M  END
>  <MODEL>
7

>  <REMARK>
 VINA RESULT:      -8.4      2.029      5.982
  Name = 
  3 active torsions:
  status: ('A' for Active; 'I' for Inactive)
    1  A    between atoms: C_1  and  O_2
    2  A    between atoms: O_2  and  C_3
    3  A    between atoms: C_20  and  C_25
                            x       y       z     vdW  Elec       q    Type
                         _______ _______ _______ _____ _____    ______ ____

>  <TORSDO>
F 3

$$$$
=
 OpenBabel10262420443D

 28 34  0  0  1  0  0  0  0  0999 V2000
  185.5750  178.4270  139.9180 C   0  0  1  0  0  3  0  0  0  0  0  0
  183.9800  179.1190  143.0440 C   0  0  2  0  0  3  0  0  0  0  0  0
  182.5160  178.4990  141.0350 C   0  0  0  0  0  2  0  0  0  0  0  0
  185.6770  178.9220  141.2460 O   0  0  0  0  0  0  0  0  0  0  0  0
  182.9730  178.2430  139.5650 C   0  0  0  0  0  2  0  0  0  0  0  0
  184.7310  177.8260  143.2540 C   0  0  1  0  0  3  0  0  0  0  0  0
  183.4810  179.3670  141.6800 N   0  0  2  0  0  0  0  0  0  0  0  0
  184.3130  178.9270  139.1440 C   0  0  0  0  0  2  0  0  0  0  0  0
  184.5520  178.3910  141.8620 C   0  0  1  0  0  0  0  0  0  0  0  0
  189.6920  176.6010  143.3280 C   0  0  0  0  0  3  0  0  0  0  0  0
  188.4910  177.3330  145.3890 C   0  0  1  0  0  3  0  0  0  0  0  0
  187.2590  177.1380  143.2160 C   0  0  0  0  0  2  0  0  0  0  0  0
  190.9420  176.9220  145.4060 C   0  0  0  0  0  0  0  0  0  0  0  0
  188.5930  177.4730  143.8670 C   0  0  2  0  0  3  0  0  0  0  0  0
  186.0990  177.8020  145.3050 N   0  0  0  0  0  2  0  0  0  0  0  0
  189.8240  177.7100  146.0320 C   0  0  0  0  0  2  0  0  0  0  0  0
  187.3670  178.2270  145.8950 C   0  0  0  0  0  2  0  0  0  0  0  0
  192.0140  176.7470  146.0400 O   0  0  0  0  0  0  0  0  0  0  0  0
  190.8000  176.3760  144.0410 C   0  0  0  0  0  3  0  0  0  0  0  0
  186.1470  177.9940  143.8520 C   0  0  2  0  0  3  0  0  0  0  0  0
  186.7260  178.7800  139.2080 O   0  0  0  0  0  0  0  0  0  0  0  0
  187.3350  177.5640  138.8680 C   0  0  2  0  0  3  0  0  0  0  0  0
  189.2110  179.0020  137.4310 C   0  0  0  0  0  2  0  0  0  0  0  0
  188.7550  177.4920  139.4420 C   0  0  0  0  0  2  0  0  0  0  0  0
  186.9710  178.5080  136.5040 C   0  0  0  0  0  2  0  0  0  0  0  0
  187.3090  177.2870  137.3460 C   0  0  1  0  0  3  0  0  0  0  0  0
  188.4060  178.0320  136.5680 C   0  0  2  0  0  3  0  0  0  0  0  0
  189.7990  178.2830  138.6420 C   0  0  0  0  0  2  0  0  0  0  0  0
  1 21  1  6  0  0  0
  1  4  1  0  0  0  0
  2  6  1  0  0  0  0
  3  7  1  0  0  0  0
  4  9  1  0  0  0  0
  5  3  1  0  0  0  0
  6 20  1  0  0  0  0
  7  9  1  0  0  0  0
  7  2  1  0  0  0  0
  8  5  1  0  0  0  0
  8  1  1  0  0  0  0
  9  2  1  0  0  0  0
  9  6  1  0  0  0  0
 10 14  1  0  0  0  0
 10 19  2  0  0  0  0
 11 17  1  0  0  0  0
 11 16  1  0  0  0  0
 12 20  1  0  0  0  0
 12 14  1  0  0  0  0
 13 16  1  0  0  0  0
 13 18  2  0  0  0  0
 14 11  1  0  0  0  0
 15 17  1  0  0  0  0
 19 13  1  0  0  0  0
 20 15  1  0  0  0  0
 22 21  1  0  0  0  0
 22 24  1  0  0  0  0
 23 28  1  0  0  0  0
 25 27  1  0  0  0  0
 25 26  1  0  0  0  0
 26 22  1  0  0  0  0
 27 26  1  0  0  0  0
 27 23  1  0  0  0  0
 28 24  1  0  0  0  0
M  END
>  <MODEL>
8

>  <REMARK>
 VINA RESULT:      -8.2      2.423      6.387
  Name = 
  3 active torsions:
  status: ('A' for Active; 'I' for Inactive)
    1  A    between atoms: C_1  and  O_2
    2  A    between atoms: O_2  and  C_3
    3  A    between atoms: C_20  and  C_25
                            x       y       z     vdW  Elec       q    Type
                         _______ _______ _______ _____ _____    ______ ____

>  <TORSDO>
F 3

$$$$
=
 OpenBabel10262420443D

 28 34  0  0  1  0  0  0  0  0999 V2000
  188.2280  177.9660  139.9500 C   0  0  1  0  0  3  0  0  0  0  0  0
  185.6790  179.2650  142.0980 C   0  0  2  0  0  3  0  0  0  0  0  0
  185.0310  178.5470  139.7260 C   0  0  0  0  0  2  0  0  0  0  0  0
  187.8850  178.6250  141.1610 O   0  0  0  0  0  0  0  0  0  0  0  0
  185.9740  178.0390  138.5920 C   0  0  0  0  0  2  0  0  0  0  0  0
  186.0700  177.9340  142.6970 C   0  0  1  0  0  3  0  0  0  0  0  0
  185.7960  179.3780  140.6340 N   0  0  2  0  0  0  0  0  0  0  0  0
  187.4640  178.4980  138.6940 C   0  0  0  0  0  2  0  0  0  0  0  0
  186.5390  178.3180  141.3110 C   0  0  1  0  0  0  0  0  0  0  0  0
  190.7200  176.7500  144.4560 C   0  0  0  0  0  3  0  0  0  0  0  0
  188.7960  177.1430  145.9960 C   0  0  1  0  0  3  0  0  0  0  0  0
  188.4720  177.2790  143.5150 C   0  0  0  0  0  2  0  0  0  0  0  0
  191.0870  176.7530  146.8740 C   0  0  0  0  0  0  0  0  0  0  0  0
  189.4450  177.5190  144.6600 C   0  0  2  0  0  3  0  0  0  0  0  0
  186.5800  177.6020  145.0860 N   0  0  0  0  0  2  0  0  0  0  0  0
  189.7690  177.4260  147.1390 C   0  0  0  0  0  2  0  0  0  0  0  0
  187.5090  177.9400  146.1630 C   0  0  0  0  0  2  0  0  0  0  0  0
  191.8570  176.4890  147.8330 O   0  0  0  0  0  0  0  0  0  0  0  0
  191.4970  176.4250  145.4940 C   0  0  0  0  0  3  0  0  0  0  0  0
  187.1500  178.0180  143.8010 C   0  0  2  0  0  3  0  0  0  0  0  0
  189.6040  178.0820  139.7400 O   0  0  0  0  0  0  0  0  0  0  0  0
  190.1420  176.8530  140.1470 C   0  0  2  0  0  3  0  0  0  0  0  0
  192.5640  177.6530  139.0750 C   0  0  0  0  0  2  0  0  0  0  0  0
  191.2500  177.0660  141.1860 C   0  0  0  0  0  2  0  0  0  0  0  0
  190.7510  176.7520  137.6510 C   0  0  0  0  0  2  0  0  0  0  0  0
  190.6210  175.9860  138.9590 C   0  0  1  0  0  3  0  0  0  0  0  0
  192.0030  176.3910  138.4210 C   0  0  2  0  0  3  0  0  0  0  0  0
  192.5960  177.5020  140.5930 C   0  0  0  0  0  2  0  0  0  0  0  0
  1 21  1  6  0  0  0
  1  4  1  0  0  0  0
  2  6  1  0  0  0  0
  3  7  1  0  0  0  0
  4  9  1  0  0  0  0
  5  8  1  0  0  0  0
  5  3  1  0  0  0  0
  6 20  1  0  0  0  0
  7  9  1  0  0  0  0
  7  2  1  0  0  0  0
  8  1  1  0  0  0  0
  9  2  1  0  0  0  0
  9  6  1  0  0  0  0
 10 14  1  0  0  0  0
 10 19  2  0  0  0  0
 11 17  1  0  0  0  0
 11 16  1  0  0  0  0
 12 20  1  0  0  0  0
 12 14  1  0  0  0  0
 13 16  1  0  0  0  0
 13 18  2  0  0  0  0
 14 11  1  0  0  0  0
 15 17  1  0  0  0  0
 19 13  1  0  0  0  0
 20 15  1  0  0  0  0
 21 22  1  0  0  0  0
 22 24  1  0  0  0  0
 23 28  1  0  0  0  0
 25 27  1  0  0  0  0
 25 26  1  0  0  0  0
 26 22  1  0  0  0  0
 27 26  1  0  0  0  0
 27 23  1  0  0  0  0
 28 24  1  0  0  0  0
M  END
>  <MODEL>
9

>  <REMARK>
 VINA RESULT:      -8.1      1.725      5.994
  Name = 
  3 active torsions:
  status: ('A' for Active; 'I' for Inactive)
    1  A    between atoms: C_1  and  O_2
    2  A    between atoms: O_2  and  C_3
    3  A    between atoms: C_20  and  C_25
                            x       y       z     vdW  Elec       q    Type
                         _______ _______ _______ _____ _____    ______ ____

>  <TORSDO>
F 3

$$$$
