=
 OpenBabel10262419293D

 31 35  0  0  1  0  0  0  0  0999 V2000
  185.1710  179.0900  143.2180 C   0  0  0  0  0  0  0  0  0  0  0  0
  188.4990  177.2060  143.6330 C   0  0  1  0  0  3  0  0  0  0  0  0
  188.7920  177.3600  145.1220 C   0  0  0  0  0  0  0  0  0  0  0  0
  189.2550  176.5480  138.4770 O   0  0  0  0  0  0  0  0  0  0  0  0
  190.3690  176.4150  139.0520 C   0  0  0  0  0  0  0  0  0  0  0  0
  188.0080  177.3850  147.4290 C   0  0  0  0  0  0  0  0  0  0  0  0
  187.3220  177.9680  143.0480 C   0  0  0  0  0  0  0  0  0  0  0  0
  185.0910  179.1620  141.8260 C   0  0  0  0  0  3  0  0  0  0  0  0
  187.7450  177.3530  146.0580 C   0  0  0  0  0  3  0  0  0  0  0  0
  189.4490  177.1850  141.3140 C   0  0  0  0  0  0  0  0  0  0  0  0
  183.8800  179.7390  144.2050 Cl  0  0  0  0  0  0  0  0  0  0  0  0
  191.3030  177.2440  144.6670 C   0  0  0  0  0  2  0  0  0  0  0  0
  186.9820  177.4040  148.3140 F   0  0  0  0  0  0  0  0  0  0  0  0
  188.2910  177.5260  140.8230 N   0  0  0  0  0  0  0  0  0  0  0  0
  189.7440  177.4600  142.7680 C   0  0  2  0  0  3  0  0  0  0  0  0
  190.4930  176.7060  140.4520 N   0  0  0  0  0  2  0  0  0  0  0  0
  186.2740  178.4850  143.8250 C   0  0  0  0  0  3  0  0  0  0  0  0
  189.3250  177.3880  147.8870 C   0  0  0  0  0  3  0  0  0  0  0  0
  187.2320  178.0460  141.6420 C   0  0  0  0  0  0  0  0  0  0  0  0
  186.1190  178.6380  141.0380 C   0  0  0  0  0  3  0  0  0  0  0  0
  190.9250  176.6690  143.3070 C   0  0  0  0  0  2  0  0  0  0  0  0
  190.1260  177.3020  145.6000 C   0  0  0  0  0  0  0  0  0  0  0  0
  190.3790  177.3430  146.9750 C   0  0  0  0  0  3  0  0  0  0  0  0
  193.8940  175.2160  136.9530 C   0  0  0  0  0  0  0  0  0  0  0  0
  192.7570  176.6720  138.4390 C   0  0  0  0  0  3  0  0  0  0  0  0
  190.3550  173.9780  137.2100 C   0  0  0  0  0  1  0  0  0  0  0  0
  195.1430  174.8360  136.2440 C   0  0  0  0  0  1  0  0  0  0  0  0
  193.8820  176.2970  137.7750 N   0  0  0  0  0  0  0  0  0  0  0  0
  191.5640  174.8230  137.4430 C   0  0  0  0  0  0  0  0  0  0  0  0
  191.5620  175.9520  138.2980 C   0  0  0  0  0  0  0  0  0  0  0  0
  192.7350  174.4620  136.7740 C   0  0  0  0  0  3  0  0  0  0  0  0
  1 17  1  0  0  0  0
  1 11  1  0  0  0  0
  2  7  1  6  0  0  0
  2  3  1  0  0  0  0
  3 22  2  0  0  0  0
  3  9  1  0  0  0  0
  4  5  2  0  0  0  0
  5 16  1  0  0  0  0
  6 18  1  0  0  0  0
  6 13  1  0  0  0  0
  7 17  2  0  0  0  0
  8  1  2  0  0  0  0
  9  6  2  0  0  0  0
 10 15  1  0  0  0  0
 12 22  1  0  0  0  0
 14 10  2  0  0  0  0
 14 19  1  0  0  0  0
 15 21  1  1  0  0  0
 15  2  1  0  0  0  0
 16 10  1  0  0  0  0
 19  7  1  0  0  0  0
 20 19  2  0  0  0  0
 20  8  1  0  0  0  0
 21 12  1  0  0  0  0
 22 23  1  0  0  0  0
 23 18  2  0  0  0  0
 24 28  1  0  0  0  0
 26 29  1  0  0  0  0
 27 24  1  0  0  0  0
 28 25  2  0  0  0  0
 29 30  2  0  0  0  0
 30 25  1  0  0  0  0
 30  5  1  0  0  0  0
 31 24  2  0  0  0  0
 31 29  1  0  0  0  0
M  END
>  <MODEL>
1

>  <REMARK>
 VINA RESULT:     -11.3      0.000      0.000
  Name = 
  1 active torsions:
  status: ('A' for Active; 'I' for Inactive)
    1  A    between atoms: C_9  and  C_22
                            x       y       z     vdW  Elec       q    Type
                         _______ _______ _______ _____ _____    ______ ____

>  <TORSDO>
F 1

$$$$
=
 OpenBabel10262419293D

 31 35  0  0  1  0  0  0  0  0999 V2000
  186.8520  178.1450  146.9710 C   0  0  0  0  0  0  0  0  0  0  0  0
  187.4340  177.5330  143.2190 C   0  0  1  0  0  3  0  0  0  0  0  0
  188.9500  177.3960  143.1290 C   0  0  0  0  0  0  0  0  0  0  0  0
  182.4600  178.5260  141.8540 O   0  0  0  0  0  0  0  0  0  0  0  0
  183.1770  178.6570  140.8260 C   0  0  0  0  0  0  0  0  0  0  0  0
  191.0440  176.5500  144.0460 C   0  0  0  0  0  0  0  0  0  0  0  0
  186.8250  177.9470  144.5480 C   0  0  0  0  0  0  0  0  0  0  0  0
  185.5110  178.5370  146.9610 C   0  0  0  0  0  3  0  0  0  0  0  0
  189.6720  176.7770  144.1640 C   0  0  0  0  0  3  0  0  0  0  0  0
  185.3570  178.4440  142.1520 C   0  0  0  0  0  0  0  0  0  0  0  0
  187.7150  178.0170  148.4880 Cl  0  0  0  0  0  0  0  0  0  0  0  0
  188.9170  178.3020  140.7410 C   0  0  0  0  0  2  0  0  0  0  0  0
  191.7250  175.9750  145.0670 F   0  0  0  0  0  0  0  0  0  0  0  0
  184.7560  178.4630  143.3080 N   0  0  0  0  0  0  0  0  0  0  0  0
  186.8650  178.4250  142.1040 C   0  0  2  0  0  3  0  0  0  0  0  0
  184.6070  178.6040  140.9380 N   0  0  0  0  0  2  0  0  0  0  0  0
  187.5010  177.8400  145.7730 C   0  0  0  0  0  3  0  0  0  0  0  0
  191.7110  176.9040  142.8740 C   0  0  0  0  0  3  0  0  0  0  0  0
  185.4710  178.3440  144.5480 C   0  0  0  0  0  0  0  0  0  0  0  0
  184.8210  178.6340  145.7500 C   0  0  0  0  0  3  0  0  0  0  0  0
  187.4250  177.9970  140.7560 C   0  0  0  0  0  2  0  0  0  0  0  0
  189.6270  177.6970  141.9200 C   0  0  0  0  0  0  0  0  0  0  0  0
  191.0040  177.4730  141.8140 C   0  0  0  0  0  3  0  0  0  0  0  0
  181.3900  179.4100  137.0170 C   0  0  0  0  0  0  0  0  0  0  0  0
  182.1960  180.1600  139.1160 C   0  0  0  0  0  3  0  0  0  0  0  0
  182.6560  176.3840  138.8520 C   0  0  0  0  0  1  0  0  0  0  0  0
  180.7670  179.7180  135.7040 C   0  0  0  0  0  1  0  0  0  0  0  0
  181.6280  180.4070  137.9070 N   0  0  0  0  0  0  0  0  0  0  0  0
  182.3160  177.8100  138.5700 C   0  0  0  0  0  0  0  0  0  0  0  0
  182.5600  178.8580  139.4900 C   0  0  0  0  0  0  0  0  0  0  0  0
  181.7300  178.0950  137.3350 C   0  0  0  0  0  3  0  0  0  0  0  0
  1 11  1  0  0  0  0
  2  3  1  1  0  0  0
  2  7  1  0  0  0  0
  3  9  1  0  0  0  0
  5 16  1  0  0  0  0
  5  4  2  0  0  0  0
  6  9  2  0  0  0  0
  6 13  1  0  0  0  0
  7 17  1  0  0  0  0
  8  1  1  0  0  0  0
 10 14  2  0  0  0  0
 12 21  1  0  0  0  0
 12 22  1  0  0  0  0
 14 19  1  0  0  0  0
 15 21  1  6  0  0  0
 15 10  1  0  0  0  0
 15  2  1  0  0  0  0
 16 10  1  0  0  0  0
 17  1  2  0  0  0  0
 18  6  1  0  0  0  0
 19  7  2  0  0  0  0
 19 20  1  0  0  0  0
 20  8  2  0  0  0  0
 22  3  2  0  0  0  0
 23 22  1  0  0  0  0
 23 18  2  0  0  0  0
 24 31  2  0  0  0  0
 24 28  1  0  0  0  0
 25 30  1  0  0  0  0
 27 24  1  0  0  0  0
 28 25  2  0  0  0  0
 29 26  1  0  0  0  0
 29 30  2  0  0  0  0
 30  5  1  0  0  0  0
 31 29  1  0  0  0  0
M  END
>  <MODEL>
2

>  <REMARK>
 VINA RESULT:     -11.3      4.203      7.188
  Name = 
  1 active torsions:
  status: ('A' for Active; 'I' for Inactive)
    1  A    between atoms: C_9  and  C_22
                            x       y       z     vdW  Elec       q    Type
                         _______ _______ _______ _____ _____    ______ ____

>  <TORSDO>
F 1

$$$$
=
 OpenBabel10262419293D

 31 35  0  0  1  0  0  0  0  0999 V2000
  184.8540  178.7240  143.9990 C   0  0  0  0  0  0  0  0  0  0  0  0
  188.4130  177.2670  143.9200 C   0  0  1  0  0  3  0  0  0  0  0  0
  188.8680  177.4060  145.3690 C   0  0  0  0  0  0  0  0  0  0  0  0
  188.5960  176.8880  138.6850 O   0  0  0  0  0  0  0  0  0  0  0  0
  189.7800  176.8790  139.1150 C   0  0  0  0  0  0  0  0  0  0  0  0
  188.3800  177.2520  147.7520 C   0  0  0  0  0  0  0  0  0  0  0  0
  187.0880  177.8920  143.5180 C   0  0  0  0  0  0  0  0  0  0  0  0
  184.5930  178.8330  142.6320 C   0  0  0  0  0  3  0  0  0  0  0  0
  187.9550  177.2330  146.4220 C   0  0  0  0  0  3  0  0  0  0  0  0
  189.0620  177.4470  141.5060 C   0  0  0  0  0  0  0  0  0  0  0  0
  183.6260  179.1690  145.1640 Cl  0  0  0  0  0  0  0  0  0  0  0  0
  191.2980  177.6270  144.6130 C   0  0  0  0  0  2  0  0  0  0  0  0
  187.4780  177.1090  148.7530 F   0  0  0  0  0  0  0  0  0  0  0  0
  187.8190  177.6540  141.1740 N   0  0  0  0  0  0  0  0  0  0  0  0
  189.5000  177.7070  142.9260 C   0  0  2  0  0  3  0  0  0  0  0  0
  190.0410  177.1340  140.5040 N   0  0  0  0  0  2  0  0  0  0  0  0
  186.0900  178.2450  144.4400 C   0  0  0  0  0  3  0  0  0  0  0  0
  189.7330  177.4060  148.0490 C   0  0  0  0  0  3  0  0  0  0  0  0
  186.8140  178.0060  142.1390 C   0  0  0  0  0  0  0  0  0  0  0  0
  185.5710  178.4720  141.7020 C   0  0  0  0  0  3  0  0  0  0  0  0
  190.8270  177.0550  143.2810 C   0  0  0  0  0  2  0  0  0  0  0  0
  190.2480  177.5020  145.6810 C   0  0  0  0  0  0  0  0  0  0  0  0
  190.6640  177.5280  147.0170 C   0  0  0  0  0  3  0  0  0  0  0  0
  192.9370  176.0260  136.3620 C   0  0  0  0  0  0  0  0  0  0  0  0
  190.6320  176.1500  136.9040 C   0  0  0  0  0  3  0  0  0  0  0  0
  192.7080  177.2230  139.9170 C   0  0  0  0  0  1  0  0  0  0  0  0
  194.0010  175.7180  135.3720 C   0  0  0  0  0  1  0  0  0  0  0  0
  191.6310  175.8780  136.0230 N   0  0  0  0  0  0  0  0  0  0  0  0
  192.2770  176.7560  138.5660 C   0  0  0  0  0  0  0  0  0  0  0  0
  190.9180  176.5980  138.2020 C   0  0  0  0  0  0  0  0  0  0  0  0
  193.2810  176.4670  137.6390 C   0  0  0  0  0  3  0  0  0  0  0  0
  1 17  1  0  0  0  0
  1 11  1  0  0  0  0
  2  7  1  1  0  0  0
  2  3  1  0  0  0  0
  3 22  2  0  0  0  0
  3  9  1  0  0  0  0
  4  5  2  0  0  0  0
  5 16  1  0  0  0  0
  6 18  1  0  0  0  0
  6 13  1  0  0  0  0
  7 17  2  0  0  0  0
  8  1  2  0  0  0  0
  9  6  2  0  0  0  0
 10 15  1  0  0  0  0
 12 22  1  0  0  0  0
 14 10  2  0  0  0  0
 14 19  1  0  0  0  0
 15 21  1  1  0  0  0
 15  2  1  0  0  0  0
 16 10  1  0  0  0  0
 19  7  1  0  0  0  0
 20 19  2  0  0  0  0
 20  8  1  0  0  0  0
 21 12  1  0  0  0  0
 22 23  1  0  0  0  0
 23 18  2  0  0  0  0
 24 31  1  0  0  0  0
 25 30  2  0  0  0  0
 27 24  1  0  0  0  0
 28 24  2  0  0  0  0
 28 25  1  0  0  0  0
 29 26  1  0  0  0  0
 30 29  1  0  0  0  0
 30  5  1  0  0  0  0
 31 29  2  0  0  0  0
M  END
>  <MODEL>
3

>  <REMARK>
 VINA RESULT:     -10.8      1.039      1.440
  Name = 
  1 active torsions:
  status: ('A' for Active; 'I' for Inactive)
    1  A    between atoms: C_9  and  C_22
                            x       y       z     vdW  Elec       q    Type
                         _______ _______ _______ _____ _____    ______ ____

>  <TORSDO>
F 1

$$$$
=
 OpenBabel10262419293D

 31 35  0  0  1  0  0  0  0  0999 V2000
  191.7020  175.7480  146.3520 C   0  0  0  0  0  0  0  0  0  0  0  0
  188.8220  177.6010  144.6000 C   0  0  1  0  0  3  0  0  0  0  0  0
  187.8380  177.8500  145.7380 C   0  0  0  0  0  0  0  0  0  0  0  0
  190.7020  176.8160  139.7580 O   0  0  0  0  0  0  0  0  0  0  0  0
  189.4730  177.0760  139.6590 C   0  0  0  0  0  0  0  0  0  0  0  0
  187.4160  178.4700  148.0560 C   0  0  0  0  0  0  0  0  0  0  0  0
  190.0390  176.7340  144.8770 C   0  0  0  0  0  0  0  0  0  0  0  0
  192.4280  175.3020  145.2460 C   0  0  0  0  0  3  0  0  0  0  0  0
  188.3030  178.1350  147.0320 C   0  0  0  0  0  3  0  0  0  0  0  0
  189.1050  176.9700  142.1900 C   0  0  0  0  0  0  0  0  0  0  0  0
  192.2800  175.4200  147.9700 Cl  0  0  0  0  0  0  0  0  0  0  0  0
  185.8820  177.7840  144.0960 C   0  0  0  0  0  2  0  0  0  0  0  0
  187.8850  178.7150  149.3040 F   0  0  0  0  0  0  0  0  0  0  0  0
  190.3090  176.5340  142.4330 N   0  0  0  0  0  0  0  0  0  0  0  0
  188.1210  177.0940  143.3280 C   0  0  2  0  0  3  0  0  0  0  0  0
  188.6630  177.1750  140.8400 N   0  0  0  0  0  2  0  0  0  0  0  0
  190.5210  176.4710  146.1680 C   0  0  0  0  0  3  0  0  0  0  0  0
  186.0500  178.5640  147.7930 C   0  0  0  0  0  3  0  0  0  0  0  0
  190.7800  176.2790  143.7650 C   0  0  0  0  0  0  0  0  0  0  0  0
  191.9690  175.5690  143.9540 C   0  0  0  0  0  3  0  0  0  0  0  0
  186.9260  177.9760  143.0040 C   0  0  0  0  0  2  0  0  0  0  0  0
  186.4540  178.0070  145.4680 C   0  0  0  0  0  0  0  0  0  0  0  0
  185.5720  178.3360  146.5020 C   0  0  0  0  0  3  0  0  0  0  0  0
  187.6170  177.8520  135.8880 C   0  0  0  0  0  0  0  0  0  0  0  0
  188.1550  178.4910  138.1070 C   0  0  0  0  0  3  0  0  0  0  0  0
  189.6140  175.0430  137.3840 C   0  0  0  0  0  1  0  0  0  0  0  0
  186.9570  178.1640  134.5940 C   0  0  0  0  0  1  0  0  0  0  0  0
  187.5630  178.7440  136.9100 N   0  0  0  0  0  0  0  0  0  0  0  0
  188.9090  176.3540  137.2690 C   0  0  0  0  0  0  0  0  0  0  0  0
  188.8470  177.2910  138.3290 C   0  0  0  0  0  0  0  0  0  0  0  0
  188.2900  176.6420  136.0520 C   0  0  0  0  0  3  0  0  0  0  0  0
  1 11  1  0  0  0  0
  2  7  1  1  0  0  0
  2  3  1  0  0  0  0
  3  9  1  0  0  0  0
  5  4  2  0  0  0  0
  5 16  1  0  0  0  0
  6 13  1  0  0  0  0
  7 17  2  0  0  0  0
  8  1  2  0  0  0  0
  9  6  2  0  0  0  0
 10 14  2  0  0  0  0
 10 15  1  0  0  0  0
 12 22  1  0  0  0  0
 14 19  1  0  0  0  0
 15 21  1  6  0  0  0
 15  2  1  0  0  0  0
 16 10  1  0  0  0  0
 17  1  1  0  0  0  0
 18  6  1  0  0  0  0
 19 20  2  0  0  0  0
 19  7  1  0  0  0  0
 20  8  1  0  0  0  0
 21 12  1  0  0  0  0
 22  3  2  0  0  0  0
 22 23  1  0  0  0  0
 23 18  2  0  0  0  0
 24 31  2  0  0  0  0
 24 28  1  0  0  0  0
 25 30  1  0  0  0  0
 27 24  1  0  0  0  0
 28 25  2  0  0  0  0
 29 26  1  0  0  0  0
 29 30  2  0  0  0  0
 30  5  1  0  0  0  0
 31 29  1  0  0  0  0
M  END
>  <MODEL>
4

>  <REMARK>
 VINA RESULT:     -10.6      2.911      4.865
  Name = 
  1 active torsions:
  status: ('A' for Active; 'I' for Inactive)
    1  A    between atoms: C_9  and  C_22
                            x       y       z     vdW  Elec       q    Type
                         _______ _______ _______ _____ _____    ______ ____

>  <TORSDO>
F 1

$$$$
=
 OpenBabel10262419293D

 31 35  0  0  1  0  0  0  0  0999 V2000
  187.9260  178.0560  147.3300 C   0  0  0  0  0  0  0  0  0  0  0  0
  187.3310  177.5400  143.5650 C   0  0  1  0  0  3  0  0  0  0  0  0
  188.7450  177.3790  143.0180 C   0  0  0  0  0  0  0  0  0  0  0  0
  182.2040  178.6570  143.7940 O   0  0  0  0  0  0  0  0  0  0  0  0
  182.5790  178.8050  142.6000 C   0  0  0  0  0  0  0  0  0  0  0  0
  190.9950  176.4710  143.2380 C   0  0  0  0  0  0  0  0  0  0  0  0
  187.1630  177.9270  145.0250 C   0  0  0  0  0  0  0  0  0  0  0  0
  186.6560  178.4710  147.7350 C   0  0  0  0  0  3  0  0  0  0  0  0
  189.7300  176.7190  143.7710 C   0  0  0  0  0  3  0  0  0  0  0  0
  185.0520  178.5170  143.1980 C   0  0  0  0  0  0  0  0  0  0  0  0
  189.2040  177.8700  148.5110 Cl  0  0  0  0  0  0  0  0  0  0  0  0
  188.0140  178.3530  140.7720 C   0  0  0  0  0  2  0  0  0  0  0  0
  191.9390  175.8560  143.9920 F   0  0  0  0  0  0  0  0  0  0  0  0
  184.8290  178.5130  144.4820 N   0  0  0  0  0  0  0  0  0  0  0  0
  186.4740  178.4730  142.6950 C   0  0  2  0  0  3  0  0  0  0  0  0
  183.9740  178.7240  142.2720 N   0  0  0  0  0  2  0  0  0  0  0  0
  188.1750  177.7740  145.9850 C   0  0  0  0  0  3  0  0  0  0  0  0
  191.2860  176.8470  141.9270 C   0  0  0  0  0  3  0  0  0  0  0  0
  185.8820  178.3470  145.4440 C   0  0  0  0  0  0  0  0  0  0  0  0
  185.6340  178.6140  146.7930 C   0  0  0  0  0  3  0  0  0  0  0  0
  186.5880  178.0740  141.2320 C   0  0  0  0  0  2  0  0  0  0  0  0
  189.0310  177.7020  141.6670 C   0  0  0  0  0  0  0  0  0  0  0  0
  190.3050  177.4570  141.1440 C   0  0  0  0  0  3  0  0  0  0  0  0
  179.8480  179.4460  139.3750 C   0  0  0  0  0  0  0  0  0  0  0  0
  181.9130  178.6400  140.2180 C   0  0  0  0  0  3  0  0  0  0  0  0
  179.8870  180.1720  143.0620 C   0  0  0  0  0  1  0  0  0  0  0  0
  178.9310  179.6480  138.2240 C   0  0  0  0  0  1  0  0  0  0  0  0
  181.0490  178.8410  139.1880 N   0  0  0  0  0  0  0  0  0  0  0  0
  180.3410  179.6860  141.7260 C   0  0  0  0  0  0  0  0  0  0  0  0
  181.5920  179.0540  141.5190 C   0  0  0  0  0  0  0  0  0  0  0  0
  179.4760  179.8790  140.6470 C   0  0  0  0  0  3  0  0  0  0  0  0
  1  8  1  0  0  0  0
  1 11  1  0  0  0  0
  2  3  1  6  0  0  0
  2  7  1  0  0  0  0
  3  9  1  0  0  0  0
  5  4  2  0  0  0  0
  6  9  2  0  0  0  0
  6 13  1  0  0  0  0
  7 19  2  0  0  0  0
  7 17  1  0  0  0  0
 10 14  2  0  0  0  0
 12 21  1  0  0  0  0
 12 22  1  0  0  0  0
 14 19  1  0  0  0  0
 15 21  1  6  0  0  0
 15 10  1  0  0  0  0
 15  2  1  0  0  0  0
 16  5  1  0  0  0  0
 16 10  1  0  0  0  0
 17  1  2  0  0  0  0
 18  6  1  0  0  0  0
 19 20  1  0  0  0  0
 20  8  2  0  0  0  0
 22  3  2  0  0  0  0
 23 22  1  0  0  0  0
 23 18  2  0  0  0  0
 24 31  1  0  0  0  0
 25 30  2  0  0  0  0
 27 24  1  0  0  0  0
 28 24  2  0  0  0  0
 28 25  1  0  0  0  0
 29 26  1  0  0  0  0
 30 29  1  0  0  0  0
 30  5  1  0  0  0  0
 31 29  2  0  0  0  0
M  END
>  <MODEL>
5

>  <REMARK>
 VINA RESULT:     -10.4      4.401      8.386
  Name = 
  1 active torsions:
  status: ('A' for Active; 'I' for Inactive)
    1  A    between atoms: C_9  and  C_22
                            x       y       z     vdW  Elec       q    Type
                         _______ _______ _______ _____ _____    ______ ____

>  <TORSDO>
F 1

$$$$
=
 OpenBabel10262419293D

 31 35  0  0  1  0  0  0  0  0999 V2000
  191.4120  177.2380  140.0410 C   0  0  0  0  0  0  0  0  0  0  0  0
  188.4650  178.2520  142.2950 C   0  0  1  0  0  3  0  0  0  0  0  0
  188.9460  177.8450  143.6850 C   0  0  0  0  0  0  0  0  0  0  0  0
  185.2480  179.3780  138.2990 O   0  0  0  0  0  0  0  0  0  0  0  0
  184.5400  179.1820  139.3230 C   0  0  0  0  0  0  0  0  0  0  0  0
  190.7340  177.7020  145.3330 C   0  0  0  0  0  0  0  0  0  0  0  0
  189.3110  177.8570  141.0960 C   0  0  0  0  0  0  0  0  0  0  0  0
  190.8250  177.3650  138.7810 C   0  0  0  0  0  3  0  0  0  0  0  0
  190.3010  177.9690  144.0340 C   0  0  0  0  0  3  0  0  0  0  0  0
  186.5280  178.3550  140.7080 C   0  0  0  0  0  0  0  0  0  0  0  0
  193.0940  176.7760  140.1810 Cl  0  0  0  0  0  0  0  0  0  0  0  0
  186.5350  177.4490  144.4320 C   0  0  0  0  0  2  0  0  0  0  0  0
  192.0500  177.8020  145.6410 F   0  0  0  0  0  0  0  0  0  0  0  0
  187.3440  178.3510  139.6920 N   0  0  0  0  0  0  0  0  0  0  0  0
  187.0060  177.8370  142.0420 C   0  0  2  0  0  3  0  0  0  0  0  0
  185.1440  178.6930  140.5300 N   0  0  0  0  0  2  0  0  0  0  0  0
  190.6630  177.4950  141.1920 C   0  0  0  0  0  3  0  0  0  0  0  0
  189.8130  177.3440  146.3160 C   0  0  0  0  0  3  0  0  0  0  0  0
  188.7260  177.9830  139.8180 C   0  0  0  0  0  0  0  0  0  0  0  0
  189.4840  177.7400  138.6690 C   0  0  0  0  0  3  0  0  0  0  0  0
  186.1320  178.2650  143.2100 C   0  0  0  0  0  2  0  0  0  0  0  0
  188.0110  177.5390  144.7060 C   0  0  0  0  0  0  0  0  0  0  0  0
  188.4560  177.2660  146.0030 C   0  0  0  0  0  3  0  0  0  0  0  0
  180.3740  180.1320  139.1930 C   0  0  0  0  0  0  0  0  0  0  0  0
  182.6470  180.7100  138.8450 C   0  0  0  0  0  3  0  0  0  0  0  0
  182.4320  177.1590  140.2150 C   0  0  0  0  0  1  0  0  0  0  0  0
  178.9380  180.5060  139.1310 C   0  0  0  0  0  1  0  0  0  0  0  0
  181.3240  181.0190  138.8020 N   0  0  0  0  0  0  0  0  0  0  0  0
  182.0970  178.5230  139.7110 C   0  0  0  0  0  0  0  0  0  0  0  0
  183.0800  179.4560  139.3000 C   0  0  0  0  0  0  0  0  0  0  0  0
  180.7460  178.8700  139.6550 C   0  0  0  0  0  3  0  0  0  0  0  0
  1 11  1  0  0  0  0
  1 17  1  0  0  0  0
  2  7  1  6  0  0  0
  2  3  1  0  0  0  0
  3  9  2  0  0  0  0
  3 22  1  0  0  0  0
  4  5  2  0  0  0  0
  5 16  1  0  0  0  0
  6 13  1  0  0  0  0
  6 18  2  0  0  0  0
  7 17  2  0  0  0  0
  8  1  2  0  0  0  0
  9  6  1  0  0  0  0
 10 15  1  0  0  0  0
 12 22  1  0  0  0  0
 14 19  1  0  0  0  0
 14 10  2  0  0  0  0
 15  2  1  0  0  0  0
 15 21  1  1  0  0  0
 16 10  1  0  0  0  0
 19  7  1  0  0  0  0
 20  8  1  0  0  0  0
 20 19  2  0  0  0  0
 21 12  1  0  0  0  0
 22 23  2  0  0  0  0
 23 18  1  0  0  0  0
 24 31  1  0  0  0  0
 25 30  2  0  0  0  0
 27 24  1  0  0  0  0
 28 25  1  0  0  0  0
 28 24  2  0  0  0  0
 29 26  1  0  0  0  0
 30  5  1  0  0  0  0
 30 29  1  0  0  0  0
 31 29  2  0  0  0  0
M  END
>  <MODEL>
6

>  <REMARK>
 VINA RESULT:      -9.6      3.722      7.556
  Name = 
  1 active torsions:
  status: ('A' for Active; 'I' for Inactive)
    1  A    between atoms: C_9  and  C_22
                            x       y       z     vdW  Elec       q    Type
                         _______ _______ _______ _____ _____    ______ ____

>  <TORSDO>
F 1

$$$$
=
 OpenBabel10262419293D

 31 35  0  0  1  0  0  0  0  0999 V2000
  190.2170  176.8890  142.4390 C   0  0  0  0  0  0  0  0  0  0  0  0
  186.8870  178.5250  143.4550 C   0  0  1  0  0  3  0  0  0  0  0  0
  186.8350  178.2810  144.9590 C   0  0  0  0  0  0  0  0  0  0  0  0
  185.3140  179.3780  138.5170 O   0  0  0  0  0  0  0  0  0  0  0  0
  184.2960  179.4090  139.2580 C   0  0  0  0  0  0  0  0  0  0  0  0
  187.9640  178.1980  147.1180 C   0  0  0  0  0  0  0  0  0  0  0  0
  188.0040  177.8720  142.6570 C   0  0  0  0  0  0  0  0  0  0  0  0
  190.0870  176.8890  141.0480 C   0  0  0  0  0  3  0  0  0  0  0  0
  188.0110  178.3130  145.7270 C   0  0  0  0  0  3  0  0  0  0  0  0
  185.5940  178.5940  141.3090 C   0  0  0  0  0  0  0  0  0  0  0  0
  191.6790  176.2800  143.1820 Cl  0  0  0  0  0  0  0  0  0  0  0  0
  184.2820  178.2530  144.8930 C   0  0  0  0  0  2  0  0  0  0  0  0
  189.1120  178.2050  147.8360 F   0  0  0  0  0  0  0  0  0  0  0  0
  186.6810  178.3550  140.6310 N   0  0  0  0  0  0  0  0  0  0  0  0
  185.5410  178.2320  142.7720 C   0  0  2  0  0  3  0  0  0  0  0  0
  184.4050  179.0450  140.6430 N   0  0  0  0  0  2  0  0  0  0  0  0
  189.1860  177.3890  143.2380 C   0  0  0  0  0  3  0  0  0  0  0  0
  186.7350  178.0860  147.7670 C   0  0  0  0  0  3  0  0  0  0  0  0
  187.8820  177.8680  141.2510 C   0  0  0  0  0  0  0  0  0  0  0  0
  188.9220  177.3800  140.4550 C   0  0  0  0  0  3  0  0  0  0  0  0
  184.4130  178.9160  143.5270 C   0  0  0  0  0  2  0  0  0  0  0  0
  185.5890  178.2280  145.6340 C   0  0  0  0  0  0  0  0  0  0  0  0
  185.5520  178.1050  147.0270 C   0  0  0  0  0  3  0  0  0  0  0  0
  180.5430  180.7820  137.7410 C   0  0  0  0  0  0  0  0  0  0  0  0
  182.6630  181.1950  138.7190 C   0  0  0  0  0  3  0  0  0  0  0  0
  182.2300  177.4490  138.1520 C   0  0  0  0  0  1  0  0  0  0  0  0
  179.2520  181.3040  137.2240 C   0  0  0  0  0  1  0  0  0  0  0  0
  181.4710  181.6380  138.2380 N   0  0  0  0  0  0  0  0  0  0  0  0
  182.0140  178.9250  138.2040 C   0  0  0  0  0  0  0  0  0  0  0  0
  182.9760  179.8280  138.7190 C   0  0  0  0  0  0  0  0  0  0  0  0
  180.7990  179.4120  137.7170 C   0  0  0  0  0  3  0  0  0  0  0  0
  1 11  1  0  0  0  0
  1 17  1  0  0  0  0
  2  7  1  6  0  0  0
  2  3  1  0  0  0  0
  3 22  2  0  0  0  0
  3  9  1  0  0  0  0
  4  5  2  0  0  0  0
  5 16  1  0  0  0  0
  6 18  1  0  0  0  0
  6 13  1  0  0  0  0
  7 17  2  0  0  0  0
  8  1  2  0  0  0  0
  9  6  2  0  0  0  0
 10 15  1  0  0  0  0
 12 22  1  0  0  0  0
 14 19  1  0  0  0  0
 14 10  2  0  0  0  0
 15  2  1  0  0  0  0
 15 21  1  1  0  0  0
 16 10  1  0  0  0  0
 19  7  1  0  0  0  0
 20  8  1  0  0  0  0
 20 19  2  0  0  0  0
 21 12  1  0  0  0  0
 22 23  1  0  0  0  0
 23 18  2  0  0  0  0
 24 28  1  0  0  0  0
 26 29  1  0  0  0  0
 27 24  1  0  0  0  0
 28 25  2  0  0  0  0
 29 30  2  0  0  0  0
 30 25  1  0  0  0  0
 30  5  1  0  0  0  0
 31 24  2  0  0  0  0
 31 29  1  0  0  0  0
M  END
>  <MODEL>
7

>  <REMARK>
 VINA RESULT:      -9.6      3.786      7.467
  Name = 
  1 active torsions:
  status: ('A' for Active; 'I' for Inactive)
    1  A    between atoms: C_9  and  C_22
                            x       y       z     vdW  Elec       q    Type
                         _______ _______ _______ _____ _____    ______ ____

>  <TORSDO>
F 1

$$$$
=
 OpenBabel10262419293D

 31 35  0  0  1  0  0  0  0  0999 V2000
  183.9030  178.9060  139.7830 C   0  0  0  0  0  0  0  0  0  0  0  0
  187.6890  178.2890  140.0680 C   0  0  1  0  0  3  0  0  0  0  0  0
  188.0980  178.0200  138.6230 C   0  0  0  0  0  0  0  0  0  0  0  0
  187.7070  178.2050  145.3190 O   0  0  0  0  0  0  0  0  0  0  0  0
  188.7510  177.6230  144.9190 C   0  0  0  0  0  0  0  0  0  0  0  0
  187.9130  178.5480  136.2510 C   0  0  0  0  0  0  0  0  0  0  0  0
  186.2090  178.4230  140.3840 C   0  0  0  0  0  0  0  0  0  0  0  0
  183.5370  178.8670  141.1300 C   0  0  0  0  0  3  0  0  0  0  0  0
  187.4750  178.7060  137.5670 C   0  0  0  0  0  3  0  0  0  0  0  0
  187.9960  177.6550  142.4730 C   0  0  0  0  0  0  0  0  0  0  0  0
  182.6990  179.2350  138.5560 Cl  0  0  0  0  0  0  0  0  0  0  0  0
  190.0100  176.5230  139.4150 C   0  0  0  0  0  2  0  0  0  0  0  0
  187.2810  179.1980  135.2450 F   0  0  0  0  0  0  0  0  0  0  0  0
  186.8070  178.1060  142.7570 N   0  0  0  0  0  0  0  0  0  0  0  0
  188.3270  177.2890  141.0470 C   0  0  2  0  0  3  0  0  0  0  0  0
  188.9300  177.3520  143.5210 N   0  0  0  0  0  2  0  0  0  0  0  0
  185.2340  178.6970  139.4130 C   0  0  0  0  0  3  0  0  0  0  0  0
  189.0080  177.7290  135.9740 C   0  0  0  0  0  3  0  0  0  0  0  0
  185.8290  178.3860  141.7430 C   0  0  0  0  0  0  0  0  0  0  0  0
  184.4990  178.6100  142.1090 C   0  0  0  0  0  3  0  0  0  0  0  0
  189.8190  177.1760  140.7790 C   0  0  0  0  0  2  0  0  0  0  0  0
  189.2470  177.2390  138.3370 C   0  0  0  0  0  0  0  0  0  0  0  0
  189.6730  177.0800  137.0140 C   0  0  0  0  0  3  0  0  0  0  0  0
  191.9000  176.4120  147.5440 C   0  0  0  0  0  0  0  0  0  0  0  0
  191.0260  176.7450  145.3650 C   0  0  0  0  0  3  0  0  0  0  0  0
  188.4140  177.7550  147.9520 C   0  0  0  0  0  1  0  0  0  0  0  0
  193.0210  175.9810  148.4180 C   0  0  0  0  0  1  0  0  0  0  0  0
  192.0320  176.3590  146.1940 N   0  0  0  0  0  0  0  0  0  0  0  0
  189.6600  177.2750  147.2860 C   0  0  0  0  0  0  0  0  0  0  0  0
  189.8090  177.2160  145.8790 C   0  0  0  0  0  0  0  0  0  0  0  0
  190.7120  176.8710  148.1110 C   0  0  0  0  0  3  0  0  0  0  0  0
  1  8  1  0  0  0  0
  2  3  1  6  0  0  0
  2  7  1  0  0  0  0
  2 15  1  0  0  0  0
  5  4  2  0  0  0  0
  5 30  1  0  0  0  0
  6  9  1  0  0  0  0
  7 19  2  0  0  0  0
  8 20  2  0  0  0  0
  9  3  2  0  0  0  0
 10 14  2  0  0  0  0
 10 16  1  0  0  0  0
 11  1  1  0  0  0  0
 12 21  1  0  0  0  0
 13  6  1  0  0  0  0
 15 21  1  1  0  0  0
 15 10  1  0  0  0  0
 16  5  1  0  0  0  0
 17  1  2  0  0  0  0
 17  7  1  0  0  0  0
 18  6  2  0  0  0  0
 18 23  1  0  0  0  0
 19 20  1  0  0  0  0
 19 14  1  0  0  0  0
 22  3  1  0  0  0  0
 22 12  1  0  0  0  0
 23 22  2  0  0  0  0
 24 31  1  0  0  0  0
 24 27  1  0  0  0  0
 25 30  2  0  0  0  0
 25 28  1  0  0  0  0
 28 24  2  0  0  0  0
 29 26  1  0  0  0  0
 29 31  2  0  0  0  0
 30 29  1  0  0  0  0
M  END
>  <MODEL>
8

>  <REMARK>
 VINA RESULT:      -9.1      3.879      7.631
  Name = 
  1 active torsions:
  status: ('A' for Active; 'I' for Inactive)
    1  A    between atoms: C_9  and  C_22
                            x       y       z     vdW  Elec       q    Type
                         _______ _______ _______ _____ _____    ______ ____

>  <TORSDO>
F 1

$$$$
=
 OpenBabel10262419293D

 31 35  0  0  1  0  0  0  0  0999 V2000
  183.7570  178.9690  138.4710 C   0  0  0  0  0  0  0  0  0  0  0  0
  183.7710  178.1350  142.2260 C   0  0  1  0  0  3  0  0  0  0  0  0
  182.3740  178.5530  142.6710 C   0  0  0  0  0  0  0  0  0  0  0  0
  188.9070  177.0480  142.3960 O   0  0  0  0  0  0  0  0  0  0  0  0
  188.5250  177.2990  143.5710 C   0  0  0  0  0  0  0  0  0  0  0  0
  179.9760  178.6610  142.2510 C   0  0  0  0  0  0  0  0  0  0  0  0
  184.2040  178.4640  140.8070 C   0  0  0  0  0  0  0  0  0  0  0  0
  185.1150  178.8360  138.1750 C   0  0  0  0  0  3  0  0  0  0  0  0
  181.2720  178.3820  141.8160 C   0  0  0  0  0  3  0  0  0  0  0  0
  186.2100  178.0740  142.7990 C   0  0  0  0  0  0  0  0  0  0  0  0
  182.6190  179.3630  137.2020 Cl  0  0  0  0  0  0  0  0  0  0  0  0
  183.2460  179.0690  145.0160 C   0  0  0  0  0  2  0  0  0  0  0  0
  178.9310  178.5130  141.4010 F   0  0  0  0  0  0  0  0  0  0  0  0
  186.5190  178.0200  141.5350 N   0  0  0  0  0  0  0  0  0  0  0  0
  184.8570  178.6040  143.2070 C   0  0  2  0  0  3  0  0  0  0  0  0
  187.1960  177.7900  143.8030 N   0  0  0  0  0  2  0  0  0  0  0  0
  183.3020  178.7720  139.7770 C   0  0  0  0  0  3  0  0  0  0  0  0
  179.7550  179.0820  143.5620 C   0  0  0  0  0  3  0  0  0  0  0  0
  185.5750  178.3320  140.4990 C   0  0  0  0  0  0  0  0  0  0  0  0
  186.0230  178.5160  139.1880 C   0  0  0  0  0  3  0  0  0  0  0  0
  184.4670  178.2420  144.6310 C   0  0  0  0  0  2  0  0  0  0  0  0
  182.1310  178.9230  144.0180 C   0  0  0  0  0  0  0  0  0  0  0  0
  180.8290  179.2090  144.4430 C   0  0  0  0  0  3  0  0  0  0  0  0
  191.2700  176.6480  146.7820 C   0  0  0  0  0  0  0  0  0  0  0  0
  190.7630  176.7210  144.4670 C   0  0  0  0  0  3  0  0  0  0  0  0
  187.6500  177.6110  146.4800 C   0  0  0  0  0  1  0  0  0  0  0  0
  192.2580  176.4120  147.8650 C   0  0  0  0  0  1  0  0  0  0  0  0
  191.6410  176.5130  145.4830 N   0  0  0  0  0  0  0  0  0  0  0  0
  189.0360  177.2300  146.0770 C   0  0  0  0  0  0  0  0  0  0  0  0
  189.4340  177.0850  144.7260 C   0  0  0  0  0  0  0  0  0  0  0  0
  189.9610  177.0080  147.1000 C   0  0  0  0  0  3  0  0  0  0  0  0
  1 17  1  0  0  0  0
  2  7  1  6  0  0  0
  2  3  1  0  0  0  0
  2 15  1  0  0  0  0
  3 22  1  0  0  0  0
  4  5  2  0  0  0  0
  5 16  1  0  0  0  0
  5 30  1  0  0  0  0
  6 18  2  0  0  0  0
  8  1  2  0  0  0  0
  8 20  1  0  0  0  0
  9  6  1  0  0  0  0
  9  3  2  0  0  0  0
 10 15  1  0  0  0  0
 10 16  1  0  0  0  0
 11  1  1  0  0  0  0
 13  6  1  0  0  0  0
 14 10  2  0  0  0  0
 15 21  1  1  0  0  0
 17  7  2  0  0  0  0
 18 23  1  0  0  0  0
 19  7  1  0  0  0  0
 19 14  1  0  0  0  0
 20 19  2  0  0  0  0
 21 12  1  0  0  0  0
 22 23  2  0  0  0  0
 22 12  1  0  0  0  0
 24 31  1  0  0  0  0
 24 27  1  0  0  0  0
 25 30  2  0  0  0  0
 25 28  1  0  0  0  0
 28 24  2  0  0  0  0
 29 26  1  0  0  0  0
 29 31  2  0  0  0  0
 30 29  1  0  0  0  0
M  END
>  <MODEL>
9

>  <REMARK>
 VINA RESULT:      -8.7      4.782      7.404
  Name = 
  1 active torsions:
  status: ('A' for Active; 'I' for Inactive)
    1  A    between atoms: C_9  and  C_22
                            x       y       z     vdW  Elec       q    Type
                         _______ _______ _______ _____ _____    ______ ____

>  <TORSDO>
F 1

$$$$
