=
 OpenBabel10262423013D

 37 45  0  0  1  0  0  0  0  0999 V2000
  183.9360  174.8200  136.7610 O   0  0  0  0  0  0  0  0  0  0  0  0
  180.4530  175.1560  135.0410 C   0  0  0  0  0  2  0  0  0  0  0  0
  180.9660  176.4760  140.0900 C   0  0  2  0  0  3  0  0  0  0  0  0
  185.2020  174.2040  136.6920 C   0  0  0  0  0  0  0  0  0  0  0  0
  184.1120  178.5400  138.8540 C   0  0  0  0  0  2  0  0  0  0  0  0
  179.2690  177.0240  136.3510 C   0  0  0  0  0  2  0  0  0  0  0  0
  182.3480  176.8170  139.5280 C   0  0  2  0  0  3  0  0  0  0  0  0
  185.3740  173.2340  135.5510 C   0  0  0  0  0  2  0  0  0  0  0  0
  180.7050  175.0540  139.6200 C   0  0  0  0  0  2  0  0  0  0  0  0
  182.6810  178.3150  139.3650 C   0  0  1  0  0  3  0  0  0  0  0  0
  179.4850  177.8830  137.4390 O   0  0  0  0  0  0  0  0  0  0  0  0
  186.3710  174.9320  137.0420 O   0  0  0  0  0  0  0  0  0  0  0  0
  181.4580  174.8770  138.3020 C   0  0  1  0  0  3  0  0  0  0  0  0
  180.4440  175.0090  137.1700 C   0  0  1  0  0  0  0  0  0  0  0  0
  180.0020  178.9370  140.1130 C   0  0  0  0  0  2  0  0  0  0  0  0
  185.2360  172.7250  136.9850 C   0  0  0  0  0  2  0  0  0  0  0  0
  178.9310  177.2360  138.5510 C   0  0  0  0  0  2  0  0  0  0  0  0
  179.4310  173.9000  136.9470 C   0  0  0  0  0  2  0  0  0  0  0  0
  186.1030  176.3220  137.0370 C   0  0  2  0  0  3  0  0  0  0  0  0
  184.3290  177.9000  137.6290 O   0  0  0  0  0  0  0  0  0  0  0  0
  179.7780  177.4510  139.8130 C   0  0  1  0  0  3  0  0  0  0  0  0
  182.4690  176.0230  138.2350 C   0  0  2  0  0  3  0  0  0  0  0  0
  180.4980  176.1510  136.1800 C   0  0  1  0  0  3  0  0  0  0  0  0
  182.4670  179.1350  140.6600 C   0  0  1  0  0  3  0  0  0  0  0  0
  180.6310  174.0140  136.0380 C   0  0  1  0  0  3  0  0  0  0  0  0
  184.9200  176.6720  137.9650 C   0  0  1  0  0  3  0  0  0  0  0  0
  183.8900  175.5240  137.9760 C   0  0  2  0  0  3  0  0  0  0  0  0
  181.0360  179.1420  141.2090 C   0  0  0  0  0  2  0  0  0  0  0  0
  184.7890  178.5080  141.4550 C   0  0  0  0  0  3  0  0  0  0  0  0
  183.4560  178.8320  141.7500 C   0  0  0  0  0  0  0  0  0  0  0  0
  183.0370  178.8790  143.0840 C   0  0  0  0  0  3  0  0  0  0  0  0
  183.5290  178.6550  145.4060 F   0  0  0  0  0  0  0  0  0  0  0  0
  185.2670  178.2870  143.8170 C   0  0  0  0  0  3  0  0  0  0  0  0
  183.9400  178.6080  144.1170 C   0  0  0  0  0  0  0  0  0  0  0  0
  185.6920  178.2380  142.4870 C   0  0  0  0  0  3  0  0  0  0  0  0
  185.9700  176.8520  135.6070 C   0  0  0  0  0  2  0  0  0  0  0  0
  187.0550  177.8720  135.3220 C   0  0  0  0  0  1  0  0  0  0  0  0
  1 27  1  0  0  0  0
  2 25  1  0  0  0  0
  2 23  1  0  0  0  0
  3  9  1  6  0  0  0
  4  1  1  0  0  0  0
  4 16  1  0  0  0  0
  4 12  1  0  0  0  0
  5 10  1  0  0  0  0
  6 11  1  0  0  0  0
  7  3  1  0  0  0  0
  8  4  1  0  0  0  0
  8 16  1  0  0  0  0
 10  7  1  0  0  0  0
 10 24  1  0  0  0  0
 11 17  1  0  0  0  0
 13  9  1  0  0  0  0
 14 13  1  0  0  0  0
 15 28  1  0  0  0  0
 17 21  1  0  0  0  0
 18 14  1  0  0  0  0
 19 12  1  0  0  0  0
 19 26  1  0  0  0  0
 20 26  1  0  0  0  0
 20  5  1  0  0  0  0
 21  3  1  0  0  0  0
 21 15  1  0  0  0  0
 22 13  1  0  0  0  0
 22  7  1  0  0  0  0
 23  6  1  0  0  0  0
 23 14  1  0  0  0  0
 24 28  1  0  0  0  0
 24 30  1  0  0  0  0
 25 18  1  0  0  0  0
 25 14  1  0  0  0  0
 26 27  1  0  0  0  0
 27 22  1  0  0  0  0
 29 30  2  0  0  0  0
 29 35  1  0  0  0  0
 30 31  1  0  0  0  0
 31 34  2  0  0  0  0
 33 34  1  0  0  0  0
 34 32  1  0  0  0  0
 35 33  2  0  0  0  0
 36 19  1  0  0  0  0
 37 36  1  0  0  0  0
M  END
>  <MODEL>
1

>  <REMARK>
 VINA RESULT:      -7.0      0.000      0.000
  Name = 
  2 active torsions:
  status: ('A' for Active; 'I' for Inactive)
    1  A    between atoms: C_6  and  C_31
    2  A    between atoms: C_11  and  C_26
                            x       y       z     vdW  Elec       q    Type
                         _______ _______ _______ _____ _____    ______ ____

>  <TORSDO>
F 2

$$$$
=
 OpenBabel10262423013D

 37 45  0  0  1  0  0  0  0  0999 V2000
  183.4540  174.4190  136.6760 O   0  0  0  0  0  0  0  0  0  0  0  0
  179.8360  174.9360  135.3170 C   0  0  0  0  0  2  0  0  0  0  0  0
  181.0580  176.6790  140.1090 C   0  0  2  0  0  3  0  0  0  0  0  0
  184.6440  173.6750  136.5360 C   0  0  0  0  0  0  0  0  0  0  0  0
  184.2070  178.2860  138.3260 C   0  0  0  0  0  2  0  0  0  0  0  0
  178.9870  177.0320  136.5400 C   0  0  0  0  0  2  0  0  0  0  0  0
  182.3880  176.8230  139.3680 C   0  0  2  0  0  3  0  0  0  0  0  0
  184.5930  172.5860  135.4940 C   0  0  0  0  0  2  0  0  0  0  0  0
  180.6170  175.2520  139.8260 C   0  0  0  0  0  2  0  0  0  0  0  0
  182.8320  178.2570  139.0090 C   0  0  1  0  0  3  0  0  0  0  0  0
  179.4050  177.9660  137.4990 O   0  0  0  0  0  0  0  0  0  0  0  0
  185.9060  174.3120  136.6770 O   0  0  0  0  0  0  0  0  0  0  0  0
  181.1910  174.8730  138.4610 C   0  0  1  0  0  3  0  0  0  0  0  0
  180.0660  174.9970  137.4380 C   0  0  1  0  0  0  0  0  0  0  0  0
  180.3260  179.2150  139.9730 C   0  0  0  0  0  2  0  0  0  0  0  0
  184.5800  172.2350  136.9800 C   0  0  0  0  0  2  0  0  0  0  0  0
  178.9310  177.4880  138.7280 C   0  0  0  0  0  2  0  0  0  0  0  0
  178.9390  173.9800  137.4460 C   0  0  0  0  0  2  0  0  0  0  0  0
  185.7640  175.7150  136.5530 C   0  0  2  0  0  3  0  0  0  0  0  0
  184.2190  177.5130  137.1600 O   0  0  0  0  0  0  0  0  0  0  0  0
  179.9370  177.7370  139.8600 C   0  0  1  0  0  3  0  0  0  0  0  0
  182.2840  175.9000  138.1620 C   0  0  2  0  0  3  0  0  0  0  0  0
  180.1040  176.0270  136.3300 C   0  0  1  0  0  3  0  0  0  0  0  0
  182.8460  179.2160  140.2250 C   0  0  1  0  0  3  0  0  0  0  0  0
  180.0280  173.8840  136.4050 C   0  0  1  0  0  3  0  0  0  0  0  0
  184.7340  176.2700  137.5600 C   0  0  1  0  0  3  0  0  0  0  0  0
  183.6150  175.2380  137.8060 C   0  0  2  0  0  3  0  0  0  0  0  0
  181.4960  179.4190  140.9220 C   0  0  0  0  0  2  0  0  0  0  0  0
  183.6140  178.5500  142.5450 C   0  0  0  0  0  3  0  0  0  0  0  0
  183.9260  178.9220  141.2280 C   0  0  0  0  0  0  0  0  0  0  0  0
  185.2660  179.0160  140.8370 C   0  0  0  0  0  3  0  0  0  0  0  0
  187.5830  178.8330  141.3680 F   0  0  0  0  0  0  0  0  0  0  0  0
  185.9710  178.3700  143.0620 C   0  0  0  0  0  3  0  0  0  0  0  0
  186.2870  178.7410  141.7510 C   0  0  0  0  0  0  0  0  0  0  0  0
  184.6350  178.2750  143.4590 C   0  0  0  0  0  3  0  0  0  0  0  0
  185.5100  176.1150  135.0970 C   0  0  0  0  0  2  0  0  0  0  0  0
  186.5240  177.1520  134.6530 C   0  0  0  0  0  1  0  0  0  0  0  0
  1 27  1  0  0  0  0
  2 23  1  0  0  0  0
  2 25  1  0  0  0  0
  3  9  1  6  0  0  0
  4  1  1  0  0  0  0
  4 12  1  0  0  0  0
  4 16  1  0  0  0  0
  5 10  1  0  0  0  0
  6 11  1  0  0  0  0
  7  3  1  0  0  0  0
  8  4  1  0  0  0  0
  8 16  1  0  0  0  0
 10  7  1  0  0  0  0
 10 24  1  0  0  0  0
 11 17  1  0  0  0  0
 13  9  1  0  0  0  0
 14 18  1  0  0  0  0
 14 13  1  0  0  0  0
 15 28  1  0  0  0  0
 17 21  1  0  0  0  0
 19 12  1  0  0  0  0
 19 26  1  0  0  0  0
 20 26  1  0  0  0  0
 20  5  1  0  0  0  0
 21 15  1  0  0  0  0
 21  3  1  0  0  0  0
 22 13  1  0  0  0  0
 22  7  1  0  0  0  0
 23  6  1  0  0  0  0
 23 14  1  0  0  0  0
 24 28  1  0  0  0  0
 24 30  1  0  0  0  0
 25 14  1  0  0  0  0
 25 18  1  0  0  0  0
 26 27  1  0  0  0  0
 27 22  1  0  0  0  0
 29 35  1  0  0  0  0
 30 29  2  0  0  0  0
 31 30  1  0  0  0  0
 31 34  2  0  0  0  0
 32 34  1  0  0  0  0
 33 35  2  0  0  0  0
 34 33  1  0  0  0  0
 36 19  1  0  0  0  0
 37 36  1  0  0  0  0
M  END
>  <MODEL>
2

>  <REMARK>
 VINA RESULT:      -6.9      1.143      1.390
  Name = 
  2 active torsions:
  status: ('A' for Active; 'I' for Inactive)
    1  A    between atoms: C_6  and  C_31
    2  A    between atoms: C_11  and  C_26
                            x       y       z     vdW  Elec       q    Type
                         _______ _______ _______ _____ _____    ______ ____

>  <TORSDO>
F 2

$$$$
=
 OpenBabel10262423013D

 37 45  0  0  1  0  0  0  0  0999 V2000
  185.2100  176.2410  136.8910 O   0  0  0  0  0  0  0  0  0  0  0  0
  181.8700  176.6640  134.9240 C   0  0  0  0  0  2  0  0  0  0  0  0
  181.7960  176.7490  140.1660 C   0  0  2  0  0  3  0  0  0  0  0  0
  186.5410  175.7810  136.8190 C   0  0  0  0  0  0  0  0  0  0  0  0
  184.7740  179.3340  139.8050 C   0  0  0  0  0  2  0  0  0  0  0  0
  180.3700  178.0370  136.4970 C   0  0  0  0  0  2  0  0  0  0  0  0
  183.1720  177.3430  139.8560 C   0  0  2  0  0  3  0  0  0  0  0  0
  186.9210  175.1400  135.5090 C   0  0  0  0  0  2  0  0  0  0  0  0
  181.7430  175.4680  139.3500 C   0  0  0  0  0  2  0  0  0  0  0  0
  183.3410  178.8600  140.0870 C   0  0  1  0  0  3  0  0  0  0  0  0
  180.3910  178.6200  137.7730 O   0  0  0  0  0  0  0  0  0  0  0  0
  187.5830  176.5070  137.4570 O   0  0  0  0  0  0  0  0  0  0  0  0
  182.6210  175.6890  138.1190 C   0  0  1  0  0  3  0  0  0  0  0  0
  181.6980  176.0010  136.9450 C   0  0  1  0  0  0  0  0  0  0  0  0
  180.5530  179.0290  140.6600 C   0  0  0  0  0  2  0  0  0  0  0  0
  186.7220  174.2850  136.7590 C   0  0  0  0  0  2  0  0  0  0  0  0
  179.8240  177.6710  138.6340 C   0  0  0  0  0  2  0  0  0  0  0  0
  180.8430  174.8910  136.3570 C   0  0  0  0  0  2  0  0  0  0  0  0
  187.1570  177.8240  137.7500 C   0  0  2  0  0  3  0  0  0  0  0  0
  185.1670  179.0380  138.4960 O   0  0  0  0  0  0  0  0  0  0  0  0
  180.5300  177.6480  139.9970 C   0  0  1  0  0  3  0  0  0  0  0  0
  183.4930  176.9060  138.4350 C   0  0  2  0  0  3  0  0  0  0  0  0
  181.7030  177.3510  136.2620 C   0  0  1  0  0  3  0  0  0  0  0  0
  182.9240  179.3140  141.5070 C   0  0  1  0  0  3  0  0  0  0  0  0
  182.0950  175.3350  135.6380 C   0  0  1  0  0  3  0  0  0  0  0  0
  185.8660  177.8250  138.5970 C   0  0  1  0  0  3  0  0  0  0  0  0
  184.9800  176.6190  138.2250 C   0  0  2  0  0  3  0  0  0  0  0  0
  181.4600  179.0530  141.8810 C   0  0  0  0  0  2  0  0  0  0  0  0
  185.1040  178.3010  142.3040 C   0  0  0  0  0  3  0  0  0  0  0  0
  183.8440  178.8460  142.5980 C   0  0  0  0  0  0  0  0  0  0  0  0
  183.4380  178.9610  143.9320 C   0  0  0  0  0  3  0  0  0  0  0  0
  183.8810  178.6530  146.2540 F   0  0  0  0  0  0  0  0  0  0  0  0
  185.5340  177.9980  144.6660 C   0  0  0  0  0  3  0  0  0  0  0  0
  184.2800  178.5380  144.9650 C   0  0  0  0  0  0  0  0  0  0  0  0
  185.9460  177.8790  143.3360 C   0  0  0  0  0  3  0  0  0  0  0  0
  187.0840  178.6740  136.4780 C   0  0  0  0  0  2  0  0  0  0  0  0
  188.3890  178.5840  135.7120 C   0  0  0  0  0  1  0  0  0  0  0  0
  1 27  1  0  0  0  0
  2 25  1  0  0  0  0
  2 23  1  0  0  0  0
  3  9  1  6  0  0  0
  4  1  1  0  0  0  0
  4 12  1  0  0  0  0
  5 10  1  0  0  0  0
  6 11  1  0  0  0  0
  7 10  1  0  0  0  0
  7  3  1  0  0  0  0
  8 16  1  0  0  0  0
  8  4  1  0  0  0  0
 10 24  1  0  0  0  0
 11 17  1  0  0  0  0
 12 19  1  0  0  0  0
 13 22  1  0  0  0  0
 13  9  1  0  0  0  0
 14 13  1  0  0  0  0
 15 28  1  0  0  0  0
 16  4  1  0  0  0  0
 17 21  1  0  0  0  0
 18 14  1  0  0  0  0
 19 26  1  0  0  0  0
 20 26  1  0  0  0  0
 20  5  1  0  0  0  0
 21  3  1  0  0  0  0
 21 15  1  0  0  0  0
 22  7  1  0  0  0  0
 23  6  1  0  0  0  0
 23 14  1  0  0  0  0
 24 28  1  0  0  0  0
 24 30  1  0  0  0  0
 25 18  1  0  0  0  0
 25 14  1  0  0  0  0
 27 22  1  0  0  0  0
 27 26  1  0  0  0  0
 29 30  2  0  0  0  0
 29 35  1  0  0  0  0
 30 31  1  0  0  0  0
 31 34  2  0  0  0  0
 33 34  1  0  0  0  0
 34 32  1  0  0  0  0
 35 33  2  0  0  0  0
 36 19  1  0  0  0  0
 37 36  1  0  0  0  0
M  END
>  <MODEL>
3

>  <REMARK>
 VINA RESULT:      -6.8      1.281      1.501
  Name = 
  2 active torsions:
  status: ('A' for Active; 'I' for Inactive)
    1  A    between atoms: C_6  and  C_31
    2  A    between atoms: C_11  and  C_26
                            x       y       z     vdW  Elec       q    Type
                         _______ _______ _______ _____ _____    ______ ____

>  <TORSDO>
F 2

$$$$
=
 OpenBabel10262423013D

 37 45  0  0  1  0  0  0  0  0999 V2000
  183.7390  176.3680  136.8850 O   0  0  0  0  0  0  0  0  0  0  0  0
  180.2760  178.1160  136.4910 C   0  0  0  0  0  2  0  0  0  0  0  0
  182.3020  177.4740  141.2840 C   0  0  2  0  0  3  0  0  0  0  0  0
  184.6810  175.5210  136.2670 C   0  0  0  0  0  0  0  0  0  0  0  0
  185.5980  178.9910  139.6990 C   0  0  0  0  0  2  0  0  0  0  0  0
  180.1010  179.6590  138.5390 C   0  0  0  0  0  2  0  0  0  0  0  0
  183.5570  177.6330  140.4250 C   0  0  2  0  0  3  0  0  0  0  0  0
  184.2650  174.9840  134.9210 C   0  0  0  0  0  2  0  0  0  0  0  0
  181.4860  176.4070  140.5720 C   0  0  0  0  0  2  0  0  0  0  0  0
  184.3240  178.9670  140.5560 C   0  0  1  0  0  3  0  0  0  0  0  0
  180.8240  180.0170  139.6870 O   0  0  0  0  0  0  0  0  0  0  0  0
  186.0720  175.7750  136.4080 O   0  0  0  0  0  0  0  0  0  0  0  0
  181.8260  176.5080  139.0860 C   0  0  1  0  0  3  0  0  0  0  0  0
  180.6900  177.2630  138.4020 C   0  0  1  0  0  0  0  0  0  0  0  0
  182.2390  179.9380  142.2400 C   0  0  0  0  0  2  0  0  0  0  0  0
  184.2860  174.0700  136.1440 C   0  0  0  0  0  2  0  0  0  0  0  0
  180.3470  179.1880  140.7110 C   0  0  0  0  0  2  0  0  0  0  0  0
  179.3440  176.5820  138.2310 C   0  0  0  0  0  2  0  0  0  0  0  0
  186.2860  177.1040  136.8450 C   0  0  2  0  0  3  0  0  0  0  0  0
  185.3140  178.7730  138.3470 O   0  0  0  0  0  0  0  0  0  0  0  0
  181.4740  178.7460  141.6540 C   0  0  1  0  0  3  0  0  0  0  0  0
  183.1190  177.3220  139.0020 C   0  0  2  0  0  3  0  0  0  0  0  0
  180.9000  178.6220  137.7730 C   0  0  1  0  0  3  0  0  0  0  0  0
  184.6860  179.3240  142.0180 C   0  0  1  0  0  3  0  0  0  0  0  0
  180.2810  176.6980  137.0530 C   0  0  1  0  0  3  0  0  0  0  0  0
  185.5230  177.3990  138.1530 C   0  0  1  0  0  3  0  0  0  0  0  0
  184.2000  176.6060  138.1920 C   0  0  2  0  0  3  0  0  0  0  0  0
  183.4980  179.4970  142.9700 C   0  0  0  0  0  2  0  0  0  0  0  0
  185.5910  177.9300  143.9300 C   0  0  0  0  0  3  0  0  0  0  0  0
  185.7330  178.4350  142.6280 C   0  0  0  0  0  0  0  0  0  0  0  0
  186.8680  178.1030  141.8790 C   0  0  0  0  0  3  0  0  0  0  0  0
  188.9480  176.9540  141.6940 F   0  0  0  0  0  0  0  0  0  0  0  0
  187.7060  176.7710  143.7190 C   0  0  0  0  0  3  0  0  0  0  0  0
  187.8530  177.2730  142.4230 C   0  0  0  0  0  0  0  0  0  0  0  0
  186.5750  177.0990  144.4730 C   0  0  0  0  0  3  0  0  0  0  0  0
  186.0240  178.1030  135.7150 C   0  0  0  0  0  2  0  0  0  0  0  0
  187.0660  177.9480  134.6240 C   0  0  0  0  0  1  0  0  0  0  0  0
  1 27  1  0  0  0  0
  2 25  1  0  0  0  0
  2 23  1  0  0  0  0
  3  9  1  6  0  0  0
  3 21  1  0  0  0  0
  4 12  1  0  0  0  0
  4  1  1  0  0  0  0
  5 10  1  0  0  0  0
  6 11  1  0  0  0  0
  7 10  1  0  0  0  0
  7  3  1  0  0  0  0
  8 16  1  0  0  0  0
  8  4  1  0  0  0  0
 10 24  1  0  0  0  0
 11 17  1  0  0  0  0
 12 19  1  0  0  0  0
 13  9  1  0  0  0  0
 14 13  1  0  0  0  0
 15 28  1  0  0  0  0
 16  4  1  0  0  0  0
 17 21  1  0  0  0  0
 18 14  1  0  0  0  0
 19 26  1  0  0  0  0
 20  5  1  0  0  0  0
 21 15  1  0  0  0  0
 22 13  1  0  0  0  0
 22  7  1  0  0  0  0
 23 14  1  0  0  0  0
 23  6  1  0  0  0  0
 24 30  1  0  0  0  0
 24 28  1  0  0  0  0
 25 18  1  0  0  0  0
 25 14  1  0  0  0  0
 26 27  1  0  0  0  0
 26 20  1  0  0  0  0
 27 22  1  0  0  0  0
 29 35  1  0  0  0  0
 30 29  2  0  0  0  0
 31 34  2  0  0  0  0
 31 30  1  0  0  0  0
 32 34  1  0  0  0  0
 33 35  2  0  0  0  0
 34 33  1  0  0  0  0
 36 19  1  0  0  0  0
 37 36  1  0  0  0  0
M  END
>  <MODEL>
4

>  <REMARK>
 VINA RESULT:      -4.6      1.871      2.692
  Name = 
  2 active torsions:
  status: ('A' for Active; 'I' for Inactive)
    1  A    between atoms: C_6  and  C_31
    2  A    between atoms: C_11  and  C_26
                            x       y       z     vdW  Elec       q    Type
                         _______ _______ _______ _____ _____    ______ ____

>  <TORSDO>
F 2

$$$$
=
 OpenBabel10262423013D

 37 45  0  0  1  0  0  0  0  0999 V2000
  181.6250  178.8940  138.1010 O   0  0  0  0  0  0  0  0  0  0  0  0
  178.9310  176.0780  138.0170 C   0  0  0  0  0  2  0  0  0  0  0  0
  183.2110  175.6330  135.0210 C   0  0  2  0  0  3  0  0  0  0  0  0
  181.8760  180.2430  138.4290 C   0  0  0  0  0  0  0  0  0  0  0  0
  185.1810  176.5380  138.3350 C   0  0  0  0  0  2  0  0  0  0  0  0
  180.2370  173.9610  137.3700 C   0  0  0  0  0  2  0  0  0  0  0  0
  183.7430  176.4120  136.2250 C   0  0  2  0  0  3  0  0  0  0  0  0
  180.6740  181.0100  138.9180 C   0  0  0  0  0  2  0  0  0  0  0  0
  181.9670  176.3950  134.5940 C   0  0  0  0  0  2  0  0  0  0  0  0
  184.6560  175.6420  137.2030 C   0  0  1  0  0  3  0  0  0  0  0  0
  181.5390  173.5530  137.0420 O   0  0  0  0  0  0  0  0  0  0  0  0
  183.1100  180.6160  139.0260 O   0  0  0  0  0  0  0  0  0  0  0  0
  181.3960  177.0510  135.8500 C   0  0  1  0  0  3  0  0  0  0  0  0
  180.2220  176.1990  136.3220 C   0  0  1  0  0  0  0  0  0  0  0  0
  184.1320  173.2580  135.7310 C   0  0  0  0  0  2  0  0  0  0  0  0
  181.2430  181.2720  137.5260 C   0  0  0  0  0  2  0  0  0  0  0  0
  181.6100  173.5980  135.6430 C   0  0  0  0  0  2  0  0  0  0  0  0
  178.9330  176.2000  135.5190 C   0  0  0  0  0  2  0  0  0  0  0  0
  183.7590  179.4790  139.5640 C   0  0  2  0  0  3  0  0  0  0  0  0
  184.1350  177.1130  139.0640 O   0  0  0  0  0  0  0  0  0  0  0  0
  182.9800  174.0940  135.1610 C   0  0  1  0  0  3  0  0  0  0  0  0
  182.5170  177.0200  136.8910 C   0  0  2  0  0  3  0  0  0  0  0  0
  180.2560  175.4540  137.6380 C   0  0  1  0  0  3  0  0  0  0  0  0
  185.8520  174.9480  136.5070 C   0  0  1  0  0  3  0  0  0  0  0  0
  179.0190  176.9940  136.8000 C   0  0  1  0  0  3  0  0  0  0  0  0
  183.9570  178.3830  138.4940 C   0  0  1  0  0  3  0  0  0  0  0  0
  182.7890  178.4010  137.4870 C   0  0  2  0  0  3  0  0  0  0  0  0
  185.4840  173.8970  135.4530 C   0  0  0  0  0  2  0  0  0  0  0  0
  186.5370  176.9640  135.1350 C   0  0  0  0  0  3  0  0  0  0  0  0
  186.8890  175.8960  135.9740 C   0  0  0  0  0  0  0  0  0  0  0  0
  188.2300  175.7100  136.3270 C   0  0  0  0  0  3  0  0  0  0  0  0
  190.5090  176.3980  136.1950 F   0  0  0  0  0  0  0  0  0  0  0  0
  188.8560  177.6450  135.0150 C   0  0  0  0  0  3  0  0  0  0  0  0
  189.2120  176.5820  135.8490 C   0  0  0  0  0  0  0  0  0  0  0  0
  187.5190  177.8370  134.6580 C   0  0  0  0  0  3  0  0  0  0  0  0
  183.0650  179.0030  140.8430 C   0  0  0  0  0  2  0  0  0  0  0  0
  184.0880  178.7670  141.9380 C   0  0  0  0  0  1  0  0  0  0  0  0
  1  4  1  0  0  0  0
  3  9  1  1  0  0  0
  3 21  1  0  0  0  0
  3  7  1  0  0  0  0
  4  8  1  0  0  0  0
  4 12  1  0  0  0  0
  5 20  1  0  0  0  0
  6 23  1  0  0  0  0
  7 22  1  0  0  0  0
  7 10  1  0  0  0  0
  9 13  1  0  0  0  0
 10  5  1  0  0  0  0
 11  6  1  0  0  0  0
 12 19  1  0  0  0  0
 13 14  1  0  0  0  0
 13 22  1  0  0  0  0
 14 25  1  0  0  0  0
 14 23  1  0  0  0  0
 16  4  1  0  0  0  0
 16  8  1  0  0  0  0
 17 11  1  0  0  0  0
 18 14  1  0  0  0  0
 18 25  1  0  0  0  0
 19 36  1  0  0  0  0
 21 17  1  0  0  0  0
 21 15  1  0  0  0  0
 22 27  1  0  0  0  0
 23  2  1  0  0  0  0
 24 10  1  0  0  0  0
 25  2  1  0  0  0  0
 26 20  1  0  0  0  0
 26 19  1  0  0  0  0
 27  1  1  0  0  0  0
 27 26  1  0  0  0  0
 28 15  1  0  0  0  0
 28 24  1  0  0  0  0
 29 30  1  0  0  0  0
 30 31  2  0  0  0  0
 30 24  1  0  0  0  0
 33 34  2  0  0  0  0
 34 32  1  0  0  0  0
 34 31  1  0  0  0  0
 35 33  1  0  0  0  0
 35 29  2  0  0  0  0
 36 37  1  0  0  0  0
M  END
>  <MODEL>
5

>  <REMARK>
 VINA RESULT:      -4.5      2.612      6.279
  Name = 
  2 active torsions:
  status: ('A' for Active; 'I' for Inactive)
    1  A    between atoms: C_6  and  C_31
    2  A    between atoms: C_11  and  C_26
                            x       y       z     vdW  Elec       q    Type
                         _______ _______ _______ _____ _____    ______ ____

>  <TORSDO>
F 2

$$$$
