=
 OpenBabel10262422393D

 43 48  0  0  1  0  0  0  0  0999 V2000
  192.0270  177.4250  141.4420 C   0  0  0  0  0  2  0  0  0  0  0  0
  190.7410  177.6150  142.2640 C   0  0  1  0  0  3  0  0  0  0  0  0
  191.7880  177.4570  139.9330 C   0  0  0  0  0  2  0  0  0  0  0  0
  189.4720  177.6980  141.4080 C   0  0  0  0  0  2  0  0  0  0  0  0
  189.4130  176.5730  140.3730 C   0  0  0  0  0  2  0  0  0  0  0  0
  190.7100  176.4410  139.5480 C   0  0  1  0  0  3  0  0  0  0  0  0
  191.9170  175.5980  143.5840 O   0  0  0  0  0  0  0  0  0  0  0  0
  190.6040  176.3250  143.4940 S   0  0  0  0  0  0  0  0  0  0  0  0
  189.5360  175.3450  143.0970 O   0  0  0  0  0  0  0  0  0  0  0  0
  190.2020  177.0290  145.0360 N   0  0  0  0  0  0  0  0  0  0  0  0
  188.8800  177.5540  145.2620 C   0  0  0  0  0  0  0  0  0  0  0  0
  188.6790  178.3810  146.1940 O   0  0  0  0  0  0  0  0  0  0  0  0
  190.9600  176.5970  147.3250 C   0  0  0  0  0  2  0  0  0  0  0  0
  191.2660  177.2900  146.0060 C   0  0  0  0  0  3  0  0  0  0  0  0
  191.9640  175.9900  146.3790 C   0  0  0  0  0  2  0  0  0  0  0  0
  187.7170  177.1120  144.4310 C   0  0  0  0  0  2  0  0  0  0  0  0
  186.4560  177.7530  144.9030 C   0  0  0  0  0  0  0  0  0  0  0  0
  184.4700  179.0430  144.4570 C   0  0  0  0  0  3  0  0  0  0  0  0
  184.9290  178.3330  146.6770 C   0  0  0  0  0  3  0  0  0  0  0  0
  184.1430  178.9830  145.7760 N   0  0  0  0  0  0  0  0  0  0  0  0
  186.1030  177.7050  146.2560 C   0  0  0  0  0  3  0  0  0  0  0  0
  185.6370  178.4300  143.9950 C   0  0  0  0  0  3  0  0  0  0  0  0
  190.4610  176.4320  138.0360 C   0  0  2  0  0  3  0  0  0  0  0  0
  184.2400  176.3500  136.0160 C   0  0  1  0  0  3  0  0  0  0  0  0
  189.0320  176.7150  137.6670 C   0  0  0  0  0  0  0  0  0  0  0  0
  186.4090  177.2470  136.9200 C   0  0  0  0  0  0  0  0  0  0  0  0
  184.4770  175.1360  136.9080 C   0  0  0  0  0  2  0  0  0  0  0  0
  182.8750  176.6260  135.9570 O   0  0  0  0  0  1  0  0  0  0  0  0
  186.8530  175.9240  137.1290 C   0  0  0  0  0  0  0  0  0  0  0  0
  184.9730  177.5570  136.5950 C   0  0  0  0  0  2  0  0  0  0  0  0
  185.9520  174.7480  136.8680 C   0  0  0  0  0  2  0  0  0  0  0  0
  188.1480  175.6960  137.4740 N   0  0  0  0  0  0  0  0  0  0  0  0
  188.6230  178.0380  137.4810 C   0  0  0  0  0  3  0  0  0  0  0  0
  187.3040  178.3010  137.1110 C   0  0  0  0  0  3  0  0  0  0  0  0
  190.9610  175.1340  137.4060 C   0  0  0  0  0  2  0  0  0  0  0  0
  194.6460  174.7130  137.3780 C   0  0  0  0  0  3  0  0  0  0  0  0
  195.0350  175.6270  136.2910 C   0  0  0  0  0  0  0  0  0  0  0  0
  192.6290  175.9150  135.7060 C   0  0  0  0  0  2  0  0  0  0  0  0
  193.3650  174.5540  137.7030 C   0  0  0  0  0  3  0  0  0  0  0  0
  192.3460  175.2640  136.9860 N   0  0  0  0  0  0  0  0  0  0  0  0
  194.0940  176.2160  135.5370 C   0  0  0  0  0  3  0  0  0  0  0  0
  197.2610  174.9590  135.4270 C   0  0  0  0  0  1  0  0  0  0  0  0
  196.3960  175.8760  136.0840 O   0  0  0  0  0  0  0  0  0  0  0  0
  1  2  1  0  0  0  0
  2  8  1  1  0  0  0
  3  1  1  0  0  0  0
  4  2  1  0  0  0  0
  5  4  1  0  0  0  0
  6 23  1  6  0  0  0
  6  3  1  0  0  0  0
  6  5  1  0  0  0  0
  8  7  2  0  0  0  0
  8 10  1  0  0  0  0
  9  8  2  0  0  0  0
 10 11  1  0  0  0  0
 10 14  1  0  0  0  0
 11 12  2  0  0  0  0
 14 15  1  0  0  0  0
 14 13  1  0  0  0  0
 15 13  1  0  0  0  0
 16 17  1  0  0  0  0
 16 11  1  0  0  0  0
 17 21  1  0  0  0  0
 18 20  2  0  0  0  0
 20 19  1  0  0  0  0
 21 19  2  0  0  0  0
 22 18  1  0  0  0  0
 22 17  2  0  0  0  0
 23 35  1  1  0  0  0
 24 28  1  1  0  0  0
 24 30  1  0  0  0  0
 24 27  1  0  0  0  0
 25 23  1  0  0  0  0
 26 34  1  0  0  0  0
 26 29  2  0  0  0  0
 29 32  1  0  0  0  0
 30 26  1  0  0  0  0
 31 27  1  0  0  0  0
 31 29  1  0  0  0  0
 32 25  2  0  0  0  0
 33 25  1  0  0  0  0
 34 33  2  0  0  0  0
 36 39  2  0  0  0  0
 37 36  1  0  0  0  0
 38 40  1  0  0  0  0
 40 35  1  0  0  0  0
 40 39  1  0  0  0  0
 41 38  1  0  0  0  0
 41 37  2  0  0  0  0
 42 43  1  0  0  0  0
 43 37  1  0  0  0  0
M  END
>  <MODEL>
1

>  <REMARK>
 VINA RESULT:      -9.0      0.000      0.000
  Name = 
  10 active torsions:
  status: ('A' for Active; 'I' for Inactive)
    1  A    between atoms: C_1  and  C_34
    2  A    between atoms: C_1  and  N_35
    3  A    between atoms: N_4  and  S_12
    4  A    between atoms: N_4  and  C_15
    5  A    between atoms: C_6  and  S_12
    6  A    between atoms: C_8  and  C_34
    7  A    between atoms: C_11  and  C_14
    8  A    between atoms: C_14  and  C_22
    9  A    between atoms: C_19  and  O_37
   10  A    between atoms: C_34  and  C_38
                            x       y       z     vdW  Elec       q    Type
                         _______ _______ _______ _____ _____    ______ ____

>  <TORSDO>
F 10

$$$$
=
 OpenBabel10262422393D

 43 48  0  0  1  0  0  0  0  0999 V2000
  188.4630  178.2000  139.3450 C   0  0  0  0  0  2  0  0  0  0  0  0
  189.8590  177.6170  139.0670 C   0  0  1  0  0  3  0  0  0  0  0  0
  188.1940  178.4390  140.8310 C   0  0  0  0  0  2  0  0  0  0  0  0
  190.6570  177.3020  140.3390 C   0  0  0  0  0  2  0  0  0  0  0  0
  189.8210  176.5160  141.3500 C   0  0  0  0  0  2  0  0  0  0  0  0
  188.4440  177.1540  141.6240 C   0  0  1  0  0  3  0  0  0  0  0  0
  188.3160  175.6550  138.0890 O   0  0  0  0  0  0  0  0  0  0  0  0
  189.7240  176.1760  138.0190 S   0  0  0  0  0  0  0  0  0  0  0  0
  190.6600  175.1010  138.4950 O   0  0  0  0  0  0  0  0  0  0  0  0
  190.1230  176.6070  136.3780 N   0  0  0  0  0  0  0  0  0  0  0  0
  191.1360  175.8710  135.6690 C   0  0  0  0  0  0  0  0  0  0  0  0
  191.6960  176.3780  134.6590 O   0  0  0  0  0  0  0  0  0  0  0  0
  188.7360  177.5530  134.5940 C   0  0  0  0  0  2  0  0  0  0  0  0
  189.5940  177.8500  135.8150 C   0  0  0  0  0  3  0  0  0  0  0  0
  188.0760  177.8650  135.9120 C   0  0  0  0  0  2  0  0  0  0  0  0
  191.5230  174.4860  136.0860 C   0  0  0  0  0  2  0  0  0  0  0  0
  193.0040  174.3120  136.0300 C   0  0  0  0  0  0  0  0  0  0  0  0
  195.2030  174.8180  136.8760 C   0  0  0  0  0  3  0  0  0  0  0  0
  194.9740  173.3850  134.9940 C   0  0  0  0  0  3  0  0  0  0  0  0
  195.7480  174.0340  135.9060 N   0  0  0  0  0  0  0  0  0  0  0  0
  193.5840  173.5140  135.0390 C   0  0  0  0  0  3  0  0  0  0  0  0
  193.8170  174.9730  136.9540 C   0  0  0  0  0  3  0  0  0  0  0  0
  188.1620  177.3530  143.1180 C   0  0  2  0  0  3  0  0  0  0  0  0
  181.9620  179.4350  143.0410 C   0  0  1  0  0  3  0  0  0  0  0  0
  186.7410  177.7490  143.4060 C   0  0  0  0  0  0  0  0  0  0  0  0
  184.1340  178.5470  143.9440 C   0  0  0  0  0  0  0  0  0  0  0  0
  182.1710  178.4900  141.8620 C   0  0  0  0  0  2  0  0  0  0  0  0
  180.6010  179.5210  143.3330 O   0  0  0  0  0  1  0  0  0  0  0  0
  184.5560  178.2770  142.6240 C   0  0  0  0  0  0  0  0  0  0  0  0
  182.7070  178.9000  144.2600 C   0  0  0  0  0  2  0  0  0  0  0  0
  183.6410  178.4970  141.4510 C   0  0  0  0  0  2  0  0  0  0  0  0
  185.8440  177.9090  142.3920 N   0  0  0  0  0  0  0  0  0  0  0  0
  186.3540  177.9960  144.7250 C   0  0  0  0  0  3  0  0  0  0  0  0
  185.0430  178.3910  144.9920 C   0  0  0  0  0  3  0  0  0  0  0  0
  189.1590  178.3290  143.7380 C   0  0  0  0  0  2  0  0  0  0  0  0
  191.8250  176.4770  145.5330 C   0  0  0  0  0  3  0  0  0  0  0  0
  191.2340  176.3470  146.8760 C   0  0  0  0  0  0  0  0  0  0  0  0
  189.4040  177.8950  146.1950 C   0  0  0  0  0  2  0  0  0  0  0  0
  191.1720  177.1180  144.5660 C   0  0  0  0  0  3  0  0  0  0  0  0
  189.8880  177.7010  144.8270 N   0  0  0  0  0  0  0  0  0  0  0  0
  190.0870  176.9760  147.1710 C   0  0  0  0  0  3  0  0  0  0  0  0
  192.9750  175.9960  148.6060 C   0  0  0  0  0  1  0  0  0  0  0  0
  191.8860  175.5400  147.8150 O   0  0  0  0  0  0  0  0  0  0  0  0
  1  3  1  0  0  0  0
  2  8  1  1  0  0  0
  2  1  1  0  0  0  0
  2  4  1  0  0  0  0
  3  6  1  0  0  0  0
  4  5  1  0  0  0  0
  5  6  1  0  0  0  0
  6 23  1  1  0  0  0
  8  7  2  0  0  0  0
  8  9  2  0  0  0  0
 10  8  1  0  0  0  0
 11 16  1  0  0  0  0
 11 10  1  0  0  0  0
 12 11  2  0  0  0  0
 13 14  1  0  0  0  0
 13 15  1  0  0  0  0
 14 15  1  0  0  0  0
 14 10  1  0  0  0  0
 17 16  1  0  0  0  0
 17 22  1  0  0  0  0
 18 22  2  0  0  0  0
 19 21  1  0  0  0  0
 19 20  2  0  0  0  0
 20 18  1  0  0  0  0
 21 17  2  0  0  0  0
 23 25  1  0  0  0  0
 23 35  1  6  0  0  0
 24 28  1  1  0  0  0
 24 30  1  0  0  0  0
 25 33  1  0  0  0  0
 26 30  1  0  0  0  0
 26 34  1  0  0  0  0
 27 24  1  0  0  0  0
 29 26  2  0  0  0  0
 31 27  1  0  0  0  0
 31 29  1  0  0  0  0
 32 29  1  0  0  0  0
 32 25  2  0  0  0  0
 33 34  2  0  0  0  0
 35 40  1  0  0  0  0
 36 37  1  0  0  0  0
 37 41  2  0  0  0  0
 37 43  1  0  0  0  0
 38 41  1  0  0  0  0
 39 40  1  0  0  0  0
 39 36  2  0  0  0  0
 40 38  1  0  0  0  0
 43 42  1  0  0  0  0
M  END
>  <MODEL>
2

>  <REMARK>
 VINA RESULT:      -8.9      2.785      9.356
  Name = 
  10 active torsions:
  status: ('A' for Active; 'I' for Inactive)
    1  A    between atoms: C_1  and  C_34
    2  A    between atoms: C_1  and  N_35
    3  A    between atoms: N_4  and  S_12
    4  A    between atoms: N_4  and  C_15
    5  A    between atoms: C_6  and  S_12
    6  A    between atoms: C_8  and  C_34
    7  A    between atoms: C_11  and  C_14
    8  A    between atoms: C_14  and  C_22
    9  A    between atoms: C_19  and  O_37
   10  A    between atoms: C_34  and  C_38
                            x       y       z     vdW  Elec       q    Type
                         _______ _______ _______ _____ _____    ______ ____

>  <TORSDO>
F 10

$$$$
=
 OpenBabel10262422393D

 43 48  0  0  1  0  0  0  0  0999 V2000
  191.5000  177.3950  141.4740 C   0  0  0  0  0  2  0  0  0  0  0  0
  190.0380  177.5640  141.9220 C   0  0  1  0  0  3  0  0  0  0  0  0
  191.6630  177.3500  139.9550 C   0  0  0  0  0  2  0  0  0  0  0  0
  189.0350  177.5520  140.7610 C   0  0  0  0  0  2  0  0  0  0  0  0
  189.2860  176.3810  139.8100 C   0  0  0  0  0  2  0  0  0  0  0  0
  190.7570  176.2710  139.3600 C   0  0  1  0  0  3  0  0  0  0  0  0
  190.6580  175.2360  143.0990 O   0  0  0  0  0  0  0  0  0  0  0  0
  189.6240  176.3260  143.1420 S   0  0  0  0  0  0  0  0  0  0  0  0
  188.2790  175.7270  142.8350 O   0  0  0  0  0  0  0  0  0  0  0  0
  189.5870  177.0530  144.7250 N   0  0  0  0  0  0  0  0  0  0  0  0
  188.3270  177.4280  145.3130 C   0  0  0  0  0  0  0  0  0  0  0  0
  188.2930  178.2710  146.2510 O   0  0  0  0  0  0  0  0  0  0  0  0
  191.0680  176.7440  146.6520 C   0  0  0  0  0  2  0  0  0  0  0  0
  190.8400  177.4880  145.3440 C   0  0  0  0  0  3  0  0  0  0  0  0
  191.8190  176.3260  145.4140 C   0  0  0  0  0  2  0  0  0  0  0  0
  187.0430  176.8080  144.8560 C   0  0  0  0  0  2  0  0  0  0  0  0
  186.0760  177.8580  144.4210 C   0  0  0  0  0  0  0  0  0  0  0  0
  184.2670  179.3710  144.9180 C   0  0  0  0  0  3  0  0  0  0  0  0
  185.1120  179.2450  142.7010 C   0  0  0  0  0  3  0  0  0  0  0  0
  184.2520  179.7670  143.6160 N   0  0  0  0  0  0  0  0  0  0  0  0
  186.0420  178.2770  143.0880 C   0  0  0  0  0  3  0  0  0  0  0  0
  185.1810  178.4040  145.3450 C   0  0  0  0  0  3  0  0  0  0  0  0
  190.9130  176.1830  137.8370 C   0  0  2  0  0  3  0  0  0  0  0  0
  196.6960  175.3020  134.9120 C   0  0  1  0  0  3  0  0  0  0  0  0
  192.2940  175.7790  137.4040 C   0  0  0  0  0  0  0  0  0  0  0  0
  194.8200  174.9890  136.5570 C   0  0  0  0  0  0  0  0  0  0  0  0
  196.4460  176.7990  135.0500 C   0  0  0  0  0  2  0  0  0  0  0  0
  198.0610  175.0710  134.7420 O   0  0  0  0  0  1  0  0  0  0  0  0
  194.2490  176.2020  136.1150 C   0  0  0  0  0  0  0  0  0  0  0  0
  196.2180  174.5870  136.1730 C   0  0  0  0  0  2  0  0  0  0  0  0
  194.9440  177.0680  135.1000 C   0  0  0  0  0  2  0  0  0  0  0  0
  193.0030  176.5500  136.5310 N   0  0  0  0  0  0  0  0  0  0  0  0
  192.8340  174.5790  137.8720 C   0  0  0  0  0  3  0  0  0  0  0  0
  194.1050  174.1880  137.4490 C   0  0  0  0  0  3  0  0  0  0  0  0
  190.4660  177.4790  137.1660 C   0  0  0  0  0  2  0  0  0  0  0  0
  186.9400  178.5490  136.7370 C   0  0  0  0  0  3  0  0  0  0  0  0
  186.3030  177.2890  136.3150 C   0  0  0  0  0  0  0  0  0  0  0  0
  188.5580  176.2500  136.1000 C   0  0  0  0  0  2  0  0  0  0  0  0
  188.2480  178.5980  136.9800 C   0  0  0  0  0  3  0  0  0  0  0  0
  189.0550  177.4230  136.8210 N   0  0  0  0  0  0  0  0  0  0  0  0
  187.0550  176.2090  136.0560 C   0  0  0  0  0  3  0  0  0  0  0  0
  184.1260  176.1740  136.7200 C   0  0  0  0  0  1  0  0  0  0  0  0
  184.9090  177.2480  136.2150 O   0  0  0  0  0  0  0  0  0  0  0  0
  1  2  1  0  0  0  0
  2  8  1  1  0  0  0
  3  1  1  0  0  0  0
  4  2  1  0  0  0  0
  5  4  1  0  0  0  0
  6 23  1  6  0  0  0
  6  5  1  0  0  0  0
  6  3  1  0  0  0  0
  7  8  2  0  0  0  0
  8 10  1  0  0  0  0
  9  8  2  0  0  0  0
 10 11  1  0  0  0  0
 10 14  1  0  0  0  0
 11 12  2  0  0  0  0
 14 15  1  0  0  0  0
 14 13  1  0  0  0  0
 15 13  1  0  0  0  0
 16 11  1  0  0  0  0
 17 16  1  0  0  0  0
 17 22  1  0  0  0  0
 18 22  2  0  0  0  0
 19 21  1  0  0  0  0
 19 20  2  0  0  0  0
 20 18  1  0  0  0  0
 21 17  2  0  0  0  0
 23 35  1  6  0  0  0
 24 28  1  1  0  0  0
 24 27  1  0  0  0  0
 24 30  1  0  0  0  0
 25 23  1  0  0  0  0
 25 33  1  0  0  0  0
 26 34  1  0  0  0  0
 27 31  1  0  0  0  0
 29 32  1  0  0  0  0
 29 26  2  0  0  0  0
 30 26  1  0  0  0  0
 31 29  1  0  0  0  0
 32 25  2  0  0  0  0
 34 33  2  0  0  0  0
 36 39  2  0  0  0  0
 37 36  1  0  0  0  0
 38 40  1  0  0  0  0
 40 39  1  0  0  0  0
 40 35  1  0  0  0  0
 41 38  1  0  0  0  0
 41 37  2  0  0  0  0
 43 37  1  0  0  0  0
 43 42  1  0  0  0  0
M  END
>  <MODEL>
3

>  <REMARK>
 VINA RESULT:      -8.8      1.164      6.229
  Name = 
  10 active torsions:
  status: ('A' for Active; 'I' for Inactive)
    1  A    between atoms: C_1  and  C_34
    2  A    between atoms: C_1  and  N_35
    3  A    between atoms: N_4  and  S_12
    4  A    between atoms: N_4  and  C_15
    5  A    between atoms: C_6  and  S_12
    6  A    between atoms: C_8  and  C_34
    7  A    between atoms: C_11  and  C_14
    8  A    between atoms: C_14  and  C_22
    9  A    between atoms: C_19  and  O_37
   10  A    between atoms: C_34  and  C_38
                            x       y       z     vdW  Elec       q    Type
                         _______ _______ _______ _____ _____    ______ ____

>  <TORSDO>
F 10

$$$$
=
 OpenBabel10262422393D

 43 48  0  0  1  0  0  0  0  0999 V2000
  188.7960  178.3820  139.6710 C   0  0  0  0  0  2  0  0  0  0  0  0
  190.1340  177.6730  139.4020 C   0  0  1  0  0  3  0  0  0  0  0  0
  188.4840  178.5360  141.1590 C   0  0  0  0  0  2  0  0  0  0  0  0
  190.8330  177.1780  140.6740 C   0  0  0  0  0  2  0  0  0  0  0  0
  189.8720  176.4130  141.5860 C   0  0  0  0  0  2  0  0  0  0  0  0
  188.5590  177.1760  141.8570 C   0  0  1  0  0  3  0  0  0  0  0  0
  188.4620  175.8950  138.2910 O   0  0  0  0  0  0  0  0  0  0  0  0
  189.8970  176.3380  138.2370 S   0  0  0  0  0  0  0  0  0  0  0  0
  190.7750  175.1740  138.6010 O   0  0  0  0  0  0  0  0  0  0  0  0
  190.2950  176.8850  136.6310 N   0  0  0  0  0  0  0  0  0  0  0  0
  189.3820  177.7400  135.9180 C   0  0  0  0  0  0  0  0  0  0  0  0
  189.4570  177.8370  134.6620 O   0  0  0  0  0  0  0  0  0  0  0  0
  191.2280  174.7940  135.7600 C   0  0  0  0  0  2  0  0  0  0  0  0
  191.4360  176.2920  135.9330 C   0  0  0  0  0  3  0  0  0  0  0  0
  190.9920  175.7210  134.5950 C   0  0  0  0  0  2  0  0  0  0  0  0
  188.3540  178.5530  136.6420 C   0  0  0  0  0  2  0  0  0  0  0  0
  186.9840  178.0230  136.3830 C   0  0  0  0  0  0  0  0  0  0  0  0
  184.7840  177.4360  137.1730 C   0  0  0  0  0  3  0  0  0  0  0  0
  185.3500  177.0550  134.8970 C   0  0  0  0  0  3  0  0  0  0  0  0
  184.4600  177.0000  135.9250 N   0  0  0  0  0  0  0  0  0  0  0  0
  186.6320  177.5670  135.1090 C   0  0  0  0  0  3  0  0  0  0  0  0
  186.0560  177.9540  137.4260 C   0  0  0  0  0  3  0  0  0  0  0  0
  188.2290  177.2920  143.3490 C   0  0  2  0  0  3  0  0  0  0  0  0
  182.0540  179.4380  143.1570 C   0  0  1  0  0  3  0  0  0  0  0  0
  186.8110  177.7110  143.6130 C   0  0  0  0  0  0  0  0  0  0  0  0
  184.2070  178.5510  144.1040 C   0  0  0  0  0  0  0  0  0  0  0  0
  182.2630  178.4600  142.0060 C   0  0  0  0  0  2  0  0  0  0  0  0
  180.6920  179.5470  143.4330 O   0  0  0  0  0  1  0  0  0  0  0  0
  184.6390  178.2420  142.7960 C   0  0  0  0  0  0  0  0  0  0  0  0
  182.7810  178.9280  144.3970 C   0  0  0  0  0  2  0  0  0  0  0  0
  183.7370  178.4410  141.6090 C   0  0  0  0  0  2  0  0  0  0  0  0
  185.9250  177.8530  142.5860 N   0  0  0  0  0  0  0  0  0  0  0  0
  186.4130  177.9970  144.9210 C   0  0  0  0  0  3  0  0  0  0  0  0
  185.1040  178.4130  145.1640 C   0  0  0  0  0  3  0  0  0  0  0  0
  189.2300  178.1990  144.0620 C   0  0  0  0  0  2  0  0  0  0  0  0
  190.1270  176.6830  147.3260 C   0  0  0  0  0  3  0  0  0  0  0  0
  191.4780  176.1690  147.0460 C   0  0  0  0  0  0  0  0  0  0  0  0
  191.1510  176.6930  144.6320 C   0  0  0  0  0  2  0  0  0  0  0  0
  189.4270  177.2990  146.3760 C   0  0  0  0  0  3  0  0  0  0  0  0
  189.9790  177.4570  145.0620 N   0  0  0  0  0  0  0  0  0  0  0  0
  191.9690  176.2090  145.7980 C   0  0  0  0  0  3  0  0  0  0  0  0
  193.0310  176.4840  148.9540 C   0  0  0  0  0  1  0  0  0  0  0  0
  192.2320  175.6640  148.1100 O   0  0  0  0  0  0  0  0  0  0  0  0
  1  3  1  0  0  0  0
  2  8  1  6  0  0  0
  2  1  1  0  0  0  0
  2  4  1  0  0  0  0
  3  6  1  0  0  0  0
  4  5  1  0  0  0  0
  5  6  1  0  0  0  0
  6 23  1  1  0  0  0
  8  7  2  0  0  0  0
  8  9  2  0  0  0  0
 10  8  1  0  0  0  0
 11 10  1  0  0  0  0
 11 16  1  0  0  0  0
 12 11  2  0  0  0  0
 13 14  1  0  0  0  0
 14 10  1  0  0  0  0
 15 13  1  0  0  0  0
 15 14  1  0  0  0  0
 17 16  1  0  0  0  0
 17 22  1  0  0  0  0
 18 22  2  0  0  0  0
 19 21  1  0  0  0  0
 19 20  2  0  0  0  0
 20 18  1  0  0  0  0
 21 17  2  0  0  0  0
 23 25  1  0  0  0  0
 23 35  1  6  0  0  0
 24 28  1  1  0  0  0
 24 30  1  0  0  0  0
 25 33  1  0  0  0  0
 26 30  1  0  0  0  0
 26 34  1  0  0  0  0
 27 24  1  0  0  0  0
 29 26  2  0  0  0  0
 31 27  1  0  0  0  0
 31 29  1  0  0  0  0
 32 29  1  0  0  0  0
 32 25  2  0  0  0  0
 33 34  2  0  0  0  0
 35 40  1  0  0  0  0
 37 36  1  0  0  0  0
 37 43  1  0  0  0  0
 38 40  1  0  0  0  0
 38 41  1  0  0  0  0
 39 36  2  0  0  0  0
 40 39  1  0  0  0  0
 41 37  2  0  0  0  0
 43 42  1  0  0  0  0
M  END
>  <MODEL>
4

>  <REMARK>
 VINA RESULT:      -8.7      2.804      8.465
  Name = 
  10 active torsions:
  status: ('A' for Active; 'I' for Inactive)
    1  A    between atoms: C_1  and  C_34
    2  A    between atoms: C_1  and  N_35
    3  A    between atoms: N_4  and  S_12
    4  A    between atoms: N_4  and  C_15
    5  A    between atoms: C_6  and  S_12
    6  A    between atoms: C_8  and  C_34
    7  A    between atoms: C_11  and  C_14
    8  A    between atoms: C_14  and  C_22
    9  A    between atoms: C_19  and  O_37
   10  A    between atoms: C_34  and  C_38
                            x       y       z     vdW  Elec       q    Type
                         _______ _______ _______ _____ _____    ______ ____

>  <TORSDO>
F 10

$$$$
=
 OpenBabel10262422393D

 43 48  0  0  1  0  0  0  0  0999 V2000
  189.4040  178.3340  137.3110 C   0  0  0  0  0  2  0  0  0  0  0  0
  190.3260  177.3450  136.5770 C   0  0  1  0  0  3  0  0  0  0  0  0
  189.6140  178.3440  138.8240 C   0  0  0  0  0  2  0  0  0  0  0  0
  191.1950  176.5030  137.5180 C   0  0  0  0  0  2  0  0  0  0  0  0
  190.3720  175.8920  138.6540 C   0  0  0  0  0  2  0  0  0  0  0  0
  189.4890  176.9250  139.3830 C   0  0  1  0  0  3  0  0  0  0  0  0
  190.3050  175.5060  134.6260 O   0  0  0  0  0  0  0  0  0  0  0  0
  189.3660  176.3060  135.4850 S   0  0  0  0  0  0  0  0  0  0  0  0
  188.5010  177.1530  134.5950 O   0  0  0  0  0  0  0  0  0  0  0  0
  188.3600  175.2400  136.4270 N   0  0  0  0  0  0  0  0  0  0  0  0
  187.0670  175.6850  136.8770 C   0  0  0  0  0  0  0  0  0  0  0  0
  186.4990  175.1040  137.8430 O   0  0  0  0  0  0  0  0  0  0  0  0
  188.3040  172.7970  136.2420 C   0  0  0  0  0  2  0  0  0  0  0  0
  188.9260  173.9940  136.9470 C   0  0  0  0  0  3  0  0  0  0  0  0
  189.6820  173.2630  135.8480 C   0  0  0  0  0  2  0  0  0  0  0  0
  186.3540  176.8110  136.1960 C   0  0  0  0  0  2  0  0  0  0  0  0
  185.2150  177.2940  137.0280 C   0  0  0  0  0  0  0  0  0  0  0  0
  184.3590  178.6920  138.7950 C   0  0  0  0  0  3  0  0  0  0  0  0
  182.8880  177.2120  137.6580 C   0  0  0  0  0  3  0  0  0  0  0  0
  183.1200  178.1610  138.6050 N   0  0  0  0  0  0  0  0  0  0  0  0
  183.9350  176.7590  136.8510 C   0  0  0  0  0  3  0  0  0  0  0  0
  185.4320  178.2650  138.0100 C   0  0  0  0  0  3  0  0  0  0  0  0
  189.6720  176.9020  140.9050 C   0  0  2  0  0  3  0  0  0  0  0  0
  184.7860  178.2630  145.0350 C   0  0  1  0  0  3  0  0  0  0  0  0
  188.4920  177.4540  141.6540 C   0  0  0  0  0  0  0  0  0  0  0  0
  186.2700  178.4250  143.0120 C   0  0  0  0  0  0  0  0  0  0  0  0
  186.0650  178.0670  145.8430 C   0  0  0  0  0  2  0  0  0  0  0  0
  183.8670  178.9930  145.7870 O   0  0  0  0  0  1  0  0  0  0  0  0
  187.2200  177.6070  143.6600 C   0  0  0  0  0  0  0  0  0  0  0  0
  185.1070  179.0250  143.7530 C   0  0  0  0  0  2  0  0  0  0  0  0
  187.0210  177.1550  145.0810 C   0  0  0  0  0  2  0  0  0  0  0  0
  188.2850  177.1310  142.9620 N   0  0  0  0  0  0  0  0  0  0  0  0
  187.5780  178.2730  140.9850 C   0  0  0  0  0  3  0  0  0  0  0  0
  186.4670  178.7620  141.6710 C   0  0  0  0  0  3  0  0  0  0  0  0
  190.9730  177.5920  141.3100 C   0  0  0  0  0  2  0  0  0  0  0  0
  191.6780  175.9900  144.5800 C   0  0  0  0  0  3  0  0  0  0  0  0
  191.5170  177.1270  145.5010 C   0  0  0  0  0  0  0  0  0  0  0  0
  191.3640  178.6610  143.5430 C   0  0  0  0  0  2  0  0  0  0  0  0
  191.5240  176.1550  143.2680 C   0  0  0  0  0  3  0  0  0  0  0  0
  191.2120  177.4500  142.7360 N   0  0  0  0  0  0  0  0  0  0  0  0
  191.3330  178.3650  145.0180 C   0  0  0  0  0  3  0  0  0  0  0  0
  191.6780  175.5750  147.4280 C   0  0  0  0  0  1  0  0  0  0  0  0
  191.5400  176.8780  146.8770 O   0  0  0  0  0  0  0  0  0  0  0  0
  1  3  1  0  0  0  0
  2  8  1  1  0  0  0
  2  1  1  0  0  0  0
  2  4  1  0  0  0  0
  3  6  1  0  0  0  0
  4  5  1  0  0  0  0
  5  6  1  0  0  0  0
  6 23  1  1  0  0  0
  7  8  2  0  0  0  0
  8 10  1  0  0  0  0
  9  8  2  0  0  0  0
 10 11  1  0  0  0  0
 10 14  1  0  0  0  0
 11 12  2  0  0  0  0
 13 14  1  0  0  0  0
 15 13  1  0  0  0  0
 15 14  1  0  0  0  0
 16 11  1  0  0  0  0
 16 17  1  0  0  0  0
 17 22  1  0  0  0  0
 19 20  2  0  0  0  0
 20 18  1  0  0  0  0
 21 17  2  0  0  0  0
 21 19  1  0  0  0  0
 22 18  2  0  0  0  0
 23 35  1  6  0  0  0
 23 25  1  0  0  0  0
 24 28  1  1  0  0  0
 24 27  1  0  0  0  0
 25 32  1  0  0  0  0
 26 29  1  0  0  0  0
 26 30  1  0  0  0  0
 29 31  1  0  0  0  0
 30 24  1  0  0  0  0
 31 27  1  0  0  0  0
 32 29  2  0  0  0  0
 33 25  2  0  0  0  0
 33 34  1  0  0  0  0
 34 26  2  0  0  0  0
 35 40  1  0  0  0  0
 36 37  1  0  0  0  0
 37 43  1  0  0  0  0
 38 41  1  0  0  0  0
 39 36  2  0  0  0  0
 40 39  1  0  0  0  0
 40 38  1  0  0  0  0
 41 37  2  0  0  0  0
 43 42  1  0  0  0  0
M  END
>  <MODEL>
5

>  <REMARK>
 VINA RESULT:      -8.3      2.895      7.913
  Name = 
  10 active torsions:
  status: ('A' for Active; 'I' for Inactive)
    1  A    between atoms: C_1  and  C_34
    2  A    between atoms: C_1  and  N_35
    3  A    between atoms: N_4  and  S_12
    4  A    between atoms: N_4  and  C_15
    5  A    between atoms: C_6  and  S_12
    6  A    between atoms: C_8  and  C_34
    7  A    between atoms: C_11  and  C_14
    8  A    between atoms: C_14  and  C_22
    9  A    between atoms: C_19  and  O_37
   10  A    between atoms: C_34  and  C_38
                            x       y       z     vdW  Elec       q    Type
                         _______ _______ _______ _____ _____    ______ ____

>  <TORSDO>
F 10

$$$$
=
 OpenBabel10262422393D

 43 48  0  0  1  0  0  0  0  0999 V2000
  181.9940  178.9080  142.0480 C   0  0  0  0  0  2  0  0  0  0  0  0
  181.7320  179.2800  140.5790 C   0  0  1  0  0  3  0  0  0  0  0  0
  183.4770  178.9170  142.4170 C   0  0  0  0  0  2  0  0  0  0  0  0
  183.0120  179.4860  139.7610 C   0  0  0  0  0  2  0  0  0  0  0  0
  184.0060  178.3410  139.9670 C   0  0  0  0  0  2  0  0  0  0  0  0
  184.2650  178.0260  141.4540 C   0  0  1  0  0  3  0  0  0  0  0  0
  179.3990  177.9580  140.6110 O   0  0  0  0  0  0  0  0  0  0  0  0
  180.6710  178.0590  139.8180 S   0  0  0  0  0  0  0  0  0  0  0  0
  181.3470  176.7160  139.8170 O   0  0  0  0  0  0  0  0  0  0  0  0
  180.3190  178.5320  138.1780 N   0  0  0  0  0  0  0  0  0  0  0  0
  179.4980  179.6880  137.9250 C   0  0  0  0  0  0  0  0  0  0  0  0
  178.9310  179.8280  136.8070 O   0  0  0  0  0  0  0  0  0  0  0  0
  181.6920  178.2750  136.1650 C   0  0  0  0  0  2  0  0  0  0  0  0
  180.6630  177.6270  137.0810 C   0  0  0  0  0  3  0  0  0  0  0  0
  182.1310  177.2370  137.1650 C   0  0  0  0  0  2  0  0  0  0  0  0
  179.3270  180.7580  138.9580 C   0  0  0  0  0  2  0  0  0  0  0  0
  179.8000  182.0740  138.4370 C   0  0  0  0  0  0  0  0  0  0  0  0
  179.4480  184.4310  138.0780 C   0  0  0  0  0  3  0  0  0  0  0  0
  181.4370  183.4090  137.2740 C   0  0  0  0  0  3  0  0  0  0  0  0
  180.6460  184.5040  137.4360 N   0  0  0  0  0  0  0  0  0  0  0  0
  181.0260  182.1700  137.7720 C   0  0  0  0  0  3  0  0  0  0  0  0
  179.0010  183.2100  138.5900 C   0  0  0  0  0  3  0  0  0  0  0  0
  185.7560  177.9950  141.8100 C   0  0  2  0  0  3  0  0  0  0  0  0
  187.9070  177.5250  147.9690 C   0  0  1  0  0  3  0  0  0  0  0  0
  186.0160  178.0920  143.2870 C   0  0  0  0  0  0  0  0  0  0  0  0
  186.4650  178.2110  146.0270 C   0  0  0  0  0  0  0  0  0  0  0  0
  189.1000  177.7860  147.0570 C   0  0  0  0  0  2  0  0  0  0  0  0
  188.2330  177.8800  149.2770 O   0  0  0  0  0  1  0  0  0  0  0  0
  187.4740  177.7750  145.1410 C   0  0  0  0  0  0  0  0  0  0  0  0
  186.7170  178.3600  147.5020 C   0  0  0  0  0  2  0  0  0  0  0  0
  188.7970  177.2730  145.6520 C   0  0  0  0  0  2  0  0  0  0  0  0
  187.2160  177.7080  143.8090 N   0  0  0  0  0  0  0  0  0  0  0  0
  184.9990  178.5410  144.1330 C   0  0  0  0  0  3  0  0  0  0  0  0
  185.2300  178.6040  145.5070 C   0  0  0  0  0  3  0  0  0  0  0  0
  186.5280  179.0550  141.0280 C   0  0  0  0  0  2  0  0  0  0  0  0
  189.6870  177.3670  140.0630 C   0  0  0  0  0  3  0  0  0  0  0  0
  189.5970  177.4010  138.5940 C   0  0  0  0  0  0  0  0  0  0  0  0
  187.2470  178.2110  138.7800 C   0  0  0  0  0  2  0  0  0  0  0  0
  188.7090  177.8720  140.8130 C   0  0  0  0  0  3  0  0  0  0  0  0
  187.5470  178.4420  140.1940 N   0  0  0  0  0  0  0  0  0  0  0  0
  188.4740  177.8300  137.9970 C   0  0  0  0  0  3  0  0  0  0  0  0
  191.8150  176.3060  138.4170 C   0  0  0  0  0  1  0  0  0  0  0  0
  190.7100  176.9970  137.8490 O   0  0  0  0  0  0  0  0  0  0  0  0
  1  3  1  0  0  0  0
  2  8  1  6  0  0  0
  2  1  1  0  0  0  0
  4  5  1  0  0  0  0
  4  2  1  0  0  0  0
  5  6  1  0  0  0  0
  6 23  1  1  0  0  0
  6  3  1  0  0  0  0
  8  7  2  0  0  0  0
  9  8  2  0  0  0  0
 10  8  1  0  0  0  0
 11 10  1  0  0  0  0
 11 16  1  0  0  0  0
 12 11  2  0  0  0  0
 13 14  1  0  0  0  0
 13 15  1  0  0  0  0
 14 15  1  0  0  0  0
 14 10  1  0  0  0  0
 17 22  1  0  0  0  0
 17 16  1  0  0  0  0
 18 22  2  0  0  0  0
 19 20  2  0  0  0  0
 19 21  1  0  0  0  0
 20 18  1  0  0  0  0
 21 17  2  0  0  0  0
 23 35  1  6  0  0  0
 23 25  1  0  0  0  0
 24 28  1  1  0  0  0
 25 32  2  0  0  0  0
 25 33  1  0  0  0  0
 26 30  1  0  0  0  0
 27 24  1  0  0  0  0
 29 31  1  0  0  0  0
 29 26  2  0  0  0  0
 30 24  1  0  0  0  0
 31 27  1  0  0  0  0
 32 29  1  0  0  0  0
 33 34  2  0  0  0  0
 34 26  1  0  0  0  0
 36 39  2  0  0  0  0
 37 36  1  0  0  0  0
 38 40  1  0  0  0  0
 40 39  1  0  0  0  0
 40 35  1  0  0  0  0
 41 37  2  0  0  0  0
 41 38  1  0  0  0  0
 43 42  1  0  0  0  0
 43 37  1  0  0  0  0
M  END
>  <MODEL>
6

>  <REMARK>
 VINA RESULT:      -8.1      4.742      9.750
  Name = 
  10 active torsions:
  status: ('A' for Active; 'I' for Inactive)
    1  A    between atoms: C_1  and  C_34
    2  A    between atoms: C_1  and  N_35
    3  A    between atoms: N_4  and  S_12
    4  A    between atoms: N_4  and  C_15
    5  A    between atoms: C_6  and  S_12
    6  A    between atoms: C_8  and  C_34
    7  A    between atoms: C_11  and  C_14
    8  A    between atoms: C_14  and  C_22
    9  A    between atoms: C_19  and  O_37
   10  A    between atoms: C_34  and  C_38
                            x       y       z     vdW  Elec       q    Type
                         _______ _______ _______ _____ _____    ______ ____

>  <TORSDO>
F 10

$$$$
=
 OpenBabel10262422393D

 43 48  0  0  1  0  0  0  0  0999 V2000
  182.1530  179.7790  139.4650 C   0  0  0  0  0  2  0  0  0  0  0  0
  181.5360  178.5670  138.7460 C   0  0  1  0  0  3  0  0  0  0  0  0
  183.6240  179.5810  139.8250 C   0  0  0  0  0  2  0  0  0  0  0  0
  182.4900  177.3730  138.6260 C   0  0  0  0  0  2  0  0  0  0  0  0
  183.1660  177.0540  139.9610 C   0  0  0  0  0  2  0  0  0  0  0  0
  183.8010  178.2900  140.6290 C   0  0  1  0  0  3  0  0  0  0  0  0
  180.2470  176.8400  140.3410 O   0  0  0  0  0  0  0  0  0  0  0  0
  180.0090  178.0920  139.5440 S   0  0  0  0  0  0  0  0  0  0  0  0
  178.9510  177.8140  138.5130 O   0  0  0  0  0  0  0  0  0  0  0  0
  179.4730  179.3770  140.5930 N   0  0  0  0  0  0  0  0  0  0  0  0
  179.3030  180.7070  140.0690 C   0  0  0  0  0  0  0  0  0  0  0  0
  179.2870  181.6970  140.8500 O   0  0  0  0  0  0  0  0  0  0  0  0
  180.8310  179.0700  142.6090 C   0  0  0  0  0  2  0  0  0  0  0  0
  179.4230  179.1490  142.0380 C   0  0  0  0  0  3  0  0  0  0  0  0
  180.0280  180.3340  142.7750 C   0  0  0  0  0  2  0  0  0  0  0  0
  179.1060  180.9440  138.6030 C   0  0  0  0  0  2  0  0  0  0  0  0
  179.5980  182.2980  138.2170 C   0  0  0  0  0  0  0  0  0  0  0  0
  181.2080  183.6980  137.0970 C   0  0  0  0  0  3  0  0  0  0  0  0
  179.4240  184.7010  138.3040 C   0  0  0  0  0  3  0  0  0  0  0  0
  180.5430  184.8010  137.5360 N   0  0  0  0  0  0  0  0  0  0  0  0
  178.9310  183.4440  138.6600 C   0  0  0  0  0  3  0  0  0  0  0  0
  180.7470  182.4230  137.4330 C   0  0  0  0  0  3  0  0  0  0  0  0
  185.2650  178.0730  141.0260 C   0  0  2  0  0  3  0  0  0  0  0  0
  187.2940  177.5880  147.2250 C   0  0  1  0  0  3  0  0  0  0  0  0
  185.5000  178.1700  142.5070 C   0  0  0  0  0  0  0  0  0  0  0  0
  185.9000  178.2920  145.2550 C   0  0  0  0  0  0  0  0  0  0  0  0
  188.5090  177.8260  146.3340 C   0  0  0  0  0  2  0  0  0  0  0  0
  187.6020  177.9430  148.5380 O   0  0  0  0  0  1  0  0  0  0  0  0
  186.9180  177.8360  144.3890 C   0  0  0  0  0  0  0  0  0  0  0  0
  186.1280  178.4410  146.7340 C   0  0  0  0  0  2  0  0  0  0  0  0
  188.2220  177.3130  144.9260 C   0  0  0  0  0  2  0  0  0  0  0  0
  186.6830  177.7680  143.0520 N   0  0  0  0  0  0  0  0  0  0  0  0
  184.4760  178.6390  143.3330 C   0  0  0  0  0  3  0  0  0  0  0  0
  184.6820  178.7040  144.7110 C   0  0  0  0  0  3  0  0  0  0  0  0
  186.1890  179.0030  140.2440 C   0  0  0  0  0  2  0  0  0  0  0  0
  189.0690  177.1370  138.8360 C   0  0  0  0  0  3  0  0  0  0  0  0
  188.6370  176.9450  137.4410 C   0  0  0  0  0  0  0  0  0  0  0  0
  186.3800  177.8120  138.0460 C   0  0  0  0  0  2  0  0  0  0  0  0
  188.2830  177.7660  139.7070 C   0  0  0  0  0  3  0  0  0  0  0  0
  186.9980  178.2530  139.2980 N   0  0  0  0  0  0  0  0  0  0  0  0
  187.3980  177.2950  137.0660 C   0  0  0  0  0  3  0  0  0  0  0  0
  189.2430  175.3340  135.6560 C   0  0  0  0  0  1  0  0  0  0  0  0
  189.5530  176.4140  136.5270 O   0  0  0  0  0  0  0  0  0  0  0  0
  1  3  1  0  0  0  0
  2  1  1  0  0  0  0
  2  8  1  1  0  0  0
  3  6  1  0  0  0  0
  4  2  1  0  0  0  0
  4  5  1  0  0  0  0
  5  6  1  0  0  0  0
  6 23  1  6  0  0  0
  8  7  2  0  0  0  0
  8 10  1  0  0  0  0
  9  8  2  0  0  0  0
 10 14  1  0  0  0  0
 11 10  1  0  0  0  0
 11 12  2  0  0  0  0
 13 15  1  0  0  0  0
 14 13  1  0  0  0  0
 14 15  1  0  0  0  0
 16 11  1  0  0  0  0
 17 16  1  0  0  0  0
 17 21  1  0  0  0  0
 18 22  1  0  0  0  0
 18 20  2  0  0  0  0
 19 21  2  0  0  0  0
 20 19  1  0  0  0  0
 22 17  2  0  0  0  0
 23 35  1  6  0  0  0
 23 25  1  0  0  0  0
 24 28  1  1  0  0  0
 25 32  2  0  0  0  0
 25 33  1  0  0  0  0
 26 30  1  0  0  0  0
 27 24  1  0  0  0  0
 29 31  1  0  0  0  0
 29 26  2  0  0  0  0
 30 24  1  0  0  0  0
 31 27  1  0  0  0  0
 32 29  1  0  0  0  0
 33 34  2  0  0  0  0
 34 26  1  0  0  0  0
 36 39  2  0  0  0  0
 37 36  1  0  0  0  0
 38 40  1  0  0  0  0
 40 39  1  0  0  0  0
 40 35  1  0  0  0  0
 41 37  2  0  0  0  0
 41 38  1  0  0  0  0
 42 43  1  0  0  0  0
 43 37  1  0  0  0  0
M  END
>  <MODEL>
7

>  <REMARK>
 VINA RESULT:      -7.8      5.064      9.521
  Name = 
  10 active torsions:
  status: ('A' for Active; 'I' for Inactive)
    1  A    between atoms: C_1  and  C_34
    2  A    between atoms: C_1  and  N_35
    3  A    between atoms: N_4  and  S_12
    4  A    between atoms: N_4  and  C_15
    5  A    between atoms: C_6  and  S_12
    6  A    between atoms: C_8  and  C_34
    7  A    between atoms: C_11  and  C_14
    8  A    between atoms: C_14  and  C_22
    9  A    between atoms: C_19  and  O_37
   10  A    between atoms: C_34  and  C_38
                            x       y       z     vdW  Elec       q    Type
                         _______ _______ _______ _____ _____    ______ ____

>  <TORSDO>
F 10

$$$$
=
 OpenBabel10262422393D

 43 48  0  0  1  0  0  0  0  0999 V2000
  184.0490  178.8510  138.5840 C   0  0  0  0  0  2  0  0  0  0  0  0
  182.8290  178.1670  139.2230 C   0  0  1  0  0  3  0  0  0  0  0  0
  185.3800  178.3750  139.1640 C   0  0  0  0  0  2  0  0  0  0  0  0
  183.1900  177.2230  140.3770 C   0  0  0  0  0  2  0  0  0  0  0  0
  184.1500  177.8830  141.3680 C   0  0  0  0  0  2  0  0  0  0  0  0
  185.3760  178.5260  140.6870 C   0  0  1  0  0  3  0  0  0  0  0  0
  182.2790  180.7540  139.6660 O   0  0  0  0  0  0  0  0  0  0  0  0
  181.6400  179.3950  139.7450 S   0  0  0  0  0  0  0  0  0  0  0  0
  181.2240  179.1400  141.1660 O   0  0  0  0  0  0  0  0  0  0  0  0
  180.2400  179.3310  138.7100 N   0  0  0  0  0  0  0  0  0  0  0  0
  180.0720  180.3120  137.6690 C   0  0  0  0  0  0  0  0  0  0  0  0
  178.9310  180.5160  137.1710 O   0  0  0  0  0  0  0  0  0  0  0  0
  178.9420  177.3980  137.9480 C   0  0  0  0  0  2  0  0  0  0  0  0
  179.1380  178.4300  139.0490 C   0  0  0  0  0  3  0  0  0  0  0  0
  179.6570  177.0100  139.2160 C   0  0  0  0  0  2  0  0  0  0  0  0
  181.2390  181.0790  137.1300 C   0  0  0  0  0  2  0  0  0  0  0  0
  180.8300  182.4620  136.7480 C   0  0  0  0  0  0  0  0  0  0  0  0
  180.1900  184.7010  137.3680 C   0  0  0  0  0  3  0  0  0  0  0  0
  180.2490  184.0940  135.0720 C   0  0  0  0  0  3  0  0  0  0  0  0
  180.0270  185.0110  136.0530 N   0  0  0  0  0  0  0  0  0  0  0  0
  180.6540  182.8000  135.4030 C   0  0  0  0  0  3  0  0  0  0  0  0
  180.5930  183.4170  137.7410 C   0  0  0  0  0  3  0  0  0  0  0  0
  186.7070  178.0770  141.2990 C   0  0  2  0  0  3  0  0  0  0  0  0
  187.8070  177.4690  147.7180 C   0  0  1  0  0  3  0  0  0  0  0  0
  186.7250  178.1480  142.8000 C   0  0  0  0  0  0  0  0  0  0  0  0
  186.7220  178.2220  145.5780 C   0  0  0  0  0  0  0  0  0  0  0  0
  189.1410  177.7040  147.0170 C   0  0  0  0  0  2  0  0  0  0  0  0
  187.9250  177.7990  149.0670 O   0  0  0  0  0  1  0  0  0  0  0  0
  187.8500  177.7660  144.8620 C   0  0  0  0  0  0  0  0  0  0  0  0
  186.7340  178.3450  147.0770 C   0  0  0  0  0  2  0  0  0  0  0  0
  189.0570  177.2170  145.5730 C   0  0  0  0  0  2  0  0  0  0  0  0
  187.8120  177.7220  143.5040 N   0  0  0  0  0  0  0  0  0  0  0  0
  185.5960  178.6180  143.4760 C   0  0  0  0  0  3  0  0  0  0  0  0
  185.6010  178.6590  144.8710 C   0  0  0  0  0  3  0  0  0  0  0  0
  187.8780  178.8380  140.6820 C   0  0  0  0  0  2  0  0  0  0  0  0
  189.1580  176.4040  138.1920 C   0  0  0  0  0  3  0  0  0  0  0  0
  190.4620  176.0500  138.7760 C   0  0  0  0  0  0  0  0  0  0  0  0
  190.1810  177.8740  140.4510 C   0  0  0  0  0  2  0  0  0  0  0  0
  188.3670  177.2930  138.7900 C   0  0  0  0  0  3  0  0  0  0  0  0
  188.7870  177.9280  140.0060 N   0  0  0  0  0  0  0  0  0  0  0  0
  190.9210  176.7100  139.8510 C   0  0  0  0  0  3  0  0  0  0  0  0
  191.1740  174.7280  136.8030 C   0  0  0  0  0  1  0  0  0  0  0  0
  191.1900  175.0060  138.1970 O   0  0  0  0  0  0  0  0  0  0  0  0
  1  3  1  0  0  0  0
  1  2  1  0  0  0  0
  2  8  1  1  0  0  0
  2  4  1  0  0  0  0
  3  6  1  0  0  0  0
  4  5  1  0  0  0  0
  6 23  1  1  0  0  0
  6  5  1  0  0  0  0
  7  8  2  0  0  0  0
  8  9  2  0  0  0  0
 10 14  1  0  0  0  0
 10  8  1  0  0  0  0
 11 10  1  0  0  0  0
 12 11  2  0  0  0  0
 13 14  1  0  0  0  0
 13 15  1  0  0  0  0
 14 15  1  0  0  0  0
 16 11  1  0  0  0  0
 17 16  1  0  0  0  0
 17 22  1  0  0  0  0
 18 22  2  0  0  0  0
 19 21  1  0  0  0  0
 19 20  2  0  0  0  0
 20 18  1  0  0  0  0
 21 17  2  0  0  0  0
 23 35  1  6  0  0  0
 23 25  1  0  0  0  0
 24 28  1  1  0  0  0
 25 33  2  0  0  0  0
 25 32  1  0  0  0  0
 26 30  1  0  0  0  0
 27 24  1  0  0  0  0
 29 31  1  0  0  0  0
 29 26  1  0  0  0  0
 30 24  1  0  0  0  0
 31 27  1  0  0  0  0
 32 29  2  0  0  0  0
 33 34  1  0  0  0  0
 34 26  2  0  0  0  0
 36 37  1  0  0  0  0
 36 39  2  0  0  0  0
 37 41  2  0  0  0  0
 39 40  1  0  0  0  0
 40 38  1  0  0  0  0
 40 35  1  0  0  0  0
 41 38  1  0  0  0  0
 42 43  1  0  0  0  0
 43 37  1  0  0  0  0
M  END
>  <MODEL>
8

>  <REMARK>
 VINA RESULT:      -7.8      4.866      9.621
  Name = 
  10 active torsions:
  status: ('A' for Active; 'I' for Inactive)
    1  A    between atoms: C_1  and  C_34
    2  A    between atoms: C_1  and  N_35
    3  A    between atoms: N_4  and  S_12
    4  A    between atoms: N_4  and  C_15
    5  A    between atoms: C_6  and  S_12
    6  A    between atoms: C_8  and  C_34
    7  A    between atoms: C_11  and  C_14
    8  A    between atoms: C_14  and  C_22
    9  A    between atoms: C_19  and  O_37
   10  A    between atoms: C_34  and  C_38
                            x       y       z     vdW  Elec       q    Type
                         _______ _______ _______ _____ _____    ______ ____

>  <TORSDO>
F 10

$$$$
=
 OpenBabel10262422393D

 43 48  0  0  1  0  0  0  0  0999 V2000
  188.9540  178.9260  141.7570 C   0  0  0  0  0  2  0  0  0  0  0  0
  189.0900  177.7890  142.7830 C   0  0  1  0  0  3  0  0  0  0  0  0
  188.8140  178.4270  140.3190 C   0  0  0  0  0  2  0  0  0  0  0  0
  189.1580  176.3950  142.1490 C   0  0  0  0  0  2  0  0  0  0  0  0
  190.1630  176.3450  140.9970 C   0  0  0  0  0  2  0  0  0  0  0  0
  189.9680  177.4830  139.9740 C   0  0  1  0  0  3  0  0  0  0  0  0
  190.7260  179.5660  143.9480 O   0  0  0  0  0  0  0  0  0  0  0  0
  190.5010  178.0840  143.8410 S   0  0  0  0  0  0  0  0  0  0  0  0
  191.7290  177.4500  143.2510 O   0  0  0  0  0  0  0  0  0  0  0  0
  190.2000  177.4080  145.4190 N   0  0  0  0  0  0  0  0  0  0  0  0
  188.8500  177.1240  145.8320 C   0  0  0  0  0  0  0  0  0  0  0  0
  188.5770  176.9990  147.0580 O   0  0  0  0  0  0  0  0  0  0  0  0
  191.0610  176.2070  147.3720 C   0  0  0  0  0  2  0  0  0  0  0  0
  191.2900  177.3490  146.3930 C   0  0  0  0  0  3  0  0  0  0  0  0
  192.0510  176.0400  146.2480 C   0  0  0  0  0  2  0  0  0  0  0  0
  187.7550  176.9360  144.8290 C   0  0  0  0  0  2  0  0  0  0  0  0
  186.5280  177.6760  145.2430 C   0  0  0  0  0  0  0  0  0  0  0  0
  185.1040  178.5640  146.9730 C   0  0  0  0  0  3  0  0  0  0  0  0
  184.4680  178.8040  144.6960 C   0  0  0  0  0  3  0  0  0  0  0  0
  184.2350  179.0040  146.0220 N   0  0  0  0  0  0  0  0  0  0  0  0
  185.6210  178.1330  144.2820 C   0  0  0  0  0  3  0  0  0  0  0  0
  186.2680  177.8880  146.6000 C   0  0  0  0  0  3  0  0  0  0  0  0
  189.8700  176.9800  138.5300 C   0  0  2  0  0  3  0  0  0  0  0  0
  194.3550  172.7090  136.4270 C   0  0  1  0  0  3  0  0  0  0  0  0
  191.0980  176.2460  138.0710 C   0  0  0  0  0  0  0  0  0  0  0  0
  193.3750  174.8590  137.2860 C   0  0  0  0  0  0  0  0  0  0  0  0
  193.1410  172.6300  135.5070 C   0  0  0  0  0  2  0  0  0  0  0  0
  195.4720  172.1930  135.7700 O   0  0  0  0  0  1  0  0  0  0  0  0
  192.0860  174.3840  136.9650 C   0  0  0  0  0  0  0  0  0  0  0  0
  194.6180  174.1660  136.7990 C   0  0  0  0  0  2  0  0  0  0  0  0
  191.8910  173.0660  136.2660 C   0  0  0  0  0  2  0  0  0  0  0  0
  190.9910  175.0740  137.3820 N   0  0  0  0  0  0  0  0  0  0  0  0
  192.3590  176.7510  138.3950 C   0  0  0  0  0  3  0  0  0  0  0  0
  193.5000  176.0560  137.9950 C   0  0  0  0  0  3  0  0  0  0  0  0
  189.5010  178.1160  137.5790 C   0  0  0  0  0  2  0  0  0  0  0  0
  185.9850  177.6080  136.5120 C   0  0  0  0  0  3  0  0  0  0  0  0
  186.1690  176.9000  135.2340 C   0  0  0  0  0  0  0  0  0  0  0  0
  188.6160  177.3570  135.3600 C   0  0  0  0  0  2  0  0  0  0  0  0
  187.0380  178.0000  137.2260 C   0  0  0  0  0  3  0  0  0  0  0  0
  188.3670  177.7480  136.7480 N   0  0  0  0  0  0  0  0  0  0  0  0
  187.3980  176.7510  134.7170 C   0  0  0  0  0  3  0  0  0  0  0  0
  184.6210  175.0270  134.7410 C   0  0  0  0  0  1  0  0  0  0  0  0
  185.0410  176.3770  134.5940 O   0  0  0  0  0  0  0  0  0  0  0  0
  1  2  1  0  0  0  0
  2  8  1  6  0  0  0
  3  1  1  0  0  0  0
  4  2  1  0  0  0  0
  5  4  1  0  0  0  0
  6 23  1  6  0  0  0
  6  3  1  0  0  0  0
  6  5  1  0  0  0  0
  8  7  2  0  0  0  0
  8 10  1  0  0  0  0
  9  8  2  0  0  0  0
 10 11  1  0  0  0  0
 10 14  1  0  0  0  0
 11 12  2  0  0  0  0
 14 13  1  0  0  0  0
 15 14  1  0  0  0  0
 15 13  1  0  0  0  0
 16 17  1  0  0  0  0
 16 11  1  0  0  0  0
 17 22  1  0  0  0  0
 19 20  2  0  0  0  0
 20 18  1  0  0  0  0
 21 19  1  0  0  0  0
 21 17  2  0  0  0  0
 22 18  2  0  0  0  0
 23 35  1  6  0  0  0
 24 28  1  6  0  0  0
 24 30  1  0  0  0  0
 25 33  1  0  0  0  0
 25 23  1  0  0  0  0
 26 34  1  0  0  0  0
 27 31  1  0  0  0  0
 27 24  1  0  0  0  0
 29 26  2  0  0  0  0
 29 32  1  0  0  0  0
 30 26  1  0  0  0  0
 31 29  1  0  0  0  0
 32 25  2  0  0  0  0
 34 33  2  0  0  0  0
 36 39  2  0  0  0  0
 37 36  1  0  0  0  0
 38 40  1  0  0  0  0
 40 39  1  0  0  0  0
 40 35  1  0  0  0  0
 41 37  2  0  0  0  0
 41 38  1  0  0  0  0
 43 42  1  0  0  0  0
 43 37  1  0  0  0  0
M  END
>  <MODEL>
9

>  <REMARK>
 VINA RESULT:      -7.6      1.613      5.650
  Name = 
  10 active torsions:
  status: ('A' for Active; 'I' for Inactive)
    1  A    between atoms: C_1  and  C_34
    2  A    between atoms: C_1  and  N_35
    3  A    between atoms: N_4  and  S_12
    4  A    between atoms: N_4  and  C_15
    5  A    between atoms: C_6  and  S_12
    6  A    between atoms: C_8  and  C_34
    7  A    between atoms: C_11  and  C_14
    8  A    between atoms: C_14  and  C_22
    9  A    between atoms: C_19  and  O_37
   10  A    between atoms: C_34  and  C_38
                            x       y       z     vdW  Elec       q    Type
                         _______ _______ _______ _____ _____    ______ ____

>  <TORSDO>
F 10

$$$$
