=
 OpenBabel10262422493D

 37 41  0  0  1  0  0  0  0  0999 V2000
  185.9220  180.2260  142.0560 O   0  0  0  0  0  0  0  0  0  0  0  0
  189.2300  177.3900  140.6640 C   0  0  0  0  0  0  0  0  0  0  0  0
  187.4840  176.9270  144.0830 C   0  0  0  0  0  2  0  0  0  0  0  0
  187.5810  177.8010  138.8420 C   0  0  0  0  0  2  0  0  0  0  0  0
  188.3250  178.0190  141.7090 C   0  0  2  0  0  3  0  0  0  0  0  0
  188.9360  177.4320  139.3690 C   0  0  0  0  0  0  0  0  0  0  0  0
  188.5760  177.5180  143.1560 C   0  0  1  0  0  3  0  0  0  0  0  0
  189.9480  176.9420  138.5030 N   0  0  0  0  0  2  0  0  0  0  0  0
  186.8130  178.7250  139.7910 C   0  0  2  0  0  3  0  0  0  0  0  0
  190.8600  176.0630  141.8980 C   0  0  0  0  0  2  0  0  0  0  0  0
  191.4720  176.6570  139.3500 S   0  0  0  0  0  0  0  0  0  0  0  0
  186.0300  176.9600  143.6290 C   0  0  0  0  0  2  0  0  0  0  0  0
  190.5910  176.8800  140.8910 C   0  0  0  0  0  0  0  0  0  0  0  0
  186.8740  178.1740  141.2260 C   0  0  2  0  0  3  0  0  0  0  0  0
  185.5960  178.3310  143.3850 N   0  0  0  0  0  0  0  0  0  0  0  0
  186.0860  178.9860  142.2140 C   0  0  0  0  0  0  0  0  0  0  0  0
  189.5530  178.4370  143.8950 C   0  0  2  0  0  3  0  0  0  0  0  0
  190.6100  178.8210  143.0630 O   0  0  0  0  0  1  0  0  0  0  0  0
  191.2540  177.1210  145.1690 C   0  0  0  0  0  3  0  0  0  0  0  0
  190.0590  177.8470  145.1780 C   0  0  0  0  0  0  0  0  0  0  0  0
  189.3720  178.0360  146.3850 C   0  0  0  0  0  3  0  0  0  0  0  0
  189.1960  177.6560  148.7310 F   0  0  0  0  0  0  0  0  0  0  0  0
  191.0600  176.7540  147.5560 C   0  0  0  0  0  3  0  0  0  0  0  0
  189.8700  177.4850  147.5700 C   0  0  0  0  0  0  0  0  0  0  0  0
  191.7520  176.5730  146.3560 C   0  0  0  0  0  3  0  0  0  0  0  0
  185.3660  178.8080  139.3170 C   0  0  0  0  0  2  0  0  0  0  0  0
  185.2080  178.1590  137.9490 C   0  0  0  0  0  2  0  0  0  0  0  0
  183.8250  177.7620  137.7430 N   0  0  0  0  0  2  0  0  0  0  0  0
  183.7680  176.3160  137.8830 C   0  0  0  0  0  2  0  0  0  0  0  0
  182.4720  175.8720  139.0740 S   0  0  0  0  0  1  0  0  0  0  0  0
  184.5300  178.9420  144.1760 C   0  0  1  0  0  3  0  0  0  0  0  0
  183.0470  178.1330  142.1160 C   0  0  0  0  0  1  0  0  0  0  0  0
  182.0960  179.7030  143.8880 C   0  0  0  0  0  2  0  0  0  0  0  0
  183.1760  178.7850  143.4820 C   0  0  2  0  0  0  0  0  0  0  0  0
  182.1620  178.3740  144.3600 O   0  0  0  0  0  0  0  0  0  0  0  0
  184.5210  178.3910  145.6000 C   0  0  0  0  0  2  0  0  0  0  0  0
  185.5530  179.1020  146.4450 C   0  0  0  0  0  1  0  0  0  0  0  0
  1 16  2  0  0  0  0
  2 13  1  0  0  0  0
  4  6  1  0  0  0  0
  4  9  1  0  0  0  0
  5  2  1  6  0  0  0
  5  7  1  0  0  0  0
  6  2  2  0  0  0  0
  7 17  1  1  0  0  0
  7  3  1  0  0  0  0
  8 11  1  0  0  0  0
  8  6  1  0  0  0  0
  9 26  1  6  0  0  0
  9 14  1  0  0  0  0
 11 13  1  0  0  0  0
 12  3  1  0  0  0  0
 13 10  2  0  0  0  0
 14  5  1  0  0  0  0
 14 16  1  1  0  0  0
 15 12  1  0  0  0  0
 15 31  1  0  0  0  0
 16 15  1  0  0  0  0
 17 18  1  6  0  0  0
 17 20  1  0  0  0  0
 19 20  2  0  0  0  0
 19 25  1  0  0  0  0
 20 21  1  0  0  0  0
 21 24  2  0  0  0  0
 23 24  1  0  0  0  0
 24 22  1  0  0  0  0
 25 23  2  0  0  0  0
 27 26  1  0  0  0  0
 28 29  1  0  0  0  0
 28 27  1  0  0  0  0
 29 30  1  0  0  0  0
 31 36  1  1  0  0  0
 33 35  1  0  0  0  0
 34 32  1  6  0  0  0
 34 33  1  0  0  0  0
 34 31  1  0  0  0  0
 34 35  1  0  0  0  0
 36 37  1  0  0  0  0
M  END
>  <MODEL>
1

>  <REMARK>
 VINA RESULT:      -6.9      0.000      0.000
  Name = 
  9 active torsions:
  status: ('A' for Active; 'I' for Inactive)
    1  A    between atoms: C_3  and  N_21
    2  A    between atoms: C_6  and  C_31
    3  A    between atoms: C_11  and  C_26
    4  A    between atoms: C_14  and  C_31
    5  A    between atoms: C_17  and  C_26
    6  A    between atoms: C_20  and  C_25
    7  A    between atoms: N_21  and  C_30
    8  A    between atoms: C_25  and  C_30
    9  A    between atoms: C_26  and  N_33
                            x       y       z     vdW  Elec       q    Type
                         _______ _______ _______ _____ _____    ______ ____

>  <TORSDO>
F 9

$$$$
=
 OpenBabel10262422493D

 37 41  0  0  1  0  0  0  0  0999 V2000
  183.4180  176.9420  141.2580 O   0  0  0  0  0  0  0  0  0  0  0  0
  185.8530  178.3390  144.8700 C   0  0  0  0  0  0  0  0  0  0  0  0
  187.1720  178.7700  141.2600 C   0  0  0  0  0  2  0  0  0  0  0  0
  183.4740  179.0530  145.0660 C   0  0  0  0  0  2  0  0  0  0  0  0
  185.6790  177.9480  143.4120 C   0  0  2  0  0  3  0  0  0  0  0  0
  184.8190  178.6980  145.6250 C   0  0  0  0  0  0  0  0  0  0  0  0
  186.9900  177.9820  142.5810 C   0  0  1  0  0  3  0  0  0  0  0  0
  185.1120  178.8840  147.0000 N   0  0  0  0  0  2  0  0  0  0  0  0
  183.1910  178.3630  143.7290 C   0  0  2  0  0  3  0  0  0  0  0  0
  188.2540  178.5660  145.2230 C   0  0  0  0  0  2  0  0  0  0  0  0
  186.7310  178.3150  147.4230 S   0  0  0  0  0  0  0  0  0  0  0  0
  185.9620  179.4500  140.6290 C   0  0  0  0  0  2  0  0  0  0  0  0
  187.0730  178.1680  145.6730 C   0  0  0  0  0  0  0  0  0  0  0  0
  184.3980  178.5240  142.7880 C   0  0  2  0  0  3  0  0  0  0  0  0
  184.9210  178.4740  140.3300 N   0  0  0  0  0  0  0  0  0  0  0  0
  184.1790  177.9340  141.4250 C   0  0  0  0  0  0  0  0  0  0  0  0
  187.6590  176.6050  142.5520 C   0  0  2  0  0  3  0  0  0  0  0  0
  187.1730  175.7880  143.5780 O   0  0  0  0  0  1  0  0  0  0  0  0
  189.8240  177.3730  141.5670 C   0  0  0  0  0  3  0  0  0  0  0  0
  189.1560  176.6780  142.5800 C   0  0  0  0  0  0  0  0  0  0  0  0
  189.8930  176.0900  143.6180 C   0  0  0  0  0  3  0  0  0  0  0  0
  191.9970  175.5980  144.6220 F   0  0  0  0  0  0  0  0  0  0  0  0
  191.9520  176.8700  142.6100 C   0  0  0  0  0  3  0  0  0  0  0  0
  191.2890  176.1820  143.6280 C   0  0  0  0  0  0  0  0  0  0  0  0
  191.2200  177.4670  141.5800 C   0  0  0  0  0  3  0  0  0  0  0  0
  181.9510  178.9990  143.1110 C   0  0  0  0  0  2  0  0  0  0  0  0
  180.7220  178.7300  143.9690 C   0  0  0  0  0  2  0  0  0  0  0  0
  179.7070  178.0470  143.1840 N   0  0  0  0  0  2  0  0  0  0  0  0
  180.0890  178.1700  141.7870 C   0  0  0  0  0  2  0  0  0  0  0  0
  179.5240  176.7080  140.8720 S   0  0  0  0  0  1  0  0  0  0  0  0
  184.4920  178.2180  138.9560 C   0  0  1  0  0  3  0  0  0  0  0  0
  183.0270  180.4440  138.9650 C   0  0  0  0  0  1  0  0  0  0  0  0
  181.9660  178.1700  138.5010 C   0  0  0  0  0  2  0  0  0  0  0  0
  183.1980  178.9700  138.6400 C   0  0  2  0  0  0  0  0  0  0  0  0
  182.6780  178.6450  137.3780 O   0  0  0  0  0  0  0  0  0  0  0  0
  185.6080  178.5400  137.9660 C   0  0  0  0  0  2  0  0  0  0  0  0
  186.2590  177.2670  137.4750 C   0  0  0  0  0  1  0  0  0  0  0  0
  1 16  2  0  0  0  0
  2  6  2  0  0  0  0
  2 13  1  0  0  0  0
  3  7  1  0  0  0  0
  4  6  1  0  0  0  0
  5  2  1  1  0  0  0
  6  8  1  0  0  0  0
  7 17  1  6  0  0  0
  7  5  1  0  0  0  0
  8 11  1  0  0  0  0
  9 26  1  6  0  0  0
  9  4  1  0  0  0  0
 10 13  2  0  0  0  0
 12  3  1  0  0  0  0
 13 11  1  0  0  0  0
 14 16  1  6  0  0  0
 14  5  1  0  0  0  0
 14  9  1  0  0  0  0
 15 12  1  0  0  0  0
 15 16  1  0  0  0  0
 17 20  1  0  0  0  0
 17 18  1  1  0  0  0
 19 25  2  0  0  0  0
 19 20  1  0  0  0  0
 20 21  2  0  0  0  0
 21 24  1  0  0  0  0
 23 24  2  0  0  0  0
 24 22  1  0  0  0  0
 25 23  1  0  0  0  0
 26 27  1  0  0  0  0
 28 27  1  0  0  0  0
 29 28  1  0  0  0  0
 30 29  1  0  0  0  0
 31 36  1  6  0  0  0
 31 15  1  0  0  0  0
 33 34  1  0  0  0  0
 34 31  1  0  0  0  0
 34 32  1  1  0  0  0
 35 33  1  0  0  0  0
 35 34  1  0  0  0  0
 37 36  1  0  0  0  0
M  END
>  <MODEL>
2

>  <REMARK>
 VINA RESULT:      -6.7      2.991      5.536
  Name = 
  9 active torsions:
  status: ('A' for Active; 'I' for Inactive)
    1  A    between atoms: C_3  and  N_21
    2  A    between atoms: C_6  and  C_31
    3  A    between atoms: C_11  and  C_26
    4  A    between atoms: C_14  and  C_31
    5  A    between atoms: C_17  and  C_26
    6  A    between atoms: C_20  and  C_25
    7  A    between atoms: N_21  and  C_30
    8  A    between atoms: C_25  and  C_30
    9  A    between atoms: C_26  and  N_33
                            x       y       z     vdW  Elec       q    Type
                         _______ _______ _______ _____ _____    ______ ____

>  <TORSDO>
F 9

$$$$
=
 OpenBabel10262422493D

 37 41  0  0  1  0  0  0  0  0999 V2000
  184.7820  179.6920  138.7130 O   0  0  0  0  0  0  0  0  0  0  0  0
  183.9510  178.6510  143.0890 C   0  0  0  0  0  0  0  0  0  0  0  0
  181.6690  177.3670  140.2440 C   0  0  0  0  0  2  0  0  0  0  0  0
  186.3620  178.3420  142.5400 C   0  0  0  0  0  2  0  0  0  0  0  0
  183.5710  178.7850  141.6250 C   0  0  2  0  0  3  0  0  0  0  0  0
  185.2210  178.5950  143.4790 C   0  0  0  0  0  0  0  0  0  0  0  0
  182.1000  178.4060  141.3100 C   0  0  1  0  0  3  0  0  0  0  0  0
  185.4240  178.6280  144.8830 N   0  0  0  0  0  2  0  0  0  0  0  0
  186.0610  178.8040  141.1110 C   0  0  2  0  0  3  0  0  0  0  0  0
  181.8840  178.1460  144.2770 C   0  0  0  0  0  2  0  0  0  0  0  0
  183.9430  179.0220  145.7640 S   0  0  0  0  0  0  0  0  0  0  0  0
  182.7270  176.7660  139.3250 C   0  0  0  0  0  2  0  0  0  0  0  0
  183.0410  178.7880  144.2370 C   0  0  0  0  0  0  0  0  0  0  0  0
  184.6760  178.2960  140.6750 C   0  0  2  0  0  3  0  0  0  0  0  0
  183.4020  177.8100  138.5630 N   0  0  0  0  0  0  0  0  0  0  0  0
  184.3280  178.6480  139.2570 C   0  0  0  0  0  0  0  0  0  0  0  0
  181.1940  179.6400  141.3400 C   0  0  2  0  0  3  0  0  0  0  0  0
  180.1510  179.4760  142.2570 O   0  0  0  0  0  1  0  0  0  0  0  0
  179.4440  179.5060  139.5600 C   0  0  0  0  0  3  0  0  0  0  0  0
  180.6730  180.0190  139.9860 C   0  0  0  0  0  0  0  0  0  0  0  0
  181.3800  180.9000  139.1550 C   0  0  0  0  0  3  0  0  0  0  0  0
  181.5610  182.0840  137.0950 F   0  0  0  0  0  0  0  0  0  0  0  0
  179.6430  180.7260  137.4770 C   0  0  0  0  0  3  0  0  0  0  0  0
  180.8670  181.2470  137.9010 C   0  0  0  0  0  0  0  0  0  0  0  0
  178.9310  179.8560  138.3070 C   0  0  0  0  0  3  0  0  0  0  0  0
  187.1430  178.2530  140.1890 C   0  0  0  0  0  2  0  0  0  0  0  0
  188.4960  178.2460  140.8860 C   0  0  0  0  0  2  0  0  0  0  0  0
  189.2830  177.1100  140.4350 N   0  0  0  0  0  2  0  0  0  0  0  0
  190.3220  176.8870  141.4270 C   0  0  0  0  0  2  0  0  0  0  0  0
  189.5670  176.3510  142.9880 S   0  0  0  0  0  1  0  0  0  0  0  0
  183.3120  177.8650  137.1050 C   0  0  1  0  0  3  0  0  0  0  0  0
  184.1250  175.3800  136.5910 C   0  0  0  0  0  1  0  0  0  0  0  0
  185.6500  177.3810  136.1630 C   0  0  0  0  0  2  0  0  0  0  0  0
  184.2930  176.8840  136.4610 C   0  0  2  0  0  0  0  0  0  0  0  0
  184.6620  177.2640  135.1620 O   0  0  0  0  0  0  0  0  0  0  0  0
  181.8760  177.6430  136.6370 C   0  0  0  0  0  2  0  0  0  0  0  0
  181.5700  178.5210  135.4450 C   0  0  0  0  0  1  0  0  0  0  0  0
  1 16  2  0  0  0  0
  2  6  2  0  0  0  0
  2 13  1  0  0  0  0
  3  7  1  0  0  0  0
  4  6  1  0  0  0  0
  5  2  1  1  0  0  0
  6  8  1  0  0  0  0
  7 17  1  6  0  0  0
  7  5  1  0  0  0  0
  8 11  1  0  0  0  0
  9 26  1  6  0  0  0
  9  4  1  0  0  0  0
 12  3  1  0  0  0  0
 13 10  2  0  0  0  0
 13 11  1  0  0  0  0
 14 16  1  6  0  0  0
 14  9  1  0  0  0  0
 14  5  1  0  0  0  0
 15 16  1  0  0  0  0
 15 12  1  0  0  0  0
 17 18  1  1  0  0  0
 19 20  1  0  0  0  0
 20 17  1  0  0  0  0
 21 20  2  0  0  0  0
 22 24  1  0  0  0  0
 23 24  2  0  0  0  0
 23 25  1  0  0  0  0
 24 21  1  0  0  0  0
 25 19  2  0  0  0  0
 26 27  1  0  0  0  0
 28 27  1  0  0  0  0
 28 29  1  0  0  0  0
 29 30  1  0  0  0  0
 31 36  1  1  0  0  0
 31 15  1  0  0  0  0
 33 34  1  0  0  0  0
 34 32  1  1  0  0  0
 34 31  1  0  0  0  0
 35 33  1  0  0  0  0
 35 34  1  0  0  0  0
 37 36  1  0  0  0  0
M  END
>  <MODEL>
3

>  <REMARK>
 VINA RESULT:      -6.6      4.006      8.766
  Name = 
  9 active torsions:
  status: ('A' for Active; 'I' for Inactive)
    1  A    between atoms: C_3  and  N_21
    2  A    between atoms: C_6  and  C_31
    3  A    between atoms: C_11  and  C_26
    4  A    between atoms: C_14  and  C_31
    5  A    between atoms: C_17  and  C_26
    6  A    between atoms: C_20  and  C_25
    7  A    between atoms: N_21  and  C_30
    8  A    between atoms: C_25  and  C_30
    9  A    between atoms: C_26  and  N_33
                            x       y       z     vdW  Elec       q    Type
                         _______ _______ _______ _____ _____    ______ ____

>  <TORSDO>
F 9

$$$$
=
 OpenBabel10262422493D

 37 41  0  0  1  0  0  0  0  0999 V2000
  183.9960  179.2480  138.2550 O   0  0  0  0  0  0  0  0  0  0  0  0
  181.3670  178.2080  141.8510 C   0  0  0  0  0  0  0  0  0  0  0  0
  181.4350  175.9790  138.6920 C   0  0  0  0  0  2  0  0  0  0  0  0
  183.6670  178.8360  142.5780 C   0  0  0  0  0  2  0  0  0  0  0  0
  181.7900  178.1010  140.3960 C   0  0  2  0  0  3  0  0  0  0  0  0
  182.1910  178.6730  142.7850 C   0  0  0  0  0  0  0  0  0  0  0  0
  180.9010  177.1600  139.5400 C   0  0  1  0  0  3  0  0  0  0  0  0
  181.6080  178.8600  144.0650 N   0  0  0  0  0  2  0  0  0  0  0  0
  184.0330  179.0640  141.1080 C   0  0  2  0  0  3  0  0  0  0  0  0
  179.2580  177.0010  142.0290 C   0  0  0  0  0  2  0  0  0  0  0  0
  179.8490  178.6920  144.0310 S   0  0  0  0  0  0  0  0  0  0  0  0
  182.9400  175.7900  138.5490 C   0  0  0  0  0  2  0  0  0  0  0  0
  180.0020  178.0410  142.3720 C   0  0  0  0  0  0  0  0  0  0  0  0
  183.3150  178.0320  140.2210 C   0  0  2  0  0  3  0  0  0  0  0  0
  183.5550  176.9710  137.9550 N   0  0  0  0  0  0  0  0  0  0  0  0
  183.6720  178.1410  138.7660 C   0  0  0  0  0  0  0  0  0  0  0  0
  179.7860  177.9420  138.8400 C   0  0  2  0  0  3  0  0  0  0  0  0
  179.1990  177.1800  137.8250 O   0  0  0  0  0  1  0  0  0  0  0  0
  180.3990  180.3350  139.2230 C   0  0  0  0  0  3  0  0  0  0  0  0
  180.2380  179.2760  138.3250 C   0  0  0  0  0  0  0  0  0  0  0  0
  180.5310  179.4690  136.9670 C   0  0  0  0  0  3  0  0  0  0  0  0
  181.2270  180.9070  135.1990 F   0  0  0  0  0  0  0  0  0  0  0  0
  181.1140  181.7770  137.4130 C   0  0  0  0  0  3  0  0  0  0  0  0
  180.9620  180.7190  136.5130 C   0  0  0  0  0  0  0  0  0  0  0  0
  180.8330  181.5840  138.7680 C   0  0  0  0  0  3  0  0  0  0  0  0
  185.5440  178.9300  140.9610 C   0  0  0  0  0  2  0  0  0  0  0  0
  186.1720  178.4430  142.2600 C   0  0  0  0  0  2  0  0  0  0  0  0
  187.5610  178.0780  142.0360 N   0  0  0  0  0  2  0  0  0  0  0  0
  187.8710  178.4000  140.6520 C   0  0  0  0  0  2  0  0  0  0  0  0
  189.3730  177.5160  140.1450 S   0  0  0  0  0  1  0  0  0  0  0  0
  184.2280  176.9060  136.6590 C   0  0  1  0  0  3  0  0  0  0  0  0
  185.7600  174.7530  137.0050 C   0  0  0  0  0  1  0  0  0  0  0  0
  186.7250  177.1050  137.2220 C   0  0  0  0  0  2  0  0  0  0  0  0
  185.6030  176.2490  136.7920 C   0  0  2  0  0  0  0  0  0  0  0  0
  186.5340  176.7500  135.8690 O   0  0  0  0  0  0  0  0  0  0  0  0
  183.3500  176.2130  135.6200 C   0  0  0  0  0  2  0  0  0  0  0  0
  182.4600  177.2210  134.9290 C   0  0  0  0  0  1  0  0  0  0  0  0
  1 16  2  0  0  0  0
  2 13  1  0  0  0  0
  2  6  2  0  0  0  0
  3  7  1  0  0  0  0
  4  6  1  0  0  0  0
  5  2  1  1  0  0  0
  6  8  1  0  0  0  0
  7 17  1  6  0  0  0
  7  5  1  0  0  0  0
  9 26  1  1  0  0  0
  9  4  1  0  0  0  0
 10 13  2  0  0  0  0
 11  8  1  0  0  0  0
 12  3  1  0  0  0  0
 13 11  1  0  0  0  0
 14 16  1  6  0  0  0
 14  5  1  0  0  0  0
 14  9  1  0  0  0  0
 15 12  1  0  0  0  0
 15 16  1  0  0  0  0
 17 18  1  6  0  0  0
 20 17  1  0  0  0  0
 20 19  2  0  0  0  0
 21 20  1  0  0  0  0
 22 24  1  0  0  0  0
 23 25  2  0  0  0  0
 24 21  2  0  0  0  0
 24 23  1  0  0  0  0
 25 19  1  0  0  0  0
 26 27  1  0  0  0  0
 28 27  1  0  0  0  0
 29 28  1  0  0  0  0
 30 29  1  0  0  0  0
 31 36  1  6  0  0  0
 31 34  1  0  0  0  0
 31 15  1  0  0  0  0
 34 32  1  1  0  0  0
 34 33  1  0  0  0  0
 35 34  1  0  0  0  0
 35 33  1  0  0  0  0
 37 36  1  0  0  0  0
M  END
>  <MODEL>
4

>  <REMARK>
 VINA RESULT:      -6.3      4.667      9.528
  Name = 
  9 active torsions:
  status: ('A' for Active; 'I' for Inactive)
    1  A    between atoms: C_3  and  N_21
    2  A    between atoms: C_6  and  C_31
    3  A    between atoms: C_11  and  C_26
    4  A    between atoms: C_14  and  C_31
    5  A    between atoms: C_17  and  C_26
    6  A    between atoms: C_20  and  C_25
    7  A    between atoms: N_21  and  C_30
    8  A    between atoms: C_25  and  C_30
    9  A    between atoms: C_26  and  N_33
                            x       y       z     vdW  Elec       q    Type
                         _______ _______ _______ _____ _____    ______ ____

>  <TORSDO>
F 9

$$$$
=
 OpenBabel10262422493D

 37 41  0  0  1  0  0  0  0  0999 V2000
  188.6280  179.2360  138.2160 O   0  0  0  0  0  0  0  0  0  0  0  0
  185.4170  178.4030  141.3660 C   0  0  0  0  0  0  0  0  0  0  0  0
  185.0950  177.0580  137.7550 C   0  0  0  0  0  2  0  0  0  0  0  0
  187.6980  178.0100  142.2890 C   0  0  0  0  0  2  0  0  0  0  0  0
  185.9410  178.4840  139.9420 C   0  0  2  0  0  3  0  0  0  0  0  0
  186.2380  178.3310  142.4090 C   0  0  0  0  0  0  0  0  0  0  0  0
  184.8920  178.1300  138.8550 C   0  0  1  0  0  3  0  0  0  0  0  0
  185.6110  178.4180  143.6780 N   0  0  0  0  0  2  0  0  0  0  0  0
  188.2810  178.4190  140.9340 C   0  0  2  0  0  3  0  0  0  0  0  0
  183.0210  178.0020  141.1790 C   0  0  0  0  0  2  0  0  0  0  0  0
  183.9110  178.8870  143.5540 S   0  0  0  0  0  0  0  0  0  0  0  0
  186.4590  176.3920  137.6120 C   0  0  0  0  0  2  0  0  0  0  0  0
  184.0250  178.6120  141.7900 C   0  0  0  0  0  0  0  0  0  0  0  0
  187.3660  177.9280  139.7980 C   0  0  2  0  0  3  0  0  0  0  0  0
  187.4930  177.3860  137.3470 N   0  0  0  0  0  0  0  0  0  0  0  0
  187.9000  178.2280  138.4270 C   0  0  0  0  0  0  0  0  0  0  0  0
  184.1860  179.3870  138.3400 C   0  0  2  0  0  3  0  0  0  0  0  0
  184.5420  180.5080  139.0960 O   0  0  0  0  0  1  0  0  0  0  0  0
  181.8800  180.2760  138.7160 C   0  0  0  0  0  3  0  0  0  0  0  0
  182.6960  179.2340  138.2640 C   0  0  0  0  0  0  0  0  0  0  0  0
  182.1100  178.0810  137.7210 C   0  0  0  0  0  3  0  0  0  0  0  0
  180.1560  176.8470  137.1420 F   0  0  0  0  0  0  0  0  0  0  0  0
  179.9070  179.0080  138.1100 C   0  0  0  0  0  3  0  0  0  0  0  0
  180.7180  177.9680  137.6500 C   0  0  0  0  0  0  0  0  0  0  0  0
  180.4880  180.1620  138.6420 C   0  0  0  0  0  3  0  0  0  0  0  0
  189.6690  177.8010  140.8000 C   0  0  0  0  0  2  0  0  0  0  0  0
  189.9490  176.8480  141.9530 C   0  0  0  0  0  2  0  0  0  0  0  0
  191.3190  177.0080  142.4100 N   0  0  0  0  0  2  0  0  0  0  0  0
  191.4200  176.3500  143.7030 C   0  0  0  0  0  2  0  0  0  0  0  0
  190.7180  177.4250  144.9870 S   0  0  0  0  0  1  0  0  0  0  0  0
  188.2470  177.3810  136.0950 C   0  0  1  0  0  3  0  0  0  0  0  0
  189.1510  174.8750  136.0030 C   0  0  0  0  0  1  0  0  0  0  0  0
  190.6260  176.7780  136.8510 C   0  0  0  0  0  2  0  0  0  0  0  0
  189.3920  176.3670  136.1520 C   0  0  2  0  0  0  0  0  0  0  0  0
  190.5260  176.7920  135.4420 O   0  0  0  0  0  0  0  0  0  0  0  0
  187.3250  177.1490  134.9010 C   0  0  0  0  0  2  0  0  0  0  0  0
  186.4240  178.3450  134.6930 C   0  0  0  0  0  1  0  0  0  0  0  0
  1 16  2  0  0  0  0
  2 13  1  0  0  0  0
  2  6  2  0  0  0  0
  3  7  1  0  0  0  0
  4  6  1  0  0  0  0
  5  2  1  1  0  0  0
  6  8  1  0  0  0  0
  7 17  1  6  0  0  0
  7  5  1  0  0  0  0
  9 26  1  6  0  0  0
  9  4  1  0  0  0  0
 10 13  2  0  0  0  0
 11  8  1  0  0  0  0
 12  3  1  0  0  0  0
 13 11  1  0  0  0  0
 14 16  1  6  0  0  0
 14  5  1  0  0  0  0
 14  9  1  0  0  0  0
 15 12  1  0  0  0  0
 15 16  1  0  0  0  0
 17 18  1  1  0  0  0
 20 17  1  0  0  0  0
 20 19  2  0  0  0  0
 21 20  1  0  0  0  0
 22 24  1  0  0  0  0
 23 25  2  0  0  0  0
 24 21  2  0  0  0  0
 24 23  1  0  0  0  0
 25 19  1  0  0  0  0
 26 27  1  0  0  0  0
 27 28  1  0  0  0  0
 28 29  1  0  0  0  0
 29 30  1  0  0  0  0
 31 36  1  6  0  0  0
 31 34  1  0  0  0  0
 31 15  1  0  0  0  0
 34 32  1  6  0  0  0
 34 33  1  0  0  0  0
 35 34  1  0  0  0  0
 35 33  1  0  0  0  0
 37 36  1  0  0  0  0
M  END
>  <MODEL>
5

>  <REMARK>
 VINA RESULT:      -6.2      3.970      8.931
  Name = 
  9 active torsions:
  status: ('A' for Active; 'I' for Inactive)
    1  A    between atoms: C_3  and  N_21
    2  A    between atoms: C_6  and  C_31
    3  A    between atoms: C_11  and  C_26
    4  A    between atoms: C_14  and  C_31
    5  A    between atoms: C_17  and  C_26
    6  A    between atoms: C_20  and  C_25
    7  A    between atoms: N_21  and  C_30
    8  A    between atoms: C_25  and  C_30
    9  A    between atoms: C_26  and  N_33
                            x       y       z     vdW  Elec       q    Type
                         _______ _______ _______ _____ _____    ______ ____

>  <TORSDO>
F 9

$$$$
=
 OpenBabel10262422493D

 37 41  0  0  1  0  0  0  0  0999 V2000
  182.6550  178.6760  137.2300 O   0  0  0  0  0  0  0  0  0  0  0  0
  183.4850  178.6980  141.7290 C   0  0  0  0  0  0  0  0  0  0  0  0
  180.6660  176.5310  140.2090 C   0  0  0  0  0  2  0  0  0  0  0  0
  185.6020  178.4890  140.4310 C   0  0  0  0  0  2  0  0  0  0  0  0
  182.6330  178.4220  140.5020 C   0  0  2  0  0  3  0  0  0  0  0  0
  184.8010  178.8610  141.6430 C   0  0  0  0  0  0  0  0  0  0  0  0
  181.2290  177.8400  140.8160 C   0  0  1  0  0  3  0  0  0  0  0  0
  185.4390  179.2650  142.8440 N   0  0  0  0  0  2  0  0  0  0  0  0
  184.7780  178.5450  139.1420 C   0  0  2  0  0  3  0  0  0  0  0  0
  182.0360  178.3170  143.6520 C   0  0  0  0  0  2  0  0  0  0  0  0
  184.2800  179.7280  144.0950 S   0  0  0  0  0  0  0  0  0  0  0  0
  181.4560  175.8190  139.1170 C   0  0  0  0  0  2  0  0  0  0  0  0
  182.9870  179.0340  143.0710 C   0  0  0  0  0  0  0  0  0  0  0  0
  183.4380  177.8160  139.3410 C   0  0  2  0  0  3  0  0  0  0  0  0
  181.6540  176.6970  137.9690 N   0  0  0  0  0  0  0  0  0  0  0  0
  182.5930  177.7650  138.1000 C   0  0  0  0  0  0  0  0  0  0  0  0
  180.1810  178.9510  140.9150 C   0  0  2  0  0  3  0  0  0  0  0  0
  178.9390  178.4380  141.3030 O   0  0  0  0  0  1  0  0  0  0  0  0
  179.1750  179.3510  138.6610 C   0  0  0  0  0  3  0  0  0  0  0  0
  180.0650  179.7620  139.6580 C   0  0  0  0  0  0  0  0  0  0  0  0
  180.8080  180.9380  139.4810 C   0  0  0  0  0  3  0  0  0  0  0  0
  181.4050  182.8080  138.1300 F   0  0  0  0  0  0  0  0  0  0  0  0
  179.7890  181.2640  137.3090 C   0  0  0  0  0  3  0  0  0  0  0  0
  180.6740  181.6830  138.3050 C   0  0  0  0  0  0  0  0  0  0  0  0
  179.0390  180.0980  137.4870 C   0  0  0  0  0  3  0  0  0  0  0  0
  185.5810  177.8830  138.0270 C   0  0  0  0  0  2  0  0  0  0  0  0
  187.0740  177.9860  138.3030 C   0  0  0  0  0  2  0  0  0  0  0  0
  187.6700  178.9990  137.4480 N   0  0  0  0  0  2  0  0  0  0  0  0
  188.9230  178.4570  136.9490 C   0  0  0  0  0  2  0  0  0  0  0  0
  188.6020  177.4410  135.4790 S   0  0  0  0  0  1  0  0  0  0  0  0
  181.0870  176.3740  136.6610 C   0  0  1  0  0  3  0  0  0  0  0  0
  181.3360  173.7290  136.4490 C   0  0  0  0  0  1  0  0  0  0  0  0
  183.1270  175.2990  135.5320 C   0  0  0  0  0  2  0  0  0  0  0  0
  181.7610  175.1360  136.0650 C   0  0  2  0  0  0  0  0  0  0  0  0
  181.9970  175.2590  134.6870 O   0  0  0  0  0  0  0  0  0  0  0  0
  179.5700  176.2270  136.7420 C   0  0  0  0  0  2  0  0  0  0  0  0
  178.9310  176.6520  135.4390 C   0  0  0  0  0  1  0  0  0  0  0  0
  1 16  2  0  0  0  0
  2 13  1  0  0  0  0
  3  7  1  0  0  0  0
  4  6  1  0  0  0  0
  5  7  1  0  0  0  0
  5  2  1  1  0  0  0
  6  2  2  0  0  0  0
  6  8  1  0  0  0  0
  7 17  1  6  0  0  0
  8 11  1  0  0  0  0
  9 26  1  6  0  0  0
  9 14  1  0  0  0  0
  9  4  1  0  0  0  0
 12  3  1  0  0  0  0
 13 10  2  0  0  0  0
 13 11  1  0  0  0  0
 14 16  1  6  0  0  0
 14  5  1  0  0  0  0
 15 16  1  0  0  0  0
 15 12  1  0  0  0  0
 17 18  1  6  0  0  0
 19 20  1  0  0  0  0
 20 17  1  0  0  0  0
 21 20  2  0  0  0  0
 22 24  1  0  0  0  0
 23 25  1  0  0  0  0
 23 24  2  0  0  0  0
 24 21  1  0  0  0  0
 25 19  2  0  0  0  0
 26 27  1  0  0  0  0
 28 27  1  0  0  0  0
 29 28  1  0  0  0  0
 30 29  1  0  0  0  0
 31 36  1  1  0  0  0
 31 15  1  0  0  0  0
 33 34  1  0  0  0  0
 34 32  1  1  0  0  0
 34 31  1  0  0  0  0
 35 33  1  0  0  0  0
 35 34  1  0  0  0  0
 37 36  1  0  0  0  0
M  END
>  <MODEL>
6

>  <REMARK>
 VINA RESULT:      -6.1      5.167      9.074
  Name = 
  9 active torsions:
  status: ('A' for Active; 'I' for Inactive)
    1  A    between atoms: C_3  and  N_21
    2  A    between atoms: C_6  and  C_31
    3  A    between atoms: C_11  and  C_26
    4  A    between atoms: C_14  and  C_31
    5  A    between atoms: C_17  and  C_26
    6  A    between atoms: C_20  and  C_25
    7  A    between atoms: N_21  and  C_30
    8  A    between atoms: C_25  and  C_30
    9  A    between atoms: C_26  and  N_33
                            x       y       z     vdW  Elec       q    Type
                         _______ _______ _______ _____ _____    ______ ____

>  <TORSDO>
F 9

$$$$
=
 OpenBabel10262422493D

 37 41  0  0  1  0  0  0  0  0999 V2000
  182.5640  177.1520  141.0720 O   0  0  0  0  0  0  0  0  0  0  0  0
  186.9330  178.2180  140.2370 C   0  0  0  0  0  0  0  0  0  0  0  0
  184.0890  179.3820  137.8890 C   0  0  0  0  0  2  0  0  0  0  0  0
  186.3600  178.6070  142.6310 C   0  0  0  0  0  2  0  0  0  0  0  0
  185.4730  178.0520  139.8510 C   0  0  2  0  0  3  0  0  0  0  0  0
  187.3120  178.3260  141.5060 C   0  0  0  0  0  0  0  0  0  0  0  0
  185.1650  178.3730  138.3640 C   0  0  1  0  0  3  0  0  0  0  0  0
  188.7140  178.3180  141.7210 N   0  0  0  0  0  2  0  0  0  0  0  0
  184.9400  178.1160  142.3370 C   0  0  2  0  0  3  0  0  0  0  0  0
  188.1300  178.6630  138.1610 C   0  0  0  0  0  2  0  0  0  0  0  0
  189.6120  177.8820  140.2620 S   0  0  0  0  0  0  0  0  0  0  0  0
  183.1550  180.0090  138.9170 C   0  0  0  0  0  2  0  0  0  0  0  0
  188.0890  178.0630  139.3410 C   0  0  0  0  0  0  0  0  0  0  0  0
  184.5080  178.5680  140.9300 C   0  0  2  0  0  3  0  0  0  0  0  0
  182.4010  178.9800  139.6240 N   0  0  0  0  0  0  0  0  0  0  0  0
  183.0980  178.1860  140.5850 C   0  0  0  0  0  0  0  0  0  0  0  0
  185.2180  177.1080  137.5050 C   0  0  2  0  0  3  0  0  0  0  0  0
  185.9730  177.3180  136.3470 O   0  0  0  0  0  1  0  0  0  0  0  0
  183.3020  176.8360  135.9230 C   0  0  0  0  0  3  0  0  0  0  0  0
  183.8590  176.5640  137.1760 C   0  0  0  0  0  0  0  0  0  0  0  0
  183.1550  175.7660  138.0890 C   0  0  0  0  0  3  0  0  0  0  0  0
  181.2110  174.5060  138.6440 F   0  0  0  0  0  0  0  0  0  0  0  0
  181.3380  175.5420  136.5040 C   0  0  0  0  0  3  0  0  0  0  0  0
  181.8950  175.2610  137.7540 C   0  0  0  0  0  0  0  0  0  0  0  0
  182.0420  176.3280  135.5880 C   0  0  0  0  0  3  0  0  0  0  0  0
  184.0020  178.6940  143.3900 C   0  0  0  0  0  2  0  0  0  0  0  0
  184.7910  179.2640  144.5610 C   0  0  0  0  0  2  0  0  0  0  0  0
  184.0260  179.1280  145.7890 N   0  0  0  0  0  2  0  0  0  0  0  0
  184.7260  178.1680  146.6280 C   0  0  0  0  0  2  0  0  0  0  0  0
  186.5170  178.3480  146.3910 S   0  0  0  0  0  1  0  0  0  0  0  0
  180.9450  178.9030  139.5250 C   0  0  1  0  0  3  0  0  0  0  0  0
  180.0480  181.4030  139.7420 C   0  0  0  0  0  1  0  0  0  0  0  0
  180.3450  179.9260  141.8020 C   0  0  0  0  0  2  0  0  0  0  0  0
  180.2830  180.0230  140.3310 C   0  0  2  0  0  0  0  0  0  0  0  0
  179.1850  179.5740  141.0790 O   0  0  0  0  0  0  0  0  0  0  0  0
  180.4950  178.8930  138.0660 C   0  0  0  0  0  2  0  0  0  0  0  0
  179.2310  178.0780  137.9110 C   0  0  0  0  0  1  0  0  0  0  0  0
  2  6  2  0  0  0  0
  3  7  1  0  0  0  0
  3 12  1  0  0  0  0
  5  2  1  1  0  0  0
  5 14  1  0  0  0  0
  6  8  1  0  0  0  0
  6  4  1  0  0  0  0
  7 17  1  6  0  0  0
  7  5  1  0  0  0  0
  9  4  1  0  0  0  0
  9 26  1  1  0  0  0
 10 13  2  0  0  0  0
 11  8  1  0  0  0  0
 12 15  1  0  0  0  0
 13  2  1  0  0  0  0
 13 11  1  0  0  0  0
 14 16  1  6  0  0  0
 14  9  1  0  0  0  0
 15 16  1  0  0  0  0
 16  1  2  0  0  0  0
 17 18  1  6  0  0  0
 19 20  1  0  0  0  0
 20 17  1  0  0  0  0
 20 21  2  0  0  0  0
 23 24  2  0  0  0  0
 24 21  1  0  0  0  0
 24 22  1  0  0  0  0
 25 19  2  0  0  0  0
 25 23  1  0  0  0  0
 26 27  1  0  0  0  0
 27 28  1  0  0  0  0
 28 29  1  0  0  0  0
 30 29  1  0  0  0  0
 31 36  1  6  0  0  0
 31 15  1  0  0  0  0
 31 34  1  0  0  0  0
 34 32  1  6  0  0  0
 34 35  1  0  0  0  0
 34 33  1  0  0  0  0
 35 33  1  0  0  0  0
 37 36  1  0  0  0  0
M  END
>  <MODEL>
7

>  <REMARK>
 VINA RESULT:      -6.1      4.140      7.628
  Name = 
  9 active torsions:
  status: ('A' for Active; 'I' for Inactive)
    1  A    between atoms: C_3  and  N_21
    2  A    between atoms: C_6  and  C_31
    3  A    between atoms: C_11  and  C_26
    4  A    between atoms: C_14  and  C_31
    5  A    between atoms: C_17  and  C_26
    6  A    between atoms: C_20  and  C_25
    7  A    between atoms: N_21  and  C_30
    8  A    between atoms: C_25  and  C_30
    9  A    between atoms: C_26  and  N_33
                            x       y       z     vdW  Elec       q    Type
                         _______ _______ _______ _____ _____    ______ ____

>  <TORSDO>
F 9

$$$$
=
 OpenBabel10262422493D

 37 41  0  0  1  0  0  0  0  0999 V2000
  186.0550  179.8440  142.1520 O   0  0  0  0  0  0  0  0  0  0  0  0
  189.8440  177.5470  141.0150 C   0  0  0  0  0  0  0  0  0  0  0  0
  187.8350  176.6710  144.2010 C   0  0  0  0  0  2  0  0  0  0  0  0
  188.3510  177.8390  139.0420 C   0  0  0  0  0  2  0  0  0  0  0  0
  188.7590  177.9920  141.9800 C   0  0  2  0  0  3  0  0  0  0  0  0
  189.6810  177.6210  139.6980 C   0  0  0  0  0  0  0  0  0  0  0  0
  188.9260  177.4500  143.4240 C   0  0  1  0  0  3  0  0  0  0  0  0
  190.8340  177.3170  138.9290 N   0  0  0  0  0  2  0  0  0  0  0  0
  187.3700  178.6000  139.9380 C   0  0  2  0  0  3  0  0  0  0  0  0
  191.5040  176.3780  142.3640 C   0  0  0  0  0  2  0  0  0  0  0  0
  192.2880  177.1870  139.9250 S   0  0  0  0  0  0  0  0  0  0  0  0
  186.4430  176.5370  143.5920 C   0  0  0  0  0  2  0  0  0  0  0  0
  191.2310  177.2070  141.3680 C   0  0  0  0  0  0  0  0  0  0  0  0
  187.3580  177.9830  141.3480 C   0  0  2  0  0  3  0  0  0  0  0  0
  185.8550  177.8510  143.3580 N   0  0  0  0  0  0  0  0  0  0  0  0
  186.3690  178.6290  142.2760 C   0  0  0  0  0  0  0  0  0  0  0  0
  189.6870  178.4460  144.3030 C   0  0  2  0  0  3  0  0  0  0  0  0
  190.7470  179.0280  143.6000 O   0  0  0  0  0  1  0  0  0  0  0  0
  189.4390  178.1120  146.7680 C   0  0  0  0  0  3  0  0  0  0  0  0
  190.1560  177.8500  145.5960 C   0  0  0  0  0  0  0  0  0  0  0  0
  191.2800  177.0120  145.6440 C   0  0  0  0  0  3  0  0  0  0  0  0
  192.7860  175.6650  146.9070 F   0  0  0  0  0  0  0  0  0  0  0  0
  190.9770  176.7300  148.0300 C   0  0  0  0  0  3  0  0  0  0  0  0
  191.6910  176.4590  146.8610 C   0  0  0  0  0  0  0  0  0  0  0  0
  189.8500  177.5560  147.9830 C   0  0  0  0  0  3  0  0  0  0  0  0
  185.9830  178.5190  139.3120 C   0  0  0  0  0  2  0  0  0  0  0  0
  186.0790  178.2510  137.8170 C   0  0  0  0  0  2  0  0  0  0  0  0
  185.2530  177.1090  137.4620 N   0  0  0  0  0  2  0  0  0  0  0  0
  186.0070  176.3150  136.5050 C   0  0  0  0  0  2  0  0  0  0  0  0
  186.3050  177.2940  135.0050 S   0  0  0  0  0  1  0  0  0  0  0  0
  184.6400  178.2730  144.0530 C   0  0  1  0  0  3  0  0  0  0  0  0
  186.1020  179.6380  145.8150 C   0  0  0  0  0  1  0  0  0  0  0  0
  184.4820  177.8180  146.5740 C   0  0  0  0  0  2  0  0  0  0  0  0
  184.9530  178.6990  145.4890 C   0  0  2  0  0  0  0  0  0  0  0  0
  183.7980  179.0030  146.2260 O   0  0  0  0  0  0  0  0  0  0  0  0
  183.9120  179.3620  143.2690 C   0  0  0  0  0  2  0  0  0  0  0  0
  182.4560  178.9950  143.0890 C   0  0  0  0  0  1  0  0  0  0  0  0
  1 16  2  0  0  0  0
  2 13  1  0  0  0  0
  4  6  1  0  0  0  0
  4  9  1  0  0  0  0
  5  2  1  6  0  0  0
  5  7  1  0  0  0  0
  6  2  2  0  0  0  0
  7  3  1  0  0  0  0
  7 17  1  1  0  0  0
  8  6  1  0  0  0  0
  8 11  1  0  0  0  0
  9 26  1  6  0  0  0
  9 14  1  0  0  0  0
 11 13  1  0  0  0  0
 12  3  1  0  0  0  0
 13 10  2  0  0  0  0
 14  5  1  0  0  0  0
 14 16  1  1  0  0  0
 15 12  1  0  0  0  0
 15 31  1  0  0  0  0
 16 15  1  0  0  0  0
 17 18  1  6  0  0  0
 17 20  1  0  0  0  0
 19 25  1  0  0  0  0
 20 21  1  0  0  0  0
 20 19  2  0  0  0  0
 21 24  2  0  0  0  0
 24 22  1  0  0  0  0
 24 23  1  0  0  0  0
 25 23  2  0  0  0  0
 27 26  1  0  0  0  0
 28 27  1  0  0  0  0
 29 28  1  0  0  0  0
 30 29  1  0  0  0  0
 31 36  1  6  0  0  0
 31 34  1  0  0  0  0
 34 32  1  1  0  0  0
 34 35  1  0  0  0  0
 34 33  1  0  0  0  0
 35 33  1  0  0  0  0
 37 36  1  0  0  0  0
M  END
>  <MODEL>
8

>  <REMARK>
 VINA RESULT:      -6.1      1.527      2.211
  Name = 
  9 active torsions:
  status: ('A' for Active; 'I' for Inactive)
    1  A    between atoms: C_3  and  N_21
    2  A    between atoms: C_6  and  C_31
    3  A    between atoms: C_11  and  C_26
    4  A    between atoms: C_14  and  C_31
    5  A    between atoms: C_17  and  C_26
    6  A    between atoms: C_20  and  C_25
    7  A    between atoms: N_21  and  C_30
    8  A    between atoms: C_25  and  C_30
    9  A    between atoms: C_26  and  N_33
                            x       y       z     vdW  Elec       q    Type
                         _______ _______ _______ _____ _____    ______ ____

>  <TORSDO>
F 9

$$$$
=
 OpenBabel10262422493D

 37 41  0  0  1  0  0  0  0  0999 V2000
  190.6240  174.2590  137.8710 O   0  0  0  0  0  0  0  0  0  0  0  0
  188.3170  177.7430  139.7320 C   0  0  0  0  0  0  0  0  0  0  0  0
  192.1440  177.3970  140.1690 C   0  0  0  0  0  2  0  0  0  0  0  0
  187.6290  177.3800  137.3650 C   0  0  0  0  0  2  0  0  0  0  0  0
  189.5220  176.8300  139.5870 C   0  0  2  0  0  3  0  0  0  0  0  0
  187.4100  177.8620  138.7680 C   0  0  0  0  0  0  0  0  0  0  0  0
  190.6750  177.1300  140.5820 C   0  0  1  0  0  3  0  0  0  0  0  0
  186.2650  178.6280  139.1070 N   0  0  0  0  0  2  0  0  0  0  0  0
  188.6180  176.2130  137.2920 C   0  0  2  0  0  3  0  0  0  0  0  0
  188.7320  179.0910  141.7200 C   0  0  0  0  0  2  0  0  0  0  0  0
  186.1970  179.0030  140.8330 S   0  0  0  0  0  0  0  0  0  0  0  0
  192.5480  177.2170  138.7100 C   0  0  0  0  0  2  0  0  0  0  0  0
  187.8800  178.4110  140.9680 C   0  0  0  0  0  0  0  0  0  0  0  0
  189.8740  176.5360  138.1200 C   0  0  2  0  0  3  0  0  0  0  0  0
  192.2890  175.8520  138.2680 N   0  0  0  0  0  0  0  0  0  0  0  0
  190.9300  175.4700  138.0480 C   0  0  0  0  0  0  0  0  0  0  0  0
  190.5560  176.2640  141.8390 C   0  0  2  0  0  3  0  0  0  0  0  0
  189.3920  175.4890  141.8080 O   0  0  0  0  0  1  0  0  0  0  0  0
  191.5870  178.0870  143.2040 C   0  0  0  0  0  3  0  0  0  0  0  0
  190.6470  177.0570  143.1090 C   0  0  0  0  0  0  0  0  0  0  0  0
  189.7870  176.8020  144.1870 C   0  0  0  0  0  3  0  0  0  0  0  0
  189.0630  177.3030  146.4010 F   0  0  0  0  0  0  0  0  0  0  0  0
  190.8290  178.5860  145.4500 C   0  0  0  0  0  3  0  0  0  0  0  0
  189.8830  177.5630  145.3570 C   0  0  0  0  0  0  0  0  0  0  0  0
  191.6800  178.8490  144.3730 C   0  0  0  0  0  3  0  0  0  0  0  0
  188.9910  175.9890  135.8310 C   0  0  0  0  0  2  0  0  0  0  0  0
  188.0350  175.0030  135.1750 C   0  0  0  0  0  2  0  0  0  0  0  0
  187.7950  173.8770  136.0620 N   0  0  0  0  0  2  0  0  0  0  0  0
  186.4220  173.4470  135.8490 C   0  0  0  0  0  2  0  0  0  0  0  0
  185.6360  173.1140  137.4510 S   0  0  0  0  0  1  0  0  0  0  0  0
  193.3760  174.9710  137.8470 C   0  0  1  0  0  3  0  0  0  0  0  0
  193.9970  176.3970  135.6840 C   0  0  0  0  0  1  0  0  0  0  0  0
  192.9910  174.0610  135.4780 C   0  0  0  0  0  2  0  0  0  0  0  0
  193.6170  175.0820  136.3400 C   0  0  2  0  0  0  0  0  0  0  0  0
  194.3570  174.0040  135.8310 O   0  0  0  0  0  0  0  0  0  0  0  0
  194.6410  175.2370  138.6590 C   0  0  0  0  0  2  0  0  0  0  0  0
  195.4320  173.9600  138.8340 C   0  0  0  0  0  1  0  0  0  0  0  0
  1 16  2  0  0  0  0
  2 13  1  0  0  0  0
  3  7  1  0  0  0  0
  4  6  1  0  0  0  0
  5  2  1  6  0  0  0
  5  7  1  0  0  0  0
  6  8  1  0  0  0  0
  6  2  2  0  0  0  0
  7 17  1  1  0  0  0
  8 11  1  0  0  0  0
  9 26  1  6  0  0  0
  9  4  1  0  0  0  0
  9 14  1  0  0  0  0
 11 13  1  0  0  0  0
 12  3  1  0  0  0  0
 13 10  2  0  0  0  0
 14 16  1  1  0  0  0
 14  5  1  0  0  0  0
 15 12  1  0  0  0  0
 16 15  1  0  0  0  0
 17 18  1  6  0  0  0
 17 20  1  0  0  0  0
 19 25  1  0  0  0  0
 20 19  2  0  0  0  0
 20 21  1  0  0  0  0
 21 24  2  0  0  0  0
 24 23  1  0  0  0  0
 24 22  1  0  0  0  0
 25 23  2  0  0  0  0
 27 26  1  0  0  0  0
 27 28  1  0  0  0  0
 29 28  1  0  0  0  0
 29 30  1  0  0  0  0
 31 15  1  0  0  0  0
 31 36  1  1  0  0  0
 33 35  1  0  0  0  0
 33 34  1  0  0  0  0
 34 32  1  6  0  0  0
 34 31  1  0  0  0  0
 35 34  1  0  0  0  0
 36 37  1  0  0  0  0
M  END
>  <MODEL>
9

>  <REMARK>
 VINA RESULT:      -6.0      3.822      7.213
  Name = 
  9 active torsions:
  status: ('A' for Active; 'I' for Inactive)
    1  A    between atoms: C_3  and  N_21
    2  A    between atoms: C_6  and  C_31
    3  A    between atoms: C_11  and  C_26
    4  A    between atoms: C_14  and  C_31
    5  A    between atoms: C_17  and  C_26
    6  A    between atoms: C_20  and  C_25
    7  A    between atoms: N_21  and  C_30
    8  A    between atoms: C_25  and  C_30
    9  A    between atoms: C_26  and  N_33
                            x       y       z     vdW  Elec       q    Type
                         _______ _______ _______ _____ _____    ______ ____

>  <TORSDO>
F 9

$$$$
