=
 OpenBabel10262420073D

 27 31  0  0  1  0  0  0  0  0999 V2000
  181.9670  179.2050  138.1740 C   0  0  1  0  0  3  0  0  0  0  0  0
  179.2550  181.9590  139.0830 C   0  0  0  0  0  3  0  0  0  0  0  0
  181.6430  180.4380  139.0190 C   0  0  1  0  0  0  0  0  0  0  0  0
  180.6970  180.3240  140.1910 C   0  0  0  0  0  3  0  0  0  0  0  0
  183.0400  179.8270  139.1080 C   0  0  1  0  0  3  0  0  0  0  0  0
  179.5690  181.0360  140.1930 C   0  0  0  0  0  3  0  0  0  0  0  0
  180.1630  182.2560  138.1460 C   0  0  0  0  0  3  0  0  0  0  0  0
  181.5760  181.7360  138.2140 C   0  0  0  0  0  2  0  0  0  0  0  0
  183.2880  179.0470  140.3260 N   0  0  0  0  0  0  0  0  0  0  0  0
  185.6280  178.7990  140.0580 O   0  0  0  0  0  0  0  0  0  0  0  0
  183.6590  179.1400  145.0610 C   0  0  0  0  0  3  0  0  0  0  0  0
  184.9860  179.0850  145.2000 C   0  0  0  0  0  3  0  0  0  0  0  0
  182.4500  179.1140  141.5240 C   0  0  0  0  0  2  0  0  0  0  0  0
  185.7710  178.0940  143.0150 C   0  0  0  0  0  0  0  0  0  0  0  0
  186.7900  177.4680  142.3760 F   0  0  0  0  0  0  0  0  0  0  0  0
  184.6090  178.5330  142.2150 C   0  0  0  0  0  0  0  0  0  0  0  0
  185.9300  178.3710  144.3160 C   0  0  0  0  0  3  0  0  0  0  0  0
  183.3680  178.7210  142.6440 C   0  0  0  0  0  0  0  0  0  0  0  0
  184.6030  178.7690  140.7900 C   0  0  0  0  0  0  0  0  0  0  0  0
  182.8940  178.3920  144.0170 C   0  0  0  0  0  2  0  0  0  0  0  0
  180.5400  175.1050  139.6930 C   0  0  0  0  0  3  0  0  0  0  0  0
  179.6620  176.1080  140.3620 C   0  0  0  0  0  2  0  0  0  0  0  0
  181.3030  177.9240  138.6300 C   0  0  0  0  0  0  0  0  0  0  0  0
  181.6170  175.4370  138.9810 C   0  0  0  0  0  3  0  0  0  0  0  0
  179.0770  177.0570  139.3720 C   0  0  0  0  0  3  0  0  0  0  0  0
  179.8210  177.8780  138.6320 C   0  0  0  0  0  3  0  0  0  0  0  0
  182.0590  176.8160  138.6880 C   0  0  0  0  0  3  0  0  0  0  0  0
  1 23  1  1  0  0  0
  1  3  1  0  0  0  0
  1  5  1  0  0  0  0
  2  6  1  0  0  0  0
  3  8  1  6  0  0  0
  3  5  1  0  0  0  0
  3  4  1  0  0  0  0
  4  6  2  0  0  0  0
  5  9  1  1  0  0  0
  7  8  1  0  0  0  0
  7  2  2  0  0  0  0
  9 19  1  0  0  0  0
  9 13  1  0  0  0  0
 10 19  2  0  0  0  0
 11 12  2  0  0  0  0
 13 18  1  0  0  0  0
 14 17  2  0  0  0  0
 15 14  1  0  0  0  0
 16 18  2  0  0  0  0
 16 14  1  0  0  0  0
 17 12  1  0  0  0  0
 18 20  1  0  0  0  0
 19 16  1  0  0  0  0
 20 11  1  0  0  0  0
 21 22  1  0  0  0  0
 23 26  1  0  0  0  0
 23 27  2  0  0  0  0
 24 21  2  0  0  0  0
 25 22  1  0  0  0  0
 26 25  2  0  0  0  0
 27 24  1  0  0  0  0
M  END
>  <MODEL>
1

>  <REMARK>
 VINA RESULT:      -7.2      0.000      0.000
  Name = 
  2 active torsions:
  status: ('A' for Active; 'I' for Inactive)
    1  A    between atoms: C_1  and  C_18
    2  A    between atoms: N_2  and  C_15
                            x       y       z     vdW  Elec       q    Type
                         _______ _______ _______ _____ _____    ______ ____

>  <TORSDO>
F 2

$$$$
=
 OpenBabel10262420073D

 27 31  0  0  1  0  0  0  0  0999 V2000
  182.5040  179.1310  138.1260 C   0  0  1  0  0  3  0  0  0  0  0  0
  179.1270  181.1380  138.6970 C   0  0  0  0  0  3  0  0  0  0  0  0
  181.7810  180.1880  138.9620 C   0  0  1  0  0  0  0  0  0  0  0  0
  180.7190  179.7720  139.9520 C   0  0  0  0  0  3  0  0  0  0  0  0
  183.2510  179.8920  139.2550 C   0  0  1  0  0  3  0  0  0  0  0  0
  179.4710  180.2170  139.7980 C   0  0  0  0  0  3  0  0  0  0  0  0
  180.0750  181.7050  137.9410 C   0  0  0  0  0  3  0  0  0  0  0  0
  181.5410  181.5020  138.2190 C   0  0  0  0  0  2  0  0  0  0  0  0
  183.4820  179.0860  140.4590 N   0  0  0  0  0  0  0  0  0  0  0  0
  185.8230  178.8320  140.2120 O   0  0  0  0  0  0  0  0  0  0  0  0
  183.8020  179.0780  145.1990 C   0  0  0  0  0  3  0  0  0  0  0  0
  185.1260  179.0140  145.3510 C   0  0  0  0  0  3  0  0  0  0  0  0
  182.6310  179.1320  141.6490 C   0  0  0  0  0  2  0  0  0  0  0  0
  185.9310  178.0650  143.1550 C   0  0  0  0  0  0  0  0  0  0  0  0
  186.9540  177.4490  142.5140 F   0  0  0  0  0  0  0  0  0  0  0  0
  184.7790  178.5270  142.3520 C   0  0  0  0  0  0  0  0  0  0  0  0
  186.0770  178.3140  144.4630 C   0  0  0  0  0  3  0  0  0  0  0  0
  183.5350  178.7110  142.7710 C   0  0  0  0  0  0  0  0  0  0  0  0
  184.7900  178.7920  140.9310 C   0  0  0  0  0  0  0  0  0  0  0  0
  183.0440  178.3560  144.1320 C   0  0  0  0  0  2  0  0  0  0  0  0
  180.6530  174.9810  138.8350 C   0  0  0  0  0  3  0  0  0  0  0  0
  181.8410  174.7460  137.9660 C   0  0  0  0  0  2  0  0  0  0  0  0
  182.0910  177.7020  138.4030 C   0  0  0  0  0  0  0  0  0  0  0  0
  180.1880  176.1970  139.1240 C   0  0  0  0  0  3  0  0  0  0  0  0
  183.0580  175.3990  138.5290 C   0  0  0  0  0  3  0  0  0  0  0  0
  183.1620  176.7180  138.6890 C   0  0  0  0  0  3  0  0  0  0  0  0
  180.8020  177.4720  138.7010 C   0  0  0  0  0  3  0  0  0  0  0  0
  1 23  1  1  0  0  0
  1  3  1  0  0  0  0
  1  5  1  0  0  0  0
  2  6  1  0  0  0  0
  3  8  1  6  0  0  0
  3  5  1  0  0  0  0
  3  4  1  0  0  0  0
  5  9  1  1  0  0  0
  6  4  2  0  0  0  0
  7  8  1  0  0  0  0
  7  2  2  0  0  0  0
  9 19  1  0  0  0  0
  9 13  1  0  0  0  0
 10 19  2  0  0  0  0
 11 12  2  0  0  0  0
 13 18  1  0  0  0  0
 14 17  2  0  0  0  0
 15 14  1  0  0  0  0
 16 18  2  0  0  0  0
 16 14  1  0  0  0  0
 17 12  1  0  0  0  0
 18 20  1  0  0  0  0
 19 16  1  0  0  0  0
 20 11  1  0  0  0  0
 21 24  2  0  0  0  0
 22 25  1  0  0  0  0
 22 21  1  0  0  0  0
 23 26  1  0  0  0  0
 23 27  2  0  0  0  0
 25 26  2  0  0  0  0
 27 24  1  0  0  0  0
M  END
>  <MODEL>
2

>  <REMARK>
 VINA RESULT:      -6.5      0.670      1.411
  Name = 
  2 active torsions:
  status: ('A' for Active; 'I' for Inactive)
    1  A    between atoms: C_1  and  C_18
    2  A    between atoms: N_2  and  C_15
                            x       y       z     vdW  Elec       q    Type
                         _______ _______ _______ _____ _____    ______ ____

>  <TORSDO>
F 2

$$$$
=
 OpenBabel10262420073D

 27 31  0  0  1  0  0  0  0  0999 V2000
  189.7910  177.4730  136.8350 C   0  0  1  0  0  3  0  0  0  0  0  0
  192.7780  174.8710  136.5600 C   0  0  0  0  0  3  0  0  0  0  0  0
  190.2420  176.1070  136.3130 C   0  0  1  0  0  0  0  0  0  0  0  0
  190.4410  174.9600  137.2750 C   0  0  0  0  0  3  0  0  0  0  0  0
  188.8300  176.5930  135.9910 C   0  0  1  0  0  3  0  0  0  0  0  0
  191.6480  174.4030  137.3890 C   0  0  0  0  0  3  0  0  0  0  0  0
  192.5910  175.7230  135.5460 C   0  0  0  0  0  3  0  0  0  0  0  0
  191.2170  176.1880  135.1390 C   0  0  0  0  0  2  0  0  0  0  0  0
  187.7700  175.9520  136.7780 N   0  0  0  0  0  0  0  0  0  0  0  0
  186.1040  177.6010  136.4470 O   0  0  0  0  0  0  0  0  0  0  0  0
  184.5430  172.4700  136.9520 C   0  0  0  0  0  3  0  0  0  0  0  0
  183.4290  173.1620  136.7030 C   0  0  0  0  0  3  0  0  0  0  0  0
  187.6770  174.5080  137.0000 C   0  0  0  0  0  2  0  0  0  0  0  0
  184.0510  175.5300  137.3160 C   0  0  0  0  0  0  0  0  0  0  0  0
  183.5780  176.7610  137.6340 F   0  0  0  0  0  0  0  0  0  0  0  0
  185.5050  175.3720  137.1050 C   0  0  0  0  0  0  0  0  0  0  0  0
  183.1550  174.5570  137.1060 C   0  0  0  0  0  3  0  0  0  0  0  0
  186.2170  174.2630  137.2470 C   0  0  0  0  0  0  0  0  0  0  0  0
  186.4320  176.4290  136.7720 C   0  0  0  0  0  0  0  0  0  0  0  0
  185.6790  172.9800  137.7790 C   0  0  0  0  0  2  0  0  0  0  0  0
  188.4340  177.7620  141.2190 C   0  0  0  0  0  3  0  0  0  0  0  0
  189.3220  176.5650  141.1530 C   0  0  0  0  0  2  0  0  0  0  0  0
  189.5480  177.5400  138.3270 C   0  0  0  0  0  0  0  0  0  0  0  0
  188.0180  178.4230  140.1400 C   0  0  0  0  0  3  0  0  0  0  0  0
  190.6180  176.8920  140.4920 C   0  0  0  0  0  3  0  0  0  0  0  0
  190.7010  177.2960  139.2250 C   0  0  0  0  0  3  0  0  0  0  0  0
  188.4170  178.1300  138.7480 C   0  0  0  0  0  3  0  0  0  0  0  0
  1 23  1  1  0  0  0
  2  6  1  0  0  0  0
  3  8  1  6  0  0  0
  3  1  1  0  0  0  0
  3  4  1  0  0  0  0
  4  6  2  0  0  0  0
  5  3  1  0  0  0  0
  5  9  1  1  0  0  0
  5  1  1  0  0  0  0
  7  2  2  0  0  0  0
  8  7  1  0  0  0  0
  9 13  1  0  0  0  0
 10 19  2  0  0  0  0
 11 20  1  0  0  0  0
 12 11  2  0  0  0  0
 12 17  1  0  0  0  0
 13 18  1  0  0  0  0
 14 15  1  0  0  0  0
 16 18  2  0  0  0  0
 16 14  1  0  0  0  0
 17 14  2  0  0  0  0
 18 20  1  0  0  0  0
 19  9  1  0  0  0  0
 19 16  1  0  0  0  0
 22 21  1  0  0  0  0
 23 27  2  0  0  0  0
 23 26  1  0  0  0  0
 24 21  2  0  0  0  0
 25 22  1  0  0  0  0
 26 25  2  0  0  0  0
 27 24  1  0  0  0  0
M  END
>  <MODEL>
3

>  <REMARK>
 VINA RESULT:      -6.3      6.096      9.425
  Name = 
  2 active torsions:
  status: ('A' for Active; 'I' for Inactive)
    1  A    between atoms: C_1  and  C_18
    2  A    between atoms: N_2  and  C_15
                            x       y       z     vdW  Elec       q    Type
                         _______ _______ _______ _____ _____    ______ ____

>  <TORSDO>
F 2

$$$$
=
 OpenBabel10262420073D

 27 31  0  0  1  0  0  0  0  0999 V2000
  179.9960  177.5450  138.2210 C   0  0  1  0  0  3  0  0  0  0  0  0
  182.2570  176.4710  135.1390 C   0  0  0  0  0  3  0  0  0  0  0  0
  181.2770  176.8420  137.7700 C   0  0  1  0  0  0  0  0  0  0  0  0
  182.4480  177.6550  137.2690 C   0  0  0  0  0  3  0  0  0  0  0  0
  180.9240  176.8540  139.2560 C   0  0  1  0  0  3  0  0  0  0  0  0
  182.8820  177.4770  136.0210 C   0  0  0  0  0  3  0  0  0  0  0  0
  181.3750  175.5820  135.6120 C   0  0  0  0  0  3  0  0  0  0  0  0
  181.0340  175.5020  137.0780 C   0  0  0  0  0  2  0  0  0  0  0  0
  181.7120  177.7940  140.0630 N   0  0  0  0  0  0  0  0  0  0  0  0
  180.2180  177.9540  141.8920 O   0  0  0  0  0  0  0  0  0  0  0  0
  185.4980  178.3640  142.8740 C   0  0  0  0  0  3  0  0  0  0  0  0
  184.9060  178.4110  144.0700 C   0  0  0  0  0  3  0  0  0  0  0  0
  183.1690  177.9140  139.9860 C   0  0  0  0  0  2  0  0  0  0  0  0
  182.5290  179.0670  143.5290 C   0  0  0  0  0  0  0  0  0  0  0  0
  181.3720  179.5750  144.0210 F   0  0  0  0  0  0  0  0  0  0  0  0
  182.5310  178.5430  142.1470 C   0  0  0  0  0  0  0  0  0  0  0  0
  183.5720  178.9740  144.3650 C   0  0  0  0  0  3  0  0  0  0  0  0
  183.5710  178.4430  141.3320 C   0  0  0  0  0  0  0  0  0  0  0  0
  181.3700  178.1080  141.4060 C   0  0  0  0  0  0  0  0  0  0  0  0
  184.9310  178.9720  141.6330 C   0  0  0  0  0  2  0  0  0  0  0  0
  180.0130  182.1250  138.6310 C   0  0  0  0  0  3  0  0  0  0  0  0
  181.2060  181.7930  137.8010 C   0  0  0  0  0  2  0  0  0  0  0  0
  180.0330  179.0560  138.1480 C   0  0  0  0  0  0  0  0  0  0  0  0
  179.2740  181.2040  139.2490 C   0  0  0  0  0  3  0  0  0  0  0  0
  180.8400  180.9010  136.6640 C   0  0  0  0  0  3  0  0  0  0  0  0
  180.3470  179.6750  136.8380 C   0  0  0  0  0  3  0  0  0  0  0  0
  179.4690  179.7440  139.1540 C   0  0  0  0  0  3  0  0  0  0  0  0
  1 23  1  1  0  0  0
  1  5  1  0  0  0  0
  2  7  2  0  0  0  0
  2  6  1  0  0  0  0
  3  8  1  6  0  0  0
  3  1  1  0  0  0  0
  3  5  1  0  0  0  0
  4  3  1  0  0  0  0
  5  9  1  1  0  0  0
  6  4  2  0  0  0  0
  7  8  1  0  0  0  0
  9 19  1  0  0  0  0
 11 12  2  0  0  0  0
 12 17  1  0  0  0  0
 13  9  1  0  0  0  0
 13 18  1  0  0  0  0
 14 15  1  0  0  0  0
 14 17  2  0  0  0  0
 16 14  1  0  0  0  0
 18 20  1  0  0  0  0
 18 16  2  0  0  0  0
 19 10  2  0  0  0  0
 19 16  1  0  0  0  0
 20 11  1  0  0  0  0
 21 24  2  0  0  0  0
 22 21  1  0  0  0  0
 23 27  2  0  0  0  0
 25 26  2  0  0  0  0
 25 22  1  0  0  0  0
 26 23  1  0  0  0  0
 27 24  1  0  0  0  0
M  END
>  <MODEL>
4

>  <REMARK>
 VINA RESULT:      -6.3      2.290      4.543
  Name = 
  2 active torsions:
  status: ('A' for Active; 'I' for Inactive)
    1  A    between atoms: C_1  and  C_18
    2  A    between atoms: N_2  and  C_15
                            x       y       z     vdW  Elec       q    Type
                         _______ _______ _______ _____ _____    ______ ____

>  <TORSDO>
F 2

$$$$
=
 OpenBabel10262420073D

 27 31  0  0  1  0  0  0  0  0999 V2000
  189.8390  177.8150  137.2820 C   0  0  1  0  0  3  0  0  0  0  0  0
  192.0570  174.5810  136.6600 C   0  0  0  0  0  3  0  0  0  0  0  0
  189.9350  176.4550  136.5870 C   0  0  1  0  0  0  0  0  0  0  0  0
  189.8040  175.1850  137.3940 C   0  0  0  0  0  3  0  0  0  0  0  0
  188.7070  177.3270  136.3380 C   0  0  1  0  0  3  0  0  0  0  0  0
  190.8220  174.3240  137.4290 C   0  0  0  0  0  3  0  0  0  0  0  0
  192.1250  175.5720  135.7640 C   0  0  0  0  0  3  0  0  0  0  0  0
  190.9300  176.4250  135.4270 C   0  0  0  0  0  2  0  0  0  0  0  0
  187.4960  176.8910  137.0430 N   0  0  0  0  0  0  0  0  0  0  0  0
  186.4420  179.0070  137.1790 O   0  0  0  0  0  0  0  0  0  0  0  0
  183.3280  174.6370  136.7010 C   0  0  0  0  0  3  0  0  0  0  0  0
  182.4920  175.6780  136.6780 C   0  0  0  0  0  3  0  0  0  0  0  0
  186.9470  175.5360  136.9630 C   0  0  0  0  0  2  0  0  0  0  0  0
  183.8340  177.5390  137.7310 C   0  0  0  0  0  0  0  0  0  0  0  0
  183.7770  178.7540  138.3310 F   0  0  0  0  0  0  0  0  0  0  0  0
  185.1620  176.9870  137.3930 C   0  0  0  0  0  0  0  0  0  0  0  0
  182.6750  176.9640  137.3830 C   0  0  0  0  0  3  0  0  0  0  0  0
  185.4840  175.7090  137.2510 C   0  0  0  0  0  0  0  0  0  0  0  0
  186.3780  177.7490  137.2280 C   0  0  0  0  0  0  0  0  0  0  0  0
  184.5640  174.5730  137.5380 C   0  0  0  0  0  2  0  0  0  0  0  0
  188.4540  177.8160  141.6670 C   0  0  0  0  0  3  0  0  0  0  0  0
  189.1820  176.5290  141.4770 C   0  0  0  0  0  2  0  0  0  0  0  0
  189.5800  177.7570  138.7710 C   0  0  0  0  0  0  0  0  0  0  0  0
  188.1440  178.6350  140.6610 C   0  0  0  0  0  3  0  0  0  0  0  0
  190.5210  176.7530  140.8600 C   0  0  0  0  0  3  0  0  0  0  0  0
  190.6770  177.2730  139.6430 C   0  0  0  0  0  3  0  0  0  0  0  0
  188.5270  178.4400  139.2480 C   0  0  0  0  0  3  0  0  0  0  0  0
  1 23  1  1  0  0  0
  2  6  1  0  0  0  0
  3  8  1  6  0  0  0
  3  1  1  0  0  0  0
  3  4  1  0  0  0  0
  4  6  2  0  0  0  0
  5  3  1  0  0  0  0
  5  9  1  1  0  0  0
  5  1  1  0  0  0  0
  7  2  2  0  0  0  0
  8  7  1  0  0  0  0
  9 19  1  0  0  0  0
 10 19  2  0  0  0  0
 11 20  1  0  0  0  0
 12 11  2  0  0  0  0
 12 17  1  0  0  0  0
 13  9  1  0  0  0  0
 13 18  1  0  0  0  0
 14 15  1  0  0  0  0
 16 14  1  0  0  0  0
 17 14  2  0  0  0  0
 18 16  2  0  0  0  0
 18 20  1  0  0  0  0
 19 16  1  0  0  0  0
 22 21  1  0  0  0  0
 23 27  2  0  0  0  0
 23 26  1  0  0  0  0
 24 21  2  0  0  0  0
 25 22  1  0  0  0  0
 26 25  2  0  0  0  0
 27 24  1  0  0  0  0
M  END
>  <MODEL>
5

>  <REMARK>
 VINA RESULT:      -5.8      5.551      8.960
  Name = 
  2 active torsions:
  status: ('A' for Active; 'I' for Inactive)
    1  A    between atoms: C_1  and  C_18
    2  A    between atoms: N_2  and  C_15
                            x       y       z     vdW  Elec       q    Type
                         _______ _______ _______ _____ _____    ______ ____

>  <TORSDO>
F 2

$$$$
=
 OpenBabel10262420073D

 27 31  0  0  1  0  0  0  0  0999 V2000
  189.8180  177.8710  137.3520 C   0  0  1  0  0  3  0  0  0  0  0  0
  186.1030  177.8030  135.9530 C   0  0  0  0  0  3  0  0  0  0  0  0
  188.3480  178.1850  137.6360 C   0  0  1  0  0  0  0  0  0  0  0  0
  187.3740  177.0630  137.9050 C   0  0  0  0  0  3  0  0  0  0  0  0
  189.3980  178.5490  138.6840 C   0  0  1  0  0  3  0  0  0  0  0  0
  186.3330  176.8890  137.0900 C   0  0  0  0  0  3  0  0  0  0  0  0
  186.8070  178.9330  135.8140 C   0  0  0  0  0  3  0  0  0  0  0  0
  187.8100  179.3780  136.8460 C   0  0  0  0  0  2  0  0  0  0  0  0
  189.4390  177.6510  139.8440 N   0  0  0  0  0  0  0  0  0  0  0  0
  191.7460  177.8780  140.3250 O   0  0  0  0  0  0  0  0  0  0  0  0
  188.3540  177.0840  144.4330 C   0  0  0  0  0  3  0  0  0  0  0  0
  189.5560  177.2520  144.9880 C   0  0  0  0  0  3  0  0  0  0  0  0
  188.2890  177.3790  140.7080 C   0  0  0  0  0  2  0  0  0  0  0  0
  191.1550  176.7670  143.0960 C   0  0  0  0  0  0  0  0  0  0  0  0
  192.4310  176.4430  142.7680 F   0  0  0  0  0  0  0  0  0  0  0  0
  190.2170  177.1040  142.0050 C   0  0  0  0  0  0  0  0  0  0  0  0
  190.8550  176.8660  144.3970 C   0  0  0  0  0  3  0  0  0  0  0  0
  188.8960  176.9940  142.0250 C   0  0  0  0  0  0  0  0  0  0  0  0
  190.5830  177.5500  140.6810 C   0  0  0  0  0  0  0  0  0  0  0  0
  188.1190  176.3780  143.1370 C   0  0  0  0  0  2  0  0  0  0  0  0
  190.4050  173.3150  137.1300 C   0  0  0  0  0  3  0  0  0  0  0  0
  191.7430  173.9060  136.8400 C   0  0  0  0  0  2  0  0  0  0  0  0
  190.1800  176.4020  137.4000 C   0  0  0  0  0  0  0  0  0  0  0  0
  189.2900  174.0400  137.2190 C   0  0  0  0  0  3  0  0  0  0  0  0
  192.1270  174.9060  137.8780 C   0  0  0  0  0  3  0  0  0  0  0  0
  191.4360  176.0250  138.0920 C   0  0  0  0  0  3  0  0  0  0  0  0
  189.2150  175.5120  137.1200 C   0  0  0  0  0  3  0  0  0  0  0  0
  1 23  1  1  0  0  0
  1  3  1  0  0  0  0
  1  5  1  0  0  0  0
  2  6  1  0  0  0  0
  3  8  1  6  0  0  0
  3  4  1  0  0  0  0
  3  5  1  0  0  0  0
  5  9  1  1  0  0  0
  6  4  2  0  0  0  0
  7  2  2  0  0  0  0
  7  8  1  0  0  0  0
  9 19  1  0  0  0  0
  9 13  1  0  0  0  0
 10 19  2  0  0  0  0
 11 12  2  0  0  0  0
 13 18  1  0  0  0  0
 14 17  2  0  0  0  0
 15 14  1  0  0  0  0
 16 18  2  0  0  0  0
 16 14  1  0  0  0  0
 17 12  1  0  0  0  0
 18 20  1  0  0  0  0
 19 16  1  0  0  0  0
 20 11  1  0  0  0  0
 21 24  2  0  0  0  0
 22 21  1  0  0  0  0
 22 25  1  0  0  0  0
 23 26  1  0  0  0  0
 25 26  2  0  0  0  0
 27 24  1  0  0  0  0
 27 23  2  0  0  0  0
M  END
>  <MODEL>
6

>  <REMARK>
 VINA RESULT:      -5.6      5.975      7.828
  Name = 
  2 active torsions:
  status: ('A' for Active; 'I' for Inactive)
    1  A    between atoms: C_1  and  C_18
    2  A    between atoms: N_2  and  C_15
                            x       y       z     vdW  Elec       q    Type
                         _______ _______ _______ _____ _____    ______ ____

>  <TORSDO>
F 2

$$$$
=
 OpenBabel10262420073D

 27 31  0  0  1  0  0  0  0  0999 V2000
  182.9440  179.1120  139.8780 C   0  0  1  0  0  3  0  0  0  0  0  0
  181.5340  179.0030  143.5880 C   0  0  0  0  0  3  0  0  0  0  0  0
  182.5600  178.2270  141.0650 C   0  0  1  0  0  0  0  0  0  0  0  0
  181.1040  178.0020  141.3990 C   0  0  0  0  0  3  0  0  0  0  0  0
  183.1640  177.5760  139.8220 C   0  0  1  0  0  3  0  0  0  0  0  0
  180.6370  178.3920  142.5860 C   0  0  0  0  0  3  0  0  0  0  0  0
  182.8620  179.0120  143.4200 C   0  0  0  0  0  3  0  0  0  0  0  0
  183.5210  178.3320  142.2490 C   0  0  0  0  0  2  0  0  0  0  0  0
  182.1970  176.8710  138.9720 N   0  0  0  0  0  0  0  0  0  0  0  0
  183.5480  176.7200  137.0330 O   0  0  0  0  0  0  0  0  0  0  0  0
  180.0580  172.7370  138.0220 C   0  0  0  0  0  3  0  0  0  0  0  0
  180.7300  172.3630  136.9310 C   0  0  0  0  0  3  0  0  0  0  0  0
  181.1370  176.0020  139.4870 C   0  0  0  0  0  2  0  0  0  0  0  0
  181.6800  174.5290  136.0480 C   0  0  0  0  0  0  0  0  0  0  0  0
  182.2090  175.1570  134.9690 F   0  0  0  0  0  0  0  0  0  0  0  0
  181.6840  175.2400  137.3440 C   0  0  0  0  0  0  0  0  0  0  0  0
  181.2850  173.2580  135.8940 C   0  0  0  0  0  3  0  0  0  0  0  0
  180.8570  175.0490  138.3620 C   0  0  0  0  0  0  0  0  0  0  0  0
  182.5550  176.3330  137.7060 C   0  0  0  0  0  0  0  0  0  0  0  0
  179.6710  174.1480  138.3260 C   0  0  0  0  0  2  0  0  0  0  0  0
  179.6340  180.5090  137.0090 C   0  0  0  0  0  3  0  0  0  0  0  0
  178.9310  180.0740  138.2500 C   0  0  0  0  0  2  0  0  0  0  0  0
  181.7790  179.6800  139.0980 C   0  0  0  0  0  0  0  0  0  0  0  0
  180.9330  180.3040  136.7960 C   0  0  0  0  0  3  0  0  0  0  0  0
  179.5290  180.7100  139.4590 C   0  0  0  0  0  3  0  0  0  0  0  0
  180.7890  180.4990  139.8360 C   0  0  0  0  0  3  0  0  0  0  0  0
  181.8740  179.6970  137.7590 C   0  0  0  0  0  3  0  0  0  0  0  0
  1 23  1  6  0  0  0
  1  3  1  0  0  0  0
  3  4  1  1  0  0  0
  3  8  1  0  0  0  0
  4  6  2  0  0  0  0
  5  9  1  6  0  0  0
  5  1  1  0  0  0  0
  5  3  1  0  0  0  0
  6  2  1  0  0  0  0
  7  2  2  0  0  0  0
  8  7  1  0  0  0  0
  9 13  1  0  0  0  0
 10 19  2  0  0  0  0
 11 20  1  0  0  0  0
 12 11  2  0  0  0  0
 14 16  1  0  0  0  0
 15 14  1  0  0  0  0
 16 19  1  0  0  0  0
 16 18  2  0  0  0  0
 17 14  2  0  0  0  0
 17 12  1  0  0  0  0
 18 13  1  0  0  0  0
 19  9  1  0  0  0  0
 20 18  1  0  0  0  0
 21 22  1  0  0  0  0
 22 25  1  0  0  0  0
 23 26  1  0  0  0  0
 24 21  2  0  0  0  0
 24 27  1  0  0  0  0
 25 26  2  0  0  0  0
 27 23  2  0  0  0  0
M  END
>  <MODEL>
7

>  <REMARK>
 VINA RESULT:      -5.4      2.687      6.055
  Name = 
  2 active torsions:
  status: ('A' for Active; 'I' for Inactive)
    1  A    between atoms: C_1  and  C_18
    2  A    between atoms: N_2  and  C_15
                            x       y       z     vdW  Elec       q    Type
                         _______ _______ _______ _____ _____    ______ ____

>  <TORSDO>
F 2

$$$$
=
 OpenBabel10262420073D

 27 31  0  0  1  0  0  0  0  0999 V2000
  184.2580  175.2670  135.0610 C   0  0  1  0  0  3  0  0  0  0  0  0
  184.6250  171.7310  136.8280 C   0  0  0  0  0  3  0  0  0  0  0  0
  183.6730  174.2920  136.0840 C   0  0  1  0  0  0  0  0  0  0  0  0
  184.3610  174.0900  137.4140 C   0  0  0  0  0  3  0  0  0  0  0  0
  182.9340  175.5980  135.8020 C   0  0  1  0  0  3  0  0  0  0  0  0
  184.8170  172.8790  137.7370 C   0  0  0  0  0  3  0  0  0  0  0  0
  183.8310  171.8180  135.7550 C   0  0  0  0  0  3  0  0  0  0  0  0
  183.0270  173.0570  135.4580 C   0  0  0  0  0  2  0  0  0  0  0  0
  183.0790  176.6200  136.8450 N   0  0  0  0  0  0  0  0  0  0  0  0
  181.9770  178.3800  135.7070 O   0  0  0  0  0  0  0  0  0  0  0  0
  181.5810  178.1770  141.0760 C   0  0  0  0  0  3  0  0  0  0  0  0
  180.8150  179.2030  140.6970 C   0  0  0  0  0  3  0  0  0  0  0  0
  183.2100  176.3170  138.2720 C   0  0  0  0  0  2  0  0  0  0  0  0
  181.6820  179.7740  138.3960 C   0  0  0  0  0  0  0  0  0  0  0  0
  181.7350  180.7200  137.4270 F   0  0  0  0  0  0  0  0  0  0  0  0
  182.2240  178.4320  138.0940 C   0  0  0  0  0  0  0  0  0  0  0  0
  181.0430  180.0830  139.5320 C   0  0  0  0  0  3  0  0  0  0  0  0
  182.6910  177.5460  138.9620 C   0  0  0  0  0  0  0  0  0  0  0  0
  182.4100  177.8720  136.7760 C   0  0  0  0  0  0  0  0  0  0  0  0
  182.8700  177.8060  140.4180 C   0  0  0  0  0  2  0  0  0  0  0  0
  187.7230  178.0080  136.3380 C   0  0  0  0  0  3  0  0  0  0  0  0
  187.6520  176.9420  137.3780 C   0  0  0  0  0  2  0  0  0  0  0  0
  185.5080  175.9920  135.5090 C   0  0  0  0  0  0  0  0  0  0  0  0
  186.8010  178.1650  135.3890 C   0  0  0  0  0  3  0  0  0  0  0  0
  187.6370  175.5850  136.7580 C   0  0  0  0  0  3  0  0  0  0  0  0
  186.6590  175.1700  135.9530 C   0  0  0  0  0  3  0  0  0  0  0  0
  185.6320  177.2870  135.1750 C   0  0  0  0  0  3  0  0  0  0  0  0
  1 23  1  1  0  0  0
  1  5  1  0  0  0  0
  1  3  1  0  0  0  0
  2  6  1  0  0  0  0
  3  8  1  6  0  0  0
  3  4  1  0  0  0  0
  4  6  2  0  0  0  0
  5  3  1  0  0  0  0
  5  9  1  1  0  0  0
  7  2  2  0  0  0  0
  8  7  1  0  0  0  0
  9 13  1  0  0  0  0
 10 19  2  0  0  0  0
 12 11  2  0  0  0  0
 13 18  1  0  0  0  0
 14 17  2  0  0  0  0
 15 14  1  0  0  0  0
 16 14  1  0  0  0  0
 16 18  2  0  0  0  0
 17 12  1  0  0  0  0
 18 20  1  0  0  0  0
 19  9  1  0  0  0  0
 19 16  1  0  0  0  0
 20 11  1  0  0  0  0
 21 22  1  0  0  0  0
 23 26  1  0  0  0  0
 24 21  2  0  0  0  0
 25 22  1  0  0  0  0
 26 25  2  0  0  0  0
 27 24  1  0  0  0  0
 27 23  2  0  0  0  0
M  END
>  <MODEL>
8

>  <REMARK>
 VINA RESULT:      -5.2      4.203      7.113
  Name = 
  2 active torsions:
  status: ('A' for Active; 'I' for Inactive)
    1  A    between atoms: C_1  and  C_18
    2  A    between atoms: N_2  and  C_15
                            x       y       z     vdW  Elec       q    Type
                         _______ _______ _______ _____ _____    ______ ____

>  <TORSDO>
F 2

$$$$
=
 OpenBabel10262420073D

 27 31  0  0  1  0  0  0  0  0999 V2000
  188.1270  179.2430  141.5680 C   0  0  1  0  0  3  0  0  0  0  0  0
  188.8350  176.8100  144.6250 C   0  0  0  0  0  3  0  0  0  0  0  0
  188.9990  178.1130  142.1150 C   0  0  1  0  0  0  0  0  0  0  0  0
  188.4450  176.7110  142.2130 C   0  0  0  0  0  3  0  0  0  0  0  0
  189.3300  178.7050  140.7470 C   0  0  1  0  0  3  0  0  0  0  0  0
  188.3600  176.1220  143.4070 C   0  0  0  0  0  3  0  0  0  0  0  0
  189.5330  177.9490  144.5530 C   0  0  0  0  0  3  0  0  0  0  0  0
  189.9440  178.5500  143.2340 C   0  0  0  0  0  2  0  0  0  0  0  0
  188.9410  177.8660  139.6080 N   0  0  0  0  0  0  0  0  0  0  0  0
  188.9090  179.5720  137.9670 O   0  0  0  0  0  0  0  0  0  0  0  0
  190.3440  174.6070  136.4500 C   0  0  0  0  0  3  0  0  0  0  0  0
  190.4860  175.3690  135.3640 C   0  0  0  0  0  3  0  0  0  0  0  0
  189.2270  176.4330  139.5140 C   0  0  0  0  0  2  0  0  0  0  0  0
  189.0450  177.3820  135.8590 C   0  0  0  0  0  0  0  0  0  0  0  0
  188.3970  178.4480  135.3280 F   0  0  0  0  0  0  0  0  0  0  0  0
  189.1130  177.2670  137.3310 C   0  0  0  0  0  0  0  0  0  0  0  0
  189.6780  176.5570  135.0150 C   0  0  0  0  0  3  0  0  0  0  0  0
  189.2610  176.1560  138.0390 C   0  0  0  0  0  0  0  0  0  0  0  0
  188.9550  178.3510  138.2730 C   0  0  0  0  0  0  0  0  0  0  0  0
  189.2580  174.7830  137.4620 C   0  0  0  0  0  2  0  0  0  0  0  0
  183.7280  178.1240  140.8260 C   0  0  0  0  0  3  0  0  0  0  0  0
  184.1240  178.9790  139.6710 C   0  0  0  0  0  2  0  0  0  0  0  0
  186.7400  178.8270  141.1280 C   0  0  0  0  0  0  0  0  0  0  0  0
  184.4960  177.9480  141.9010 C   0  0  0  0  0  3  0  0  0  0  0  0
  185.3900  178.4930  139.0490 C   0  0  0  0  0  3  0  0  0  0  0  0
  186.5500  178.4610  139.7050 C   0  0  0  0  0  3  0  0  0  0  0  0
  185.8560  178.4960  142.0830 C   0  0  0  0  0  3  0  0  0  0  0  0
  1 23  1  6  0  0  0
  1  3  1  0  0  0  0
  3  4  1  1  0  0  0
  3  8  1  0  0  0  0
  4  6  2  0  0  0  0
  5  9  1  6  0  0  0
  5  1  1  0  0  0  0
  5  3  1  0  0  0  0
  6  2  1  0  0  0  0
  7  2  2  0  0  0  0
  8  7  1  0  0  0  0
 10 19  2  0  0  0  0
 11 20  1  0  0  0  0
 12 11  2  0  0  0  0
 13  9  1  0  0  0  0
 14 16  1  0  0  0  0
 15 14  1  0  0  0  0
 16 18  2  0  0  0  0
 16 19  1  0  0  0  0
 17 12  1  0  0  0  0
 17 14  2  0  0  0  0
 18 13  1  0  0  0  0
 19  9  1  0  0  0  0
 20 18  1  0  0  0  0
 21 24  2  0  0  0  0
 22 21  1  0  0  0  0
 23 27  2  0  0  0  0
 24 27  1  0  0  0  0
 25 22  1  0  0  0  0
 25 26  2  0  0  0  0
 26 23  1  0  0  0  0
M  END
>  <MODEL>
9

>  <REMARK>
 VINA RESULT:      -5.2      4.896      8.201
  Name = 
  2 active torsions:
  status: ('A' for Active; 'I' for Inactive)
    1  A    between atoms: C_1  and  C_18
    2  A    between atoms: N_2  and  C_15
                            x       y       z     vdW  Elec       q    Type
                         _______ _______ _______ _____ _____    ______ ____

>  <TORSDO>
F 2

$$$$
