=
 OpenBabel10262422473D

 37 43  0  0  1  0  0  0  0  0999 V2000
  184.6290  178.6830  139.6520 C   0  0  2  0  0  3  0  0  0  0  0  0
  190.1830  179.0470  143.6990 C   0  0  0  0  0  2  0  0  0  0  0  0
  186.6350  176.2270  135.0260 C   0  0  0  0  0  2  0  0  0  0  0  0
  189.1090  177.5470  138.7260 N   0  0  0  0  0  0  0  0  0  0  0  0
  183.7390  178.5550  140.7440 O   0  0  0  0  0  0  0  0  0  0  0  0
  189.4710  177.7650  143.2130 C   0  0  2  0  0  0  0  0  0  0  0  0
  187.9680  177.9930  143.2990 C   0  0  0  0  0  2  0  0  0  0  0  0
  189.8270  176.5500  144.0770 C   0  0  0  0  0  2  0  0  0  0  0  0
  188.9800  178.2320  136.2430 C   0  0  0  0  0  2  0  0  0  0  0  0
  188.1840  177.3600  139.8310 C   0  0  1  0  0  3  0  0  0  0  0  0
  188.3880  178.0610  137.6110 C   0  0  0  0  0  0  0  0  0  0  0  0
  188.6460  178.2490  140.9730 C   0  0  1  0  0  3  0  0  0  0  0  0
  191.8460  175.2810  144.5870 C   0  0  0  0  0  2  0  0  0  0  0  0
  188.6860  177.0150  135.3760 C   0  0  0  0  0  2  0  0  0  0  0  0
  184.0590  179.5100  141.6080 O   0  0  0  0  0  0  0  0  0  0  0  0
  192.0050  177.7040  144.8030 C   0  0  0  0  0  2  0  0  0  0  0  0
  191.3000  176.4670  144.3400 C   0  0  0  0  0  0  0  0  0  0  0  0
  187.1000  178.2010  137.8840 C   0  0  0  0  0  0  0  0  0  0  0  0
  185.0870  177.4300  136.6170 C   0  0  0  0  0  2  0  0  0  0  0  0
  191.2140  176.9220  139.9170 O   0  0  0  0  0  0  0  0  0  0  0  0
  191.0250  176.7570  137.6430 O   0  0  0  0  0  0  0  0  0  0  0  0
  186.1240  178.4180  136.8640 N   0  0  0  0  0  2  0  0  0  0  0  0
  185.1350  179.0220  142.3800 C   0  0  2  0  0  3  0  0  0  0  0  0
  187.5780  178.6460  141.9820 C   0  0  1  0  0  3  0  0  0  0  0  0
  190.4760  177.0820  138.7290 C   0  0  0  0  0  0  0  0  0  0  0  0
  186.7780  177.7010  139.2670 C   0  0  2  0  0  3  0  0  0  0  0  0
  187.5230  177.2320  134.6330 O   0  0  0  0  0  0  0  0  0  0  0  0
  189.6760  177.4570  141.7270 C   0  0  1  0  0  3  0  0  0  0  0  0
  185.2490  176.8230  135.2280 C   0  0  0  0  0  2  0  0  0  0  0  0
  186.1710  178.3040  141.5030 C   0  0  2  0  0  3  0  0  0  0  0  0
  191.6940  178.8570  143.8580 C   0  0  0  0  0  2  0  0  0  0  0  0
  186.0440  178.6930  140.0820 N   0  0  2  0  0  0  0  0  0  0  0  0
  191.0440  177.6930  141.1100 C   0  0  0  0  0  2  0  0  0  0  0  0
  184.6340  178.0970  143.4810 C   0  0  0  0  0  2  0  0  0  0  0  0
  184.6490  178.8160  144.8150 C   0  0  0  0  0  1  0  0  0  0  0  0
  182.8240  180.0570  138.6100 C   0  0  0  0  0  1  0  0  0  0  0  0
  184.3160  179.9420  138.8480 C   0  0  0  0  0  2  0  0  0  0  0  0
  1 37  1  1  0  0  0
  1 32  1  0  0  0  0
  1  5  1  0  0  0  0
  2 31  1  0  0  0  0
  3 29  1  0  0  0  0
  4 25  1  0  0  0  0
  5 15  1  0  0  0  0
  6  7  1  1  0  0  0
  6  2  1  0  0  0  0
  6  8  1  0  0  0  0
  8 17  1  0  0  0  0
  9 11  1  0  0  0  0
 10  4  1  6  0  0  0
 10 12  1  0  0  0  0
 11 18  2  0  0  0  0
 11  4  1  0  0  0  0
 12 28  1  0  0  0  0
 12 24  1  0  0  0  0
 14  9  1  0  0  0  0
 15 23  1  0  0  0  0
 17 13  2  0  0  0  0
 17 16  1  0  0  0  0
 18 26  1  0  0  0  0
 19 22  1  0  0  0  0
 20 33  1  0  0  0  0
 21 25  2  0  0  0  0
 22 18  1  0  0  0  0
 23 34  1  0  0  0  0
 24  7  1  0  0  0  0
 25 20  1  0  0  0  0
 26 10  1  0  0  0  0
 26 32  1  0  0  0  0
 27  3  1  0  0  0  0
 27 14  1  0  0  0  0
 28  6  1  0  0  0  0
 29 19  1  0  0  0  0
 30 24  1  0  0  0  0
 30 23  1  0  0  0  0
 31 16  1  0  0  0  0
 32 30  1  0  0  0  0
 33 28  1  0  0  0  0
 34 35  1  0  0  0  0
 36 37  1  0  0  0  0
M  END
>  <MODEL>
1

>  <REMARK>
 VINA RESULT:      -8.4      0.000      0.000
  Name = 
  2 active torsions:
  status: ('A' for Active; 'I' for Inactive)
    1  A    between atoms: C_1  and  C_23
    2  A    between atoms: C_11  and  C_26
                            x       y       z     vdW  Elec       q    Type
                         _______ _______ _______ _____ _____    ______ ____

>  <TORSDO>
F 2

$$$$
=
 OpenBabel10262422473D

 37 43  0  0  1  0  0  0  0  0999 V2000
  189.6660  177.6750  142.5760 C   0  0  2  0  0  3  0  0  0  0  0  0
  184.0950  179.7770  139.1240 C   0  0  0  0  0  2  0  0  0  0  0  0
  187.6480  176.7530  147.7260 C   0  0  0  0  0  2  0  0  0  0  0  0
  185.3020  178.5330  144.1380 N   0  0  0  0  0  0  0  0  0  0  0  0
  190.2520  177.0820  141.4330 O   0  0  0  0  0  0  0  0  0  0  0  0
  184.3350  178.3800  139.7380 C   0  0  2  0  0  0  0  0  0  0  0  0
  185.7760  177.9780  139.4590 C   0  0  0  0  0  2  0  0  0  0  0  0
  183.4100  177.3210  139.1280 C   0  0  0  0  0  2  0  0  0  0  0  0
  186.0790  179.3800  146.4460 C   0  0  0  0  0  2  0  0  0  0  0  0
  185.8960  177.8710  142.9880 C   0  0  1  0  0  3  0  0  0  0  0  0
  186.3340  178.8360  145.0710 C   0  0  0  0  0  0  0  0  0  0  0  0
  185.6300  178.7380  141.7690 C   0  0  1  0  0  3  0  0  0  0  0  0
  181.0060  176.9160  139.0470 C   0  0  0  0  0  2  0  0  0  0  0  0
  186.0230  178.2510  147.4670 C   0  0  0  0  0  2  0  0  0  0  0  0
  190.1850  177.9840  140.4610 O   0  0  0  0  0  0  0  0  0  0  0  0
  181.7480  179.1610  138.4530 C   0  0  0  0  0  2  0  0  0  0  0  0
  181.9940  177.8050  139.0370 C   0  0  0  0  0  0  0  0  0  0  0  0
  187.5150  178.4190  144.6460 C   0  0  0  0  0  0  0  0  0  0  0  0
  189.2600  177.0530  145.8060 C   0  0  0  0  0  2  0  0  0  0  0  0
  182.9560  178.6730  143.2910 O   0  0  0  0  0  0  0  0  0  0  0  0
  183.4310  178.6990  145.5290 O   0  0  0  0  0  0  0  0  0  0  0  0
  188.6510  178.3390  145.5100 N   0  0  0  0  0  2  0  0  0  0  0  0
  188.8960  177.8840  139.8970 C   0  0  2  0  0  3  0  0  0  0  0  0
  186.5910  178.5620  140.6030 C   0  0  1  0  0  3  0  0  0  0  0  0
  183.8800  178.6560  144.3530 C   0  0  0  0  0  0  0  0  0  0  0  0
  187.3970  177.6830  143.3380 C   0  0  2  0  0  3  0  0  0  0  0  0
  187.2850  178.0660  148.0380 O   0  0  0  0  0  0  0  0  0  0  0  0
  184.2700  178.3460  141.2680 C   0  0  1  0  0  3  0  0  0  0  0  0
  189.1050  176.7190  147.2850 C   0  0  0  0  0  2  0  0  0  0  0  0
  187.8200  177.7410  140.9830 C   0  0  2  0  0  3  0  0  0  0  0  0
  182.6220  180.1910  139.1570 C   0  0  0  0  0  2  0  0  0  0  0  0
  188.3120  178.2020  142.3000 N   0  0  2  0  0  0  0  0  0  0  0  0
  183.2120  179.1750  141.9770 C   0  0  0  0  0  2  0  0  0  0  0  0
  188.8230  176.7210  138.9170 C   0  0  0  0  0  2  0  0  0  0  0  0
  189.4130  177.1240  137.5810 C   0  0  0  0  0  1  0  0  0  0  0  0
  191.8270  178.1980  143.7100 C   0  0  0  0  0  1  0  0  0  0  0  0
  190.5580  178.7850  143.1230 C   0  0  0  0  0  2  0  0  0  0  0  0
  1 37  1  6  0  0  0
  2 31  1  0  0  0  0
  3 27  1  0  0  0  0
  4 25  1  0  0  0  0
  4 11  1  0  0  0  0
  5  1  1  0  0  0  0
  6  2  1  6  0  0  0
  6 28  1  0  0  0  0
  7  6  1  0  0  0  0
  7 24  1  0  0  0  0
  8  6  1  0  0  0  0
  9 14  1  0  0  0  0
 10 26  1  0  0  0  0
 10  4  1  1  0  0  0
 11  9  1  0  0  0  0
 12 10  1  0  0  0  0
 14 27  1  0  0  0  0
 15  5  1  0  0  0  0
 16 17  1  0  0  0  0
 16 31  1  0  0  0  0
 17 13  2  0  0  0  0
 17  8  1  0  0  0  0
 18 11  2  0  0  0  0
 18 22  1  0  0  0  0
 19 29  1  0  0  0  0
 20 25  1  0  0  0  0
 22 19  1  0  0  0  0
 23 15  1  0  0  0  0
 23 30  1  0  0  0  0
 24 30  1  0  0  0  0
 24 12  1  0  0  0  0
 25 21  2  0  0  0  0
 26 18  1  0  0  0  0
 28 12  1  0  0  0  0
 28 33  1  0  0  0  0
 29  3  1  0  0  0  0
 30 32  1  0  0  0  0
 32  1  1  0  0  0  0
 32 26  1  0  0  0  0
 33 20  1  0  0  0  0
 34 23  1  0  0  0  0
 35 34  1  0  0  0  0
 37 36  1  0  0  0  0
M  END
>  <MODEL>
2

>  <REMARK>
 VINA RESULT:      -8.2      2.552      8.507
  Name = 
  2 active torsions:
  status: ('A' for Active; 'I' for Inactive)
    1  A    between atoms: C_1  and  C_23
    2  A    between atoms: C_11  and  C_26
                            x       y       z     vdW  Elec       q    Type
                         _______ _______ _______ _____ _____    ______ ____

>  <TORSDO>
F 2

$$$$
=
 OpenBabel10262422473D

 37 43  0  0  1  0  0  0  0  0999 V2000
  187.7980  178.0740  140.8070 C   0  0  2  0  0  3  0  0  0  0  0  0
  181.9470  180.0240  137.7530 C   0  0  0  0  0  2  0  0  0  0  0  0
  186.1730  177.1270  146.0910 C   0  0  0  0  0  2  0  0  0  0  0  0
  183.5360  178.8330  142.6720 N   0  0  0  0  0  0  0  0  0  0  0  0
  188.3170  177.4910  139.6270 O   0  0  0  0  0  0  0  0  0  0  0  0
  182.2640  178.6370  138.3530 C   0  0  2  0  0  0  0  0  0  0  0  0
  183.6910  178.2680  137.9740 C   0  0  0  0  0  2  0  0  0  0  0  0
  181.3250  177.5520  137.8120 C   0  0  0  0  0  2  0  0  0  0  0  0
  184.4540  179.7090  144.9180 C   0  0  0  0  0  2  0  0  0  0  0  0
  184.0630  178.1800  141.4850 C   0  0  1  0  0  3  0  0  0  0  0  0
  184.6230  179.1650  143.5290 C   0  0  0  0  0  0  0  0  0  0  0  0
  183.6900  179.0350  140.2860 C   0  0  1  0  0  3  0  0  0  0  0  0
  178.9320  177.0890  137.9040 C   0  0  0  0  0  2  0  0  0  0  0  0
  184.4980  178.5830  145.9430 C   0  0  0  0  0  2  0  0  0  0  0  0
  188.1590  178.3870  138.6610 O   0  0  0  0  0  0  0  0  0  0  0  0
  179.5740  179.3480  137.2520 C   0  0  0  0  0  2  0  0  0  0  0  0
  179.8940  178.0010  137.8210 C   0  0  0  0  0  0  0  0  0  0  0  0
  185.7820  178.7750  143.0230 C   0  0  0  0  0  0  0  0  0  0  0  0
  187.6380  177.4580  144.0600 C   0  0  0  0  0  2  0  0  0  0  0  0
  181.1340  178.9120  141.9940 O   0  0  0  0  0  0  0  0  0  0  0  0
  181.7640  178.9590  144.1920 O   0  0  0  0  0  0  0  0  0  0  0  0
  186.9780  178.7270  143.8040 N   0  0  0  0  0  2  0  0  0  0  0  0
  186.8360  178.2530  138.1890 C   0  0  2  0  0  3  0  0  0  0  0  0
  184.5710  178.8770  139.0560 C   0  0  1  0  0  3  0  0  0  0  0  0
  182.1300  178.9220  142.9880 C   0  0  0  0  0  0  0  0  0  0  0  0
  185.5890  178.0300  141.7290 C   0  0  2  0  0  3  0  0  0  0  0  0
  185.8010  178.4320  146.4240 O   0  0  0  0  0  0  0  0  0  0  0  0
  182.3080  178.6070  139.8840 C   0  0  1  0  0  3  0  0  0  0  0  0
  187.5960  177.1270  145.5480 C   0  0  0  0  0  2  0  0  0  0  0  0
  185.8430  178.0880  139.3490 C   0  0  2  0  0  3  0  0  0  0  0  0
  180.4700  180.4020  137.8890 C   0  0  0  0  0  2  0  0  0  0  0  0
  186.4150  178.5670  140.6270 N   0  0  2  0  0  0  0  0  0  0  0  0
  181.2830  179.4140  140.6630 C   0  0  0  0  0  2  0  0  0  0  0  0
  186.7230  177.0840  137.2200 C   0  0  0  0  0  2  0  0  0  0  0  0
  186.7000  177.5880  135.7910 C   0  0  0  0  0  1  0  0  0  0  0  0
  189.9420  178.6480  141.9520 C   0  0  0  0  0  1  0  0  0  0  0  0
  188.7000  179.2080  141.2870 C   0  0  0  0  0  2  0  0  0  0  0  0
  1 37  1  6  0  0  0
  2 31  1  0  0  0  0
  3 27  1  0  0  0  0
  4 25  1  0  0  0  0
  4 11  1  0  0  0  0
  5  1  1  0  0  0  0
  6  2  1  6  0  0  0
  6 28  1  0  0  0  0
  7  6  1  0  0  0  0
  7 24  1  0  0  0  0
  8 17  1  0  0  0  0
  8  6  1  0  0  0  0
  9 14  1  0  0  0  0
 10 26  1  0  0  0  0
 10  4  1  1  0  0  0
 11  9  1  0  0  0  0
 12 10  1  0  0  0  0
 14 27  1  0  0  0  0
 15  5  1  0  0  0  0
 16 17  1  0  0  0  0
 16 31  1  0  0  0  0
 17 13  2  0  0  0  0
 18 11  2  0  0  0  0
 18 22  1  0  0  0  0
 19 29  1  0  0  0  0
 20 25  1  0  0  0  0
 22 19  1  0  0  0  0
 23 15  1  0  0  0  0
 23 30  1  0  0  0  0
 24 30  1  0  0  0  0
 24 12  1  0  0  0  0
 25 21  2  0  0  0  0
 26 18  1  0  0  0  0
 28 12  1  0  0  0  0
 28 33  1  0  0  0  0
 29  3  1  0  0  0  0
 30 32  1  0  0  0  0
 32  1  1  0  0  0  0
 32 26  1  0  0  0  0
 33 20  1  0  0  0  0
 34 23  1  0  0  0  0
 35 34  1  0  0  0  0
 37 36  1  0  0  0  0
M  END
>  <MODEL>
3

>  <REMARK>
 VINA RESULT:      -6.2      2.443      8.741
  Name = 
  2 active torsions:
  status: ('A' for Active; 'I' for Inactive)
    1  A    between atoms: C_1  and  C_23
    2  A    between atoms: C_11  and  C_26
                            x       y       z     vdW  Elec       q    Type
                         _______ _______ _______ _____ _____    ______ ____

>  <TORSDO>
F 2

$$$$
=
 OpenBabel10262422473D

 37 43  0  0  1  0  0  0  0  0999 V2000
  185.4260  178.1940  144.3220 C   0  0  2  0  0  3  0  0  0  0  0  0
  189.0470  178.8060  138.5020 C   0  0  0  0  0  2  0  0  0  0  0  0
  180.1380  177.9880  142.4660 C   0  0  0  0  0  2  0  0  0  0  0  0
  183.9260  178.7120  139.8830 N   0  0  0  0  0  0  0  0  0  0  0  0
  186.4550  177.4840  144.9850 O   0  0  0  0  0  0  0  0  0  0  0  0
  188.1900  177.5980  138.9400 C   0  0  2  0  0  0  0  0  0  0  0  0
  188.4310  177.3550  140.4230 C   0  0  0  0  0  2  0  0  0  0  0  0
  188.5660  176.3230  138.1740 C   0  0  0  0  0  2  0  0  0  0  0  0
  181.8400  180.0800  140.5360 C   0  0  0  0  0  2  0  0  0  0  0  0
  184.9490  177.9350  140.5630 C   0  0  1  0  0  3  0  0  0  0  0  0
  183.0960  179.3280  140.8630 C   0  0  0  0  0  0  0  0  0  0  0  0
  186.3000  178.5100  140.1740 C   0  0  1  0  0  3  0  0  0  0  0  0
  188.5000  175.5790  135.8530 C   0  0  0  0  0  2  0  0  0  0  0  0
  180.6260  179.1680  140.6440 C   0  0  0  0  0  2  0  0  0  0  0  0
  187.5750  178.1680  144.7880 O   0  0  0  0  0  0  0  0  0  0  0  0
  189.5230  177.7510  136.2650 C   0  0  0  0  0  2  0  0  0  0  0  0
  188.7040  176.5780  136.7040 C   0  0  0  0  0  0  0  0  0  0  0  0
  183.4700  179.0070  142.0910 C   0  0  0  0  0  0  0  0  0  0  0  0
  182.1260  178.1430  144.0150 C   0  0  0  0  0  2  0  0  0  0  0  0
  184.7160  178.3610  137.5400 O   0  0  0  0  0  0  0  0  0  0  0  0
  182.5370  178.8750  138.0100 O   0  0  0  0  0  0  0  0  0  0  0  0
  182.6400  179.2520  143.2280 N   0  0  0  0  0  2  0  0  0  0  0  0
  188.0740  177.7840  143.5250 C   0  0  2  0  0  3  0  0  0  0  0  0
  187.4400  178.2530  141.1490 C   0  0  1  0  0  3  0  0  0  0  0  0
  183.6970  178.6740  138.4590 C   0  0  0  0  0  0  0  0  0  0  0  0
  184.6130  178.0280  142.0770 C   0  0  2  0  0  3  0  0  0  0  0  0
  180.0660  179.2730  141.9200 O   0  0  0  0  0  0  0  0  0  0  0  0
  186.6800  177.8440  138.8830 C   0  0  1  0  0  3  0  0  0  0  0  0
  180.6070  178.0760  143.9120 C   0  0  0  0  0  2  0  0  0  0  0  0
  186.9490  177.6990  142.4820 C   0  0  2  0  0  3  0  0  0  0  0  0
  189.0500  179.0080  136.9850 C   0  0  0  0  0  2  0  0  0  0  0  0
  185.7560  178.4640  142.9060 N   0  0  2  0  0  0  0  0  0  0  0  0
  186.1080  178.6360  137.7190 C   0  0  0  0  0  2  0  0  0  0  0  0
  188.8160  176.4580  143.6170 C   0  0  0  0  0  2  0  0  0  0  0  0
  190.2680  176.6950  143.9840 C   0  0  0  0  0  1  0  0  0  0  0  0
  185.2470  179.3120  146.5470 C   0  0  0  0  0  1  0  0  0  0  0  0
  185.1210  179.5010  145.0480 C   0  0  0  0  0  2  0  0  0  0  0  0
  1  5  1  0  0  0  0
  1 37  1  1  0  0  0
  2  6  1  0  0  0  0
  3 29  1  0  0  0  0
  4 11  1  0  0  0  0
  6  8  1  6  0  0  0
  6  7  1  0  0  0  0
  7 24  1  0  0  0  0
  9 14  1  0  0  0  0
  9 11  1  0  0  0  0
 10  4  1  6  0  0  0
 10 26  1  0  0  0  0
 11 18  2  0  0  0  0
 12 10  1  0  0  0  0
 12 24  1  0  0  0  0
 13 17  2  0  0  0  0
 14 27  1  0  0  0  0
 15  5  1  0  0  0  0
 16 17  1  0  0  0  0
 16 31  1  0  0  0  0
 17  8  1  0  0  0  0
 18 22  1  0  0  0  0
 20 33  1  0  0  0  0
 20 25  1  0  0  0  0
 21 25  2  0  0  0  0
 22 19  1  0  0  0  0
 23 34  1  0  0  0  0
 23 15  1  0  0  0  0
 24 30  1  0  0  0  0
 25  4  1  0  0  0  0
 26 18  1  0  0  0  0
 26 32  1  0  0  0  0
 27  3  1  0  0  0  0
 28  6  1  0  0  0  0
 28 12  1  0  0  0  0
 29 19  1  0  0  0  0
 30 32  1  0  0  0  0
 30 23  1  0  0  0  0
 31  2  1  0  0  0  0
 32  1  1  0  0  0  0
 33 28  1  0  0  0  0
 34 35  1  0  0  0  0
 37 36  1  0  0  0  0
M  END
>  <MODEL>
4

>  <REMARK>
 VINA RESULT:      -6.1      2.600      6.579
  Name = 
  2 active torsions:
  status: ('A' for Active; 'I' for Inactive)
    1  A    between atoms: C_1  and  C_23
    2  A    between atoms: C_11  and  C_26
                            x       y       z     vdW  Elec       q    Type
                         _______ _______ _______ _____ _____    ______ ____

>  <TORSDO>
F 2

$$$$
=
 OpenBabel10262422473D

 37 43  0  0  1  0  0  0  0  0999 V2000
  185.4870  177.8800  137.1170 C   0  0  2  0  0  3  0  0  0  0  0  0
  189.7500  176.3200  142.2890 C   0  0  0  0  0  2  0  0  0  0  0  0
  181.2400  180.4300  139.7470 C   0  0  0  0  0  2  0  0  0  0  0  0
  184.9060  178.4190  141.7630 N   0  0  0  0  0  0  0  0  0  0  0  0
  186.5400  178.0370  136.1860 O   0  0  0  0  0  0  0  0  0  0  0  0
  189.3600  177.7320  141.8000 C   0  0  2  0  0  0  0  0  0  0  0  0
  189.3480  177.7240  140.2780 C   0  0  0  0  0  2  0  0  0  0  0  0
  190.3610  178.7950  142.2700 C   0  0  0  0  0  2  0  0  0  0  0  0
  182.3630  177.9940  141.6970 C   0  0  0  0  0  2  0  0  0  0  0  0
  185.9770  178.6380  140.8050 C   0  0  1  0  0  3  0  0  0  0  0  0
  183.7100  178.1240  141.0490 C   0  0  0  0  0  0  0  0  0  0  0  0
  187.0450  177.5880  141.0610 C   0  0  1  0  0  3  0  0  0  0  0  0
  191.0970  179.6970  144.4130 C   0  0  0  0  0  2  0  0  0  0  0  0
  181.6110  179.3170  141.6370 C   0  0  0  0  0  2  0  0  0  0  0  0
  187.3180  176.9680  136.3090 O   0  0  0  0  0  0  0  0  0  0  0  0
  191.0730  177.2690  144.2100 C   0  0  0  0  0  2  0  0  0  0  0  0
  190.7040  178.6340  143.7200 C   0  0  0  0  0  0  0  0  0  0  0  0
  183.9030  178.1520  139.7400 C   0  0  0  0  0  0  0  0  0  0  0  0
  182.6210  179.3280  137.9430 C   0  0  0  0  0  2  0  0  0  0  0  0
  186.2590  178.6100  143.8540 O   0  0  0  0  0  0  0  0  0  0  0  0
  184.0070  179.0130  143.8380 O   0  0  0  0  0  0  0  0  0  0  0  0
  182.8180  178.1780  138.8110 N   0  0  0  0  0  2  0  0  0  0  0  0
  188.1880  177.2170  137.3920 C   0  0  2  0  0  3  0  0  0  0  0  0
  187.9530  177.2610  139.8840 C   0  0  1  0  0  3  0  0  0  0  0  0
  185.0250  178.6730  143.1790 C   0  0  0  0  0  0  0  0  0  0  0  0
  185.3120  178.5630  139.4040 C   0  0  2  0  0  3  0  0  0  0  0  0
  180.7920  179.3450  140.5050 O   0  0  0  0  0  0  0  0  0  0  0  0
  187.9250  178.1440  142.1420 C   0  0  1  0  0  3  0  0  0  0  0  0
  181.3110  180.0310  138.2790 C   0  0  0  0  0  2  0  0  0  0  0  0
  187.4420  177.8520  138.5740 C   0  0  2  0  0  3  0  0  0  0  0  0
  190.0020  176.2670  143.7980 C   0  0  0  0  0  2  0  0  0  0  0  0
  185.9840  177.6200  138.4850 N   0  0  2  0  0  0  0  0  0  0  0  0
  187.3570  177.7660  143.5000 C   0  0  0  0  0  2  0  0  0  0  0  0
  189.3510  178.1000  136.9590 C   0  0  0  0  0  2  0  0  0  0  0  0
  189.0480  179.5520  137.2680 C   0  0  0  0  0  1  0  0  0  0  0  0
  183.9370  177.0840  135.3280 C   0  0  0  0  0  1  0  0  0  0  0  0
  184.5450  176.7620  136.6790 C   0  0  0  0  0  2  0  0  0  0  0  0
  1 37  1  6  0  0  0
  1 32  1  0  0  0  0
  2 31  1  0  0  0  0
  3 27  1  0  0  0  0
  4 25  1  0  0  0  0
  5 15  1  0  0  0  0
  5  1  1  0  0  0  0
  6  7  1  6  0  0  0
  6 28  1  0  0  0  0
  6  8  1  0  0  0  0
  6  2  1  0  0  0  0
  8 17  1  0  0  0  0
 10 12  1  0  0  0  0
 10  4  1  1  0  0  0
 11  9  1  0  0  0  0
 11  4  1  0  0  0  0
 12 28  1  0  0  0  0
 14  9  1  0  0  0  0
 15 23  1  0  0  0  0
 17 16  1  0  0  0  0
 17 13  2  0  0  0  0
 18 11  2  0  0  0  0
 19 29  1  0  0  0  0
 19 22  1  0  0  0  0
 22 18  1  0  0  0  0
 23 30  1  0  0  0  0
 24  7  1  0  0  0  0
 24 12  1  0  0  0  0
 25 21  2  0  0  0  0
 25 20  1  0  0  0  0
 26 18  1  0  0  0  0
 26 10  1  0  0  0  0
 27 14  1  0  0  0  0
 28 33  1  0  0  0  0
 29  3  1  0  0  0  0
 30 24  1  0  0  0  0
 31 16  1  0  0  0  0
 32 30  1  0  0  0  0
 32 26  1  0  0  0  0
 33 20  1  0  0  0  0
 34 35  1  0  0  0  0
 34 23  1  0  0  0  0
 36 37  1  0  0  0  0
M  END
>  <MODEL>
5

>  <REMARK>
 VINA RESULT:      -6.0      1.836      5.370
  Name = 
  2 active torsions:
  status: ('A' for Active; 'I' for Inactive)
    1  A    between atoms: C_1  and  C_23
    2  A    between atoms: C_11  and  C_26
                            x       y       z     vdW  Elec       q    Type
                         _______ _______ _______ _____ _____    ______ ____

>  <TORSDO>
F 2

$$$$
=
 OpenBabel10262422473D

 37 43  0  0  1  0  0  0  0  0999 V2000
  190.3940  177.5790  142.7230 C   0  0  2  0  0  3  0  0  0  0  0  0
  187.9700  178.7620  136.3910 C   0  0  0  0  0  2  0  0  0  0  0  0
  185.7160  177.3500  145.8090 C   0  0  0  0  0  2  0  0  0  0  0  0
  185.9770  178.3960  141.2940 N   0  0  0  0  0  0  0  0  0  0  0  0
  191.5120  176.8530  142.2490 O   0  0  0  0  0  0  0  0  0  0  0  0
  187.7500  177.4970  137.2490 C   0  0  2  0  0  0  0  0  0  0  0  0
  189.0660  177.1470  137.9290 C   0  0  0  0  0  2  0  0  0  0  0  0
  187.3120  176.2990  136.3980 C   0  0  0  0  0  2  0  0  0  0  0  0
  185.2970  179.6410  143.4480 C   0  0  0  0  0  2  0  0  0  0  0  0
  187.1020  177.6010  140.8300 C   0  0  1  0  0  3  0  0  0  0  0  0
  186.2830  178.9060  142.5880 C   0  0  0  0  0  0  0  0  0  0  0  0
  187.6320  178.2480  139.5620 C   0  0  1  0  0  3  0  0  0  0  0  0
  185.3910  175.7370  135.0040 C   0  0  0  0  0  2  0  0  0  0  0  0
  184.6110  178.6840  144.4140 C   0  0  0  0  0  2  0  0  0  0  0  0
  192.0600  177.5860  141.2890 O   0  0  0  0  0  0  0  0  0  0  0  0
  186.4310  177.9030  134.5940 C   0  0  0  0  0  2  0  0  0  0  0  0
  186.2350  176.6730  135.4240 C   0  0  0  0  0  0  0  0  0  0  0  0
  187.4730  178.5020  143.0030 C   0  0  0  0  0  0  0  0  0  0  0  0
  188.1560  177.4470  145.1650 C   0  0  0  0  0  2  0  0  0  0  0  0
  184.5720  178.2550  139.2330 O   0  0  0  0  0  0  0  0  0  0  0  0
  183.6540  178.6600  141.2890 O   0  0  0  0  0  0  0  0  0  0  0  0
  187.8880  178.6300  144.3650 N   0  0  0  0  0  2  0  0  0  0  0  0
  191.3390  177.3180  140.1060 C   0  0  2  0  0  3  0  0  0  0  0  0
  189.0840  177.9520  139.2200 C   0  0  1  0  0  3  0  0  0  0  0  0
  184.7020  178.4620  140.6200 C   0  0  0  0  0  0  0  0  0  0  0  0
  188.1080  177.5640  142.0120 C   0  0  2  0  0  3  0  0  0  0  0  0
  185.2940  178.6700  145.6320 O   0  0  0  0  0  0  0  0  0  0  0  0
  186.8040  177.6980  138.4370 C   0  0  1  0  0  3  0  0  0  0  0  0
  187.1550  177.3390  146.3090 C   0  0  0  0  0  2  0  0  0  0  0  0
  189.8270  177.2800  140.3700 C   0  0  2  0  0  3  0  0  0  0  0  0
  186.7730  179.0830  135.4940 C   0  0  0  0  0  2  0  0  0  0  0  0
  189.4770  177.9710  141.6300 N   0  0  2  0  0  0  0  0  0  0  0  0
  185.5660  178.5600  138.2520 C   0  0  0  0  0  2  0  0  0  0  0  0
  191.8030  176.0140  139.4730 C   0  0  0  0  0  2  0  0  0  0  0  0
  192.6600  176.2990  138.2550 C   0  0  0  0  0  1  0  0  0  0  0  0
  191.6820  178.4100  144.6940 C   0  0  0  0  0  1  0  0  0  0  0  0
  190.8450  178.8150  143.4970 C   0  0  0  0  0  2  0  0  0  0  0  0
  1 37  1  6  0  0  0
  3 29  1  0  0  0  0
  4 11  1  0  0  0  0
  5  1  1  0  0  0  0
  6  2  1  6  0  0  0
  6  7  1  0  0  0  0
  6 28  1  0  0  0  0
  7 24  1  0  0  0  0
  8  6  1  0  0  0  0
  9 14  1  0  0  0  0
 10  4  1  1  0  0  0
 10 26  1  0  0  0  0
 11 18  2  0  0  0  0
 11  9  1  0  0  0  0
 12 10  1  0  0  0  0
 13 17  2  0  0  0  0
 14 27  1  0  0  0  0
 15  5  1  0  0  0  0
 16 17  1  0  0  0  0
 16 31  1  0  0  0  0
 17  8  1  0  0  0  0
 18 22  1  0  0  0  0
 19 29  1  0  0  0  0
 20 25  1  0  0  0  0
 22 19  1  0  0  0  0
 23 30  1  0  0  0  0
 23 15  1  0  0  0  0
 24 12  1  0  0  0  0
 24 30  1  0  0  0  0
 25 21  2  0  0  0  0
 25  4  1  0  0  0  0
 26 18  1  0  0  0  0
 27  3  1  0  0  0  0
 28 12  1  0  0  0  0
 30 32  1  0  0  0  0
 31  2  1  0  0  0  0
 32 26  1  0  0  0  0
 32  1  1  0  0  0  0
 33 28  1  0  0  0  0
 33 20  1  0  0  0  0
 34 23  1  0  0  0  0
 35 34  1  0  0  0  0
 37 36  1  0  0  0  0
M  END
>  <MODEL>
6

>  <REMARK>
 VINA RESULT:      -6.0      1.955      7.852
  Name = 
  2 active torsions:
  status: ('A' for Active; 'I' for Inactive)
    1  A    between atoms: C_1  and  C_23
    2  A    between atoms: C_11  and  C_26
                            x       y       z     vdW  Elec       q    Type
                         _______ _______ _______ _____ _____    ______ ____

>  <TORSDO>
F 2

$$$$
=
 OpenBabel10262422473D

 37 43  0  0  1  0  0  0  0  0999 V2000
  181.5350  177.2640  138.6300 C   0  0  2  0  0  3  0  0  0  0  0  0
  187.9000  177.9890  136.1150 C   0  0  0  0  0  2  0  0  0  0  0  0
  180.4070  171.8700  137.5890 C   0  0  0  0  0  2  0  0  0  0  0  0
  184.2060  174.1840  136.2640 N   0  0  0  0  0  0  0  0  0  0  0  0
  181.7320  178.2380  139.6370 O   0  0  0  0  0  0  0  0  0  0  0  0
  187.4680  177.1130  137.3110 C   0  0  2  0  0  0  0  0  0  0  0  0
  186.4630  177.9000  138.1410 C   0  0  0  0  0  2  0  0  0  0  0  0
  188.6550  176.7470  138.2100 C   0  0  0  0  0  2  0  0  0  0  0  0
  182.2120  173.0620  135.0760 C   0  0  0  0  0  2  0  0  0  0  0  0
  184.4070  175.1420  137.3390 C   0  0  1  0  0  3  0  0  0  0  0  0
  182.8100  174.0720  136.0100 C   0  0  0  0  0  0  0  0  0  0  0  0
  185.2380  176.2870  136.7860 C   0  0  1  0  0  3  0  0  0  0  0  0
  190.7190  175.4700  137.9690 C   0  0  0  0  0  2  0  0  0  0  0  0
  181.7780  171.8170  135.8380 C   0  0  0  0  0  2  0  0  0  0  0  0
  182.2580  179.3000  139.0390 O   0  0  0  0  0  0  0  0  0  0  0  0
  190.2620  177.1280  136.2410 C   0  0  0  0  0  2  0  0  0  0  0  0
  189.8390  176.2940  137.4100 C   0  0  0  0  0  0  0  0  0  0  0  0
  182.1020  174.8400  136.8230 C   0  0  0  0  0  0  0  0  0  0  0  0
  180.1190  174.2910  138.2450 C   0  0  0  0  0  2  0  0  0  0  0  0
  186.6070  173.7390  135.7360 O   0  0  0  0  0  0  0  0  0  0  0  0
  184.9660  172.2210  135.2470 O   0  0  0  0  0  0  0  0  0  0  0  0
  180.6880  174.6940  136.9690 N   0  0  0  0  0  2  0  0  0  0  0  0
  183.6470  179.0690  138.9390 C   0  0  2  0  0  3  0  0  0  0  0  0
  185.1060  177.6170  137.5130 C   0  0  1  0  0  3  0  0  0  0  0  0
  185.2520  173.3540  135.7160 C   0  0  0  0  0  0  0  0  0  0  0  0
  182.9850  175.5410  137.8190 C   0  0  2  0  0  3  0  0  0  0  0  0
  180.4310  171.9250  136.1930 O   0  0  0  0  0  0  0  0  0  0  0  0
  186.6720  175.8630  136.9220 C   0  0  1  0  0  3  0  0  0  0  0  0
  179.4500  172.9270  138.1230 C   0  0  0  0  0  2  0  0  0  0  0  0
  183.9430  177.6270  138.5000 C   0  0  2  0  0  3  0  0  0  0  0  0
  189.0670  177.3840  135.3320 C   0  0  0  0  0  2  0  0  0  0  0  0
  182.7670  177.0030  137.8550 N   0  0  2  0  0  0  0  0  0  0  0  0
  187.0880  175.0840  135.6850 C   0  0  0  0  0  2  0  0  0  0  0  0
  184.3430  179.3780  140.2570 C   0  0  0  0  0  2  0  0  0  0  0  0
  184.2980  178.1680  141.1690 C   0  0  0  0  0  1  0  0  0  0  0  0
  179.1130  177.8510  138.4680 C   0  0  0  0  0  1  0  0  0  0  0  0
  180.4050  177.6820  137.6920 C   0  0  0  0  0  2  0  0  0  0  0  0
  1 37  1  6  0  0  0
  1  5  1  0  0  0  0
  3 29  1  0  0  0  0
  6  2  1  6  0  0  0
  6  7  1  0  0  0  0
  6  8  1  0  0  0  0
  9 14  1  0  0  0  0
  9 11  1  0  0  0  0
 10  4  1  6  0  0  0
 10 26  1  0  0  0  0
 11  4  1  0  0  0  0
 11 18  2  0  0  0  0
 12 28  1  0  0  0  0
 12 10  1  0  0  0  0
 12 24  1  0  0  0  0
 14 27  1  0  0  0  0
 15  5  1  0  0  0  0
 16 17  1  0  0  0  0
 17 13  2  0  0  0  0
 17  8  1  0  0  0  0
 18 22  1  0  0  0  0
 18 26  1  0  0  0  0
 21 25  2  0  0  0  0
 22 19  1  0  0  0  0
 23 15  1  0  0  0  0
 23 34  1  0  0  0  0
 24  7  1  0  0  0  0
 24 30  1  0  0  0  0
 25 20  1  0  0  0  0
 25  4  1  0  0  0  0
 26 32  1  0  0  0  0
 27  3  1  0  0  0  0
 28  6  1  0  0  0  0
 29 19  1  0  0  0  0
 30 23  1  0  0  0  0
 31  2  1  0  0  0  0
 31 16  1  0  0  0  0
 32 30  1  0  0  0  0
 32  1  1  0  0  0  0
 33 20  1  0  0  0  0
 33 28  1  0  0  0  0
 34 35  1  0  0  0  0
 37 36  1  0  0  0  0
M  END
>  <MODEL>
7

>  <REMARK>
 VINA RESULT:      -5.9      3.980      6.321
  Name = 
  2 active torsions:
  status: ('A' for Active; 'I' for Inactive)
    1  A    between atoms: C_1  and  C_23
    2  A    between atoms: C_11  and  C_26
                            x       y       z     vdW  Elec       q    Type
                         _______ _______ _______ _____ _____    ______ ____

>  <TORSDO>
F 2

$$$$
=
 OpenBabel10262422473D

 37 43  0  0  1  0  0  0  0  0999 V2000
  187.5010  176.3810  136.5320 C   0  0  2  0  0  3  0  0  0  0  0  0
  181.1700  174.5030  134.5970 C   0  0  0  0  0  2  0  0  0  0  0  0
  186.6270  178.6210  141.5980 C   0  0  0  0  0  2  0  0  0  0  0  0
  183.3630  177.1000  138.6700 N   0  0  0  0  0  0  0  0  0  0  0  0
  188.1220  175.3300  135.8160 O   0  0  0  0  0  0  0  0  0  0  0  0
  181.9890  173.9300  135.7750 C   0  0  2  0  0  0  0  0  0  0  0  0
  183.4300  173.7590  135.3140 C   0  0  0  0  0  2  0  0  0  0  0  0
  181.4610  172.5640  136.2280 C   0  0  0  0  0  2  0  0  0  0  0  0
  184.0440  179.3800  139.6620 C   0  0  0  0  0  2  0  0  0  0  0  0
  184.0150  175.9950  137.9860 C   0  0  1  0  0  3  0  0  0  0  0  0
  184.3120  178.1450  138.8540 C   0  0  0  0  0  0  0  0  0  0  0  0
  183.2950  175.7830  136.6650 C   0  0  1  0  0  3  0  0  0  0  0  0
  179.3940  171.7090  137.1990 C   0  0  0  0  0  2  0  0  0  0  0  0
  184.5420  179.2050  141.0910 C   0  0  0  0  0  2  0  0  0  0  0  0
  187.6030  175.3450  134.5940 O   0  0  0  0  0  0  0  0  0  0  0  0
  179.1610  173.1210  135.2270 C   0  0  0  0  0  2  0  0  0  0  0  0
  179.9670  172.5600  136.3560 C   0  0  0  0  0  0  0  0  0  0  0  0
  185.5020  177.8130  138.3790 C   0  0  0  0  0  0  0  0  0  0  0  0
  187.7600  177.9360  139.4480 C   0  0  0  0  0  2  0  0  0  0  0  0
  181.0500  176.1580  138.7360 O   0  0  0  0  0  0  0  0  0  0  0  0
  181.7520  177.7280  140.2440 O   0  0  0  0  0  0  0  0  0  0  0  0
  186.6820  178.5550  138.6950 N   0  0  0  0  0  2  0  0  0  0  0  0
  186.3860  174.6340  134.6570 C   0  0  2  0  0  3  0  0  0  0  0  0
  184.1010  175.1010  135.5690 C   0  0  1  0  0  3  0  0  0  0  0  0
  182.0360  177.0290  139.2350 C   0  0  0  0  0  0  0  0  0  0  0  0
  185.5080  176.4020  137.8560 C   0  0  2  0  0  3  0  0  0  0  0  0
  185.8400  179.7070  141.2050 O   0  0  0  0  0  0  0  0  0  0  0  0
  182.1310  174.8840  136.9650 C   0  0  1  0  0  3  0  0  0  0  0  0
  187.9250  178.6180  140.8010 C   0  0  0  0  0  2  0  0  0  0  0  0
  185.5840  175.0060  135.9130 C   0  0  2  0  0  3  0  0  0  0  0  0
  179.6650  174.5150  134.8770 C   0  0  0  0  0  2  0  0  0  0  0  0
  186.0260  176.3010  136.4750 N   0  0  2  0  0  0  0  0  0  0  0  0
  180.9350  175.7270  137.3770 C   0  0  0  0  0  2  0  0  0  0  0  0
  186.6340  173.1320  134.6080 C   0  0  0  0  0  2  0  0  0  0  0  0
  186.6180  172.5540  136.0090 C   0  0  0  0  0  1  0  0  0  0  0  0
  189.4550  177.9140  136.2780 C   0  0  0  0  0  1  0  0  0  0  0  0
  187.9730  177.7360  136.0130 C   0  0  0  0  0  2  0  0  0  0  0  0
  1 37  1  6  0  0  0
  2 31  1  0  0  0  0
  4 11  1  0  0  0  0
  4 25  1  0  0  0  0
  5  1  1  0  0  0  0
  6  2  1  6  0  0  0
  6  8  1  0  0  0  0
  6 28  1  0  0  0  0
  7 24  1  0  0  0  0
  7  6  1  0  0  0  0
  8 17  1  0  0  0  0
  9 14  1  0  0  0  0
 10  4  1  6  0  0  0
 11  9  1  0  0  0  0
 12 28  1  0  0  0  0
 12 10  1  0  0  0  0
 14 27  1  0  0  0  0
 15 23  1  0  0  0  0
 15  5  1  0  0  0  0
 16 17  1  0  0  0  0
 17 13  2  0  0  0  0
 18 22  1  0  0  0  0
 18 11  2  0  0  0  0
 19 29  1  0  0  0  0
 20 25  1  0  0  0  0
 22 19  1  0  0  0  0
 23 30  1  0  0  0  0
 24 30  1  0  0  0  0
 24 12  1  0  0  0  0
 25 21  2  0  0  0  0
 26 10  1  0  0  0  0
 26 18  1  0  0  0  0
 27  3  1  0  0  0  0
 28 33  1  0  0  0  0
 29  3  1  0  0  0  0
 30 32  1  0  0  0  0
 31 16  1  0  0  0  0
 32  1  1  0  0  0  0
 32 26  1  0  0  0  0
 33 20  1  0  0  0  0
 34 23  1  0  0  0  0
 34 35  1  0  0  0  0
 37 36  1  0  0  0  0
M  END
>  <MODEL>
8

>  <REMARK>
 VINA RESULT:      -5.7      3.475      9.079
  Name = 
  2 active torsions:
  status: ('A' for Active; 'I' for Inactive)
    1  A    between atoms: C_1  and  C_23
    2  A    between atoms: C_11  and  C_26
                            x       y       z     vdW  Elec       q    Type
                         _______ _______ _______ _____ _____    ______ ____

>  <TORSDO>
F 2

$$$$
=
 OpenBabel10262422473D

 37 43  0  0  1  0  0  0  0  0999 V2000
  190.9550  176.8360  139.8570 C   0  0  2  0  0  3  0  0  0  0  0  0
  184.7930  179.6820  138.7200 C   0  0  0  0  0  2  0  0  0  0  0  0
  190.8280  175.7860  145.3650 C   0  0  0  0  0  2  0  0  0  0  0  0
  187.5690  178.0090  142.9190 N   0  0  0  0  0  0  0  0  0  0  0  0
  191.0220  176.2640  138.5650 O   0  0  0  0  0  0  0  0  0  0  0  0
  185.0780  178.2320  139.1700 C   0  0  2  0  0  0  0  0  0  0  0  0
  186.2680  177.7110  138.3770 C   0  0  0  0  0  2  0  0  0  0  0  0
  183.8820  177.3080  138.9120 C   0  0  0  0  0  2  0  0  0  0  0  0
  189.2130  178.6280  144.8070 C   0  0  0  0  0  2  0  0  0  0  0  0
  187.6320  177.3680  141.6160 C   0  0  1  0  0  3  0  0  0  0  0  0
  188.8940  178.1510  143.4210 C   0  0  0  0  0  0  0  0  0  0  0  0
  187.0460  178.3330  140.6000 C   0  0  1  0  0  3  0  0  0  0  0  0
  181.5800  177.1430  139.7010 C   0  0  0  0  0  2  0  0  0  0  0  0
  189.4000  177.4470  145.7500 C   0  0  0  0  0  2  0  0  0  0  0  0
  190.7130  177.2280  137.7070 O   0  0  0  0  0  0  0  0  0  0  0  0
  182.3080  179.3380  138.9330 C   0  0  0  0  0  2  0  0  0  0  0  0
  182.5920  177.9310  139.3540 C   0  0  0  0  0  0  0  0  0  0  0  0
  189.7890  177.6500  142.5850 C   0  0  0  0  0  0  0  0  0  0  0  0
  191.6680  176.0510  142.9980 C   0  0  0  0  0  2  0  0  0  0  0  0
  185.1080  178.4290  142.9870 O   0  0  0  0  0  0  0  0  0  0  0  0
  186.3530  178.2660  144.8990 O   0  0  0  0  0  0  0  0  0  0  0  0
  191.1420  177.4070  142.9750 N   0  0  0  0  0  2  0  0  0  0  0  0
  189.3050  177.2890  137.6470 C   0  0  2  0  0  3  0  0  0  0  0  0
  187.4990  178.1400  139.1600 C   0  0  1  0  0  3  0  0  0  0  0  0
  186.3430  178.2550  143.6400 C   0  0  0  0  0  0  0  0  0  0  0  0
  189.1270  177.0140  141.3920 C   0  0  2  0  0  3  0  0  0  0  0  0
  190.7530  177.1050  145.8200 O   0  0  0  0  0  0  0  0  0  0  0  0
  185.5620  178.1060  140.6180 C   0  0  1  0  0  3  0  0  0  0  0  0
  192.0170  175.6400  144.4240 C   0  0  0  0  0  2  0  0  0  0  0  0
  188.6810  177.1820  139.0460 C   0  0  2  0  0  3  0  0  0  0  0  0
  183.4860  180.2320  139.2960 C   0  0  0  0  0  2  0  0  0  0  0  0
  189.6610  177.5080  140.1050 N   0  0  2  0  0  0  0  0  0  0  0  0
  184.9300  178.9870  141.6830 C   0  0  0  0  0  2  0  0  0  0  0  0
  188.7540  176.2030  136.7330 C   0  0  0  0  0  2  0  0  0  0  0  0
  188.3690  176.7940  135.3920 C   0  0  0  0  0  1  0  0  0  0  0  0
  193.4350  177.1280  139.8420 C   0  0  0  0  0  1  0  0  0  0  0  0
  192.1040  177.8180  140.0700 C   0  0  0  0  0  2  0  0  0  0  0  0
  1 37  1  6  0  0  0
  1 32  1  0  0  0  0
  2  6  1  0  0  0  0
  2 31  1  0  0  0  0
  3 27  1  0  0  0  0
  4 11  1  0  0  0  0
  4 25  1  0  0  0  0
  5  1  1  0  0  0  0
  6  7  1  6  0  0  0
  6 28  1  0  0  0  0
  7 24  1  0  0  0  0
  8  6  1  0  0  0  0
  8 17  1  0  0  0  0
  9 14  1  0  0  0  0
 10  4  1  1  0  0  0
 11  9  1  0  0  0  0
 12 28  1  0  0  0  0
 12 10  1  0  0  0  0
 14 27  1  0  0  0  0
 15  5  1  0  0  0  0
 16 31  1  0  0  0  0
 16 17  1  0  0  0  0
 17 13  2  0  0  0  0
 18 22  1  0  0  0  0
 18 11  2  0  0  0  0
 19 29  1  0  0  0  0
 20 25  1  0  0  0  0
 22 19  1  0  0  0  0
 23 15  1  0  0  0  0
 23 30  1  0  0  0  0
 24 12  1  0  0  0  0
 25 21  2  0  0  0  0
 26 10  1  0  0  0  0
 26 18  1  0  0  0  0
 28 33  1  0  0  0  0
 29  3  1  0  0  0  0
 30 24  1  0  0  0  0
 30 32  1  0  0  0  0
 32 26  1  0  0  0  0
 33 20  1  0  0  0  0
 34 23  1  0  0  0  0
 35 34  1  0  0  0  0
 36 37  1  0  0  0  0
M  END
>  <MODEL>
9

>  <REMARK>
 VINA RESULT:      -5.6      2.035      7.883
  Name = 
  2 active torsions:
  status: ('A' for Active; 'I' for Inactive)
    1  A    between atoms: C_1  and  C_23
    2  A    between atoms: C_11  and  C_26
                            x       y       z     vdW  Elec       q    Type
                         _______ _______ _______ _____ _____    ______ ____

>  <TORSDO>
F 2

$$$$
