=
 OpenBabel10252415033D

 34 39  0  0  1  0  0  0  0  0999 V2000
  183.0530  177.1220  137.1750 C   0  0  0  0  0  0  0  0  0  0  0  0
  184.5710  178.6300  138.3390 C   0  0  0  0  0  0  0  0  0  0  0  0
  182.1060  179.2030  138.3030 C   0  0  1  0  0  3  0  0  0  0  0  0
  180.4100  179.2320  140.1470 N   0  0  0  0  0  0  0  0  0  0  0  0
  185.4170  176.6020  137.3220 C   0  0  0  0  0  3  0  0  0  0  0  0
  185.6350  177.7750  138.0450 C   0  0  0  0  0  3  0  0  0  0  0  0
  182.5160  178.8500  140.8320 C   0  0  0  0  0  3  0  0  0  0  0  0
  183.2640  178.3050  137.9230 C   0  0  0  0  0  0  0  0  0  0  0  0
  180.3700  179.1190  141.4840 C   0  0  0  0  0  3  0  0  0  0  0  0
  184.1320  176.2850  136.8770 C   0  0  0  0  0  3  0  0  0  0  0  0
  180.8990  179.0240  137.3590 C   0  0  2  0  0  3  0  0  0  0  0  0
  181.7230  176.8030  136.5520 C   0  0  0  0  0  2  0  0  0  0  0  0
  184.8200  179.8040  139.0420 O   0  0  0  0  0  1  0  0  0  0  0  0
  179.2490  179.4170  139.2810 C   0  0  0  0  0  2  0  0  0  0  0  0
  179.6640  179.7960  137.8500 C   0  0  1  0  0  3  0  0  0  0  0  0
  181.6620  178.8930  141.9200 C   0  0  0  0  0  0  0  0  0  0  0  0
  181.6820  179.0430  139.7430 C   0  0  0  0  0  0  0  0  0  0  0  0
  180.5650  177.5420  137.2120 C   0  0  0  0  0  2  0  0  0  0  0  0
  180.5550  183.2030  136.3840 C   0  0  0  0  0  0  0  0  0  0  0  0
  180.0030  184.0550  137.3440 C   0  0  0  0  0  3  0  0  0  0  0  0
  179.8010  181.2790  137.6620 C   0  0  0  0  0  0  0  0  0  0  0  0
  179.3480  183.5260  138.4590 C   0  0  0  0  0  3  0  0  0  0  0  0
  180.4530  181.8180  136.5420 C   0  0  0  0  0  3  0  0  0  0  0  0
  179.2450  182.1390  138.6150 C   0  0  0  0  0  3  0  0  0  0  0  0
  181.1860  183.7170  135.3010 F   0  0  0  0  0  0  0  0  0  0  0  0
  182.0720  178.7090  143.3370 C   0  0  0  0  0  2  0  0  0  0  0  0
  183.2830  179.4100  143.5800 O   0  0  0  0  0  0  0  0  0  0  0  0
  186.0470  178.5900  142.1450 S   0  0  0  0  0  0  0  0  0  0  0  0
  184.3660  178.9000  144.3100 C   0  0  0  0  0  0  0  0  0  0  0  0
  185.6040  178.3320  143.6990 C   0  0  0  0  0  0  0  0  0  0  0  0
  186.3480  177.5280  145.8720 C   0  0  0  0  0  3  0  0  0  0  0  0
  185.3560  178.4290  146.5570 C   0  0  0  0  0  2  0  0  0  0  0  0
  184.2530  178.8970  145.6420 C   0  0  0  0  0  3  0  0  0  0  0  0
  186.4940  177.5250  144.5460 C   0  0  0  0  0  3  0  0  0  0  0  0
  1  8  1  0  0  0  0
  2 13  1  0  0  0  0
  3  8  1  6  0  0  0
  3 17  1  0  0  0  0
  4  9  1  0  0  0  0
  5  6  2  0  0  0  0
  6  2  1  0  0  0  0
  7 16  1  0  0  0  0
  8  2  2  0  0  0  0
  9 16  2  0  0  0  0
 10  1  2  0  0  0  0
 10  5  1  0  0  0  0
 11 18  1  1  0  0  0
 11 15  1  0  0  0  0
 11  3  1  0  0  0  0
 12  1  1  0  0  0  0
 12 18  1  0  0  0  0
 14  4  1  0  0  0  0
 15 21  1  1  0  0  0
 15 14  1  0  0  0  0
 16 26  1  0  0  0  0
 17  4  1  0  0  0  0
 17  7  2  0  0  0  0
 19 23  2  0  0  0  0
 19 20  1  0  0  0  0
 20 22  2  0  0  0  0
 21 24  2  0  0  0  0
 22 24  1  0  0  0  0
 23 21  1  0  0  0  0
 25 19  1  0  0  0  0
 26 27  1  0  0  0  0
 27 29  1  0  0  0  0
 28 30  2  0  0  0  0
 29 33  2  0  0  0  0
 30 29  1  0  0  0  0
 30 34  1  0  0  0  0
 31 32  1  0  0  0  0
 33 32  1  0  0  0  0
 34 31  2  0  0  0  0
M  END
>  <MODEL>
1

>  <REMARK>
 VINA RESULT:      -8.3      0.000      0.000
  Name = 
  4 active torsions:
  status: ('A' for Active; 'I' for Inactive)
    1  A    between atoms: O_3  and  C_13
    2  A    between atoms: O_3  and  C_17
    3  A    between atoms: C_12  and  C_28
    4  A    between atoms: C_17  and  C_29
                            x       y       z     vdW  Elec       q    Type
                         _______ _______ _______ _____ _____    ______ ____

>  <TORSDO>
F 4

$$$$
=
 OpenBabel10252415033D

 34 39  0  0  1  0  0  0  0  0999 V2000
  184.2900  175.8990  137.2690 C   0  0  0  0  0  0  0  0  0  0  0  0
  185.8680  177.6980  137.7230 C   0  0  0  0  0  0  0  0  0  0  0  0
  183.4130  178.1150  138.1750 C   0  0  1  0  0  3  0  0  0  0  0  0
  182.1820  178.4370  140.3330 N   0  0  0  0  0  0  0  0  0  0  0  0
  186.6670  175.5510  136.9380 C   0  0  0  0  0  3  0  0  0  0  0  0
  186.9210  176.8590  137.3500 C   0  0  0  0  0  3  0  0  0  0  0  0
  184.4160  178.3220  140.5500 C   0  0  0  0  0  3  0  0  0  0  0  0
  184.5420  177.2220  137.7050 C   0  0  0  0  0  0  0  0  0  0  0  0
  182.4560  178.6040  141.6360 C   0  0  0  0  0  3  0  0  0  0  0  0
  185.3550  175.0780  136.8850 C   0  0  0  0  0  3  0  0  0  0  0  0
  182.0500  177.6770  137.6010 C   0  0  2  0  0  3  0  0  0  0  0  0
  182.8940  175.3850  137.0580 C   0  0  0  0  0  2  0  0  0  0  0  0
  186.1490  179.0050  138.1090 O   0  0  0  0  0  1  0  0  0  0  0  0
  180.8440  178.3730  139.7540 C   0  0  0  0  0  2  0  0  0  0  0  0
  180.8840  178.4670  138.2200 C   0  0  1  0  0  3  0  0  0  0  0  0
  183.8290  178.5450  141.7820 C   0  0  0  0  0  0  0  0  0  0  0  0
  183.3430  178.2370  139.6780 C   0  0  0  0  0  0  0  0  0  0  0  0
  181.8450  176.1810  137.8250 C   0  0  0  0  0  2  0  0  0  0  0  0
  180.7360  181.5050  135.9200 C   0  0  0  0  0  0  0  0  0  0  0  0
  180.6790  182.5420  136.8550 C   0  0  0  0  0  3  0  0  0  0  0  0
  180.8230  179.8820  137.7250 C   0  0  0  0  0  0  0  0  0  0  0  0
  180.6900  182.2540  138.2220 C   0  0  0  0  0  3  0  0  0  0  0  0
  180.8070  180.1790  136.3530 C   0  0  0  0  0  3  0  0  0  0  0  0
  180.7590  180.9250  138.6550 C   0  0  0  0  0  3  0  0  0  0  0  0
  180.7210  181.7850  134.5940 F   0  0  0  0  0  0  0  0  0  0  0  0
  184.5650  178.6850  143.0670 C   0  0  0  0  0  2  0  0  0  0  0  0
  185.7170  177.8560  143.0510 O   0  0  0  0  0  0  0  0  0  0  0  0
  188.8700  177.8750  142.3950 S   0  0  0  0  0  0  0  0  0  0  0  0
  186.6790  177.8100  144.0700 C   0  0  0  0  0  0  0  0  0  0  0  0
  188.1440  177.6340  143.8430 C   0  0  0  0  0  0  0  0  0  0  0  0
  188.5150  177.3380  146.2290 C   0  0  0  0  0  3  0  0  0  0  0  0
  187.1570  177.9160  146.5220 C   0  0  0  0  0  2  0  0  0  0  0  0
  186.2360  177.8980  145.3290 C   0  0  0  0  0  3  0  0  0  0  0  0
  188.9890  177.2560  144.9850 C   0  0  0  0  0  3  0  0  0  0  0  0
  1  8  1  0  0  0  0
  2 13  1  0  0  0  0
  3  8  1  1  0  0  0
  3 17  1  0  0  0  0
  4  9  1  0  0  0  0
  5  6  2  0  0  0  0
  6  2  1  0  0  0  0
  7 16  1  0  0  0  0
  8  2  2  0  0  0  0
  9 16  2  0  0  0  0
 10  5  1  0  0  0  0
 10  1  2  0  0  0  0
 11 18  1  1  0  0  0
 11  3  1  0  0  0  0
 11 15  1  0  0  0  0
 12  1  1  0  0  0  0
 12 18  1  0  0  0  0
 14  4  1  0  0  0  0
 15 21  1  1  0  0  0
 15 14  1  0  0  0  0
 16 26  1  0  0  0  0
 17  4  1  0  0  0  0
 17  7  2  0  0  0  0
 19 23  2  0  0  0  0
 19 20  1  0  0  0  0
 20 22  2  0  0  0  0
 21 24  2  0  0  0  0
 22 24  1  0  0  0  0
 23 21  1  0  0  0  0
 25 19  1  0  0  0  0
 27 26  1  0  0  0  0
 27 29  1  0  0  0  0
 28 30  2  0  0  0  0
 29 33  2  0  0  0  0
 30 29  1  0  0  0  0
 30 34  1  0  0  0  0
 31 32  1  0  0  0  0
 33 32  1  0  0  0  0
 34 31  2  0  0  0  0
M  END
>  <MODEL>
2

>  <REMARK>
 VINA RESULT:      -8.2      1.561      2.050
  Name = 
  4 active torsions:
  status: ('A' for Active; 'I' for Inactive)
    1  A    between atoms: O_3  and  C_13
    2  A    between atoms: O_3  and  C_17
    3  A    between atoms: C_12  and  C_28
    4  A    between atoms: C_17  and  C_29
                            x       y       z     vdW  Elec       q    Type
                         _______ _______ _______ _____ _____    ______ ____

>  <TORSDO>
F 4

$$$$
=
 OpenBabel10252415033D

 34 39  0  0  1  0  0  0  0  0999 V2000
  185.0200  175.6350  137.2010 C   0  0  0  0  0  0  0  0  0  0  0  0
  186.3950  177.6440  137.2750 C   0  0  0  0  0  0  0  0  0  0  0  0
  183.9330  177.8550  137.8230 C   0  0  1  0  0  3  0  0  0  0  0  0
  182.7820  178.3730  139.9870 N   0  0  0  0  0  0  0  0  0  0  0  0
  187.4020  175.5020  136.7660 C   0  0  0  0  0  3  0  0  0  0  0  0
  187.5190  176.8780  136.9600 C   0  0  0  0  0  3  0  0  0  0  0  0
  185.0210  178.5380  140.0670 C   0  0  0  0  0  3  0  0  0  0  0  0
  185.1350  177.0290  137.4160 C   0  0  0  0  0  0  0  0  0  0  0  0
  183.0990  178.7700  141.2290 C   0  0  0  0  0  3  0  0  0  0  0  0
  186.1540  174.8860  136.8730 C   0  0  0  0  0  3  0  0  0  0  0  0
  182.6040  177.1860  137.4150 C   0  0  2  0  0  3  0  0  0  0  0  0
  183.6860  174.9440  137.1630 C   0  0  0  0  0  2  0  0  0  0  0  0
  186.5370  179.0180  137.4420 O   0  0  0  0  0  1  0  0  0  0  0  0
  181.4330  178.0730  139.5160 C   0  0  0  0  0  2  0  0  0  0  0  0
  181.3860  177.9310  137.9860 C   0  0  1  0  0  3  0  0  0  0  0  0
  184.4740  178.8850  141.2900 C   0  0  0  0  0  0  0  0  0  0  0  0
  183.9240  178.2010  139.2920 C   0  0  0  0  0  0  0  0  0  0  0  0
  182.5890  175.7310  137.8710 C   0  0  0  0  0  2  0  0  0  0  0  0
  180.8790  181.6520  137.3220 C   0  0  0  0  0  0  0  0  0  0  0  0
  180.6850  181.6490  135.9380 C   0  0  0  0  0  3  0  0  0  0  0  0
  181.1330  179.2360  137.2900 C   0  0  0  0  0  0  0  0  0  0  0  0
  180.7190  180.4460  135.2280 C   0  0  0  0  0  3  0  0  0  0  0  0
  181.1030  180.4490  137.9960 C   0  0  0  0  0  3  0  0  0  0  0  0
  180.9450  179.2430  135.9040 C   0  0  0  0  0  3  0  0  0  0  0  0
  180.8510  182.8190  138.0090 F   0  0  0  0  0  0  0  0  0  0  0  0
  185.2510  179.3020  142.4870 C   0  0  0  0  0  2  0  0  0  0  0  0
  185.2610  178.2510  143.4420 O   0  0  0  0  0  0  0  0  0  0  0  0
  185.5080  178.4270  146.6470 S   0  0  0  0  0  0  0  0  0  0  0  0
  186.4040  177.7980  144.1160 C   0  0  0  0  0  0  0  0  0  0  0  0
  186.6670  178.0100  145.5690 C   0  0  0  0  0  0  0  0  0  0  0  0
  188.9400  177.1800  145.3140 C   0  0  0  0  0  3  0  0  0  0  0  0
  188.5820  176.5770  143.9830 C   0  0  0  0  0  2  0  0  0  0  0  0
  187.3280  177.1650  143.3860 C   0  0  0  0  0  3  0  0  0  0  0  0
  188.0340  177.8010  146.0700 C   0  0  0  0  0  3  0  0  0  0  0  0
  1  8  1  0  0  0  0
  2  8  2  0  0  0  0
  2 13  1  0  0  0  0
  3  8  1  1  0  0  0
  3 17  1  0  0  0  0
  4  9  1  0  0  0  0
  5 10  1  0  0  0  0
  5  6  2  0  0  0  0
  6  2  1  0  0  0  0
  7 16  1  0  0  0  0
  9 16  2  0  0  0  0
 10  1  2  0  0  0  0
 11  3  1  0  0  0  0
 11 18  1  1  0  0  0
 11 15  1  0  0  0  0
 12  1  1  0  0  0  0
 12 18  1  0  0  0  0
 14  4  1  0  0  0  0
 15 21  1  6  0  0  0
 15 14  1  0  0  0  0
 16 26  1  0  0  0  0
 17  4  1  0  0  0  0
 17  7  2  0  0  0  0
 19 23  1  0  0  0  0
 19 25  1  0  0  0  0
 20 19  2  0  0  0  0
 21 23  2  0  0  0  0
 22 24  2  0  0  0  0
 22 20  1  0  0  0  0
 24 21  1  0  0  0  0
 26 27  1  0  0  0  0
 27 29  1  0  0  0  0
 29 30  1  0  0  0  0
 30 34  1  0  0  0  0
 30 28  2  0  0  0  0
 31 34  2  0  0  0  0
 32 31  1  0  0  0  0
 33 32  1  0  0  0  0
 33 29  2  0  0  0  0
M  END
>  <MODEL>
3

>  <REMARK>
 VINA RESULT:      -8.2      1.874      2.887
  Name = 
  4 active torsions:
  status: ('A' for Active; 'I' for Inactive)
    1  A    between atoms: O_3  and  C_13
    2  A    between atoms: O_3  and  C_17
    3  A    between atoms: C_12  and  C_28
    4  A    between atoms: C_17  and  C_29
                            x       y       z     vdW  Elec       q    Type
                         _______ _______ _______ _____ _____    ______ ____

>  <TORSDO>
F 4

$$$$
=
 OpenBabel10252415033D

 34 39  0  0  1  0  0  0  0  0999 V2000
  180.5650  180.6540  140.0410 C   0  0  0  0  0  0  0  0  0  0  0  0
  180.2190  178.9200  141.7150 C   0  0  0  0  0  0  0  0  0  0  0  0
  182.0030  178.5500  139.9580 C   0  0  1  0  0  3  0  0  0  0  0  0
  184.4990  178.4670  140.1590 N   0  0  0  0  0  0  0  0  0  0  0  0
  178.9310  180.9680  141.8040 C   0  0  0  0  0  3  0  0  0  0  0  0
  179.2460  179.7140  142.3260 C   0  0  0  0  0  3  0  0  0  0  0  0
  183.4160  178.6090  142.1230 C   0  0  0  0  0  3  0  0  0  0  0  0
  180.9030  179.3880  140.5760 C   0  0  0  0  0  0  0  0  0  0  0  0
  185.4340  178.4450  141.1220 C   0  0  0  0  0  3  0  0  0  0  0  0
  179.5790  181.4290  140.6570 C   0  0  0  0  0  3  0  0  0  0  0  0
  182.2540  178.9190  138.4820 C   0  0  2  0  0  3  0  0  0  0  0  0
  181.1260  181.1390  138.7330 C   0  0  0  0  0  2  0  0  0  0  0  0
  180.4990  177.6640  142.2450 O   0  0  0  0  0  1  0  0  0  0  0  0
  184.7650  178.4630  138.7240 C   0  0  0  0  0  2  0  0  0  0  0  0
  183.4880  178.2000  137.9100 C   0  0  1  0  0  3  0  0  0  0  0  0
  184.7810  178.5230  142.3370 C   0  0  0  0  0  0  0  0  0  0  0  0
  183.2910  178.5950  140.7440 C   0  0  0  0  0  0  0  0  0  0  0  0
  182.4170  180.4300  138.3410 C   0  0  0  0  0  2  0  0  0  0  0  0
  183.9710  174.4220  137.7200 C   0  0  0  0  0  0  0  0  0  0  0  0
  182.7210  174.0190  137.2440 C   0  0  0  0  0  3  0  0  0  0  0  0
  183.2420  176.7390  137.6740 C   0  0  0  0  0  0  0  0  0  0  0  0
  181.7300  174.9700  136.9870 C   0  0  0  0  0  3  0  0  0  0  0  0
  184.2320  175.7780  137.9360 C   0  0  0  0  0  3  0  0  0  0  0  0
  181.9910  176.3270  137.2040 C   0  0  0  0  0  3  0  0  0  0  0  0
  184.9310  173.4990  137.9730 F   0  0  0  0  0  0  0  0  0  0  0  0
  185.4400  178.5280  143.6700 C   0  0  0  0  0  2  0  0  0  0  0  0
  186.4460  177.5270  143.7100 O   0  0  0  0  0  0  0  0  0  0  0  0
  189.4740  177.8720  142.6680 S   0  0  0  0  0  0  0  0  0  0  0  0
  187.5320  177.5250  144.5960 C   0  0  0  0  0  0  0  0  0  0  0  0
  188.9650  177.4970  144.1780 C   0  0  0  0  0  0  0  0  0  0  0  0
  189.6660  177.1280  146.4790 C   0  0  0  0  0  3  0  0  0  0  0  0
  188.3120  177.5620  146.9720 C   0  0  0  0  0  2  0  0  0  0  0  0
  187.2490  177.5120  145.9030 C   0  0  0  0  0  3  0  0  0  0  0  0
  189.9800  177.1480  145.1830 C   0  0  0  0  0  3  0  0  0  0  0  0
  1  8  2  0  0  0  0
  1 10  1  0  0  0  0
  2 13  1  0  0  0  0
  2  6  2  0  0  0  0
  3  8  1  1  0  0  0
  3 17  1  0  0  0  0
  4 17  1  0  0  0  0
  4  9  1  0  0  0  0
  5  6  1  0  0  0  0
  7 16  1  0  0  0  0
  8  2  1  0  0  0  0
  9 16  2  0  0  0  0
 10  5  2  0  0  0  0
 11 18  1  1  0  0  0
 11  3  1  0  0  0  0
 12  1  1  0  0  0  0
 14  4  1  0  0  0  0
 15 21  1  1  0  0  0
 15 11  1  0  0  0  0
 15 14  1  0  0  0  0
 16 26  1  0  0  0  0
 17  7  2  0  0  0  0
 18 12  1  0  0  0  0
 19 23  1  0  0  0  0
 19 25  1  0  0  0  0
 20 19  2  0  0  0  0
 21 23  2  0  0  0  0
 22 24  2  0  0  0  0
 22 20  1  0  0  0  0
 24 21  1  0  0  0  0
 26 27  1  0  0  0  0
 27 29  1  0  0  0  0
 28 30  2  0  0  0  0
 29 33  2  0  0  0  0
 30 29  1  0  0  0  0
 30 34  1  0  0  0  0
 31 32  1  0  0  0  0
 33 32  1  0  0  0  0
 34 31  2  0  0  0  0
M  END
>  <MODEL>
4

>  <REMARK>
 VINA RESULT:      -7.7      2.892      5.695
  Name = 
  4 active torsions:
  status: ('A' for Active; 'I' for Inactive)
    1  A    between atoms: O_3  and  C_13
    2  A    between atoms: O_3  and  C_17
    3  A    between atoms: C_12  and  C_28
    4  A    between atoms: C_17  and  C_29
                            x       y       z     vdW  Elec       q    Type
                         _______ _______ _______ _____ _____    ______ ____

>  <TORSDO>
F 4

$$$$
=
 OpenBabel10252415033D

 34 39  0  0  1  0  0  0  0  0999 V2000
  180.0230  180.6680  139.5750 C   0  0  0  0  0  0  0  0  0  0  0  0
  180.2300  179.1950  141.5040 C   0  0  0  0  0  0  0  0  0  0  0  0
  181.4330  178.5540  139.3710 C   0  0  1  0  0  3  0  0  0  0  0  0
  183.8810  178.4650  138.8420 N   0  0  0  0  0  0  0  0  0  0  0  0
  178.9660  181.2530  141.6770 C   0  0  0  0  0  3  0  0  0  0  0  0
  179.4560  180.0820  142.2550 C   0  0  0  0  0  3  0  0  0  0  0  0
  183.4150  178.9000  140.9970 C   0  0  0  0  0  3  0  0  0  0  0  0
  180.5380  179.4870  140.1600 C   0  0  0  0  0  0  0  0  0  0  0  0
  185.0560  178.5670  139.4810 C   0  0  0  0  0  3  0  0  0  0  0  0
  179.2380  181.5380  140.3380 C   0  0  0  0  0  3  0  0  0  0  0  0
  181.2320  178.7060  137.8490 C   0  0  2  0  0  3  0  0  0  0  0  0
  180.1640  180.9540  138.1060 C   0  0  0  0  0  2  0  0  0  0  0  0
  180.6870  178.0240  142.0990 O   0  0  0  0  0  1  0  0  0  0  0  0
  183.7160  178.2530  137.4070 C   0  0  0  0  0  2  0  0  0  0  0  0
  182.2650  177.8950  137.0480 C   0  0  1  0  0  3  0  0  0  0  0  0
  184.7840  178.8260  140.8110 C   0  0  0  0  0  0  0  0  0  0  0  0
  182.8930  178.6920  139.7310 C   0  0  0  0  0  0  0  0  0  0  0  0
  181.3040  180.1780  137.4570 C   0  0  0  0  0  2  0  0  0  0  0  0
  182.7670  174.1280  137.3640 C   0  0  0  0  0  0  0  0  0  0  0  0
  181.4530  173.6740  137.2230 C   0  0  0  0  0  3  0  0  0  0  0  0
  182.0020  176.4180  137.1020 C   0  0  0  0  0  0  0  0  0  0  0  0
  180.4130  174.5860  137.0260 C   0  0  0  0  0  3  0  0  0  0  0  0
  183.0410  175.4970  137.3050 C   0  0  0  0  0  3  0  0  0  0  0  0
  180.6890  175.9570  136.9690 C   0  0  0  0  0  3  0  0  0  0  0  0
  183.7740  173.2430  137.5600 F   0  0  0  0  0  0  0  0  0  0  0  0
  185.8030  179.0110  141.8780 C   0  0  0  0  0  2  0  0  0  0  0  0
  185.7620  177.9120  142.7750 O   0  0  0  0  0  0  0  0  0  0  0  0
  183.4310  178.9940  144.7150 S   0  0  0  0  0  0  0  0  0  0  0  0
  185.9470  178.0080  144.1610 C   0  0  0  0  0  0  0  0  0  0  0  0
  184.9890  178.6640  145.0990 C   0  0  0  0  0  0  0  0  0  0  0  0
  186.5970  178.4980  146.9170 C   0  0  0  0  0  3  0  0  0  0  0  0
  187.3920  177.4870  146.1350 C   0  0  0  0  0  2  0  0  0  0  0  0
  187.0810  177.5030  144.6600 C   0  0  0  0  0  3  0  0  0  0  0  0
  185.4540  179.0040  146.4510 C   0  0  0  0  0  3  0  0  0  0  0  0
  1  8  2  0  0  0  0
  1 10  1  0  0  0  0
  2 13  1  0  0  0  0
  2  6  2  0  0  0  0
  3 17  1  6  0  0  0
  3  8  1  0  0  0  0
  4  9  1  0  0  0  0
  4 17  1  0  0  0  0
  5  6  1  0  0  0  0
  8  2  1  0  0  0  0
  9 16  2  0  0  0  0
 10  5  2  0  0  0  0
 11 18  1  6  0  0  0
 11  3  1  0  0  0  0
 12  1  1  0  0  0  0
 14  4  1  0  0  0  0
 15 21  1  1  0  0  0
 15 14  1  0  0  0  0
 15 11  1  0  0  0  0
 16  7  1  0  0  0  0
 16 26  1  0  0  0  0
 17  7  2  0  0  0  0
 18 12  1  0  0  0  0
 19 25  1  0  0  0  0
 20 19  2  0  0  0  0
 21 23  2  0  0  0  0
 22 20  1  0  0  0  0
 23 19  1  0  0  0  0
 24 22  2  0  0  0  0
 24 21  1  0  0  0  0
 26 27  1  0  0  0  0
 27 29  1  0  0  0  0
 28 30  2  0  0  0  0
 29 33  2  0  0  0  0
 29 30  1  0  0  0  0
 30 34  1  0  0  0  0
 32 31  1  0  0  0  0
 33 32  1  0  0  0  0
 34 31  2  0  0  0  0
M  END
>  <MODEL>
5

>  <REMARK>
 VINA RESULT:      -7.5      2.690      5.478
  Name = 
  4 active torsions:
  status: ('A' for Active; 'I' for Inactive)
    1  A    between atoms: O_3  and  C_13
    2  A    between atoms: O_3  and  C_17
    3  A    between atoms: C_12  and  C_28
    4  A    between atoms: C_17  and  C_29
                            x       y       z     vdW  Elec       q    Type
                         _______ _______ _______ _____ _____    ______ ____

>  <TORSDO>
F 4

$$$$
=
 OpenBabel10252415033D

 34 39  0  0  1  0  0  0  0  0999 V2000
  180.2960  179.2090  138.4770 C   0  0  0  0  0  0  0  0  0  0  0  0
  180.6070  178.0160  140.5780 C   0  0  0  0  0  0  0  0  0  0  0  0
  182.1220  177.4380  138.6360 C   0  0  1  0  0  3  0  0  0  0  0  0
  184.5770  177.8250  138.3090 N   0  0  0  0  0  0  0  0  0  0  0  0
  178.9360  179.7610  140.4080 C   0  0  0  0  0  3  0  0  0  0  0  0
  179.5960  178.7870  141.1570 C   0  0  0  0  0  3  0  0  0  0  0  0
  183.8180  178.3640  140.3550 C   0  0  0  0  0  3  0  0  0  0  0  0
  180.9810  178.2310  139.2360 C   0  0  0  0  0  0  0  0  0  0  0  0
  185.6360  178.2410  139.0190 C   0  0  0  0  0  3  0  0  0  0  0  0
  179.2770  179.9610  139.0690 C   0  0  0  0  0  3  0  0  0  0  0  0
  182.0480  177.3890  137.0960 C   0  0  2  0  0  3  0  0  0  0  0  0
  180.5210  179.3700  137.0000 C   0  0  0  0  0  2  0  0  0  0  0  0
  181.2330  177.0370  141.3420 O   0  0  0  0  0  1  0  0  0  0  0  0
  184.6030  177.4400  136.9010 C   0  0  0  0  0  2  0  0  0  0  0  0
  183.2990  176.7440  136.4780 C   0  0  1  0  0  3  0  0  0  0  0  0
  185.1850  178.5680  140.2840 C   0  0  0  0  0  0  0  0  0  0  0  0
  183.4800  177.9220  139.0860 C   0  0  0  0  0  0  0  0  0  0  0  0
  181.8550  178.7960  136.5360 C   0  0  0  0  0  2  0  0  0  0  0  0
  184.4340  173.2550  137.5210 C   0  0  0  0  0  0  0  0  0  0  0  0
  183.3570  172.4840  137.0790 C   0  0  0  0  0  3  0  0  0  0  0  0
  183.3420  175.2580  136.6870 C   0  0  0  0  0  0  0  0  0  0  0  0
  182.2710  173.0940  136.4450 C   0  0  0  0  0  3  0  0  0  0  0  0
  184.4270  174.6390  137.3280 C   0  0  0  0  0  3  0  0  0  0  0  0
  182.2640  174.4800  136.2530 C   0  0  0  0  0  3  0  0  0  0  0  0
  185.4850  172.6630  138.1390 F   0  0  0  0  0  0  0  0  0  0  0  0
  186.0330  179.0740  141.3960 C   0  0  0  0  0  2  0  0  0  0  0  0
  186.1690  178.0700  142.3900 O   0  0  0  0  0  0  0  0  0  0  0  0
  188.3530  177.6440  144.7180 S   0  0  0  0  0  0  0  0  0  0  0  0
  185.8420  178.2400  143.7430 C   0  0  0  0  0  0  0  0  0  0  0  0
  186.7420  177.8870  144.8810 C   0  0  0  0  0  0  0  0  0  0  0  0
  184.9370  178.2600  146.4700 C   0  0  0  0  0  3  0  0  0  0  0  0
  184.1550  179.0060  145.4230 C   0  0  0  0  0  2  0  0  0  0  0  0
  184.6250  178.7210  144.0190 C   0  0  0  0  0  3  0  0  0  0  0  0
  186.1600  177.7860  146.2270 C   0  0  0  0  0  3  0  0  0  0  0  0
  1 10  2  0  0  0  0
  1  8  1  0  0  0  0
  2  6  1  0  0  0  0
  2 13  1  0  0  0  0
  3 17  1  6  0  0  0
  3  8  1  0  0  0  0
  4  9  1  0  0  0  0
  4 17  1  0  0  0  0
  5  6  2  0  0  0  0
  8  2  2  0  0  0  0
  9 16  2  0  0  0  0
 10  5  1  0  0  0  0
 11 18  1  6  0  0  0
 11  3  1  0  0  0  0
 12  1  1  0  0  0  0
 14  4  1  0  0  0  0
 15 21  1  1  0  0  0
 15 14  1  0  0  0  0
 15 11  1  0  0  0  0
 16  7  1  0  0  0  0
 16 26  1  0  0  0  0
 17  7  2  0  0  0  0
 18 12  1  0  0  0  0
 19 25  1  0  0  0  0
 20 19  2  0  0  0  0
 21 23  2  0  0  0  0
 22 20  1  0  0  0  0
 23 19  1  0  0  0  0
 24 22  2  0  0  0  0
 24 21  1  0  0  0  0
 26 27  1  0  0  0  0
 27 29  1  0  0  0  0
 28 30  2  0  0  0  0
 29 33  2  0  0  0  0
 29 30  1  0  0  0  0
 30 34  1  0  0  0  0
 32 31  1  0  0  0  0
 33 32  1  0  0  0  0
 34 31  2  0  0  0  0
M  END
>  <MODEL>
6

>  <REMARK>
 VINA RESULT:      -7.0      3.006      5.848
  Name = 
  4 active torsions:
  status: ('A' for Active; 'I' for Inactive)
    1  A    between atoms: O_3  and  C_13
    2  A    between atoms: O_3  and  C_17
    3  A    between atoms: C_12  and  C_28
    4  A    between atoms: C_17  and  C_29
                            x       y       z     vdW  Elec       q    Type
                         _______ _______ _______ _____ _____    ______ ____

>  <TORSDO>
F 4

$$$$
=
 OpenBabel10252415033D

 34 39  0  0  1  0  0  0  0  0999 V2000
  191.0930  174.5420  136.4870 C   0  0  0  0  0  0  0  0  0  0  0  0
  188.9570  173.4350  136.8660 C   0  0  0  0  0  0  0  0  0  0  0  0
  189.4030  175.6210  138.0610 C   0  0  1  0  0  3  0  0  0  0  0  0
  188.3600  177.8810  137.7720 N   0  0  0  0  0  0  0  0  0  0  0  0
  190.5590  172.4850  135.3190 C   0  0  0  0  0  3  0  0  0  0  0  0
  189.3210  172.4370  135.9590 C   0  0  0  0  0  3  0  0  0  0  0  0
  187.3900  176.2530  136.5650 C   0  0  0  0  0  3  0  0  0  0  0  0
  189.8310  174.5090  137.1280 C   0  0  0  0  0  0  0  0  0  0  0  0
  187.3330  178.4420  137.1160 C   0  0  0  0  0  3  0  0  0  0  0  0
  191.4470  173.5270  135.5930 C   0  0  0  0  0  3  0  0  0  0  0  0
  190.6090  176.3850  138.6460 C   0  0  2  0  0  3  0  0  0  0  0  0
  192.1410  175.5570  136.8490 C   0  0  0  0  0  2  0  0  0  0  0  0
  187.7250  173.3510  137.5070 O   0  0  0  0  0  1  0  0  0  0  0  0
  189.3080  178.5940  138.6240 C   0  0  0  0  0  2  0  0  0  0  0  0
  190.1730  177.6240  139.4450 C   0  0  1  0  0  3  0  0  0  0  0  0
  186.7210  177.4490  136.3760 C   0  0  0  0  0  0  0  0  0  0  0  0
  188.4230  176.5800  137.4280 C   0  0  0  0  0  0  0  0  0  0  0  0
  191.5620  176.7930  137.5260 C   0  0  0  0  0  2  0  0  0  0  0  0
  187.7430  177.4280  142.3780 C   0  0  0  0  0  0  0  0  0  0  0  0
  188.4190  176.5450  143.2230 C   0  0  0  0  0  3  0  0  0  0  0  0
  189.5500  177.2670  140.7630 C   0  0  0  0  0  0  0  0  0  0  0  0
  189.6560  176.0180  142.8410 C   0  0  0  0  0  3  0  0  0  0  0  0
  188.3050  177.7880  141.1510 C   0  0  0  0  0  3  0  0  0  0  0  0
  190.2180  176.3780  141.6120 C   0  0  0  0  0  3  0  0  0  0  0  0
  186.5410  177.9350  142.7470 F   0  0  0  0  0  0  0  0  0  0  0  0
  185.5340  177.6360  135.4990 C   0  0  0  0  0  2  0  0  0  0  0  0
  184.4960  176.7570  135.9050 O   0  0  0  0  0  0  0  0  0  0  0  0
  184.1840  174.0330  137.5930 S   0  0  0  0  0  0  0  0  0  0  0  0
  183.9150  176.7470  137.1800 C   0  0  0  0  0  0  0  0  0  0  0  0
  183.5720  175.5110  137.9440 C   0  0  0  0  0  0  0  0  0  0  0  0
  182.3760  176.8250  139.6050 C   0  0  0  0  0  3  0  0  0  0  0  0
  183.0430  178.0790  139.1080 C   0  0  0  0  0  2  0  0  0  0  0  0
  183.6210  177.9330  137.7240 C   0  0  0  0  0  3  0  0  0  0  0  0
  182.6640  175.6280  139.0940 C   0  0  0  0  0  3  0  0  0  0  0  0
  1 12  1  0  0  0  0
  1  8  1  0  0  0  0
  2  8  2  0  0  0  0
  2 13  1  0  0  0  0
  3  8  1  6  0  0  0
  3 11  1  0  0  0  0
  4 14  1  0  0  0  0
  5 10  1  0  0  0  0
  5  6  2  0  0  0  0
  6  2  1  0  0  0  0
  7 17  2  0  0  0  0
  9  4  1  0  0  0  0
 10  1  2  0  0  0  0
 11 18  1  6  0  0  0
 11 15  1  0  0  0  0
 12 18  1  0  0  0  0
 14 15  1  0  0  0  0
 15 21  1  1  0  0  0
 16  7  1  0  0  0  0
 16  9  2  0  0  0  0
 17  4  1  0  0  0  0
 17  3  1  0  0  0  0
 19 25  1  0  0  0  0
 19 20  1  0  0  0  0
 21 23  1  0  0  0  0
 21 24  2  0  0  0  0
 22 20  2  0  0  0  0
 23 19  2  0  0  0  0
 24 22  1  0  0  0  0
 26 27  1  0  0  0  0
 26 16  1  0  0  0  0
 27 29  1  0  0  0  0
 28 30  2  0  0  0  0
 29 33  2  0  0  0  0
 29 30  1  0  0  0  0
 30 34  1  0  0  0  0
 32 31  1  0  0  0  0
 33 32  1  0  0  0  0
 34 31  2  0  0  0  0
M  END
>  <MODEL>
7

>  <REMARK>
 VINA RESULT:      -7.0      4.892      9.061
  Name = 
  4 active torsions:
  status: ('A' for Active; 'I' for Inactive)
    1  A    between atoms: O_3  and  C_13
    2  A    between atoms: O_3  and  C_17
    3  A    between atoms: C_12  and  C_28
    4  A    between atoms: C_17  and  C_29
                            x       y       z     vdW  Elec       q    Type
                         _______ _______ _______ _____ _____    ______ ____

>  <TORSDO>
F 4

$$$$
=
 OpenBabel10252415033D

 34 39  0  0  1  0  0  0  0  0999 V2000
  181.8240  178.7930  137.1020 C   0  0  0  0  0  0  0  0  0  0  0  0
  182.6940  178.1250  139.2760 C   0  0  0  0  0  0  0  0  0  0  0  0
  183.3670  176.7690  137.2480 C   0  0  1  0  0  3  0  0  0  0  0  0
  185.5860  176.5260  136.1090 N   0  0  0  0  0  0  0  0  0  0  0  0
  181.2900  180.0880  139.0810 C   0  0  0  0  0  3  0  0  0  0  0  0
  182.0450  179.2140  139.8620 C   0  0  0  0  0  3  0  0  0  0  0  0
  185.6490  177.7100  138.0190 C   0  0  0  0  0  3  0  0  0  0  0  0
  182.6060  177.9120  137.8860 C   0  0  0  0  0  0  0  0  0  0  0  0
  186.8670  176.8700  136.3110 C   0  0  0  0  0  3  0  0  0  0  0  0
  181.1690  179.8690  137.7070 C   0  0  0  0  0  3  0  0  0  0  0  0
  182.7600  176.3540  135.8920 C   0  0  2  0  0  3  0  0  0  0  0  0
  181.5430  178.5270  135.6490 C   0  0  0  0  0  2  0  0  0  0  0  0
  183.4230  177.2570  140.0830 O   0  0  0  0  0  1  0  0  0  0  0  0
  185.0790  175.8050  134.9460 C   0  0  0  0  0  2  0  0  0  0  0  0
  183.6360  175.3210  135.1610 C   0  0  1  0  0  3  0  0  0  0  0  0
  186.9220  177.5920  137.4890 C   0  0  0  0  0  0  0  0  0  0  0  0
  184.8440  177.0480  137.1070 C   0  0  0  0  0  0  0  0  0  0  0  0
  182.5570  177.5830  135.0120 C   0  0  0  0  0  2  0  0  0  0  0  0
  182.3160  172.1340  136.7870 C   0  0  0  0  0  0  0  0  0  0  0  0
  183.4980  171.4070  136.9420 C   0  0  0  0  0  3  0  0  0  0  0  0
  183.5690  173.9620  135.7940 C   0  0  0  0  0  0  0  0  0  0  0  0
  184.7160  171.9510  136.5220 C   0  0  0  0  0  3  0  0  0  0  0  0
  182.3500  173.4070  136.2130 C   0  0  0  0  0  3  0  0  0  0  0  0
  184.7490  173.2250  135.9470 C   0  0  0  0  0  3  0  0  0  0  0  0
  181.1350  171.6040  137.1900 F   0  0  0  0  0  0  0  0  0  0  0  0
  188.1550  178.1670  138.0890 C   0  0  0  0  0  2  0  0  0  0  0  0
  187.8700  178.6570  139.3900 O   0  0  0  0  0  0  0  0  0  0  0  0
  186.1000  178.6260  142.0800 S   0  0  0  0  0  0  0  0  0  0  0  0
  188.3500  178.0870  140.5780 C   0  0  0  0  0  0  0  0  0  0  0  0
  187.6690  178.1940  141.9020 C   0  0  0  0  0  0  0  0  0  0  0  0
  189.6040  177.2250  143.0150 C   0  0  0  0  0  3  0  0  0  0  0  0
  190.1270  176.7280  141.6940 C   0  0  0  0  0  2  0  0  0  0  0  0
  189.5160  177.4350  140.5120 C   0  0  0  0  0  3  0  0  0  0  0  0
  188.4360  177.8620  143.1120 C   0  0  0  0  0  3  0  0  0  0  0  0
  1 10  2  0  0  0  0
  1  8  1  0  0  0  0
  2  6  1  0  0  0  0
  2 13  1  0  0  0  0
  3 17  1  6  0  0  0
  3  8  1  0  0  0  0
  4  9  1  0  0  0  0
  4 17  1  0  0  0  0
  5  6  2  0  0  0  0
  8  2  2  0  0  0  0
  9 16  2  0  0  0  0
 10  5  1  0  0  0  0
 11 18  1  6  0  0  0
 11  3  1  0  0  0  0
 12  1  1  0  0  0  0
 14 15  1  0  0  0  0
 14  4  1  0  0  0  0
 15 21  1  1  0  0  0
 15 11  1  0  0  0  0
 16  7  1  0  0  0  0
 16 26  1  0  0  0  0
 17  7  2  0  0  0  0
 18 12  1  0  0  0  0
 19 20  1  0  0  0  0
 19 25  1  0  0  0  0
 21 24  2  0  0  0  0
 21 23  1  0  0  0  0
 22 20  2  0  0  0  0
 23 19  2  0  0  0  0
 24 22  1  0  0  0  0
 26 27  1  0  0  0  0
 27 29  1  0  0  0  0
 29 30  1  0  0  0  0
 30 28  2  0  0  0  0
 30 34  1  0  0  0  0
 31 34  2  0  0  0  0
 32 31  1  0  0  0  0
 33 29  2  0  0  0  0
 33 32  1  0  0  0  0
M  END
>  <MODEL>
8

>  <REMARK>
 VINA RESULT:      -6.7      3.572      6.855
  Name = 
  4 active torsions:
  status: ('A' for Active; 'I' for Inactive)
    1  A    between atoms: O_3  and  C_13
    2  A    between atoms: O_3  and  C_17
    3  A    between atoms: C_12  and  C_28
    4  A    between atoms: C_17  and  C_29
                            x       y       z     vdW  Elec       q    Type
                         _______ _______ _______ _____ _____    ______ ____

>  <TORSDO>
F 4

$$$$
=
 OpenBabel10252415033D

 34 39  0  0  1  0  0  0  0  0999 V2000
  189.6700  173.6720  135.5510 C   0  0  0  0  0  0  0  0  0  0  0  0
  187.6720  172.9640  136.7490 C   0  0  0  0  0  0  0  0  0  0  0  0
  188.5630  175.2930  137.1770 C   0  0  1  0  0  3  0  0  0  0  0  0
  187.6100  177.5370  136.5950 N   0  0  0  0  0  0  0  0  0  0  0  0
  188.7100  171.4840  135.1370 C   0  0  0  0  0  3  0  0  0  0  0  0
  187.7050  171.7440  136.0690 C   0  0  0  0  0  3  0  0  0  0  0  0
  186.2450  175.8080  136.1490 C   0  0  0  0  0  3  0  0  0  0  0  0
  188.6440  173.9490  136.4850 C   0  0  0  0  0  0  0  0  0  0  0  0
  186.4720  178.0550  136.1090 C   0  0  0  0  0  3  0  0  0  0  0  0
  189.6960  172.4410  134.8900 C   0  0  0  0  0  3  0  0  0  0  0  0
  189.9260  176.0140  137.2060 C   0  0  2  0  0  3  0  0  0  0  0  0
  190.8330  174.6030  135.3490 C   0  0  0  0  0  2  0  0  0  0  0  0
  186.6710  173.1870  137.6890 O   0  0  0  0  0  1  0  0  0  0  0  0
  188.8000  178.3030  136.9540 C   0  0  0  0  0  2  0  0  0  0  0  0
  189.8070  177.4500  137.7420 C   0  0  1  0  0  3  0  0  0  0  0  0
  185.6190  177.0020  135.8390 C   0  0  0  0  0  0  0  0  0  0  0  0
  187.4990  176.1940  136.5960 C   0  0  0  0  0  0  0  0  0  0  0  0
  190.5420  176.0260  135.8100 C   0  0  0  0  0  2  0  0  0  0  0  0
  188.3060  178.2510  141.1560 C   0  0  0  0  0  0  0  0  0  0  0  0
  189.1450  177.5120  141.9930 C   0  0  0  0  0  3  0  0  0  0  0  0
  189.5670  177.4920  139.2230 C   0  0  0  0  0  0  0  0  0  0  0  0
  190.1920  176.7620  141.4510 C   0  0  0  0  0  3  0  0  0  0  0  0
  188.5140  178.2400  139.7740 C   0  0  0  0  0  3  0  0  0  0  0  0
  190.4000  176.7510  140.0680 C   0  0  0  0  0  3  0  0  0  0  0  0
  187.2880  178.9750  141.6820 F   0  0  0  0  0  0  0  0  0  0  0  0
  184.2440  177.1280  135.2850 C   0  0  0  0  0  2  0  0  0  0  0  0
  183.4320  177.8650  136.1860 O   0  0  0  0  0  0  0  0  0  0  0  0
  184.1890  179.0700  139.0750 S   0  0  0  0  0  0  0  0  0  0  0  0
  182.8780  177.3470  137.3650 C   0  0  0  0  0  0  0  0  0  0  0  0
  183.3130  177.7270  138.7420 C   0  0  0  0  0  0  0  0  0  0  0  0
  181.9580  175.9480  139.7000 C   0  0  0  0  0  3  0  0  0  0  0  0
  181.1960  175.8190  138.4090 C   0  0  0  0  0  2  0  0  0  0  0  0
  181.9190  176.4250  137.2320 C   0  0  0  0  0  3  0  0  0  0  0  0
  182.9060  176.8710  139.8650 C   0  0  0  0  0  3  0  0  0  0  0  0
  1  8  1  0  0  0  0
  2 13  1  0  0  0  0
  3  8  1  6  0  0  0
  3 11  1  0  0  0  0
  4 17  1  0  0  0  0
  4 14  1  0  0  0  0
  5  6  2  0  0  0  0
  6  2  1  0  0  0  0
  7 17  2  0  0  0  0
  8  2  2  0  0  0  0
  9  4  1  0  0  0  0
 10  5  1  0  0  0  0
 10  1  2  0  0  0  0
 11 18  1  6  0  0  0
 11 15  1  0  0  0  0
 12  1  1  0  0  0  0
 12 18  1  0  0  0  0
 14 15  1  0  0  0  0
 15 21  1  1  0  0  0
 16  9  2  0  0  0  0
 16  7  1  0  0  0  0
 17  3  1  0  0  0  0
 19 25  1  0  0  0  0
 19 20  1  0  0  0  0
 21 23  1  0  0  0  0
 21 24  2  0  0  0  0
 22 20  2  0  0  0  0
 23 19  2  0  0  0  0
 24 22  1  0  0  0  0
 26 16  1  0  0  0  0
 26 27  1  0  0  0  0
 27 29  1  0  0  0  0
 29 30  1  0  0  0  0
 30 28  2  0  0  0  0
 30 34  1  0  0  0  0
 31 34  2  0  0  0  0
 32 31  1  0  0  0  0
 33 29  2  0  0  0  0
 33 32  1  0  0  0  0
M  END
>  <MODEL>
9

>  <REMARK>
 VINA RESULT:      -6.7      4.677      8.661
  Name = 
  4 active torsions:
  status: ('A' for Active; 'I' for Inactive)
    1  A    between atoms: O_3  and  C_13
    2  A    between atoms: O_3  and  C_17
    3  A    between atoms: C_12  and  C_28
    4  A    between atoms: C_17  and  C_29
                            x       y       z     vdW  Elec       q    Type
                         _______ _______ _______ _____ _____    ______ ____

>  <TORSDO>
F 4

$$$$
