=
 OpenBabel10262423073D

 37 40  0  0  1  0  0  0  0  0999 V2000
  190.1730  177.4590  136.8340 C   0  0  0  0  0  2  0  0  0  0  0  0
  187.6710  177.2500  137.3640 C   0  0  2  0  0  3  0  0  0  0  0  0
  191.1560  176.7570  137.7650 C   0  0  2  0  0  3  0  0  0  0  0  0
  189.0090  177.9550  137.6810 C   0  0  1  0  0  3  0  0  0  0  0  0
  191.2850  175.2750  137.3800 C   0  0  2  0  0  3  0  0  0  0  0  0
  187.7020  175.7200  137.5240 C   0  0  0  0  0  2  0  0  0  0  0  0
  189.4690  177.8970  139.1390 C   0  0  2  0  0  3  0  0  0  0  0  0
  188.2700  173.5040  136.5690 C   0  0  0  0  0  2  0  0  0  0  0  0
  188.1710  174.9860  136.2650 C   0  0  2  0  0  3  0  0  0  0  0  0
  189.5400  174.3120  136.4000 C   0  0  1  0  0  3  0  0  0  0  0  0
  190.6540  176.9500  139.1920 C   0  0  2  0  0  3  0  0  0  0  0  0
  190.1180  174.5530  137.6520 O   0  0  0  0  0  0  0  0  0  0  0  0
  185.5590  177.4170  136.0160 C   0  0  0  0  0  1  0  0  0  0  0  0
  187.0430  177.7320  136.0480 C   0  0  1  0  0  3  0  0  0  0  0  0
  187.2110  179.1100  135.9080 O   0  0  0  0  0  1  0  0  0  0  0  0
  187.3860  178.4740  140.1670 O   0  0  0  0  0  0  0  0  0  0  0  0
  188.3130  178.5110  141.2270 C   0  0  2  0  0  3  0  0  0  0  0  0
  188.3960  177.4990  140.1470 C   0  0  2  0  0  3  0  0  0  0  0  0
  187.7020  177.9190  142.4600 C   0  0  0  0  0  0  0  0  0  0  0  0
  186.3900  178.0660  142.6710 C   0  0  0  0  0  2  0  0  0  0  0  0
  188.5990  177.3510  143.5280 C   0  0  2  0  0  3  0  0  0  0  0  0
  188.9600  175.9070  143.2150 C   0  0  0  0  0  1  0  0  0  0  0  0
  187.9630  177.4710  144.9090 C   0  0  0  0  0  2  0  0  0  0  0  0
  188.9980  177.8420  145.9610 C   0  0  0  0  0  2  0  0  0  0  0  0
  189.2530  176.7540  146.7960 O   0  0  0  0  0  1  0  0  0  0  0  0
  192.5240  174.5880  137.9690 C   0  0  0  0  0  2  0  0  0  0  0  0
  193.8470  175.2810  137.6500 C   0  0  0  0  0  2  0  0  0  0  0  0
  195.0090  174.3040  137.6370 C   0  0  2  0  0  3  0  0  0  0  0  0
  194.5450  172.9880  137.0290 C   0  0  0  0  0  2  0  0  0  0  0  0
  195.4180  171.8420  137.5030 C   0  0  0  0  0  1  0  0  0  0  0  0
  195.4730  174.0830  139.0720 C   0  0  0  0  0  2  0  0  0  0  0  0
  197.6190  175.1370  138.3630 O   0  0  0  0  0  0  0  0  0  0  0  0
  196.8810  175.3490  140.5240 O   0  0  0  0  0  1  0  0  0  0  0  0
  196.6960  174.8820  139.3680 C   0  0  0  0  0  0  0  0  0  0  0  0
  191.7530  177.5060  140.0930 C   0  0  0  0  0  2  0  0  0  0  0  0
  191.7770  176.8440  141.3230 O   0  0  0  0  0  0  0  0  0  0  0  0
  191.8760  177.8640  142.2670 C   0  0  0  0  0  1  0  0  0  0  0  0
  2 14  1  6  0  0  0
  2  6  1  0  0  0  0
  2  4  1  0  0  0  0
  3  1  1  6  0  0  0
  3 11  1  0  0  0  0
  4  1  1  6  0  0  0
  4  7  1  0  0  0  0
  5 12  1  0  0  0  0
  5  3  1  0  0  0  0
  5 26  1  1  0  0  0
  7 11  1  0  0  0  0
  7 18  1  1  0  0  0
  9 10  1  0  0  0  0
  9  8  1  1  0  0  0
  9  6  1  0  0  0  0
 10  8  1  1  0  0  0
 10 12  1  0  0  0  0
 11 35  1  1  0  0  0
 14 13  1  1  0  0  0
 15 14  1  0  0  0  0
 16 17  1  0  0  0  0
 17 19  1  1  0  0  0
 18 16  1  6  0  0  0
 18 17  1  0  0  0  0
 19 20  2  0  0  0  0
 19 21  1  0  0  0  0
 21 22  1  6  0  0  0
 21 23  1  0  0  0  0
 23 24  1  0  0  0  0
 24 25  1  0  0  0  0
 27 26  1  0  0  0  0
 28 29  1  1  0  0  0
 28 27  1  0  0  0  0
 28 31  1  0  0  0  0
 29 30  1  0  0  0  0
 31 34  1  0  0  0  0
 32 34  2  0  0  0  0
 34 33  1  0  0  0  0
 35 36  1  0  0  0  0
 36 37  1  0  0  0  0
M  END
>  <MODEL>
1

>  <REMARK>
 VINA RESULT:      -6.2      0.000      0.000
  Name = 
  14 active torsions:
  status: ('A' for Active; 'I' for Inactive)
    1  A    between atoms: C_1  and  C_5
    2  A    between atoms: C_1  and  C_23
    3  A    between atoms: C_2  and  C_6
    4  A    between atoms: C_5  and  C_26
    5  A    between atoms: C_6  and  C_8
    6  A    between atoms: C_6  and  C_31
    7  A    between atoms: C_7  and  C_14
    8  A    between atoms: C_7  and  C_31
    9  A    between atoms: C_8  and  C_19
   10  A    between atoms: C_9  and  C_30
   11  A    between atoms: C_11  and  C_26
   12  A    between atoms: C_20  and  C_25
   13  A    between atoms: O_27  and  C_33
   14  A    between atoms: C_29  and  C_33
                            x       y       z     vdW  Elec       q    Type
                         _______ _______ _______ _____ _____    ______ ____

>  <TORSDO>
F 14

$$$$
=
 OpenBabel10262423073D

 37 40  0  0  1  0  0  0  0  0999 V2000
  182.8190  179.0120  138.3280 C   0  0  0  0  0  2  0  0  0  0  0  0
  181.7010  178.7000  140.6160 C   0  0  2  0  0  3  0  0  0  0  0  0
  184.0310  178.1450  138.0060 C   0  0  2  0  0  3  0  0  0  0  0  0
  182.8620  179.3320  139.8150 C   0  0  1  0  0  3  0  0  0  0  0  0
  183.5770  176.7670  137.5000 C   0  0  2  0  0  3  0  0  0  0  0  0
  181.6080  177.1680  140.5040 C   0  0  0  0  0  2  0  0  0  0  0  0
  184.2730  178.9920  140.2990 C   0  0  2  0  0  3  0  0  0  0  0  0
  180.8570  175.1820  139.2250 C   0  0  0  0  0  2  0  0  0  0  0  0
  180.7880  176.6950  139.3000 C   0  0  2  0  0  3  0  0  0  0  0  0
  181.6120  176.0100  138.2050 C   0  0  1  0  0  3  0  0  0  0  0  0
  184.8800  178.0550  139.2710 C   0  0  2  0  0  3  0  0  0  0  0  0
  182.9780  176.0040  138.5090 O   0  0  0  0  0  0  0  0  0  0  0  0
  179.5220  179.3830  141.6600 C   0  0  0  0  0  1  0  0  0  0  0  0
  180.3660  179.4280  140.4000 C   0  0  1  0  0  3  0  0  0  0  0  0
  180.5930  180.7630  140.0610 O   0  0  0  0  0  1  0  0  0  0  0  0
  184.1220  179.4130  142.6510 O   0  0  0  0  0  0  0  0  0  0  0  0
  185.4660  179.0390  142.4540 C   0  0  2  0  0  3  0  0  0  0  0  0
  184.3590  178.4030  141.7030 C   0  0  2  0  0  3  0  0  0  0  0  0
  185.9190  178.1570  143.5760 C   0  0  0  0  0  0  0  0  0  0  0  0
  185.3470  178.2870  144.7780 C   0  0  0  0  0  2  0  0  0  0  0  0
  187.1360  177.2890  143.3880 C   0  0  2  0  0  3  0  0  0  0  0  0
  187.9440  177.2090  144.6740 C   0  0  0  0  0  1  0  0  0  0  0  0
  187.9950  177.7820  142.2290 C   0  0  0  0  0  2  0  0  0  0  0  0
  189.4170  178.0760  142.6850 C   0  0  0  0  0  2  0  0  0  0  0  0
  190.3340  177.3840  141.8940 O   0  0  0  0  0  1  0  0  0  0  0  0
  184.6770  175.9790  136.7760 C   0  0  0  0  0  2  0  0  0  0  0  0
  184.1630  174.9020  135.8230 C   0  0  0  0  0  2  0  0  0  0  0  0
  184.5400  173.5070  136.2910 C   0  0  2  0  0  3  0  0  0  0  0  0
  183.3150  172.8400  136.9010 C   0  0  0  0  0  2  0  0  0  0  0  0
  183.4580  171.3310  136.8760 C   0  0  0  0  0  1  0  0  0  0  0  0
  185.6440  173.6260  137.3330 C   0  0  0  0  0  2  0  0  0  0  0  0
  187.4680  173.7400  135.6370 O   0  0  0  0  0  0  0  0  0  0  0  0
  187.5970  172.2560  137.3810 O   0  0  0  0  0  1  0  0  0  0  0  0
  186.9500  173.1590  136.7860 C   0  0  0  0  0  0  0  0  0  0  0  0
  186.3330  178.4260  138.9880 C   0  0  0  0  0  2  0  0  0  0  0  0
  186.5060  178.7960  137.6520 O   0  0  0  0  0  0  0  0  0  0  0  0
  187.7650  178.3040  137.3130 C   0  0  0  0  0  1  0  0  0  0  0  0
  2 14  1  6  0  0  0
  3  1  1  1  0  0  0
  3 11  1  0  0  0  0
  4  1  1  6  0  0  0
  4  7  1  0  0  0  0
  4  2  1  0  0  0  0
  5 26  1  1  0  0  0
  5  3  1  0  0  0  0
  5 12  1  0  0  0  0
  6  2  1  0  0  0  0
  7 18  1  1  0  0  0
  9  8  1  1  0  0  0
  9  6  1  0  0  0  0
 10 12  1  0  0  0  0
 10  8  1  1  0  0  0
 10  9  1  0  0  0  0
 11 35  1  6  0  0  0
 11  7  1  0  0  0  0
 14 13  1  1  0  0  0
 15 14  1  0  0  0  0
 17 16  1  0  0  0  0
 17 19  1  1  0  0  0
 18 17  1  0  0  0  0
 18 16  1  1  0  0  0
 19 20  2  0  0  0  0
 21 19  1  0  0  0  0
 21 22  1  1  0  0  0
 23 24  1  0  0  0  0
 23 21  1  0  0  0  0
 25 24  1  0  0  0  0
 27 26  1  0  0  0  0
 28 27  1  1  0  0  0
 28 29  1  0  0  0  0
 28 31  1  0  0  0  0
 30 29  1  0  0  0  0
 32 34  2  0  0  0  0
 34 31  1  0  0  0  0
 34 33  1  0  0  0  0
 36 35  1  0  0  0  0
 37 36  1  0  0  0  0
M  END
>  <MODEL>
2

>  <REMARK>
 VINA RESULT:      -5.7      4.408      7.402
  Name = 
  14 active torsions:
  status: ('A' for Active; 'I' for Inactive)
    1  A    between atoms: C_1  and  C_5
    2  A    between atoms: C_1  and  C_23
    3  A    between atoms: C_2  and  C_6
    4  A    between atoms: C_5  and  C_26
    5  A    between atoms: C_6  and  C_8
    6  A    between atoms: C_6  and  C_31
    7  A    between atoms: C_7  and  C_14
    8  A    between atoms: C_7  and  C_31
    9  A    between atoms: C_8  and  C_19
   10  A    between atoms: C_9  and  C_30
   11  A    between atoms: C_11  and  C_26
   12  A    between atoms: C_20  and  C_25
   13  A    between atoms: O_27  and  C_33
   14  A    between atoms: C_29  and  C_33
                            x       y       z     vdW  Elec       q    Type
                         _______ _______ _______ _____ _____    ______ ____

>  <TORSDO>
F 14

$$$$
=
 OpenBabel10262423073D

 37 40  0  0  1  0  0  0  0  0999 V2000
  182.6150  178.5200  137.5810 C   0  0  0  0  0  2  0  0  0  0  0  0
  181.9580  178.8910  140.0340 C   0  0  2  0  0  3  0  0  0  0  0  0
  183.6230  177.4170  137.2760 C   0  0  2  0  0  3  0  0  0  0  0  0
  182.9990  179.1380  138.9180 C   0  0  1  0  0  3  0  0  0  0  0  0
  182.9140  176.0560  137.2030 C   0  0  2  0  0  3  0  0  0  0  0  0
  181.6620  177.4070  140.3120 C   0  0  0  0  0  2  0  0  0  0  0  0
  184.4280  178.6840  139.2200 C   0  0  2  0  0  3  0  0  0  0  0  0
  180.4350  175.3430  139.6990 C   0  0  0  0  0  2  0  0  0  0  0  0
  180.5640  176.8270  139.4170 C   0  0  2  0  0  3  0  0  0  0  0  0
  181.0580  175.7990  138.3950 C   0  0  1  0  0  3  0  0  0  0  0  0
  184.6950  177.4630  138.3600 C   0  0  2  0  0  3  0  0  0  0  0  0
  182.4470  175.6350  138.4530 O   0  0  0  0  0  0  0  0  0  0  0  0
  180.0750  180.0380  141.2330 C   0  0  0  0  0  1  0  0  0  0  0  0
  180.7050  179.7640  139.8810 C   0  0  1  0  0  3  0  0  0  0  0  0
  181.0330  180.9820  139.2850 O   0  0  0  0  0  1  0  0  0  0  0  0
  184.8570  179.6180  141.3820 O   0  0  0  0  0  0  0  0  0  0  0  0
  186.0550  178.9550  141.0510 C   0  0  2  0  0  3  0  0  0  0  0  0
  184.7280  178.4040  140.6880 C   0  0  2  0  0  3  0  0  0  0  0  0
  186.6030  178.2610  142.2590 C   0  0  0  0  0  0  0  0  0  0  0  0
  185.8490  178.1760  143.3600 C   0  0  0  0  0  2  0  0  0  0  0  0
  188.0540  177.8530  142.2810 C   0  0  2  0  0  3  0  0  0  0  0  0
  188.5860  177.6840  140.8660 C   0  0  0  0  0  1  0  0  0  0  0  0
  188.2600  176.5840  143.1010 C   0  0  0  0  0  2  0  0  0  0  0  0
  189.4220  176.7400  144.0720 C   0  0  0  0  0  2  0  0  0  0  0  0
  189.1420  177.7340  145.0090 O   0  0  0  0  0  1  0  0  0  0  0  0
  183.7410  174.9630  136.5120 C   0  0  0  0  0  2  0  0  0  0  0  0
  182.9120  173.9020  135.7910 C   0  0  0  0  0  2  0  0  0  0  0  0
  182.5090  172.7700  136.7210 C   0  0  2  0  0  3  0  0  0  0  0  0
  183.7440  171.9520  137.0710 C   0  0  0  0  0  2  0  0  0  0  0  0
  184.3170  171.2900  135.8330 C   0  0  0  0  0  1  0  0  0  0  0  0
  181.4870  171.8960  136.0060 C   0  0  0  0  0  2  0  0  0  0  0  0
  180.2370  172.1620  138.1470 O   0  0  0  0  0  1  0  0  0  0  0  0
  179.5020  170.6890  136.5500 O   0  0  0  0  0  0  0  0  0  0  0  0
  180.3600  171.5380  136.9130 C   0  0  0  0  0  0  0  0  0  0  0  0
  186.0930  177.5230  137.7510 C   0  0  0  0  0  2  0  0  0  0  0  0
  186.4820  178.8430  137.5130 O   0  0  0  0  0  0  0  0  0  0  0  0
  187.6330  178.7340  136.7350 C   0  0  0  0  0  1  0  0  0  0  0  0
  2 14  1  6  0  0  0
  2  6  1  0  0  0  0
  3  1  1  1  0  0  0
  3 11  1  0  0  0  0
  4  1  1  6  0  0  0
  4  7  1  0  0  0  0
  4  2  1  0  0  0  0
  5 26  1  1  0  0  0
  5  3  1  0  0  0  0
  5 12  1  0  0  0  0
  7 18  1  1  0  0  0
  9  8  1  1  0  0  0
  9  6  1  0  0  0  0
 10 12  1  0  0  0  0
 10  9  1  0  0  0  0
 10  8  1  1  0  0  0
 11 35  1  6  0  0  0
 11  7  1  0  0  0  0
 14 13  1  1  0  0  0
 15 14  1  0  0  0  0
 17 16  1  0  0  0  0
 17 19  1  1  0  0  0
 18 17  1  0  0  0  0
 18 16  1  1  0  0  0
 19 21  1  0  0  0  0
 19 20  2  0  0  0  0
 21 22  1  6  0  0  0
 21 23  1  0  0  0  0
 23 24  1  0  0  0  0
 24 25  1  0  0  0  0
 27 26  1  0  0  0  0
 28 27  1  6  0  0  0
 28 29  1  0  0  0  0
 30 29  1  0  0  0  0
 31 28  1  0  0  0  0
 31 34  1  0  0  0  0
 33 34  2  0  0  0  0
 34 32  1  0  0  0  0
 36 35  1  0  0  0  0
 37 36  1  0  0  0  0
M  END
>  <MODEL>
3

>  <REMARK>
 VINA RESULT:      -5.5      4.906      8.668
  Name = 
  14 active torsions:
  status: ('A' for Active; 'I' for Inactive)
    1  A    between atoms: C_1  and  C_5
    2  A    between atoms: C_1  and  C_23
    3  A    between atoms: C_2  and  C_6
    4  A    between atoms: C_5  and  C_26
    5  A    between atoms: C_6  and  C_8
    6  A    between atoms: C_6  and  C_31
    7  A    between atoms: C_7  and  C_14
    8  A    between atoms: C_7  and  C_31
    9  A    between atoms: C_8  and  C_19
   10  A    between atoms: C_9  and  C_30
   11  A    between atoms: C_11  and  C_26
   12  A    between atoms: C_20  and  C_25
   13  A    between atoms: O_27  and  C_33
   14  A    between atoms: C_29  and  C_33
                            x       y       z     vdW  Elec       q    Type
                         _______ _______ _______ _____ _____    ______ ____

>  <TORSDO>
F 14

$$$$
=
 OpenBabel10262423073D

 37 40  0  0  1  0  0  0  0  0999 V2000
  190.1180  177.5980  136.9580 C   0  0  0  0  0  2  0  0  0  0  0  0
  187.5950  177.4790  137.4140 C   0  0  2  0  0  3  0  0  0  0  0  0
  191.0420  176.7980  137.8700 C   0  0  2  0  0  3  0  0  0  0  0  0
  188.9560  178.0990  137.8040 C   0  0  1  0  0  3  0  0  0  0  0  0
  191.1130  175.3360  137.4010 C   0  0  2  0  0  3  0  0  0  0  0  0
  187.5510  175.9420  137.4840 C   0  0  0  0  0  2  0  0  0  0  0  0
  189.3730  177.9360  139.2660 C   0  0  2  0  0  3  0  0  0  0  0  0
  188.0410  173.7610  136.4150 C   0  0  0  0  0  2  0  0  0  0  0  0
  188.0200  175.2600  136.1960 C   0  0  2  0  0  3  0  0  0  0  0  0
  189.3520  174.5150  136.3240 C   0  0  1  0  0  3  0  0  0  0  0  0
  190.5110  176.9320  139.2930 C   0  0  2  0  0  3  0  0  0  0  0  0
  189.9060  174.6560  137.6020 O   0  0  0  0  0  0  0  0  0  0  0  0
  185.5930  177.6140  135.9050 C   0  0  0  0  0  1  0  0  0  0  0  0
  187.0270  178.0650  136.1140 C   0  0  1  0  0  3  0  0  0  0  0  0
  187.0560  179.4600  136.1580 O   0  0  0  0  0  1  0  0  0  0  0  0
  187.2560  178.5190  140.2190 O   0  0  0  0  0  0  0  0  0  0  0  0
  188.1390  178.5270  141.3160 C   0  0  2  0  0  3  0  0  0  0  0  0
  188.2560  177.5330  140.2230 C   0  0  2  0  0  3  0  0  0  0  0  0
  187.4720  177.9210  142.5130 C   0  0  0  0  0  0  0  0  0  0  0  0
  186.1610  178.1080  142.6910 C   0  0  0  0  0  2  0  0  0  0  0  0
  188.3180  177.2900  143.5880 C   0  0  2  0  0  3  0  0  0  0  0  0
  188.7570  175.8930  143.1750 C   0  0  0  0  0  1  0  0  0  0  0  0
  187.5850  177.2630  144.9250 C   0  0  0  0  0  2  0  0  0  0  0  0
  188.4510  177.8380  146.0380 C   0  0  0  0  0  2  0  0  0  0  0  0
  189.7200  178.1510  145.5530 O   0  0  0  0  0  1  0  0  0  0  0  0
  192.3010  174.5570  137.9790 C   0  0  0  0  0  2  0  0  0  0  0  0
  193.6700  175.1360  137.6290 C   0  0  0  0  0  2  0  0  0  0  0  0
  194.6190  174.0710  137.1060 C   0  0  2  0  0  3  0  0  0  0  0  0
  195.9320  174.7300  136.7060 C   0  0  0  0  0  2  0  0  0  0  0  0
  195.7260  175.6660  135.5320 C   0  0  0  0  0  1  0  0  0  0  0  0
  193.9790  173.4040  135.8950 C   0  0  0  0  0  2  0  0  0  0  0  0
  193.7220  170.9900  136.4670 O   0  0  0  0  0  1  0  0  0  0  0  0
  195.3780  171.6730  135.0350 O   0  0  0  0  0  0  0  0  0  0  0  0
  194.4080  171.9810  135.7790 C   0  0  0  0  0  0  0  0  0  0  0  0
  191.6100  177.3820  140.2520 C   0  0  0  0  0  2  0  0  0  0  0  0
  191.0900  177.6530  141.5200 O   0  0  0  0  0  0  0  0  0  0  0  0
  192.0680  177.1950  142.4020 C   0  0  0  0  0  1  0  0  0  0  0  0
  2 14  1  6  0  0  0
  2  6  1  0  0  0  0
  2  4  1  0  0  0  0
  3  1  1  6  0  0  0
  3 11  1  0  0  0  0
  4  1  1  6  0  0  0
  4  7  1  0  0  0  0
  5 12  1  0  0  0  0
  5  3  1  0  0  0  0
  5 26  1  1  0  0  0
  7 11  1  0  0  0  0
  7 18  1  1  0  0  0
  9 10  1  0  0  0  0
  9  8  1  1  0  0  0
  9  6  1  0  0  0  0
 10  8  1  1  0  0  0
 10 12  1  0  0  0  0
 11 35  1  1  0  0  0
 14 13  1  1  0  0  0
 14 15  1  0  0  0  0
 16 17  1  0  0  0  0
 17 19  1  1  0  0  0
 18 16  1  6  0  0  0
 18 17  1  0  0  0  0
 19 20  2  0  0  0  0
 19 21  1  0  0  0  0
 21 22  1  6  0  0  0
 21 23  1  0  0  0  0
 23 24  1  0  0  0  0
 25 24  1  0  0  0  0
 27 26  1  0  0  0  0
 28 31  1  6  0  0  0
 28 27  1  0  0  0  0
 29 28  1  0  0  0  0
 30 29  1  0  0  0  0
 33 34  2  0  0  0  0
 34 31  1  0  0  0  0
 34 32  1  0  0  0  0
 35 36  1  0  0  0  0
 36 37  1  0  0  0  0
M  END
>  <MODEL>
4

>  <REMARK>
 VINA RESULT:      -5.3      1.588      2.032
  Name = 
  14 active torsions:
  status: ('A' for Active; 'I' for Inactive)
    1  A    between atoms: C_1  and  C_5
    2  A    between atoms: C_1  and  C_23
    3  A    between atoms: C_2  and  C_6
    4  A    between atoms: C_5  and  C_26
    5  A    between atoms: C_6  and  C_8
    6  A    between atoms: C_6  and  C_31
    7  A    between atoms: C_7  and  C_14
    8  A    between atoms: C_7  and  C_31
    9  A    between atoms: C_8  and  C_19
   10  A    between atoms: C_9  and  C_30
   11  A    between atoms: C_11  and  C_26
   12  A    between atoms: C_20  and  C_25
   13  A    between atoms: O_27  and  C_33
   14  A    between atoms: C_29  and  C_33
                            x       y       z     vdW  Elec       q    Type
                         _______ _______ _______ _____ _____    ______ ____

>  <TORSDO>
F 14

$$$$
=
 OpenBabel10262423073D

 37 40  0  0  1  0  0  0  0  0999 V2000
  189.3490  178.2260  137.4180 C   0  0  0  0  0  2  0  0  0  0  0  0
  190.6840  176.0350  137.3980 C   0  0  2  0  0  3  0  0  0  0  0  0
  187.9470  178.1970  138.0170 C   0  0  2  0  0  3  0  0  0  0  0  0
  189.5840  176.8890  136.7290 C   0  0  1  0  0  3  0  0  0  0  0  0
  188.0210  178.3290  139.5460 C   0  0  2  0  0  3  0  0  0  0  0  0
  190.4310  175.7190  138.8830 C   0  0  0  0  0  2  0  0  0  0  0  0
  188.2150  176.2240  136.5800 C   0  0  2  0  0  3  0  0  0  0  0  0
  190.5550  176.4410  141.2510 C   0  0  0  0  0  2  0  0  0  0  0  0
  190.9540  176.8000  139.8330 C   0  0  2  0  0  3  0  0  0  0  0  0
  189.8590  177.5920  140.5530 C   0  0  1  0  0  3  0  0  0  0  0  0
  187.2850  176.8980  137.5720 C   0  0  2  0  0  3  0  0  0  0  0  0
  188.5790  177.1960  140.1490 O   0  0  0  0  0  0  0  0  0  0  0  0
  193.1390  175.6930  137.7980 C   0  0  0  0  0  1  0  0  0  0  0  0
  192.0990  176.5470  137.0970 C   0  0  1  0  0  3  0  0  0  0  0  0
  192.3440  176.5130  135.7240 O   0  0  0  0  0  1  0  0  0  0  0  0
  188.8730  174.1080  135.6730 O   0  0  0  0  0  0  0  0  0  0  0  0
  187.4650  174.0760  135.6330 C   0  0  2  0  0  3  0  0  0  0  0  0
  188.2030  174.7080  136.7520 C   0  0  2  0  0  3  0  0  0  0  0  0
  186.9760  172.7160  136.0240 C   0  0  0  0  0  0  0  0  0  0  0  0
  187.8220  171.6810  135.9800 C   0  0  0  0  0  2  0  0  0  0  0  0
  185.5040  172.5020  136.2640 C   0  0  2  0  0  3  0  0  0  0  0  0
  185.1480  172.7900  137.7140 C   0  0  0  0  0  1  0  0  0  0  0  0
  185.0750  171.0950  135.8620 C   0  0  0  0  0  2  0  0  0  0  0  0
  183.5710  171.0200  135.6400 C   0  0  0  0  0  2  0  0  0  0  0  0
  183.1090  169.7250  135.8720 O   0  0  0  0  0  1  0  0  0  0  0  0
  186.6890  178.7170  140.2000 C   0  0  0  0  0  2  0  0  0  0  0  0
  186.7710  178.9740  141.7030 C   0  0  0  0  0  2  0  0  0  0  0  0
  186.0320  177.9120  142.5000 C   0  0  2  0  0  3  0  0  0  0  0  0
  184.5630  178.2980  142.5980 C   0  0  0  0  0  2  0  0  0  0  0  0
  184.3060  179.1090  143.8540 C   0  0  0  0  0  1  0  0  0  0  0  0
  186.6470  177.8340  143.8920 C   0  0  0  0  0  2  0  0  0  0  0  0
  188.9280  177.2440  144.7090 O   0  0  0  0  0  1  0  0  0  0  0  0
  187.8540  175.8980  143.1930 O   0  0  0  0  0  0  0  0  0  0  0  0
  187.8410  176.9420  143.9000 C   0  0  0  0  0  0  0  0  0  0  0  0
  185.9190  177.1620  136.9430 C   0  0  0  0  0  2  0  0  0  0  0  0
  184.9280  176.3860  137.5500 O   0  0  0  0  0  0  0  0  0  0  0  0
  183.9390  177.3010  137.9070 C   0  0  0  0  0  1  0  0  0  0  0  0
  2 14  1  1  0  0  0
  2  6  1  0  0  0  0
  3  1  1  6  0  0  0
  3  5  1  0  0  0  0
  4  2  1  0  0  0  0
  4  1  1  1  0  0  0
  5 12  1  0  0  0  0
  5 26  1  1  0  0  0
  7  4  1  0  0  0  0
  7 18  1  1  0  0  0
  7 11  1  0  0  0  0
  9  6  1  6  0  0  0
  9 10  1  0  0  0  0
  9  8  1  0  0  0  0
 10  8  1  1  0  0  0
 11 35  1  6  0  0  0
 11  3  1  0  0  0  0
 12 10  1  0  0  0  0
 14 13  1  1  0  0  0
 15 14  1  0  0  0  0
 17 16  1  0  0  0  0
 17 19  1  1  0  0  0
 17 18  1  0  0  0  0
 18 16  1  6  0  0  0
 19 21  1  0  0  0  0
 20 19  2  0  0  0  0
 21 22  1  1  0  0  0
 23 21  1  0  0  0  0
 24 23  1  0  0  0  0
 24 25  1  0  0  0  0
 26 27  1  0  0  0  0
 28 27  1  6  0  0  0
 28 29  1  0  0  0  0
 28 31  1  0  0  0  0
 29 30  1  0  0  0  0
 31 34  1  0  0  0  0
 33 34  2  0  0  0  0
 34 32  1  0  0  0  0
 35 36  1  0  0  0  0
 36 37  1  0  0  0  0
M  END
>  <MODEL>
5

>  <REMARK>
 VINA RESULT:      -5.3      2.595      8.199
  Name = 
  14 active torsions:
  status: ('A' for Active; 'I' for Inactive)
    1  A    between atoms: C_1  and  C_5
    2  A    between atoms: C_1  and  C_23
    3  A    between atoms: C_2  and  C_6
    4  A    between atoms: C_5  and  C_26
    5  A    between atoms: C_6  and  C_8
    6  A    between atoms: C_6  and  C_31
    7  A    between atoms: C_7  and  C_14
    8  A    between atoms: C_7  and  C_31
    9  A    between atoms: C_8  and  C_19
   10  A    between atoms: C_9  and  C_30
   11  A    between atoms: C_11  and  C_26
   12  A    between atoms: C_20  and  C_25
   13  A    between atoms: O_27  and  C_33
   14  A    between atoms: C_29  and  C_33
                            x       y       z     vdW  Elec       q    Type
                         _______ _______ _______ _____ _____    ______ ____

>  <TORSDO>
F 14

$$$$
=
 OpenBabel10262423073D

 37 40  0  0  1  0  0  0  0  0999 V2000
  186.7440  178.7450  137.2920 C   0  0  0  0  0  2  0  0  0  0  0  0
  188.2580  176.7190  136.8600 C   0  0  2  0  0  3  0  0  0  0  0  0
  185.5890  178.5720  138.2720 C   0  0  2  0  0  3  0  0  0  0  0  0
  186.9210  177.4290  136.5490 C   0  0  1  0  0  3  0  0  0  0  0  0
  186.0880  178.7450  139.7150 C   0  0  2  0  0  3  0  0  0  0  0  0
  188.4850  176.4100  138.3510 C   0  0  0  0  0  2  0  0  0  0  0  0
  185.6530  176.6090  136.7970 C   0  0  2  0  0  3  0  0  0  0  0  0
  189.2060  177.1950  140.5880 C   0  0  0  0  0  2  0  0  0  0  0  0
  189.1330  177.5640  139.1200 C   0  0  2  0  0  3  0  0  0  0  0  0
  188.2100  178.2440  140.1360 C   0  0  1  0  0  3  0  0  0  0  0  0
  184.9800  177.1960  138.0240 C   0  0  2  0  0  3  0  0  0  0  0  0
  186.9230  177.6960  140.1170 O   0  0  0  0  0  0  0  0  0  0  0  0
  190.6020  176.3970  136.0210 C   0  0  0  0  0  1  0  0  0  0  0  0
  189.4570  177.3810  136.1670 C   0  0  1  0  0  3  0  0  0  0  0  0
  189.0920  177.8350  134.8980 O   0  0  0  0  0  1  0  0  0  0  0  0
  186.3870  174.5840  135.7530 O   0  0  0  0  0  0  0  0  0  0  0  0
  185.0140  174.3730  135.9810 C   0  0  2  0  0  3  0  0  0  0  0  0
  185.8660  175.1060  136.9480 C   0  0  2  0  0  3  0  0  0  0  0  0
  184.7830  172.9670  136.4410 C   0  0  0  0  0  0  0  0  0  0  0  0
  185.6760  172.0230  136.1230 C   0  0  0  0  0  2  0  0  0  0  0  0
  183.4640  172.6030  137.0720 C   0  0  2  0  0  3  0  0  0  0  0  0
  183.1390  171.1370  136.8310 C   0  0  0  0  0  1  0  0  0  0  0  0
  182.3420  173.5050  136.5710 C   0  0  0  0  0  2  0  0  0  0  0  0
  181.1290  173.4340  137.4870 C   0  0  0  0  0  2  0  0  0  0  0  0
  180.9810  174.6290  138.1920 O   0  0  0  0  0  1  0  0  0  0  0  0
  184.9670  178.9950  140.7330 C   0  0  0  0  0  2  0  0  0  0  0  0
  185.0450  178.1290  141.9880 C   0  0  0  0  0  2  0  0  0  0  0  0
  185.6740  178.8760  143.1520 C   0  0  2  0  0  3  0  0  0  0  0  0
  186.1270  177.8690  144.2010 C   0  0  0  0  0  2  0  0  0  0  0  0
  187.3660  177.1300  143.7340 C   0  0  0  0  0  1  0  0  0  0  0  0
  184.6330  179.8160  143.7450 C   0  0  0  0  0  2  0  0  0  0  0  0
  182.5790  178.4230  143.9830 O   0  0  0  0  0  0  0  0  0  0  0  0
  183.8090  179.0010  145.8300 O   0  0  0  0  0  1  0  0  0  0  0  0
  183.6510  179.0690  144.5810 C   0  0  0  0  0  0  0  0  0  0  0  0
  183.4700  177.2900  137.8220 C   0  0  0  0  0  2  0  0  0  0  0  0
  182.7970  177.2660  139.0460 O   0  0  0  0  0  0  0  0  0  0  0  0
  181.7550  178.1790  138.8890 C   0  0  0  0  0  1  0  0  0  0  0  0
  2 14  1  1  0  0  0
  2  6  1  0  0  0  0
  3  1  1  6  0  0  0
  3  5  1  0  0  0  0
  4  7  1  0  0  0  0
  4  2  1  0  0  0  0
  4  1  1  1  0  0  0
  5 12  1  0  0  0  0
  5 26  1  1  0  0  0
  7 18  1  1  0  0  0
  7 11  1  0  0  0  0
  9  6  1  6  0  0  0
  9 10  1  0  0  0  0
  9  8  1  0  0  0  0
 10  8  1  1  0  0  0
 11 35  1  6  0  0  0
 11  3  1  0  0  0  0
 12 10  1  0  0  0  0
 14 13  1  6  0  0  0
 15 14  1  0  0  0  0
 16 17  1  0  0  0  0
 17 19  1  1  0  0  0
 17 18  1  0  0  0  0
 18 16  1  6  0  0  0
 19 21  1  0  0  0  0
 20 19  2  0  0  0  0
 21 22  1  6  0  0  0
 23 21  1  0  0  0  0
 23 24  1  0  0  0  0
 24 25  1  0  0  0  0
 26 27  1  0  0  0  0
 28 27  1  6  0  0  0
 28 31  1  0  0  0  0
 28 29  1  0  0  0  0
 30 29  1  0  0  0  0
 31 34  1  0  0  0  0
 32 34  2  0  0  0  0
 34 33  1  0  0  0  0
 35 36  1  0  0  0  0
 37 36  1  0  0  0  0
M  END
>  <MODEL>
6

>  <REMARK>
 VINA RESULT:      -5.1      3.908      8.873
  Name = 
  14 active torsions:
  status: ('A' for Active; 'I' for Inactive)
    1  A    between atoms: C_1  and  C_5
    2  A    between atoms: C_1  and  C_23
    3  A    between atoms: C_2  and  C_6
    4  A    between atoms: C_5  and  C_26
    5  A    between atoms: C_6  and  C_8
    6  A    between atoms: C_6  and  C_31
    7  A    between atoms: C_7  and  C_14
    8  A    between atoms: C_7  and  C_31
    9  A    between atoms: C_8  and  C_19
   10  A    between atoms: C_9  and  C_30
   11  A    between atoms: C_11  and  C_26
   12  A    between atoms: C_20  and  C_25
   13  A    between atoms: O_27  and  C_33
   14  A    between atoms: C_29  and  C_33
                            x       y       z     vdW  Elec       q    Type
                         _______ _______ _______ _____ _____    ______ ____

>  <TORSDO>
F 14

$$$$
=
 OpenBabel10262423073D

 37 40  0  0  1  0  0  0  0  0999 V2000
  183.0880  179.2050  138.6970 C   0  0  0  0  0  2  0  0  0  0  0  0
  182.0980  178.3930  140.9210 C   0  0  2  0  0  3  0  0  0  0  0  0
  184.3600  178.5280  138.1980 C   0  0  2  0  0  3  0  0  0  0  0  0
  183.1630  179.2640  140.2160 C   0  0  1  0  0  3  0  0  0  0  0  0
  184.0130  177.2210  137.4680 C   0  0  2  0  0  3  0  0  0  0  0  0
  182.1410  176.9020  140.5430 C   0  0  0  0  0  2  0  0  0  0  0  0
  184.6180  178.9840  140.5970 C   0  0  2  0  0  3  0  0  0  0  0  0
  181.5210  175.1050  138.9520 C   0  0  0  0  0  2  0  0  0  0  0  0
  181.3190  176.5670  139.2950 C   0  0  2  0  0  3  0  0  0  0  0  0
  182.1550  176.1670  138.0760 C   0  0  1  0  0  3  0  0  0  0  0  0
  185.2640  178.3030  139.4050 C   0  0  2  0  0  3  0  0  0  0  0  0
  183.5280  176.2400  138.3400 O   0  0  0  0  0  0  0  0  0  0  0  0
  179.8420  178.5050  142.0170 C   0  0  0  0  0  1  0  0  0  0  0  0
  180.6950  179.0150  140.8700 C   0  0  1  0  0  3  0  0  0  0  0  0
  180.7780  180.4050  140.9580 O   0  0  0  0  0  1  0  0  0  0  0  0
  184.2840  178.8770  142.9650 O   0  0  0  0  0  0  0  0  0  0  0  0
  185.6850  178.9110  142.8170 C   0  0  2  0  0  3  0  0  0  0  0  0
  184.8150  178.1710  141.8730 C   0  0  2  0  0  3  0  0  0  0  0  0
  186.3230  177.9720  143.7940 C   0  0  0  0  0  0  0  0  0  0  0  0
  187.1690  177.0400  143.3430 C   0  0  0  0  0  2  0  0  0  0  0  0
  185.8510  177.9620  145.2240 C   0  0  2  0  0  3  0  0  0  0  0  0
  185.3380  179.3350  145.6310 C   0  0  0  0  0  1  0  0  0  0  0  0
  186.9500  177.4840  146.1680 C   0  0  0  0  0  2  0  0  0  0  0  0
  186.9270  178.2600  147.4770 C   0  0  0  0  0  2  0  0  0  0  0  0
  187.8280  177.7070  148.3860 O   0  0  0  0  0  1  0  0  0  0  0  0
  185.1490  176.6820  136.5880 C   0  0  0  0  0  2  0  0  0  0  0  0
  184.8650  175.3260  135.9460 C   0  0  0  0  0  2  0  0  0  0  0  0
  186.0530  174.3870  136.0560 C   0  0  2  0  0  3  0  0  0  0  0  0
  185.5590  173.0080  136.4700 C   0  0  0  0  0  2  0  0  0  0  0  0
  185.1100  173.0130  137.9180 C   0  0  0  0  0  1  0  0  0  0  0  0
  187.0100  174.9370  137.1060 C   0  0  0  0  0  2  0  0  0  0  0  0
  188.6730  175.6560  135.3920 O   0  0  0  0  0  0  0  0  0  0  0  0
  189.3460  174.4640  137.2330 O   0  0  0  0  0  1  0  0  0  0  0  0
  188.4050  174.9940  136.5820 C   0  0  0  0  0  0  0  0  0  0  0  0
  186.6650  178.8570  139.1560 C   0  0  0  0  0  2  0  0  0  0  0  0
  187.6060  177.8270  139.0790 O   0  0  0  0  0  0  0  0  0  0  0  0
  188.5670  178.1600  140.0320 C   0  0  0  0  0  1  0  0  0  0  0  0
  2 14  1  6  0  0  0
  3  1  1  1  0  0  0
  3 11  1  0  0  0  0
  4  1  1  6  0  0  0
  4  7  1  0  0  0  0
  4  2  1  0  0  0  0
  5 26  1  1  0  0  0
  5  3  1  0  0  0  0
  5 12  1  0  0  0  0
  6  2  1  0  0  0  0
  7 18  1  1  0  0  0
  9  8  1  1  0  0  0
  9  6  1  0  0  0  0
 10 12  1  0  0  0  0
 10  8  1  1  0  0  0
 10  9  1  0  0  0  0
 11 35  1  6  0  0  0
 11  7  1  0  0  0  0
 14 15  1  0  0  0  0
 14 13  1  1  0  0  0
 17 16  1  0  0  0  0
 17 19  1  1  0  0  0
 18 17  1  0  0  0  0
 18 16  1  1  0  0  0
 19 21  1  0  0  0  0
 20 19  2  0  0  0  0
 21 22  1  1  0  0  0
 21 23  1  0  0  0  0
 23 24  1  0  0  0  0
 24 25  1  0  0  0  0
 27 26  1  0  0  0  0
 28 27  1  1  0  0  0
 28 29  1  0  0  0  0
 28 31  1  0  0  0  0
 29 30  1  0  0  0  0
 32 34  2  0  0  0  0
 34 31  1  0  0  0  0
 34 33  1  0  0  0  0
 36 35  1  0  0  0  0
 36 37  1  0  0  0  0
M  END
>  <MODEL>
7

>  <REMARK>
 VINA RESULT:      -5.0      4.091      6.724
  Name = 
  14 active torsions:
  status: ('A' for Active; 'I' for Inactive)
    1  A    between atoms: C_1  and  C_5
    2  A    between atoms: C_1  and  C_23
    3  A    between atoms: C_2  and  C_6
    4  A    between atoms: C_5  and  C_26
    5  A    between atoms: C_6  and  C_8
    6  A    between atoms: C_6  and  C_31
    7  A    between atoms: C_7  and  C_14
    8  A    between atoms: C_7  and  C_31
    9  A    between atoms: C_8  and  C_19
   10  A    between atoms: C_9  and  C_30
   11  A    between atoms: C_11  and  C_26
   12  A    between atoms: C_20  and  C_25
   13  A    between atoms: O_27  and  C_33
   14  A    between atoms: C_29  and  C_33
                            x       y       z     vdW  Elec       q    Type
                         _______ _______ _______ _____ _____    ______ ____

>  <TORSDO>
F 14

$$$$
=
 OpenBabel10262423073D

 37 40  0  0  1  0  0  0  0  0999 V2000
  189.0560  178.7130  138.2750 C   0  0  0  0  0  2  0  0  0  0  0  0
  190.1290  176.4430  137.7480 C   0  0  2  0  0  3  0  0  0  0  0  0
  187.7750  178.7170  139.1020 C   0  0  2  0  0  3  0  0  0  0  0  0
  189.0310  177.4720  137.3940 C   0  0  1  0  0  3  0  0  0  0  0  0
  188.1100  178.6240  140.5990 C   0  0  2  0  0  3  0  0  0  0  0  0
  190.0890  175.9420  139.2020 C   0  0  0  0  0  2  0  0  0  0  0  0
  187.5940  176.9510  137.4060 C   0  0  2  0  0  3  0  0  0  0  0  0
  190.6730  176.3100  141.5830 C   0  0  0  0  0  2  0  0  0  0  0  0
  190.8720  176.8310  140.1730 C   0  0  2  0  0  3  0  0  0  0  0  0
  189.9990  177.6020  141.1670 C   0  0  1  0  0  3  0  0  0  0  0  0
  186.9140  177.5530  138.6220 C   0  0  2  0  0  3  0  0  0  0  0  0
  188.6350  177.3750  140.9480 O   0  0  0  0  0  0  0  0  0  0  0  0
  192.6030  176.2100  138.1030 C   0  0  0  0  0  1  0  0  0  0  0  0
  191.5230  176.8730  137.2690 C   0  0  1  0  0  3  0  0  0  0  0  0
  191.7070  176.5160  135.9320 O   0  0  0  0  0  1  0  0  0  0  0  0
  187.8680  174.9370  136.1410 O   0  0  0  0  0  0  0  0  0  0  0  0
  186.4770  175.0280  136.3430 C   0  0  2  0  0  3  0  0  0  0  0  0
  187.4490  175.4330  137.3860 C   0  0  2  0  0  3  0  0  0  0  0  0
  185.9160  173.6720  136.6410 C   0  0  0  0  0  0  0  0  0  0  0  0
  186.7390  172.6190  136.6740 C   0  0  0  0  0  2  0  0  0  0  0  0
  184.4210  173.4880  136.6970 C   0  0  2  0  0  3  0  0  0  0  0  0
  183.7870  174.5200  137.6170 C   0  0  0  0  0  1  0  0  0  0  0  0
  184.0530  172.0710  137.1230 C   0  0  0  0  0  2  0  0  0  0  0  0
  183.2550  171.3610  136.0380 C   0  0  0  0  0  2  0  0  0  0  0  0
  181.9110  171.7240  136.1060 O   0  0  0  0  0  1  0  0  0  0  0  0
  186.9510  179.0260  141.5200 C   0  0  0  0  0  2  0  0  0  0  0  0
  186.3850  177.8850  142.3620 C   0  0  0  0  0  2  0  0  0  0  0  0
  186.6950  178.0630  143.8390 C   0  0  2  0  0  3  0  0  0  0  0  0
  187.8160  177.1100  144.2280 C   0  0  0  0  0  2  0  0  0  0  0  0
  189.0080  177.8780  144.7670 C   0  0  0  0  0  1  0  0  0  0  0  0
  185.4380  177.7470  144.6390 C   0  0  0  0  0  2  0  0  0  0  0  0
  184.8240  180.1060  144.1130 O   0  0  0  0  0  0  0  0  0  0  0  0
  183.8100  179.0030  145.8500 O   0  0  0  0  0  1  0  0  0  0  0  0
  184.6510  178.9840  144.9110 C   0  0  0  0  0  0  0  0  0  0  0  0
  185.5010  178.0160  138.2810 C   0  0  0  0  0  2  0  0  0  0  0  0
  185.3120  179.3550  138.6330 O   0  0  0  0  0  0  0  0  0  0  0  0
  184.0470  179.3870  139.2180 C   0  0  0  0  0  1  0  0  0  0  0  0
  2 14  1  1  0  0  0
  2  6  1  0  0  0  0
  3  1  1  6  0  0  0
  3  5  1  0  0  0  0
  4  7  1  0  0  0  0
  4  2  1  0  0  0  0
  4  1  1  1  0  0  0
  5 12  1  0  0  0  0
  5 26  1  1  0  0  0
  7 18  1  1  0  0  0
  7 11  1  0  0  0  0
  9  6  1  6  0  0  0
  9 10  1  0  0  0  0
  9  8  1  0  0  0  0
 10  8  1  1  0  0  0
 11 35  1  6  0  0  0
 11  3  1  0  0  0  0
 12 10  1  0  0  0  0
 14 13  1  1  0  0  0
 15 14  1  0  0  0  0
 16 17  1  0  0  0  0
 17 19  1  1  0  0  0
 17 18  1  0  0  0  0
 18 16  1  6  0  0  0
 19 20  2  0  0  0  0
 19 21  1  0  0  0  0
 21 23  1  0  0  0  0
 21 22  1  1  0  0  0
 24 25  1  0  0  0  0
 24 23  1  0  0  0  0
 26 27  1  0  0  0  0
 28 27  1  6  0  0  0
 28 29  1  0  0  0  0
 28 31  1  0  0  0  0
 29 30  1  0  0  0  0
 31 34  1  0  0  0  0
 32 34  2  0  0  0  0
 34 33  1  0  0  0  0
 35 36  1  0  0  0  0
 36 37  1  0  0  0  0
M  END
>  <MODEL>
8

>  <REMARK>
 VINA RESULT:      -5.0      2.938      8.359
  Name = 
  14 active torsions:
  status: ('A' for Active; 'I' for Inactive)
    1  A    between atoms: C_1  and  C_5
    2  A    between atoms: C_1  and  C_23
    3  A    between atoms: C_2  and  C_6
    4  A    between atoms: C_5  and  C_26
    5  A    between atoms: C_6  and  C_8
    6  A    between atoms: C_6  and  C_31
    7  A    between atoms: C_7  and  C_14
    8  A    between atoms: C_7  and  C_31
    9  A    between atoms: C_8  and  C_19
   10  A    between atoms: C_9  and  C_30
   11  A    between atoms: C_11  and  C_26
   12  A    between atoms: C_20  and  C_25
   13  A    between atoms: O_27  and  C_33
   14  A    between atoms: C_29  and  C_33
                            x       y       z     vdW  Elec       q    Type
                         _______ _______ _______ _____ _____    ______ ____

>  <TORSDO>
F 14

$$$$
=
 OpenBabel10262423073D

 37 40  0  0  1  0  0  0  0  0999 V2000
  186.8870  178.6720  137.1470 C   0  0  0  0  0  2  0  0  0  0  0  0
  188.4360  176.6860  136.6590 C   0  0  2  0  0  3  0  0  0  0  0  0
  185.7590  178.4620  138.1520 C   0  0  2  0  0  3  0  0  0  0  0  0
  187.0760  177.3670  136.3870 C   0  0  1  0  0  3  0  0  0  0  0  0
  186.2880  178.6320  139.5850 C   0  0  2  0  0  3  0  0  0  0  0  0
  188.7050  176.3670  138.1400 C   0  0  0  0  0  2  0  0  0  0  0  0
  185.8330  176.5160  136.6550 C   0  0  2  0  0  3  0  0  0  0  0  0
  189.4600  177.1460  140.3680 C   0  0  0  0  0  2  0  0  0  0  0  0
  189.3450  177.5280  138.9060 C   0  0  2  0  0  3  0  0  0  0  0  0
  188.4310  178.1760  139.9500 C   0  0  1  0  0  3  0  0  0  0  0  0
  185.1760  177.0750  137.9030 C   0  0  2  0  0  3  0  0  0  0  0  0
  187.1560  177.5990  139.9550 O   0  0  0  0  0  0  0  0  0  0  0  0
  190.7630  176.4240  135.7530 C   0  0  0  0  0  1  0  0  0  0  0  0
  189.6030  177.3820  135.9440 C   0  0  1  0  0  3  0  0  0  0  0  0
  189.1950  177.8470  134.6930 O   0  0  0  0  0  1  0  0  0  0  0  0
  186.8350  174.5700  135.6860 O   0  0  0  0  0  0  0  0  0  0  0  0
  185.4530  174.2970  135.6530 C   0  0  2  0  0  3  0  0  0  0  0  0
  186.0830  175.0170  136.7850 C   0  0  2  0  0  3  0  0  0  0  0  0
  185.2080  172.8630  136.0100 C   0  0  0  0  0  0  0  0  0  0  0  0
  186.2460  172.0880  136.3400 C   0  0  0  0  0  2  0  0  0  0  0  0
  183.8390  172.2730  135.7970 C   0  0  2  0  0  3  0  0  0  0  0  0
  182.7680  173.3480  135.9100 C   0  0  0  0  0  1  0  0  0  0  0  0
  183.5720  171.1260  136.7650 C   0  0  0  0  0  2  0  0  0  0  0  0
  183.3720  169.8140  136.0210 C   0  0  0  0  0  2  0  0  0  0  0  0
  182.0980  169.7630  135.4570 O   0  0  0  0  0  1  0  0  0  0  0  0
  185.1860  178.8460  140.6300 C   0  0  0  0  0  2  0  0  0  0  0  0
  185.6960  179.0960  142.0480 C   0  0  0  0  0  2  0  0  0  0  0  0
  184.7300  178.5740  143.0980 C   0  0  2  0  0  3  0  0  0  0  0  0
  183.3150  178.6260  142.5390 C   0  0  0  0  0  2  0  0  0  0  0  0
  182.3250  179.0010  143.6240 C   0  0  0  0  0  1  0  0  0  0  0  0
  184.8370  179.4560  144.3360 C   0  0  0  0  0  2  0  0  0  0  0  0
  185.4560  179.2500  146.7430 O   0  0  0  0  0  1  0  0  0  0  0  0
  186.0530  177.6170  145.2480 O   0  0  0  0  0  0  0  0  0  0  0  0
  185.4910  178.7250  145.4580 C   0  0  0  0  0  0  0  0  0  0  0  0
  183.6600  177.1360  137.7380 C   0  0  0  0  0  2  0  0  0  0  0  0
  183.0490  176.0020  138.2800 O   0  0  0  0  0  0  0  0  0  0  0  0
  182.4300  176.4600  139.4410 C   0  0  0  0  0  1  0  0  0  0  0  0
  2 14  1  1  0  0  0
  2  6  1  0  0  0  0
  3  1  1  6  0  0  0
  3  5  1  0  0  0  0
  4  7  1  0  0  0  0
  4  2  1  0  0  0  0
  4  1  1  1  0  0  0
  5 12  1  0  0  0  0
  5 26  1  1  0  0  0
  7 18  1  1  0  0  0
  7 11  1  0  0  0  0
  9  6  1  6  0  0  0
  9 10  1  0  0  0  0
  9  8  1  0  0  0  0
 10 12  1  0  0  0  0
 10  8  1  1  0  0  0
 11 35  1  6  0  0  0
 11  3  1  0  0  0  0
 14 13  1  6  0  0  0
 15 14  1  0  0  0  0
 17 16  1  0  0  0  0
 17 19  1  1  0  0  0
 17 18  1  0  0  0  0
 18 16  1  6  0  0  0
 19 20  2  0  0  0  0
 21 22  1  1  0  0  0
 21 19  1  0  0  0  0
 21 23  1  0  0  0  0
 24 23  1  0  0  0  0
 25 24  1  0  0  0  0
 26 27  1  0  0  0  0
 28 27  1  6  0  0  0
 28 31  1  0  0  0  0
 29 28  1  0  0  0  0
 29 30  1  0  0  0  0
 31 34  1  0  0  0  0
 33 34  2  0  0  0  0
 34 32  1  0  0  0  0
 35 36  1  0  0  0  0
 36 37  1  0  0  0  0
M  END
>  <MODEL>
9

>  <REMARK>
 VINA RESULT:      -4.9      3.914      9.110
  Name = 
  14 active torsions:
  status: ('A' for Active; 'I' for Inactive)
    1  A    between atoms: C_1  and  C_5
    2  A    between atoms: C_1  and  C_23
    3  A    between atoms: C_2  and  C_6
    4  A    between atoms: C_5  and  C_26
    5  A    between atoms: C_6  and  C_8
    6  A    between atoms: C_6  and  C_31
    7  A    between atoms: C_7  and  C_14
    8  A    between atoms: C_7  and  C_31
    9  A    between atoms: C_8  and  C_19
   10  A    between atoms: C_9  and  C_30
   11  A    between atoms: C_11  and  C_26
   12  A    between atoms: C_20  and  C_25
   13  A    between atoms: O_27  and  C_33
   14  A    between atoms: C_29  and  C_33
                            x       y       z     vdW  Elec       q    Type
                         _______ _______ _______ _____ _____    ______ ____

>  <TORSDO>
F 14

$$$$
