=
 OpenBabel10262419453D

 25 28  0  0  1  0  0  0  0  0999 V2000
  184.2140  178.4180  142.8180 C   0  0  0  0  0  0  0  0  0  0  0  0
  185.3170  178.2690  143.6630 C   0  0  0  0  0  0  0  0  0  0  0  0
  182.8010  179.0300  144.6560 C   0  0  0  0  0  3  0  0  0  0  0  0
  184.0630  178.1600  141.3600 C   0  0  1  0  0  3  0  0  0  0  0  0
  183.0000  179.3470  138.9590 C   0  0  0  0  0  3  0  0  0  0  0  0
  183.8700  178.8940  145.4900 N   0  0  0  0  0  0  0  0  0  0  0  0
  182.6160  178.5450  141.1870 C   0  0  0  0  0  0  0  0  0  0  0  0
  182.1120  178.9050  139.8590 C   0  0  0  0  0  3  0  0  0  0  0  0
  186.1870  178.2460  146.0830 C   0  0  2  0  0  3  0  0  0  0  0  0
  186.2140  179.3260  147.1490 C   0  0  0  0  0  1  0  0  0  0  0  0
  186.9090  177.7780  142.9730 S   0  0  0  0  0  0  0  0  0  0  0  0
  184.4330  179.5130  139.3210 C   0  0  0  0  0  3  0  0  0  0  0  0
  182.9840  178.7690  143.3060 C   0  0  0  0  0  0  0  0  0  0  0  0
  182.0090  178.8830  142.2810 N   0  0  0  0  0  0  0  0  0  0  0  0
  187.5250  178.1080  145.5160 N   0  0  0  0  0  2  0  0  0  0  0  0
  184.9250  179.0190  140.4700 C   0  0  0  0  0  3  0  0  0  0  0  0
  187.4970  177.0500  144.5200 C   0  0  2  0  0  3  0  0  0  0  0  0
  185.1190  178.5370  145.0460 C   0  0  0  0  0  0  0  0  0  0  0  0
  188.8390  176.5250  144.3240 N   0  0  0  0  0  2  0  0  0  0  0  0
  190.0030  177.3550  144.3760 C   0  0  0  0  0  0  0  0  0  0  0  0
  189.8960  178.5810  144.6500 O   0  0  0  0  0  0  0  0  0  0  0  0
  191.9670  176.5410  145.3960 F   0  0  0  0  0  0  0  0  0  0  0  0
  191.3550  176.7500  144.1730 C   0  0  0  0  0  0  0  0  0  0  0  0
  192.1310  177.6060  143.4170 F   0  0  0  0  0  0  0  0  0  0  0  0
  191.2410  175.5370  143.5170 F   0  0  0  0  0  0  0  0  0  0  0  0
  1 13  2  0  0  0  0
  1  2  1  0  0  0  0
  2 18  2  0  0  0  0
  3  6  2  0  0  0  0
  4 16  1  6  0  0  0
  4  1  1  0  0  0  0
  5 12  1  0  0  0  0
  5  8  2  0  0  0  0
  7  4  1  0  0  0  0
  7 14  2  0  0  0  0
  8  7  1  0  0  0  0
  9 10  1  1  0  0  0
 11  2  1  0  0  0  0
 11 17  1  0  0  0  0
 12 16  2  0  0  0  0
 13  3  1  0  0  0  0
 14 13  1  0  0  0  0
 15  9  1  0  0  0  0
 17 19  1  6  0  0  0
 17 15  1  0  0  0  0
 18  6  1  0  0  0  0
 18  9  1  0  0  0  0
 19 20  1  0  0  0  0
 20 21  2  0  0  0  0
 23 20  1  0  0  0  0
 23 22  1  0  0  0  0
 24 23  1  0  0  0  0
 25 23  1  0  0  0  0
M  END
>  <MODEL>
1

>  <REMARK>
 VINA RESULT:      -9.1      0.000      0.000
  Name = 
  2 active torsions:
  status: ('A' for Active; 'I' for Inactive)
    1  A    between atoms: N_6  and  C_23
    2  A    between atoms: C_7  and  C_15
                            x       y       z     vdW  Elec       q    Type
                         _______ _______ _______ _____ _____    ______ ____

>  <TORSDO>
F 2

$$$$
=
 OpenBabel10262419453D

 25 28  0  0  1  0  0  0  0  0999 V2000
  188.2380  177.7600  144.6700 C   0  0  0  0  0  0  0  0  0  0  0  0
  187.0130  178.1120  144.0980 C   0  0  0  0  0  0  0  0  0  0  0  0
  187.3810  178.0910  146.8840 C   0  0  0  0  0  3  0  0  0  0  0  0
  189.5450  177.4280  144.0400 C   0  0  1  0  0  3  0  0  0  0  0  0
  191.6870  175.5040  144.1700 C   0  0  0  0  0  3  0  0  0  0  0  0
  186.1790  178.4320  146.3400 N   0  0  0  0  0  0  0  0  0  0  0  0
  190.3600  177.1660  145.2800 C   0  0  0  0  0  0  0  0  0  0  0  0
  191.5830  176.3630  145.1930 C   0  0  0  0  0  3  0  0  0  0  0  0
  184.6330  179.0060  144.4910 C   0  0  2  0  0  3  0  0  0  0  0  0
  183.4710  178.4460  145.2910 C   0  0  0  0  0  1  0  0  0  0  0  0
  186.8310  178.1090  142.3040 S   0  0  0  0  0  0  0  0  0  0  0  0
  190.5750  175.3410  143.1960 C   0  0  0  0  0  3  0  0  0  0  0  0
  188.4220  177.7700  146.0260 C   0  0  0  0  0  0  0  0  0  0  0  0
  189.7300  177.3630  146.3960 N   0  0  0  0  0  0  0  0  0  0  0  0
  184.3920  178.7580  143.0720 N   0  0  0  0  0  2  0  0  0  0  0  0
  189.5380  176.1960  143.1700 C   0  0  0  0  0  3  0  0  0  0  0  0
  185.4930  179.3260  142.3120 C   0  0  2  0  0  3  0  0  0  0  0  0
  185.9510  178.4430  144.9870 C   0  0  0  0  0  0  0  0  0  0  0  0
  185.0660  179.5790  140.9450 N   0  0  0  0  0  2  0  0  0  0  0  0
  184.1890  178.6970  140.2400 C   0  0  0  0  0  0  0  0  0  0  0  0
  183.7120  177.6820  140.8150 O   0  0  0  0  0  0  0  0  0  0  0  0
  184.6920  178.4790  137.9460 F   0  0  0  0  0  0  0  0  0  0  0  0
  183.7820  179.0200  138.8370 C   0  0  0  0  0  0  0  0  0  0  0  0
  183.7480  180.3920  138.6750 F   0  0  0  0  0  0  0  0  0  0  0  0
  182.5290  178.4980  138.5720 F   0  0  0  0  0  0  0  0  0  0  0  0
  1 13  1  0  0  0  0
  2  1  2  0  0  0  0
  2 18  1  0  0  0  0
  4 16  1  6  0  0  0
  4  1  1  0  0  0  0
  4  7  1  0  0  0  0
  5  8  2  0  0  0  0
  6  3  1  0  0  0  0
  7 14  2  0  0  0  0
  8  7  1  0  0  0  0
  9 18  1  0  0  0  0
  9 10  1  1  0  0  0
 11 17  1  0  0  0  0
 11  2  1  0  0  0  0
 12  5  1  0  0  0  0
 13 14  1  0  0  0  0
 13  3  2  0  0  0  0
 15  9  1  0  0  0  0
 16 12  2  0  0  0  0
 17 19  1  6  0  0  0
 17 15  1  0  0  0  0
 18  6  2  0  0  0  0
 20 21  2  0  0  0  0
 20 19  1  0  0  0  0
 22 23  1  0  0  0  0
 23 20  1  0  0  0  0
 24 23  1  0  0  0  0
 25 23  1  0  0  0  0
M  END
>  <MODEL>
2

>  <REMARK>
 VINA RESULT:      -8.5      3.993      7.046
  Name = 
  2 active torsions:
  status: ('A' for Active; 'I' for Inactive)
    1  A    between atoms: N_6  and  C_23
    2  A    between atoms: C_7  and  C_15
                            x       y       z     vdW  Elec       q    Type
                         _______ _______ _______ _____ _____    ______ ____

>  <TORSDO>
F 2

$$$$
=
 OpenBabel10262419453D

 25 28  0  0  1  0  0  0  0  0999 V2000
  186.1670  178.4270  141.0890 C   0  0  0  0  0  0  0  0  0  0  0  0
  186.9360  177.9560  142.1570 C   0  0  0  0  0  0  0  0  0  0  0  0
  187.9470  178.0210  139.5360 C   0  0  0  0  0  3  0  0  0  0  0  0
  184.8070  179.0300  141.0620 C   0  0  1  0  0  3  0  0  0  0  0  0
  182.3060  178.8900  139.6380 C   0  0  0  0  0  3  0  0  0  0  0  0
  188.7060  177.5550  140.5680 N   0  0  0  0  0  0  0  0  0  0  0  0
  184.6730  179.2760  139.5810 C   0  0  0  0  0  0  0  0  0  0  0  0
  183.3430  179.4330  138.9870 C   0  0  0  0  0  3  0  0  0  0  0  0
  189.2360  177.1210  142.9490 C   0  0  2  0  0  3  0  0  0  0  0  0
  190.0570  175.9110  142.5440 C   0  0  0  0  0  1  0  0  0  0  0  0
  186.2380  177.9360  143.8200 S   0  0  0  0  0  0  0  0  0  0  0  0
  182.5140  178.1140  140.8900 C   0  0  0  0  0  3  0  0  0  0  0  0
  186.6680  178.4770  139.8170 C   0  0  0  0  0  0  0  0  0  0  0  0
  185.7200  178.9690  138.8830 N   0  0  0  0  0  0  0  0  0  0  0  0
  188.6070  176.8550  144.2390 N   0  0  0  0  0  2  0  0  0  0  0  0
  183.6980  178.1210  141.5270 C   0  0  0  0  0  3  0  0  0  0  0  0
  187.8490  178.0310  144.6340 C   0  0  2  0  0  3  0  0  0  0  0  0
  188.2480  177.4920  141.8590 C   0  0  0  0  0  0  0  0  0  0  0  0
  187.6590  178.0310  146.0750 N   0  0  0  0  0  2  0  0  0  0  0  0
  188.7490  177.9120  146.9930 C   0  0  0  0  0  0  0  0  0  0  0  0
  189.9350  177.8530  146.5670 O   0  0  0  0  0  0  0  0  0  0  0  0
  187.5060  178.8570  148.7590 F   0  0  0  0  0  0  0  0  0  0  0  0
  188.4850  177.9260  148.4650 C   0  0  0  0  0  0  0  0  0  0  0  0
  189.6460  178.2590  149.1360 F   0  0  0  0  0  0  0  0  0  0  0  0
  188.0570  176.6780  148.8840 F   0  0  0  0  0  0  0  0  0  0  0  0
  1  2  1  0  0  0  0
  2 11  1  0  0  0  0
  3 13  1  0  0  0  0
  3  6  2  0  0  0  0
  4  1  1  0  0  0  0
  4 16  1  6  0  0  0
  5 12  1  0  0  0  0
  6 18  1  0  0  0  0
  7  4  1  0  0  0  0
  8  7  1  0  0  0  0
  8  5  2  0  0  0  0
  9 10  1  6  0  0  0
  9 15  1  0  0  0  0
 11 17  1  0  0  0  0
 12 16  2  0  0  0  0
 13  1  2  0  0  0  0
 14  7  2  0  0  0  0
 14 13  1  0  0  0  0
 15 17  1  0  0  0  0
 17 19  1  1  0  0  0
 18  2  2  0  0  0  0
 18  9  1  0  0  0  0
 19 20  1  0  0  0  0
 20 23  1  0  0  0  0
 21 20  2  0  0  0  0
 23 22  1  0  0  0  0
 23 25  1  0  0  0  0
 23 24  1  0  0  0  0
M  END
>  <MODEL>
3

>  <REMARK>
 VINA RESULT:      -8.4      2.845      4.241
  Name = 
  2 active torsions:
  status: ('A' for Active; 'I' for Inactive)
    1  A    between atoms: N_6  and  C_23
    2  A    between atoms: C_7  and  C_15
                            x       y       z     vdW  Elec       q    Type
                         _______ _______ _______ _____ _____    ______ ____

>  <TORSDO>
F 2

$$$$
=
 OpenBabel10262419453D

 25 28  0  0  1  0  0  0  0  0999 V2000
  187.4230  177.8360  144.4750 C   0  0  0  0  0  0  0  0  0  0  0  0
  188.4780  177.8080  143.5590 C   0  0  0  0  0  0  0  0  0  0  0  0
  188.9400  177.7810  146.3300 C   0  0  0  0  0  3  0  0  0  0  0  0
  185.9500  177.8030  144.2630 C   0  0  1  0  0  3  0  0  0  0  0  0
  183.5210  179.0990  145.1110 C   0  0  0  0  0  3  0  0  0  0  0  0
  189.9780  177.7570  145.4480 N   0  0  0  0  0  0  0  0  0  0  0  0
  185.4910  177.8630  145.6970 C   0  0  0  0  0  0  0  0  0  0  0  0
  184.1330  178.3150  146.0090 C   0  0  0  0  0  3  0  0  0  0  0  0
  191.0150  177.5770  143.2050 C   0  0  2  0  0  3  0  0  0  0  0  0
  192.1750  178.4360  143.6740 C   0  0  0  0  0  1  0  0  0  0  0  0
  188.1260  177.8270  141.7900 S   0  0  0  0  0  0  0  0  0  0  0  0
  184.2220  179.5310  143.8730 C   0  0  0  0  0  3  0  0  0  0  0  0
  187.6490  177.8020  145.8240 C   0  0  0  0  0  0  0  0  0  0  0  0
  186.4460  177.8590  146.5740 N   0  0  0  0  0  0  0  0  0  0  0  0
  190.7630  177.8540  141.7940 N   0  0  0  0  0  2  0  0  0  0  0  0
  185.3890  178.9780  143.5030 C   0  0  0  0  0  3  0  0  0  0  0  0
  189.6730  177.0040  141.3450 C   0  0  2  0  0  3  0  0  0  0  0  0
  189.7990  177.7830  144.0880 C   0  0  0  0  0  0  0  0  0  0  0  0
  189.7350  176.8480  139.9010 N   0  0  0  0  0  2  0  0  0  0  0  0
  189.3670  177.8960  138.9990 C   0  0  0  0  0  0  0  0  0  0  0  0
  189.0180  179.0230  139.4440 O   0  0  0  0  0  0  0  0  0  0  0  0
  190.6870  177.1110  137.2100 F   0  0  0  0  0  0  0  0  0  0  0  0
  189.4620  177.6720  137.5240 C   0  0  0  0  0  0  0  0  0  0  0  0
  189.3340  178.8810  136.8680 F   0  0  0  0  0  0  0  0  0  0  0  0
  188.4580  176.8170  137.1060 F   0  0  0  0  0  0  0  0  0  0  0  0
  1 13  1  0  0  0  0
  2 18  1  0  0  0  0
  2  1  2  0  0  0  0
  4 16  1  6  0  0  0
  4  1  1  0  0  0  0
  4  7  1  0  0  0  0
  5  8  2  0  0  0  0
  6  3  1  0  0  0  0
  7  8  1  0  0  0  0
  7 14  2  0  0  0  0
  9 10  1  1  0  0  0
  9 18  1  0  0  0  0
 11  2  1  0  0  0  0
 12  5  1  0  0  0  0
 13  3  2  0  0  0  0
 13 14  1  0  0  0  0
 15  9  1  0  0  0  0
 16 12  2  0  0  0  0
 17 19  1  6  0  0  0
 17 11  1  0  0  0  0
 17 15  1  0  0  0  0
 18  6  2  0  0  0  0
 20 21  2  0  0  0  0
 20 19  1  0  0  0  0
 22 23  1  0  0  0  0
 23 20  1  0  0  0  0
 24 23  1  0  0  0  0
 25 23  1  0  0  0  0
M  END
>  <MODEL>
4

>  <REMARK>
 VINA RESULT:      -8.4      3.717      5.545
  Name = 
  2 active torsions:
  status: ('A' for Active; 'I' for Inactive)
    1  A    between atoms: N_6  and  C_23
    2  A    between atoms: C_7  and  C_15
                            x       y       z     vdW  Elec       q    Type
                         _______ _______ _______ _____ _____    ______ ____

>  <TORSDO>
F 2

$$$$
=
 OpenBabel10262419453D

 25 28  0  0  1  0  0  0  0  0999 V2000
  184.4300  178.7130  143.5650 C   0  0  0  0  0  0  0  0  0  0  0  0
  184.2260  178.5660  142.1900 C   0  0  0  0  0  0  0  0  0  0  0  0
  182.0740  178.8940  143.9660 C   0  0  0  0  0  3  0  0  0  0  0  0
  185.6860  178.8140  144.3560 C   0  0  1  0  0  3  0  0  0  0  0  0
  186.9400  177.7830  146.7370 C   0  0  0  0  0  3  0  0  0  0  0  0
  181.8600  178.7470  142.6280 N   0  0  0  0  0  0  0  0  0  0  0  0
  185.1000  178.9540  145.7370 C   0  0  0  0  0  0  0  0  0  0  0  0
  185.9150  178.6280  146.9110 C   0  0  0  0  0  3  0  0  0  0  0  0
  182.5380  178.5940  140.2500 C   0  0  2  0  0  3  0  0  0  0  0  0
  181.3260  177.7250  139.9630 C   0  0  0  0  0  1  0  0  0  0  0  0
  185.6440  178.3590  141.0940 S   0  0  0  0  0  0  0  0  0  0  0  0
  187.2000  177.1640  145.4100 C   0  0  0  0  0  3  0  0  0  0  0  0
  183.3820  178.8940  144.4260 C   0  0  0  0  0  0  0  0  0  0  0  0
  183.8060  179.0030  145.7760 N   0  0  0  0  0  0  0  0  0  0  0  0
  183.6380  178.1670  139.3910 N   0  0  0  0  0  2  0  0  0  0  0  0
  186.5720  177.5950  144.3030 C   0  0  0  0  0  3  0  0  0  0  0  0
  184.7840  179.0250  139.6500 C   0  0  2  0  0  3  0  0  0  0  0  0
  182.8800  178.5710  141.7270 C   0  0  0  0  0  0  0  0  0  0  0  0
  185.6800  179.0030  138.5050 N   0  0  0  0  0  2  0  0  0  0  0  0
  185.8220  177.8560  137.6630 C   0  0  0  0  0  0  0  0  0  0  0  0
  185.1200  176.8290  137.8650 O   0  0  0  0  0  0  0  0  0  0  0  0
  187.6650  176.8630  136.5780 F   0  0  0  0  0  0  0  0  0  0  0  0
  186.7570  177.9030  136.4970 C   0  0  0  0  0  0  0  0  0  0  0  0
  187.4400  179.1040  136.5060 F   0  0  0  0  0  0  0  0  0  0  0  0
  186.0500  177.7890  135.3130 F   0  0  0  0  0  0  0  0  0  0  0  0
  1  4  1  0  0  0  0
  1 13  1  0  0  0  0
  2  1  2  0  0  0  0
  3 13  2  0  0  0  0
  4 16  1  1  0  0  0
  4  7  1  0  0  0  0
  5  8  2  0  0  0  0
  6  3  1  0  0  0  0
  7 14  2  0  0  0  0
  7  8  1  0  0  0  0
  9 10  1  1  0  0  0
  9 18  1  0  0  0  0
 11  2  1  0  0  0  0
 12  5  1  0  0  0  0
 13 14  1  0  0  0  0
 15 17  1  0  0  0  0
 15  9  1  0  0  0  0
 16 12  2  0  0  0  0
 17 19  1  6  0  0  0
 17 11  1  0  0  0  0
 18  2  1  0  0  0  0
 18  6  2  0  0  0  0
 20 21  2  0  0  0  0
 20 19  1  0  0  0  0
 23 24  1  0  0  0  0
 23 22  1  0  0  0  0
 23 20  1  0  0  0  0
 25 23  1  0  0  0  0
M  END
>  <MODEL>
5

>  <REMARK>
 VINA RESULT:      -8.4      3.958      6.494
  Name = 
  2 active torsions:
  status: ('A' for Active; 'I' for Inactive)
    1  A    between atoms: N_6  and  C_23
    2  A    between atoms: C_7  and  C_15
                            x       y       z     vdW  Elec       q    Type
                         _______ _______ _______ _____ _____    ______ ____

>  <TORSDO>
F 2

$$$$
=
 OpenBabel10262419453D

 25 28  0  0  1  0  0  0  0  0999 V2000
  188.9270  177.6850  144.6870 C   0  0  0  0  0  0  0  0  0  0  0  0
  188.3090  177.8800  143.4490 C   0  0  0  0  0  0  0  0  0  0  0  0
  186.8550  178.0100  145.8500 C   0  0  0  0  0  3  0  0  0  0  0  0
  190.3570  177.4710  145.0380 C   0  0  1  0  0  3  0  0  0  0  0  0
  192.0560  175.7960  146.6540 C   0  0  0  0  0  3  0  0  0  0  0  0
  186.2400  178.1980  144.6490 N   0  0  0  0  0  0  0  0  0  0  0  0
  190.2310  177.3480  146.5350 C   0  0  0  0  0  0  0  0  0  0  0  0
  191.2840  176.6790  147.3020 C   0  0  0  0  0  3  0  0  0  0  0  0
  186.1590  178.5270  142.1950 C   0  0  2  0  0  3  0  0  0  0  0  0
  184.7880  177.8780  142.1540 C   0  0  0  0  0  1  0  0  0  0  0  0
  189.2900  177.7860  141.9380 S   0  0  0  0  0  0  0  0  0  0  0  0
  191.8090  175.4750  145.2230 C   0  0  0  0  0  3  0  0  0  0  0  0
  188.2210  177.7690  145.8580 C   0  0  0  0  0  0  0  0  0  0  0  0
  189.0310  177.5200  146.9950 N   0  0  0  0  0  0  0  0  0  0  0  0
  186.8730  178.1990  140.9640 N   0  0  0  0  0  2  0  0  0  0  0  0
  190.9680  176.2120  144.4770 C   0  0  0  0  0  3  0  0  0  0  0  0
  188.1720  178.8520  140.9970 C   0  0  2  0  0  3  0  0  0  0  0  0
  186.9080  178.1300  143.4520 C   0  0  0  0  0  0  0  0  0  0  0  0
  188.6790  179.0020  139.6430 N   0  0  0  0  0  2  0  0  0  0  0  0
  188.7670  177.9050  138.7300 C   0  0  0  0  0  0  0  0  0  0  0  0
  188.3500  176.7630  139.0670 O   0  0  0  0  0  0  0  0  0  0  0  0
  190.5240  177.5170  137.2060 F   0  0  0  0  0  0  0  0  0  0  0  0
  189.2920  178.1300  137.3480 C   0  0  0  0  0  0  0  0  0  0  0  0
  189.4310  179.4860  137.1260 F   0  0  0  0  0  0  0  0  0  0  0  0
  188.4180  177.6020  136.4140 F   0  0  0  0  0  0  0  0  0  0  0  0
  1  4  1  0  0  0  0
  1 13  1  0  0  0  0
  2 18  1  0  0  0  0
  2  1  2  0  0  0  0
  3 13  2  0  0  0  0
  4 16  1  6  0  0  0
  4  7  1  0  0  0  0
  5  8  2  0  0  0  0
  6  3  1  0  0  0  0
  7 14  2  0  0  0  0
  7  8  1  0  0  0  0
  9 10  1  6  0  0  0
  9 18  1  0  0  0  0
 11  2  1  0  0  0  0
 12  5  1  0  0  0  0
 13 14  1  0  0  0  0
 15 17  1  0  0  0  0
 15  9  1  0  0  0  0
 16 12  2  0  0  0  0
 17 19  1  6  0  0  0
 17 11  1  0  0  0  0
 18  6  2  0  0  0  0
 20 21  2  0  0  0  0
 20 19  1  0  0  0  0
 22 23  1  0  0  0  0
 23 20  1  0  0  0  0
 24 23  1  0  0  0  0
 25 23  1  0  0  0  0
M  END
>  <MODEL>
6

>  <REMARK>
 VINA RESULT:      -8.3      3.743      6.940
  Name = 
  2 active torsions:
  status: ('A' for Active; 'I' for Inactive)
    1  A    between atoms: N_6  and  C_23
    2  A    between atoms: C_7  and  C_15
                            x       y       z     vdW  Elec       q    Type
                         _______ _______ _______ _____ _____    ______ ____

>  <TORSDO>
F 2

$$$$
=
 OpenBabel10262419453D

 25 28  0  0  1  0  0  0  0  0999 V2000
  186.1330  178.4870  144.8890 C   0  0  0  0  0  0  0  0  0  0  0  0
  186.0650  178.3260  143.5020 C   0  0  0  0  0  0  0  0  0  0  0  0
  183.7770  178.9120  145.0240 C   0  0  0  0  0  3  0  0  0  0  0  0
  187.2990  178.4820  145.8130 C   0  0  1  0  0  3  0  0  0  0  0  0
  188.1740  177.3930  148.3330 C   0  0  0  0  0  3  0  0  0  0  0  0
  183.6970  178.7530  143.6730 N   0  0  0  0  0  0  0  0  0  0  0  0
  186.5830  178.7150  147.1190 C   0  0  0  0  0  0  0  0  0  0  0  0
  187.2280  178.3400  148.3800 C   0  0  0  0  0  3  0  0  0  0  0  0
  184.6100  178.4720  141.3870 C   0  0  2  0  0  3  0  0  0  0  0  0
  183.3550  177.7210  140.9800 C   0  0  0  0  0  1  0  0  0  0  0  0
  187.5650  177.9500  142.5730 S   0  0  0  0  0  0  0  0  0  0  0  0
  188.5130  176.7170  147.0520 C   0  0  0  0  0  3  0  0  0  0  0  0
  185.0210  178.7930  145.6260 C   0  0  0  0  0  0  0  0  0  0  0  0
  185.3040  178.8940  147.0120 N   0  0  0  0  0  0  0  0  0  0  0  0
  185.7480  177.9150  140.6620 N   0  0  0  0  0  2  0  0  0  0  0  0
  188.0560  177.1800  145.8770 C   0  0  0  0  0  3  0  0  0  0  0  0
  186.9400  178.6610  141.0330 C   0  0  2  0  0  3  0  0  0  0  0  0
  184.7850  178.4530  142.8930 C   0  0  0  0  0  0  0  0  0  0  0  0
  187.9490  178.5200  139.9950 N   0  0  0  0  0  2  0  0  0  0  0  0
  187.6260  178.5370  138.6030 C   0  0  0  0  0  0  0  0  0  0  0  0
  186.4370  178.7280  138.2290 O   0  0  0  0  0  0  0  0  0  0  0  0
  189.0920  179.6410  137.1220 F   0  0  0  0  0  0  0  0  0  0  0  0
  188.7140  178.3940  137.5870 C   0  0  0  0  0  0  0  0  0  0  0  0
  188.2550  177.6350  136.5280 F   0  0  0  0  0  0  0  0  0  0  0  0
  189.8140  177.7740  138.1510 F   0  0  0  0  0  0  0  0  0  0  0  0
  1 13  1  0  0  0  0
  1  4  1  0  0  0  0
  2  1  2  0  0  0  0
  3 13  2  0  0  0  0
  4 16  1  1  0  0  0
  4  7  1  0  0  0  0
  5  8  2  0  0  0  0
  6  3  1  0  0  0  0
  7  8  1  0  0  0  0
  9 10  1  1  0  0  0
  9 18  1  0  0  0  0
 11  2  1  0  0  0  0
 12  5  1  0  0  0  0
 13 14  1  0  0  0  0
 14  7  2  0  0  0  0
 15 17  1  0  0  0  0
 15  9  1  0  0  0  0
 16 12  2  0  0  0  0
 17 19  1  6  0  0  0
 17 11  1  0  0  0  0
 18  2  1  0  0  0  0
 18  6  2  0  0  0  0
 20 19  1  0  0  0  0
 21 20  2  0  0  0  0
 22 23  1  0  0  0  0
 23 25  1  0  0  0  0
 23 20  1  0  0  0  0
 24 23  1  0  0  0  0
M  END
>  <MODEL>
7

>  <REMARK>
 VINA RESULT:      -8.2      3.566      6.186
  Name = 
  2 active torsions:
  status: ('A' for Active; 'I' for Inactive)
    1  A    between atoms: N_6  and  C_23
    2  A    between atoms: C_7  and  C_15
                            x       y       z     vdW  Elec       q    Type
                         _______ _______ _______ _____ _____    ______ ____

>  <TORSDO>
F 2

$$$$
=
 OpenBabel10262419453D

 25 28  0  0  1  0  0  0  0  0999 V2000
  187.6520  177.5840  142.9240 C   0  0  0  0  0  0  0  0  0  0  0  0
  188.3830  177.6320  141.7340 C   0  0  0  0  0  0  0  0  0  0  0  0
  189.5650  176.8160  144.1490 C   0  0  0  0  0  3  0  0  0  0  0  0
  186.2100  177.8330  143.1900 C   0  0  1  0  0  3  0  0  0  0  0  0
  184.4600  179.2230  145.0090 C   0  0  0  0  0  3  0  0  0  0  0  0
  190.2900  176.8630  142.9960 N   0  0  0  0  0  0  0  0  0  0  0  0
  186.1850  177.5900  144.6770 C   0  0  0  0  0  0  0  0  0  0  0  0
  185.1010  178.1490  145.4890 C   0  0  0  0  0  3  0  0  0  0  0  0
  190.6070  177.1130  140.5510 C   0  0  2  0  0  3  0  0  0  0  0  0
  192.0140  177.6320  140.7890 C   0  0  0  0  0  1  0  0  0  0  0  0
  187.5750  178.1630  140.2110 S   0  0  0  0  0  0  0  0  0  0  0  0
  184.8760  179.8480  143.7260 C   0  0  0  0  0  3  0  0  0  0  0  0
  188.2240  177.1670  144.0960 C   0  0  0  0  0  0  0  0  0  0  0  0
  187.3160  177.2110  145.1850 N   0  0  0  0  0  0  0  0  0  0  0  0
  190.0490  177.7820  139.3800 N   0  0  0  0  0  2  0  0  0  0  0  0
  185.7420  179.2370  142.9000 C   0  0  0  0  0  3  0  0  0  0  0  0
  188.7150  177.2550  139.1410 C   0  0  2  0  0  3  0  0  0  0  0  0
  189.7570  177.2670  141.7980 C   0  0  0  0  0  0  0  0  0  0  0  0
  188.3450  177.4720  137.7520 N   0  0  0  0  0  2  0  0  0  0  0  0
  187.6520  176.4880  136.9800 C   0  0  0  0  0  0  0  0  0  0  0  0
  187.2920  175.4020  137.5100 O   0  0  0  0  0  0  0  0  0  0  0  0
  188.2330  177.6260  134.9980 F   0  0  0  0  0  0  0  0  0  0  0  0
  187.2930  176.7780  135.5570 C   0  0  0  0  0  0  0  0  0  0  0  0
  186.0520  177.3830  135.5120 F   0  0  0  0  0  0  0  0  0  0  0  0
  187.2570  175.6040  134.8250 F   0  0  0  0  0  0  0  0  0  0  0  0
  1  4  1  0  0  0  0
  1 13  1  0  0  0  0
  2 18  1  0  0  0  0
  2  1  2  0  0  0  0
  4 16  1  1  0  0  0
  4  7  1  0  0  0  0
  5  8  2  0  0  0  0
  6  3  1  0  0  0  0
  7 14  2  0  0  0  0
  7  8  1  0  0  0  0
  9 10  1  1  0  0  0
  9 18  1  0  0  0  0
 11  2  1  0  0  0  0
 12  5  1  0  0  0  0
 13  3  2  0  0  0  0
 13 14  1  0  0  0  0
 15  9  1  0  0  0  0
 16 12  2  0  0  0  0
 17 19  1  6  0  0  0
 17 15  1  0  0  0  0
 17 11  1  0  0  0  0
 18  6  2  0  0  0  0
 20 21  2  0  0  0  0
 20 19  1  0  0  0  0
 22 23  1  0  0  0  0
 23 20  1  0  0  0  0
 24 23  1  0  0  0  0
 25 23  1  0  0  0  0
M  END
>  <MODEL>
8

>  <REMARK>
 VINA RESULT:      -8.1      4.707      6.817
  Name = 
  2 active torsions:
  status: ('A' for Active; 'I' for Inactive)
    1  A    between atoms: N_6  and  C_23
    2  A    between atoms: C_7  and  C_15
                            x       y       z     vdW  Elec       q    Type
                         _______ _______ _______ _____ _____    ______ ____

>  <TORSDO>
F 2

$$$$
=
 OpenBabel10262419453D

 25 28  0  0  1  0  0  0  0  0999 V2000
  186.8970  177.9220  142.4380 C   0  0  0  0  0  0  0  0  0  0  0  0
  186.7960  178.1740  141.0670 C   0  0  0  0  0  0  0  0  0  0  0  0
  189.2380  177.4400  142.2470 C   0  0  0  0  0  3  0  0  0  0  0  0
  185.8560  177.8900  143.5000 C   0  0  1  0  0  3  0  0  0  0  0  0
  185.3330  178.8260  146.1750 C   0  0  0  0  0  3  0  0  0  0  0  0
  189.1540  177.6880  140.9100 N   0  0  0  0  0  0  0  0  0  0  0  0
  186.7220  177.5550  144.6880 C   0  0  0  0  0  0  0  0  0  0  0  0
  186.2500  177.8580  146.0410 C   0  0  0  0  0  3  0  0  0  0  0  0
  187.9720  178.1400  138.7800 C   0  0  2  0  0  3  0  0  0  0  0  0
  189.1880  178.8900  138.2660 C   0  0  0  0  0  1  0  0  0  0  0  0
  185.2040  178.6420  140.3610 S   0  0  0  0  0  0  0  0  0  0  0  0
  184.8580  179.5930  144.9930 C   0  0  0  0  0  3  0  0  0  0  0  0
  188.0830  177.5450  143.0080 C   0  0  0  0  0  0  0  0  0  0  0  0
  187.9720  177.3570  144.4100 N   0  0  0  0  0  0  0  0  0  0  0  0
  186.7690  178.7670  138.2410 N   0  0  0  0  0  2  0  0  0  0  0  0
  185.1510  179.2000  143.7420 C   0  0  0  0  0  3  0  0  0  0  0  0
  185.6110  178.0230  138.7120 C   0  0  2  0  0  3  0  0  0  0  0  0
  187.9860  178.0610  140.2950 C   0  0  0  0  0  0  0  0  0  0  0  0
  184.4850  178.2540  137.8210 N   0  0  0  0  0  2  0  0  0  0  0  0
  183.4680  177.2730  137.5990 C   0  0  0  0  0  0  0  0  0  0  0  0
  183.4960  176.1770  138.2230 O   0  0  0  0  0  0  0  0  0  0  0  0
  182.7870  177.6300  135.3700 F   0  0  0  0  0  0  0  0  0  0  0  0
  182.3320  177.5780  136.6760 C   0  0  0  0  0  0  0  0  0  0  0  0
  181.7820  178.7990  137.0140 F   0  0  0  0  0  0  0  0  0  0  0  0
  181.3620  176.5970  136.7730 F   0  0  0  0  0  0  0  0  0  0  0  0
  1 13  1  0  0  0  0
  1  4  1  0  0  0  0
  2  1  2  0  0  0  0
  3 13  2  0  0  0  0
  4 16  1  1  0  0  0
  4  7  1  0  0  0  0
  6  3  1  0  0  0  0
  7  8  1  0  0  0  0
  8  5  2  0  0  0  0
  9 10  1  1  0  0  0
  9 18  1  0  0  0  0
 11  2  1  0  0  0  0
 12  5  1  0  0  0  0
 13 14  1  0  0  0  0
 14  7  2  0  0  0  0
 15 17  1  0  0  0  0
 15  9  1  0  0  0  0
 16 12  2  0  0  0  0
 17 19  1  6  0  0  0
 17 11  1  0  0  0  0
 18  6  2  0  0  0  0
 18  2  1  0  0  0  0
 20 19  1  0  0  0  0
 20 21  2  0  0  0  0
 22 23  1  0  0  0  0
 23 25  1  0  0  0  0
 23 24  1  0  0  0  0
 23 20  1  0  0  0  0
M  END
>  <MODEL>
9

>  <REMARK>
 VINA RESULT:      -7.8      5.275      7.795
  Name = 
  2 active torsions:
  status: ('A' for Active; 'I' for Inactive)
    1  A    between atoms: N_6  and  C_23
    2  A    between atoms: C_7  and  C_15
                            x       y       z     vdW  Elec       q    Type
                         _______ _______ _______ _____ _____    ______ ____

>  <TORSDO>
F 2

$$$$
