=
 OpenBabel10262421583D

 30 33  0  0  1  0  0  0  0  0999 V2000
  184.7860  178.7470  140.6390 C   0  0  0  0  0  3  0  0  0  0  0  0
  185.9250  178.4340  141.5910 C   0  0  2  0  0  3  0  0  0  0  0  0
  181.1310  178.8070  143.9150 C   0  0  0  0  0  2  0  0  0  0  0  0
  182.2820  179.1160  140.4070 C   0  0  0  0  0  0  0  0  0  0  0  0
  179.6280  178.7300  143.6120 C   0  0  0  0  0  2  0  0  0  0  0  0
  185.5270  178.2810  143.0600 C   0  0  0  0  0  0  0  0  0  0  0  0
  186.9040  179.4030  141.4640 F   0  0  0  0  0  0  0  0  0  0  0  0
  181.9090  178.7780  142.6390 C   0  0  0  0  0  0  0  0  0  0  0  0
  186.5850  177.9830  144.0630 C   0  0  0  0  0  1  0  0  0  0  0  0
  183.5400  178.8220  141.0950 C   0  0  0  0  0  0  0  0  0  0  0  0
  181.3240  179.1170  141.3390 C   0  0  0  0  0  0  0  0  0  0  0  0
  179.2230  179.7350  142.5240 C   0  0  0  0  0  2  0  0  0  0  0  0
  179.8610  179.3900  141.1700 C   0  0  0  0  0  2  0  0  0  0  0  0
  184.2550  178.3630  143.4770 C   0  0  0  0  0  3  0  0  0  0  0  0
  183.2150  178.6260  142.4850 C   0  0  0  0  0  0  0  0  0  0  0  0
  180.9290  178.8490  137.0950 O   0  0  0  0  0  0  0  0  0  0  0  0
  181.6630  178.4730  138.0490 C   0  0  0  0  0  0  0  0  0  0  0  0
  182.1220  179.4390  139.0130 N   0  0  0  0  0  0  0  0  0  0  0  0
  181.2320  176.0970  138.2810 N   0  0  0  0  0  0  0  0  0  0  0  0
  183.4180  176.6160  137.9960 N   0  0  0  0  0  2  0  0  0  0  0  0
  182.0720  177.0590  138.1230 C   0  0  0  0  0  0  0  0  0  0  0  0
  181.9310  174.8890  138.2890 N   0  0  0  0  0  0  0  0  0  0  0  0
  183.3490  175.1670  138.1110 C   0  0  0  0  0  3  0  0  0  0  0  0
  182.3860  180.8040  138.5750 C   0  0  0  0  0  2  0  0  0  0  0  0
  181.1300  181.6490  138.7140 C   0  0  0  0  0  2  0  0  0  0  0  0
  180.8600  182.3980  137.4220 C   0  0  0  0  0  2  0  0  0  0  0  0
  180.0140  183.5520  137.6880 N   0  0  0  0  0  2  0  0  0  0  0  0
  181.3710  185.0460  136.5110 O   0  0  0  0  0  0  0  0  0  0  0  0
  180.3320  184.8540  137.1980 C   0  0  0  0  0  0  0  0  0  0  0  0
  179.4300  185.9940  137.5030 C   0  0  0  0  0  1  0  0  0  0  0  0
  1 10  2  0  0  0  0
  1  2  1  0  0  0  0
  2  7  1  1  0  0  0
  2  6  1  0  0  0  0
  4 10  1  0  0  0  0
  4 11  2  0  0  0  0
  5  3  1  0  0  0  0
  6 14  2  0  0  0  0
  6  9  1  0  0  0  0
  8  3  1  0  0  0  0
 10 15  1  0  0  0  0
 11  8  1  0  0  0  0
 12  5  1  0  0  0  0
 13 11  1  0  0  0  0
 13 12  1  0  0  0  0
 15  8  2  0  0  0  0
 15 14  1  0  0  0  0
 16 17  2  0  0  0  0
 17 21  1  0  0  0  0
 17 18  1  0  0  0  0
 18  4  1  0  0  0  0
 19 22  1  0  0  0  0
 20 23  1  0  0  0  0
 20 21  1  0  0  0  0
 21 19  2  0  0  0  0
 23 22  2  0  0  0  0
 24 25  1  0  0  0  0
 24 18  1  0  0  0  0
 26 27  1  0  0  0  0
 26 25  1  0  0  0  0
 28 29  2  0  0  0  0
 29 30  1  0  0  0  0
 29 27  1  0  0  0  0
M  END
>  <MODEL>
1

>  <REMARK>
 VINA RESULT:      -6.6      0.000      0.000
  Name = 
  6 active torsions:
  status: ('A' for Active; 'I' for Inactive)
    1  A    between atoms: C_4  and  N_13
    2  A    between atoms: N_7  and  C_16
    3  A    between atoms: C_8  and  C_12
    4  A    between atoms: N_13  and  C_27
    5  A    between atoms: C_16  and  C_30
    6  A    between atoms: C_27  and  C_30
                            x       y       z     vdW  Elec       q    Type
                         _______ _______ _______ _____ _____    ______ ____

>  <TORSDO>
F 6

$$$$
=
 OpenBabel10262421583D

 30 33  0  0  1  0  0  0  0  0999 V2000
  184.4450  177.8890  141.8400 C   0  0  0  0  0  3  0  0  0  0  0  0
  185.3110  178.1110  143.0660 C   0  0  2  0  0  3  0  0  0  0  0  0
  180.3400  180.0190  143.4860 C   0  0  0  0  0  2  0  0  0  0  0  0
  182.1440  178.2030  140.8070 C   0  0  0  0  0  0  0  0  0  0  0  0
  178.9310  179.8700  142.8970 C   0  0  0  0  0  2  0  0  0  0  0  0
  184.6320  178.8470  144.2220 C   0  0  0  0  0  0  0  0  0  0  0  0
  186.4650  178.7760  142.6940 F   0  0  0  0  0  0  0  0  0  0  0  0
  181.3160  179.2220  142.6810 C   0  0  0  0  0  0  0  0  0  0  0  0
  185.4130  179.1140  145.4590 C   0  0  0  0  0  1  0  0  0  0  0  0
  183.1750  178.2830  141.8420 C   0  0  0  0  0  0  0  0  0  0  0  0
  181.0520  178.7910  141.3060 C   0  0  0  0  0  0  0  0  0  0  0  0
  178.9320  180.0950  141.3780 C   0  0  0  0  0  2  0  0  0  0  0  0
  179.7250  179.0030  140.6450 C   0  0  0  0  0  2  0  0  0  0  0  0
  183.3460  179.2250  144.1830 C   0  0  0  0  0  3  0  0  0  0  0  0
  182.5740  178.9350  142.9770 C   0  0  0  0  0  0  0  0  0  0  0  0
  183.4600  178.0190  137.4740 O   0  0  0  0  0  0  0  0  0  0  0  0
  182.7200  178.5080  138.3720 C   0  0  0  0  0  0  0  0  0  0  0  0
  182.3040  177.6820  139.4750 N   0  0  0  0  0  0  0  0  0  0  0  0
  182.8410  180.8870  138.8290 N   0  0  0  0  0  0  0  0  0  0  0  0
  181.1610  180.3010  137.4300 N   0  0  0  0  0  2  0  0  0  0  0  0
  182.2610  179.9020  138.2400 C   0  0  0  0  0  0  0  0  0  0  0  0
  182.1810  182.0680  138.4860 N   0  0  0  0  0  0  0  0  0  0  0  0
  181.0840  181.7460  137.5850 C   0  0  0  0  0  3  0  0  0  0  0  0
  182.0860  176.2580  139.2490 C   0  0  0  0  0  2  0  0  0  0  0  0
  181.0030  176.0550  138.2020 C   0  0  0  0  0  2  0  0  0  0  0  0
  179.6520  175.8960  138.8720 C   0  0  0  0  0  2  0  0  0  0  0  0
  179.6340  174.6760  139.6660 N   0  0  0  0  0  2  0  0  0  0  0  0
  179.2310  175.7800  141.6850 O   0  0  0  0  0  0  0  0  0  0  0  0
  179.4160  174.6930  141.0760 C   0  0  0  0  0  0  0  0  0  0  0  0
  179.4110  173.4150  141.8330 C   0  0  0  0  0  1  0  0  0  0  0  0
  1 10  2  0  0  0  0
  1  2  1  0  0  0  0
  2  7  1  6  0  0  0
  2  6  1  0  0  0  0
  4 11  2  0  0  0  0
  4 10  1  0  0  0  0
  5  3  1  0  0  0  0
  6  9  1  0  0  0  0
  8 15  2  0  0  0  0
  8  3  1  0  0  0  0
 10 15  1  0  0  0  0
 11  8  1  0  0  0  0
 12  5  1  0  0  0  0
 13 11  1  0  0  0  0
 13 12  1  0  0  0  0
 14  6  2  0  0  0  0
 15 14  1  0  0  0  0
 16 17  2  0  0  0  0
 17 18  1  0  0  0  0
 18  4  1  0  0  0  0
 20 23  1  0  0  0  0
 20 21  1  0  0  0  0
 21 17  1  0  0  0  0
 21 19  2  0  0  0  0
 22 19  1  0  0  0  0
 23 22  2  0  0  0  0
 24 18  1  0  0  0  0
 25 26  1  0  0  0  0
 25 24  1  0  0  0  0
 26 27  1  0  0  0  0
 27 29  1  0  0  0  0
 29 28  2  0  0  0  0
 29 30  1  0  0  0  0
M  END
>  <MODEL>
2

>  <REMARK>
 VINA RESULT:      -6.5      2.243      5.119
  Name = 
  6 active torsions:
  status: ('A' for Active; 'I' for Inactive)
    1  A    between atoms: C_4  and  N_13
    2  A    between atoms: N_7  and  C_16
    3  A    between atoms: C_8  and  C_12
    4  A    between atoms: N_13  and  C_27
    5  A    between atoms: C_16  and  C_30
    6  A    between atoms: C_27  and  C_30
                            x       y       z     vdW  Elec       q    Type
                         _______ _______ _______ _____ _____    ______ ____

>  <TORSDO>
F 6

$$$$
=
 OpenBabel10262421583D

 30 33  0  0  1  0  0  0  0  0999 V2000
  185.1150  178.3660  138.4440 C   0  0  0  0  0  3  0  0  0  0  0  0
  186.5910  178.2770  138.1060 C   0  0  0  0  0  0  0  0  0  0  0  0
  185.5310  178.7250  143.3210 C   0  0  0  0  0  2  0  0  0  0  0  0
  183.3900  178.5430  140.3020 C   0  0  0  0  0  0  0  0  0  0  0  0
  184.4160  178.5120  144.3540 C   0  0  0  0  0  2  0  0  0  0  0  0
  187.5410  178.3350  139.3030 C   0  0  0  0  0  0  0  0  0  0  0  0
  186.9120  179.2700  137.1990 F   0  0  0  0  0  0  0  0  0  0  0  0
  184.9880  178.5410  141.9410 C   0  0  0  0  0  0  0  0  0  0  0  0
  189.0060  178.2640  139.0610 C   0  0  0  0  0  1  0  0  0  0  0  0
  184.7260  178.4380  139.7130 C   0  0  0  0  0  0  0  0  0  0  0  0
  183.5600  178.6340  141.6260 C   0  0  2  0  0  3  0  0  0  0  0  0
  183.1530  179.3050  143.9890 C   0  0  0  0  0  2  0  0  0  0  0  0
  182.5170  178.7880  142.6890 C   0  0  0  0  0  2  0  0  0  0  0  0
  187.1040  178.4050  140.5700 C   0  0  0  0  0  3  0  0  0  0  0  0
  185.6630  178.4450  140.8060 C   0  0  0  0  0  0  0  0  0  0  0  0
  180.2800  177.3790  138.9440 O   0  0  0  0  0  0  0  0  0  0  0  0
  181.5370  177.4880  138.9580 C   0  0  0  0  0  0  0  0  0  0  0  0
  182.1420  178.6310  139.5900 N   0  0  0  0  0  0  0  0  0  0  0  0
  182.8510  175.4490  138.8990 N   0  0  0  0  0  0  0  0  0  0  0  0
  182.6360  176.4680  136.8890 N   0  0  0  0  0  2  0  0  0  0  0  0
  182.3510  176.4620  138.2830 C   0  0  0  0  0  0  0  0  0  0  0  0
  183.5460  174.6620  137.9800 N   0  0  0  0  0  0  0  0  0  0  0  0
  183.4410  175.2760  136.6640 C   0  0  0  0  0  3  0  0  0  0  0  0
  181.4460  179.9110  139.5520 C   0  0  0  0  0  2  0  0  0  0  0  0
  181.6970  180.6040  138.2230 C   0  0  0  0  0  2  0  0  0  0  0  0
  181.5450  182.1050  138.3790 C   0  0  0  0  0  2  0  0  0  0  0  0
  181.0270  182.6800  137.1470 N   0  0  0  0  0  2  0  0  0  0  0  0
  182.1260  184.7230  137.4240 O   0  0  0  0  0  0  0  0  0  0  0  0
  181.3620  184.0020  136.7290 C   0  0  0  0  0  0  0  0  0  0  0  0
  180.8010  184.5360  135.4600 C   0  0  0  0  0  1  0  0  0  0  0  0
  1 10  1  0  0  0  0
  2  1  2  0  0  0  0
  2  6  1  0  0  0  0
  3  5  1  0  0  0  0
  4 11  1  0  0  0  0
  6 14  2  0  0  0  0
  7  2  1  0  0  0  0
  8  3  1  0  0  0  0
  9  6  1  0  0  0  0
 10  4  2  0  0  0  0
 10 15  1  0  0  0  0
 11  8  1  0  0  0  0
 11 13  1  1  0  0  0
 12  5  1  0  0  0  0
 13 12  1  0  0  0  0
 14 15  1  0  0  0  0
 15  8  2  0  0  0  0
 16 17  2  0  0  0  0
 17 18  1  0  0  0  0
 18  4  1  0  0  0  0
 20 21  1  0  0  0  0
 21 19  2  0  0  0  0
 21 17  1  0  0  0  0
 22 19  1  0  0  0  0
 23 20  1  0  0  0  0
 23 22  2  0  0  0  0
 24 18  1  0  0  0  0
 25 26  1  0  0  0  0
 25 24  1  0  0  0  0
 27 26  1  0  0  0  0
 29 27  1  0  0  0  0
 29 28  2  0  0  0  0
 30 29  1  0  0  0  0
M  END
>  <MODEL>
3

>  <REMARK>
 VINA RESULT:      -6.4      1.788      2.831
  Name = 
  6 active torsions:
  status: ('A' for Active; 'I' for Inactive)
    1  A    between atoms: C_4  and  N_13
    2  A    between atoms: N_7  and  C_16
    3  A    between atoms: C_8  and  C_12
    4  A    between atoms: N_13  and  C_27
    5  A    between atoms: C_16  and  C_30
    6  A    between atoms: C_27  and  C_30
                            x       y       z     vdW  Elec       q    Type
                         _______ _______ _______ _____ _____    ______ ____

>  <TORSDO>
F 6

$$$$
=
 OpenBabel10262421583D

 30 33  0  0  1  0  0  0  0  0999 V2000
  184.6540  177.9160  141.9780 C   0  0  0  0  0  3  0  0  0  0  0  0
  185.4260  178.2320  143.2450 C   0  0  2  0  0  3  0  0  0  0  0  0
  180.2870  179.6810  143.3590 C   0  0  0  0  0  2  0  0  0  0  0  0
  182.3960  178.0040  140.8150 C   0  0  0  0  0  0  0  0  0  0  0  0
  178.9320  179.3950  142.6960 C   0  0  0  0  0  2  0  0  0  0  0  0
  184.6200  178.9170  144.3490 C   0  0  0  0  0  0  0  0  0  0  0  0
  186.5340  178.9950  142.9250 F   0  0  0  0  0  0  0  0  0  0  0  0
  181.3740  178.9660  142.6230 C   0  0  0  0  0  0  0  0  0  0  0  0
  185.3020  179.2710  145.6220 C   0  0  0  0  0  1  0  0  0  0  0  0
  183.3560  178.1910  141.9040 C   0  0  0  0  0  0  0  0  0  0  0  0
  181.2280  178.4950  141.2430 C   0  0  0  0  0  0  0  0  0  0  0  0
  178.9970  179.6000  141.1760 C   0  0  0  0  0  2  0  0  0  0  0  0
  179.9260  178.5750  140.5070 C   0  0  0  0  0  2  0  0  0  0  0  0
  183.3090  179.1750  144.2330 C   0  0  0  0  0  3  0  0  0  0  0  0
  182.6350  178.7990  142.9920 C   0  0  0  0  0  0  0  0  0  0  0  0
  183.8450  177.9380  137.5340 O   0  0  0  0  0  0  0  0  0  0  0  0
  183.0110  178.3350  138.3930 C   0  0  0  0  0  0  0  0  0  0  0  0
  182.6770  177.4820  139.5030 N   0  0  0  0  0  0  0  0  0  0  0  0
  181.3250  179.8140  137.4680 N   0  0  0  0  0  0  0  0  0  0  0  0
  182.7960  180.8400  138.8500 N   0  0  0  0  0  0  0  0  0  0  0  0
  182.3640  179.6460  138.2090 C   0  0  0  0  0  0  0  0  0  0  0  0
  180.9490  181.1570  137.5220 N   0  0  0  0  0  2  0  0  0  0  0  0
  181.8680  181.8670  138.3990 C   0  0  0  0  0  3  0  0  0  0  0  0
  182.6720  176.0370  139.3080 C   0  0  0  0  0  2  0  0  0  0  0  0
  181.5730  175.6450  138.3330 C   0  0  0  0  0  2  0  0  0  0  0  0
  182.0530  174.5240  137.4300 C   0  0  0  0  0  2  0  0  0  0  0  0
  183.5010  174.4120  137.5080 N   0  0  0  0  0  2  0  0  0  0  0  0
  183.5230  172.1020  137.1580 O   0  0  0  0  0  0  0  0  0  0  0  0
  184.1730  173.1620  137.3610 C   0  0  0  0  0  0  0  0  0  0  0  0
  185.6560  173.1110  137.4510 C   0  0  0  0  0  1  0  0  0  0  0  0
  1  2  1  0  0  0  0
  2  7  1  6  0  0  0
  2  6  1  0  0  0  0
  4 11  2  0  0  0  0
  4 10  1  0  0  0  0
  5  3  1  0  0  0  0
  6  9  1  0  0  0  0
  8 15  2  0  0  0  0
  8  3  1  0  0  0  0
 10  1  2  0  0  0  0
 10 15  1  0  0  0  0
 11  8  1  0  0  0  0
 12  5  1  0  0  0  0
 13 12  1  0  0  0  0
 13 11  1  0  0  0  0
 14  6  2  0  0  0  0
 15 14  1  0  0  0  0
 16 17  2  0  0  0  0
 17 18  1  0  0  0  0
 18  4  1  0  0  0  0
 19 22  1  0  0  0  0
 19 21  2  0  0  0  0
 21 17  1  0  0  0  0
 21 20  1  0  0  0  0
 22 23  1  0  0  0  0
 23 20  2  0  0  0  0
 24 18  1  0  0  0  0
 25 24  1  0  0  0  0
 26 27  1  0  0  0  0
 26 25  1  0  0  0  0
 28 29  2  0  0  0  0
 29 30  1  0  0  0  0
 29 27  1  0  0  0  0
M  END
>  <MODEL>
4

>  <REMARK>
 VINA RESULT:      -6.3      2.270      5.541
  Name = 
  6 active torsions:
  status: ('A' for Active; 'I' for Inactive)
    1  A    between atoms: C_4  and  N_13
    2  A    between atoms: N_7  and  C_16
    3  A    between atoms: C_8  and  C_12
    4  A    between atoms: N_13  and  C_27
    5  A    between atoms: C_16  and  C_30
    6  A    between atoms: C_27  and  C_30
                            x       y       z     vdW  Elec       q    Type
                         _______ _______ _______ _____ _____    ______ ____

>  <TORSDO>
F 6

$$$$
=
 OpenBabel10262421583D

 30 33  0  0  1  0  0  0  0  0999 V2000
  184.4980  178.1530  141.9240 C   0  0  0  0  0  3  0  0  0  0  0  0
  185.2590  178.0960  143.2350 C   0  0  2  0  0  3  0  0  0  0  0  0
  180.2950  180.0260  143.6360 C   0  0  0  0  0  2  0  0  0  0  0  0
  182.2970  178.7390  140.7950 C   0  0  0  0  0  0  0  0  0  0  0  0
  178.9390  180.0410  142.9170 C   0  0  0  0  0  2  0  0  0  0  0  0
  184.4950  178.6020  144.4590 C   0  0  0  0  0  0  0  0  0  0  0  0
  186.4490  178.7880  143.1010 F   0  0  0  0  0  0  0  0  0  0  0  0
  181.3250  179.3800  142.7650 C   0  0  0  0  0  0  0  0  0  0  0  0
  185.1710  178.5890  145.7830 C   0  0  0  0  0  1  0  0  0  0  0  0
  183.2370  178.5760  141.9050 C   0  0  0  0  0  0  0  0  0  0  0  0
  181.1730  179.2450  141.3150 C   0  0  0  0  0  0  0  0  0  0  0  0
  179.0710  180.5700  141.4810 C   0  0  0  0  0  2  0  0  0  0  0  0
  179.9100  179.6260  140.6060 C   0  0  0  0  0  2  0  0  0  0  0  0
  183.2210  179.0180  144.3940 C   0  0  0  0  0  3  0  0  0  0  0  0
  182.5500  179.0010  143.0970 C   0  0  0  0  0  0  0  0  0  0  0  0
  181.5150  178.1580  137.3420 O   0  0  0  0  0  0  0  0  0  0  0  0
  181.6240  177.8100  138.5500 C   0  0  0  0  0  0  0  0  0  0  0  0
  182.5630  178.4930  139.4020 N   0  0  0  0  0  0  0  0  0  0  0  0
  179.5440  176.6090  138.8900 N   0  0  0  0  0  0  0  0  0  0  0  0
  181.3680  175.5450  139.7050 N   0  0  0  0  0  0  0  0  0  0  0  0
  180.8190  176.6790  139.0440 C   0  0  0  0  0  0  0  0  0  0  0  0
  179.0900  175.4140  139.4480 N   0  0  0  0  0  2  0  0  0  0  0  0
  180.2280  174.6880  139.9920 C   0  0  0  0  0  3  0  0  0  0  0  0
  183.8020  178.9990  138.8260 C   0  0  0  0  0  2  0  0  0  0  0  0
  184.5950  177.8580  138.2090 C   0  0  0  0  0  2  0  0  0  0  0  0
  185.9960  178.3260  137.8590 C   0  0  0  0  0  2  0  0  0  0  0  0
  186.7360  178.6230  139.0760 N   0  0  0  0  0  2  0  0  0  0  0  0
  188.3620  176.9860  138.7030 O   0  0  0  0  0  0  0  0  0  0  0  0
  187.9180  177.9090  139.4370 C   0  0  0  0  0  0  0  0  0  0  0  0
  188.6310  178.2570  140.6930 C   0  0  0  0  0  1  0  0  0  0  0  0
  1  2  1  0  0  0  0
  2  7  1  6  0  0  0
  2  6  1  0  0  0  0
  4 11  2  0  0  0  0
  4 10  1  0  0  0  0
  5  3  1  0  0  0  0
  6  9  1  0  0  0  0
  8 15  2  0  0  0  0
  8  3  1  0  0  0  0
 10  1  2  0  0  0  0
 10 15  1  0  0  0  0
 11  8  1  0  0  0  0
 12  5  1  0  0  0  0
 13 11  1  0  0  0  0
 13 12  1  0  0  0  0
 14  6  2  0  0  0  0
 15 14  1  0  0  0  0
 16 17  2  0  0  0  0
 17 21  1  0  0  0  0
 17 18  1  0  0  0  0
 18  4  1  0  0  0  0
 19 21  2  0  0  0  0
 19 22  1  0  0  0  0
 20 23  2  0  0  0  0
 21 20  1  0  0  0  0
 22 23  1  0  0  0  0
 24 18  1  0  0  0  0
 25 24  1  0  0  0  0
 26 25  1  0  0  0  0
 26 27  1  0  0  0  0
 27 29  1  0  0  0  0
 28 29  2  0  0  0  0
 29 30  1  0  0  0  0
M  END
>  <MODEL>
5

>  <REMARK>
 VINA RESULT:      -6.2      2.840      4.473
  Name = 
  6 active torsions:
  status: ('A' for Active; 'I' for Inactive)
    1  A    between atoms: C_4  and  N_13
    2  A    between atoms: N_7  and  C_16
    3  A    between atoms: C_8  and  C_12
    4  A    between atoms: N_13  and  C_27
    5  A    between atoms: C_16  and  C_30
    6  A    between atoms: C_27  and  C_30
                            x       y       z     vdW  Elec       q    Type
                         _______ _______ _______ _____ _____    ______ ____

>  <TORSDO>
F 6

$$$$
=
 OpenBabel10262421583D

 30 33  0  0  1  0  0  0  0  0999 V2000
  189.1220  177.0070  145.1420 C   0  0  0  0  0  3  0  0  0  0  0  0
  189.1900  176.9740  146.6570 C   0  0  2  0  0  3  0  0  0  0  0  0
  184.6060  178.8750  144.6810 C   0  0  0  0  0  2  0  0  0  0  0  0
  187.6950  177.5610  143.1130 C   0  0  0  0  0  0  0  0  0  0  0  0
  183.7370  178.8710  143.4160 C   0  0  0  0  0  2  0  0  0  0  0  0
  187.9450  177.4930  147.3790 C   0  0  0  0  0  0  0  0  0  0  0  0
  190.3060  177.6720  147.0790 F   0  0  0  0  0  0  0  0  0  0  0  0
  185.9220  178.2240  144.3980 C   0  0  0  0  0  0  0  0  0  0  0  0
  187.9310  177.5040  148.8660 C   0  0  0  0  0  1  0  0  0  0  0  0
  188.0140  177.4210  144.5340 C   0  0  0  0  0  0  0  0  0  0  0  0
  186.4590  178.0670  143.0440 C   0  0  0  0  0  0  0  0  0  0  0  0
  184.5200  179.3790  142.1970 C   0  0  0  0  0  2  0  0  0  0  0  0
  185.6680  178.4280  141.8250 C   0  0  0  0  0  2  0  0  0  0  0  0
  186.8470  177.8990  146.7250 C   0  0  0  0  0  3  0  0  0  0  0  0
  186.8530  177.8580  145.2650 C   0  0  0  0  0  0  0  0  0  0  0  0
  190.6250  176.3230  141.4530 O   0  0  0  0  0  0  0  0  0  0  0  0
  189.9980  177.1460  142.1740 C   0  0  0  0  0  0  0  0  0  0  0  0
  188.5760  177.2970  142.0050 N   0  0  0  0  0  0  0  0  0  0  0  0
  191.6790  177.4880  143.8890 N   0  0  0  0  0  0  0  0  0  0  0  0
  190.5460  179.3640  143.3200 N   0  0  0  0  0  2  0  0  0  0  0  0
  190.7490  177.9670  143.1410 C   0  0  0  0  0  0  0  0  0  0  0  0
  192.2020  178.5200  144.6700 N   0  0  0  0  0  0  0  0  0  0  0  0
  191.5030  179.7550  144.3440 C   0  0  0  0  0  3  0  0  0  0  0  0
  188.0000  177.1280  140.6770 C   0  0  0  0  0  2  0  0  0  0  0  0
  188.5910  178.1490  139.7180 C   0  0  0  0  0  2  0  0  0  0  0  0
  188.8170  177.5180  138.3570 C   0  0  0  0  0  2  0  0  0  0  0  0
  190.2380  177.5150  138.0440 N   0  0  0  0  0  2  0  0  0  0  0  0
  190.4850  175.2110  138.3440 O   0  0  0  0  0  0  0  0  0  0  0  0
  191.0140  176.3180  138.0570 C   0  0  0  0  0  0  0  0  0  0  0  0
  192.4620  176.3770  137.7290 C   0  0  0  0  0  1  0  0  0  0  0  0
  1  2  1  0  0  0  0
  2  7  1  1  0  0  0
  2  6  1  0  0  0  0
  4 10  1  0  0  0  0
  5  3  1  0  0  0  0
  6  9  1  0  0  0  0
  8  3  1  0  0  0  0
  8 15  2  0  0  0  0
 10  1  2  0  0  0  0
 10 15  1  0  0  0  0
 11  4  2  0  0  0  0
 11  8  1  0  0  0  0
 12  5  1  0  0  0  0
 13 12  1  0  0  0  0
 13 11  1  0  0  0  0
 14  6  2  0  0  0  0
 15 14  1  0  0  0  0
 16 17  2  0  0  0  0
 17 21  1  0  0  0  0
 18 17  1  0  0  0  0
 18  4  1  0  0  0  0
 19 22  1  0  0  0  0
 20 23  1  0  0  0  0
 21 20  1  0  0  0  0
 21 19  2  0  0  0  0
 23 22  2  0  0  0  0
 24 18  1  0  0  0  0
 25 24  1  0  0  0  0
 26 25  1  0  0  0  0
 27 29  1  0  0  0  0
 27 26  1  0  0  0  0
 29 28  2  0  0  0  0
 30 29  1  0  0  0  0
M  END
>  <MODEL>
6

>  <REMARK>
 VINA RESULT:      -6.2      6.155      8.740
  Name = 
  6 active torsions:
  status: ('A' for Active; 'I' for Inactive)
    1  A    between atoms: C_4  and  N_13
    2  A    between atoms: N_7  and  C_16
    3  A    between atoms: C_8  and  C_12
    4  A    between atoms: N_13  and  C_27
    5  A    between atoms: C_16  and  C_30
    6  A    between atoms: C_27  and  C_30
                            x       y       z     vdW  Elec       q    Type
                         _______ _______ _______ _____ _____    ______ ____

>  <TORSDO>
F 6

$$$$
=
 OpenBabel10262421583D

 30 33  0  0  1  0  0  0  0  0999 V2000
  189.1450  176.9640  145.0590 C   0  0  0  0  0  3  0  0  0  0  0  0
  189.2050  176.9070  146.5740 C   0  0  2  0  0  3  0  0  0  0  0  0
  184.6160  178.8040  144.6060 C   0  0  0  0  0  2  0  0  0  0  0  0
  187.7230  177.5390  143.0320 C   0  0  0  0  0  0  0  0  0  0  0  0
  183.7540  178.8130  143.3370 C   0  0  0  0  0  2  0  0  0  0  0  0
  187.9530  177.4040  147.2980 C   0  0  0  0  0  0  0  0  0  0  0  0
  190.3150  177.6070  147.0120 F   0  0  0  0  0  0  0  0  0  0  0  0
  185.9380  178.1670  144.3190 C   0  0  0  0  0  0  0  0  0  0  0  0
  187.9320  177.3920  148.7850 C   0  0  0  0  0  1  0  0  0  0  0  0
  188.0370  177.3790  144.4520 C   0  0  0  0  0  0  0  0  0  0  0  0
  186.4840  178.0370  142.9660 C   0  0  0  0  0  0  0  0  0  0  0  0
  184.5380  179.3470  142.1300 C   0  0  0  0  0  2  0  0  0  0  0  0
  185.6950  178.4110  141.7490 C   0  0  0  0  0  2  0  0  0  0  0  0
  186.8550  177.8120  146.6450 C   0  0  0  0  0  3  0  0  0  0  0  0
  186.8690  177.7950  145.1840 C   0  0  0  0  0  0  0  0  0  0  0  0
  190.6780  176.3660  141.3690 O   0  0  0  0  0  0  0  0  0  0  0  0
  190.0350  177.1720  142.0970 C   0  0  0  0  0  0  0  0  0  0  0  0
  188.6120  177.3010  141.9250 N   0  0  0  0  0  0  0  0  0  0  0  0
  191.7380  177.5390  143.7850 N   0  0  0  0  0  0  0  0  0  0  0  0
  190.5070  179.3760  143.3010 N   0  0  0  0  0  2  0  0  0  0  0  0
  190.7700  177.9970  143.0730 C   0  0  0  0  0  0  0  0  0  0  0  0
  192.2300  178.5690  144.5880 N   0  0  0  0  0  0  0  0  0  0  0  0
  191.4680  179.7790  144.3170 C   0  0  0  0  0  3  0  0  0  0  0  0
  188.0430  177.1340  140.5930 C   0  0  0  0  0  2  0  0  0  0  0  0
  188.5750  178.2100  139.6590 C   0  0  0  0  0  2  0  0  0  0  0  0
  187.9090  178.0970  138.3010 C   0  0  0  0  0  2  0  0  0  0  0  0
  186.5070  178.4720  138.4050 N   0  0  0  0  0  2  0  0  0  0  0  0
  185.7280  176.5750  137.2860 O   0  0  0  0  0  0  0  0  0  0  0  0
  185.4630  177.6580  137.8730 C   0  0  0  0  0  0  0  0  0  0  0  0
  184.0490  178.0930  138.0100 C   0  0  0  0  0  1  0  0  0  0  0  0
  1  2  1  0  0  0  0
  2  7  1  1  0  0  0
  2  6  1  0  0  0  0
  4 10  1  0  0  0  0
  5  3  1  0  0  0  0
  6  9  1  0  0  0  0
  8  3  1  0  0  0  0
  8 15  2  0  0  0  0
 10  1  2  0  0  0  0
 10 15  1  0  0  0  0
 11  4  2  0  0  0  0
 11  8  1  0  0  0  0
 12  5  1  0  0  0  0
 13 12  1  0  0  0  0
 13 11  1  0  0  0  0
 14  6  2  0  0  0  0
 15 14  1  0  0  0  0
 16 17  2  0  0  0  0
 17 21  1  0  0  0  0
 18 17  1  0  0  0  0
 18  4  1  0  0  0  0
 19 22  1  0  0  0  0
 20 23  1  0  0  0  0
 21 20  1  0  0  0  0
 21 19  2  0  0  0  0
 23 22  2  0  0  0  0
 24 18  1  0  0  0  0
 25 24  1  0  0  0  0
 26 27  1  0  0  0  0
 26 25  1  0  0  0  0
 28 29  2  0  0  0  0
 29 30  1  0  0  0  0
 29 27  1  0  0  0  0
M  END
>  <MODEL>
7

>  <REMARK>
 VINA RESULT:      -6.2      5.009      7.779
  Name = 
  6 active torsions:
  status: ('A' for Active; 'I' for Inactive)
    1  A    between atoms: C_4  and  N_13
    2  A    between atoms: N_7  and  C_16
    3  A    between atoms: C_8  and  C_12
    4  A    between atoms: N_13  and  C_27
    5  A    between atoms: C_16  and  C_30
    6  A    between atoms: C_27  and  C_30
                            x       y       z     vdW  Elec       q    Type
                         _______ _______ _______ _____ _____    ______ ____

>  <TORSDO>
F 6

$$$$
=
 OpenBabel10262421583D

 30 33  0  0  1  0  0  0  0  0999 V2000
  181.6000  178.5760  142.0080 C   0  0  0  0  0  3  0  0  0  0  0  0
  180.8620  178.5980  143.3330 C   0  0  2  0  0  3  0  0  0  0  0  0
  178.9710  182.0070  139.6830 C   0  0  0  0  0  2  0  0  0  0  0  0
  181.7250  179.5290  139.6550 C   0  0  0  0  0  0  0  0  0  0  0  0
  178.9410  182.2710  138.1710 C   0  0  0  0  0  2  0  0  0  0  0  0
  179.7020  179.5910  143.4200 C   0  0  0  0  0  0  0  0  0  0  0  0
  181.7650  178.8350  144.3540 F   0  0  0  0  0  0  0  0  0  0  0  0
  179.9140  180.8870  139.9860 C   0  0  0  0  0  0  0  0  0  0  0  0
  178.9310  179.6840  144.6870 C   0  0  0  0  0  1  0  0  0  0  0  0
  181.1940  179.3510  141.0070 C   0  0  0  0  0  0  0  0  0  0  0  0
  180.9740  180.4660  139.0670 C   0  0  0  0  0  0  0  0  0  0  0  0
  180.3600  182.3760  137.5920 C   0  0  0  0  0  2  0  0  0  0  0  0
  181.1110  181.0400  137.6900 C   0  0  0  0  0  2  0  0  0  0  0  0
  179.3240  180.3530  142.3830 C   0  0  0  0  0  3  0  0  0  0  0  0
  180.0660  180.2380  141.1290 C   0  0  0  0  0  0  0  0  0  0  0  0
  183.6360  177.6680  137.2560 O   0  0  0  0  0  0  0  0  0  0  0  0
  182.7950  177.7790  138.1900 C   0  0  0  0  0  0  0  0  0  0  0  0
  182.8900  178.8900  139.0990 N   0  0  0  0  0  0  0  0  0  0  0  0
  180.9360  176.4240  137.4200 N   0  0  0  0  0  0  0  0  0  0  0  0
  181.6050  175.9580  139.5320 N   0  0  0  0  0  0  0  0  0  0  0  0
  181.7650  176.7370  138.3520 C   0  0  0  0  0  0  0  0  0  0  0  0
  180.1110  175.3970  137.8810 N   0  0  0  0  0  2  0  0  0  0  0  0
  180.4990  175.0590  139.2420 C   0  0  0  0  0  3  0  0  0  0  0  0
  184.2060  179.4220  139.4320 C   0  0  0  0  0  2  0  0  0  0  0  0
  184.9460  178.4540  140.3410 C   0  0  0  0  0  2  0  0  0  0  0  0
  185.2100  179.1000  141.6880 C   0  0  0  0  0  2  0  0  0  0  0  0
  186.1900  178.3190  142.4270 N   0  0  0  0  0  2  0  0  0  0  0  0
  185.0070  178.4040  144.4410 O   0  0  0  0  0  0  0  0  0  0  0  0
  186.0220  178.0070  143.8090 C   0  0  0  0  0  0  0  0  0  0  0  0
  187.0580  177.2050  144.5110 C   0  0  0  0  0  1  0  0  0  0  0  0
  1  2  1  0  0  0  0
  2  6  1  0  0  0  0
  2  7  1  1  0  0  0
  3  8  1  0  0  0  0
  4 10  1  0  0  0  0
  5  3  1  0  0  0  0
  6  9  1  0  0  0  0
  8 15  2  0  0  0  0
 10 15  1  0  0  0  0
 10  1  2  0  0  0  0
 11  4  2  0  0  0  0
 11  8  1  0  0  0  0
 12 13  1  0  0  0  0
 12  5  1  0  0  0  0
 13 11  1  0  0  0  0
 14  6  2  0  0  0  0
 15 14  1  0  0  0  0
 16 17  2  0  0  0  0
 17 21  1  0  0  0  0
 17 18  1  0  0  0  0
 18 24  1  0  0  0  0
 18  4  1  0  0  0  0
 19 22  1  0  0  0  0
 19 21  2  0  0  0  0
 21 20  1  0  0  0  0
 22 23  1  0  0  0  0
 23 20  2  0  0  0  0
 24 25  1  0  0  0  0
 25 26  1  0  0  0  0
 26 27  1  0  0  0  0
 27 29  1  0  0  0  0
 29 28  2  0  0  0  0
 29 30  1  0  0  0  0
M  END
>  <MODEL>
8

>  <REMARK>
 VINA RESULT:      -6.1      2.540      5.774
  Name = 
  6 active torsions:
  status: ('A' for Active; 'I' for Inactive)
    1  A    between atoms: C_4  and  N_13
    2  A    between atoms: N_7  and  C_16
    3  A    between atoms: C_8  and  C_12
    4  A    between atoms: N_13  and  C_27
    5  A    between atoms: C_16  and  C_30
    6  A    between atoms: C_27  and  C_30
                            x       y       z     vdW  Elec       q    Type
                         _______ _______ _______ _____ _____    ______ ____

>  <TORSDO>
F 6

$$$$
=
 OpenBabel10262421583D

 30 33  0  0  1  0  0  0  0  0999 V2000
  182.4800  179.0530  142.0080 C   0  0  0  0  0  3  0  0  0  0  0  0
  182.5840  179.0030  143.5210 C   0  0  2  0  0  3  0  0  0  0  0  0
  187.2060  178.2530  140.9510 C   0  0  0  0  0  2  0  0  0  0  0  0
  183.7450  178.9190  139.8080 C   0  0  0  0  0  0  0  0  0  0  0  0
  187.8990  178.5050  139.6050 C   0  0  0  0  0  2  0  0  0  0  0  0
  183.9870  178.7410  144.0710 C   0  0  0  0  0  0  0  0  0  0  0  0
  181.7010  178.0570  144.0080 F   0  0  0  0  0  0  0  0  0  0  0  0
  185.7570  178.6090  140.8520 C   0  0  0  0  0  0  0  0  0  0  0  0
  184.1780  178.6670  145.5450 C   0  0  0  0  0  1  0  0  0  0  0  0
  183.5710  178.9220  141.2610 C   0  0  0  0  0  0  0  0  0  0  0  0
  185.0440  178.7020  139.5760 C   0  0  0  0  0  0  0  0  0  0  0  0
  187.1070  177.8910  138.4420 C   0  0  0  0  0  2  0  0  0  0  0  0
  185.7460  178.5800  138.2590 C   0  0  0  0  0  2  0  0  0  0  0  0
  185.0630  178.6180  143.2800 C   0  0  0  0  0  3  0  0  0  0  0  0
  184.8770  178.7200  141.8350 C   0  0  0  0  0  0  0  0  0  0  0  0
  180.7870  177.9680  138.0140 O   0  0  0  0  0  0  0  0  0  0  0  0
  182.0120  177.8790  138.3010 C   0  0  0  0  0  0  0  0  0  0  0  0
  182.7040  179.0300  138.8190 N   0  0  0  0  0  0  0  0  0  0  0  0
  182.6920  175.6230  138.8800 N   0  0  0  0  0  0  0  0  0  0  0  0
  183.4530  176.3290  136.8680 N   0  0  0  0  0  2  0  0  0  0  0  0
  182.7140  176.6070  138.0520 C   0  0  0  0  0  0  0  0  0  0  0  0
  183.4310  174.5680  138.3430 N   0  0  0  0  0  0  0  0  0  0  0  0
  183.9480  174.9720  137.0440 C   0  0  0  0  0  3  0  0  0  0  0  0
  182.3050  180.3570  138.3670 C   0  0  0  0  0  2  0  0  0  0  0  0
  181.1020  180.8400  139.1600 C   0  0  0  0  0  2  0  0  0  0  0  0
  180.0870  181.4800  138.2310 C   0  0  0  0  0  2  0  0  0  0  0  0
  180.4600  182.8620  137.9690 N   0  0  0  0  0  2  0  0  0  0  0  0
  180.8030  182.5260  135.6830 O   0  0  0  0  0  0  0  0  0  0  0  0
  180.8070  183.3180  136.6630 C   0  0  0  0  0  0  0  0  0  0  0  0
  181.1810  184.7410  136.4570 C   0  0  0  0  0  1  0  0  0  0  0  0
  1  2  1  0  0  0  0
  2  7  1  6  0  0  0
  2  6  1  0  0  0  0
  4 10  1  0  0  0  0
  5  3  1  0  0  0  0
  6  9  1  0  0  0  0
  8  3  1  0  0  0  0
  8 15  2  0  0  0  0
 10 15  1  0  0  0  0
 10  1  2  0  0  0  0
 11  4  2  0  0  0  0
 11  8  1  0  0  0  0
 12  5  1  0  0  0  0
 13 12  1  0  0  0  0
 13 11  1  0  0  0  0
 14  6  2  0  0  0  0
 15 14  1  0  0  0  0
 16 17  2  0  0  0  0
 17 18  1  0  0  0  0
 18  4  1  0  0  0  0
 20 23  1  0  0  0  0
 20 21  1  0  0  0  0
 21 17  1  0  0  0  0
 21 19  2  0  0  0  0
 22 19  1  0  0  0  0
 23 22  2  0  0  0  0
 24 18  1  0  0  0  0
 24 25  1  0  0  0  0
 26 25  1  0  0  0  0
 27 26  1  0  0  0  0
 28 29  2  0  0  0  0
 29 27  1  0  0  0  0
 30 29  1  0  0  0  0
M  END
>  <MODEL>
9

>  <REMARK>
 VINA RESULT:      -6.1      1.875      3.648
  Name = 
  6 active torsions:
  status: ('A' for Active; 'I' for Inactive)
    1  A    between atoms: C_4  and  N_13
    2  A    between atoms: N_7  and  C_16
    3  A    between atoms: C_8  and  C_12
    4  A    between atoms: N_13  and  C_27
    5  A    between atoms: C_16  and  C_30
    6  A    between atoms: C_27  and  C_30
                            x       y       z     vdW  Elec       q    Type
                         _______ _______ _______ _____ _____    ______ ____

>  <TORSDO>
F 6

$$$$
