=
 OpenBabel10262422283D

 43 47  0  0  1  0  0  0  0  0999 V2000
  194.3360  173.8910  135.8410 C   0  0  0  0  0  0  0  0  0  0  0  0
  190.0600  175.7700  137.6210 C   0  0  0  0  0  0  0  0  0  0  0  0
  191.9690  174.1280  136.5230 C   0  0  0  0  0  0  0  0  0  0  0  0
  194.7340  174.9890  136.7990 C   0  0  0  0  0  2  0  0  0  0  0  0
  195.1790  173.4970  134.9600 N   0  0  0  0  0  2  0  0  0  0  0  0
  192.3380  175.0680  137.5040 C   0  0  0  0  0  0  0  0  0  0  0  0
  192.9980  173.2120  135.9310 C   0  0  0  0  0  2  0  0  0  0  0  0
  193.7600  175.1380  137.9710 C   0  0  0  0  0  2  0  0  0  0  0  0
  191.4440  176.9270  139.0810 C   0  0  0  0  0  2  0  0  0  0  0  0
  191.3420  175.8800  138.0440 C   0  0  0  0  0  0  0  0  0  0  0  0
  189.6860  174.8600  136.6830 N   0  0  0  0  0  0  0  0  0  0  0  0
  189.1950  176.7450  138.3100 C   0  0  1  0  0  3  0  0  0  0  0  0
  190.0800  177.4740  139.2510 N   0  0  0  0  0  0  0  0  0  0  0  0
  190.6210  174.0350  136.1290 C   0  0  0  0  0  3  0  0  0  0  0  0
  188.7130  178.2990  141.1760 C   0  0  0  0  0  1  0  0  0  0  0  0
  189.6720  177.2310  140.6460 C   0  0  2  0  0  3  0  0  0  0  0  0
  190.8950  177.1600  141.5630 C   0  0  0  0  0  2  0  0  0  0  0  0
  190.7580  178.1020  142.7540 C   0  0  0  0  0  2  0  0  0  0  0  0
  191.3110  177.4840  143.9520 N   0  0  0  0  0  0  0  0  0  0  0  0
  191.0760  176.0520  143.8750 C   0  0  0  0  0  1  0  0  0  0  0  0
  190.7090  178.0030  145.1930 C   0  0  0  0  0  2  0  0  0  0  0  0
  189.5340  177.2020  145.8020 C   0  0  2  0  0  3  0  0  0  0  0  0
  187.3850  177.2720  144.4540 C   0  0  0  0  0  0  0  0  0  0  0  0
  188.2410  177.7920  145.4750 N   0  0  0  0  0  2  0  0  0  0  0  0
  187.7720  176.3120  143.7340 O   0  0  0  0  0  0  0  0  0  0  0  0
  186.0540  177.8640  144.2570 C   0  0  0  0  0  0  0  0  0  0  0  0
  184.1840  178.5900  142.8050 C   0  0  0  0  0  2  0  0  0  0  0  0
  183.9760  178.9080  145.2600 C   0  0  0  0  0  2  0  0  0  0  0  0
  183.8250  179.5880  143.9020 C   0  0  0  0  0  2  0  0  0  0  0  0
  185.3220  178.3550  145.3900 N   0  0  0  0  0  2  0  0  0  0  0  0
  185.5520  178.0120  143.0240 C   0  0  0  0  0  3  0  0  0  0  0  0
  189.6790  177.0260  147.3110 C   0  0  0  0  0  2  0  0  0  0  0  0
  188.0460  177.5180  148.9860 O   0  0  0  0  0  1  0  0  0  0  0  0
  188.9240  178.1020  148.0740 C   0  0  0  0  0  2  0  0  0  0  0  0
  188.6240  177.7220  137.2930 C   0  0  0  0  0  2  0  0  0  0  0  0
  187.5570  178.4620  137.8720 O   0  0  0  0  0  0  0  0  0  0  0  0
  183.9630  178.0940  138.7510 C   0  0  0  0  0  3  0  0  0  0  0  0
  184.6140  176.3310  137.2250 C   0  0  0  0  0  3  0  0  0  0  0  0
  183.6390  176.9560  138.0070 C   0  0  0  0  0  0  0  0  0  0  0  0
  185.2630  178.6030  138.7140 C   0  0  0  0  0  3  0  0  0  0  0  0
  186.2480  177.9760  137.9320 C   0  0  0  0  0  0  0  0  0  0  0  0
  182.2570  176.4100  138.0490 C   0  0  0  0  0  1  0  0  0  0  0  0
  185.9170  176.8390  137.1890 C   0  0  0  0  0  3  0  0  0  0  0  0
  1  7  1  0  0  0  0
  1  4  1  0  0  0  0
  2 10  1  0  0  0  0
  2 12  1  0  0  0  0
  3  6  1  0  0  0  0
  4  8  1  0  0  0  0
  5  1  2  0  0  0  0
  6  8  1  0  0  0  0
  6 10  2  0  0  0  0
  7  3  1  0  0  0  0
  9 13  1  0  0  0  0
 10  9  1  0  0  0  0
 11  2  2  0  0  0  0
 12 35  1  6  0  0  0
 12 13  1  0  0  0  0
 13 16  1  0  0  0  0
 14  3  2  0  0  0  0
 14 11  1  0  0  0  0
 16 15  1  1  0  0  0
 16 17  1  0  0  0  0
 17 18  1  0  0  0  0
 18 19  1  0  0  0  0
 19 21  1  0  0  0  0
 20 19  1  0  0  0  0
 22 21  1  1  0  0  0
 22 32  1  0  0  0  0
 23 24  1  0  0  0  0
 24 22  1  0  0  0  0
 25 23  2  0  0  0  0
 26 23  1  0  0  0  0
 26 30  1  0  0  0  0
 27 31  1  0  0  0  0
 27 29  1  0  0  0  0
 28 30  1  0  0  0  0
 29 28  1  0  0  0  0
 31 26  2  0  0  0  0
 32 34  1  0  0  0  0
 34 33  1  0  0  0  0
 35 36  1  0  0  0  0
 36 41  1  0  0  0  0
 38 39  1  0  0  0  0
 39 42  1  0  0  0  0
 39 37  2  0  0  0  0
 40 37  1  0  0  0  0
 41 40  2  0  0  0  0
 43 38  2  0  0  0  0
 43 41  1  0  0  0  0
M  END
>  <MODEL>
1

>  <REMARK>
 VINA RESULT:      -8.1      0.000      0.000
  Name = 
  13 active torsions:
  status: ('A' for Active; 'I' for Inactive)
    1  A    between atoms: C_1  and  O_28
    2  A    between atoms: C_1  and  C_34
    3  A    between atoms: C_2  and  C_6
    4  A    between atoms: C_2  and  C_13
    5  A    between atoms: C_3  and  C_4
    6  A    between atoms: C_3  and  N_12
    7  A    between atoms: C_4  and  C_15
    8  A    between atoms: C_4  and  N_22
    9  A    between atoms: C_6  and  N_12
   10  A    between atoms: C_11  and  C_14
   11  A    between atoms: C_13  and  N_38
   12  A    between atoms: C_15  and  C_42
   13  A    between atoms: O_28  and  C_35
                            x       y       z     vdW  Elec       q    Type
                         _______ _______ _______ _____ _____    ______ ____

>  <TORSDO>
F 13

$$$$
=
 OpenBabel10262422283D

 43 47  0  0  1  0  0  0  0  0999 V2000
  192.1780  175.6670  147.4310 C   0  0  0  0  0  0  0  0  0  0  0  0
  188.5260  177.7480  144.7260 C   0  0  0  0  0  0  0  0  0  0  0  0
  190.4630  177.2500  146.6100 C   0  0  0  0  0  0  0  0  0  0  0  0
  192.2640  175.0320  146.0640 C   0  0  0  0  0  2  0  0  0  0  0  0
  192.7190  175.0720  148.4290 N   0  0  0  0  0  2  0  0  0  0  0  0
  190.6160  176.7500  145.3040 C   0  0  0  0  0  0  0  0  0  0  0  0
  191.5230  177.0030  147.6410 C   0  0  0  0  0  2  0  0  0  0  0  0
  191.8520  175.9850  144.9380 C   0  0  0  0  0  2  0  0  0  0  0  0
  189.5270  176.6430  142.9490 C   0  0  0  0  0  2  0  0  0  0  0  0
  189.6170  177.0280  144.3720 C   0  0  0  0  0  0  0  0  0  0  0  0
  188.3690  178.2470  145.9810 N   0  0  0  0  0  0  0  0  0  0  0  0
  187.5980  177.8890  143.5900 C   0  0  1  0  0  3  0  0  0  0  0  0
  188.2460  177.1930  142.4520 N   0  0  0  0  0  0  0  0  0  0  0  0
  189.3230  178.0120  146.9290 C   0  0  0  0  0  3  0  0  0  0  0  0
  187.3750  178.3670  140.4240 C   0  0  0  0  0  1  0  0  0  0  0  0
  188.5570  178.1410  141.3680 C   0  0  2  0  0  3  0  0  0  0  0  0
  189.7600  177.6590  140.5550 C   0  0  0  0  0  2  0  0  0  0  0  0
  189.6360  178.0490  139.0860 C   0  0  0  0  0  2  0  0  0  0  0  0
  189.7940  176.8750  138.2380 N   0  0  0  0  0  0  0  0  0  0  0  0
  191.0680  176.2520  138.5560 C   0  0  0  0  0  1  0  0  0  0  0  0
  189.7660  177.2000  136.8000 C   0  0  0  0  0  2  0  0  0  0  0  0
  188.8520  176.3410  135.8950 C   0  0  2  0  0  3  0  0  0  0  0  0
  186.5260  177.0620  136.6060 C   0  0  0  0  0  0  0  0  0  0  0  0
  187.5590  176.0770  136.5140 N   0  0  0  0  0  2  0  0  0  0  0  0
  186.7410  178.2420  136.2160 O   0  0  0  0  0  0  0  0  0  0  0  0
  185.2150  176.6850  137.1540 C   0  0  0  0  0  0  0  0  0  0  0  0
  183.0210  177.2590  138.1490 C   0  0  0  0  0  2  0  0  0  0  0  0
  183.5630  174.8650  137.7620 C   0  0  0  0  0  2  0  0  0  0  0  0
  183.0350  175.8700  138.7820 C   0  0  0  0  0  2  0  0  0  0  0  0
  184.8690  175.2970  137.2700 N   0  0  0  0  0  2  0  0  0  0  0  0
  184.3740  177.6230  137.6090 C   0  0  0  0  0  3  0  0  0  0  0  0
  189.5240  175.0360  135.4730 C   0  0  0  0  0  2  0  0  0  0  0  0
  189.6570  173.2360  137.0420 O   0  0  0  0  0  1  0  0  0  0  0  0
  188.8320  173.8290  136.0860 C   0  0  0  0  0  2  0  0  0  0  0  0
  186.2830  177.1980  143.9220 C   0  0  0  0  0  2  0  0  0  0  0  0
  185.3110  178.1600  144.3120 O   0  0  0  0  0  0  0  0  0  0  0  0
  182.9360  178.5030  141.4730 C   0  0  0  0  0  3  0  0  0  0  0  0
  181.8020  179.0120  143.5500 C   0  0  0  0  0  3  0  0  0  0  0  0
  181.7790  178.8800  142.1580 C   0  0  0  0  0  0  0  0  0  0  0  0
  184.1170  178.2620  142.1790 C   0  0  0  0  0  3  0  0  0  0  0  0
  184.1460  178.3960  143.5770 C   0  0  0  0  0  0  0  0  0  0  0  0
  180.5230  179.1420  141.4080 C   0  0  0  0  0  1  0  0  0  0  0  0
  182.9840  178.7720  144.2570 C   0  0  0  0  0  3  0  0  0  0  0  0
  1  7  1  0  0  0  0
  1  5  2  0  0  0  0
  2 11  1  0  0  0  0
  3 14  1  0  0  0  0
  3  7  1  0  0  0  0
  4  1  1  0  0  0  0
  6  3  2  0  0  0  0
  8  6  1  0  0  0  0
  8  4  1  0  0  0  0
  9 10  1  0  0  0  0
 10  2  2  0  0  0  0
 10  6  1  0  0  0  0
 11 14  2  0  0  0  0
 12 35  1  1  0  0  0
 12  2  1  0  0  0  0
 13  9  1  0  0  0  0
 13 12  1  0  0  0  0
 16 15  1  6  0  0  0
 16 13  1  0  0  0  0
 17 16  1  0  0  0  0
 18 17  1  0  0  0  0
 19 20  1  0  0  0  0
 19 18  1  0  0  0  0
 21 19  1  0  0  0  0
 22 32  1  1  0  0  0
 22 24  1  0  0  0  0
 22 21  1  0  0  0  0
 23 26  1  0  0  0  0
 24 23  1  0  0  0  0
 25 23  2  0  0  0  0
 26 30  1  0  0  0  0
 26 31  2  0  0  0  0
 27 29  1  0  0  0  0
 28 29  1  0  0  0  0
 30 28  1  0  0  0  0
 31 27  1  0  0  0  0
 32 34  1  0  0  0  0
 34 33  1  0  0  0  0
 35 36  1  0  0  0  0
 37 39  2  0  0  0  0
 37 40  1  0  0  0  0
 38 43  2  0  0  0  0
 39 38  1  0  0  0  0
 40 41  2  0  0  0  0
 41 43  1  0  0  0  0
 41 36  1  0  0  0  0
 42 39  1  0  0  0  0
M  END
>  <MODEL>
2

>  <REMARK>
 VINA RESULT:      -7.6      2.383      8.011
  Name = 
  13 active torsions:
  status: ('A' for Active; 'I' for Inactive)
    1  A    between atoms: C_1  and  O_28
    2  A    between atoms: C_1  and  C_34
    3  A    between atoms: C_2  and  C_6
    4  A    between atoms: C_2  and  C_13
    5  A    between atoms: C_3  and  C_4
    6  A    between atoms: C_3  and  N_12
    7  A    between atoms: C_4  and  C_15
    8  A    between atoms: C_4  and  N_22
    9  A    between atoms: C_6  and  N_12
   10  A    between atoms: C_11  and  C_14
   11  A    between atoms: C_13  and  N_38
   12  A    between atoms: C_15  and  C_42
   13  A    between atoms: O_28  and  C_35
                            x       y       z     vdW  Elec       q    Type
                         _______ _______ _______ _____ _____    ______ ____

>  <TORSDO>
F 13

$$$$
=
 OpenBabel10262422283D

 43 47  0  0  1  0  0  0  0  0999 V2000
  188.4130  178.0790  147.9150 C   0  0  0  0  0  0  0  0  0  0  0  0
  186.7320  177.7610  143.2180 C   0  0  0  0  0  0  0  0  0  0  0  0
  187.9690  177.2650  145.6210 C   0  0  0  0  0  0  0  0  0  0  0  0
  187.1800  178.9490  147.8570 C   0  0  0  0  0  2  0  0  0  0  0  0
  189.2610  178.2620  148.8570 N   0  0  0  0  0  2  0  0  0  0  0  0
  186.7550  177.9770  145.5950 C   0  0  0  0  0  0  0  0  0  0  0  0
  188.6430  176.9700  146.9270 C   0  0  0  0  0  2  0  0  0  0  0  0
  186.1250  178.4220  146.8790 C   0  0  0  0  0  2  0  0  0  0  0  0
  184.8880  178.9010  144.0450 C   0  0  0  0  0  2  0  0  0  0  0  0
  186.1520  178.2040  144.3590 C   0  0  0  0  0  0  0  0  0  0  0  0
  187.8990  177.0630  143.2270 N   0  0  0  0  0  0  0  0  0  0  0  0
  185.9320  178.1410  142.0400 C   0  0  1  0  0  3  0  0  0  0  0  0
  184.7480  178.8580  142.5720 N   0  0  0  0  0  0  0  0  0  0  0  0
  188.5250  176.8050  144.4120 C   0  0  0  0  0  3  0  0  0  0  0  0
  183.4940  177.5630  140.8390 C   0  0  0  0  0  1  0  0  0  0  0  0
  183.5090  178.1230  142.2630 C   0  0  2  0  0  3  0  0  0  0  0  0
  182.2840  179.0190  142.4590 C   0  0  0  0  0  2  0  0  0  0  0  0
  181.1630  178.6550  141.4920 C   0  0  0  0  0  2  0  0  0  0  0  0
  180.6960  179.8440  140.7910 N   0  0  0  0  0  0  0  0  0  0  0  0
  179.6940  180.4950  141.6190 C   0  0  0  0  0  1  0  0  0  0  0  0
  180.1060  179.5380  139.4750 C   0  0  0  0  0  2  0  0  0  0  0  0
  180.9560  179.8570  138.2230 C   0  0  2  0  0  3  0  0  0  0  0  0
  181.8660  177.7130  137.2160 C   0  0  0  0  0  0  0  0  0  0  0  0
  182.0230  178.8830  138.0230 N   0  0  0  0  0  2  0  0  0  0  0  0
  180.7440  177.4420  136.7070 O   0  0  0  0  0  0  0  0  0  0  0  0
  183.0220  176.8350  136.9830 C   0  0  0  0  0  0  0  0  0  0  0  0
  184.2940  174.7500  137.3910 C   0  0  0  0  0  2  0  0  0  0  0  0
  185.2230  176.4190  135.8020 C   0  0  0  0  0  2  0  0  0  0  0  0
  185.5450  175.5320  137.0020 C   0  0  0  0  0  2  0  0  0  0  0  0
  184.0740  177.2680  136.1080 N   0  0  0  0  0  2  0  0  0  0  0  0
  183.1330  175.6710  137.6350 C   0  0  0  0  0  3  0  0  0  0  0  0
  181.5210  181.2750  138.2580 C   0  0  0  0  0  2  0  0  0  0  0  0
  181.0820  183.5270  137.5860 O   0  0  0  0  0  1  0  0  0  0  0  0
  180.7740  182.1960  137.3070 C   0  0  0  0  0  2  0  0  0  0  0  0
  186.7410  179.0840  141.1610 C   0  0  0  0  0  2  0  0  0  0  0  0
  186.7680  178.6020  139.8230 O   0  0  0  0  0  0  0  0  0  0  0  0
  189.2460  177.5490  137.2600 C   0  0  0  0  0  3  0  0  0  0  0  0
  190.1400  177.1450  139.4730 C   0  0  0  0  0  3  0  0  0  0  0  0
  190.2800  177.0940  138.0830 C   0  0  0  0  0  0  0  0  0  0  0  0
  188.0740  178.0510  137.8280 C   0  0  0  0  0  3  0  0  0  0  0  0
  187.9280  178.1030  139.2240 C   0  0  0  0  0  0  0  0  0  0  0  0
  191.5260  176.5530  137.4800 C   0  0  0  0  0  1  0  0  0  0  0  0
  188.9660  177.6470  140.0420 C   0  0  0  0  0  3  0  0  0  0  0  0
  1  5  2  0  0  0  0
  2 11  2  0  0  0  0
  2 10  1  0  0  0  0
  3  7  1  0  0  0  0
  4  1  1  0  0  0  0
  6  3  1  0  0  0  0
  6  8  1  0  0  0  0
  7  1  1  0  0  0  0
  8  4  1  0  0  0  0
  9 10  1  0  0  0  0
 10  6  2  0  0  0  0
 11 14  1  0  0  0  0
 12 35  1  6  0  0  0
 12 13  1  0  0  0  0
 12  2  1  0  0  0  0
 13  9  1  0  0  0  0
 14  3  2  0  0  0  0
 16 15  1  6  0  0  0
 16 17  1  0  0  0  0
 16 13  1  0  0  0  0
 18 17  1  0  0  0  0
 19 18  1  0  0  0  0
 19 20  1  0  0  0  0
 21 19  1  0  0  0  0
 22 32  1  1  0  0  0
 22 21  1  0  0  0  0
 23 24  1  0  0  0  0
 24 22  1  0  0  0  0
 25 23  2  0  0  0  0
 26 23  1  0  0  0  0
 26 31  2  0  0  0  0
 27 31  1  0  0  0  0
 28 30  1  0  0  0  0
 28 29  1  0  0  0  0
 29 27  1  0  0  0  0
 30 26  1  0  0  0  0
 34 33  1  0  0  0  0
 34 32  1  0  0  0  0
 36 35  1  0  0  0  0
 37 40  2  0  0  0  0
 37 39  1  0  0  0  0
 38 43  1  0  0  0  0
 39 38  2  0  0  0  0
 40 41  1  0  0  0  0
 41 36  1  0  0  0  0
 41 43  2  0  0  0  0
 42 39  1  0  0  0  0
M  END
>  <MODEL>
3

>  <REMARK>
 VINA RESULT:      -7.4      3.326      9.490
  Name = 
  13 active torsions:
  status: ('A' for Active; 'I' for Inactive)
    1  A    between atoms: C_1  and  O_28
    2  A    between atoms: C_1  and  C_34
    3  A    between atoms: C_2  and  C_6
    4  A    between atoms: C_2  and  C_13
    5  A    between atoms: C_3  and  C_4
    6  A    between atoms: C_3  and  N_12
    7  A    between atoms: C_4  and  C_15
    8  A    between atoms: C_4  and  N_22
    9  A    between atoms: C_6  and  N_12
   10  A    between atoms: C_11  and  C_14
   11  A    between atoms: C_13  and  N_38
   12  A    between atoms: C_15  and  C_42
   13  A    between atoms: O_28  and  C_35
                            x       y       z     vdW  Elec       q    Type
                         _______ _______ _______ _____ _____    ______ ____

>  <TORSDO>
F 13

$$$$
=
 OpenBabel10262422283D

 43 47  0  0  1  0  0  0  0  0999 V2000
  185.5750  178.7290  146.0670 C   0  0  0  0  0  0  0  0  0  0  0  0
  187.4630  177.7010  141.5540 C   0  0  0  0  0  0  0  0  0  0  0  0
  186.6960  177.5710  144.1890 C   0  0  0  0  0  0  0  0  0  0  0  0
  184.8130  179.5950  145.0930 C   0  0  0  0  0  2  0  0  0  0  0  0
  185.5830  179.0460  147.3080 N   0  0  0  0  0  2  0  0  0  0  0  0
  185.9080  178.2870  143.2680 C   0  0  0  0  0  0  0  0  0  0  0  0
  186.2770  177.4750  145.6250 C   0  0  0  0  0  2  0  0  0  0  0  0
  184.6370  178.9370  143.7210 C   0  0  0  0  0  2  0  0  0  0  0  0
  185.6920  178.9830  140.7750 C   0  0  0  0  0  2  0  0  0  0  0  0
  186.3240  178.3260  141.9370 C   0  0  0  0  0  0  0  0  0  0  0  0
  188.2280  176.9970  142.4290 N   0  0  0  0  0  0  0  0  0  0  0  0
  187.7130  177.9030  140.1150 C   0  0  1  0  0  3  0  0  0  0  0  0
  186.5730  178.7110  139.6180 N   0  0  0  0  0  0  0  0  0  0  0  0
  187.8610  176.9200  143.7410 C   0  0  0  0  0  3  0  0  0  0  0  0
  186.4110  177.9890  137.2300 C   0  0  0  0  0  1  0  0  0  0  0  0
  185.7890  177.9540  138.6270 C   0  0  2  0  0  3  0  0  0  0  0  0
  184.3560  178.4880  138.5480 C   0  0  0  0  0  2  0  0  0  0  0  0
  183.3430  177.3550  138.4210 C   0  0  0  0  0  2  0  0  0  0  0  0
  182.8350  176.9840  139.7350 N   0  0  0  0  0  0  0  0  0  0  0  0
  181.9070  175.8780  139.5670 C   0  0  0  0  0  1  0  0  0  0  0  0
  182.1420  178.0930  140.4150 C   0  0  0  0  0  2  0  0  0  0  0  0
  180.8800  178.6680  139.7310 C   0  0  2  0  0  3  0  0  0  0  0  0
  180.5530  180.2520  137.7760 C   0  0  0  0  0  0  0  0  0  0  0  0
  181.1570  179.9150  139.0280 N   0  0  0  0  0  2  0  0  0  0  0  0
  179.8060  179.4210  137.1910 O   0  0  0  0  0  0  0  0  0  0  0  0
  180.8070  181.5740  137.1840 C   0  0  0  0  0  0  0  0  0  0  0  0
  181.5150  183.9410  137.3560 C   0  0  0  0  0  2  0  0  0  0  0  0
  180.8080  183.0670  135.1400 C   0  0  0  0  0  2  0  0  0  0  0  0
  180.6340  184.2090  136.1390 C   0  0  0  0  0  2  0  0  0  0  0  0
  180.5300  181.7910  135.7930 N   0  0  0  0  0  2  0  0  0  0  0  0
  181.2260  182.5910  137.9480 C   0  0  0  0  0  3  0  0  0  0  0  0
  179.7250  178.8480  140.7130 C   0  0  0  0  0  2  0  0  0  0  0  0
  179.0820  176.7120  141.5730 O   0  0  0  0  0  1  0  0  0  0  0  0
  179.8140  177.8620  141.8670 C   0  0  0  0  0  2  0  0  0  0  0  0
  189.0060  178.6850  139.9310 C   0  0  0  0  0  2  0  0  0  0  0  0
  190.1180  177.8000  139.9480 O   0  0  0  0  0  0  0  0  0  0  0  0
  192.3660  175.9850  137.6080 C   0  0  0  0  0  3  0  0  0  0  0  0
  190.3810  176.7160  136.4300 C   0  0  0  0  0  3  0  0  0  0  0  0
  191.6190  176.0650  136.4300 C   0  0  0  0  0  0  0  0  0  0  0  0
  191.8770  176.5590  138.7830 C   0  0  0  0  0  3  0  0  0  0  0  0
  190.6360  177.2170  138.7880 C   0  0  0  0  0  0  0  0  0  0  0  0
  192.1400  175.4590  135.1770 C   0  0  0  0  0  1  0  0  0  0  0  0
  189.8920  177.2920  137.6060 C   0  0  0  0  0  3  0  0  0  0  0  0
  1  5  2  0  0  0  0
  2 10  2  0  0  0  0
  2 11  1  0  0  0  0
  3  7  1  0  0  0  0
  4  1  1  0  0  0  0
  6  8  1  0  0  0  0
  6  3  2  0  0  0  0
  7  1  1  0  0  0  0
  8  4  1  0  0  0  0
  9 10  1  0  0  0  0
 10  6  1  0  0  0  0
 11 14  2  0  0  0  0
 12 35  1  1  0  0  0
 12  2  1  0  0  0  0
 13 12  1  0  0  0  0
 13  9  1  0  0  0  0
 14  3  1  0  0  0  0
 16 15  1  6  0  0  0
 16 13  1  0  0  0  0
 17 16  1  0  0  0  0
 18 17  1  0  0  0  0
 18 19  1  0  0  0  0
 19 21  1  0  0  0  0
 20 19  1  0  0  0  0
 22 21  1  1  0  0  0
 22 32  1  0  0  0  0
 23 24  1  0  0  0  0
 24 22  1  0  0  0  0
 25 23  2  0  0  0  0
 26 23  1  0  0  0  0
 26 31  2  0  0  0  0
 27 31  1  0  0  0  0
 28 30  1  0  0  0  0
 28 29  1  0  0  0  0
 29 27  1  0  0  0  0
 30 26  1  0  0  0  0
 32 34  1  0  0  0  0
 33 34  1  0  0  0  0
 35 36  1  0  0  0  0
 37 40  1  0  0  0  0
 38 43  2  0  0  0  0
 39 38  1  0  0  0  0
 39 37  2  0  0  0  0
 40 41  2  0  0  0  0
 41 36  1  0  0  0  0
 42 39  1  0  0  0  0
 43 41  1  0  0  0  0
M  END
>  <MODEL>
4

>  <REMARK>
 VINA RESULT:      -7.2      4.072      9.191
  Name = 
  13 active torsions:
  status: ('A' for Active; 'I' for Inactive)
    1  A    between atoms: C_1  and  O_28
    2  A    between atoms: C_1  and  C_34
    3  A    between atoms: C_2  and  C_6
    4  A    between atoms: C_2  and  C_13
    5  A    between atoms: C_3  and  C_4
    6  A    between atoms: C_3  and  N_12
    7  A    between atoms: C_4  and  C_15
    8  A    between atoms: C_4  and  N_22
    9  A    between atoms: C_6  and  N_12
   10  A    between atoms: C_11  and  C_14
   11  A    between atoms: C_13  and  N_38
   12  A    between atoms: C_15  and  C_42
   13  A    between atoms: O_28  and  C_35
                            x       y       z     vdW  Elec       q    Type
                         _______ _______ _______ _____ _____    ______ ____

>  <TORSDO>
F 13

$$$$
=
 OpenBabel10262422283D

 43 47  0  0  1  0  0  0  0  0999 V2000
  192.1750  175.6340  147.4470 C   0  0  0  0  0  0  0  0  0  0  0  0
  188.5240  177.6820  144.7140 C   0  0  0  0  0  0  0  0  0  0  0  0
  190.4190  177.1790  146.6400 C   0  0  0  0  0  0  0  0  0  0  0  0
  192.3330  175.0680  146.0560 C   0  0  0  0  0  2  0  0  0  0  0  0
  192.7090  175.0170  148.4340 N   0  0  0  0  0  2  0  0  0  0  0  0
  190.6360  176.7470  145.3180 C   0  0  0  0  0  0  0  0  0  0  0  0
  191.4550  176.9300  147.6940 C   0  0  0  0  0  2  0  0  0  0  0  0
  191.9160  176.0540  144.9610 C   0  0  0  0  0  2  0  0  0  0  0  0
  189.6300  176.7040  142.9240 C   0  0  0  0  0  2  0  0  0  0  0  0
  189.6570  177.0250  144.3650 C   0  0  0  0  0  0  0  0  0  0  0  0
  188.3050  178.1140  145.9840 N   0  0  0  0  0  0  0  0  0  0  0  0
  187.6280  177.8350  143.5540 C   0  0  1  0  0  3  0  0  0  0  0  0
  188.3430  177.2220  142.4090 N   0  0  0  0  0  0  0  0  0  0  0  0
  189.2370  177.8760  146.9520 C   0  0  0  0  0  3  0  0  0  0  0  0
  187.6270  179.3720  141.3530 C   0  0  0  0  0  1  0  0  0  0  0  0
  188.6470  178.2320  141.3810 C   0  0  2  0  0  3  0  0  0  0  0  0
  188.7140  177.5890  139.9930 C   0  0  0  0  0  2  0  0  0  0  0  0
  189.2880  178.5500  138.9580 C   0  0  0  0  0  2  0  0  0  0  0  0
  188.4100  178.6240  137.7980 N   0  0  0  0  0  0  0  0  0  0  0  0
  187.2350  177.8120  138.0640 C   0  0  0  0  0  1  0  0  0  0  0  0
  189.0550  178.1430  136.5620 C   0  0  0  0  0  2  0  0  0  0  0  0
  189.1920  176.6130  136.3800 C   0  0  2  0  0  3  0  0  0  0  0  0
  190.9100  174.8990  137.1190 C   0  0  0  0  0  0  0  0  0  0  0  0
  190.5690  176.1630  136.5440 N   0  0  0  0  0  2  0  0  0  0  0  0
  190.0070  174.1530  137.5860 O   0  0  0  0  0  0  0  0  0  0  0  0
  192.3180  174.4770  137.1550 C   0  0  0  0  0  0  0  0  0  0  0  0
  194.1530  172.9450  136.5070 C   0  0  0  0  0  2  0  0  0  0  0  0
  194.6750  174.8650  137.9940 C   0  0  0  0  0  2  0  0  0  0  0  0
  194.8490  173.3610  137.8000 C   0  0  0  0  0  2  0  0  0  0  0  0
  193.2560  175.2090  137.9580 N   0  0  0  0  0  2  0  0  0  0  0  0
  192.7140  173.3770  136.5020 C   0  0  0  0  0  3  0  0  0  0  0  0
  188.6260  176.1400  135.0440 C   0  0  0  0  0  2  0  0  0  0  0  0
  187.5680  174.0120  135.3020 O   0  0  0  0  0  1  0  0  0  0  0  0
  187.3210  175.3820  135.2270 C   0  0  0  0  0  2  0  0  0  0  0  0
  186.3350  177.0750  143.8090 C   0  0  0  0  0  2  0  0  0  0  0  0
  185.3480  177.9520  144.3380 O   0  0  0  0  0  0  0  0  0  0  0  0
  181.8640  178.9910  143.5620 C   0  0  0  0  0  3  0  0  0  0  0  0
  183.0860  178.6360  141.5030 C   0  0  0  0  0  3  0  0  0  0  0  0
  181.9040  178.9830  142.1660 C   0  0  0  0  0  0  0  0  0  0  0  0
  183.0030  178.6490  144.2950 C   0  0  0  0  0  3  0  0  0  0  0  0
  184.1910  178.2970  143.6330 C   0  0  0  0  0  0  0  0  0  0  0  0
  180.6920  179.3420  141.3850 C   0  0  0  0  0  1  0  0  0  0  0  0
  184.2260  178.2920  142.2360 C   0  0  0  0  0  3  0  0  0  0  0  0
  1  7  1  0  0  0  0
  1  5  2  0  0  0  0
  2 11  1  0  0  0  0
  3 14  1  0  0  0  0
  3  7  1  0  0  0  0
  4  1  1  0  0  0  0
  6  3  2  0  0  0  0
  8  6  1  0  0  0  0
  8  4  1  0  0  0  0
  9 10  1  0  0  0  0
 10  2  2  0  0  0  0
 10  6  1  0  0  0  0
 11 14  2  0  0  0  0
 12 35  1  1  0  0  0
 12  2  1  0  0  0  0
 13  9  1  0  0  0  0
 13 12  1  0  0  0  0
 16 15  1  6  0  0  0
 16 13  1  0  0  0  0
 17 16  1  0  0  0  0
 18 17  1  0  0  0  0
 19 20  1  0  0  0  0
 19 18  1  0  0  0  0
 21 19  1  0  0  0  0
 22 32  1  6  0  0  0
 22 24  1  0  0  0  0
 22 21  1  0  0  0  0
 23 26  1  0  0  0  0
 23 25  2  0  0  0  0
 24 23  1  0  0  0  0
 26 30  1  0  0  0  0
 27 29  1  0  0  0  0
 29 28  1  0  0  0  0
 30 28  1  0  0  0  0
 31 27  1  0  0  0  0
 31 26  2  0  0  0  0
 32 34  1  0  0  0  0
 34 33  1  0  0  0  0
 35 36  1  0  0  0  0
 37 40  1  0  0  0  0
 38 39  1  0  0  0  0
 38 43  2  0  0  0  0
 39 37  2  0  0  0  0
 41 40  2  0  0  0  0
 41 36  1  0  0  0  0
 42 39  1  0  0  0  0
 43 41  1  0  0  0  0
M  END
>  <MODEL>
5

>  <REMARK>
 VINA RESULT:      -7.1      2.269      8.935
  Name = 
  13 active torsions:
  status: ('A' for Active; 'I' for Inactive)
    1  A    between atoms: C_1  and  O_28
    2  A    between atoms: C_1  and  C_34
    3  A    between atoms: C_2  and  C_6
    4  A    between atoms: C_2  and  C_13
    5  A    between atoms: C_3  and  C_4
    6  A    between atoms: C_3  and  N_12
    7  A    between atoms: C_4  and  C_15
    8  A    between atoms: C_4  and  N_22
    9  A    between atoms: C_6  and  N_12
   10  A    between atoms: C_11  and  C_14
   11  A    between atoms: C_13  and  N_38
   12  A    between atoms: C_15  and  C_42
   13  A    between atoms: O_28  and  C_35
                            x       y       z     vdW  Elec       q    Type
                         _______ _______ _______ _____ _____    ______ ____

>  <TORSDO>
F 13

$$$$
=
 OpenBabel10262422283D

 43 47  0  0  1  0  0  0  0  0999 V2000
  187.5120  178.2110  147.8790 C   0  0  0  0  0  0  0  0  0  0  0  0
  186.1700  178.0080  143.0680 C   0  0  0  0  0  0  0  0  0  0  0  0
  187.1160  177.4000  145.5750 C   0  0  0  0  0  0  0  0  0  0  0  0
  186.4520  179.2710  147.7010 C   0  0  0  0  0  2  0  0  0  0  0  0
  188.3030  178.2840  148.8840 N   0  0  0  0  0  2  0  0  0  0  0  0
  186.0450  178.3030  145.4340 C   0  0  0  0  0  0  0  0  0  0  0  0
  187.6270  177.0440  146.9390 C   0  0  0  0  0  2  0  0  0  0  0  0
  185.4020  178.8940  146.6510 C   0  0  0  0  0  2  0  0  0  0  0  0
  184.4880  179.4700  143.7140 C   0  0  0  0  0  2  0  0  0  0  0  0
  185.5870  178.5830  144.1470 C   0  0  0  0  0  0  0  0  0  0  0  0
  187.1980  177.1260  143.1890 N   0  0  0  0  0  0  0  0  0  0  0  0
  185.5390  178.4740  141.8200 C   0  0  1  0  0  3  0  0  0  0  0  0
  184.4560  179.3980  142.2370 N   0  0  0  0  0  0  0  0  0  0  0  0
  187.6780  176.8100  144.4270 C   0  0  0  0  0  3  0  0  0  0  0  0
  182.1800  178.7320  143.0280 C   0  0  0  0  0  1  0  0  0  0  0  0
  183.1390  178.8690  141.8430 C   0  0  2  0  0  3  0  0  0  0  0  0
  183.2840  177.5080  141.1590 C   0  0  0  0  0  2  0  0  0  0  0  0
  182.8020  177.5540  139.7130 C   0  0  0  0  0  2  0  0  0  0  0  0
  181.3460  177.5910  139.6680 N   0  0  0  0  0  0  0  0  0  0  0  0
  180.8420  176.3730  140.2790 C   0  0  0  0  0  1  0  0  0  0  0  0
  180.8190  177.6910  138.2940 C   0  0  0  0  0  2  0  0  0  0  0  0
  181.7240  178.3580  137.2320 C   0  0  2  0  0  3  0  0  0  0  0  0
  181.4290  180.8610  137.5220 C   0  0  0  0  0  0  0  0  0  0  0  0
  181.2020  179.6480  136.7990 N   0  0  0  0  0  2  0  0  0  0  0  0
  182.0350  180.8330  138.6280 O   0  0  0  0  0  0  0  0  0  0  0  0
  180.9540  182.1350  136.9630 C   0  0  0  0  0  0  0  0  0  0  0  0
  179.9620  183.4800  135.1350 C   0  0  0  0  0  2  0  0  0  0  0  0
  180.5820  184.6230  137.2530 C   0  0  0  0  0  2  0  0  0  0  0  0
  180.6920  184.6800  135.7310 C   0  0  0  0  0  2  0  0  0  0  0  0
  181.0790  183.3380  137.7360 N   0  0  0  0  0  2  0  0  0  0  0  0
  180.4740  182.1920  135.7140 C   0  0  0  0  0  3  0  0  0  0  0  0
  181.9700  177.4460  136.0320 C   0  0  0  0  0  2  0  0  0  0  0  0
  182.0650  175.2000  136.8470 O   0  0  0  0  0  1  0  0  0  0  0  0
  182.8500  176.2630  136.4020 C   0  0  0  0  0  2  0  0  0  0  0  0
  186.5630  179.2360  140.9900 C   0  0  0  0  0  2  0  0  0  0  0  0
  186.8050  178.5530  139.7670 O   0  0  0  0  0  0  0  0  0  0  0  0
  189.7460  177.5540  137.7230 C   0  0  0  0  0  3  0  0  0  0  0  0
  190.2330  177.2190  140.0700 C   0  0  0  0  0  3  0  0  0  0  0  0
  190.6260  177.1520  138.7300 C   0  0  0  0  0  0  0  0  0  0  0  0
  188.4730  178.0210  138.0560 C   0  0  0  0  0  3  0  0  0  0  0  0
  188.0720  178.0880  139.4010 C   0  0  0  0  0  0  0  0  0  0  0  0
  191.9800  176.6490  138.3770 C   0  0  0  0  0  1  0  0  0  0  0  0
  188.9570  177.6850  140.4040 C   0  0  0  0  0  3  0  0  0  0  0  0
  1  5  2  0  0  0  0
  2 11  2  0  0  0  0
  2 10  1  0  0  0  0
  3  7  1  0  0  0  0
  4  1  1  0  0  0  0
  6  3  1  0  0  0  0
  6  8  1  0  0  0  0
  7  1  1  0  0  0  0
  8  4  1  0  0  0  0
  9 10  1  0  0  0  0
 10  6  2  0  0  0  0
 11 14  1  0  0  0  0
 12 35  1  6  0  0  0
 12 13  1  0  0  0  0
 12  2  1  0  0  0  0
 13  9  1  0  0  0  0
 14  3  2  0  0  0  0
 16 13  1  0  0  0  0
 16 15  1  1  0  0  0
 17 16  1  0  0  0  0
 18 17  1  0  0  0  0
 19 18  1  0  0  0  0
 19 20  1  0  0  0  0
 21 19  1  0  0  0  0
 22 32  1  6  0  0  0
 22 21  1  0  0  0  0
 23 25  2  0  0  0  0
 24 22  1  0  0  0  0
 24 23  1  0  0  0  0
 26 23  1  0  0  0  0
 26 30  1  0  0  0  0
 27 31  1  0  0  0  0
 27 29  1  0  0  0  0
 28 30  1  0  0  0  0
 29 28  1  0  0  0  0
 31 26  2  0  0  0  0
 32 34  1  0  0  0  0
 34 33  1  0  0  0  0
 36 35  1  0  0  0  0
 37 40  2  0  0  0  0
 37 39  1  0  0  0  0
 38 43  1  0  0  0  0
 39 38  2  0  0  0  0
 40 41  1  0  0  0  0
 41 36  1  0  0  0  0
 41 43  2  0  0  0  0
 42 39  1  0  0  0  0
M  END
>  <MODEL>
6

>  <REMARK>
 VINA RESULT:      -7.1      4.003      9.804
  Name = 
  13 active torsions:
  status: ('A' for Active; 'I' for Inactive)
    1  A    between atoms: C_1  and  O_28
    2  A    between atoms: C_1  and  C_34
    3  A    between atoms: C_2  and  C_6
    4  A    between atoms: C_2  and  C_13
    5  A    between atoms: C_3  and  C_4
    6  A    between atoms: C_3  and  N_12
    7  A    between atoms: C_4  and  C_15
    8  A    between atoms: C_4  and  N_22
    9  A    between atoms: C_6  and  N_12
   10  A    between atoms: C_11  and  C_14
   11  A    between atoms: C_13  and  N_38
   12  A    between atoms: C_15  and  C_42
   13  A    between atoms: O_28  and  C_35
                            x       y       z     vdW  Elec       q    Type
                         _______ _______ _______ _____ _____    ______ ____

>  <TORSDO>
F 13

$$$$
=
 OpenBabel10262422283D

 43 47  0  0  1  0  0  0  0  0999 V2000
  187.3580  178.1520  147.7430 C   0  0  0  0  0  0  0  0  0  0  0  0
  187.0160  177.7450  142.7730 C   0  0  0  0  0  0  0  0  0  0  0  0
  187.5370  177.2870  145.4320 C   0  0  0  0  0  0  0  0  0  0  0  0
  186.2100  179.0420  147.3340 C   0  0  0  0  0  2  0  0  0  0  0  0
  187.9210  178.3420  148.8780 N   0  0  0  0  0  2  0  0  0  0  0  0
  186.3940  178.0210  145.0610 C   0  0  0  0  0  0  0  0  0  0  0  0
  187.8210  177.0130  146.8770 C   0  0  0  0  0  2  0  0  0  0  0  0
  185.4490  178.5120  146.1150 C   0  0  0  0  0  2  0  0  0  0  0  0
  185.0460  178.9410  143.0420 C   0  0  0  0  0  2  0  0  0  0  0  0
  186.1570  178.2280  143.7030 C   0  0  0  0  0  0  0  0  0  0  0  0
  188.1180  177.0260  143.1140 N   0  0  0  0  0  0  0  0  0  0  0  0
  186.5770  178.1100  141.4140 C   0  0  1  0  0  3  0  0  0  0  0  0
  185.3110  178.8630  141.5880 N   0  0  0  0  0  0  0  0  0  0  0  0
  188.3900  176.7860  144.4300 C   0  0  0  0  0  3  0  0  0  0  0  0
  184.1730  178.2740  139.4420 C   0  0  0  0  0  1  0  0  0  0  0  0
  184.1860  178.1450  140.9660 C   0  0  2  0  0  3  0  0  0  0  0  0
  182.8500  178.6460  141.5210 C   0  0  0  0  0  2  0  0  0  0  0  0
  181.9600  179.2050  140.4160 C   0  0  0  0  0  2  0  0  0  0  0  0
  180.5810  178.7790  140.6170 N   0  0  0  0  0  0  0  0  0  0  0  0
  180.4510  178.2880  141.9790 C   0  0  0  0  0  1  0  0  0  0  0  0
  180.1690  177.7150  139.6830 C   0  0  0  0  0  2  0  0  0  0  0  0
  180.4580  176.2540  140.0980 C   0  0  2  0  0  3  0  0  0  0  0  0
  181.8690  175.7720  138.0450 C   0  0  0  0  0  0  0  0  0  0  0  0
  181.6590  175.7290  139.4590 N   0  0  0  0  0  2  0  0  0  0  0  0
  180.9610  176.2040  137.2840 O   0  0  0  0  0  0  0  0  0  0  0  0
  183.1520  175.3150  137.4910 C   0  0  0  0  0  0  0  0  0  0  0  0
  185.0320  173.7060  137.3860 C   0  0  0  0  0  2  0  0  0  0  0  0
  185.0690  175.6800  135.8770 C   0  0  0  0  0  2  0  0  0  0  0  0
  185.8870  174.8620  136.8730 C   0  0  0  0  0  2  0  0  0  0  0  0
  183.8180  176.1080  136.4980 N   0  0  0  0  0  2  0  0  0  0  0  0
  183.7350  174.2030  137.9570 C   0  0  0  0  0  3  0  0  0  0  0  0
  179.2660  175.3360  139.8380 C   0  0  0  0  0  2  0  0  0  0  0  0
  179.2300  173.7250  141.6040 O   0  0  0  0  0  1  0  0  0  0  0  0
  179.5590  173.9060  140.2610 C   0  0  0  0  0  2  0  0  0  0  0  0
  187.6190  179.0150  140.7720 C   0  0  0  0  0  2  0  0  0  0  0  0
  187.8370  178.6270  139.4210 O   0  0  0  0  0  0  0  0  0  0  0  0
  190.3500  176.9140  137.2830 C   0  0  0  0  0  3  0  0  0  0  0  0
  191.1020  176.9140  139.5830 C   0  0  0  0  0  3  0  0  0  0  0  0
  191.3040  176.5710  138.2430 C   0  0  0  0  0  0  0  0  0  0  0  0
  189.1930  177.5970  137.6630 C   0  0  0  0  0  3  0  0  0  0  0  0
  188.9830  177.9420  139.0090 C   0  0  0  0  0  0  0  0  0  0  0  0
  192.5340  175.8390  137.8410 C   0  0  0  0  0  1  0  0  0  0  0  0
  189.9430  177.5960  139.9650 C   0  0  0  0  0  3  0  0  0  0  0  0
  1  5  2  0  0  0  0
  2 11  2  0  0  0  0
  2 10  1  0  0  0  0
  3  7  1  0  0  0  0
  4  1  1  0  0  0  0
  6  3  1  0  0  0  0
  6  8  1  0  0  0  0
  7  1  1  0  0  0  0
  8  4  1  0  0  0  0
  9 10  1  0  0  0  0
 10  6  2  0  0  0  0
 11 14  1  0  0  0  0
 12 35  1  1  0  0  0
 12 13  1  0  0  0  0
 12  2  1  0  0  0  0
 13  9  1  0  0  0  0
 14  3  2  0  0  0  0
 16 15  1  6  0  0  0
 16 17  1  0  0  0  0
 16 13  1  0  0  0  0
 18 19  1  0  0  0  0
 18 17  1  0  0  0  0
 19 20  1  0  0  0  0
 21 19  1  0  0  0  0
 22 21  1  6  0  0  0
 23 24  1  0  0  0  0
 24 22  1  0  0  0  0
 25 23  2  0  0  0  0
 26 31  2  0  0  0  0
 26 23  1  0  0  0  0
 27 31  1  0  0  0  0
 28 30  1  0  0  0  0
 28 29  1  0  0  0  0
 29 27  1  0  0  0  0
 30 26  1  0  0  0  0
 32 22  1  0  0  0  0
 32 34  1  0  0  0  0
 34 33  1  0  0  0  0
 36 35  1  0  0  0  0
 37 40  2  0  0  0  0
 37 39  1  0  0  0  0
 38 43  1  0  0  0  0
 39 38  2  0  0  0  0
 40 41  1  0  0  0  0
 41 36  1  0  0  0  0
 41 43  2  0  0  0  0
 42 39  1  0  0  0  0
M  END
>  <MODEL>
7

>  <REMARK>
 VINA RESULT:      -7.0      3.245      9.305
  Name = 
  13 active torsions:
  status: ('A' for Active; 'I' for Inactive)
    1  A    between atoms: C_1  and  O_28
    2  A    between atoms: C_1  and  C_34
    3  A    between atoms: C_2  and  C_6
    4  A    between atoms: C_2  and  C_13
    5  A    between atoms: C_3  and  C_4
    6  A    between atoms: C_3  and  N_12
    7  A    between atoms: C_4  and  C_15
    8  A    between atoms: C_4  and  N_22
    9  A    between atoms: C_6  and  N_12
   10  A    between atoms: C_11  and  C_14
   11  A    between atoms: C_13  and  N_38
   12  A    between atoms: C_15  and  C_42
   13  A    between atoms: O_28  and  C_35
                            x       y       z     vdW  Elec       q    Type
                         _______ _______ _______ _____ _____    ______ ____

>  <TORSDO>
F 13

$$$$
=
 OpenBabel10262422283D

 43 47  0  0  1  0  0  0  0  0999 V2000
  184.7990  178.8800  144.9860 C   0  0  0  0  0  0  0  0  0  0  0  0
  188.6280  177.1690  142.2650 C   0  0  0  0  0  0  0  0  0  0  0  0
  186.5940  177.4280  144.0940 C   0  0  0  0  0  0  0  0  0  0  0  0
  184.7580  179.6470  143.6860 C   0  0  0  0  0  2  0  0  0  0  0  0
  184.1970  179.3580  146.0100 N   0  0  0  0  0  2  0  0  0  0  0  0
  186.4860  178.0550  142.8380 C   0  0  0  0  0  0  0  0  0  0  0  0
  185.4820  177.5450  145.0930 C   0  0  0  0  0  2  0  0  0  0  0  0
  185.2480  178.8230  142.4920 C   0  0  0  0  0  2  0  0  0  0  0  0
  187.6780  178.4240  140.5610 C   0  0  0  0  0  2  0  0  0  0  0  0
  187.5340  177.8960  141.9320 C   0  0  0  0  0  0  0  0  0  0  0  0
  188.7410  176.5490  143.4700 N   0  0  0  0  0  0  0  0  0  0  0  0
  189.6100  177.1650  141.1660 C   0  0  1  0  0  3  0  0  0  0  0  0
  188.9950  177.9570  140.0740 N   0  0  0  0  0  0  0  0  0  0  0  0
  187.7390  176.6650  144.3890 C   0  0  0  0  0  3  0  0  0  0  0  0
  190.0060  176.9720  138.0100 C   0  0  0  0  0  1  0  0  0  0  0  0
  188.7600  177.1170  138.8870 C   0  0  2  0  0  3  0  0  0  0  0  0
  187.6170  177.6820  138.0400 C   0  0  0  0  0  2  0  0  0  0  0  0
  186.8190  176.5720  137.3650 C   0  0  0  0  0  2  0  0  0  0  0  0
  186.3660  177.0060  136.0500 N   0  0  0  0  0  0  0  0  0  0  0  0
  187.0400  178.2530  135.7260 C   0  0  0  0  0  1  0  0  0  0  0  0
  184.9080  177.2190  135.9890 C   0  0  0  0  0  2  0  0  0  0  0  0
  184.0840  176.8590  137.2470 C   0  0  2  0  0  3  0  0  0  0  0  0
  183.2190  174.4740  137.2720 C   0  0  0  0  0  0  0  0  0  0  0  0
  183.0590  175.8610  136.9640 N   0  0  0  0  0  2  0  0  0  0  0  0
  184.3140  174.0520  137.7360 O   0  0  0  0  0  0  0  0  0  0  0  0
  182.0980  173.5500  137.0480 C   0  0  0  0  0  0  0  0  0  0  0  0
  179.6960  172.9630  137.1810 C   0  0  0  0  0  2  0  0  0  0  0  0
  181.2720  171.3100  136.2030 C   0  0  0  0  0  2  0  0  0  0  0  0
  180.1360  171.5020  137.2050 C   0  0  0  0  0  2  0  0  0  0  0  0
  182.3520  172.2510  136.4930 N   0  0  0  0  0  2  0  0  0  0  0  0
  180.8570  173.8840  137.4240 C   0  0  0  0  0  3  0  0  0  0  0  0
  183.4680  178.0920  137.9040 C   0  0  0  0  0  2  0  0  0  0  0  0
  184.9150  179.7500  138.8380 O   0  0  0  0  0  1  0  0  0  0  0  0
  184.2730  178.5430  139.1120 C   0  0  0  0  0  2  0  0  0  0  0  0
  190.8890  177.8490  141.6290 C   0  0  0  0  0  2  0  0  0  0  0  0
  191.7890  176.8890  142.1660 O   0  0  0  0  0  0  0  0  0  0  0  0
  192.0900  174.9720  145.3370 C   0  0  0  0  0  3  0  0  0  0  0  0
  191.6780  177.3060  145.8320 C   0  0  0  0  0  3  0  0  0  0  0  0
  191.9000  175.9960  146.2690 C   0  0  0  0  0  0  0  0  0  0  0  0
  192.0540  175.2570  143.9710 C   0  0  0  0  0  3  0  0  0  0  0  0
  191.8280  176.5710  143.5270 C   0  0  0  0  0  0  0  0  0  0  0  0
  191.9320  175.6930  147.7230 C   0  0  0  0  0  1  0  0  0  0  0  0
  191.6400  177.5920  144.4630 C   0  0  0  0  0  3  0  0  0  0  0  0
  1  7  1  0  0  0  0
  1  5  2  0  0  0  0
  2 11  1  0  0  0  0
  3 14  1  0  0  0  0
  3  7  1  0  0  0  0
  4  1  1  0  0  0  0
  6  3  2  0  0  0  0
  8  6  1  0  0  0  0
  8  4  1  0  0  0  0
  9 10  1  0  0  0  0
 10  2  2  0  0  0  0
 10  6  1  0  0  0  0
 11 14  2  0  0  0  0
 12 35  1  1  0  0  0
 12  2  1  0  0  0  0
 13  9  1  0  0  0  0
 13 12  1  0  0  0  0
 16 15  1  6  0  0  0
 16 13  1  0  0  0  0
 17 16  1  0  0  0  0
 18 17  1  0  0  0  0
 19 18  1  0  0  0  0
 20 19  1  0  0  0  0
 21 19  1  0  0  0  0
 22 21  1  6  0  0  0
 22 32  1  0  0  0  0
 23 25  2  0  0  0  0
 24 22  1  0  0  0  0
 24 23  1  0  0  0  0
 26 23  1  0  0  0  0
 26 31  2  0  0  0  0
 27 29  1  0  0  0  0
 27 31  1  0  0  0  0
 28 30  1  0  0  0  0
 28 29  1  0  0  0  0
 30 26  1  0  0  0  0
 32 34  1  0  0  0  0
 33 34  1  0  0  0  0
 35 36  1  0  0  0  0
 36 41  1  0  0  0  0
 37 39  1  0  0  0  0
 38 39  2  0  0  0  0
 39 42  1  0  0  0  0
 40 37  2  0  0  0  0
 41 40  1  0  0  0  0
 41 43  2  0  0  0  0
 43 38  1  0  0  0  0
M  END
>  <MODEL>
8

>  <REMARK>
 VINA RESULT:      -7.0      3.068      9.487
  Name = 
  13 active torsions:
  status: ('A' for Active; 'I' for Inactive)
    1  A    between atoms: C_1  and  O_28
    2  A    between atoms: C_1  and  C_34
    3  A    between atoms: C_2  and  C_6
    4  A    between atoms: C_2  and  C_13
    5  A    between atoms: C_3  and  C_4
    6  A    between atoms: C_3  and  N_12
    7  A    between atoms: C_4  and  C_15
    8  A    between atoms: C_4  and  N_22
    9  A    between atoms: C_6  and  N_12
   10  A    between atoms: C_11  and  C_14
   11  A    between atoms: C_13  and  N_38
   12  A    between atoms: C_15  and  C_42
   13  A    between atoms: O_28  and  C_35
                            x       y       z     vdW  Elec       q    Type
                         _______ _______ _______ _____ _____    ______ ____

>  <TORSDO>
F 13

$$$$
=
 OpenBabel10262422283D

 43 47  0  0  1  0  0  0  0  0999 V2000
  187.5900  177.8680  147.5780 C   0  0  0  0  0  0  0  0  0  0  0  0
  187.6690  177.7430  142.5810 C   0  0  0  0  0  0  0  0  0  0  0  0
  187.9600  177.1320  145.2450 C   0  0  0  0  0  0  0  0  0  0  0  0
  186.4860  178.7930  147.1240 C   0  0  0  0  0  2  0  0  0  0  0  0
  188.0550  177.9900  148.7650 N   0  0  0  0  0  2  0  0  0  0  0  0
  186.8570  177.8980  144.8210 C   0  0  0  0  0  0  0  0  0  0  0  0
  188.1180  176.7750  146.6920 C   0  0  0  0  0  2  0  0  0  0  0  0
  185.8290  178.3390  145.8170 C   0  0  0  0  0  2  0  0  0  0  0  0
  185.6910  178.9440  142.7500 C   0  0  0  0  0  2  0  0  0  0  0  0
  186.7380  178.1830  143.4610 C   0  0  0  0  0  0  0  0  0  0  0  0
  188.7330  176.9940  142.9740 N   0  0  0  0  0  0  0  0  0  0  0  0
  187.3500  178.1880  141.2130 C   0  0  1  0  0  3  0  0  0  0  0  0
  186.0780  178.9440  141.3220 N   0  0  0  0  0  0  0  0  0  0  0  0
  188.8920  176.6790  144.2920 C   0  0  0  0  0  3  0  0  0  0  0  0
  184.8380  178.8340  139.1540 C   0  0  0  0  0  1  0  0  0  0  0  0
  185.0050  178.2730  140.5680 C   0  0  2  0  0  3  0  0  0  0  0  0
  183.6710  178.3830  141.3090 C   0  0  0  0  0  2  0  0  0  0  0  0
  182.6620  177.3590  140.8020 C   0  0  0  0  0  2  0  0  0  0  0  0
  181.3960  178.0100  140.4930 N   0  0  0  0  0  0  0  0  0  0  0  0
  181.1550  177.8800  139.0650 C   0  0  0  0  0  1  0  0  0  0  0  0
  181.3850  179.4400  140.8520 C   0  0  0  0  0  2  0  0  0  0  0  0
  180.0250  180.1740  140.8060 C   0  0  2  0  0  3  0  0  0  0  0  0
  179.5580  181.4250  138.6480 C   0  0  0  0  0  0  0  0  0  0  0  0
  180.0780  181.3750  139.9800 N   0  0  0  0  0  2  0  0  0  0  0  0
  179.1000  180.3810  138.1080 O   0  0  0  0  0  0  0  0  0  0  0  0
  179.5590  182.7020  137.9200 C   0  0  0  0  0  0  0  0  0  0  0  0
  180.1170  184.0840  135.9420 C   0  0  0  0  0  2  0  0  0  0  0  0
  178.9440  185.1580  137.8520 C   0  0  0  0  0  2  0  0  0  0  0  0
  180.1170  185.2860  136.8820 C   0  0  0  0  0  2  0  0  0  0  0  0
  179.0140  183.8740  138.5450 N   0  0  0  0  0  2  0  0  0  0  0  0
  180.1280  182.7940  136.7120 C   0  0  0  0  0  3  0  0  0  0  0  0
  179.5020  180.5040  142.2020 C   0  0  0  0  0  2  0  0  0  0  0  0
  178.9720  178.2340  142.7350 O   0  0  0  0  0  1  0  0  0  0  0  0
  179.7030  179.3430  143.1620 C   0  0  0  0  0  2  0  0  0  0  0  0
  188.4480  179.1150  140.7130 C   0  0  0  0  0  2  0  0  0  0  0  0
  188.6010  178.9780  139.3070 O   0  0  0  0  0  0  0  0  0  0  0  0
  191.2650  176.4170  138.8980 C   0  0  0  0  0  3  0  0  0  0  0  0
  190.2960  176.9360  136.7410 C   0  0  0  0  0  3  0  0  0  0  0  0
  191.2140  176.2200  137.5160 C   0  0  0  0  0  0  0  0  0  0  0  0
  190.4010  177.3320  139.5040 C   0  0  0  0  0  3  0  0  0  0  0  0
  189.4800  178.0560  138.7300 C   0  0  0  0  0  0  0  0  0  0  0  0
  192.1350  175.2500  136.8690 C   0  0  0  0  0  1  0  0  0  0  0  0
  189.4320  177.8540  137.3470 C   0  0  0  0  0  3  0  0  0  0  0  0
  1  5  2  0  0  0  0
  2 11  2  0  0  0  0
  2 10  1  0  0  0  0
  3  7  1  0  0  0  0
  4  1  1  0  0  0  0
  6  3  1  0  0  0  0
  6  8  1  0  0  0  0
  7  1  1  0  0  0  0
  8  4  1  0  0  0  0
  9 10  1  0  0  0  0
 10  6  2  0  0  0  0
 11 14  1  0  0  0  0
 12 35  1  1  0  0  0
 12 13  1  0  0  0  0
 12  2  1  0  0  0  0
 13  9  1  0  0  0  0
 14  3  2  0  0  0  0
 16 15  1  6  0  0  0
 16 17  1  0  0  0  0
 16 13  1  0  0  0  0
 18 17  1  0  0  0  0
 19 18  1  0  0  0  0
 19 21  1  0  0  0  0
 20 19  1  0  0  0  0
 22 21  1  1  0  0  0
 22 32  1  0  0  0  0
 23 24  1  0  0  0  0
 24 22  1  0  0  0  0
 25 23  2  0  0  0  0
 26 30  1  0  0  0  0
 26 23  1  0  0  0  0
 27 31  1  0  0  0  0
 27 29  1  0  0  0  0
 28 30  1  0  0  0  0
 29 28  1  0  0  0  0
 31 26  2  0  0  0  0
 32 34  1  0  0  0  0
 33 34  1  0  0  0  0
 36 35  1  0  0  0  0
 37 40  1  0  0  0  0
 38 43  2  0  0  0  0
 38 39  1  0  0  0  0
 39 37  2  0  0  0  0
 41 36  1  0  0  0  0
 41 40  2  0  0  0  0
 42 39  1  0  0  0  0
 43 41  1  0  0  0  0
M  END
>  <MODEL>
9

>  <REMARK>
 VINA RESULT:      -7.0      4.485      9.304
  Name = 
  13 active torsions:
  status: ('A' for Active; 'I' for Inactive)
    1  A    between atoms: C_1  and  O_28
    2  A    between atoms: C_1  and  C_34
    3  A    between atoms: C_2  and  C_6
    4  A    between atoms: C_2  and  C_13
    5  A    between atoms: C_3  and  C_4
    6  A    between atoms: C_3  and  N_12
    7  A    between atoms: C_4  and  C_15
    8  A    between atoms: C_4  and  N_22
    9  A    between atoms: C_6  and  N_12
   10  A    between atoms: C_11  and  C_14
   11  A    between atoms: C_13  and  N_38
   12  A    between atoms: C_15  and  C_42
   13  A    between atoms: O_28  and  C_35
                            x       y       z     vdW  Elec       q    Type
                         _______ _______ _______ _____ _____    ______ ____

>  <TORSDO>
F 13

$$$$
