=
 OpenBabel10262419583D

 25 28  0  0  1  0  0  0  0  0999 V2000
  189.4070  177.3780  145.7540 C   0  0  0  0  0  0  0  0  0  0  0  0
  188.1750  178.0490  145.5290 C   0  0  0  0  0  0  0  0  0  0  0  0
  188.8300  177.1670  148.1130 C   0  0  0  0  0  3  0  0  0  0  0  0
  190.3760  177.1550  144.7000 N   0  0  0  0  0  0  0  0  0  0  0  0
  186.5800  177.5270  143.7880 N   0  0  0  0  0  0  0  0  0  0  0  0
  187.6450  177.8620  147.8950 C   0  0  0  0  0  3  0  0  0  0  0  0
  191.3610  176.0860  144.8940 C   0  0  0  0  0  2  0  0  0  0  0  0
  191.9980  176.2340  146.2660 C   0  0  0  0  0  2  0  0  0  0  0  0
  185.9950  179.0340  146.3920 C   0  0  2  0  0  3  0  0  0  0  0  0
  185.3950  179.3950  147.6010 O   0  0  0  0  0  1  0  0  0  0  0  0
  187.7140  178.3740  144.1380 C   0  0  0  0  0  2  0  0  0  0  0  0
  189.7100  176.9250  147.0610 C   0  0  0  0  0  0  0  0  0  0  0  0
  190.9250  176.0860  147.3390 C   0  0  0  0  0  2  0  0  0  0  0  0
  185.0260  178.1880  145.5750 C   0  0  0  0  0  2  0  0  0  0  0  0
  185.3620  178.2710  144.0880 C   0  0  0  0  0  2  0  0  0  0  0  0
  187.3050  178.3120  146.6140 C   0  0  0  0  0  0  0  0  0  0  0  0
  191.9660  178.0580  143.0740 C   0  0  0  0  0  2  0  0  0  0  0  0
  191.6210  179.2080  143.9930 C   0  0  0  0  0  2  0  0  0  0  0  0
  190.5650  178.1670  143.6460 C   0  0  0  0  0  3  0  0  0  0  0  0
  186.6130  177.3500  142.3460 C   0  0  0  0  0  2  0  0  0  0  0  0
  188.1310  178.6820  141.0630 O   0  0  0  0  0  1  0  0  0  0  0  0
  186.8680  178.6840  141.6600 C   0  0  1  0  0  3  0  0  0  0  0  0
  185.8210  178.9430  140.6300 C   0  0  0  0  0  0  0  0  0  0  0  0
  184.7050  179.4250  140.9610 O   0  0  0  0  0  0  0  0  0  0  0  0
  186.0860  178.6460  139.2650 N   0  0  0  0  0  1  0  0  0  0  0  0
  1 12  1  0  0  0  0
  2  1  2  0  0  0  0
  2 16  1  0  0  0  0
  4  7  1  0  0  0  0
  4  1  1  0  0  0  0
  5 15  1  0  0  0  0
  5 11  1  0  0  0  0
  6  3  1  0  0  0  0
  7  8  1  0  0  0  0
  8 13  1  0  0  0  0
  9 16  1  0  0  0  0
  9 10  1  1  0  0  0
 11  2  1  0  0  0  0
 12 13  1  0  0  0  0
 12  3  2  0  0  0  0
 14  9  1  0  0  0  0
 15 14  1  0  0  0  0
 16  6  2  0  0  0  0
 17 19  1  0  0  0  0
 17 18  1  0  0  0  0
 19 18  1  0  0  0  0
 19  4  1  0  0  0  0
 20  5  1  0  0  0  0
 22 21  1  6  0  0  0
 22 20  1  0  0  0  0
 23 24  2  0  0  0  0
 23 22  1  0  0  0  0
 25 23  1  0  0  0  0
M  END
>  <MODEL>
1

>  <REMARK>
 VINA RESULT:      -8.0      0.000      0.000
  Name = 
  4 active torsions:
  status: ('A' for Active; 'I' for Inactive)
    1  A    between atoms: C_2  and  C_25
    2  A    between atoms: N_5  and  C_22
    3  A    between atoms: N_6  and  C_15
    4  A    between atoms: C_15  and  C_25
                            x       y       z     vdW  Elec       q    Type
                         _______ _______ _______ _____ _____    ______ ____

>  <TORSDO>
F 4

$$$$
=
 OpenBabel10262419583D

 25 28  0  0  1  0  0  0  0  0999 V2000
  187.6340  177.7960  145.1260 C   0  0  0  0  0  0  0  0  0  0  0  0
  188.5090  177.2920  144.1270 C   0  0  0  0  0  0  0  0  0  0  0  0
  189.2360  177.1170  146.8320 C   0  0  0  0  0  3  0  0  0  0  0  0
  186.3430  178.3740  144.8110 N   0  0  0  0  0  0  0  0  0  0  0  0
  189.2090  178.4730  142.1360 N   0  0  0  0  0  0  0  0  0  0  0  0
  190.0690  176.5870  145.8530 C   0  0  0  0  0  3  0  0  0  0  0  0
  185.7340  179.2660  145.8040 C   0  0  0  0  0  2  0  0  0  0  0  0
  185.7680  178.5940  147.1670 C   0  0  0  0  0  2  0  0  0  0  0  0
  190.6570  176.1110  143.4480 C   0  0  2  0  0  3  0  0  0  0  0  0
  191.6710  175.3370  144.0180 O   0  0  0  0  0  1  0  0  0  0  0  0
  188.2360  177.5270  142.6690 C   0  0  0  0  0  2  0  0  0  0  0  0
  188.0270  177.7150  146.4840 C   0  0  0  0  0  0  0  0  0  0  0  0
  187.2170  178.3550  147.5760 C   0  0  0  0  0  2  0  0  0  0  0  0
  191.2740  177.2290  142.6160 C   0  0  0  0  0  2  0  0  0  0  0  0
  190.2970  177.7040  141.5440 C   0  0  0  0  0  2  0  0  0  0  0  0
  189.7190  176.6620  144.5000 C   0  0  0  0  0  0  0  0  0  0  0  0
  185.1000  178.9580  142.7870 C   0  0  0  0  0  2  0  0  0  0  0  0
  184.0960  178.3070  143.7110 C   0  0  0  0  0  2  0  0  0  0  0  0
  185.5430  177.8300  143.7000 C   0  0  0  0  0  3  0  0  0  0  0  0
  188.5600  179.1800  141.0460 C   0  0  0  0  0  2  0  0  0  0  0  0
  186.6070  178.5220  139.8310 O   0  0  0  0  0  1  0  0  0  0  0  0
  187.9410  178.1870  140.0730 C   0  0  1  0  0  3  0  0  0  0  0  0
  188.7020  178.1790  138.7910 C   0  0  0  0  0  0  0  0  0  0  0  0
  189.0340  179.2610  138.2380 O   0  0  0  0  0  0  0  0  0  0  0  0
  189.0570  176.9410  138.1890 N   0  0  0  0  0  1  0  0  0  0  0  0
  1 12  1  0  0  0  0
  2 16  1  0  0  0  0
  2  1  2  0  0  0  0
  4  1  1  0  0  0  0
  4  7  1  0  0  0  0
  5 11  1  0  0  0  0
  6  3  1  0  0  0  0
  7  8  1  0  0  0  0
  8 13  1  0  0  0  0
  9 10  1  1  0  0  0
  9 16  1  0  0  0  0
 11  2  1  0  0  0  0
 12  3  2  0  0  0  0
 12 13  1  0  0  0  0
 14  9  1  0  0  0  0
 15  5  1  0  0  0  0
 15 14  1  0  0  0  0
 16  6  2  0  0  0  0
 17 19  1  0  0  0  0
 17 18  1  0  0  0  0
 19 18  1  0  0  0  0
 19  4  1  0  0  0  0
 20  5  1  0  0  0  0
 22 21  1  6  0  0  0
 22 20  1  0  0  0  0
 23 22  1  0  0  0  0
 24 23  2  0  0  0  0
 25 23  1  0  0  0  0
M  END
>  <MODEL>
2

>  <REMARK>
 VINA RESULT:      -7.9      2.337      4.738
  Name = 
  4 active torsions:
  status: ('A' for Active; 'I' for Inactive)
    1  A    between atoms: C_2  and  C_25
    2  A    between atoms: N_5  and  C_22
    3  A    between atoms: N_6  and  C_15
    4  A    between atoms: C_15  and  C_25
                            x       y       z     vdW  Elec       q    Type
                         _______ _______ _______ _____ _____    ______ ____

>  <TORSDO>
F 4

$$$$
=
 OpenBabel10262419583D

 25 28  0  0  1  0  0  0  0  0999 V2000
  189.3390  177.4630  145.7140 C   0  0  0  0  0  0  0  0  0  0  0  0
  188.1010  178.0890  145.4100 C   0  0  0  0  0  0  0  0  0  0  0  0
  188.4980  176.9440  147.9420 C   0  0  0  0  0  3  0  0  0  0  0  0
  190.4410  177.4180  144.7740 N   0  0  0  0  0  0  0  0  0  0  0  0
  186.7660  177.6940  143.4330 N   0  0  0  0  0  0  0  0  0  0  0  0
  187.3040  177.5970  147.6540 C   0  0  0  0  0  3  0  0  0  0  0  0
  191.4650  176.3860  144.9710 C   0  0  0  0  0  2  0  0  0  0  0  0
  191.9200  176.4050  146.4210 C   0  0  0  0  0  2  0  0  0  0  0  0
  185.7720  178.8500  146.0920 C   0  0  2  0  0  3  0  0  0  0  0  0
  185.0080  179.0330  147.2470 O   0  0  0  0  0  1  0  0  0  0  0  0
  187.7900  178.5520  144.0160 C   0  0  0  0  0  2  0  0  0  0  0  0
  189.5120  176.8750  146.9910 C   0  0  0  0  0  0  0  0  0  0  0  0
  190.7390  176.0750  147.3260 C   0  0  0  0  0  2  0  0  0  0  0  0
  184.9680  178.0560  145.0690 C   0  0  0  0  0  2  0  0  0  0  0  0
  185.4740  178.3310  143.6560 C   0  0  0  0  0  2  0  0  0  0  0  0
  187.0920  178.1760  146.3970 C   0  0  0  0  0  0  0  0  0  0  0  0
  191.9630  178.3210  143.0850 C   0  0  0  0  0  2  0  0  0  0  0  0
  191.9520  179.3310  144.2100 C   0  0  0  0  0  2  0  0  0  0  0  0
  190.6860  178.5550  143.8710 C   0  0  0  0  0  3  0  0  0  0  0  0
  186.9830  177.6900  141.9970 C   0  0  0  0  0  2  0  0  0  0  0  0
  188.9360  176.3090  141.9210 O   0  0  0  0  0  1  0  0  0  0  0  0
  188.4720  177.6070  141.6920 C   0  0  1  0  0  3  0  0  0  0  0  0
  188.7320  177.9950  140.2760 C   0  0  0  0  0  0  0  0  0  0  0  0
  187.8290  178.5420  139.5880 O   0  0  0  0  0  0  0  0  0  0  0  0
  190.0080  177.7490  139.7000 N   0  0  0  0  0  1  0  0  0  0  0  0
  1 12  1  0  0  0  0
  2  1  2  0  0  0  0
  2 16  1  0  0  0  0
  4  7  1  0  0  0  0
  4  1  1  0  0  0  0
  5 15  1  0  0  0  0
  5 11  1  0  0  0  0
  6  3  1  0  0  0  0
  7  8  1  0  0  0  0
  8 13  1  0  0  0  0
  9 16  1  0  0  0  0
  9 10  1  1  0  0  0
 11  2  1  0  0  0  0
 12 13  1  0  0  0  0
 12  3  2  0  0  0  0
 14  9  1  0  0  0  0
 15 14  1  0  0  0  0
 16  6  2  0  0  0  0
 17 19  1  0  0  0  0
 17 18  1  0  0  0  0
 19 18  1  0  0  0  0
 19  4  1  0  0  0  0
 20  5  1  0  0  0  0
 22 21  1  6  0  0  0
 22 20  1  0  0  0  0
 23 22  1  0  0  0  0
 24 23  2  0  0  0  0
 25 23  1  0  0  0  0
M  END
>  <MODEL>
3

>  <REMARK>
 VINA RESULT:      -7.8      1.265      1.443
  Name = 
  4 active torsions:
  status: ('A' for Active; 'I' for Inactive)
    1  A    between atoms: C_2  and  C_25
    2  A    between atoms: N_5  and  C_22
    3  A    between atoms: N_6  and  C_15
    4  A    between atoms: C_15  and  C_25
                            x       y       z     vdW  Elec       q    Type
                         _______ _______ _______ _____ _____    ______ ____

>  <TORSDO>
F 4

$$$$
=
 OpenBabel10262419583D

 25 28  0  0  1  0  0  0  0  0999 V2000
  188.0730  177.7490  145.5970 C   0  0  0  0  0  0  0  0  0  0  0  0
  188.0760  177.4010  144.2190 C   0  0  0  0  0  0  0  0  0  0  0  0
  190.4360  177.1640  145.7220 C   0  0  0  0  0  3  0  0  0  0  0  0
  186.8780  178.1950  146.2850 N   0  0  0  0  0  0  0  0  0  0  0  0
  187.2070  178.7590  142.4170 N   0  0  0  0  0  0  0  0  0  0  0  0
  190.4220  176.7830  144.3840 C   0  0  0  0  0  3  0  0  0  0  0  0
  187.0490  178.9580  147.5250 C   0  0  0  0  0  2  0  0  0  0  0  0
  188.0190  178.2220  148.4350 C   0  0  0  0  0  2  0  0  0  0  0  0
  189.2700  176.5080  142.1590 C   0  0  2  0  0  3  0  0  0  0  0  0
  190.4400  175.8230  141.8200 O   0  0  0  0  0  1  0  0  0  0  0  0
  186.8870  177.6830  143.3470 C   0  0  0  0  0  2  0  0  0  0  0  0
  189.2780  177.6390  146.3320 C   0  0  0  0  0  0  0  0  0  0  0  0
  189.3780  178.1250  147.7510 C   0  0  0  0  0  2  0  0  0  0  0  0
  189.1170  177.7300  141.2620 C   0  0  0  0  0  2  0  0  0  0  0  0
  187.6520  178.1500  141.1700 C   0  0  0  0  0  2  0  0  0  0  0  0
  189.2540  176.8920  143.6220 C   0  0  0  0  0  0  0  0  0  0  0  0
  184.5840  178.7440  145.6360 C   0  0  0  0  0  2  0  0  0  0  0  0
  184.4710  177.9680  146.9290 C   0  0  0  0  0  2  0  0  0  0  0  0
  185.5670  177.6250  145.9290 C   0  0  0  0  0  3  0  0  0  0  0  0
  185.9610  179.4460  142.1210 C   0  0  0  0  0  2  0  0  0  0  0  0
  183.8220  178.4550  142.5240 O   0  0  0  0  0  1  0  0  0  0  0  0
  184.9120  178.4500  141.6510 C   0  0  1  0  0  3  0  0  0  0  0  0
  184.4580  178.7910  140.2720 C   0  0  0  0  0  0  0  0  0  0  0  0
  184.9060  179.8130  139.6860 O   0  0  0  0  0  0  0  0  0  0  0  0
  183.5170  177.9550  139.6120 N   0  0  0  0  0  1  0  0  0  0  0  0
  1  4  1  0  0  0  0
  1 12  1  0  0  0  0
  2  1  2  0  0  0  0
  3 12  2  0  0  0  0
  4  7  1  0  0  0  0
  5 11  1  0  0  0  0
  6  3  1  0  0  0  0
  7  8  1  0  0  0  0
  9 10  1  6  0  0  0
  9 16  1  0  0  0  0
 11  2  1  0  0  0  0
 12 13  1  0  0  0  0
 13  8  1  0  0  0  0
 14  9  1  0  0  0  0
 15 14  1  0  0  0  0
 15  5  1  0  0  0  0
 16  2  1  0  0  0  0
 16  6  2  0  0  0  0
 17 19  1  0  0  0  0
 17 18  1  0  0  0  0
 19  4  1  0  0  0  0
 19 18  1  0  0  0  0
 20  5  1  0  0  0  0
 22 20  1  0  0  0  0
 22 21  1  1  0  0  0
 23 22  1  0  0  0  0
 24 23  2  0  0  0  0
 25 23  1  0  0  0  0
M  END
>  <MODEL>
4

>  <REMARK>
 VINA RESULT:      -7.5      2.124      4.408
  Name = 
  4 active torsions:
  status: ('A' for Active; 'I' for Inactive)
    1  A    between atoms: C_2  and  C_25
    2  A    between atoms: N_5  and  C_22
    3  A    between atoms: N_6  and  C_15
    4  A    between atoms: C_15  and  C_25
                            x       y       z     vdW  Elec       q    Type
                         _______ _______ _______ _____ _____    ______ ____

>  <TORSDO>
F 4

$$$$
=
 OpenBabel10262419583D

 25 28  0  0  1  0  0  0  0  0999 V2000
  187.2410  177.9750  145.6060 C   0  0  0  0  0  0  0  0  0  0  0  0
  188.5030  177.3890  145.3210 C   0  0  0  0  0  0  0  0  0  0  0  0
  187.7280  177.7990  147.9880 C   0  0  0  0  0  3  0  0  0  0  0  0
  186.3010  178.3440  144.5670 N   0  0  0  0  0  0  0  0  0  0  0  0
  190.1380  178.2460  143.7580 N   0  0  0  0  0  0  0  0  0  0  0  0
  188.9440  177.1870  147.7040 C   0  0  0  0  0  3  0  0  0  0  0  0
  185.2720  179.3350  144.8980 C   0  0  0  0  0  2  0  0  0  0  0  0
  184.5940  178.9370  146.1980 C   0  0  0  0  0  2  0  0  0  0  0  0
  190.6870  176.3370  146.0920 C   0  0  2  0  0  3  0  0  0  0  0  0
  191.2570  175.7940  147.2460 O   0  0  0  0  0  1  0  0  0  0  0  0
  189.0240  177.3180  143.9140 C   0  0  0  0  0  2  0  0  0  0  0  0
  186.8770  178.1900  146.9570 C   0  0  0  0  0  0  0  0  0  0  0  0
  185.6230  178.9330  147.3240 C   0  0  0  0  0  2  0  0  0  0  0  0
  191.6520  177.3380  145.4690 C   0  0  0  0  0  2  0  0  0  0  0  0
  191.3710  177.4990  143.9770 C   0  0  0  0  0  2  0  0  0  0  0  0
  189.3440  176.9710  146.3800 C   0  0  0  0  0  0  0  0  0  0  0  0
  186.1350  178.4180  142.1270 C   0  0  0  0  0  2  0  0  0  0  0  0
  184.8760  177.7300  142.6040 C   0  0  0  0  0  2  0  0  0  0  0  0
  186.1870  177.5210  143.3500 C   0  0  0  0  0  3  0  0  0  0  0  0
  190.1480  178.6640  142.3670 C   0  0  0  0  0  2  0  0  0  0  0  0
  188.6480  177.8280  140.7020 O   0  0  0  0  0  1  0  0  0  0  0  0
  189.7690  177.4980  141.4660 C   0  0  1  0  0  3  0  0  0  0  0  0
  190.9080  177.1480  140.5690 C   0  0  0  0  0  0  0  0  0  0  0  0
  192.0370  177.6850  140.7290 O   0  0  0  0  0  0  0  0  0  0  0  0
  190.7190  176.1990  139.5270 N   0  0  0  0  0  1  0  0  0  0  0  0
  1 12  1  0  0  0  0
  2  1  2  0  0  0  0
  2 16  1  0  0  0  0
  4  7  1  0  0  0  0
  4  1  1  0  0  0  0
  5 11  1  0  0  0  0
  5 15  1  0  0  0  0
  6  3  1  0  0  0  0
  7  8  1  0  0  0  0
  8 13  1  0  0  0  0
  9 16  1  0  0  0  0
  9 10  1  1  0  0  0
 11  2  1  0  0  0  0
 12 13  1  0  0  0  0
 12  3  2  0  0  0  0
 14  9  1  0  0  0  0
 15 14  1  0  0  0  0
 16  6  2  0  0  0  0
 17 18  1  0  0  0  0
 17 19  1  0  0  0  0
 18 19  1  0  0  0  0
 19  4  1  0  0  0  0
 20  5  1  0  0  0  0
 22 21  1  6  0  0  0
 22 20  1  0  0  0  0
 23 24  2  0  0  0  0
 23 22  1  0  0  0  0
 25 23  1  0  0  0  0
M  END
>  <MODEL>
5

>  <REMARK>
 VINA RESULT:      -7.5      2.290      4.925
  Name = 
  4 active torsions:
  status: ('A' for Active; 'I' for Inactive)
    1  A    between atoms: C_2  and  C_25
    2  A    between atoms: N_5  and  C_22
    3  A    between atoms: N_6  and  C_15
    4  A    between atoms: C_15  and  C_25
                            x       y       z     vdW  Elec       q    Type
                         _______ _______ _______ _____ _____    ______ ____

>  <TORSDO>
F 4

$$$$
=
 OpenBabel10262419583D

 25 28  0  0  1  0  0  0  0  0999 V2000
  187.9560  177.8750  142.9080 C   0  0  0  0  0  0  0  0  0  0  0  0
  187.7390  178.2710  141.5610 C   0  0  0  0  0  0  0  0  0  0  0  0
  185.5670  178.1080  143.3320 C   0  0  0  0  0  3  0  0  0  0  0  0
  189.2750  177.5800  143.4310 N   0  0  0  0  0  0  0  0  0  0  0  0
  188.5660  177.1230  139.6000 N   0  0  0  0  0  0  0  0  0  0  0  0
  185.3670  178.5370  142.0250 C   0  0  0  0  0  3  0  0  0  0  0  0
  189.3610  176.7530  144.6390 C   0  0  0  0  0  2  0  0  0  0  0  0
  188.4140  177.3050  145.6910 C   0  0  0  0  0  2  0  0  0  0  0  0
  186.1940  179.0620  139.7020 C   0  0  2  0  0  3  0  0  0  0  0  0
  184.9090  179.5840  139.5360 O   0  0  0  0  0  1  0  0  0  0  0  0
  188.8420  178.1980  140.5460 C   0  0  0  0  0  2  0  0  0  0  0  0
  186.8440  177.7810  143.7810 C   0  0  0  0  0  0  0  0  0  0  0  0
  186.9830  177.2320  145.1730 C   0  0  0  0  0  2  0  0  0  0  0  0
  186.4070  177.9100  138.7280 C   0  0  0  0  0  2  0  0  0  0  0  0
  187.8940  177.7100  138.4470 C   0  0  0  0  0  2  0  0  0  0  0  0
  186.4390  178.6280  141.1300 C   0  0  0  0  0  0  0  0  0  0  0  0
  191.6400  178.0490  143.8430 C   0  0  0  0  0  2  0  0  0  0  0  0
  190.9300  179.3780  143.9690 C   0  0  0  0  0  2  0  0  0  0  0  0
  190.4420  178.3460  142.9600 C   0  0  0  0  0  3  0  0  0  0  0  0
  189.8500  176.6350  139.1270 C   0  0  0  0  0  2  0  0  0  0  0  0
  190.9430  176.8760  137.0130 O   0  0  0  0  0  1  0  0  0  0  0  0
  189.7930  176.3780  137.6290 C   0  0  1  0  0  3  0  0  0  0  0  0
  189.6680  174.9160  137.3610 C   0  0  0  0  0  0  0  0  0  0  0  0
  190.6330  174.1390  137.5930 O   0  0  0  0  0  0  0  0  0  0  0  0
  188.4510  174.3950  136.8430 N   0  0  0  0  0  1  0  0  0  0  0  0
  1  4  1  0  0  0  0
  1 12  1  0  0  0  0
  2  1  2  0  0  0  0
  3 12  2  0  0  0  0
  4  7  1  0  0  0  0
  5 11  1  0  0  0  0
  6  3  1  0  0  0  0
  7  8  1  0  0  0  0
  9 10  1  1  0  0  0
  9 16  1  0  0  0  0
 11  2  1  0  0  0  0
 12 13  1  0  0  0  0
 13  8  1  0  0  0  0
 14  9  1  0  0  0  0
 15 14  1  0  0  0  0
 15  5  1  0  0  0  0
 16  2  1  0  0  0  0
 16  6  2  0  0  0  0
 17 18  1  0  0  0  0
 19  4  1  0  0  0  0
 19 17  1  0  0  0  0
 19 18  1  0  0  0  0
 20  5  1  0  0  0  0
 22 21  1  6  0  0  0
 22 20  1  0  0  0  0
 23 24  2  0  0  0  0
 23 22  1  0  0  0  0
 25 23  1  0  0  0  0
M  END
>  <MODEL>
6

>  <REMARK>
 VINA RESULT:      -7.2      3.067      5.118
  Name = 
  4 active torsions:
  status: ('A' for Active; 'I' for Inactive)
    1  A    between atoms: C_2  and  C_25
    2  A    between atoms: N_5  and  C_22
    3  A    between atoms: N_6  and  C_15
    4  A    between atoms: C_15  and  C_25
                            x       y       z     vdW  Elec       q    Type
                         _______ _______ _______ _____ _____    ______ ____

>  <TORSDO>
F 4

$$$$
=
 OpenBabel10262419583D

 25 28  0  0  1  0  0  0  0  0999 V2000
  187.7990  177.6370  142.7930 C   0  0  0  0  0  0  0  0  0  0  0  0
  186.5830  178.3210  143.0590 C   0  0  0  0  0  0  0  0  0  0  0  0
  188.0280  177.1730  145.1750 C   0  0  0  0  0  3  0  0  0  0  0  0
  188.3590  177.5330  141.4610 N   0  0  0  0  0  0  0  0  0  0  0  0
  184.4880  177.9790  141.9020 N   0  0  0  0  0  0  0  0  0  0  0  0
  186.8600  177.8810  145.4350 C   0  0  0  0  0  3  0  0  0  0  0  0
  189.3190  176.4540  141.2060 C   0  0  0  0  0  2  0  0  0  0  0  0
  190.3780  176.4590  142.2960 C   0  0  0  0  0  2  0  0  0  0  0  0
  184.8410  179.1980  144.6930 C   0  0  2  0  0  3  0  0  0  0  0  0
  184.6860  179.4240  146.0620 O   0  0  0  0  0  1  0  0  0  0  0  0
  185.6980  178.7910  141.9410 C   0  0  0  0  0  2  0  0  0  0  0  0
  188.5030  177.0490  143.8720 C   0  0  0  0  0  0  0  0  0  0  0  0
  189.7160  176.1920  143.6440 C   0  0  0  0  0  2  0  0  0  0  0  0
  183.6320  178.4380  144.1610 C   0  0  0  0  0  2  0  0  0  0  0  0
  183.4600  178.6800  142.6630 C   0  0  0  0  0  2  0  0  0  0  0  0
  186.1290  178.4630  144.3920 C   0  0  0  0  0  0  0  0  0  0  0  0
  187.8400  178.1200  139.1430 C   0  0  0  0  0  2  0  0  0  0  0  0
  189.2450  178.6200  139.3880 C   0  0  0  0  0  2  0  0  0  0  0  0
  188.2190  178.6520  140.5130 C   0  0  0  0  0  3  0  0  0  0  0  0
  184.0370  177.9570  140.5210 C   0  0  0  0  0  2  0  0  0  0  0  0
  184.6990  179.8330  139.1920 O   0  0  0  0  0  1  0  0  0  0  0  0
  183.7050  179.3670  140.0560 C   0  0  1  0  0  3  0  0  0  0  0  0
  182.3840  179.3840  139.3640 C   0  0  0  0  0  0  0  0  0  0  0  0
  181.5250  178.4930  139.6030 O   0  0  0  0  0  0  0  0  0  0  0  0
  182.0900  180.4150  138.4300 N   0  0  0  0  0  1  0  0  0  0  0  0
  1  2  2  0  0  0  0
  1 12  1  0  0  0  0
  2 16  1  0  0  0  0
  3  6  1  0  0  0  0
  4  1  1  0  0  0  0
  5 11  1  0  0  0  0
  5 15  1  0  0  0  0
  7  4  1  0  0  0  0
  7  8  1  0  0  0  0
  8 13  1  0  0  0  0
  9 10  1  1  0  0  0
 11  2  1  0  0  0  0
 12  3  2  0  0  0  0
 13 12  1  0  0  0  0
 14  9  1  0  0  0  0
 15 14  1  0  0  0  0
 16  9  1  0  0  0  0
 16  6  2  0  0  0  0
 17 18  1  0  0  0  0
 17 19  1  0  0  0  0
 18 19  1  0  0  0  0
 19  4  1  0  0  0  0
 20  5  1  0  0  0  0
 22 21  1  6  0  0  0
 22 20  1  0  0  0  0
 23 24  2  0  0  0  0
 23 22  1  0  0  0  0
 25 23  1  0  0  0  0
M  END
>  <MODEL>
7

>  <REMARK>
 VINA RESULT:      -7.1      2.436      3.554
  Name = 
  4 active torsions:
  status: ('A' for Active; 'I' for Inactive)
    1  A    between atoms: C_2  and  C_25
    2  A    between atoms: N_5  and  C_22
    3  A    between atoms: N_6  and  C_15
    4  A    between atoms: C_15  and  C_25
                            x       y       z     vdW  Elec       q    Type
                         _______ _______ _______ _____ _____    ______ ____

>  <TORSDO>
F 4

$$$$
=
 OpenBabel10262419583D

 25 28  0  0  1  0  0  0  0  0999 V2000
  186.7170  177.9520  143.1960 C   0  0  0  0  0  0  0  0  0  0  0  0
  187.8260  177.3170  142.5760 C   0  0  0  0  0  0  0  0  0  0  0  0
  187.6520  177.3950  145.3760 C   0  0  0  0  0  3  0  0  0  0  0  0
  185.6320  178.5410  142.4370 N   0  0  0  0  0  0  0  0  0  0  0  0
  189.1940  178.2620  140.8200 N   0  0  0  0  0  0  0  0  0  0  0  0
  188.7130  176.7370  144.7640 C   0  0  0  0  0  3  0  0  0  0  0  0
  184.8030  179.5510  143.1020 C   0  0  0  0  0  2  0  0  0  0  0  0
  184.3620  179.0220  144.4570 C   0  0  0  0  0  2  0  0  0  0  0  0
  189.9950  175.9970  142.7230 C   0  0  2  0  0  3  0  0  0  0  0  0
  190.7250  175.2500  143.6510 O   0  0  0  0  0  1  0  0  0  0  0  0
  188.0420  177.4110  141.0930 C   0  0  0  0  0  2  0  0  0  0  0  0
  186.6570  177.9970  144.6100 C   0  0  0  0  0  0  0  0  0  0  0  0
  185.5900  178.7740  145.3260 C   0  0  0  0  0  2  0  0  0  0  0  0
  190.9160  177.0000  142.0390 C   0  0  0  0  0  2  0  0  0  0  0  0
  190.3590  177.3970  140.6740 C   0  0  0  0  0  2  0  0  0  0  0  0
  188.8130  176.6860  143.3690 C   0  0  0  0  0  0  0  0  0  0  0  0
  184.4610  178.9370  140.3260 C   0  0  0  0  0  2  0  0  0  0  0  0
  183.6720  177.8610  141.0370 C   0  0  0  0  0  2  0  0  0  0  0  0
  185.1880  177.9150  141.1790 C   0  0  0  0  0  3  0  0  0  0  0  0
  188.9690  178.8760  139.5220 C   0  0  0  0  0  2  0  0  0  0  0  0
  187.0020  178.5500  138.2000 O   0  0  0  0  0  1  0  0  0  0  0  0
  188.1800  177.9330  138.6260 C   0  0  1  0  0  3  0  0  0  0  0  0
  189.0000  177.5360  137.4450 C   0  0  0  0  0  0  0  0  0  0  0  0
  190.2520  177.4290  137.5430 O   0  0  0  0  0  0  0  0  0  0  0  0
  188.3640  177.2740  136.2010 N   0  0  0  0  0  1  0  0  0  0  0  0
  1 12  1  0  0  0  0
  2  1  2  0  0  0  0
  2 16  1  0  0  0  0
  4  7  1  0  0  0  0
  4  1  1  0  0  0  0
  5 11  1  0  0  0  0
  6  3  1  0  0  0  0
  7  8  1  0  0  0  0
  8 13  1  0  0  0  0
  9 16  1  0  0  0  0
  9 10  1  1  0  0  0
 11  2  1  0  0  0  0
 12 13  1  0  0  0  0
 12  3  2  0  0  0  0
 14  9  1  0  0  0  0
 15  5  1  0  0  0  0
 15 14  1  0  0  0  0
 16  6  2  0  0  0  0
 17 18  1  0  0  0  0
 17 19  1  0  0  0  0
 18 19  1  0  0  0  0
 19  4  1  0  0  0  0
 20  5  1  0  0  0  0
 22 21  1  6  0  0  0
 22 20  1  0  0  0  0
 23 24  2  0  0  0  0
 23 22  1  0  0  0  0
 25 23  1  0  0  0  0
M  END
>  <MODEL>
8

>  <REMARK>
 VINA RESULT:      -6.6      2.845      5.590
  Name = 
  4 active torsions:
  status: ('A' for Active; 'I' for Inactive)
    1  A    between atoms: C_2  and  C_25
    2  A    between atoms: N_5  and  C_22
    3  A    between atoms: N_6  and  C_15
    4  A    between atoms: C_15  and  C_25
                            x       y       z     vdW  Elec       q    Type
                         _______ _______ _______ _____ _____    ______ ____

>  <TORSDO>
F 4

$$$$
=
 OpenBabel10262419583D

 25 28  0  0  1  0  0  0  0  0999 V2000
  185.4070  178.5490  142.7480 C   0  0  0  0  0  0  0  0  0  0  0  0
  186.7160  178.4790  142.2010 C   0  0  0  0  0  0  0  0  0  0  0  0
  184.5050  178.7430  140.4920 C   0  0  0  0  0  3  0  0  0  0  0  0
  185.1560  178.5260  144.1750 N   0  0  0  0  0  0  0  0  0  0  0  0
  188.3900  176.8230  142.7530 N   0  0  0  0  0  0  0  0  0  0  0  0
  185.7910  178.7180  139.9650 C   0  0  0  0  0  3  0  0  0  0  0  0
  183.8160  178.1370  144.6270 C   0  0  0  0  0  2  0  0  0  0  0  0
  182.7770  178.9310  143.8530 C   0  0  0  0  0  2  0  0  0  0  0  0
  188.2940  178.5280  140.2070 C   0  0  2  0  0  3  0  0  0  0  0  0
  188.2890  178.8810  138.8550 O   0  0  0  0  0  1  0  0  0  0  0  0
  187.9000  178.1600  143.0670 C   0  0  0  0  0  2  0  0  0  0  0  0
  184.3030  178.6640  141.8680 C   0  0  0  0  0  0  0  0  0  0  0  0
  182.8880  178.5990  142.3700 C   0  0  0  0  0  2  0  0  0  0  0  0
  188.9060  177.1420  140.3700 C   0  0  0  0  0  2  0  0  0  0  0  0
  189.4660  176.9640  141.7790 C   0  0  0  0  0  2  0  0  0  0  0  0
  186.9050  178.5900  140.8040 C   0  0  0  0  0  0  0  0  0  0  0  0
  186.5610  178.1850  146.1490 C   0  0  0  0  0  2  0  0  0  0  0  0
  185.5780  179.2690  146.5270 C   0  0  0  0  0  2  0  0  0  0  0  0
  186.0990  179.1790  145.0990 C   0  0  0  0  0  3  0  0  0  0  0  0
  188.9940  176.2980  143.9650 C   0  0  0  0  0  2  0  0  0  0  0  0
  189.8600  177.9650  145.4460 O   0  0  0  0  0  1  0  0  0  0  0  0
  190.1920  177.1470  144.3640 C   0  0  1  0  0  3  0  0  0  0  0  0
  191.3460  176.2740  144.7250 C   0  0  0  0  0  0  0  0  0  0  0  0
  191.8480  175.4930  143.8730 O   0  0  0  0  0  0  0  0  0  0  0  0
  191.8850  176.3260  146.0390 N   0  0  0  0  0  1  0  0  0  0  0  0
  1  4  1  0  0  0  0
  2  1  1  0  0  0  0
  2 11  1  0  0  0  0
  3 12  1  0  0  0  0
  4  7  1  0  0  0  0
  4 19  1  0  0  0  0
  5 11  1  0  0  0  0
  5 20  1  0  0  0  0
  6  3  2  0  0  0  0
  6 16  1  0  0  0  0
  8  7  1  0  0  0  0
  9 10  1  6  0  0  0
  9 14  1  0  0  0  0
  9 16  1  0  0  0  0
 12 13  1  0  0  0  0
 12  1  2  0  0  0  0
 13  8  1  0  0  0  0
 14 15  1  0  0  0  0
 15  5  1  0  0  0  0
 16  2  2  0  0  0  0
 17 18  1  0  0  0  0
 19 17  1  0  0  0  0
 19 18  1  0  0  0  0
 20 22  1  0  0  0  0
 22 23  1  0  0  0  0
 22 21  1  1  0  0  0
 23 25  1  0  0  0  0
 24 23  2  0  0  0  0
M  END
>  <MODEL>
9

>  <REMARK>
 VINA RESULT:      -6.6      2.347      6.746
  Name = 
  4 active torsions:
  status: ('A' for Active; 'I' for Inactive)
    1  A    between atoms: C_2  and  C_25
    2  A    between atoms: N_5  and  C_22
    3  A    between atoms: N_6  and  C_15
    4  A    between atoms: C_15  and  C_25
                            x       y       z     vdW  Elec       q    Type
                         _______ _______ _______ _____ _____    ______ ____

>  <TORSDO>
F 4

$$$$
