=
 OpenBabel10262422453D

 43 47  0  0  1  0  0  0  0  0999 V2000
  188.3710  177.6320  141.4460 N   0  0  0  0  0  0  0  0  0  0  0  0
  187.7760  176.8040  136.2340 C   0  0  0  0  0  0  0  0  0  0  0  0
  189.5480  176.9780  137.9520 C   0  0  2  0  0  3  0  0  0  0  0  0
  186.9880  177.7470  137.0610 C   0  0  0  0  0  3  0  0  0  0  0  0
  187.4080  176.5490  135.0590 O   0  0  0  0  0  0  0  0  0  0  0  0
  188.4480  177.1990  138.9600 C   0  0  2  0  0  3  0  0  0  0  0  0
  189.0100  176.1390  136.7950 C   0  0  0  0  0  2  0  0  0  0  0  0
  187.3220  177.9740  138.3390 C   0  0  0  0  0  3  0  0  0  0  0  0
  189.0940  177.8500  140.1750 C   0  0  2  0  0  3  0  0  0  0  0  0
  190.8080  177.2140  140.2950 S   0  0  0  0  0  0  0  0  0  0  0  0
  190.6760  176.3260  138.7060 C   0  0  0  0  0  2  0  0  0  0  0  0
  189.3010  177.4330  142.5670 C   0  0  1  0  0  3  0  0  0  0  0  0
  189.4670  178.6230  143.2830 O   0  0  0  0  0  1  0  0  0  0  0  0
  188.7600  176.3780  143.5250 C   0  0  0  0  0  2  0  0  0  0  0  0
  187.0120  177.9870  146.4740 C   0  0  0  0  0  0  0  0  0  0  0  0
  188.0510  178.0420  147.4160 C   0  0  0  0  0  0  0  0  0  0  0  0
  187.8400  178.5620  148.6500 F   0  0  0  0  0  0  0  0  0  0  0  0
  189.5540  177.0230  145.8110 C   0  0  0  0  0  3  0  0  0  0  0  0
  187.2500  177.4510  145.2050 C   0  0  0  0  0  3  0  0  0  0  0  0
  188.5200  176.9690  144.8710 C   0  0  0  0  0  0  0  0  0  0  0  0
  185.6490  178.4780  146.8170 C   0  0  0  0  0  1  0  0  0  0  0  0
  189.3210  177.5610  147.0800 C   0  0  0  0  0  3  0  0  0  0  0  0
  187.3430  178.6620  141.6970 C   0  0  0  0  0  2  0  0  0  0  0  0
  185.9620  178.0890  142.0380 C   0  0  0  0  0  2  0  0  0  0  0  0
  184.8870  179.1690  142.0370 C   0  0  2  0  0  3  0  0  0  0  0  0
  184.3300  179.3740  143.4360 C   0  0  0  0  0  1  0  0  0  0  0  0
  183.8590  178.8310  141.1100 O   0  0  0  0  0  0  0  0  0  0  0  0
  183.9330  179.1120  139.7420 C   0  0  0  0  0  0  0  0  0  0  0  0
  184.6930  180.0330  139.3460 O   0  0  0  0  0  0  0  0  0  0  0  0
  182.9530  178.2070  138.5390 S   0  0  0  0  0  0  0  0  0  0  0  0
  181.9800  179.6290  137.9080 C   0  0  1  0  0  3  0  0  0  0  0  0
  180.9460  181.8850  138.2840 C   0  0  0  0  0  2  0  0  0  0  0  0
  181.1390  179.3140  136.6650 C   0  0  0  0  0  2  0  0  0  0  0  0
  180.1780  180.4610  136.3160 C   0  0  0  0  0  2  0  0  0  0  0  0
  181.2740  180.5300  138.9360 C   0  0  1  0  0  3  0  0  0  0  0  0
  180.7290  181.8190  136.7600 C   0  0  0  0  0  2  0  0  0  0  0  0
  179.9690  179.9070  139.4380 C   0  0  0  0  0  2  0  0  0  0  0  0
  179.9800  179.6180  140.9060 C   0  0  0  0  0  0  0  0  0  0  0  0
  179.9350  179.0420  143.6230 C   0  0  0  0  0  3  0  0  0  0  0  0
  179.8290  180.3560  143.1630 C   0  0  0  0  0  3  0  0  0  0  0  0
  180.0560  178.0050  142.6970 C   0  0  0  0  0  3  0  0  0  0  0  0
  179.8440  180.6150  141.8270 N   0  0  0  0  0  0  0  0  0  0  0  0
  180.0760  178.2910  141.3310 C   0  0  0  0  0  3  0  0  0  0  0  0
  1 23  1  0  0  0  0
  1 12  1  0  0  0  0
  2  7  1  0  0  0  0
  2  4  1  0  0  0  0
  3  7  1  6  0  0  0
  3 11  1  0  0  0  0
  3  6  1  0  0  0  0
  4  8  2  0  0  0  0
  5  2  2  0  0  0  0
  6  8  1  6  0  0  0
  6  9  1  0  0  0  0
  9 10  1  0  0  0  0
  9  1  1  1  0  0  0
 11 10  1  0  0  0  0
 12 13  1  1  0  0  0
 12 14  1  0  0  0  0
 14 20  1  0  0  0  0
 15 21  1  0  0  0  0
 15 16  1  0  0  0  0
 16 17  1  0  0  0  0
 18 22  1  0  0  0  0
 19 15  2  0  0  0  0
 20 19  1  0  0  0  0
 20 18  2  0  0  0  0
 22 16  2  0  0  0  0
 23 24  1  0  0  0  0
 25 24  1  0  0  0  0
 25 26  1  1  0  0  0
 27 25  1  0  0  0  0
 28 27  1  0  0  0  0
 29 28  2  0  0  0  0
 30 28  1  0  0  0  0
 31 30  1  1  0  0  0
 31 35  1  0  0  0  0
 32 35  1  0  0  0  0
 33 31  1  0  0  0  0
 34 33  1  0  0  0  0
 34 36  1  0  0  0  0
 35 37  1  6  0  0  0
 36 32  1  0  0  0  0
 37 38  1  0  0  0  0
 38 43  2  0  0  0  0
 38 42  1  0  0  0  0
 40 39  1  0  0  0  0
 41 39  2  0  0  0  0
 42 40  2  0  0  0  0
 43 41  1  0  0  0  0
M  END
>  <MODEL>
1

>  <REMARK>
 VINA RESULT:      -8.9      0.000      0.000
  Name = 
  13 active torsions:
  status: ('A' for Active; 'I' for Inactive)
    1  A    between atoms: C_1  and  C_34
    2  A    between atoms: C_1  and  C_35
    3  A    between atoms: C_2  and  O_6
    4  A    between atoms: C_2  and  C_13
    5  A    between atoms: S_3  and  C_4
    6  A    between atoms: S_3  and  C_12
    7  A    between atoms: O_6  and  C_12
    8  A    between atoms: N_8  and  C_27
    9  A    between atoms: N_8  and  C_30
   10  A    between atoms: N_8  and  C_34
   11  A    between atoms: C_11  and  C_14
   12  A    between atoms: C_13  and  C_27
   13  A    between atoms: C_14  and  C_41
                            x       y       z     vdW  Elec       q    Type
                         _______ _______ _______ _____ _____    ______ ____

>  <TORSDO>
F 13

$$$$
=
 OpenBabel10262422453D

 43 47  0  0  1  0  0  0  0  0999 V2000
  188.5480  177.6090  141.4390 N   0  0  0  0  0  0  0  0  0  0  0  0
  187.9040  176.7790  136.2340 C   0  0  0  0  0  0  0  0  0  0  0  0
  189.6890  176.9160  137.9410 C   0  0  2  0  0  3  0  0  0  0  0  0
  187.1440  177.7430  137.0620 C   0  0  0  0  0  3  0  0  0  0  0  0
  187.5230  176.5290  135.0610 O   0  0  0  0  0  0  0  0  0  0  0  0
  188.6000  177.1660  138.9550 C   0  0  2  0  0  3  0  0  0  0  0  0
  189.1240  176.0860  136.7910 C   0  0  0  0  0  2  0  0  0  0  0  0
  187.4900  177.9660  138.3370 C   0  0  0  0  0  3  0  0  0  0  0  0
  189.2690  177.8050  140.1640 C   0  0  2  0  0  3  0  0  0  0  0  0
  190.9680  177.1280  140.2770 S   0  0  0  0  0  0  0  0  0  0  0  0
  190.8050  176.2380  138.6920 C   0  0  0  0  0  2  0  0  0  0  0  0
  189.4800  177.4520  142.5660 C   0  0  1  0  0  3  0  0  0  0  0  0
  189.5920  178.6510  143.2790 O   0  0  0  0  0  1  0  0  0  0  0  0
  188.9790  176.3780  143.5240 C   0  0  0  0  0  2  0  0  0  0  0  0
  187.1400  177.9800  146.4220 C   0  0  0  0  0  0  0  0  0  0  0  0
  188.1490  178.0290  147.3970 C   0  0  0  0  0  0  0  0  0  0  0  0
  187.8990  178.5450  148.6260 F   0  0  0  0  0  0  0  0  0  0  0  0
  189.7000  177.0120  145.8370 C   0  0  0  0  0  3  0  0  0  0  0  0
  187.4170  177.4490  145.1590 C   0  0  0  0  0  3  0  0  0  0  0  0
  188.6960  176.9650  144.8640 C   0  0  0  0  0  0  0  0  0  0  0  0
  185.7680  178.4740  146.7230 C   0  0  0  0  0  1  0  0  0  0  0  0
  189.4280  177.5460  147.1010 C   0  0  0  0  0  3  0  0  0  0  0  0
  187.5040  178.6290  141.6630 C   0  0  0  0  0  2  0  0  0  0  0  0
  186.1420  178.0460  142.0590 C   0  0  0  0  0  2  0  0  0  0  0  0
  185.0270  179.0770  141.9270 C   0  0  2  0  0  3  0  0  0  0  0  0
  184.4080  179.3770  143.2820 C   0  0  0  0  0  1  0  0  0  0  0  0
  184.0490  178.6190  140.9960 O   0  0  0  0  0  0  0  0  0  0  0  0
  183.7000  179.3220  139.8390 C   0  0  0  0  0  0  0  0  0  0  0  0
  184.5570  180.0590  139.2860 O   0  0  0  0  0  0  0  0  0  0  0  0
  182.0500  179.2190  139.1360 S   0  0  0  0  0  0  0  0  0  0  0  0
  181.1120  179.4650  140.6940 C   0  0  1  0  0  3  0  0  0  0  0  0
  180.3680  178.6120  142.9340 C   0  0  0  0  0  2  0  0  0  0  0  0
  180.0400  180.5590  140.6170 C   0  0  0  0  0  2  0  0  0  0  0  0
  179.1390  180.5690  141.8610 C   0  0  0  0  0  2  0  0  0  0  0  0
  180.6830  178.2160  141.4810 C   0  0  1  0  0  3  0  0  0  0  0  0
  179.8800  180.0640  143.1030 C   0  0  0  0  0  2  0  0  0  0  0  0
  179.4360  177.5630  140.8770 C   0  0  0  0  0  2  0  0  0  0  0  0
  179.7400  176.6850  139.7030 C   0  0  0  0  0  0  0  0  0  0  0  0
  180.3770  175.0850  137.5250 C   0  0  0  0  0  3  0  0  0  0  0  0
  179.4260  176.1020  137.4190 C   0  0  0  0  0  3  0  0  0  0  0  0
  181.0210  174.8800  138.7460 C   0  0  0  0  0  3  0  0  0  0  0  0
  179.1360  176.8800  138.4960 N   0  0  0  0  0  0  0  0  0  0  0  0
  180.7050  175.6850  139.8410 C   0  0  0  0  0  3  0  0  0  0  0  0
  1 23  1  0  0  0  0
  1 12  1  0  0  0  0
  2  7  1  0  0  0  0
  2  4  1  0  0  0  0
  3  7  1  6  0  0  0
  3 11  1  0  0  0  0
  3  6  1  0  0  0  0
  4  8  2  0  0  0  0
  5  2  2  0  0  0  0
  6  8  1  6  0  0  0
  6  9  1  0  0  0  0
  9 10  1  0  0  0  0
  9  1  1  1  0  0  0
 11 10  1  0  0  0  0
 12 13  1  1  0  0  0
 12 14  1  0  0  0  0
 14 20  1  0  0  0  0
 15 21  1  0  0  0  0
 15 16  1  0  0  0  0
 16 17  1  0  0  0  0
 18 22  1  0  0  0  0
 19 15  2  0  0  0  0
 20 19  1  0  0  0  0
 20 18  2  0  0  0  0
 22 16  2  0  0  0  0
 23 24  1  0  0  0  0
 25 24  1  0  0  0  0
 25 26  1  1  0  0  0
 27 25  1  0  0  0  0
 28 27  1  0  0  0  0
 29 28  2  0  0  0  0
 30 28  1  0  0  0  0
 31 30  1  6  0  0  0
 31 35  1  0  0  0  0
 32 36  1  0  0  0  0
 33 31  1  0  0  0  0
 33 34  1  0  0  0  0
 34 36  1  0  0  0  0
 35 37  1  6  0  0  0
 35 32  1  0  0  0  0
 38 43  1  0  0  0  0
 38 37  1  0  0  0  0
 39 41  1  0  0  0  0
 40 39  2  0  0  0  0
 40 42  1  0  0  0  0
 41 43  2  0  0  0  0
 42 38  2  0  0  0  0
M  END
>  <MODEL>
2

>  <REMARK>
 VINA RESULT:      -8.4      1.542      2.788
  Name = 
  13 active torsions:
  status: ('A' for Active; 'I' for Inactive)
    1  A    between atoms: C_1  and  C_34
    2  A    between atoms: C_1  and  C_35
    3  A    between atoms: C_2  and  O_6
    4  A    between atoms: C_2  and  C_13
    5  A    between atoms: S_3  and  C_4
    6  A    between atoms: S_3  and  C_12
    7  A    between atoms: O_6  and  C_12
    8  A    between atoms: N_8  and  C_27
    9  A    between atoms: N_8  and  C_30
   10  A    between atoms: N_8  and  C_34
   11  A    between atoms: C_11  and  C_14
   12  A    between atoms: C_13  and  C_27
   13  A    between atoms: C_14  and  C_41
                            x       y       z     vdW  Elec       q    Type
                         _______ _______ _______ _____ _____    ______ ____

>  <TORSDO>
F 13

$$$$
=
 OpenBabel10262422453D

 43 47  0  0  1  0  0  0  0  0999 V2000
  188.6850  177.6740  141.1830 N   0  0  0  0  0  0  0  0  0  0  0  0
  189.1790  177.6410  135.8960 C   0  0  0  0  0  0  0  0  0  0  0  0
  190.5200  177.2810  137.9430 C   0  0  2  0  0  3  0  0  0  0  0  0
  188.3660  178.5930  136.6890 C   0  0  0  0  0  3  0  0  0  0  0  0
  189.0550  177.6080  134.6450 O   0  0  0  0  0  0  0  0  0  0  0  0
  189.2620  177.5580  138.7290 C   0  0  2  0  0  3  0  0  0  0  0  0
  190.1450  176.7050  136.5800 C   0  0  0  0  0  2  0  0  0  0  0  0
  188.4290  178.5910  138.0270 C   0  0  0  0  0  3  0  0  0  0  0  0
  189.7010  177.9240  140.1400 C   0  0  2  0  0  3  0  0  0  0  0  0
  191.2350  176.9890  140.5010 S   0  0  0  0  0  0  0  0  0  0  0  0
  191.3420  176.3500  138.7950 C   0  0  0  0  0  2  0  0  0  0  0  0
  189.3080  177.3480  142.4750 C   0  0  1  0  0  3  0  0  0  0  0  0
  189.5220  178.5110  143.2230 O   0  0  0  0  0  1  0  0  0  0  0  0
  188.4040  176.4260  143.2830 C   0  0  0  0  0  2  0  0  0  0  0  0
  186.7800  177.9220  146.3600 C   0  0  0  0  0  0  0  0  0  0  0  0
  187.8490  177.9130  147.2700 C   0  0  0  0  0  0  0  0  0  0  0  0
  187.6860  178.3760  148.5330 F   0  0  0  0  0  0  0  0  0  0  0  0
  189.2810  176.9450  145.5700 C   0  0  0  0  0  3  0  0  0  0  0  0
  186.9680  177.4450  145.0600 C   0  0  0  0  0  3  0  0  0  0  0  0
  188.2170  176.9560  144.6620 C   0  0  0  0  0  0  0  0  0  0  0  0
  185.4380  178.4220  146.7690 C   0  0  0  0  0  1  0  0  0  0  0  0
  189.0980  177.4260  146.8710 C   0  0  0  0  0  3  0  0  0  0  0  0
  187.6760  178.7490  141.2610 C   0  0  0  0  0  2  0  0  0  0  0  0
  186.2740  178.3180  140.8100 C   0  0  0  0  0  2  0  0  0  0  0  0
  185.2020  179.2820  141.3010 C   0  0  2  0  0  3  0  0  0  0  0  0
  185.1070  179.2530  142.8180 C   0  0  0  0  0  1  0  0  0  0  0  0
  183.9510  178.9690  140.6940 O   0  0  0  0  0  0  0  0  0  0  0  0
  183.5770  179.4230  139.4250 C   0  0  0  0  0  0  0  0  0  0  0  0
  184.1740  180.4120  138.9260 O   0  0  0  0  0  0  0  0  0  0  0  0
  182.2470  178.6450  138.5000 S   0  0  0  0  0  0  0  0  0  0  0  0
  183.2960  177.6500  137.3700 C   0  0  1  0  0  3  0  0  0  0  0  0
  183.5020  175.8870  135.5950 C   0  0  0  0  0  2  0  0  0  0  0  0
  184.7760  177.6010  137.7650 C   0  0  0  0  0  2  0  0  0  0  0  0
  185.5610  176.5800  136.9260 C   0  0  0  0  0  2  0  0  0  0  0  0
  182.7340  176.3120  136.8590 C   0  0  1  0  0  3  0  0  0  0  0  0
  184.9530  176.4030  135.5320 C   0  0  0  0  0  2  0  0  0  0  0  0
  182.8700  175.2010  137.9040 C   0  0  0  0  0  2  0  0  0  0  0  0
  182.8760  173.8290  137.3080 C   0  0  0  0  0  0  0  0  0  0  0  0
  182.9370  171.3060  136.1480 C   0  0  0  0  0  3  0  0  0  0  0  0
  181.7700  172.0720  136.1450 C   0  0  0  0  0  3  0  0  0  0  0  0
  184.0910  171.8260  136.7370 C   0  0  0  0  0  3  0  0  0  0  0  0
  181.7650  173.3100  136.7110 N   0  0  0  0  0  0  0  0  0  0  0  0
  184.0640  173.0950  137.3180 C   0  0  0  0  0  3  0  0  0  0  0  0
  1 23  1  0  0  0  0
  1 12  1  0  0  0  0
  2  7  1  0  0  0  0
  2  4  1  0  0  0  0
  3  7  1  6  0  0  0
  3  6  1  0  0  0  0
  3 11  1  0  0  0  0
  4  8  2  0  0  0  0
  5  2  2  0  0  0  0
  6  8  1  6  0  0  0
  6  9  1  0  0  0  0
  9 10  1  0  0  0  0
  9  1  1  1  0  0  0
 11 10  1  0  0  0  0
 12 13  1  1  0  0  0
 12 14  1  0  0  0  0
 14 20  1  0  0  0  0
 15 21  1  0  0  0  0
 15 16  1  0  0  0  0
 16 17  1  0  0  0  0
 18 22  1  0  0  0  0
 19 15  2  0  0  0  0
 20 19  1  0  0  0  0
 20 18  2  0  0  0  0
 22 16  2  0  0  0  0
 24 23  1  0  0  0  0
 24 25  1  0  0  0  0
 25 26  1  1  0  0  0
 27 25  1  0  0  0  0
 28 27  1  0  0  0  0
 29 28  2  0  0  0  0
 30 28  1  0  0  0  0
 31 33  1  0  0  0  0
 31 30  1  1  0  0  0
 32 35  1  0  0  0  0
 34 33  1  0  0  0  0
 35 31  1  0  0  0  0
 35 37  1  1  0  0  0
 36 32  1  0  0  0  0
 36 34  1  0  0  0  0
 38 43  1  0  0  0  0
 38 37  1  0  0  0  0
 39 41  1  0  0  0  0
 40 39  2  0  0  0  0
 40 42  1  0  0  0  0
 41 43  2  0  0  0  0
 42 38  2  0  0  0  0
M  END
>  <MODEL>
3

>  <REMARK>
 VINA RESULT:      -8.2      2.988      4.257
  Name = 
  13 active torsions:
  status: ('A' for Active; 'I' for Inactive)
    1  A    between atoms: C_1  and  C_34
    2  A    between atoms: C_1  and  C_35
    3  A    between atoms: C_2  and  O_6
    4  A    between atoms: C_2  and  C_13
    5  A    between atoms: S_3  and  C_4
    6  A    between atoms: S_3  and  C_12
    7  A    between atoms: O_6  and  C_12
    8  A    between atoms: N_8  and  C_27
    9  A    between atoms: N_8  and  C_30
   10  A    between atoms: N_8  and  C_34
   11  A    between atoms: C_11  and  C_14
   12  A    between atoms: C_13  and  C_27
   13  A    between atoms: C_14  and  C_41
                            x       y       z     vdW  Elec       q    Type
                         _______ _______ _______ _____ _____    ______ ____

>  <TORSDO>
F 13

$$$$
=
 OpenBabel10262422453D

 43 47  0  0  1  0  0  0  0  0999 V2000
  188.4970  177.0270  138.4170 N   0  0  0  0  0  0  0  0  0  0  0  0
  193.4920  176.2160  136.8070 C   0  0  0  0  0  0  0  0  0  0  0  0
  191.2390  175.2100  136.6280 C   0  0  2  0  0  3  0  0  0  0  0  0
  193.0770  176.7220  138.1360 C   0  0  0  0  0  3  0  0  0  0  0  0
  194.7050  176.2600  136.4750 O   0  0  0  0  0  0  0  0  0  0  0  0
  190.7400  176.3560  137.4730 C   0  0  2  0  0  3  0  0  0  0  0  0
  192.4690  175.6610  135.8450 C   0  0  0  0  0  2  0  0  0  0  0  0
  191.7820  176.7530  138.4780 C   0  0  0  0  0  3  0  0  0  0  0  0
  189.4040  175.9170  138.0580 C   0  0  2  0  0  3  0  0  0  0  0  0
  188.6070  174.8050  136.8390 S   0  0  0  0  0  0  0  0  0  0  0  0
  190.0790  174.8000  135.7600 C   0  0  0  0  0  2  0  0  0  0  0  0
  189.0870  177.8910  139.4500 C   0  0  1  0  0  3  0  0  0  0  0  0
  189.0560  179.2300  139.0450 O   0  0  0  0  0  1  0  0  0  0  0  0
  188.3030  177.7730  140.7520 C   0  0  0  0  0  2  0  0  0  0  0  0
  189.5990  177.4530  144.2960 C   0  0  0  0  0  0  0  0  0  0  0  0
  190.9600  177.1940  144.0720 C   0  0  0  0  0  0  0  0  0  0  0  0
  191.8090  177.0050  145.1110 F   0  0  0  0  0  0  0  0  0  0  0  0
  190.5850  177.3260  141.6800 C   0  0  0  0  0  3  0  0  0  0  0  0
  188.7380  177.6500  143.2120 C   0  0  0  0  0  3  0  0  0  0  0  0
  189.2290  177.5870  141.9040 C   0  0  0  0  0  0  0  0  0  0  0  0
  189.0540  177.5060  145.6810 C   0  0  0  0  0  1  0  0  0  0  0  0
  191.4500  177.1330  142.7630 C   0  0  0  0  0  3  0  0  0  0  0  0
  188.0010  177.7600  137.2350 C   0  0  0  0  0  2  0  0  0  0  0  0
  186.4920  178.0290  137.2600 C   0  0  0  0  0  2  0  0  0  0  0  0
  185.7130  176.9460  136.5230 C   0  0  2  0  0  3  0  0  0  0  0  0
  185.7490  177.1860  135.0220 C   0  0  0  0  0  1  0  0  0  0  0  0
  184.3750  176.8910  137.0110 O   0  0  0  0  0  0  0  0  0  0  0  0
  183.8140  175.7480  137.5890 C   0  0  0  0  0  0  0  0  0  0  0  0
  184.1340  174.6150  137.1440 O   0  0  0  0  0  0  0  0  0  0  0  0
  182.6270  175.8570  138.9330 S   0  0  0  0  0  0  0  0  0  0  0  0
  182.2470  177.6450  138.7700 C   0  0  1  0  0  3  0  0  0  0  0  0
  182.8770  180.0400  139.1770 C   0  0  0  0  0  2  0  0  0  0  0  0
  180.7710  177.9520  138.4910 C   0  0  0  0  0  2  0  0  0  0  0  0
  180.4680  179.4550  138.5890 C   0  0  0  0  0  2  0  0  0  0  0  0
  182.9180  178.6160  139.7570 C   0  0  1  0  0  3  0  0  0  0  0  0
  181.6900  180.3060  138.2300 C   0  0  0  0  0  2  0  0  0  0  0  0
  182.2100  178.6270  141.1150 C   0  0  0  0  0  2  0  0  0  0  0  0
  183.1560  178.6550  142.2730 C   0  0  0  0  0  0  0  0  0  0  0  0
  184.9210  178.6290  144.4170 C   0  0  0  0  0  3  0  0  0  0  0  0
  183.5870  179.0060  144.5860 C   0  0  0  0  0  3  0  0  0  0  0  0
  185.3660  178.2500  143.1500 C   0  0  0  0  0  3  0  0  0  0  0  0
  182.7380  179.0030  143.5240 N   0  0  0  0  0  0  0  0  0  0  0  0
  184.4810  178.2590  142.0710 C   0  0  0  0  0  3  0  0  0  0  0  0
  1 12  1  0  0  0  0
  2  4  1  0  0  0  0
  3 11  1  6  0  0  0
  3  6  1  0  0  0  0
  4  8  2  0  0  0  0
  5  2  2  0  0  0  0
  6  9  1  0  0  0  0
  6  8  1  1  0  0  0
  7  3  1  0  0  0  0
  7  2  1  0  0  0  0
  9  1  1  6  0  0  0
 10  9  1  0  0  0  0
 11 10  1  0  0  0  0
 12 13  1  6  0  0  0
 12 14  1  0  0  0  0
 14 20  1  0  0  0  0
 15 21  1  0  0  0  0
 16 15  1  0  0  0  0
 16 17  1  0  0  0  0
 18 20  2  0  0  0  0
 18 22  1  0  0  0  0
 19 15  2  0  0  0  0
 20 19  1  0  0  0  0
 22 16  2  0  0  0  0
 23 24  1  0  0  0  0
 23  1  1  0  0  0  0
 25 26  1  6  0  0  0
 25 27  1  0  0  0  0
 25 24  1  0  0  0  0
 27 28  1  0  0  0  0
 28 30  1  0  0  0  0
 29 28  2  0  0  0  0
 31 30  1  1  0  0  0
 31 35  1  0  0  0  0
 32 35  1  0  0  0  0
 33 34  1  0  0  0  0
 33 31  1  0  0  0  0
 35 37  1  1  0  0  0
 36 34  1  0  0  0  0
 36 32  1  0  0  0  0
 37 38  1  0  0  0  0
 38 42  1  0  0  0  0
 39 40  1  0  0  0  0
 41 39  2  0  0  0  0
 42 40  2  0  0  0  0
 43 38  2  0  0  0  0
 43 41  1  0  0  0  0
M  END
>  <MODEL>
4

>  <REMARK>
 VINA RESULT:      -8.1      2.652      4.320
  Name = 
  13 active torsions:
  status: ('A' for Active; 'I' for Inactive)
    1  A    between atoms: C_1  and  C_34
    2  A    between atoms: C_1  and  C_35
    3  A    between atoms: C_2  and  O_6
    4  A    between atoms: C_2  and  C_13
    5  A    between atoms: S_3  and  C_4
    6  A    between atoms: S_3  and  C_12
    7  A    between atoms: O_6  and  C_12
    8  A    between atoms: N_8  and  C_27
    9  A    between atoms: N_8  and  C_30
   10  A    between atoms: N_8  and  C_34
   11  A    between atoms: C_11  and  C_14
   12  A    between atoms: C_13  and  C_27
   13  A    between atoms: C_14  and  C_41
                            x       y       z     vdW  Elec       q    Type
                         _______ _______ _______ _____ _____    ______ ____

>  <TORSDO>
F 13

$$$$
=
 OpenBabel10262422453D

 43 47  0  0  1  0  0  0  0  0999 V2000
  188.2940  177.6200  141.4490 N   0  0  0  0  0  0  0  0  0  0  0  0
  187.8030  177.0630  136.1910 C   0  0  0  0  0  0  0  0  0  0  0  0
  189.5360  177.0920  137.9560 C   0  0  2  0  0  3  0  0  0  0  0  0
  187.0280  177.9930  137.0430 C   0  0  0  0  0  3  0  0  0  0  0  0
  187.4560  176.8770  134.9960 O   0  0  0  0  0  0  0  0  0  0  0  0
  188.4190  177.3030  138.9480 C   0  0  2  0  0  3  0  0  0  0  0  0
  188.9990  176.3280  136.7480 C   0  0  0  0  0  2  0  0  0  0  0  0
  187.3370  178.1460  138.3380 C   0  0  0  0  0  3  0  0  0  0  0  0
  189.0560  177.8720  140.2080 C   0  0  2  0  0  3  0  0  0  0  0  0
  190.7440  177.1710  140.3370 S   0  0  0  0  0  0  0  0  0  0  0  0
  190.6210  176.3640  138.7050 C   0  0  0  0  0  2  0  0  0  0  0  0
  189.1880  177.4420  142.6030 C   0  0  1  0  0  3  0  0  0  0  0  0
  189.3240  178.6420  143.3070 O   0  0  0  0  0  1  0  0  0  0  0  0
  188.6220  176.3960  143.5560 C   0  0  0  0  0  2  0  0  0  0  0  0
  187.0330  177.9990  146.5970 C   0  0  0  0  0  0  0  0  0  0  0  0
  188.1100  178.0150  147.4970 C   0  0  0  0  0  0  0  0  0  0  0  0
  187.9610  178.5200  148.7460 F   0  0  0  0  0  0  0  0  0  0  0  0
  189.5220  176.9860  145.8170 C   0  0  0  0  0  3  0  0  0  0  0  0
  187.2060  177.4780  145.3110 C   0  0  0  0  0  3  0  0  0  0  0  0
  188.4500  176.9720  144.9190 C   0  0  0  0  0  0  0  0  0  0  0  0
  185.6970  178.5170  147.0020 C   0  0  0  0  0  1  0  0  0  0  0  0
  189.3530  177.5100  147.1030 C   0  0  0  0  0  3  0  0  0  0  0  0
  187.2240  178.6140  141.6690 C   0  0  0  0  0  2  0  0  0  0  0  0
  185.8780  177.9970  142.0690 C   0  0  0  0  0  2  0  0  0  0  0  0
  184.8010  179.0600  142.2440 C   0  0  2  0  0  3  0  0  0  0  0  0
  184.9590  179.7720  143.5780 C   0  0  0  0  0  1  0  0  0  0  0  0
  183.5100  178.4700  142.1180 O   0  0  0  0  0  0  0  0  0  0  0  0
  182.8080  178.4050  140.9100 C   0  0  0  0  0  0  0  0  0  0  0  0
  181.5980  178.0590  140.9210 O   0  0  0  0  0  0  0  0  0  0  0  0
  183.5980  178.7790  139.3400 S   0  0  0  0  0  0  0  0  0  0  0  0
  182.2360  178.2140  138.2490 C   0  0  1  0  0  3  0  0  0  0  0  0
  181.0080  176.3480  137.1050 C   0  0  0  0  0  2  0  0  0  0  0  0
  181.6460  179.3140  137.3580 C   0  0  0  0  0  2  0  0  0  0  0  0
  180.6750  178.7460  136.3110 C   0  0  0  0  0  2  0  0  0  0  0  0
  182.3910  176.8530  137.5510 C   0  0  1  0  0  3  0  0  0  0  0  0
  179.9920  177.4680  136.8040 C   0  0  0  0  0  2  0  0  0  0  0  0
  183.2930  176.9450  136.3170 C   0  0  0  0  0  2  0  0  0  0  0  0
  184.1790  175.7510  136.1430 C   0  0  0  0  0  0  0  0  0  0  0  0
  185.8840  173.5790  135.8480 C   0  0  0  0  0  3  0  0  0  0  0  0
  185.2700  174.1700  134.7410 C   0  0  0  0  0  3  0  0  0  0  0  0
  185.6400  174.0990  137.1200 C   0  0  0  0  0  3  0  0  0  0  0  0
  184.4460  175.2390  134.9080 N   0  0  0  0  0  0  0  0  0  0  0  0
  184.7860  175.1930  137.2710 C   0  0  0  0  0  3  0  0  0  0  0  0
  1 23  1  0  0  0  0
  1 12  1  0  0  0  0
  2  7  1  0  0  0  0
  2  4  1  0  0  0  0
  3  7  1  6  0  0  0
  3 11  1  0  0  0  0
  3  6  1  0  0  0  0
  4  8  2  0  0  0  0
  5  2  2  0  0  0  0
  6  8  1  6  0  0  0
  6  9  1  0  0  0  0
  9 10  1  0  0  0  0
  9  1  1  1  0  0  0
 11 10  1  0  0  0  0
 12 13  1  1  0  0  0
 12 14  1  0  0  0  0
 14 20  1  0  0  0  0
 15 21  1  0  0  0  0
 15 16  1  0  0  0  0
 16 17  1  0  0  0  0
 18 22  1  0  0  0  0
 19 15  2  0  0  0  0
 20 19  1  0  0  0  0
 20 18  2  0  0  0  0
 22 16  2  0  0  0  0
 23 24  1  0  0  0  0
 24 25  1  0  0  0  0
 25 26  1  1  0  0  0
 27 25  1  0  0  0  0
 28 29  2  0  0  0  0
 28 27  1  0  0  0  0
 30 28  1  0  0  0  0
 31 30  1  6  0  0  0
 32 35  1  0  0  0  0
 33 31  1  0  0  0  0
 34 36  1  0  0  0  0
 34 33  1  0  0  0  0
 35 37  1  6  0  0  0
 35 31  1  0  0  0  0
 36 32  1  0  0  0  0
 38 37  1  0  0  0  0
 38 43  1  0  0  0  0
 39 41  1  0  0  0  0
 40 42  1  0  0  0  0
 40 39  2  0  0  0  0
 41 43  2  0  0  0  0
 42 38  2  0  0  0  0
M  END
>  <MODEL>
5

>  <REMARK>
 VINA RESULT:      -8.1      2.115      3.948
  Name = 
  13 active torsions:
  status: ('A' for Active; 'I' for Inactive)
    1  A    between atoms: C_1  and  C_34
    2  A    between atoms: C_1  and  C_35
    3  A    between atoms: C_2  and  O_6
    4  A    between atoms: C_2  and  C_13
    5  A    between atoms: S_3  and  C_4
    6  A    between atoms: S_3  and  C_12
    7  A    between atoms: O_6  and  C_12
    8  A    between atoms: N_8  and  C_27
    9  A    between atoms: N_8  and  C_30
   10  A    between atoms: N_8  and  C_34
   11  A    between atoms: C_11  and  C_14
   12  A    between atoms: C_13  and  C_27
   13  A    between atoms: C_14  and  C_41
                            x       y       z     vdW  Elec       q    Type
                         _______ _______ _______ _____ _____    ______ ____

>  <TORSDO>
F 13

$$$$
=
 OpenBabel10262422453D

 43 47  0  0  1  0  0  0  0  0999 V2000
  187.4940  177.9850  144.0420 N   0  0  0  0  0  0  0  0  0  0  0  0
  191.5900  176.3520  147.0010 C   0  0  0  0  0  0  0  0  0  0  0  0
  189.3130  177.2920  147.2400 C   0  0  2  0  0  3  0  0  0  0  0  0
  191.6810  177.0980  145.7240 C   0  0  0  0  0  3  0  0  0  0  0  0
  192.6270  175.8460  147.5010 O   0  0  0  0  0  0  0  0  0  0  0  0
  189.2310  177.2840  145.7330 C   0  0  2  0  0  3  0  0  0  0  0  0
  190.2610  176.1850  147.6970 C   0  0  0  0  0  2  0  0  0  0  0  0
  190.5760  177.5800  145.1380 C   0  0  0  0  0  3  0  0  0  0  0  0
  188.1210  178.2540  145.3520 C   0  0  2  0  0  3  0  0  0  0  0  0
  186.8660  178.2090  146.6860 S   0  0  0  0  0  0  0  0  0  0  0  0
  187.9000  177.1280  147.7320 C   0  0  0  0  0  2  0  0  0  0  0  0
  188.3570  177.1520  143.1920 C   0  0  1  0  0  3  0  0  0  0  0  0
  187.9310  175.8200  143.2180 O   0  0  0  0  0  1  0  0  0  0  0  0
  188.3060  177.6360  141.7470 C   0  0  0  0  0  2  0  0  0  0  0  0
  190.9340  176.9760  139.1010 C   0  0  0  0  0  0  0  0  0  0  0  0
  192.1170  177.1470  139.8360 C   0  0  0  0  0  0  0  0  0  0  0  0
  193.3280  176.9990  139.2440 F   0  0  0  0  0  0  0  0  0  0  0  0
  190.8090  177.6240  141.8200 C   0  0  0  0  0  3  0  0  0  0  0  0
  189.6950  177.1280  139.7300 C   0  0  0  0  0  3  0  0  0  0  0  0
  189.6300  177.4510  141.0890 C   0  0  0  0  0  0  0  0  0  0  0  0
  190.9820  176.6490  137.6490 C   0  0  0  0  0  1  0  0  0  0  0  0
  192.0510  177.4690  141.1960 C   0  0  0  0  0  3  0  0  0  0  0  0
  186.1110  177.4810  144.1670 C   0  0  0  0  0  2  0  0  0  0  0  0
  185.2540  177.7030  142.9150 C   0  0  0  0  0  2  0  0  0  0  0  0
  184.4440  178.9900  143.0070 C   0  0  2  0  0  3  0  0  0  0  0  0
  183.6810  179.0530  144.3200 C   0  0  0  0  0  1  0  0  0  0  0  0
  183.5670  179.0940  141.8880 O   0  0  0  0  0  0  0  0  0  0  0  0
  184.0000  179.0030  140.5610 C   0  0  0  0  0  0  0  0  0  0  0  0
  184.9300  179.7530  140.1660 O   0  0  0  0  0  0  0  0  0  0  0  0
  183.2430  177.8600  139.4000 S   0  0  0  0  0  0  0  0  0  0  0  0
  182.3190  179.1000  138.4120 C   0  0  1  0  0  3  0  0  0  0  0  0
  181.2320  181.3550  138.2360 C   0  0  0  0  0  2  0  0  0  0  0  0
  181.6030  178.5220  137.1860 C   0  0  0  0  0  2  0  0  0  0  0  0
  180.6680  179.5490  136.5300 C   0  0  0  0  0  2  0  0  0  0  0  0
  181.5110  180.1660  139.1710 C   0  0  1  0  0  3  0  0  0  0  0  0
  181.1610  180.9830  136.7420 C   0  0  0  0  0  2  0  0  0  0  0  0
  180.1700  179.6170  139.6680 C   0  0  0  0  0  2  0  0  0  0  0  0
  180.1330  179.4010  141.1480 C   0  0  0  0  0  0  0  0  0  0  0  0
  179.9940  178.9660  143.8870 C   0  0  0  0  0  3  0  0  0  0  0  0
  179.9940  180.2600  143.3620 C   0  0  0  0  0  3  0  0  0  0  0  0
  180.0550  177.8780  143.0160 C   0  0  0  0  0  3  0  0  0  0  0  0
  180.0530  180.4500  142.0160 N   0  0  0  0  0  0  0  0  0  0  0  0
  180.1220  178.0940  141.6390 C   0  0  0  0  0  3  0  0  0  0  0  0
  1 23  1  0  0  0  0
  2  5  2  0  0  0  0
  2  7  1  0  0  0  0
  3  7  1  6  0  0  0
  3 11  1  0  0  0  0
  4  2  1  0  0  0  0
  6  8  1  6  0  0  0
  6  3  1  0  0  0  0
  8  4  2  0  0  0  0
  9  1  1  6  0  0  0
  9  6  1  0  0  0  0
  9 10  1  0  0  0  0
 10 11  1  0  0  0  0
 12 13  1  6  0  0  0
 12  1  1  0  0  0  0
 14 12  1  0  0  0  0
 15 19  2  0  0  0  0
 15 16  1  0  0  0  0
 16 22  2  0  0  0  0
 17 16  1  0  0  0  0
 19 20  1  0  0  0  0
 20 14  1  0  0  0  0
 20 18  2  0  0  0  0
 21 15  1  0  0  0  0
 22 18  1  0  0  0  0
 24 25  1  0  0  0  0
 24 23  1  0  0  0  0
 25 26  1  1  0  0  0
 27 25  1  0  0  0  0
 28 27  1  0  0  0  0
 29 28  2  0  0  0  0
 30 28  1  0  0  0  0
 31 35  1  0  0  0  0
 31 30  1  1  0  0  0
 32 35  1  0  0  0  0
 33 31  1  0  0  0  0
 34 36  1  0  0  0  0
 34 33  1  0  0  0  0
 35 37  1  6  0  0  0
 36 32  1  0  0  0  0
 37 38  1  0  0  0  0
 38 43  2  0  0  0  0
 38 42  1  0  0  0  0
 40 39  1  0  0  0  0
 41 39  2  0  0  0  0
 42 40  2  0  0  0  0
 43 41  1  0  0  0  0
M  END
>  <MODEL>
6

>  <REMARK>
 VINA RESULT:      -8.0      2.703      5.778
  Name = 
  13 active torsions:
  status: ('A' for Active; 'I' for Inactive)
    1  A    between atoms: C_1  and  C_34
    2  A    between atoms: C_1  and  C_35
    3  A    between atoms: C_2  and  O_6
    4  A    between atoms: C_2  and  C_13
    5  A    between atoms: S_3  and  C_4
    6  A    between atoms: S_3  and  C_12
    7  A    between atoms: O_6  and  C_12
    8  A    between atoms: N_8  and  C_27
    9  A    between atoms: N_8  and  C_30
   10  A    between atoms: N_8  and  C_34
   11  A    between atoms: C_11  and  C_14
   12  A    between atoms: C_13  and  C_27
   13  A    between atoms: C_14  and  C_41
                            x       y       z     vdW  Elec       q    Type
                         _______ _______ _______ _____ _____    ______ ____

>  <TORSDO>
F 13

$$$$
=
 OpenBabel10262422453D

 43 47  0  0  1  0  0  0  0  0999 V2000
  187.0050  178.3420  144.1660 N   0  0  0  0  0  0  0  0  0  0  0  0
  191.4020  176.6010  146.5820 C   0  0  0  0  0  0  0  0  0  0  0  0
  189.1200  177.3990  147.1080 C   0  0  2  0  0  3  0  0  0  0  0  0
  191.3530  177.4820  145.3930 C   0  0  0  0  0  3  0  0  0  0  0  0
  192.4970  176.0940  146.9380 O   0  0  0  0  0  0  0  0  0  0  0  0
  188.9080  177.5480  145.6220 C   0  0  2  0  0  3  0  0  0  0  0  0
  190.1460  176.2970  147.3620 C   0  0  0  0  0  2  0  0  0  0  0  0
  190.1850  177.9700  144.9550 C   0  0  0  0  0  3  0  0  0  0  0  0
  187.7330  178.4990  145.4420 C   0  0  2  0  0  3  0  0  0  0  0  0
  186.6000  178.2520  146.8610 S   0  0  0  0  0  0  0  0  0  0  0  0
  187.7620  177.1160  147.6940 C   0  0  0  0  0  2  0  0  0  0  0  0
  187.7610  177.5140  143.2140 C   0  0  1  0  0  3  0  0  0  0  0  0
  187.4140  176.1670  143.3540 O   0  0  0  0  0  1  0  0  0  0  0  0
  187.4520  177.9360  141.7820 C   0  0  0  0  0  2  0  0  0  0  0  0
  189.6180  177.6480  138.6880 C   0  0  0  0  0  0  0  0  0  0  0  0
  190.8540  177.2880  139.2470 C   0  0  0  0  0  0  0  0  0  0  0  0
  191.9370  177.0850  138.4580 F   0  0  0  0  0  0  0  0  0  0  0  0
  189.8630  177.3390  141.4580 C   0  0  0  0  0  3  0  0  0  0  0  0
  188.5100  177.8500  139.5170 C   0  0  0  0  0  3  0  0  0  0  0  0
  188.6300  177.6950  140.9020 C   0  0  0  0  0  0  0  0  0  0  0  0
  189.4740  177.8350  137.2170 C   0  0  0  0  0  1  0  0  0  0  0  0
  190.9720  177.1320  140.6320 C   0  0  0  0  0  3  0  0  0  0  0  0
  185.6080  177.9060  144.3590 C   0  0  0  0  0  2  0  0  0  0  0  0
  184.6390  178.4390  143.2960 C   0  0  0  0  0  2  0  0  0  0  0  0
  183.4020  179.0680  143.9250 C   0  0  2  0  0  3  0  0  0  0  0  0
  183.4780  179.0030  145.4420 C   0  0  0  0  0  1  0  0  0  0  0  0
  182.2270  178.4270  143.4330 O   0  0  0  0  0  0  0  0  0  0  0  0
  181.2200  179.0990  142.7340 C   0  0  0  0  0  0  0  0  0  0  0  0
  180.7470  180.1630  143.2100 O   0  0  0  0  0  0  0  0  0  0  0  0
  180.5670  178.4670  141.1840 S   0  0  0  0  0  0  0  0  0  0  0  0
  182.1400  178.4830  140.2390 C   0  0  1  0  0  3  0  0  0  0  0  0
  183.9030  179.7570  138.9880 C   0  0  0  0  0  2  0  0  0  0  0  0
  182.5430  177.1190  139.6660 C   0  0  0  0  0  2  0  0  0  0  0  0
  183.7340  177.2310  138.7020 C   0  0  0  0  0  2  0  0  0  0  0  0
  182.3980  179.6670  139.2920 C   0  0  1  0  0  3  0  0  0  0  0  0
  184.6460  178.4080  139.0590 C   0  0  0  0  0  2  0  0  0  0  0  0
  181.6460  179.5100  137.9670 C   0  0  0  0  0  2  0  0  0  0  0  0
  181.1850  180.8130  137.3930 C   0  0  0  0  0  0  0  0  0  0  0  0
  180.3900  183.2300  136.2790 C   0  0  0  0  0  3  0  0  0  0  0  0
  180.7950  183.1490  137.6130 C   0  0  0  0  0  3  0  0  0  0  0  0
  180.3960  182.0750  135.4960 C   0  0  0  0  0  3  0  0  0  0  0  0
  181.1890  181.9570  138.1360 N   0  0  0  0  0  0  0  0  0  0  0  0
  180.7980  180.8600  136.0520 C   0  0  0  0  0  3  0  0  0  0  0  0
  1 23  1  0  0  0  0
  2  5  2  0  0  0  0
  2  7  1  0  0  0  0
  3  7  1  6  0  0  0
  3 11  1  0  0  0  0
  4  2  1  0  0  0  0
  6  8  1  6  0  0  0
  6  3  1  0  0  0  0
  8  4  2  0  0  0  0
  9  1  1  6  0  0  0
  9  6  1  0  0  0  0
  9 10  1  0  0  0  0
 10 11  1  0  0  0  0
 12 13  1  6  0  0  0
 12  1  1  0  0  0  0
 14 12  1  0  0  0  0
 15 16  2  0  0  0  0
 15 19  1  0  0  0  0
 16 22  1  0  0  0  0
 17 16  1  0  0  0  0
 19 20  2  0  0  0  0
 20 18  1  0  0  0  0
 20 14  1  0  0  0  0
 21 15  1  0  0  0  0
 22 18  2  0  0  0  0
 24 25  1  0  0  0  0
 24 23  1  0  0  0  0
 25 26  1  1  0  0  0
 27 25  1  0  0  0  0
 28 29  2  0  0  0  0
 28 27  1  0  0  0  0
 30 28  1  0  0  0  0
 31 30  1  6  0  0  0
 32 36  1  0  0  0  0
 32 35  1  0  0  0  0
 33 31  1  0  0  0  0
 34 36  1  0  0  0  0
 34 33  1  0  0  0  0
 35 37  1  6  0  0  0
 35 31  1  0  0  0  0
 38 37  1  0  0  0  0
 38 42  1  0  0  0  0
 39 40  1  0  0  0  0
 40 42  2  0  0  0  0
 41 43  1  0  0  0  0
 41 39  2  0  0  0  0
 43 38  2  0  0  0  0
M  END
>  <MODEL>
7

>  <REMARK>
 VINA RESULT:      -7.9      3.098      6.493
  Name = 
  13 active torsions:
  status: ('A' for Active; 'I' for Inactive)
    1  A    between atoms: C_1  and  C_34
    2  A    between atoms: C_1  and  C_35
    3  A    between atoms: C_2  and  O_6
    4  A    between atoms: C_2  and  C_13
    5  A    between atoms: S_3  and  C_4
    6  A    between atoms: S_3  and  C_12
    7  A    between atoms: O_6  and  C_12
    8  A    between atoms: N_8  and  C_27
    9  A    between atoms: N_8  and  C_30
   10  A    between atoms: N_8  and  C_34
   11  A    between atoms: C_11  and  C_14
   12  A    between atoms: C_13  and  C_27
   13  A    between atoms: C_14  and  C_41
                            x       y       z     vdW  Elec       q    Type
                         _______ _______ _______ _____ _____    ______ ____

>  <TORSDO>
F 13

$$$$
=
 OpenBabel10262422453D

 43 47  0  0  1  0  0  0  0  0999 V2000
  188.9570  177.0780  141.9630 N   0  0  0  0  0  0  0  0  0  0  0  0
  187.9590  177.8570  147.1200 C   0  0  0  0  0  0  0  0  0  0  0  0
  189.7010  176.9270  145.6300 C   0  0  2  0  0  3  0  0  0  0  0  0
  186.9720  177.4480  146.0950 C   0  0  0  0  0  3  0  0  0  0  0  0
  187.5630  178.2050  148.2620 O   0  0  0  0  0  0  0  0  0  0  0  0
  188.8120  177.3090  144.4720 C   0  0  2  0  0  3  0  0  0  0  0  0
  189.4350  177.8690  146.8010 C   0  0  0  0  0  2  0  0  0  0  0  0
  187.3680  177.1450  144.8510 C   0  0  0  0  0  3  0  0  0  0  0  0
  189.2700  176.4820  143.2790 C   0  0  2  0  0  3  0  0  0  0  0  0
  191.0750  176.2180  143.4510 S   0  0  0  0  0  0  0  0  0  0  0  0
  191.1110  176.9890  145.1050 C   0  0  0  0  0  2  0  0  0  0  0  0
  188.2390  178.3530  142.1060 C   0  0  1  0  0  3  0  0  0  0  0  0
  189.1410  179.4210  142.1430 O   0  0  0  0  0  1  0  0  0  0  0  0
  187.3000  178.5680  140.9250 C   0  0  0  0  0  2  0  0  0  0  0  0
  184.2750  178.8380  143.1880 C   0  0  0  0  0  0  0  0  0  0  0  0
  183.2260  178.7700  142.2590 C   0  0  0  0  0  0  0  0  0  0  0  0
  181.9350  178.8370  142.6660 F   0  0  0  0  0  0  0  0  0  0  0  0
  184.8390  178.5570  140.4620 C   0  0  0  0  0  3  0  0  0  0  0  0
  185.6000  178.7640  142.7510 C   0  0  0  0  0  3  0  0  0  0  0  0
  185.8850  178.6230  141.3880 C   0  0  0  0  0  0  0  0  0  0  0  0
  183.9930  179.0070  144.6410 C   0  0  0  0  0  1  0  0  0  0  0  0
  183.5110  178.6270  140.8970 C   0  0  0  0  0  3  0  0  0  0  0  0
  190.1380  177.1520  141.0790 C   0  0  0  0  0  2  0  0  0  0  0  0
  189.7970  177.1030  139.5840 C   0  0  0  0  0  2  0  0  0  0  0  0
  190.6480  176.0780  138.8450 C   0  0  2  0  0  3  0  0  0  0  0  0
  191.5130  176.7540  137.7940 C   0  0  0  0  0  1  0  0  0  0  0  0
  189.8110  175.0780  138.2680 O   0  0  0  0  0  0  0  0  0  0  0  0
  190.1490  174.3670  137.1120 C   0  0  0  0  0  0  0  0  0  0  0  0
  191.0210  173.4630  137.1800 O   0  0  0  0  0  0  0  0  0  0  0  0
  189.3850  174.7290  135.5260 S   0  0  0  0  0  0  0  0  0  0  0  0
  188.3160  176.1110  136.0880 C   0  0  1  0  0  3  0  0  0  0  0  0
  186.4580  176.9580  137.5460 C   0  0  0  0  0  2  0  0  0  0  0  0
  188.2670  177.3010  135.1220 C   0  0  0  0  0  2  0  0  0  0  0  0
  187.1910  178.3220  135.5230 C   0  0  0  0  0  2  0  0  0  0  0  0
  186.9610  175.7580  136.7250 C   0  0  1  0  0  3  0  0  0  0  0  0
  186.9490  178.3270  137.0350 C   0  0  0  0  0  2  0  0  0  0  0  0
  185.9060  175.4200  135.6680 C   0  0  0  0  0  2  0  0  0  0  0  0
  184.9640  174.3400  136.1000 C   0  0  0  0  0  0  0  0  0  0  0  0
  183.2410  172.2920  136.8410 C   0  0  0  0  0  3  0  0  0  0  0  0
  182.7510  173.5340  136.4320 C   0  0  0  0  0  3  0  0  0  0  0  0
  184.6200  172.0790  136.8670 C   0  0  0  0  0  3  0  0  0  0  0  0
  183.6130  174.5200  136.0640 N   0  0  0  0  0  0  0  0  0  0  0  0
  185.4880  173.1060  136.4910 C   0  0  0  0  0  3  0  0  0  0  0  0
  1 12  1  0  0  0  0
  2  5  2  0  0  0  0
  3 11  1  6  0  0  0
  3  7  1  0  0  0  0
  4  2  1  0  0  0  0
  6  8  1  1  0  0  0
  6  3  1  0  0  0  0
  7  2  1  0  0  0  0
  8  4  2  0  0  0  0
  9  1  1  6  0  0  0
  9 10  1  0  0  0  0
  9  6  1  0  0  0  0
 10 11  1  0  0  0  0
 12 13  1  6  0  0  0
 14 20  1  0  0  0  0
 14 12  1  0  0  0  0
 15 21  1  0  0  0  0
 16 17  1  0  0  0  0
 16 15  2  0  0  0  0
 18 22  2  0  0  0  0
 18 20  1  0  0  0  0
 19 15  1  0  0  0  0
 20 19  2  0  0  0  0
 22 16  1  0  0  0  0
 23  1  1  0  0  0  0
 24 23  1  0  0  0  0
 25 26  1  6  0  0  0
 25 24  1  0  0  0  0
 27 25  1  0  0  0  0
 28 29  2  0  0  0  0
 28 27  1  0  0  0  0
 30 28  1  0  0  0  0
 31 30  1  6  0  0  0
 31 35  1  0  0  0  0
 33 34  1  0  0  0  0
 33 31  1  0  0  0  0
 34 36  1  0  0  0  0
 35 37  1  6  0  0  0
 35 32  1  0  0  0  0
 36 32  1  0  0  0  0
 37 38  1  0  0  0  0
 38 43  1  0  0  0  0
 39 41  1  0  0  0  0
 40 39  2  0  0  0  0
 42 38  2  0  0  0  0
 42 40  1  0  0  0  0
 43 41  2  0  0  0  0
M  END
>  <MODEL>
8

>  <REMARK>
 VINA RESULT:      -7.9      3.580      7.457
  Name = 
  13 active torsions:
  status: ('A' for Active; 'I' for Inactive)
    1  A    between atoms: C_1  and  C_34
    2  A    between atoms: C_1  and  C_35
    3  A    between atoms: C_2  and  O_6
    4  A    between atoms: C_2  and  C_13
    5  A    between atoms: S_3  and  C_4
    6  A    between atoms: S_3  and  C_12
    7  A    between atoms: O_6  and  C_12
    8  A    between atoms: N_8  and  C_27
    9  A    between atoms: N_8  and  C_30
   10  A    between atoms: N_8  and  C_34
   11  A    between atoms: C_11  and  C_14
   12  A    between atoms: C_13  and  C_27
   13  A    between atoms: C_14  and  C_41
                            x       y       z     vdW  Elec       q    Type
                         _______ _______ _______ _____ _____    ______ ____

>  <TORSDO>
F 13

$$$$
=
 OpenBabel10262422453D

 43 47  0  0  1  0  0  0  0  0999 V2000
  188.4190  177.4410  141.1700 N   0  0  0  0  0  0  0  0  0  0  0  0
  188.1180  177.5130  146.4710 C   0  0  0  0  0  0  0  0  0  0  0  0
  189.7550  177.1380  144.6540 C   0  0  2  0  0  3  0  0  0  0  0  0
  187.0870  176.9840  145.5480 C   0  0  0  0  0  3  0  0  0  0  0  0
  187.8450  177.6600  147.6900 O   0  0  0  0  0  0  0  0  0  0  0  0
  188.6310  177.4100  143.6840 C   0  0  2  0  0  3  0  0  0  0  0  0
  189.4870  177.8870  145.9570 C   0  0  0  0  0  2  0  0  0  0  0  0
  187.3350  176.8910  144.2340 C   0  0  0  0  0  3  0  0  0  0  0  0
  189.0570  176.8180  142.3480 C   0  0  2  0  0  3  0  0  0  0  0  0
  190.8800  176.9540  142.2380 S   0  0  0  0  0  0  0  0  0  0  0  0
  191.0180  177.5630  143.9540 C   0  0  0  0  0  2  0  0  0  0  0  0
  187.5410  178.5550  141.5580 C   0  0  1  0  0  3  0  0  0  0  0  0
  188.2100  179.7750  141.4240 O   0  0  0  0  0  1  0  0  0  0  0  0
  186.3050  178.5920  140.6680 C   0  0  0  0  0  2  0  0  0  0  0  0
  184.0020  178.8640  143.6620 C   0  0  0  0  0  0  0  0  0  0  0  0
  182.7410  178.7830  143.0510 C   0  0  0  0  0  0  0  0  0  0  0  0
  181.6080  178.8450  143.7910 F   0  0  0  0  0  0  0  0  0  0  0  0
  183.8100  178.5640  140.8860 C   0  0  0  0  0  3  0  0  0  0  0  0
  185.1610  178.7930  142.8830 C   0  0  0  0  0  3  0  0  0  0  0  0
  185.0670  178.6420  141.4950 C   0  0  0  0  0  0  0  0  0  0  0  0
  184.1220  179.0420  145.1360 C   0  0  0  0  0  1  0  0  0  0  0  0
  182.6490  178.6300  141.6630 C   0  0  0  0  0  3  0  0  0  0  0  0
  189.3930  177.7870  140.1150 C   0  0  0  0  0  2  0  0  0  0  0  0
  188.7610  178.0000  138.7330 C   0  0  0  0  0  2  0  0  0  0  0  0
  188.3640  176.6790  138.0860 C   0  0  2  0  0  3  0  0  0  0  0  0
  189.5860  175.8070  137.8490 C   0  0  0  0  0  1  0  0  0  0  0  0
  187.6560  176.9250  136.8730 O   0  0  0  0  0  0  0  0  0  0  0  0
  186.2640  177.0330  136.8040 C   0  0  0  0  0  0  0  0  0  0  0  0
  185.6420  177.5790  137.7520 O   0  0  0  0  0  0  0  0  0  0  0  0
  185.3370  176.3890  135.4060 S   0  0  0  0  0  0  0  0  0  0  0  0
  184.8340  174.7970  136.1680 C   0  0  1  0  0  3  0  0  0  0  0  0
  183.0230  173.2420  136.9440 C   0  0  0  0  0  2  0  0  0  0  0  0
  185.9420  174.1070  136.9720 C   0  0  0  0  0  2  0  0  0  0  0  0
  185.4100  172.9060  137.7700 C   0  0  0  0  0  2  0  0  0  0  0  0
  183.4410  174.7170  136.8150 C   0  0  1  0  0  3  0  0  0  0  0  0
  184.2030  172.2600  137.0860 C   0  0  0  0  0  2  0  0  0  0  0  0
  183.4250  175.3480  138.2100 C   0  0  0  0  0  2  0  0  0  0  0  0
  182.2270  176.2110  138.4530 C   0  0  0  0  0  0  0  0  0  0  0  0
  180.0510  177.8690  138.9310 C   0  0  0  0  0  3  0  0  0  0  0  0
  180.2020  176.6610  139.6160 C   0  0  0  0  0  3  0  0  0  0  0  0
  181.0170  178.2480  137.9990 C   0  0  0  0  0  3  0  0  0  0  0  0
  181.2800  175.8690  139.3730 N   0  0  0  0  0  0  0  0  0  0  0  0
  182.1140  177.4180  137.7590 C   0  0  0  0  0  3  0  0  0  0  0  0
  1 12  1  0  0  0  0
  2  5  2  0  0  0  0
  3 11  1  6  0  0  0
  3  7  1  0  0  0  0
  4  2  1  0  0  0  0
  6  8  1  1  0  0  0
  6  3  1  0  0  0  0
  7  2  1  0  0  0  0
  8  4  2  0  0  0  0
  9  1  1  6  0  0  0
  9  6  1  0  0  0  0
 10  9  1  0  0  0  0
 10 11  1  0  0  0  0
 12 13  1  6  0  0  0
 14 20  1  0  0  0  0
 14 12  1  0  0  0  0
 15 21  1  0  0  0  0
 16 15  1  0  0  0  0
 16 17  1  0  0  0  0
 18 20  2  0  0  0  0
 18 22  1  0  0  0  0
 19 15  2  0  0  0  0
 20 19  1  0  0  0  0
 22 16  2  0  0  0  0
 23  1  1  0  0  0  0
 24 23  1  0  0  0  0
 25 26  1  6  0  0  0
 25 24  1  0  0  0  0
 27 25  1  0  0  0  0
 28 27  1  0  0  0  0
 28 29  2  0  0  0  0
 30 28  1  0  0  0  0
 31 30  1  1  0  0  0
 31 35  1  0  0  0  0
 31 33  1  0  0  0  0
 32 36  1  0  0  0  0
 33 34  1  0  0  0  0
 35 32  1  0  0  0  0
 35 37  1  1  0  0  0
 36 34  1  0  0  0  0
 37 38  1  0  0  0  0
 38 42  1  0  0  0  0
 39 40  1  0  0  0  0
 41 39  2  0  0  0  0
 42 40  2  0  0  0  0
 43 41  1  0  0  0  0
 43 38  2  0  0  0  0
M  END
>  <MODEL>
9

>  <REMARK>
 VINA RESULT:      -7.9      2.960      6.281
  Name = 
  13 active torsions:
  status: ('A' for Active; 'I' for Inactive)
    1  A    between atoms: C_1  and  C_34
    2  A    between atoms: C_1  and  C_35
    3  A    between atoms: C_2  and  O_6
    4  A    between atoms: C_2  and  C_13
    5  A    between atoms: S_3  and  C_4
    6  A    between atoms: S_3  and  C_12
    7  A    between atoms: O_6  and  C_12
    8  A    between atoms: N_8  and  C_27
    9  A    between atoms: N_8  and  C_30
   10  A    between atoms: N_8  and  C_34
   11  A    between atoms: C_11  and  C_14
   12  A    between atoms: C_13  and  C_27
   13  A    between atoms: C_14  and  C_41
                            x       y       z     vdW  Elec       q    Type
                         _______ _______ _______ _____ _____    ______ ____

>  <TORSDO>
F 13

$$$$
