=
 OpenBabel10262419263D

 31 35  0  0  1  0  0  0  0  0999 V2000
  185.4340  178.2290  145.0630 C   0  0  0  0  0  0  0  0  0  0  0  0
  188.9520  177.7570  143.8370 C   0  0  0  0  0  0  0  0  0  0  0  0
  189.7860  177.5330  145.0670 C   0  0  0  0  0  0  0  0  0  0  0  0
  189.6670  176.7050  147.3870 C   0  0  0  0  0  2  0  0  0  0  0  0
  187.5460  177.9810  143.8650 C   0  0  0  0  0  0  0  0  0  0  0  0
  184.7570  178.4160  143.8580 C   0  0  0  0  0  3  0  0  0  0  0  0
  189.2830  177.8360  146.4480 C   0  0  0  0  0  2  0  0  0  0  0  0
  188.8850  177.8820  141.3850 C   0  0  0  0  0  0  0  0  0  0  0  0
  184.6880  178.2610  146.3470 C   0  0  0  0  0  1  0  0  0  0  0  0
  191.5740  176.8240  143.6710 O   0  0  0  0  0  0  0  0  0  0  0  0
  191.1870  176.5450  147.4440 C   0  0  1  0  0  3  0  0  0  0  0  0
  187.5100  178.1170  141.4330 C   0  0  0  0  0  3  0  0  0  0  0  0
  189.6000  177.6920  142.5780 C   0  0  0  0  0  0  0  0  0  0  0  0
  186.8130  178.0110  145.0630 C   0  0  0  0  0  3  0  0  0  0  0  0
  191.5670  175.4570  146.6330 O   0  0  0  0  0  0  0  0  0  0  0  0
  186.8400  178.1620  142.6480 C   0  0  0  0  0  0  0  0  0  0  0  0
  185.4590  178.3820  142.6530 C   0  0  0  0  0  3  0  0  0  0  0  0
  191.0900  177.5070  142.5170 C   0  0  0  0  0  2  0  0  0  0  0  0
  191.0380  177.0510  144.9400 C   0  0  0  0  0  0  0  0  0  0  0  0
  191.9030  176.7310  146.1370 C   0  0  1  0  0  3  0  0  0  0  0  0
  189.5700  177.8440  140.1250 N   0  0  0  0  0  2  0  0  0  0  0  0
  190.7630  176.0810  138.5050 S   0  0  0  0  0  1  0  0  0  0  0  0
  189.2380  176.9130  139.0510 C   0  0  2  0  0  3  0  0  0  0  0  0
  188.5720  179.0270  138.1160 O   0  0  0  0  0  1  0  0  0  0  0  0
  188.5840  177.6490  137.8720 C   0  0  2  0  0  3  0  0  0  0  0  0
  187.0500  176.4470  136.3760 N   0  0  0  0  0  1  0  0  0  0  0  0
  187.1470  177.1550  137.6400 C   0  0  2  0  0  3  0  0  0  0  0  0
  186.1560  178.3140  137.6160 C   0  0  0  0  0  2  0  0  0  0  0  0
  184.9030  177.9850  138.4120 C   0  0  0  0  0  3  0  0  0  0  0  0
  184.4620  179.2110  139.1810 C   0  0  0  0  0  1  0  0  0  0  0  0
  183.7870  177.5550  137.4800 C   0  0  0  0  0  1  0  0  0  0  0  0
  1 14  1  0  0  0  0
  1  9  1  0  0  0  0
  2  5  1  0  0  0  0
  2  3  1  0  0  0  0
  3  7  1  0  0  0  0
  5 14  2  0  0  0  0
  6  1  2  0  0  0  0
  7  4  1  0  0  0  0
  8 12  2  0  0  0  0
  8 13  1  0  0  0  0
 10 19  1  0  0  0  0
 11  4  1  6  0  0  0
 12 16  1  0  0  0  0
 13  2  2  0  0  0  0
 15 11  1  0  0  0  0
 16 17  2  0  0  0  0
 16  5  1  0  0  0  0
 17  6  1  0  0  0  0
 18 13  1  0  0  0  0
 18 10  1  0  0  0  0
 19  3  2  0  0  0  0
 20 19  1  6  0  0  0
 20 15  1  0  0  0  0
 20 11  1  0  0  0  0
 21  8  1  0  0  0  0
 23 22  1  6  0  0  0
 23 21  1  0  0  0  0
 25 24  1  1  0  0  0
 25 23  1  0  0  0  0
 27 26  1  6  0  0  0
 27 25  1  0  0  0  0
 28 27  1  0  0  0  0
 28 29  1  0  0  0  0
 29 30  1  0  0  0  0
 31 29  1  0  0  0  0
M  END
>  <MODEL>
1

>  <REMARK>
 VINA RESULT:      -9.5      0.000      0.000
  Name = 
  6 active torsions:
  status: ('A' for Active; 'I' for Inactive)
    1  A    between atoms: C_1  and  C_24
    2  A    between atoms: C_9  and  C_22
    3  A    between atoms: C_9  and  N_23
    4  A    between atoms: C_15  and  N_23
    5  A    between atoms: C_19  and  C_22
    6  A    between atoms: C_19  and  C_24
                            x       y       z     vdW  Elec       q    Type
                         _______ _______ _______ _____ _____    ______ ____

>  <TORSDO>
F 6

$$$$
=
 OpenBabel10262419263D

 31 35  0  0  1  0  0  0  0  0999 V2000
  189.9210  177.1350  146.2240 C   0  0  0  0  0  0  0  0  0  0  0  0
  187.7400  177.8790  143.2580 C   0  0  0  0  0  0  0  0  0  0  0  0
  186.3490  178.0440  143.8050 C   0  0  0  0  0  0  0  0  0  0  0  0
  185.1110  178.6760  145.8420 C   0  0  0  0  0  2  0  0  0  0  0  0
  188.8760  177.5840  144.0630 C   0  0  0  0  0  0  0  0  0  0  0  0
  191.1670  177.0130  145.6110 C   0  0  0  0  0  3  0  0  0  0  0  0
  185.9710  177.6070  145.1890 C   0  0  0  0  0  2  0  0  0  0  0  0
  189.2020  177.9480  141.2860 C   0  0  0  0  0  0  0  0  0  0  0  0
  189.7940  176.9640  147.6940 C   0  0  0  0  0  1  0  0  0  0  0  0
  185.6830  178.9510  141.7120 O   0  0  0  0  0  0  0  0  0  0  0  0
  183.8330  178.9070  145.0340 C   0  0  1  0  0  3  0  0  0  0  0  0
  190.3020  177.6420  142.0890 C   0  0  0  0  0  3  0  0  0  0  0  0
  187.9310  178.0770  141.8680 C   0  0  0  0  0  0  0  0  0  0  0  0
  188.7900  177.4210  145.4560 C   0  0  0  0  0  3  0  0  0  0  0  0
  183.9810  180.0740  144.2590 O   0  0  0  0  0  0  0  0  0  0  0  0
  190.1540  177.4660  143.4580 C   0  0  0  0  0  0  0  0  0  0  0  0
  191.2830  177.1790  144.2310 C   0  0  0  0  0  3  0  0  0  0  0  0
  186.7450  178.3400  140.9830 C   0  0  0  0  0  2  0  0  0  0  0  0
  185.3940  178.5960  143.0310 C   0  0  0  0  0  0  0  0  0  0  0  0
  183.9980  178.8620  143.5430 C   0  0  1  0  0  3  0  0  0  0  0  0
  189.3640  178.1210  139.8710 N   0  0  0  0  0  2  0  0  0  0  0  0
  190.9060  176.4250  138.4900 S   0  0  0  0  0  1  0  0  0  0  0  0
  189.2400  177.0350  138.9030 C   0  0  2  0  0  3  0  0  0  0  0  0
  188.3500  178.9010  137.6760 O   0  0  0  0  0  1  0  0  0  0  0  0
  188.5190  177.5130  137.6350 C   0  0  2  0  0  3  0  0  0  0  0  0
  187.1850  175.8430  136.4230 N   0  0  0  0  0  1  0  0  0  0  0  0
  187.1500  176.8320  137.4860 C   0  0  2  0  0  3  0  0  0  0  0  0
  186.0560  177.8430  137.1620 C   0  0  0  0  0  2  0  0  0  0  0  0
  184.6890  177.3350  137.5930 C   0  0  0  0  0  3  0  0  0  0  0  0
  184.0380  178.3580  138.4990 C   0  0  0  0  0  1  0  0  0  0  0  0
  183.8050  177.1110  136.3800 C   0  0  0  0  0  1  0  0  0  0  0  0
  1  9  1  0  0  0  0
  2  3  1  0  0  0  0
  2  5  1  0  0  0  0
  3  7  1  0  0  0  0
  5 14  1  0  0  0  0
  6  1  1  0  0  0  0
  7  4  1  0  0  0  0
  8 13  1  0  0  0  0
  8 12  2  0  0  0  0
 10 19  1  0  0  0  0
 11  4  1  1  0  0  0
 12 16  1  0  0  0  0
 13  2  2  0  0  0  0
 14  1  2  0  0  0  0
 15 11  1  0  0  0  0
 16  5  2  0  0  0  0
 16 17  1  0  0  0  0
 17  6  2  0  0  0  0
 18 10  1  0  0  0  0
 18 13  1  0  0  0  0
 19  3  2  0  0  0  0
 20 19  1  1  0  0  0
 20 15  1  0  0  0  0
 20 11  1  0  0  0  0
 21  8  1  0  0  0  0
 23 22  1  6  0  0  0
 23 21  1  0  0  0  0
 25 24  1  1  0  0  0
 25 23  1  0  0  0  0
 27 26  1  6  0  0  0
 27 25  1  0  0  0  0
 28 27  1  0  0  0  0
 28 29  1  0  0  0  0
 29 30  1  0  0  0  0
 31 29  1  0  0  0  0
M  END
>  <MODEL>
2

>  <REMARK>
 VINA RESULT:      -9.0      2.062      4.228
  Name = 
  6 active torsions:
  status: ('A' for Active; 'I' for Inactive)
    1  A    between atoms: C_1  and  C_24
    2  A    between atoms: C_9  and  C_22
    3  A    between atoms: C_9  and  N_23
    4  A    between atoms: C_15  and  N_23
    5  A    between atoms: C_19  and  C_22
    6  A    between atoms: C_19  and  C_24
                            x       y       z     vdW  Elec       q    Type
                         _______ _______ _______ _____ _____    ______ ____

>  <TORSDO>
F 6

$$$$
=
 OpenBabel10262419263D

 31 35  0  0  1  0  0  0  0  0999 V2000
  189.8670  177.0970  146.1460 C   0  0  0  0  0  0  0  0  0  0  0  0
  187.6880  177.9920  143.2220 C   0  0  0  0  0  0  0  0  0  0  0  0
  186.2960  178.1220  143.7750 C   0  0  0  0  0  0  0  0  0  0  0  0
  185.0530  178.6390  145.8410 C   0  0  0  0  0  2  0  0  0  0  0  0
  188.8240  177.6580  144.0120 C   0  0  0  0  0  0  0  0  0  0  0  0
  191.1150  177.0120  145.5290 C   0  0  0  0  0  3  0  0  0  0  0  0
  185.9180  177.6100  145.1330 C   0  0  0  0  0  2  0  0  0  0  0  0
  189.1520  178.1730  141.2590 C   0  0  0  0  0  0  0  0  0  0  0  0
  189.7400  176.8460  147.6050 C   0  0  0  0  0  1  0  0  0  0  0  0
  185.6290  179.1390  141.7330 O   0  0  0  0  0  0  0  0  0  0  0  0
  183.7750  178.9090  145.0460 C   0  0  1  0  0  3  0  0  0  0  0  0
  190.2520  177.8280  142.0450 C   0  0  0  0  0  3  0  0  0  0  0  0
  187.8790  178.2660  141.8450 C   0  0  0  0  0  0  0  0  0  0  0  0
  188.7360  177.4190  145.3930 C   0  0  0  0  0  3  0  0  0  0  0  0
  183.9200  180.1160  144.3350 O   0  0  0  0  0  0  0  0  0  0  0  0
  190.1030  177.5770  143.4030 C   0  0  0  0  0  0  0  0  0  0  0  0
  191.2320  177.2530  144.1610 C   0  0  0  0  0  3  0  0  0  0  0  0
  186.6940  178.5720  140.9740 C   0  0  0  0  0  2  0  0  0  0  0  0
  185.3390  178.7120  143.0310 C   0  0  0  0  0  0  0  0  0  0  0  0
  183.9410  178.9450  143.5540 C   0  0  1  0  0  3  0  0  0  0  0  0
  189.3150  178.4220  139.8560 N   0  0  0  0  0  2  0  0  0  0  0  0
  190.8410  176.5020  138.7880 S   0  0  0  0  0  1  0  0  0  0  0  0
  189.2470  177.3810  138.8350 C   0  0  2  0  0  3  0  0  0  0  0  0
  189.0550  179.3780  137.5090 O   0  0  0  0  0  1  0  0  0  0  0  0
  188.9330  177.9850  137.4580 C   0  0  2  0  0  3  0  0  0  0  0  0
  186.5620  178.6280  137.4010 N   0  0  0  0  0  1  0  0  0  0  0  0
  187.5160  177.6090  136.9990 C   0  0  2  0  0  3  0  0  0  0  0  0
  187.0720  176.2770  137.5930 C   0  0  0  0  0  2  0  0  0  0  0  0
  186.3730  175.4140  136.5550 C   0  0  0  0  0  3  0  0  0  0  0  0
  187.1340  175.4870  135.2490 C   0  0  0  0  0  1  0  0  0  0  0  0
  186.3200  173.9710  137.0200 C   0  0  0  0  0  1  0  0  0  0  0  0
  1  9  1  0  0  0  0
  2  3  1  0  0  0  0
  2  5  1  0  0  0  0
  3  7  1  0  0  0  0
  5 14  1  0  0  0  0
  6  1  1  0  0  0  0
  7  4  1  0  0  0  0
  8 13  1  0  0  0  0
  8 12  2  0  0  0  0
 10 19  1  0  0  0  0
 11  4  1  1  0  0  0
 12 16  1  0  0  0  0
 13  2  2  0  0  0  0
 14  1  2  0  0  0  0
 15 11  1  0  0  0  0
 16  5  2  0  0  0  0
 16 17  1  0  0  0  0
 17  6  2  0  0  0  0
 18 10  1  0  0  0  0
 18 13  1  0  0  0  0
 19  3  2  0  0  0  0
 20 19  1  1  0  0  0
 20 15  1  0  0  0  0
 20 11  1  0  0  0  0
 21  8  1  0  0  0  0
 23 22  1  6  0  0  0
 23 21  1  0  0  0  0
 25 24  1  1  0  0  0
 25 23  1  0  0  0  0
 27 26  1  1  0  0  0
 27 25  1  0  0  0  0
 27 28  1  0  0  0  0
 29 31  1  0  0  0  0
 29 28  1  0  0  0  0
 30 29  1  0  0  0  0
M  END
>  <MODEL>
3

>  <REMARK>
 VINA RESULT:      -8.8      2.350      4.524
  Name = 
  6 active torsions:
  status: ('A' for Active; 'I' for Inactive)
    1  A    between atoms: C_1  and  C_24
    2  A    between atoms: C_9  and  C_22
    3  A    between atoms: C_9  and  N_23
    4  A    between atoms: C_15  and  N_23
    5  A    between atoms: C_19  and  C_22
    6  A    between atoms: C_19  and  C_24
                            x       y       z     vdW  Elec       q    Type
                         _______ _______ _______ _____ _____    ______ ____

>  <TORSDO>
F 6

$$$$
=
 OpenBabel10262419263D

 31 35  0  0  1  0  0  0  0  0999 V2000
  185.2700  178.4390  145.9100 C   0  0  0  0  0  0  0  0  0  0  0  0
  187.2460  178.2370  142.7240 C   0  0  0  0  0  0  0  0  0  0  0  0
  188.6480  177.8800  143.1340 C   0  0  0  0  0  0  0  0  0  0  0  0
  189.9400  176.7530  144.9080 C   0  0  0  0  0  2  0  0  0  0  0  0
  186.1740  178.4120  143.6430 C   0  0  0  0  0  0  0  0  0  0  0  0
  184.0060  178.7600  145.4170 C   0  0  0  0  0  3  0  0  0  0  0  0
  189.1230  177.9840  144.5540 C   0  0  0  0  0  2  0  0  0  0  0  0
  185.6880  178.6780  140.8780 C   0  0  0  0  0  0  0  0  0  0  0  0
  185.4800  178.2790  147.3730 C   0  0  0  0  0  1  0  0  0  0  0  0
  189.1480  177.4130  140.8590 O   0  0  0  0  0  0  0  0  0  0  0  0
  191.1580  176.6330  143.9910 C   0  0  1  0  0  3  0  0  0  0  0  0
  184.6520  178.8630  141.7950 C   0  0  0  0  0  3  0  0  0  0  0  0
  186.9750  178.3560  141.3380 C   0  0  0  0  0  0  0  0  0  0  0  0
  186.3400  178.2640  145.0300 C   0  0  0  0  0  3  0  0  0  0  0  0
  190.8930  175.6720  142.9950 O   0  0  0  0  0  0  0  0  0  0  0  0
  184.8790  178.7290  143.1580 C   0  0  0  0  0  0  0  0  0  0  0  0
  183.8110  178.9040  144.0440 C   0  0  0  0  0  3  0  0  0  0  0  0
  188.0950  178.2250  140.3450 C   0  0  0  0  0  2  0  0  0  0  0  0
  189.5250  177.4570  142.2030 C   0  0  0  0  0  0  0  0  0  0  0  0
  190.9230  177.0090  142.5570 C   0  0  1  0  0  3  0  0  0  0  0  0
  185.4450  178.8260  139.4720 N   0  0  0  0  0  2  0  0  0  0  0  0
  185.1010  177.3810  137.2470 S   0  0  0  0  0  1  0  0  0  0  0  0
  184.3900  178.1170  138.7530 C   0  0  2  0  0  3  0  0  0  0  0  0
  183.4400  180.3120  139.0000 O   0  0  0  0  0  1  0  0  0  0  0  0
  183.2420  179.0700  138.3890 C   0  0  2  0  0  3  0  0  0  0  0  0
  180.9690  178.4430  137.6970 N   0  0  0  0  0  1  0  0  0  0  0  0
  181.8860  178.4920  138.8230 C   0  0  2  0  0  3  0  0  0  0  0  0
  181.2480  179.3330  139.9230 C   0  0  0  0  0  2  0  0  0  0  0  0
  181.0590  178.5240  141.1970 C   0  0  0  0  0  3  0  0  0  0  0  0
  180.6620  179.4530  142.3240 C   0  0  0  0  0  1  0  0  0  0  0  0
  179.9710  177.4850  141.0030 C   0  0  0  0  0  1  0  0  0  0  0  0
  1  9  1  0  0  0  0
  2  3  1  0  0  0  0
  2  5  1  0  0  0  0
  3  7  1  0  0  0  0
  5 14  1  0  0  0  0
  6  1  1  0  0  0  0
  7  4  1  0  0  0  0
  8 13  1  0  0  0  0
  8 12  2  0  0  0  0
 10 19  1  0  0  0  0
 11  4  1  1  0  0  0
 12 16  1  0  0  0  0
 13  2  2  0  0  0  0
 14  1  2  0  0  0  0
 15 11  1  0  0  0  0
 16  5  2  0  0  0  0
 16 17  1  0  0  0  0
 17  6  2  0  0  0  0
 18 10  1  0  0  0  0
 18 13  1  0  0  0  0
 19  3  2  0  0  0  0
 20 19  1  1  0  0  0
 20 15  1  0  0  0  0
 20 11  1  0  0  0  0
 21  8  1  0  0  0  0
 23 22  1  6  0  0  0
 23 21  1  0  0  0  0
 25 23  1  0  0  0  0
 25 27  1  0  0  0  0
 25 24  1  1  0  0  0
 27 26  1  6  0  0  0
 27 28  1  0  0  0  0
 28 29  1  0  0  0  0
 29 30  1  0  0  0  0
 31 29  1  0  0  0  0
M  END
>  <MODEL>
4

>  <REMARK>
 VINA RESULT:      -8.8      2.769      3.852
  Name = 
  6 active torsions:
  status: ('A' for Active; 'I' for Inactive)
    1  A    between atoms: C_1  and  C_24
    2  A    between atoms: C_9  and  C_22
    3  A    between atoms: C_9  and  N_23
    4  A    between atoms: C_15  and  N_23
    5  A    between atoms: C_19  and  C_22
    6  A    between atoms: C_19  and  C_24
                            x       y       z     vdW  Elec       q    Type
                         _______ _______ _______ _____ _____    ______ ____

>  <TORSDO>
F 6

$$$$
=
 OpenBabel10262419263D

 31 35  0  0  1  0  0  0  0  0999 V2000
  190.7490  176.5820  143.5360 C   0  0  0  0  0  0  0  0  0  0  0  0
  187.2470  177.9040  143.2410 C   0  0  0  0  0  0  0  0  0  0  0  0
  186.6760  177.8630  144.6320 C   0  0  0  0  0  0  0  0  0  0  0  0
  187.3190  177.9250  147.0120 C   0  0  0  0  0  2  0  0  0  0  0  0
  188.5660  177.4820  142.9160 C   0  0  0  0  0  0  0  0  0  0  0  0
  191.1770  176.6720  142.2130 C   0  0  0  0  0  3  0  0  0  0  0  0
  187.3200  177.0880  145.7440 C   0  0  0  0  0  2  0  0  0  0  0  0
  186.9020  178.5170  140.8880 C   0  0  0  0  0  0  0  0  0  0  0  0
  191.6660  176.0570  144.5810 C   0  0  0  0  0  1  0  0  0  0  0  0
  184.8690  179.2100  143.8810 O   0  0  0  0  0  0  0  0  0  0  0  0
  185.8890  178.2780  147.4240 C   0  0  1  0  0  3  0  0  0  0  0  0
  188.1930  178.0830  140.5850 C   0  0  0  0  0  3  0  0  0  0  0  0
  186.4340  178.4380  142.2110 C   0  0  0  0  0  0  0  0  0  0  0  0
  189.4580  176.9850  143.8820 C   0  0  0  0  0  3  0  0  0  0  0  0
  185.6100  179.6030  147.0340 O   0  0  0  0  0  0  0  0  0  0  0  0
  189.0230  177.5770  141.5760 C   0  0  0  0  0  0  0  0  0  0  0  0
  190.3170  177.1690  141.2350 C   0  0  0  0  0  3  0  0  0  0  0  0
  185.0200  178.8460  142.5120 C   0  0  0  0  0  2  0  0  0  0  0  0
  185.5400  178.5360  144.9030 C   0  0  0  0  0  0  0  0  0  0  0  0
  184.9550  178.6010  146.2940 C   0  0  1  0  0  3  0  0  0  0  0  0
  186.0490  179.0310  139.8560 N   0  0  0  0  0  2  0  0  0  0  0  0
  186.1210  177.7320  137.5190 S   0  0  0  0  0  1  0  0  0  0  0  0
  185.1960  178.1940  139.0180 C   0  0  2  0  0  3  0  0  0  0  0  0
  184.0020  180.2810  139.0090 O   0  0  0  0  0  1  0  0  0  0  0  0
  183.9060  178.9350  138.6390 C   0  0  2  0  0  3  0  0  0  0  0  0
  182.1460  179.1870  140.3360 N   0  0  0  0  0  1  0  0  0  0  0  0
  182.6830  178.3000  139.3180 C   0  0  2  0  0  3  0  0  0  0  0  0
  183.0390  176.9730  139.9790 C   0  0  0  0  0  2  0  0  0  0  0  0
  182.3020  175.8140  139.3240 C   0  0  0  0  0  3  0  0  0  0  0  0
  181.0050  176.3180  138.7310 C   0  0  0  0  0  1  0  0  0  0  0  0
  183.1510  175.2080  138.2230 C   0  0  0  0  0  1  0  0  0  0  0  0
  1 14  1  0  0  0  0
  1  9  1  0  0  0  0
  2  3  1  0  0  0  0
  3 19  2  0  0  0  0
  3  7  1  0  0  0  0
  5  2  1  0  0  0  0
  5 14  2  0  0  0  0
  6  1  2  0  0  0  0
  7  4  1  0  0  0  0
  8 13  1  0  0  0  0
 10 19  1  0  0  0  0
 11  4  1  6  0  0  0
 12  8  2  0  0  0  0
 12 16  1  0  0  0  0
 13 18  1  0  0  0  0
 13  2  2  0  0  0  0
 15 11  1  0  0  0  0
 16  5  1  0  0  0  0
 17 16  2  0  0  0  0
 17  6  1  0  0  0  0
 18 10  1  0  0  0  0
 20 19  1  6  0  0  0
 20 15  1  0  0  0  0
 20 11  1  0  0  0  0
 21  8  1  0  0  0  0
 23 22  1  6  0  0  0
 23 21  1  0  0  0  0
 25 24  1  1  0  0  0
 25 23  1  0  0  0  0
 25 27  1  0  0  0  0
 27 28  1  0  0  0  0
 27 26  1  1  0  0  0
 29 28  1  0  0  0  0
 30 29  1  0  0  0  0
 31 29  1  0  0  0  0
M  END
>  <MODEL>
5

>  <REMARK>
 VINA RESULT:      -8.6      2.942      4.797
  Name = 
  6 active torsions:
  status: ('A' for Active; 'I' for Inactive)
    1  A    between atoms: C_1  and  C_24
    2  A    between atoms: C_9  and  C_22
    3  A    between atoms: C_9  and  N_23
    4  A    between atoms: C_15  and  N_23
    5  A    between atoms: C_19  and  C_22
    6  A    between atoms: C_19  and  C_24
                            x       y       z     vdW  Elec       q    Type
                         _______ _______ _______ _____ _____    ______ ____

>  <TORSDO>
F 6

$$$$
=
 OpenBabel10262419263D

 31 35  0  0  1  0  0  0  0  0999 V2000
  185.4900  178.3470  145.5530 C   0  0  0  0  0  0  0  0  0  0  0  0
  188.7970  177.5540  143.9600 C   0  0  0  0  0  0  0  0  0  0  0  0
  189.7650  177.3740  145.0970 C   0  0  0  0  0  0  0  0  0  0  0  0
  189.8900  176.7390  147.4770 C   0  0  0  0  0  2  0  0  0  0  0  0
  187.4200  177.8690  144.1370 C   0  0  0  0  0  0  0  0  0  0  0  0
  184.6800  178.4820  144.4260 C   0  0  0  0  0  3  0  0  0  0  0  0
  189.4540  177.8150  146.4970 C   0  0  0  0  0  2  0  0  0  0  0  0
  188.4330  177.4910  141.5320 C   0  0  0  0  0  0  0  0  0  0  0  0
  184.9120  178.5260  146.9100 C   0  0  0  0  0  1  0  0  0  0  0  0
  191.3230  176.4440  143.5630 O   0  0  0  0  0  0  0  0  0  0  0  0
  191.3950  176.4860  147.3650 C   0  0  1  0  0  3  0  0  0  0  0  0
  187.0900  177.8170  141.7240 C   0  0  0  0  0  3  0  0  0  0  0  0
  189.2800  177.3490  142.6440 C   0  0  0  0  0  0  0  0  0  0  0  0
  186.8440  178.0410  145.4070 C   0  0  0  0  0  3  0  0  0  0  0  0
  191.6110  175.3160  146.6110 O   0  0  0  0  0  0  0  0  0  0  0  0
  186.5790  178.0000  143.0020 C   0  0  0  0  0  0  0  0  0  0  0  0
  185.2230  178.3080  143.1530 C   0  0  0  0  0  3  0  0  0  0  0  0
  190.7380  177.0640  142.4210 C   0  0  0  0  0  2  0  0  0  0  0  0
  190.9630  176.8040  144.8630 C   0  0  0  0  0  0  0  0  0  0  0  0
  191.9510  176.5230  145.9710 C   0  0  1  0  0  3  0  0  0  0  0  0
  188.9520  177.3110  140.2080 N   0  0  0  0  0  2  0  0  0  0  0  0
  187.1540  177.8380  138.2990 S   0  0  0  0  0  1  0  0  0  0  0  0
  188.7280  178.2520  139.1150 C   0  0  2  0  0  3  0  0  0  0  0  0
  189.4290  178.6010  136.8410 O   0  0  0  0  0  1  0  0  0  0  0  0
  189.8810  178.1990  138.1020 C   0  0  2  0  0  3  0  0  0  0  0  0
  191.7170  176.7000  138.7550 N   0  0  0  0  0  1  0  0  0  0  0  0
  190.4720  176.7830  138.0100 C   0  0  2  0  0  3  0  0  0  0  0  0
  190.7520  176.3880  136.5650 C   0  0  0  0  0  2  0  0  0  0  0  0
  190.1740  175.0190  136.2440 C   0  0  0  0  0  3  0  0  0  0  0  0
  191.2110  173.9570  136.5390 C   0  0  0  0  0  1  0  0  0  0  0  0
  188.9410  174.7580  137.0890 C   0  0  0  0  0  1  0  0  0  0  0  0
  1  9  1  0  0  0  0
  2  5  1  0  0  0  0
  2  3  1  0  0  0  0
  3  7  1  0  0  0  0
  5 14  2  0  0  0  0
  6  1  2  0  0  0  0
  7  4  1  0  0  0  0
  8 12  2  0  0  0  0
  8 13  1  0  0  0  0
 10 19  1  0  0  0  0
 11  4  1  6  0  0  0
 12 16  1  0  0  0  0
 13  2  2  0  0  0  0
 14  1  1  0  0  0  0
 15 11  1  0  0  0  0
 16 17  2  0  0  0  0
 16  5  1  0  0  0  0
 17  6  1  0  0  0  0
 18 13  1  0  0  0  0
 18 10  1  0  0  0  0
 19  3  2  0  0  0  0
 20 19  1  6  0  0  0
 20 15  1  0  0  0  0
 20 11  1  0  0  0  0
 21  8  1  0  0  0  0
 23 22  1  6  0  0  0
 23 21  1  0  0  0  0
 25 24  1  6  0  0  0
 25 23  1  0  0  0  0
 27 25  1  0  0  0  0
 27 26  1  1  0  0  0
 28 27  1  0  0  0  0
 29 30  1  0  0  0  0
 29 28  1  0  0  0  0
 29 31  1  0  0  0  0
M  END
>  <MODEL>
6

>  <REMARK>
 VINA RESULT:      -8.5      1.959      2.828
  Name = 
  6 active torsions:
  status: ('A' for Active; 'I' for Inactive)
    1  A    between atoms: C_1  and  C_24
    2  A    between atoms: C_9  and  C_22
    3  A    between atoms: C_9  and  N_23
    4  A    between atoms: C_15  and  N_23
    5  A    between atoms: C_19  and  C_22
    6  A    between atoms: C_19  and  C_24
                            x       y       z     vdW  Elec       q    Type
                         _______ _______ _______ _____ _____    ______ ____

>  <TORSDO>
F 6

$$$$
=
 OpenBabel10262419263D

 31 35  0  0  1  0  0  0  0  0999 V2000
  187.7610  177.5820  145.7700 C   0  0  0  0  0  0  0  0  0  0  0  0
  187.2720  178.1320  142.0870 C   0  0  0  0  0  0  0  0  0  0  0  0
  188.6360  177.9940  141.4690 C   0  0  0  0  0  0  0  0  0  0  0  0
  190.8320  176.9210  141.7980 C   0  0  0  0  0  2  0  0  0  0  0  0
  187.0190  177.9950  143.4810 C   0  0  0  0  0  0  0  0  0  0  0  0
  186.4530  177.7210  146.2330 C   0  0  0  0  0  3  0  0  0  0  0  0
  189.8950  178.0130  142.2850 C   0  0  0  0  0  2  0  0  0  0  0  0
  184.8710  178.4960  141.7240 C   0  0  0  0  0  0  0  0  0  0  0  0
  188.8610  177.2900  146.7240 C   0  0  0  0  0  1  0  0  0  0  0  0
  187.6070  177.9040  139.3290 O   0  0  0  0  0  0  0  0  0  0  0  0
  191.1960  177.1390  140.3280 C   0  0  1  0  0  3  0  0  0  0  0  0
  184.6430  178.3750  143.0950 C   0  0  0  0  0  3  0  0  0  0  0  0
  186.1750  178.3640  141.2210 C   0  0  0  0  0  0  0  0  0  0  0  0
  188.0370  177.7150  144.4080 C   0  0  0  0  0  3  0  0  0  0  0  0
  190.4250  176.2720  139.5280 O   0  0  0  0  0  0  0  0  0  0  0  0
  185.6930  178.1230  143.9690 C   0  0  0  0  0  0  0  0  0  0  0  0
  185.4210  177.9900  145.3350 C   0  0  0  0  0  3  0  0  0  0  0  0
  186.4160  178.5630  139.7510 C   0  0  0  0  0  2  0  0  0  0  0  0
  188.7480  177.8550  140.1340 C   0  0  0  0  0  0  0  0  0  0  0  0
  190.0790  177.6340  139.4560 C   0  0  1  0  0  3  0  0  0  0  0  0
  183.7810  178.7640  140.8300 N   0  0  0  0  0  2  0  0  0  0  0  0
  183.3080  176.8850  138.9850 S   0  0  0  0  0  1  0  0  0  0  0  0
  182.7640  177.7790  140.4760 C   0  0  2  0  0  3  0  0  0  0  0  0
  181.6000  179.8210  139.9670 O   0  0  0  0  0  1  0  0  0  0  0  0
  181.4100  178.4590  140.2230 C   0  0  2  0  0  3  0  0  0  0  0  0
  179.2950  177.5210  141.0520 N   0  0  0  0  0  1  0  0  0  0  0  0
  180.4710  178.2870  141.4280 C   0  0  2  0  0  3  0  0  0  0  0  0
  180.0110  179.6340  141.9730 C   0  0  0  0  0  2  0  0  0  0  0  0
  180.2330  179.7270  143.4750 C   0  0  0  0  0  3  0  0  0  0  0  0
  178.9310  179.4390  144.1910 C   0  0  0  0  0  1  0  0  0  0  0  0
  181.2770  178.7190  143.9150 C   0  0  0  0  0  1  0  0  0  0  0  0
  1  6  1  0  0  0  0
  1  9  1  0  0  0  0
  2  5  1  0  0  0  0
  3  2  1  0  0  0  0
  3  7  1  0  0  0  0
  4  7  1  0  0  0  0
  5 16  2  0  0  0  0
  5 14  1  0  0  0  0
  8 12  2  0  0  0  0
 10 18  1  0  0  0  0
 10 19  1  0  0  0  0
 11  4  1  1  0  0  0
 12 16  1  0  0  0  0
 13  8  1  0  0  0  0
 13  2  2  0  0  0  0
 14  1  2  0  0  0  0
 15 11  1  0  0  0  0
 16 17  1  0  0  0  0
 17  6  2  0  0  0  0
 18 13  1  0  0  0  0
 19  3  2  0  0  0  0
 20 15  1  6  0  0  0
 20 19  1  0  0  0  0
 20 11  1  0  0  0  0
 21  8  1  0  0  0  0
 23 22  1  6  0  0  0
 23 21  1  0  0  0  0
 25 24  1  1  0  0  0
 25 23  1  0  0  0  0
 25 27  1  0  0  0  0
 27 26  1  6  0  0  0
 27 28  1  0  0  0  0
 28 29  1  0  0  0  0
 29 31  1  0  0  0  0
 29 30  1  0  0  0  0
M  END
>  <MODEL>
7

>  <REMARK>
 VINA RESULT:      -8.2      3.610      5.709
  Name = 
  6 active torsions:
  status: ('A' for Active; 'I' for Inactive)
    1  A    between atoms: C_1  and  C_24
    2  A    between atoms: C_9  and  C_22
    3  A    between atoms: C_9  and  N_23
    4  A    between atoms: C_15  and  N_23
    5  A    between atoms: C_19  and  C_22
    6  A    between atoms: C_19  and  C_24
                            x       y       z     vdW  Elec       q    Type
                         _______ _______ _______ _____ _____    ______ ____

>  <TORSDO>
F 6

$$$$
=
 OpenBabel10262419263D

 31 35  0  0  1  0  0  0  0  0999 V2000
  184.2790  178.6570  141.7750 C   0  0  0  0  0  0  0  0  0  0  0  0
  187.8310  177.8170  140.8900 C   0  0  0  0  0  0  0  0  0  0  0  0
  187.9020  177.8730  139.3890 C   0  0  0  0  0  0  0  0  0  0  0  0
  186.8490  178.9180  137.4180 C   0  0  0  0  0  2  0  0  0  0  0  0
  186.6460  178.0740  141.6350 C   0  0  0  0  0  0  0  0  0  0  0  0
  184.3300  178.5860  143.1660 C   0  0  0  0  0  3  0  0  0  0  0  0
  186.6750  177.8910  138.5250 C   0  0  0  0  0  2  0  0  0  0  0  0
  189.0410  177.4800  143.0000 C   0  0  0  0  0  0  0  0  0  0  0  0
  183.0040  179.0000  141.0940 C   0  0  0  0  0  1  0  0  0  0  0  0
  190.2720  177.8110  139.5430 O   0  0  0  0  0  0  0  0  0  0  0  0
  188.0570  178.5730  136.5470 C   0  0  1  0  0  3  0  0  0  0  0  0
  187.8650  177.7190  143.7130 C   0  0  0  0  0  3  0  0  0  0  0  0
  189.0270  177.5400  141.5970 C   0  0  0  0  0  0  0  0  0  0  0  0
  185.4270  178.4060  141.0200 C   0  0  0  0  0  3  0  0  0  0  0  0
  189.1440  179.3890  136.9200 O   0  0  0  0  0  0  0  0  0  0  0  0
  186.6820  178.0170  143.0520 C   0  0  0  0  0  0  0  0  0  0  0  0
  185.5290  178.2680  143.8030 C   0  0  0  0  0  3  0  0  0  0  0  0
  190.2830  177.2160  140.8380 C   0  0  0  0  0  2  0  0  0  0  0  0
  189.1050  177.8990  138.7820 C   0  0  0  0  0  0  0  0  0  0  0  0
  189.2490  178.0330  137.2840 C   0  0  1  0  0  3  0  0  0  0  0  0
  190.2570  177.1650  143.6920 N   0  0  0  0  0  2  0  0  0  0  0  0
  191.6610  179.3760  144.2410 S   0  0  0  0  0  1  0  0  0  0  0  0
  190.7520  177.9160  144.8420 C   0  0  2  0  0  3  0  0  0  0  0  0
  191.9290  175.8310  145.0640 O   0  0  0  0  0  1  0  0  0  0  0  0
  191.6660  177.0420  145.7130 C   0  0  2  0  0  3  0  0  0  0  0  0
  191.6600  175.6220  147.7190 N   0  0  0  0  0  1  0  0  0  0  0  0
  191.0260  176.7640  147.0820 C   0  0  2  0  0  3  0  0  0  0  0  0
  189.5350  176.4740  146.9520 C   0  0  0  0  0  2  0  0  0  0  0  0
  188.7250  177.2860  147.9500 C   0  0  0  0  0  3  0  0  0  0  0  0
  189.5700  178.4290  148.4680 C   0  0  0  0  0  1  0  0  0  0  0  0
  187.4830  177.8470  147.2860 C   0  0  0  0  0  1  0  0  0  0  0  0
  1  6  1  0  0  0  0
  2 13  2  0  0  0  0
  2  5  1  0  0  0  0
  3  2  1  0  0  0  0
  4  7  1  0  0  0  0
  5 16  2  0  0  0  0
  6 17  2  0  0  0  0
  7  3  1  0  0  0  0
  8 21  1  0  0  0  0
  8 12  2  0  0  0  0
  9  1  1  0  0  0  0
 10 18  1  0  0  0  0
 11 15  1  0  0  0  0
 11 20  1  0  0  0  0
 11  4  1  1  0  0  0
 13  8  1  0  0  0  0
 14  5  1  0  0  0  0
 14  1  2  0  0  0  0
 16 12  1  0  0  0  0
 16 17  1  0  0  0  0
 18 13  1  0  0  0  0
 19  3  2  0  0  0  0
 19 10  1  0  0  0  0
 20 15  1  1  0  0  0
 20 19  1  0  0  0  0
 21 23  1  0  0  0  0
 23 22  1  6  0  0  0
 23 25  1  0  0  0  0
 25 24  1  6  0  0  0
 25 27  1  0  0  0  0
 27 26  1  6  0  0  0
 28 27  1  0  0  0  0
 28 29  1  0  0  0  0
 29 30  1  0  0  0  0
 31 29  1  0  0  0  0
M  END
>  <MODEL>
8

>  <REMARK>
 VINA RESULT:      -8.1      2.389      7.251
  Name = 
  6 active torsions:
  status: ('A' for Active; 'I' for Inactive)
    1  A    between atoms: C_1  and  C_24
    2  A    between atoms: C_9  and  C_22
    3  A    between atoms: C_9  and  N_23
    4  A    between atoms: C_15  and  N_23
    5  A    between atoms: C_19  and  C_22
    6  A    between atoms: C_19  and  C_24
                            x       y       z     vdW  Elec       q    Type
                         _______ _______ _______ _____ _____    ______ ____

>  <TORSDO>
F 6

$$$$
=
 OpenBabel10262419263D

 31 35  0  0  1  0  0  0  0  0999 V2000
  187.1880  177.8040  145.6360 C   0  0  0  0  0  0  0  0  0  0  0  0
  186.3050  178.4430  142.0420 C   0  0  0  0  0  0  0  0  0  0  0  0
  187.5980  178.3520  141.2810 C   0  0  0  0  0  0  0  0  0  0  0  0
  189.8370  177.3190  141.3470 C   0  0  0  0  0  2  0  0  0  0  0  0
  186.2020  178.2620  143.4500 C   0  0  0  0  0  0  0  0  0  0  0  0
  185.9340  177.9020  146.2370 C   0  0  0  0  0  3  0  0  0  0  0  0
  188.9360  178.3770  141.9610 C   0  0  0  0  0  2  0  0  0  0  0  0
  183.8720  178.7630  141.9430 C   0  0  0  0  0  0  0  0  0  0  0  0
  188.3880  177.5110  146.4610 C   0  0  0  0  0  1  0  0  0  0  0  0
  186.3520  178.2970  139.2590 O   0  0  0  0  0  0  0  0  0  0  0  0
  190.0410  177.5840  139.8540 C   0  0  1  0  0  3  0  0  0  0  0  0
  183.7920  178.6000  143.3260 C   0  0  0  0  0  3  0  0  0  0  0  0
  185.1190  178.6740  141.3020 C   0  0  0  0  0  0  0  0  0  0  0  0
  187.3170  177.9800  144.2570 C   0  0  0  0  0  3  0  0  0  0  0  0
  189.2070  176.7230  139.1140 O   0  0  0  0  0  0  0  0  0  0  0  0
  184.9320  178.3480  144.0780 C   0  0  0  0  0  0  0  0  0  0  0  0
  184.8090  178.1720  145.4600 C   0  0  0  0  0  3  0  0  0  0  0  0
  185.2000  178.9180  139.8220 C   0  0  0  0  0  2  0  0  0  0  0  0
  187.5720  178.2510  139.9380 C   0  0  0  0  0  0  0  0  0  0  0  0
  188.8290  178.0790  139.1180 C   0  0  1  0  0  3  0  0  0  0  0  0
  182.6900  179.0310  141.1760 N   0  0  0  0  0  2  0  0  0  0  0  0
  181.9990  177.0920  139.4660 S   0  0  0  0  0  1  0  0  0  0  0  0
  181.6240  178.0560  140.9650 C   0  0  2  0  0  3  0  0  0  0  0  0
  179.5550  178.2040  139.7480 O   0  0  0  0  0  1  0  0  0  0  0  0
  180.2650  178.7560  140.8190 C   0  0  2  0  0  3  0  0  0  0  0  0
  179.6540  181.0190  141.5580 N   0  0  0  0  0  1  0  0  0  0  0  0
  180.4410  180.2670  140.5970 C   0  0  2  0  0  3  0  0  0  0  0  0
  180.0060  180.6780  139.1950 C   0  0  0  0  0  2  0  0  0  0  0  0
  181.2000  181.0690  138.3380 C   0  0  0  0  0  3  0  0  0  0  0  0
  181.2000  180.2400  137.0720 C   0  0  0  0  0  1  0  0  0  0  0  0
  181.1240  182.5390  137.9700 C   0  0  0  0  0  1  0  0  0  0  0  0
  1  6  1  0  0  0  0
  1  9  1  0  0  0  0
  2  5  1  0  0  0  0
  3  7  1  0  0  0  0
  3  2  1  0  0  0  0
  4  7  1  0  0  0  0
  5 16  2  0  0  0  0
  5 14  1  0  0  0  0
  8 12  2  0  0  0  0
 10 18  1  0  0  0  0
 10 19  1  0  0  0  0
 11  4  1  1  0  0  0
 12 16  1  0  0  0  0
 13  8  1  0  0  0  0
 13  2  2  0  0  0  0
 14  1  2  0  0  0  0
 15 11  1  0  0  0  0
 16 17  1  0  0  0  0
 17  6  2  0  0  0  0
 18 13  1  0  0  0  0
 19  3  2  0  0  0  0
 20 15  1  6  0  0  0
 20 11  1  0  0  0  0
 20 19  1  0  0  0  0
 21  8  1  0  0  0  0
 23 22  1  6  0  0  0
 23 21  1  0  0  0  0
 25 24  1  6  0  0  0
 25 23  1  0  0  0  0
 27 25  1  0  0  0  0
 27 26  1  1  0  0  0
 28 27  1  0  0  0  0
 29 28  1  0  0  0  0
 30 29  1  0  0  0  0
 31 29  1  0  0  0  0
M  END
>  <MODEL>
9

>  <REMARK>
 VINA RESULT:      -8.1      3.917      6.093
  Name = 
  6 active torsions:
  status: ('A' for Active; 'I' for Inactive)
    1  A    between atoms: C_1  and  C_24
    2  A    between atoms: C_9  and  C_22
    3  A    between atoms: C_9  and  N_23
    4  A    between atoms: C_15  and  N_23
    5  A    between atoms: C_19  and  C_22
    6  A    between atoms: C_19  and  C_24
                            x       y       z     vdW  Elec       q    Type
                         _______ _______ _______ _____ _____    ______ ____

>  <TORSDO>
F 6

$$$$
