=
 OpenBabel10262419493D

 25 28  0  0  0  0  0  0  0  0999 V2000
  187.6620  177.7700  145.9130 C   0  0  0  0  0  0  0  0  0  0  0  0
  188.9510  177.2710  145.6970 C   0  0  0  0  0  0  0  0  0  0  0  0
  188.1290  177.8970  148.2830 C   0  0  0  0  0  3  0  0  0  0  0  0
  186.6260  178.0360  145.0080 C   0  0  0  0  0  0  0  0  0  0  0  0
  185.0790  178.4110  143.4420 C   0  0  0  0  0  3  0  0  0  0  0  0
  189.3530  177.4210  148.0530 O   0  0  0  0  0  0  0  0  0  0  0  0
  185.5080  178.5170  145.5910 C   0  0  0  0  0  0  0  0  0  0  0  0
  184.5150  178.7680  144.6740 C   0  0  0  0  0  3  0  0  0  0  0  0
  191.0890  176.6140  146.6360 C   0  0  0  0  0  0  0  0  0  0  0  0
  192.0170  176.4260  147.7870 C   0  0  0  0  0  1  0  0  0  0  0  0
  189.4060  176.9470  144.4580 N   0  0  0  0  0  0  0  0  0  0  0  0
  187.3020  177.4950  142.5800 C   0  0  0  0  0  1  0  0  0  0  0  0
  187.2610  178.0790  147.2130 C   0  0  0  0  0  0  0  0  0  0  0  0
  185.6650  178.6680  147.2600 S   0  0  0  0  0  0  0  0  0  0  0  0
  191.5260  176.2920  145.3490 C   0  0  0  0  0  3  0  0  0  0  0  0
  186.3840  177.9590  143.6550 C   0  0  0  0  0  0  0  0  0  0  0  0
  190.6610  176.4620  144.2640 C   0  0  0  0  0  0  0  0  0  0  0  0
  189.7920  177.1080  146.8270 C   0  0  0  0  0  0  0  0  0  0  0  0
  191.1280  176.1400  142.8880 C   0  0  0  0  0  2  0  0  0  0  0  0
  191.6210  177.4000  142.2010 C   0  0  0  0  0  2  0  0  0  0  0  0
  191.2390  177.3720  140.7570 C   0  0  0  0  0  0  0  0  0  0  0  0
  192.1450  177.3380  139.8850 O   0  0  0  0  0  0  0  0  0  0  0  0
  189.9030  177.4130  140.3510 O   0  0  0  0  0  0  0  0  0  0  0  0
  189.5190  177.8890  139.0990 C   0  0  0  0  0  3  0  0  0  0  0  0
  188.9990  179.0290  138.9930 O   0  0  0  0  0  0  0  0  0  0  0  0
  1 13  1  0  0  0  0
  2  1  1  0  0  0  0
  2 18  1  0  0  0  0
  4  7  1  0  0  0  0
  4  1  2  0  0  0  0
  5 16  2  0  0  0  0
  5  8  1  0  0  0  0
  6  3  1  0  0  0  0
  7 14  1  0  0  0  0
  8  7  2  0  0  0  0
  9 18  2  0  0  0  0
  9 10  1  0  0  0  0
 11  2  2  0  0  0  0
 12 16  1  0  0  0  0
 13 14  1  0  0  0  0
 13  3  2  0  0  0  0
 15  9  1  0  0  0  0
 16  4  1  0  0  0  0
 17 11  1  0  0  0  0
 17 15  2  0  0  0  0
 18  6  1  0  0  0  0
 19 17  1  0  0  0  0
 20 19  1  0  0  0  0
 21 20  1  0  0  0  0
 22 21  2  0  0  0  0
 23 21  1  0  0  0  0
 24 23  1  0  0  0  0
 25 24  2  0  0  0  0
M  END
>  <MODEL>
1

>  <REMARK>
 VINA RESULT:      -9.2      0.000      0.000
  Name = 
  5 active torsions:
  status: ('A' for Active; 'I' for Inactive)
    1  A    between atoms: C_2  and  O_12
    2  A    between atoms: C_6  and  C_15
    3  A    between atoms: C_6  and  C_23
    4  A    between atoms: O_12  and  C_21
    5  A    between atoms: C_15  and  C_21
                            x       y       z     vdW  Elec       q    Type
                         _______ _______ _______ _____ _____    ______ ____

>  <TORSDO>
F 5

$$$$
=
 OpenBabel10262419493D

 25 28  0  0  0  0  0  0  0  0999 V2000
  186.3490  178.3650  142.8660 C   0  0  0  0  0  0  0  0  0  0  0  0
  187.4900  178.0930  142.1010 C   0  0  0  0  0  0  0  0  0  0  0  0
  185.1910  179.0560  140.8580 C   0  0  0  0  0  3  0  0  0  0  0  0
  186.1260  178.2360  144.2430 C   0  0  0  0  0  0  0  0  0  0  0  0
  185.9260  177.9700  146.4510 C   0  0  0  0  0  3  0  0  0  0  0  0
  186.2890  178.7880  140.1500 O   0  0  0  0  0  0  0  0  0  0  0  0
  184.8840  178.6000  144.6270 C   0  0  0  0  0  0  0  0  0  0  0  0
  184.7000  178.4580  145.9810 C   0  0  0  0  0  3  0  0  0  0  0  0
  188.5420  178.0540  139.9170 C   0  0  0  0  0  0  0  0  0  0  0  0
  188.5200  178.2740  138.4430 C   0  0  0  0  0  1  0  0  0  0  0  0
  188.6390  177.6240  142.6540 N   0  0  0  0  0  0  0  0  0  0  0  0
  188.2020  177.3390  145.4790 C   0  0  0  0  0  1  0  0  0  0  0  0
  185.2040  178.8480  142.2320 C   0  0  0  0  0  0  0  0  0  0  0  0
  183.9360  179.1140  143.3340 S   0  0  0  0  0  0  0  0  0  0  0  0
  189.7080  177.5710  140.5160 C   0  0  0  0  0  3  0  0  0  0  0  0
  186.8040  177.8340  145.3730 C   0  0  0  0  0  0  0  0  0  0  0  0
  189.7400  177.3650  141.8980 C   0  0  0  0  0  0  0  0  0  0  0  0
  187.4160  178.3240  140.7040 C   0  0  0  0  0  0  0  0  0  0  0  0
  190.9720  176.8320  142.5390 C   0  0  0  0  0  2  0  0  0  0  0  0
  191.2990  177.6400  143.7820 C   0  0  0  0  0  2  0  0  0  0  0  0
  191.6900  176.7220  144.8940 C   0  0  0  0  0  0  0  0  0  0  0  0
  191.9560  175.5210  144.6310 O   0  0  0  0  0  0  0  0  0  0  0  0
  191.7380  177.1570  146.2210 O   0  0  0  0  0  0  0  0  0  0  0  0
  191.7290  176.2710  147.2960 C   0  0  0  0  0  3  0  0  0  0  0  0
  192.8140  175.9180  147.8280 O   0  0  0  0  0  0  0  0  0  0  0  0
  1  4  2  0  0  0  0
  2 11  1  0  0  0  0
  2  1  1  0  0  0  0
  3 13  2  0  0  0  0
  4  7  1  0  0  0  0
  4 16  1  0  0  0  0
  6 18  1  0  0  0  0
  6  3  1  0  0  0  0
  7  8  2  0  0  0  0
  8  5  1  0  0  0  0
  9 15  2  0  0  0  0
  9 18  1  0  0  0  0
 10  9  1  0  0  0  0
 13  1  1  0  0  0  0
 13 14  1  0  0  0  0
 14  7  1  0  0  0  0
 15 17  1  0  0  0  0
 16 12  1  0  0  0  0
 16  5  2  0  0  0  0
 17 19  1  0  0  0  0
 17 11  2  0  0  0  0
 18  2  2  0  0  0  0
 19 20  1  0  0  0  0
 20 21  1  0  0  0  0
 21 23  1  0  0  0  0
 22 21  2  0  0  0  0
 23 24  1  0  0  0  0
 24 25  2  0  0  0  0
M  END
>  <MODEL>
2

>  <REMARK>
 VINA RESULT:      -9.1      2.101      5.453
  Name = 
  5 active torsions:
  status: ('A' for Active; 'I' for Inactive)
    1  A    between atoms: C_2  and  O_12
    2  A    between atoms: C_6  and  C_15
    3  A    between atoms: C_6  and  C_23
    4  A    between atoms: O_12  and  C_21
    5  A    between atoms: C_15  and  C_21
                            x       y       z     vdW  Elec       q    Type
                         _______ _______ _______ _____ _____    ______ ____

>  <TORSDO>
F 5

$$$$
=
 OpenBabel10262419493D

 25 28  0  0  0  0  0  0  0  0999 V2000
  187.5430  177.7800  145.8420 C   0  0  0  0  0  0  0  0  0  0  0  0
  188.8340  177.3060  145.5850 C   0  0  0  0  0  0  0  0  0  0  0  0
  188.0390  177.7900  148.2100 C   0  0  0  0  0  3  0  0  0  0  0  0
  186.4930  178.0820  144.9650 C   0  0  0  0  0  0  0  0  0  0  0  0
  184.9220  178.5200  143.4400 C   0  0  0  0  0  3  0  0  0  0  0  0
  189.2650  177.3400  147.9400 O   0  0  0  0  0  0  0  0  0  0  0  0
  185.3780  178.5210  145.5850 C   0  0  0  0  0  0  0  0  0  0  0  0
  184.3710  178.8080  144.6950 C   0  0  0  0  0  3  0  0  0  0  0  0
  190.9900  176.6240  146.4630 C   0  0  0  0  0  0  0  0  0  0  0  0
  191.9350  176.3870  147.5900 C   0  0  0  0  0  1  0  0  0  0  0  0
  189.2760  177.0510  144.3260 N   0  0  0  0  0  0  0  0  0  0  0  0
  187.1420  177.6720  142.5040 C   0  0  0  0  0  1  0  0  0  0  0  0
  187.1560  178.0180  147.1620 C   0  0  0  0  0  0  0  0  0  0  0  0
  185.5550  178.5870  147.2580 S   0  0  0  0  0  0  0  0  0  0  0  0
  191.4130  176.3730  145.1560 C   0  0  0  0  0  3  0  0  0  0  0  0
  186.2340  178.0710  143.6130 C   0  0  0  0  0  0  0  0  0  0  0  0
  190.5330  176.5890  144.0910 C   0  0  0  0  0  0  0  0  0  0  0  0
  189.6910  177.0930  146.6950 C   0  0  0  0  0  0  0  0  0  0  0  0
  190.9850  176.3420  142.6950 C   0  0  0  0  0  2  0  0  0  0  0  0
  190.8490  177.6120  141.8750 C   0  0  0  0  0  2  0  0  0  0  0  0
  190.3180  177.2860  140.5180 C   0  0  0  0  0  0  0  0  0  0  0  0
  189.5960  178.1280  139.9250 O   0  0  0  0  0  0  0  0  0  0  0  0
  190.5780  176.0580  139.9050 O   0  0  0  0  0  0  0  0  0  0  0  0
  190.9530  175.9580  138.5670 C   0  0  0  0  0  3  0  0  0  0  0  0
  191.2830  174.8420  138.0890 O   0  0  0  0  0  0  0  0  0  0  0  0
  1 13  1  0  0  0  0
  2  1  1  0  0  0  0
  2 18  1  0  0  0  0
  4  7  1  0  0  0  0
  4  1  2  0  0  0  0
  5 16  2  0  0  0  0
  5  8  1  0  0  0  0
  6  3  1  0  0  0  0
  7 14  1  0  0  0  0
  8  7  2  0  0  0  0
  9 18  2  0  0  0  0
  9 10  1  0  0  0  0
 11  2  2  0  0  0  0
 12 16  1  0  0  0  0
 13 14  1  0  0  0  0
 13  3  2  0  0  0  0
 15  9  1  0  0  0  0
 16  4  1  0  0  0  0
 17 11  1  0  0  0  0
 17 15  2  0  0  0  0
 18  6  1  0  0  0  0
 19 17  1  0  0  0  0
 20 19  1  0  0  0  0
 21 20  1  0  0  0  0
 22 21  2  0  0  0  0
 23 21  1  0  0  0  0
 24 23  1  0  0  0  0
 25 24  2  0  0  0  0
M  END
>  <MODEL>
3

>  <REMARK>
 VINA RESULT:      -9.0      0.936      1.290
  Name = 
  5 active torsions:
  status: ('A' for Active; 'I' for Inactive)
    1  A    between atoms: C_2  and  O_12
    2  A    between atoms: C_6  and  C_15
    3  A    between atoms: C_6  and  C_23
    4  A    between atoms: O_12  and  C_21
    5  A    between atoms: C_15  and  C_21
                            x       y       z     vdW  Elec       q    Type
                         _______ _______ _______ _____ _____    ______ ____

>  <TORSDO>
F 5

$$$$
=
 OpenBabel10262419493D

 25 28  0  0  0  0  0  0  0  0999 V2000
  187.4180  177.9190  145.8720 C   0  0  0  0  0  0  0  0  0  0  0  0
  186.6110  178.1730  144.7570 C   0  0  0  0  0  0  0  0  0  0  0  0
  185.5550  178.4580  147.3180 C   0  0  0  0  0  3  0  0  0  0  0  0
  188.7570  177.5170  145.9520 C   0  0  0  0  0  0  0  0  0  0  0  0
  190.8950  176.8740  145.9120 C   0  0  0  0  0  3  0  0  0  0  0  0
  184.8050  178.6930  146.2410 O   0  0  0  0  0  0  0  0  0  0  0  0
  189.2040  177.3690  147.2170 C   0  0  0  0  0  0  0  0  0  0  0  0
  190.5190  176.9730  147.2580 C   0  0  0  0  0  3  0  0  0  0  0  0
  184.4410  178.8250  143.8910 C   0  0  0  0  0  0  0  0  0  0  0  0
  183.0220  179.2400  144.0780 C   0  0  0  0  0  1  0  0  0  0  0  0
  187.0720  178.0530  143.4840 N   0  0  0  0  0  0  0  0  0  0  0  0
  189.8180  177.2180  143.6210 C   0  0  0  0  0  1  0  0  0  0  0  0
  186.8780  178.0660  147.1500 C   0  0  0  0  0  0  0  0  0  0  0  0
  188.0180  177.7110  148.3620 S   0  0  0  0  0  0  0  0  0  0  0  0
  184.9460  178.6900  142.5960 C   0  0  0  0  0  3  0  0  0  0  0  0
  189.8030  177.2110  145.1090 C   0  0  0  0  0  0  0  0  0  0  0  0
  186.2770  178.3050  142.4100 C   0  0  0  0  0  0  0  0  0  0  0  0
  185.2700  178.5690  144.9910 C   0  0  0  0  0  0  0  0  0  0  0  0
  186.8150  178.1400  141.0330 C   0  0  0  0  0  2  0  0  0  0  0  0
  188.2310  178.6820  140.9630 C   0  0  0  0  0  2  0  0  0  0  0  0
  188.8700  178.2630  139.6800 C   0  0  0  0  0  0  0  0  0  0  0  0
  188.8750  179.0630  138.7090 O   0  0  0  0  0  0  0  0  0  0  0  0
  189.4370  176.9950  139.5220 O   0  0  0  0  0  0  0  0  0  0  0  0
  190.8120  176.7810  139.5810 C   0  0  0  0  0  3  0  0  0  0  0  0
  191.5200  177.4600  140.3690 O   0  0  0  0  0  0  0  0  0  0  0  0
  1  4  2  0  0  0  0
  1 13  1  0  0  0  0
  2 18  1  0  0  0  0
  2  1  1  0  0  0  0
  4  7  1  0  0  0  0
  5  8  1  0  0  0  0
  6  3  1  0  0  0  0
  7  8  2  0  0  0  0
  7 14  1  0  0  0  0
  9 10  1  0  0  0  0
  9 18  2  0  0  0  0
 11  2  2  0  0  0  0
 12 16  1  0  0  0  0
 13  3  2  0  0  0  0
 13 14  1  0  0  0  0
 15  9  1  0  0  0  0
 16  5  2  0  0  0  0
 16  4  1  0  0  0  0
 17 15  2  0  0  0  0
 17 11  1  0  0  0  0
 18  6  1  0  0  0  0
 19 17  1  0  0  0  0
 20 19  1  0  0  0  0
 21 20  1  0  0  0  0
 22 21  2  0  0  0  0
 23 24  1  0  0  0  0
 23 21  1  0  0  0  0
 24 25  2  0  0  0  0
M  END
>  <MODEL>
4

>  <REMARK>
 VINA RESULT:      -9.0      1.660      4.629
  Name = 
  5 active torsions:
  status: ('A' for Active; 'I' for Inactive)
    1  A    between atoms: C_2  and  O_12
    2  A    between atoms: C_6  and  C_15
    3  A    between atoms: C_6  and  C_23
    4  A    between atoms: O_12  and  C_21
    5  A    between atoms: C_15  and  C_21
                            x       y       z     vdW  Elec       q    Type
                         _______ _______ _______ _____ _____    ______ ____

>  <TORSDO>
F 5

$$$$
=
 OpenBabel10262419493D

 25 28  0  0  0  0  0  0  0  0999 V2000
  187.5500  177.8840  145.9210 C   0  0  0  0  0  0  0  0  0  0  0  0
  186.7550  178.1380  144.7970 C   0  0  0  0  0  0  0  0  0  0  0  0
  185.6940  178.4960  147.3460 C   0  0  0  0  0  3  0  0  0  0  0  0
  188.8780  177.4500  146.0160 C   0  0  0  0  0  0  0  0  0  0  0  0
  190.9990  176.7530  146.0000 C   0  0  0  0  0  3  0  0  0  0  0  0
  184.9560  178.7300  146.2610 O   0  0  0  0  0  0  0  0  0  0  0  0
  189.3140  177.3150  147.2860 C   0  0  0  0  0  0  0  0  0  0  0  0
  190.6190  176.8870  147.3420 C   0  0  0  0  0  3  0  0  0  0  0  0
  184.6070  178.8270  143.9070 C   0  0  0  0  0  0  0  0  0  0  0  0
  183.1980  179.2810  144.0780 C   0  0  0  0  0  1  0  0  0  0  0  0
  187.2200  177.9820  143.5290 N   0  0  0  0  0  0  0  0  0  0  0  0
  189.9440  177.0820  143.6980 C   0  0  0  0  0  1  0  0  0  0  0  0
  187.0070  178.0680  147.1930 C   0  0  0  0  0  0  0  0  0  0  0  0
  188.1310  177.7070  148.4180 S   0  0  0  0  0  0  0  0  0  0  0  0
  185.1160  178.6560  142.6180 C   0  0  0  0  0  3  0  0  0  0  0  0
  189.9200  177.1020  145.1850 C   0  0  0  0  0  0  0  0  0  0  0  0
  186.4370  178.2340  142.4470 C   0  0  0  0  0  0  0  0  0  0  0  0
  185.4230  178.5710  145.0160 C   0  0  0  0  0  0  0  0  0  0  0  0
  186.9780  178.0310  141.0760 C   0  0  0  0  0  2  0  0  0  0  0  0
  188.3660  178.6360  140.9720 C   0  0  0  0  0  2  0  0  0  0  0  0
  189.0210  178.1890  139.7060 C   0  0  0  0  0  0  0  0  0  0  0  0
  189.5780  177.0620  139.6710 O   0  0  0  0  0  0  0  0  0  0  0  0
  189.0550  179.0030  138.5710 O   0  0  0  0  0  0  0  0  0  0  0  0
  188.4690  178.6250  137.3650 C   0  0  0  0  0  3  0  0  0  0  0  0
  187.3010  179.0030  137.0900 O   0  0  0  0  0  0  0  0  0  0  0  0
  1  4  2  0  0  0  0
  1 13  1  0  0  0  0
  2 18  1  0  0  0  0
  2  1  1  0  0  0  0
  4  7  1  0  0  0  0
  5  8  1  0  0  0  0
  6  3  1  0  0  0  0
  7  8  2  0  0  0  0
  7 14  1  0  0  0  0
  9 10  1  0  0  0  0
  9 18  2  0  0  0  0
 11  2  2  0  0  0  0
 12 16  1  0  0  0  0
 13  3  2  0  0  0  0
 13 14  1  0  0  0  0
 15  9  1  0  0  0  0
 16  5  2  0  0  0  0
 16  4  1  0  0  0  0
 17 15  2  0  0  0  0
 17 11  1  0  0  0  0
 18  6  1  0  0  0  0
 19 17  1  0  0  0  0
 20 19  1  0  0  0  0
 21 20  1  0  0  0  0
 22 21  2  0  0  0  0
 23 21  1  0  0  0  0
 24 23  1  0  0  0  0
 25 24  2  0  0  0  0
M  END
>  <MODEL>
5

>  <REMARK>
 VINA RESULT:      -8.9      1.731      4.561
  Name = 
  5 active torsions:
  status: ('A' for Active; 'I' for Inactive)
    1  A    between atoms: C_2  and  O_12
    2  A    between atoms: C_6  and  C_15
    3  A    between atoms: C_6  and  C_23
    4  A    between atoms: O_12  and  C_21
    5  A    between atoms: C_15  and  C_21
                            x       y       z     vdW  Elec       q    Type
                         _______ _______ _______ _____ _____    ______ ____

>  <TORSDO>
F 5

$$$$
=
 OpenBabel10262419493D

 25 28  0  0  0  0  0  0  0  0999 V2000
  186.7870  177.9630  144.9040 C   0  0  0  0  0  0  0  0  0  0  0  0
  187.9380  177.6260  144.1830 C   0  0  0  0  0  0  0  0  0  0  0  0
  187.9790  177.5400  146.9660 C   0  0  0  0  0  3  0  0  0  0  0  0
  185.5220  178.3670  144.4600 C   0  0  0  0  0  0  0  0  0  0  0  0
  183.5630  179.0000  143.5940 C   0  0  0  0  0  3  0  0  0  0  0  0
  189.0640  177.2250  146.2580 O   0  0  0  0  0  0  0  0  0  0  0  0
  184.6490  178.6090  145.4600 C   0  0  0  0  0  0  0  0  0  0  0  0
  183.4190  179.0050  144.9880 C   0  0  0  0  0  3  0  0  0  0  0  0
  190.2570  176.9150  144.2200 C   0  0  0  0  0  0  0  0  0  0  0  0
  191.4990  176.5190  144.9430 C   0  0  0  0  0  1  0  0  0  0  0  0
  187.9770  177.6480  142.8250 N   0  0  0  0  0  0  0  0  0  0  0  0
  185.3920  178.4840  141.8880 C   0  0  0  0  0  1  0  0  0  0  0  0
  186.8190  177.9150  146.2980 C   0  0  0  0  0  0  0  0  0  0  0  0
  185.3250  178.3590  146.9800 S   0  0  0  0  0  0  0  0  0  0  0  0
  190.2630  176.9490  142.8240 C   0  0  0  0  0  3  0  0  0  0  0  0
  184.8640  178.6050  143.2730 C   0  0  0  0  0  0  0  0  0  0  0  0
  189.1020  177.3160  142.1370 C   0  0  0  0  0  0  0  0  0  0  0  0
  189.0910  177.2520  144.9190 C   0  0  0  0  0  0  0  0  0  0  0  0
  189.1080  177.3740  140.6510 C   0  0  0  0  0  2  0  0  0  0  0  0
  190.5120  177.1300  140.1290 C   0  0  0  0  0  2  0  0  0  0  0  0
  190.4500  176.6160  138.7280 C   0  0  0  0  0  0  0  0  0  0  0  0
  190.5330  175.3760  138.5280 O   0  0  0  0  0  0  0  0  0  0  0  0
  190.3320  177.4770  137.6350 O   0  0  0  0  0  0  0  0  0  0  0  0
  189.1580  178.1760  137.3610 C   0  0  0  0  0  3  0  0  0  0  0  0
  189.0470  179.3790  137.7130 O   0  0  0  0  0  0  0  0  0  0  0  0
  1 13  1  0  0  0  0
  2  1  1  0  0  0  0
  2 18  1  0  0  0  0
  4  1  2  0  0  0  0
  4  7  1  0  0  0  0
  5  8  1  0  0  0  0
  6  3  1  0  0  0  0
  7 14  1  0  0  0  0
  8  7  2  0  0  0  0
  9 18  2  0  0  0  0
  9 10  1  0  0  0  0
 11  2  2  0  0  0  0
 12 16  1  0  0  0  0
 13  3  2  0  0  0  0
 13 14  1  0  0  0  0
 15  9  1  0  0  0  0
 16  5  2  0  0  0  0
 16  4  1  0  0  0  0
 17 15  2  0  0  0  0
 17 11  1  0  0  0  0
 18  6  1  0  0  0  0
 19 17  1  0  0  0  0
 20 19  1  0  0  0  0
 21 20  1  0  0  0  0
 22 21  2  0  0  0  0
 23 21  1  0  0  0  0
 24 23  1  0  0  0  0
 24 25  2  0  0  0  0
M  END
>  <MODEL>
6

>  <REMARK>
 VINA RESULT:      -8.8      1.546      2.088
  Name = 
  5 active torsions:
  status: ('A' for Active; 'I' for Inactive)
    1  A    between atoms: C_2  and  O_12
    2  A    between atoms: C_6  and  C_15
    3  A    between atoms: C_6  and  C_23
    4  A    between atoms: O_12  and  C_21
    5  A    between atoms: C_15  and  C_21
                            x       y       z     vdW  Elec       q    Type
                         _______ _______ _______ _____ _____    ______ ____

>  <TORSDO>
F 5

$$$$
=
 OpenBabel10262419493D

 25 28  0  0  0  0  0  0  0  0999 V2000
  185.8470  178.4050  144.4750 C   0  0  0  0  0  0  0  0  0  0  0  0
  187.0000  178.0510  145.1850 C   0  0  0  0  0  0  0  0  0  0  0  0
  184.6670  178.6810  146.5680 C   0  0  0  0  0  3  0  0  0  0  0  0
  185.6240  178.5110  143.0960 C   0  0  0  0  0  0  0  0  0  0  0  0
  185.4320  178.6380  140.8750 C   0  0  0  0  0  3  0  0  0  0  0  0
  185.7790  178.3430  147.2230 O   0  0  0  0  0  0  0  0  0  0  0  0
  184.3670  178.8820  142.7770 C   0  0  0  0  0  0  0  0  0  0  0  0
  184.1850  178.9780  141.4180 C   0  0  0  0  0  3  0  0  0  0  0  0
  188.0650  177.6870  147.3330 C   0  0  0  0  0  0  0  0  0  0  0  0
  188.0420  177.6560  148.8230 C   0  0  0  0  0  1  0  0  0  0  0  0
  188.1660  177.7330  144.5630 N   0  0  0  0  0  0  0  0  0  0  0  0
  187.7390  177.9530  141.7300 C   0  0  0  0  0  1  0  0  0  0  0  0
  184.6840  178.7170  145.1790 C   0  0  0  0  0  0  0  0  0  0  0  0
  183.4010  179.1180  144.1350 S   0  0  0  0  0  0  0  0  0  0  0  0
  189.2470  177.3660  146.6630 C   0  0  0  0  0  3  0  0  0  0  0  0
  186.3170  178.3510  141.9160 C   0  0  0  0  0  0  0  0  0  0  0  0
  189.2780  177.3890  145.2660 C   0  0  0  0  0  0  0  0  0  0  0  0
  186.9220  178.0330  146.6000 C   0  0  0  0  0  0  0  0  0  0  0  0
  190.5400  177.0680  144.5470 C   0  0  0  0  0  2  0  0  0  0  0  0
  190.6650  177.9340  143.3070 C   0  0  0  0  0  2  0  0  0  0  0  0
  190.9220  177.0750  142.1130 C   0  0  0  0  0  0  0  0  0  0  0  0
  190.5160  175.8840  142.1170 O   0  0  0  0  0  0  0  0  0  0  0  0
  191.6270  177.5510  141.0040 O   0  0  0  0  0  0  0  0  0  0  0  0
  191.3090  177.1740  139.7010 C   0  0  0  0  0  3  0  0  0  0  0  0
  190.2420  177.5810  139.1730 O   0  0  0  0  0  0  0  0  0  0  0  0
  1 13  1  0  0  0  0
  1  2  1  0  0  0  0
  2 18  1  0  0  0  0
  3  6  1  0  0  0  0
  4  1  2  0  0  0  0
  5  8  1  0  0  0  0
  5 16  2  0  0  0  0
  7  4  1  0  0  0  0
  7 14  1  0  0  0  0
  8  7  2  0  0  0  0
  9 10  1  0  0  0  0
 11  2  2  0  0  0  0
 11 17  1  0  0  0  0
 12 16  1  0  0  0  0
 13  3  2  0  0  0  0
 14 13  1  0  0  0  0
 15  9  1  0  0  0  0
 16  4  1  0  0  0  0
 17 15  2  0  0  0  0
 18  6  1  0  0  0  0
 18  9  2  0  0  0  0
 19 17  1  0  0  0  0
 20 19  1  0  0  0  0
 21 22  2  0  0  0  0
 21 20  1  0  0  0  0
 23 21  1  0  0  0  0
 24 23  1  0  0  0  0
 25 24  2  0  0  0  0
M  END
>  <MODEL>
7

>  <REMARK>
 VINA RESULT:      -8.5      1.659      2.715
  Name = 
  5 active torsions:
  status: ('A' for Active; 'I' for Inactive)
    1  A    between atoms: C_2  and  O_12
    2  A    between atoms: C_6  and  C_15
    3  A    between atoms: C_6  and  C_23
    4  A    between atoms: O_12  and  C_21
    5  A    between atoms: C_15  and  C_21
                            x       y       z     vdW  Elec       q    Type
                         _______ _______ _______ _____ _____    ______ ____

>  <TORSDO>
F 5

$$$$
=
 OpenBabel10262419493D

 25 28  0  0  0  0  0  0  0  0999 V2000
  189.3440  177.4760  144.1100 C   0  0  0  0  0  0  0  0  0  0  0  0
  188.6500  177.8070  142.9400 C   0  0  0  0  0  0  0  0  0  0  0  0
  191.3340  177.0770  142.7930 C   0  0  0  0  0  3  0  0  0  0  0  0
  188.9140  177.4410  145.4430 C   0  0  0  0  0  0  0  0  0  0  0  0
  188.0780  177.4350  147.5130 C   0  0  0  0  0  3  0  0  0  0  0  0
  190.6530  177.3980  141.6930 O   0  0  0  0  0  0  0  0  0  0  0  0
  189.8770  177.0690  146.3120 C   0  0  0  0  0  0  0  0  0  0  0  0
  189.4210  177.0470  147.6090 C   0  0  0  0  0  3  0  0  0  0  0  0
  188.6910  178.0860  140.5310 C   0  0  0  0  0  0  0  0  0  0  0  0
  189.3910  178.0520  139.2160 C   0  0  0  0  0  1  0  0  0  0  0  0
  187.3410  178.1690  142.9500 N   0  0  0  0  0  0  0  0  0  0  0  0
  186.4370  178.1130  145.6770 C   0  0  0  0  0  1  0  0  0  0  0  0
  190.6880  177.1110  144.0240 C   0  0  0  0  0  0  0  0  0  0  0  0
  191.3440  176.7490  145.5510 S   0  0  0  0  0  0  0  0  0  0  0  0
  187.3450  178.4550  140.5770 C   0  0  0  0  0  3  0  0  0  0  0  0
  187.7700  177.6770  146.1720 C   0  0  0  0  0  0  0  0  0  0  0  0
  186.6790  178.4860  141.8060 C   0  0  0  0  0  0  0  0  0  0  0  0
  189.3630  177.7550  141.7150 C   0  0  0  0  0  0  0  0  0  0  0  0
  185.2510  178.8980  141.8640 C   0  0  0  0  0  2  0  0  0  0  0  0
  184.4710  178.2190  140.7520 C   0  0  0  0  0  2  0  0  0  0  0  0
  183.7670  179.2450  139.9270 C   0  0  0  0  0  0  0  0  0  0  0  0
  184.4470  180.0900  139.2900 O   0  0  0  0  0  0  0  0  0  0  0  0
  182.3720  179.3090  139.8690 O   0  0  0  0  0  0  0  0  0  0  0  0
  181.5610  178.8520  140.9060 C   0  0  0  0  0  3  0  0  0  0  0  0
  180.9280  177.7730  140.7780 O   0  0  0  0  0  0  0  0  0  0  0  0
  1  4  2  0  0  0  0
  2 11  1  0  0  0  0
  2  1  1  0  0  0  0
  3 13  2  0  0  0  0
  4 16  1  0  0  0  0
  4  7  1  0  0  0  0
  5  8  1  0  0  0  0
  6 18  1  0  0  0  0
  6  3  1  0  0  0  0
  7  8  2  0  0  0  0
  9 15  2  0  0  0  0
  9 18  1  0  0  0  0
 10  9  1  0  0  0  0
 12 16  1  0  0  0  0
 13  1  1  0  0  0  0
 13 14  1  0  0  0  0
 14  7  1  0  0  0  0
 15 17  1  0  0  0  0
 16  5  2  0  0  0  0
 17 19  1  0  0  0  0
 17 11  2  0  0  0  0
 18  2  2  0  0  0  0
 20 19  1  0  0  0  0
 21 20  1  0  0  0  0
 22 21  2  0  0  0  0
 23 21  1  0  0  0  0
 23 24  1  0  0  0  0
 25 24  2  0  0  0  0
M  END
>  <MODEL>
8

>  <REMARK>
 VINA RESULT:      -8.5      3.179      6.079
  Name = 
  5 active torsions:
  status: ('A' for Active; 'I' for Inactive)
    1  A    between atoms: C_2  and  O_12
    2  A    between atoms: C_6  and  C_15
    3  A    between atoms: C_6  and  C_23
    4  A    between atoms: O_12  and  C_21
    5  A    between atoms: C_15  and  C_21
                            x       y       z     vdW  Elec       q    Type
                         _______ _______ _______ _____ _____    ______ ____

>  <TORSDO>
F 5

$$$$
=
 OpenBabel10262419493D

 25 28  0  0  0  0  0  0  0  0999 V2000
  186.9870  178.0080  145.3920 C   0  0  0  0  0  0  0  0  0  0  0  0
  186.1080  178.3130  144.3460 C   0  0  0  0  0  0  0  0  0  0  0  0
  185.1780  178.3020  146.9710 C   0  0  0  0  0  3  0  0  0  0  0  0
  188.3490  177.6810  145.3690 C   0  0  0  0  0  0  0  0  0  0  0  0
  190.5140  177.1730  145.1660 C   0  0  0  0  0  3  0  0  0  0  0  0
  184.3590  178.5880  145.9580 O   0  0  0  0  0  0  0  0  0  0  0  0
  188.8700  177.4470  146.5920 C   0  0  0  0  0  0  0  0  0  0  0  0
  190.2060  177.1280  146.5320 C   0  0  0  0  0  3  0  0  0  0  0  0
  183.8620  178.9080  143.6510 C   0  0  0  0  0  0  0  0  0  0  0  0
  182.4350  179.2190  143.9440 C   0  0  0  0  0  1  0  0  0  0  0  0
  186.5060  178.3350  143.0470 N   0  0  0  0  0  0  0  0  0  0  0  0
  189.2980  177.6570  142.9720 C   0  0  0  0  0  1  0  0  0  0  0  0
  186.5100  178.0060  146.7030 C   0  0  0  0  0  0  0  0  0  0  0  0
  187.7310  177.6130  147.8200 S   0  0  0  0  0  0  0  0  0  0  0  0
  184.3040  178.9210  142.3260 C   0  0  0  0  0  3  0  0  0  0  0  0
  189.3630  177.5150  144.4520 C   0  0  0  0  0  0  0  0  0  0  0  0
  185.6420  178.6340  142.0410 C   0  0  0  0  0  0  0  0  0  0  0  0
  184.7620  178.6050  144.6810 C   0  0  0  0  0  0  0  0  0  0  0  0
  186.1130  178.6260  140.6300 C   0  0  0  0  0  2  0  0  0  0  0  0
  184.9270  178.7180  139.6870 C   0  0  0  0  0  2  0  0  0  0  0  0
  185.3210  178.2380  138.3290 C   0  0  0  0  0  0  0  0  0  0  0  0
  184.6670  177.3040  137.7970 O   0  0  0  0  0  0  0  0  0  0  0  0
  186.4130  178.7800  137.6480 O   0  0  0  0  0  0  0  0  0  0  0  0
  187.4970  178.0050  137.2400 C   0  0  0  0  0  3  0  0  0  0  0  0
  187.7990  176.9640  137.8780 O   0  0  0  0  0  0  0  0  0  0  0  0
  1 13  1  0  0  0  0
  2 18  1  0  0  0  0
  2  1  1  0  0  0  0
  4  1  2  0  0  0  0
  4  7  1  0  0  0  0
  5  8  1  0  0  0  0
  6  3  1  0  0  0  0
  7 14  1  0  0  0  0
  8  7  2  0  0  0  0
  9 10  1  0  0  0  0
  9 18  2  0  0  0  0
 11  2  2  0  0  0  0
 12 16  1  0  0  0  0
 13  3  2  0  0  0  0
 13 14  1  0  0  0  0
 15  9  1  0  0  0  0
 16  5  2  0  0  0  0
 16  4  1  0  0  0  0
 17 15  2  0  0  0  0
 17 11  1  0  0  0  0
 18  6  1  0  0  0  0
 19 17  1  0  0  0  0
 20 19  1  0  0  0  0
 21 20  1  0  0  0  0
 22 21  2  0  0  0  0
 23 21  1  0  0  0  0
 24 23  1  0  0  0  0
 24 25  2  0  0  0  0
M  END
>  <MODEL>
9

>  <REMARK>
 VINA RESULT:      -8.3      2.514      5.360
  Name = 
  5 active torsions:
  status: ('A' for Active; 'I' for Inactive)
    1  A    between atoms: C_2  and  O_12
    2  A    between atoms: C_6  and  C_15
    3  A    between atoms: C_6  and  C_23
    4  A    between atoms: O_12  and  C_21
    5  A    between atoms: C_15  and  C_21
                            x       y       z     vdW  Elec       q    Type
                         _______ _______ _______ _____ _____    ______ ____

>  <TORSDO>
F 5

$$$$
