=
 OpenBabel10262422303D

 43 48  0  0  1  0  0  0  0  0999 V2000
  193.3280  175.1890  136.1700 C   0  0  0  0  0  0  0  0  0  0  0  0
  191.4290  177.2940  140.3270 C   0  0  0  0  0  0  0  0  0  0  0  0
  193.0670  176.3450  138.3050 C   0  0  0  0  0  0  0  0  0  0  0  0
  192.0140  174.9870  136.0200 C   0  0  0  0  0  3  0  0  0  0  0  0
  194.4310  174.6000  134.9450 Cl  0  0  0  0  0  0  0  0  0  0  0  0
  191.5980  176.1500  138.2010 C   0  0  0  0  0  0  0  0  0  0  0  0
  193.8720  175.8920  137.3460 C   0  0  0  0  0  3  0  0  0  0  0  0
  190.9850  175.4560  137.0170 C   0  0  0  0  0  2  0  0  0  0  0  0
  189.4680  176.6000  139.3480 N   0  0  0  0  0  2  0  0  0  0  0  0
  190.8670  176.6300  139.2050 C   0  0  0  0  0  0  0  0  0  0  0  0
  192.7430  177.4980  140.4470 C   0  0  0  0  0  3  0  0  0  0  0  0
  190.3060  177.6990  141.2160 C   0  0  1  0  0  3  0  0  0  0  0  0
  189.0620  177.2360  140.5450 N   0  0  1  0  0  0  0  0  0  0  0  0
  193.5920  177.0150  139.4290 O   0  0  0  0  0  0  0  0  0  0  0  0
  186.8180  178.0880  140.2180 C   0  0  2  0  0  3  0  0  0  0  0  0
  187.4560  178.8880  141.3320 C   0  0  0  0  0  2  0  0  0  0  0  0
  188.3000  178.4160  140.1630 C   0  0  1  0  0  3  0  0  0  0  0  0
  186.1240  178.9470  139.3640 O   0  0  0  0  0  0  0  0  0  0  0  0
  185.4890  178.1010  138.4450 C   0  0  2  0  0  3  0  0  0  0  0  0
  186.2690  178.0300  137.1360 C   0  0  0  0  0  2  0  0  0  0  0  0
  187.1640  179.0960  137.0290 O   0  0  0  0  0  1  0  0  0  0  0  0
  184.0190  178.4860  138.2360 C   0  0  1  0  0  3  0  0  0  0  0  0
  183.2380  177.3280  138.1640 O   0  0  0  0  0  0  0  0  0  0  0  0
  181.1930  177.2650  136.9570 C   0  0  0  0  0  1  0  0  0  0  0  0
  182.7040  177.3270  136.8730 C   0  0  0  0  0  2  0  0  0  0  0  0
  183.5050  179.3870  139.3580 C   0  0  0  0  0  2  0  0  0  0  0  0
  182.3510  178.7380  140.1140 C   0  0  2  0  0  3  0  0  0  0  0  0
  181.1600  179.3940  139.7990 O   0  0  0  0  0  1  0  0  0  0  0  0
  182.5680  178.7600  141.5940 C   0  0  0  0  0  0  0  0  0  0  0  0
  184.0690  178.6200  143.4850 C   0  0  0  0  0  3  0  0  0  0  0  0
  181.7310  178.9790  143.8260 N   0  0  0  0  0  0  0  0  0  0  0  0
  182.9810  178.8220  144.3380 C   0  0  0  0  0  3  0  0  0  0  0  0
  181.5030  178.9480  142.4840 C   0  0  0  0  0  3  0  0  0  0  0  0
  183.8550  178.5880  142.1050 C   0  0  0  0  0  3  0  0  0  0  0  0
  190.4410  177.0130  142.5660 C   0  0  0  0  0  2  0  0  0  0  0  0
  189.1330  176.3370  142.9400 C   0  0  0  0  0  2  0  0  0  0  0  0
  189.1050  177.4920  146.5480 C   0  0  0  0  0  3  0  0  0  0  0  0
  186.8380  177.5460  145.6950 C   0  0  0  0  0  3  0  0  0  0  0  0
  187.7430  177.7480  146.7420 C   0  0  0  0  0  0  0  0  0  0  0  0
  189.5610  177.0370  145.3080 C   0  0  0  0  0  3  0  0  0  0  0  0
  188.6560  176.8390  144.2570 C   0  0  0  0  0  0  0  0  0  0  0  0
  187.3020  178.1830  147.9450 F   0  0  0  0  0  0  0  0  0  0  0  0
  187.2930  177.0900  144.4540 C   0  0  0  0  0  3  0  0  0  0  0  0
  1  7  1  0  0  0  0
  2 11  2  0  0  0  0
  2 12  1  0  0  0  0
  3 14  1  0  0  0  0
  4  1  2  0  0  0  0
  4  8  1  0  0  0  0
  5  1  1  0  0  0  0
  6  3  1  0  0  0  0
  6 10  2  0  0  0  0
  7  3  2  0  0  0  0
  8  6  1  0  0  0  0
 10  9  1  0  0  0  0
 10  2  1  0  0  0  0
 12 35  1  1  0  0  0
 13  9  1  6  0  0  0
 13 12  1  0  0  0  0
 14 11  1  0  0  0  0
 15 18  1  6  0  0  0
 15 16  1  0  0  0  0
 17 15  1  0  0  0  0
 17 13  1  0  0  0  0
 17 16  1  1  0  0  0
 19 20  1  6  0  0  0
 19 18  1  0  0  0  0
 21 20  1  0  0  0  0
 22 19  1  0  0  0  0
 22 26  1  1  0  0  0
 23 22  1  0  0  0  0
 25 24  1  0  0  0  0
 25 23  1  0  0  0  0
 26 27  1  0  0  0  0
 27 28  1  1  0  0  0
 27 29  1  0  0  0  0
 29 34  2  0  0  0  0
 29 33  1  0  0  0  0
 30 32  2  0  0  0  0
 31 32  1  0  0  0  0
 33 31  2  0  0  0  0
 34 30  1  0  0  0  0
 35 36  1  0  0  0  0
 36 41  1  0  0  0  0
 37 39  1  0  0  0  0
 38 39  2  0  0  0  0
 39 42  1  0  0  0  0
 40 37  2  0  0  0  0
 41 43  2  0  0  0  0
 41 40  1  0  0  0  0
 43 38  1  0  0  0  0
M  END
>  <MODEL>
1

>  <REMARK>
 VINA RESULT:      -8.4      0.000      0.000
  Name = 
  13 active torsions:
  status: ('A' for Active; 'I' for Inactive)
    1  A    between atoms: C_1  and  C_28
    2  A    between atoms: C_1  and  C_34
    3  A    between atoms: C_2  and  O_6
    4  A    between atoms: C_3  and  C_4
    5  A    between atoms: C_3  and  O_6
    6  A    between atoms: C_3  and  C_12
    7  A    between atoms: C_4  and  O_15
    8  A    between atoms: C_4  and  C_22
    9  A    between atoms: C_11  and  C_14
   10  A    between atoms: C_13  and  N_38
   11  A    between atoms: C_14  and  C_22
   12  A    between atoms: O_15  and  C_42
   13  A    between atoms: C_28  and  C_35
                            x       y       z     vdW  Elec       q    Type
                         _______ _______ _______ _____ _____    ______ ____

>  <TORSDO>
F 13

$$$$
=
 OpenBabel10262422303D

 43 48  0  0  1  0  0  0  0  0999 V2000
  187.1620  178.0620  147.1580 C   0  0  0  0  0  0  0  0  0  0  0  0
  184.0430  178.9180  143.3030 C   0  0  0  0  0  0  0  0  0  0  0  0
  185.2910  178.8010  145.7730 C   0  0  0  0  0  0  0  0  0  0  0  0
  187.7940  177.4680  146.1390 C   0  0  0  0  0  3  0  0  0  0  0  0
  187.8770  178.0130  148.7550 Cl  0  0  0  0  0  0  0  0  0  0  0  0
  185.9390  178.1590  144.6010 C   0  0  0  0  0  0  0  0  0  0  0  0
  185.8730  178.7530  146.9700 C   0  0  0  0  0  3  0  0  0  0  0  0
  187.2620  177.4550  144.7280 C   0  0  0  0  0  2  0  0  0  0  0  0
  185.6830  177.7560  142.1870 N   0  0  0  0  0  2  0  0  0  0  0  0
  185.2890  178.2520  143.4430 C   0  0  0  0  0  0  0  0  0  0  0  0
  183.4390  179.5180  144.3320 C   0  0  0  0  0  3  0  0  0  0  0  0
  183.6460  178.8290  141.8720 C   0  0  1  0  0  3  0  0  0  0  0  0
  184.7320  178.0760  141.1890 N   0  0  1  0  0  0  0  0  0  0  0  0
  184.0590  179.4620  145.5980 O   0  0  0  0  0  0  0  0  0  0  0  0
  185.4980  178.3080  138.9030 C   0  0  2  0  0  3  0  0  0  0  0  0
  184.4260  179.3500  139.1370 C   0  0  0  0  0  2  0  0  0  0  0  0
  185.3820  178.9860  140.2570 C   0  0  1  0  0  3  0  0  0  0  0  0
  186.5560  178.8780  138.1920 O   0  0  0  0  0  0  0  0  0  0  0  0
  186.9630  177.8800  137.2960 C   0  0  2  0  0  3  0  0  0  0  0  0
  186.1130  176.6230  137.4520 C   0  0  0  0  0  2  0  0  0  0  0  0
  186.8200  175.4890  137.0490 O   0  0  0  0  0  1  0  0  0  0  0  0
  188.4660  177.5950  137.4020 C   0  0  1  0  0  3  0  0  0  0  0  0
  189.1560  178.3630  136.4590 O   0  0  0  0  0  0  0  0  0  0  0  0
  189.8580  176.3740  135.3680 C   0  0  0  0  0  1  0  0  0  0  0  0
  189.0530  177.6520  135.2610 C   0  0  0  0  0  2  0  0  0  0  0  0
  189.0000  177.8920  138.8020 C   0  0  0  0  0  2  0  0  0  0  0  0
  190.2640  177.0940  139.1010 C   0  0  2  0  0  3  0  0  0  0  0  0
  190.1170  175.7910  138.6210 O   0  0  0  0  0  1  0  0  0  0  0  0
  190.5760  177.0650  140.5630 C   0  0  0  0  0  0  0  0  0  0  0  0
  189.8850  176.6070  142.8350 C   0  0  0  0  0  3  0  0  0  0  0  0
  192.0950  177.3950  142.3830 N   0  0  0  0  0  0  0  0  0  0  0  0
  191.1560  176.9860  143.2770 C   0  0  0  0  0  3  0  0  0  0  0  0
  191.8340  177.4470  141.0490 C   0  0  0  0  0  3  0  0  0  0  0  0
  189.5980  176.6500  141.4690 C   0  0  0  0  0  3  0  0  0  0  0  0
  182.3390  178.0620  141.7440 C   0  0  0  0  0  2  0  0  0  0  0  0
  181.1900  179.0270  141.5100 C   0  0  0  0  0  2  0  0  0  0  0  0
  180.7970  178.4610  137.7840 C   0  0  0  0  0  3  0  0  0  0  0  0
  180.8500  180.8460  138.2080 C   0  0  0  0  0  3  0  0  0  0  0  0
  180.7530  179.7770  137.3120 C   0  0  0  0  0  0  0  0  0  0  0  0
  180.9330  178.2140  139.1530 C   0  0  0  0  0  3  0  0  0  0  0  0
  181.0260  179.2830  140.0530 C   0  0  0  0  0  0  0  0  0  0  0  0
  180.6260  180.0150  135.9850 F   0  0  0  0  0  0  0  0  0  0  0  0
  180.9880  180.5990  139.5780 C   0  0  0  0  0  3  0  0  0  0  0  0
  1  5  1  0  0  0  0
  2 10  1  0  0  0  0
  2 11  2  0  0  0  0
  3  7  2  0  0  0  0
  4  1  2  0  0  0  0
  6  8  1  0  0  0  0
  6  3  1  0  0  0  0
  7  1  1  0  0  0  0
  8  4  1  0  0  0  0
  9 10  1  0  0  0  0
 10  6  2  0  0  0  0
 11 14  1  0  0  0  0
 12 35  1  1  0  0  0
 12  2  1  0  0  0  0
 13 12  1  0  0  0  0
 13  9  1  1  0  0  0
 14  3  1  0  0  0  0
 15 18  1  6  0  0  0
 15 16  1  0  0  0  0
 15 17  1  0  0  0  0
 17 16  1  6  0  0  0
 17 13  1  0  0  0  0
 19 22  1  0  0  0  0
 19 20  1  1  0  0  0
 19 18  1  0  0  0  0
 21 20  1  0  0  0  0
 22 26  1  1  0  0  0
 23 22  1  0  0  0  0
 25 24  1  0  0  0  0
 25 23  1  0  0  0  0
 26 27  1  0  0  0  0
 27 28  1  1  0  0  0
 27 29  1  0  0  0  0
 29 33  2  0  0  0  0
 29 34  1  0  0  0  0
 30 32  1  0  0  0  0
 31 32  2  0  0  0  0
 33 31  1  0  0  0  0
 34 30  2  0  0  0  0
 36 35  1  0  0  0  0
 37 40  1  0  0  0  0
 38 43  2  0  0  0  0
 39 37  2  0  0  0  0
 39 38  1  0  0  0  0
 40 41  2  0  0  0  0
 41 36  1  0  0  0  0
 42 39  1  0  0  0  0
 43 41  1  0  0  0  0
M  END
>  <MODEL>
2

>  <REMARK>
 VINA RESULT:      -8.3      3.867      8.736
  Name = 
  13 active torsions:
  status: ('A' for Active; 'I' for Inactive)
    1  A    between atoms: C_1  and  C_28
    2  A    between atoms: C_1  and  C_34
    3  A    between atoms: C_2  and  O_6
    4  A    between atoms: C_3  and  C_4
    5  A    between atoms: C_3  and  O_6
    6  A    between atoms: C_3  and  C_12
    7  A    between atoms: C_4  and  O_15
    8  A    between atoms: C_4  and  C_22
    9  A    between atoms: C_11  and  C_14
   10  A    between atoms: C_13  and  N_38
   11  A    between atoms: C_14  and  C_22
   12  A    between atoms: O_15  and  C_42
   13  A    between atoms: C_28  and  C_35
                            x       y       z     vdW  Elec       q    Type
                         _______ _______ _______ _____ _____    ______ ____

>  <TORSDO>
F 13

$$$$
=
 OpenBabel10262422303D

 43 48  0  0  1  0  0  0  0  0999 V2000
  192.6920  176.6140  137.8340 C   0  0  0  0  0  0  0  0  0  0  0  0
  189.6020  177.5720  141.6890 C   0  0  0  0  0  0  0  0  0  0  0  0
  191.7840  177.1210  140.0440 C   0  0  0  0  0  0  0  0  0  0  0  0
  191.4860  176.5670  137.2550 C   0  0  0  0  0  3  0  0  0  0  0  0
  194.1190  176.3180  136.8650 Cl  0  0  0  0  0  0  0  0  0  0  0  0
  190.4180  177.0800  139.4640 C   0  0  0  0  0  0  0  0  0  0  0  0
  192.8470  176.9030  139.2710 C   0  0  0  0  0  3  0  0  0  0  0  0
  190.1980  176.8070  138.0020 C   0  0  0  0  0  2  0  0  0  0  0  0
  188.0350  177.3450  140.0200 N   0  0  0  0  0  2  0  0  0  0  0  0
  189.4120  177.3060  140.3070 C   0  0  0  0  0  0  0  0  0  0  0  0
  190.8160  177.6300  142.2400 C   0  0  0  0  0  3  0  0  0  0  0  0
  188.2580  177.7900  142.2900 C   0  0  1  0  0  3  0  0  0  0  0  0
  187.2800  177.6380  141.1800 N   0  0  1  0  0  0  0  0  0  0  0  0
  191.9380  177.3960  141.4180 O   0  0  0  0  0  0  0  0  0  0  0  0
  185.1570  178.7370  140.7870 C   0  0  2  0  0  3  0  0  0  0  0  0
  185.7020  179.2460  142.1040 C   0  0  0  0  0  2  0  0  0  0  0  0
  186.6520  178.9340  140.9640 C   0  0  1  0  0  3  0  0  0  0  0  0
  184.6350  179.8040  140.0540 O   0  0  0  0  0  0  0  0  0  0  0  0
  183.2770  179.4980  139.8950 C   0  0  2  0  0  3  0  0  0  0  0  0
  182.8400  178.4170  140.8790 C   0  0  0  0  0  2  0  0  0  0  0  0
  181.8230  178.8840  141.7140 O   0  0  0  0  0  1  0  0  0  0  0  0
  182.9360  179.1470  138.4410 C   0  0  1  0  0  3  0  0  0  0  0  0
  182.8840  177.7580  138.2960 O   0  0  0  0  0  0  0  0  0  0  0  0
  184.9680  177.3590  137.2270 C   0  0  0  0  0  1  0  0  0  0  0  0
  183.4700  177.4970  137.0550 C   0  0  0  0  0  2  0  0  0  0  0  0
  181.6080  179.7630  138.0070 C   0  0  0  0  0  2  0  0  0  0  0  0
  181.4500  181.1850  138.5370 C   0  0  2  0  0  3  0  0  0  0  0  0
  180.3950  181.2270  139.4500 O   0  0  0  0  0  1  0  0  0  0  0  0
  181.2100  182.1690  137.4360 C   0  0  0  0  0  0  0  0  0  0  0  0
  181.2700  184.4460  136.6240 C   0  0  0  0  0  3  0  0  0  0  0  0
  180.5230  182.6780  135.2000 N   0  0  0  0  0  0  0  0  0  0  0  0
  180.7890  183.9980  135.3920 C   0  0  0  0  0  3  0  0  0  0  0  0
  180.7180  181.7630  136.1890 C   0  0  0  0  0  3  0  0  0  0  0  0
  181.4790  183.5220  137.6500 C   0  0  0  0  0  3  0  0  0  0  0  0
  187.9890  176.7350  143.3520 C   0  0  0  0  0  2  0  0  0  0  0  0
  186.9620  177.2470  144.3460 C   0  0  0  0  0  2  0  0  0  0  0  0
  187.4880  178.3400  147.9360 C   0  0  0  0  0  3  0  0  0  0  0  0
  189.5940  177.5320  147.0510 C   0  0  0  0  0  3  0  0  0  0  0  0
  188.8500  178.0710  148.1050 C   0  0  0  0  0  0  0  0  0  0  0  0
  186.8690  178.0670  146.7130 C   0  0  0  0  0  3  0  0  0  0  0  0
  187.6110  177.5230  145.6570 C   0  0  0  0  0  0  0  0  0  0  0  0
  189.4500  178.3400  149.2890 F   0  0  0  0  0  0  0  0  0  0  0  0
  188.9750  177.2600  145.8260 C   0  0  0  0  0  3  0  0  0  0  0  0
  1  7  1  0  0  0  0
  2 11  2  0  0  0  0
  2 12  1  0  0  0  0
  3 14  1  0  0  0  0
  4  1  2  0  0  0  0
  4  8  1  0  0  0  0
  5  1  1  0  0  0  0
  6  3  1  0  0  0  0
  6 10  2  0  0  0  0
  7  3  2  0  0  0  0
  8  6  1  0  0  0  0
  9 10  1  0  0  0  0
 10  2  1  0  0  0  0
 12 35  1  1  0  0  0
 13  9  1  6  0  0  0
 13 12  1  0  0  0  0
 14 11  1  0  0  0  0
 15 18  1  6  0  0  0
 15 17  1  0  0  0  0
 15 16  1  0  0  0  0
 17 13  1  0  0  0  0
 17 16  1  1  0  0  0
 19 18  1  0  0  0  0
 19 20  1  1  0  0  0
 20 21  1  0  0  0  0
 22 26  1  1  0  0  0
 22 19  1  0  0  0  0
 23 22  1  0  0  0  0
 25 24  1  0  0  0  0
 25 23  1  0  0  0  0
 26 27  1  0  0  0  0
 27 28  1  1  0  0  0
 29 34  1  0  0  0  0
 29 27  1  0  0  0  0
 30 34  2  0  0  0  0
 31 32  2  0  0  0  0
 31 33  1  0  0  0  0
 32 30  1  0  0  0  0
 33 29  2  0  0  0  0
 35 36  1  0  0  0  0
 36 41  1  0  0  0  0
 37 39  1  0  0  0  0
 38 39  2  0  0  0  0
 39 42  1  0  0  0  0
 40 37  2  0  0  0  0
 41 43  2  0  0  0  0
 41 40  1  0  0  0  0
 43 38  1  0  0  0  0
M  END
>  <MODEL>
3

>  <REMARK>
 VINA RESULT:      -8.1      2.719      3.980
  Name = 
  13 active torsions:
  status: ('A' for Active; 'I' for Inactive)
    1  A    between atoms: C_1  and  C_28
    2  A    between atoms: C_1  and  C_34
    3  A    between atoms: C_2  and  O_6
    4  A    between atoms: C_3  and  C_4
    5  A    between atoms: C_3  and  O_6
    6  A    between atoms: C_3  and  C_12
    7  A    between atoms: C_4  and  O_15
    8  A    between atoms: C_4  and  C_22
    9  A    between atoms: C_11  and  C_14
   10  A    between atoms: C_13  and  N_38
   11  A    between atoms: C_14  and  C_22
   12  A    between atoms: O_15  and  C_42
   13  A    between atoms: C_28  and  C_35
                            x       y       z     vdW  Elec       q    Type
                         _______ _______ _______ _____ _____    ______ ____

>  <TORSDO>
F 13

$$$$
=
 OpenBabel10262422303D

 43 48  0  0  1  0  0  0  0  0999 V2000
  193.5680  174.9190  136.5240 C   0  0  0  0  0  0  0  0  0  0  0  0
  188.9010  176.5190  137.5140 C   0  0  0  0  0  0  0  0  0  0  0  0
  191.1540  175.2840  136.4790 C   0  0  1  0  0  3  0  0  0  0  0  0
  193.7590  175.7330  137.5690 C   0  0  0  0  0  3  0  0  0  0  0  0
  194.9460  174.1180  135.8000 Cl  0  0  0  0  0  0  0  0  0  0  0  0
  191.2970  176.2020  137.6370 C   0  0  0  0  0  0  0  0  0  0  0  0
  192.2250  174.6840  135.9630 C   0  0  0  0  0  3  0  0  0  0  0  0
  192.6390  176.4680  138.2620 C   0  0  0  0  0  3  0  0  0  0  0  0
  190.0270  177.6460  139.1720 N   0  0  0  0  0  2  0  0  0  0  0  0
  190.1770  176.7630  138.0880 C   0  0  0  0  0  0  0  0  0  0  0  0
  188.7340  175.6890  136.4820 C   0  0  0  0  0  3  0  0  0  0  0  0
  187.9030  177.2990  138.2950 C   0  0  1  0  0  3  0  0  0  0  0  0
  188.6710  178.0070  139.3550 N   0  0  1  0  0  0  0  0  0  0  0  0
  189.8720  175.0570  135.9390 O   0  0  0  0  0  0  0  0  0  0  0  0
  189.1640  178.0080  141.7260 C   0  0  2  0  0  3  0  0  0  0  0  0
  187.7760  178.5820  141.5450 C   0  0  0  0  0  2  0  0  0  0  0  0
  188.2540  177.4630  140.6400 C   0  0  1  0  0  3  0  0  0  0  0  0
  189.1680  177.1280  142.8100 O   0  0  0  0  0  0  0  0  0  0  0  0
  189.4400  177.9320  143.9240 C   0  0  2  0  0  3  0  0  0  0  0  0
  190.8010  178.6090  143.7920 C   0  0  0  0  0  2  0  0  0  0  0  0
  191.8110  177.6660  143.5930 O   0  0  0  0  0  1  0  0  0  0  0  0
  189.2900  177.1570  145.2390 C   0  0  1  0  0  3  0  0  0  0  0  0
  189.9260  177.8550  146.2690 O   0  0  0  0  0  0  0  0  0  0  0  0
  191.6790  176.3490  146.8200 C   0  0  0  0  0  1  0  0  0  0  0  0
  190.3100  176.8790  147.1910 C   0  0  0  0  0  2  0  0  0  0  0  0
  187.8220  176.9300  145.5960 C   0  0  0  0  0  2  0  0  0  0  0  0
  187.1590  178.2140  146.0820 C   0  0  2  0  0  3  0  0  0  0  0  0
  187.0200  178.1700  147.4700 O   0  0  0  0  0  1  0  0  0  0  0  0
  185.8230  178.4300  145.4430 C   0  0  0  0  0  0  0  0  0  0  0  0
  184.4290  178.4160  143.4670 C   0  0  0  0  0  3  0  0  0  0  0  0
  183.5050  179.0080  145.5900 N   0  0  0  0  0  0  0  0  0  0  0  0
  183.3430  178.8070  144.2550 C   0  0  0  0  0  3  0  0  0  0  0  0
  184.7120  178.8330  146.1950 C   0  0  0  0  0  3  0  0  0  0  0  0
  185.6750  178.2290  144.0690 C   0  0  0  0  0  3  0  0  0  0  0  0
  187.2230  178.3180  137.3950 C   0  0  0  0  0  2  0  0  0  0  0  0
  185.9000  177.7670  136.8910 C   0  0  0  0  0  2  0  0  0  0  0  0
  183.8550  178.9660  139.8470 C   0  0  0  0  0  3  0  0  0  0  0  0
  183.0530  176.7790  139.1810 C   0  0  0  0  0  3  0  0  0  0  0  0
  182.9780  177.8910  140.0250 C   0  0  0  0  0  0  0  0  0  0  0  0
  184.8050  178.9300  138.8220 C   0  0  0  0  0  3  0  0  0  0  0  0
  184.8790  177.8190  137.9720 C   0  0  0  0  0  0  0  0  0  0  0  0
  182.0620  177.9250  141.0210 F   0  0  0  0  0  0  0  0  0  0  0  0
  184.0040  176.7420  138.1560 C   0  0  0  0  0  3  0  0  0  0  0  0
  1  4  1  0  0  0  0
  2 10  1  0  0  0  0
  2 12  1  0  0  0  0
  3  7  1  1  0  0  0
  3  6  1  0  0  0  0
  4  8  2  0  0  0  0
  5  1  1  0  0  0  0
  6 10  2  0  0  0  0
  6  8  1  0  0  0  0
  7  1  2  0  0  0  0
 10  9  1  0  0  0  0
 11  2  2  0  0  0  0
 12 35  1  6  0  0  0
 12 13  1  0  0  0  0
 13  9  1  6  0  0  0
 13 17  1  0  0  0  0
 14  3  1  0  0  0  0
 14 11  1  0  0  0  0
 15 18  1  1  0  0  0
 16 15  1  0  0  0  0
 17 16  1  1  0  0  0
 17 15  1  0  0  0  0
 18 19  1  0  0  0  0
 19 20  1  6  0  0  0
 19 22  1  0  0  0  0
 21 20  1  0  0  0  0
 22 26  1  1  0  0  0
 22 23  1  0  0  0  0
 23 25  1  0  0  0  0
 24 25  1  0  0  0  0
 26 27  1  0  0  0  0
 27 28  1  1  0  0  0
 29 27  1  0  0  0  0
 29 33  1  0  0  0  0
 30 34  1  0  0  0  0
 30 32  2  0  0  0  0
 31 33  2  0  0  0  0
 32 31  1  0  0  0  0
 34 29  2  0  0  0  0
 36 35  1  0  0  0  0
 36 41  1  0  0  0  0
 37 39  1  0  0  0  0
 38 39  2  0  0  0  0
 39 42  1  0  0  0  0
 40 37  2  0  0  0  0
 41 43  2  0  0  0  0
 41 40  1  0  0  0  0
 43 38  1  0  0  0  0
M  END
>  <MODEL>
4

>  <REMARK>
 VINA RESULT:      -8.1      2.863      6.320
  Name = 
  13 active torsions:
  status: ('A' for Active; 'I' for Inactive)
    1  A    between atoms: C_1  and  C_28
    2  A    between atoms: C_1  and  C_34
    3  A    between atoms: C_2  and  O_6
    4  A    between atoms: C_3  and  C_4
    5  A    between atoms: C_3  and  O_6
    6  A    between atoms: C_3  and  C_12
    7  A    between atoms: C_4  and  O_15
    8  A    between atoms: C_4  and  C_22
    9  A    between atoms: C_11  and  C_14
   10  A    between atoms: C_13  and  N_38
   11  A    between atoms: C_14  and  C_22
   12  A    between atoms: O_15  and  C_42
   13  A    between atoms: C_28  and  C_35
                            x       y       z     vdW  Elec       q    Type
                         _______ _______ _______ _____ _____    ______ ____

>  <TORSDO>
F 13

$$$$
=
 OpenBabel10262422303D

 43 48  0  0  1  0  0  0  0  0999 V2000
  190.7560  177.5080  143.6390 C   0  0  0  0  0  0  0  0  0  0  0  0
  189.2140  177.1250  138.8640 C   0  0  0  0  0  0  0  0  0  0  0  0
  190.5730  176.9420  141.2700 C   0  0  1  0  0  3  0  0  0  0  0  0
  189.6230  178.2210  143.6440 C   0  0  0  0  0  3  0  0  0  0  0  0
  191.6830  177.3630  145.1160 Cl  0  0  0  0  0  0  0  0  0  0  0  0
  189.3110  177.7210  141.2080 C   0  0  0  0  0  0  0  0  0  0  0  0
  191.2450  176.8450  142.4160 C   0  0  0  0  0  3  0  0  0  0  0  0
  188.7540  178.4040  142.4260 C   0  0  0  0  0  3  0  0  0  0  0  0
  187.4990  178.4130  139.6930 N   0  0  0  0  0  2  0  0  0  0  0  0
  188.7050  177.7690  140.0220 C   0  0  0  0  0  0  0  0  0  0  0  0
  190.3380  176.4050  138.8870 C   0  0  0  0  0  3  0  0  0  0  0  0
  188.2600  177.3870  137.7520 C   0  0  1  0  0  3  0  0  0  0  0  0
  187.1700  178.2170  138.3310 N   0  0  1  0  0  0  0  0  0  0  0  0
  191.0460  176.3080  140.1040 O   0  0  0  0  0  0  0  0  0  0  0  0
  184.7530  178.3620  138.2490 C   0  0  2  0  0  3  0  0  0  0  0  0
  185.2140  177.6600  136.9910 C   0  0  0  0  0  2  0  0  0  0  0  0
  185.9470  177.4260  138.2980 C   0  0  1  0  0  3  0  0  0  0  0  0
  183.6330  177.7080  138.7650 O   0  0  0  0  0  0  0  0  0  0  0  0
  182.8250  178.7320  139.2770 C   0  0  2  0  0  3  0  0  0  0  0  0
  183.4120  180.1040  138.9610 C   0  0  0  0  0  2  0  0  0  0  0  0
  182.4190  180.9860  138.5330 O   0  0  0  0  0  1  0  0  0  0  0  0
  182.5390  178.5410  140.7720 C   0  0  1  0  0  3  0  0  0  0  0  0
  181.5270  177.5910  140.9370 O   0  0  0  0  0  0  0  0  0  0  0  0
  180.4660  179.4450  141.9770 C   0  0  0  0  0  1  0  0  0  0  0  0
  180.3380  178.3240  140.9680 C   0  0  0  0  0  2  0  0  0  0  0  0
  183.7880  178.1050  141.5350 C   0  0  0  0  0  2  0  0  0  0  0  0
  184.3810  179.2550  142.3430 C   0  0  2  0  0  3  0  0  0  0  0  0
  185.5650  179.6850  141.7410 O   0  0  0  0  0  1  0  0  0  0  0  0
  184.6440  178.8640  143.7620 C   0  0  0  0  0  0  0  0  0  0  0  0
  186.0690  177.8060  145.4060 C   0  0  0  0  0  3  0  0  0  0  0  0
  184.0170  178.8330  146.0720 N   0  0  0  0  0  0  0  0  0  0  0  0
  185.1510  178.1570  146.3980 C   0  0  0  0  0  3  0  0  0  0  0  0
  183.7450  179.1870  144.7860 C   0  0  0  0  0  3  0  0  0  0  0  0
  185.8090  178.1630  144.0810 C   0  0  0  0  0  3  0  0  0  0  0  0
  188.9560  178.1630  136.6460 C   0  0  0  0  0  2  0  0  0  0  0  0
  188.7080  177.4940  135.3050 C   0  0  0  0  0  2  0  0  0  0  0  0
  189.2280  173.7420  135.2540 C   0  0  0  0  0  3  0  0  0  0  0  0
  191.3940  174.8290  135.2340 C   0  0  0  0  0  3  0  0  0  0  0  0
  190.6250  173.6610  135.2340 C   0  0  0  0  0  0  0  0  0  0  0  0
  188.6010  174.9900  135.2720 C   0  0  0  0  0  3  0  0  0  0  0  0
  189.3700  176.1620  135.2670 C   0  0  0  0  0  0  0  0  0  0  0  0
  191.2310  172.4510  135.2230 F   0  0  0  0  0  0  0  0  0  0  0  0
  190.7670  176.0790  135.2530 C   0  0  0  0  0  3  0  0  0  0  0  0
  1  4  1  0  0  0  0
  1  5  1  0  0  0  0
  2 11  2  0  0  0  0
  2 10  1  0  0  0  0
  3  7  1  1  0  0  0
  6  3  1  0  0  0  0
  6  8  1  0  0  0  0
  7  1  2  0  0  0  0
  8  4  2  0  0  0  0
  9 10  1  0  0  0  0
 10  6  2  0  0  0  0
 11 14  1  0  0  0  0
 12 35  1  6  0  0  0
 12 13  1  0  0  0  0
 12  2  1  0  0  0  0
 13  9  1  1  0  0  0
 14  3  1  0  0  0  0
 15 17  1  0  0  0  0
 15 18  1  1  0  0  0
 16 15  1  0  0  0  0
 17 16  1  6  0  0  0
 17 13  1  0  0  0  0
 18 19  1  0  0  0  0
 19 20  1  1  0  0  0
 19 22  1  0  0  0  0
 21 20  1  0  0  0  0
 22 23  1  0  0  0  0
 22 26  1  1  0  0  0
 23 25  1  0  0  0  0
 25 24  1  0  0  0  0
 26 27  1  0  0  0  0
 27 28  1  6  0  0  0
 27 29  1  0  0  0  0
 29 34  2  0  0  0  0
 29 33  1  0  0  0  0
 30 32  2  0  0  0  0
 31 32  1  0  0  0  0
 33 31  2  0  0  0  0
 34 30  1  0  0  0  0
 36 35  1  0  0  0  0
 37 40  1  0  0  0  0
 38 43  2  0  0  0  0
 39 38  1  0  0  0  0
 39 37  2  0  0  0  0
 41 40  2  0  0  0  0
 41 36  1  0  0  0  0
 42 39  1  0  0  0  0
 43 41  1  0  0  0  0
M  END
>  <MODEL>
5

>  <REMARK>
 VINA RESULT:      -7.8      3.372      6.352
  Name = 
  13 active torsions:
  status: ('A' for Active; 'I' for Inactive)
    1  A    between atoms: C_1  and  C_28
    2  A    between atoms: C_1  and  C_34
    3  A    between atoms: C_2  and  O_6
    4  A    between atoms: C_3  and  C_4
    5  A    between atoms: C_3  and  O_6
    6  A    between atoms: C_3  and  C_12
    7  A    between atoms: C_4  and  O_15
    8  A    between atoms: C_4  and  C_22
    9  A    between atoms: C_11  and  C_14
   10  A    between atoms: C_13  and  N_38
   11  A    between atoms: C_14  and  C_22
   12  A    between atoms: O_15  and  C_42
   13  A    between atoms: C_28  and  C_35
                            x       y       z     vdW  Elec       q    Type
                         _______ _______ _______ _____ _____    ______ ____

>  <TORSDO>
F 13

$$$$
=
 OpenBabel10262422303D

 43 48  0  0  1  0  0  0  0  0999 V2000
  192.9680  175.9960  136.1680 C   0  0  0  0  0  0  0  0  0  0  0  0
  191.1640  177.3310  140.6720 C   0  0  0  0  0  0  0  0  0  0  0  0
  192.7560  176.7470  138.4820 C   0  0  0  0  0  0  0  0  0  0  0  0
  191.6480  175.8390  136.0070 C   0  0  0  0  0  3  0  0  0  0  0  0
  194.0420  175.6270  134.8360 Cl  0  0  0  0  0  0  0  0  0  0  0  0
  191.2840  176.5910  138.3700 C   0  0  0  0  0  0  0  0  0  0  0  0
  193.5400  176.4670  137.4420 C   0  0  0  0  0  3  0  0  0  0  0  0
  190.6420  176.1300  137.0910 C   0  0  0  0  0  2  0  0  0  0  0  0
  189.1780  176.8480  139.6180 N   0  0  0  0  0  2  0  0  0  0  0  0
  190.5750  176.8880  139.4580 C   0  0  0  0  0  0  0  0  0  0  0  0
  192.4830  177.4950  140.8020 C   0  0  0  0  0  3  0  0  0  0  0  0
  190.0610  177.5800  141.6390 C   0  0  1  0  0  3  0  0  0  0  0  0
  188.8000  177.2600  140.9180 N   0  0  1  0  0  0  0  0  0  0  0  0
  193.3080  177.1960  139.6980 O   0  0  0  0  0  0  0  0  0  0  0  0
  186.8080  178.4310  141.6430 C   0  0  2  0  0  3  0  0  0  0  0  0
  188.0050  179.2380  142.0940 C   0  0  0  0  0  2  0  0  0  0  0  0
  188.0480  178.4980  140.7710 C   0  0  1  0  0  3  0  0  0  0  0  0
  185.8340  179.2880  141.1270 O   0  0  0  0  0  0  0  0  0  0  0  0
  184.8660  178.4380  140.5740 C   0  0  2  0  0  3  0  0  0  0  0  0
  184.4150  178.9400  139.2050 C   0  0  0  0  0  2  0  0  0  0  0  0
  184.5200  180.3300  139.1230 O   0  0  0  0  0  1  0  0  0  0  0  0
  183.6940  178.2060  141.5350 C   0  0  1  0  0  3  0  0  0  0  0  0
  183.6410  179.2450  142.4680 O   0  0  0  0  0  0  0  0  0  0  0  0
  184.8170  179.2350  144.5320 C   0  0  0  0  0  1  0  0  0  0  0  0
  183.6990  178.6210  143.7160 C   0  0  0  0  0  2  0  0  0  0  0  0
  182.3630  178.1100  140.7900 C   0  0  0  0  0  2  0  0  0  0  0  0
  181.3740  179.1650  141.2740 C   0  0  2  0  0  3  0  0  0  0  0  0
  180.4210  178.5650  142.0990 O   0  0  0  0  0  1  0  0  0  0  0  0
  180.6960  179.8610  140.1360 C   0  0  0  0  0  0  0  0  0  0  0  0
  180.3900  180.1550  137.7550 C   0  0  0  0  0  3  0  0  0  0  0  0
  179.1210  181.4590  139.3040 N   0  0  0  0  0  0  0  0  0  0  0  0
  179.4270  181.1320  138.0200 C   0  0  0  0  0  3  0  0  0  0  0  0
  179.7330  180.8530  140.3580 C   0  0  0  0  0  3  0  0  0  0  0  0
  181.0270  179.5200  138.8230 C   0  0  0  0  0  3  0  0  0  0  0  0
  190.2070  176.6580  142.8390 C   0  0  0  0  0  2  0  0  0  0  0  0
  190.7890  177.4230  144.0160 C   0  0  0  0  0  2  0  0  0  0  0  0
  187.5480  177.3630  145.9780 C   0  0  0  0  0  3  0  0  0  0  0  0
  189.3970  177.5580  147.5320 C   0  0  0  0  0  3  0  0  0  0  0  0
  188.0230  177.4690  147.2900 C   0  0  0  0  0  0  0  0  0  0  0  0
  188.4490  177.3420  144.9100 C   0  0  0  0  0  3  0  0  0  0  0  0
  189.8260  177.4260  145.1500 C   0  0  0  0  0  0  0  0  0  0  0  0
  187.1500  177.4940  148.3240 F   0  0  0  0  0  0  0  0  0  0  0  0
  190.2990  177.5380  146.4630 C   0  0  0  0  0  3  0  0  0  0  0  0
  1  7  1  0  0  0  0
  2 11  2  0  0  0  0
  2 12  1  0  0  0  0
  3 14  1  0  0  0  0
  4  1  2  0  0  0  0
  4  8  1  0  0  0  0
  5  1  1  0  0  0  0
  6  3  1  0  0  0  0
  6 10  2  0  0  0  0
  7  3  2  0  0  0  0
  8  6  1  0  0  0  0
 10  9  1  0  0  0  0
 10  2  1  0  0  0  0
 12 35  1  1  0  0  0
 13  9  1  6  0  0  0
 13 12  1  0  0  0  0
 14 11  1  0  0  0  0
 15 18  1  6  0  0  0
 15 16  1  0  0  0  0
 17 13  1  0  0  0  0
 17 15  1  0  0  0  0
 17 16  1  1  0  0  0
 19 20  1  6  0  0  0
 19 18  1  0  0  0  0
 19 22  1  0  0  0  0
 21 20  1  0  0  0  0
 22 26  1  6  0  0  0
 22 23  1  0  0  0  0
 23 25  1  0  0  0  0
 25 24  1  0  0  0  0
 26 27  1  0  0  0  0
 27 28  1  1  0  0  0
 29 33  1  0  0  0  0
 29 27  1  0  0  0  0
 30 32  2  0  0  0  0
 30 34  1  0  0  0  0
 31 33  2  0  0  0  0
 32 31  1  0  0  0  0
 34 29  2  0  0  0  0
 35 36  1  0  0  0  0
 36 41  1  0  0  0  0
 37 39  1  0  0  0  0
 39 38  2  0  0  0  0
 39 42  1  0  0  0  0
 40 41  1  0  0  0  0
 40 37  2  0  0  0  0
 41 43  2  0  0  0  0
 43 38  1  0  0  0  0
M  END
>  <MODEL>
6

>  <REMARK>
 VINA RESULT:      -7.7      1.767      3.143
  Name = 
  13 active torsions:
  status: ('A' for Active; 'I' for Inactive)
    1  A    between atoms: C_1  and  C_28
    2  A    between atoms: C_1  and  C_34
    3  A    between atoms: C_2  and  O_6
    4  A    between atoms: C_3  and  C_4
    5  A    between atoms: C_3  and  O_6
    6  A    between atoms: C_3  and  C_12
    7  A    between atoms: C_4  and  O_15
    8  A    between atoms: C_4  and  C_22
    9  A    between atoms: C_11  and  C_14
   10  A    between atoms: C_13  and  N_38
   11  A    between atoms: C_14  and  C_22
   12  A    between atoms: O_15  and  C_42
   13  A    between atoms: C_28  and  C_35
                            x       y       z     vdW  Elec       q    Type
                         _______ _______ _______ _____ _____    ______ ____

>  <TORSDO>
F 13

$$$$
=
 OpenBabel10262422303D

 43 48  0  0  1  0  0  0  0  0999 V2000
  182.7620  178.8080  143.3340 C   0  0  0  0  0  0  0  0  0  0  0  0
  187.7080  177.8910  143.4790 C   0  0  0  0  0  0  0  0  0  0  0  0
  185.0210  178.2290  144.0600 C   0  0  0  0  0  0  0  0  0  0  0  0
  183.1330  179.0320  142.0680 C   0  0  0  0  0  3  0  0  0  0  0  0
  181.0840  179.0210  143.7850 Cl  0  0  0  0  0  0  0  0  0  0  0  0
  185.4990  178.4650  142.6740 C   0  0  0  0  0  0  0  0  0  0  0  0
  183.7340  178.3900  144.3610 C   0  0  0  0  0  3  0  0  0  0  0  0
  184.5520  178.8760  141.5810 C   0  0  0  0  0  2  0  0  0  0  0  0
  187.5060  178.4200  141.2500 N   0  0  0  0  0  2  0  0  0  0  0  0
  186.8010  178.2850  142.4600 C   0  0  0  0  0  0  0  0  0  0  0  0
  187.3100  177.6570  144.7320 C   0  0  0  0  0  3  0  0  0  0  0  0
  189.0550  177.7740  142.8570 C   0  0  1  0  0  3  0  0  0  0  0  0
  188.8780  178.1200  141.4220 N   0  0  1  0  0  0  0  0  0  0  0  0
  185.9460  177.8310  145.0460 O   0  0  0  0  0  0  0  0  0  0  0  0
  189.8100  177.3230  139.3330 C   0  0  2  0  0  3  0  0  0  0  0  0
  190.6490  176.7550  140.4570 C   0  0  0  0  0  2  0  0  0  0  0  0
  189.1530  176.9210  140.6420 C   0  0  1  0  0  3  0  0  0  0  0  0
  189.5780  176.3320  138.3770 O   0  0  0  0  0  0  0  0  0  0  0  0
  190.2200  176.7930  137.2200 C   0  0  2  0  0  3  0  0  0  0  0  0
  189.2510  177.5580  136.3250 C   0  0  0  0  0  2  0  0  0  0  0  0
  187.9350  177.1450  136.5440 O   0  0  0  0  0  1  0  0  0  0  0  0
  190.9430  175.6610  136.4790 C   0  0  1  0  0  3  0  0  0  0  0  0
  190.4860  175.6010  135.1590 O   0  0  0  0  0  0  0  0  0  0  0  0
  189.9520  173.4720  136.0680 C   0  0  0  0  0  1  0  0  0  0  0  0
  190.4280  174.2400  134.8520 C   0  0  0  0  0  2  0  0  0  0  0  0
  192.4580  175.8530  136.4940 C   0  0  0  0  0  2  0  0  0  0  0  0
  193.0420  175.5890  137.8780 C   0  0  2  0  0  3  0  0  0  0  0  0
  193.5830  176.7700  138.3880 O   0  0  0  0  0  1  0  0  0  0  0  0
  194.0870  174.5190  137.8510 C   0  0  0  0  0  0  0  0  0  0  0  0
  194.9850  172.5050  136.8590 C   0  0  0  0  0  3  0  0  0  0  0  0
  196.0970  173.5390  138.7040 N   0  0  0  0  0  0  0  0  0  0  0  0
  196.0360  172.5450  137.7790 C   0  0  0  0  0  3  0  0  0  0  0  0
  195.1510  174.5160  138.7620 C   0  0  0  0  0  3  0  0  0  0  0  0
  194.0060  173.5000  136.9000 C   0  0  0  0  0  3  0  0  0  0  0  0
  190.0110  178.7650  143.5030 C   0  0  0  0  0  2  0  0  0  0  0  0
  191.3900  178.1430  143.6430 C   0  0  0  0  0  2  0  0  0  0  0  0
  190.9660  176.9150  147.2020 C   0  0  0  0  0  3  0  0  0  0  0  0
  192.1200  175.2120  145.9220 C   0  0  0  0  0  3  0  0  0  0  0  0
  191.5740  175.6570  147.1300 C   0  0  0  0  0  0  0  0  0  0  0  0
  190.8990  177.7240  146.0650 C   0  0  0  0  0  3  0  0  0  0  0  0
  191.4410  177.2780  144.8530 C   0  0  0  0  0  0  0  0  0  0  0  0
  191.6430  174.8760  148.2340 F   0  0  0  0  0  0  0  0  0  0  0  0
  192.0550  176.0220  144.7840 C   0  0  0  0  0  3  0  0  0  0  0  0
  1  5  1  0  0  0  0
  1  7  1  0  0  0  0
  2 11  2  0  0  0  0
  3  7  2  0  0  0  0
  3 14  1  0  0  0  0
  4  1  2  0  0  0  0
  6  3  1  0  0  0  0
  8  4  1  0  0  0  0
  8  6  1  0  0  0  0
  9 10  1  0  0  0  0
 10  6  2  0  0  0  0
 10  2  1  0  0  0  0
 11 14  1  0  0  0  0
 12  2  1  0  0  0  0
 12 35  1  1  0  0  0
 13  9  1  1  0  0  0
 13 12  1  0  0  0  0
 15 18  1  6  0  0  0
 15 16  1  0  0  0  0
 15 17  1  0  0  0  0
 17 16  1  1  0  0  0
 17 13  1  0  0  0  0
 19 20  1  6  0  0  0
 19 18  1  0  0  0  0
 20 21  1  0  0  0  0
 22 26  1  6  0  0  0
 22 19  1  0  0  0  0
 23 22  1  0  0  0  0
 25 23  1  0  0  0  0
 25 24  1  0  0  0  0
 26 27  1  0  0  0  0
 27 28  1  6  0  0  0
 29 27  1  0  0  0  0
 29 33  1  0  0  0  0
 30 34  1  0  0  0  0
 30 32  2  0  0  0  0
 31 33  2  0  0  0  0
 32 31  1  0  0  0  0
 34 29  2  0  0  0  0
 35 36  1  0  0  0  0
 36 41  1  0  0  0  0
 38 39  2  0  0  0  0
 39 37  1  0  0  0  0
 39 42  1  0  0  0  0
 40 37  2  0  0  0  0
 41 40  1  0  0  0  0
 43 41  2  0  0  0  0
 43 38  1  0  0  0  0
M  END
>  <MODEL>
7

>  <REMARK>
 VINA RESULT:      -7.6      3.761      8.827
  Name = 
  13 active torsions:
  status: ('A' for Active; 'I' for Inactive)
    1  A    between atoms: C_1  and  C_28
    2  A    between atoms: C_1  and  C_34
    3  A    between atoms: C_2  and  O_6
    4  A    between atoms: C_3  and  C_4
    5  A    between atoms: C_3  and  O_6
    6  A    between atoms: C_3  and  C_12
    7  A    between atoms: C_4  and  O_15
    8  A    between atoms: C_4  and  C_22
    9  A    between atoms: C_11  and  C_14
   10  A    between atoms: C_13  and  N_38
   11  A    between atoms: C_14  and  C_22
   12  A    between atoms: O_15  and  C_42
   13  A    between atoms: C_28  and  C_35
                            x       y       z     vdW  Elec       q    Type
                         _______ _______ _______ _____ _____    ______ ____

>  <TORSDO>
F 13

$$$$
=
 OpenBabel10262422303D

 43 48  0  0  1  0  0  0  0  0999 V2000
  187.2950  178.0400  147.3090 C   0  0  0  0  0  0  0  0  0  0  0  0
  184.3400  178.9420  143.3370 C   0  0  0  0  0  0  0  0  0  0  0  0
  185.4920  178.8090  145.8520 C   0  0  0  0  0  0  0  0  0  0  0  0
  187.9550  177.4330  146.3160 C   0  0  0  0  0  3  0  0  0  0  0  0
  187.9480  177.9830  148.9320 Cl  0  0  0  0  0  0  0  0  0  0  0  0
  186.1720  178.1530  144.7070 C   0  0  0  0  0  0  0  0  0  0  0  0
  186.0270  178.7540  147.0710 C   0  0  0  0  0  3  0  0  0  0  0  0
  187.4760  177.4250  144.8860 C   0  0  0  0  0  2  0  0  0  0  0  0
  186.0000  177.7470  142.2860 N   0  0  0  0  0  2  0  0  0  0  0  0
  185.5670  178.2530  143.5250 C   0  0  0  0  0  0  0  0  0  0  0  0
  183.7080  179.5550  144.3410 C   0  0  0  0  0  3  0  0  0  0  0  0
  183.9960  178.8550  141.8920 C   0  0  1  0  0  3  0  0  0  0  0  0
  185.0930  178.0810  141.2520 N   0  0  1  0  0  0  0  0  0  0  0  0
  184.2790  179.4910  145.6300 O   0  0  0  0  0  0  0  0  0  0  0  0
  186.7440  178.1650  139.4820 C   0  0  2  0  0  3  0  0  0  0  0  0
  185.4310  178.6480  138.9080 C   0  0  0  0  0  2  0  0  0  0  0  0
  185.7940  178.9770  140.3430 C   0  0  1  0  0  3  0  0  0  0  0  0
  187.7800  178.9870  139.0350 O   0  0  0  0  0  0  0  0  0  0  0  0
  188.6200  178.1390  138.3020 C   0  0  2  0  0  3  0  0  0  0  0  0
  187.8260  177.3270  137.2840 C   0  0  0  0  0  2  0  0  0  0  0  0
  188.2320  177.6240  135.9810 O   0  0  0  0  0  1  0  0  0  0  0  0
  189.4830  177.2600  139.2160 C   0  0  1  0  0  3  0  0  0  0  0  0
  190.7830  177.1910  138.7060 O   0  0  0  0  0  0  0  0  0  0  0  0
  192.4000  175.6320  137.9320 C   0  0  0  0  0  1  0  0  0  0  0  0
  190.9520  175.8610  138.3130 C   0  0  0  0  0  2  0  0  0  0  0  0
  189.5150  177.7930  140.6470 C   0  0  0  0  0  2  0  0  0  0  0  0
  189.8380  176.6900  141.6490 C   0  0  2  0  0  3  0  0  0  0  0  0
  188.6660  176.0130  141.9900 O   0  0  0  0  0  1  0  0  0  0  0  0
  190.4930  177.2270  142.8810 C   0  0  0  0  0  0  0  0  0  0  0  0
  191.2370  179.1160  144.1950 C   0  0  0  0  0  3  0  0  0  0  0  0
  191.5460  176.8900  145.0050 N   0  0  0  0  0  0  0  0  0  0  0  0
  191.6870  178.2310  145.1770 C   0  0  0  0  0  3  0  0  0  0  0  0
  190.9680  176.3730  143.8860 C   0  0  0  0  0  3  0  0  0  0  0  0
  190.6390  178.6060  143.0410 C   0  0  0  0  0  3  0  0  0  0  0  0
  182.6810  178.1120  141.7160 C   0  0  0  0  0  2  0  0  0  0  0  0
  182.3160  178.0390  140.2430 C   0  0  0  0  0  2  0  0  0  0  0  0
  181.5050  181.2840  138.4640 C   0  0  0  0  0  3  0  0  0  0  0  0
  179.7550  180.8190  140.0730 C   0  0  0  0  0  3  0  0  0  0  0  0
  180.3010  181.6390  139.0800 C   0  0  0  0  0  0  0  0  0  0  0  0
  182.1610  180.1080  138.8370 C   0  0  0  0  0  3  0  0  0  0  0  0
  181.6130  179.2830  139.8280 C   0  0  0  0  0  0  0  0  0  0  0  0
  179.6690  182.7810  138.7210 F   0  0  0  0  0  0  0  0  0  0  0  0
  180.4110  179.6430  140.4480 C   0  0  0  0  0  3  0  0  0  0  0  0
  1  5  1  0  0  0  0
  2 10  1  0  0  0  0
  2 11  2  0  0  0  0
  3  7  2  0  0  0  0
  4  1  2  0  0  0  0
  6  8  1  0  0  0  0
  6  3  1  0  0  0  0
  7  1  1  0  0  0  0
  8  4  1  0  0  0  0
  9 10  1  0  0  0  0
 10  6  2  0  0  0  0
 11 14  1  0  0  0  0
 12 35  1  1  0  0  0
 12  2  1  0  0  0  0
 13 12  1  0  0  0  0
 13  9  1  1  0  0  0
 14  3  1  0  0  0  0
 15 18  1  6  0  0  0
 15 17  1  0  0  0  0
 16 15  1  0  0  0  0
 17 16  1  6  0  0  0
 17 13  1  0  0  0  0
 19 20  1  6  0  0  0
 19 18  1  0  0  0  0
 19 22  1  0  0  0  0
 21 20  1  0  0  0  0
 22 26  1  1  0  0  0
 23 22  1  0  0  0  0
 24 25  1  0  0  0  0
 25 23  1  0  0  0  0
 26 27  1  0  0  0  0
 27 28  1  1  0  0  0
 27 29  1  0  0  0  0
 29 34  2  0  0  0  0
 29 33  1  0  0  0  0
 30 32  2  0  0  0  0
 31 32  1  0  0  0  0
 33 31  2  0  0  0  0
 34 30  1  0  0  0  0
 36 35  1  0  0  0  0
 37 40  2  0  0  0  0
 37 39  1  0  0  0  0
 38 43  1  0  0  0  0
 39 38  2  0  0  0  0
 40 41  1  0  0  0  0
 41 36  1  0  0  0  0
 41 43  2  0  0  0  0
 42 39  1  0  0  0  0
M  END
>  <MODEL>
8

>  <REMARK>
 VINA RESULT:      -7.5      3.862      8.693
  Name = 
  13 active torsions:
  status: ('A' for Active; 'I' for Inactive)
    1  A    between atoms: C_1  and  C_28
    2  A    between atoms: C_1  and  C_34
    3  A    between atoms: C_2  and  O_6
    4  A    between atoms: C_3  and  C_4
    5  A    between atoms: C_3  and  O_6
    6  A    between atoms: C_3  and  C_12
    7  A    between atoms: C_4  and  O_15
    8  A    between atoms: C_4  and  C_22
    9  A    between atoms: C_11  and  C_14
   10  A    between atoms: C_13  and  N_38
   11  A    between atoms: C_14  and  C_22
   12  A    between atoms: O_15  and  C_42
   13  A    between atoms: C_28  and  C_35
                            x       y       z     vdW  Elec       q    Type
                         _______ _______ _______ _____ _____    ______ ____

>  <TORSDO>
F 13

$$$$
=
 OpenBabel10262422303D

 43 48  0  0  1  0  0  0  0  0999 V2000
  182.7970  178.8280  143.5490 C   0  0  0  0  0  0  0  0  0  0  0  0
  187.7400  177.8880  143.5570 C   0  0  0  0  0  0  0  0  0  0  0  0
  185.0700  178.2280  144.2100 C   0  0  0  0  0  0  0  0  0  0  0  0
  183.1380  179.0720  142.2780 C   0  0  0  0  0  3  0  0  0  0  0  0
  181.1310  179.0410  144.0440 Cl  0  0  0  0  0  0  0  0  0  0  0  0
  185.5150  178.4850  142.8160 C   0  0  0  0  0  0  0  0  0  0  0  0
  183.7910  178.3900  144.5450 C   0  0  0  0  0  3  0  0  0  0  0  0
  184.5430  178.9180  141.7530 C   0  0  0  0  0  2  0  0  0  0  0  0
  187.4860  178.4550  141.3430 N   0  0  0  0  0  2  0  0  0  0  0  0
  186.8100  178.3030  142.5670 C   0  0  0  0  0  0  0  0  0  0  0  0
  187.3730  177.6360  144.8160 C   0  0  0  0  0  3  0  0  0  0  0  0
  189.0710  177.7760  142.9010 C   0  0  1  0  0  3  0  0  0  0  0  0
  188.8600  178.1460  141.4760 N   0  0  1  0  0  0  0  0  0  0  0  0
  186.0170  177.8100  145.1660 O   0  0  0  0  0  0  0  0  0  0  0  0
  189.5740  177.3880  139.2890 C   0  0  2  0  0  3  0  0  0  0  0  0
  190.5800  176.8850  140.3000 C   0  0  0  0  0  2  0  0  0  0  0  0
  189.1110  176.9600  140.6690 C   0  0  1  0  0  3  0  0  0  0  0  0
  189.2870  176.3750  138.3710 O   0  0  0  0  0  0  0  0  0  0  0  0
  189.9780  176.7390  137.2080 C   0  0  2  0  0  3  0  0  0  0  0  0
  189.1800  177.7500  136.3900 C   0  0  0  0  0  2  0  0  0  0  0  0
  189.4680  177.6300  135.0290 O   0  0  0  0  0  1  0  0  0  0  0  0
  190.4000  175.5140  136.3870 C   0  0  1  0  0  3  0  0  0  0  0  0
  191.7920  175.3880  136.4180 O   0  0  0  0  0  0  0  0  0  0  0  0
  193.2760  173.6020  136.9190 C   0  0  0  0  0  1  0  0  0  0  0  0
  192.0480  174.3770  137.3470 C   0  0  0  0  0  2  0  0  0  0  0  0
  189.7520  174.2340  136.9090 C   0  0  0  0  0  2  0  0  0  0  0  0
  188.6990  173.7040  135.9420 C   0  0  2  0  0  3  0  0  0  0  0  0
  188.7630  174.4200  134.7460 O   0  0  0  0  0  1  0  0  0  0  0  0
  187.3190  173.7900  136.5130 C   0  0  0  0  0  0  0  0  0  0  0  0
  185.4460  172.7260  137.6120 C   0  0  0  0  0  3  0  0  0  0  0  0
  185.3530  175.0460  137.0480 N   0  0  0  0  0  0  0  0  0  0  0  0
  184.7690  173.9480  137.5960 C   0  0  0  0  0  3  0  0  0  0  0  0
  186.6010  174.9930  136.5070 C   0  0  0  0  0  3  0  0  0  0  0  0
  186.7280  172.6520  137.0650 C   0  0  0  0  0  3  0  0  0  0  0  0
  190.0470  178.7520  143.5390 C   0  0  0  0  0  2  0  0  0  0  0  0
  191.4210  178.1140  143.6560 C   0  0  0  0  0  2  0  0  0  0  0  0
  192.0790  175.1630  145.9400 C   0  0  0  0  0  3  0  0  0  0  0  0
  191.0140  176.9210  147.2240 C   0  0  0  0  0  3  0  0  0  0  0  0
  191.5690  175.6390  147.1530 C   0  0  0  0  0  0  0  0  0  0  0  0
  192.0370  175.9710  144.8000 C   0  0  0  0  0  3  0  0  0  0  0  0
  191.4850  177.2570  144.8700 C   0  0  0  0  0  0  0  0  0  0  0  0
  191.6060  174.8550  148.2550 F   0  0  0  0  0  0  0  0  0  0  0  0
  190.9700  177.7290  146.0830 C   0  0  0  0  0  3  0  0  0  0  0  0
  1  5  1  0  0  0  0
  1  7  1  0  0  0  0
  2 11  2  0  0  0  0
  3  7  2  0  0  0  0
  3 14  1  0  0  0  0
  4  1  2  0  0  0  0
  6  3  1  0  0  0  0
  8  4  1  0  0  0  0
  8  6  1  0  0  0  0
  9 10  1  0  0  0  0
 10  6  2  0  0  0  0
 10  2  1  0  0  0  0
 11 14  1  0  0  0  0
 12 35  1  1  0  0  0
 12  2  1  0  0  0  0
 13  9  1  1  0  0  0
 13 12  1  0  0  0  0
 15 18  1  6  0  0  0
 15 16  1  0  0  0  0
 15 17  1  0  0  0  0
 17 16  1  1  0  0  0
 17 13  1  0  0  0  0
 19 20  1  6  0  0  0
 19 18  1  0  0  0  0
 21 20  1  0  0  0  0
 22 23  1  0  0  0  0
 22 26  1  1  0  0  0
 22 19  1  0  0  0  0
 23 25  1  0  0  0  0
 24 25  1  0  0  0  0
 27 28  1  6  0  0  0
 27 29  1  0  0  0  0
 27 26  1  0  0  0  0
 29 34  1  0  0  0  0
 31 32  2  0  0  0  0
 32 30  1  0  0  0  0
 33 29  2  0  0  0  0
 33 31  1  0  0  0  0
 34 30  2  0  0  0  0
 35 36  1  0  0  0  0
 36 41  1  0  0  0  0
 37 39  1  0  0  0  0
 39 38  2  0  0  0  0
 39 42  1  0  0  0  0
 40 41  1  0  0  0  0
 40 37  2  0  0  0  0
 41 43  2  0  0  0  0
 43 38  1  0  0  0  0
M  END
>  <MODEL>
9

>  <REMARK>
 VINA RESULT:      -7.5      3.882      7.644
  Name = 
  13 active torsions:
  status: ('A' for Active; 'I' for Inactive)
    1  A    between atoms: C_1  and  C_28
    2  A    between atoms: C_1  and  C_34
    3  A    between atoms: C_2  and  O_6
    4  A    between atoms: C_3  and  C_4
    5  A    between atoms: C_3  and  O_6
    6  A    between atoms: C_3  and  C_12
    7  A    between atoms: C_4  and  O_15
    8  A    between atoms: C_4  and  C_22
    9  A    between atoms: C_11  and  C_14
   10  A    between atoms: C_13  and  N_38
   11  A    between atoms: C_14  and  C_22
   12  A    between atoms: O_15  and  C_42
   13  A    between atoms: C_28  and  C_35
                            x       y       z     vdW  Elec       q    Type
                         _______ _______ _______ _____ _____    ______ ____

>  <TORSDO>
F 13

$$$$
