=
 OpenBabel10262423233D

 34 37  0  0  0  0  0  0  0  0999 V2000
  186.9040  177.7280  144.7630 C   0  0  0  0  0  0  0  0  0  0  0  0
  183.5150  179.0960  144.0790 C   0  0  0  0  0  3  0  0  0  0  0  0
  184.8650  179.1370  146.0400 N   0  0  0  0  0  0  0  0  0  0  0  0
  189.1560  176.8090  144.2510 C   0  0  0  0  0  0  0  0  0  0  0  0
  187.8730  176.9160  144.0770 N   0  0  0  0  0  0  0  0  0  0  0  0
  189.5150  178.0150  146.3990 C   0  0  0  0  0  3  0  0  0  0  0  0
  188.0790  177.6350  148.3390 C   0  0  0  0  0  1  0  0  0  0  0  0
  189.9380  177.5890  145.2160 C   0  0  0  0  0  3  0  0  0  0  0  0
  185.9930  178.8260  146.7240 C   0  0  0  0  0  3  0  0  0  0  0  0
  187.0400  178.1150  146.1150 C   0  0  0  0  0  0  0  0  0  0  0  0
  188.1990  177.7880  146.8970 N   0  0  0  0  0  0  0  0  0  0  0  0
  183.3300  178.7080  142.7490 C   0  0  0  0  0  0  0  0  0  0  0  0
  184.3320  178.0010  142.0810 C   0  0  0  0  0  3  0  0  0  0  0  0
  184.6990  178.7710  144.7460 C   0  0  0  0  0  0  0  0  0  0  0  0
  185.5170  177.6710  142.7430 C   0  0  0  0  0  3  0  0  0  0  0  0
  185.7150  178.0510  144.0800 C   0  0  0  0  0  0  0  0  0  0  0  0
  190.0650  175.7340  143.1490 S   0  0  0  0  0  0  0  0  0  0  0  0
  188.4330  178.4990  140.7390 C   0  0  0  0  0  3  0  0  0  0  0  0
  190.4160  176.5750  140.5380 C   0  0  0  0  0  3  0  0  0  0  0  0
  189.1220  178.3520  139.5310 C   0  0  0  0  0  0  0  0  0  0  0  0
  190.1220  177.3740  139.4240 C   0  0  0  0  0  0  0  0  0  0  0  0
  189.7070  176.7560  141.7260 C   0  0  0  0  0  0  0  0  0  0  0  0
  188.7370  177.7070  141.8010 N   0  0  0  0  0  0  0  0  0  0  0  0
  190.8040  177.2100  138.2120 O   0  0  0  0  0  0  0  0  0  0  0  0
  192.0080  176.4640  138.1040 C   0  0  0  0  0  1  0  0  0  0  0  0
  188.7560  179.2100  138.3680 C   0  0  0  0  0  2  0  0  0  0  0  0
  187.9970  178.4310  137.4030 N   0  0  0  0  0  2  0  0  0  0  0  0
  186.5790  178.3040  137.4840 C   0  0  0  0  0  0  0  0  0  0  0  0
  185.8570  177.4760  136.4830 C   0  0  0  0  0  1  0  0  0  0  0  0
  185.9310  178.8930  138.3880 O   0  0  0  0  0  0  0  0  0  0  0  0
  182.0720  179.0710  142.0370 C   0  0  0  0  0  2  0  0  0  0  0  0
  180.7530  177.6260  140.7640 C   0  0  0  0  0  1  0  0  0  0  0  0
  181.8730  179.3900  139.7390 C   0  0  0  0  0  1  0  0  0  0  0  0
  181.9980  178.3720  140.7650 N   0  0  0  0  0  0  0  0  0  0  0  0
  1 10  1  0  0  0  0
  2 14  1  0  0  0  0
  3  9  1  0  0  0  0
  4  8  1  0  0  0  0
  5  4  2  0  0  0  0
  5  1  1  0  0  0  0
  6 11  1  0  0  0  0
  8  6  2  0  0  0  0
 10  9  2  0  0  0  0
 10 11  1  0  0  0  0
 11  7  1  0  0  0  0
 12  2  2  0  0  0  0
 13 15  2  0  0  0  0
 13 12  1  0  0  0  0
 14  3  2  0  0  0  0
 15 16  1  0  0  0  0
 16 14  1  0  0  0  0
 16  1  2  0  0  0  0
 17  4  1  0  0  0  0
 18 23  1  0  0  0  0
 19 22  1  0  0  0  0
 20 18  2  0  0  0  0
 21 20  1  0  0  0  0
 21 19  2  0  0  0  0
 22 23  2  0  0  0  0
 22 17  1  0  0  0  0
 24 21  1  0  0  0  0
 25 24  1  0  0  0  0
 26 20  1  0  0  0  0
 27 28  1  0  0  0  0
 27 26  1  0  0  0  0
 28 30  2  0  0  0  0
 29 28  1  0  0  0  0
 31 12  1  0  0  0  0
 32 34  1  0  0  0  0
 33 34  1  0  0  0  0
 34 31  1  0  0  0  0
M  END
>  <MODEL>
1

>  <REMARK>
 VINA RESULT:      -9.0      0.000      0.000
  Name = 
  7 active torsions:
  status: ('A' for Active; 'I' for Inactive)
    1  A    between atoms: N_7  and  C_14
    2  A    between atoms: C_8  and  S_18
    3  A    between atoms: C_14  and  C_16
    4  A    between atoms: S_18  and  C_30
    5  A    between atoms: C_23  and  N_24
    6  A    between atoms: C_23  and  C_25
    7  A    between atoms: O_26  and  C_28
                            x       y       z     vdW  Elec       q    Type
                         _______ _______ _______ _____ _____    ______ ____

>  <TORSDO>
F 7

$$$$
=
 OpenBabel10262423233D

 34 37  0  0  0  0  0  0  0  0999 V2000
  186.8260  177.7480  144.8620 C   0  0  0  0  0  0  0  0  0  0  0  0
  183.4250  179.1540  144.3380 C   0  0  0  0  0  3  0  0  0  0  0  0
  184.9000  179.2520  146.2040 N   0  0  0  0  0  0  0  0  0  0  0  0
  189.0230  176.7620  144.2470 C   0  0  0  0  0  0  0  0  0  0  0  0
  187.7340  176.8880  144.1520 N   0  0  0  0  0  0  0  0  0  0  0  0
  189.5430  178.0510  146.3120 C   0  0  0  0  0  3  0  0  0  0  0  0
  188.2300  177.7840  148.3560 C   0  0  0  0  0  1  0  0  0  0  0  0
  189.8800  177.5660  145.1250 C   0  0  0  0  0  3  0  0  0  0  0  0
  186.0650  178.9470  146.8280 C   0  0  0  0  0  3  0  0  0  0  0  0
  187.0570  178.1890  146.1850 C   0  0  0  0  0  0  0  0  0  0  0  0
  188.2590  177.8730  146.9030 N   0  0  0  0  0  0  0  0  0  0  0  0
  183.1460  178.7140  143.0410 C   0  0  0  0  0  0  0  0  0  0  0  0
  184.0900  177.9590  142.3420 C   0  0  0  0  0  3  0  0  0  0  0  0
  184.6440  178.8340  144.9410 C   0  0  0  0  0  0  0  0  0  0  0  0
  185.3100  177.6330  142.9400 C   0  0  0  0  0  3  0  0  0  0  0  0
  185.6010  178.0650  144.2440 C   0  0  0  0  0  0  0  0  0  0  0  0
  189.8400  175.6220  143.1370 S   0  0  0  0  0  0  0  0  0  0  0  0
  190.3410  177.6170  139.6900 C   0  0  0  0  0  3  0  0  0  0  0  0
  188.3320  177.3360  141.5770 C   0  0  0  0  0  3  0  0  0  0  0  0
  189.1340  178.2990  139.5090 C   0  0  0  0  0  0  0  0  0  0  0  0
  188.1160  178.1640  140.4660 C   0  0  0  0  0  0  0  0  0  0  0  0
  189.5500  176.6710  141.7180 C   0  0  0  0  0  0  0  0  0  0  0  0
  190.5230  176.8250  140.7790 N   0  0  0  0  0  0  0  0  0  0  0  0
  186.9120  178.8570  140.3000 O   0  0  0  0  0  0  0  0  0  0  0  0
  185.9130  178.4520  139.3750 C   0  0  0  0  0  1  0  0  0  0  0  0
  188.9620  179.1870  138.3230 C   0  0  0  0  0  2  0  0  0  0  0  0
  189.4100  178.4950  137.1250 N   0  0  0  0  0  2  0  0  0  0  0  0
  188.5110  178.1350  136.0790 C   0  0  0  0  0  0  0  0  0  0  0  0
  189.0220  177.4100  134.8870 C   0  0  0  0  0  1  0  0  0  0  0  0
  187.2890  178.4330  136.1510 O   0  0  0  0  0  0  0  0  0  0  0  0
  181.8520  179.0720  142.3960 C   0  0  0  0  0  2  0  0  0  0  0  0
  179.9430  180.3570  142.7830 C   0  0  0  0  0  1  0  0  0  0  0  0
  180.1200  178.2270  143.7040 C   0  0  0  0  0  1  0  0  0  0  0  0
  180.8720  179.4320  143.4060 N   0  0  0  0  0  0  0  0  0  0  0  0
  1 10  1  0  0  0  0
  2 14  1  0  0  0  0
  3  9  1  0  0  0  0
  4  8  1  0  0  0  0
  5  4  2  0  0  0  0
  5  1  1  0  0  0  0
  6 11  1  0  0  0  0
  8  6  2  0  0  0  0
 10  9  2  0  0  0  0
 10 11  1  0  0  0  0
 11  7  1  0  0  0  0
 12  2  2  0  0  0  0
 13 15  2  0  0  0  0
 13 12  1  0  0  0  0
 14  3  2  0  0  0  0
 15 16  1  0  0  0  0
 16  1  2  0  0  0  0
 16 14  1  0  0  0  0
 17  4  1  0  0  0  0
 18 23  1  0  0  0  0
 19 22  1  0  0  0  0
 20 18  2  0  0  0  0
 20 21  1  0  0  0  0
 21 19  2  0  0  0  0
 22 17  1  0  0  0  0
 23 22  2  0  0  0  0
 24 21  1  0  0  0  0
 25 24  1  0  0  0  0
 26 20  1  0  0  0  0
 27 26  1  0  0  0  0
 28 30  2  0  0  0  0
 28 27  1  0  0  0  0
 29 28  1  0  0  0  0
 31 12  1  0  0  0  0
 31 34  1  0  0  0  0
 32 34  1  0  0  0  0
 34 33  1  0  0  0  0
M  END
>  <MODEL>
2

>  <REMARK>
 VINA RESULT:      -8.6      1.474      2.151
  Name = 
  7 active torsions:
  status: ('A' for Active; 'I' for Inactive)
    1  A    between atoms: N_7  and  C_14
    2  A    between atoms: C_8  and  S_18
    3  A    between atoms: C_14  and  C_16
    4  A    between atoms: S_18  and  C_30
    5  A    between atoms: C_23  and  N_24
    6  A    between atoms: C_23  and  C_25
    7  A    between atoms: O_26  and  C_28
                            x       y       z     vdW  Elec       q    Type
                         _______ _______ _______ _____ _____    ______ ____

>  <TORSDO>
F 7

$$$$
=
 OpenBabel10262423233D

 34 37  0  0  0  0  0  0  0  0999 V2000
  188.0960  177.7610  142.5670 C   0  0  0  0  0  0  0  0  0  0  0  0
  190.6220  176.6830  140.0610 C   0  0  0  0  0  3  0  0  0  0  0  0
  190.5780  176.4980  142.4340 N   0  0  0  0  0  0  0  0  0  0  0  0
  185.8850  178.5040  143.4250 C   0  0  0  0  0  0  0  0  0  0  0  0
  186.8650  178.5040  142.5730 N   0  0  0  0  0  0  0  0  0  0  0  0
  186.8370  177.2350  145.3440 C   0  0  0  0  0  3  0  0  0  0  0  0
  189.0790  177.6950  146.2010 C   0  0  0  0  0  1  0  0  0  0  0  0
  185.8100  177.6460  144.6130 C   0  0  0  0  0  3  0  0  0  0  0  0
  189.9970  176.7050  143.6410 C   0  0  0  0  0  3  0  0  0  0  0  0
  188.7490  177.3400  143.7470 C   0  0  0  0  0  0  0  0  0  0  0  0
  188.1940  177.5580  145.0530 N   0  0  0  0  0  0  0  0  0  0  0  0
  190.0220  177.1080  138.8720 C   0  0  0  0  0  0  0  0  0  0  0  0
  188.7790  177.7430  138.9040 C   0  0  0  0  0  3  0  0  0  0  0  0
  189.9840  176.9000  141.2840 C   0  0  0  0  0  0  0  0  0  0  0  0
  188.1370  177.9650  140.1250 C   0  0  0  0  0  3  0  0  0  0  0  0
  188.7300  177.5470  141.3270 C   0  0  0  0  0  0  0  0  0  0  0  0
  184.4590  179.5210  143.0670 S   0  0  0  0  0  0  0  0  0  0  0  0
  184.8150  179.0810  139.0930 C   0  0  0  0  0  3  0  0  0  0  0  0
  183.6000  177.7050  141.1680 C   0  0  0  0  0  3  0  0  0  0  0  0
  184.1070  177.9080  138.8120 C   0  0  0  0  0  0  0  0  0  0  0  0
  183.4850  177.2120  139.8600 C   0  0  0  0  0  0  0  0  0  0  0  0
  184.3180  178.8780  141.4040 C   0  0  0  0  0  0  0  0  0  0  0  0
  184.9060  179.5370  140.3700 N   0  0  0  0  0  0  0  0  0  0  0  0
  182.7610  176.0470  139.5840 O   0  0  0  0  0  0  0  0  0  0  0  0
  181.3430  175.9910  139.6470 C   0  0  0  0  0  1  0  0  0  0  0  0
  183.9950  177.4370  137.4020 C   0  0  0  0  0  2  0  0  0  0  0  0
  185.3170  177.1240  136.8830 N   0  0  0  0  0  2  0  0  0  0  0  0
  185.8310  175.7940  136.8790 C   0  0  0  0  0  0  0  0  0  0  0  0
  187.1970  175.5360  136.3570 C   0  0  0  0  0  1  0  0  0  0  0  0
  185.1350  174.8350  137.3060 O   0  0  0  0  0  0  0  0  0  0  0  0
  190.6990  176.8610  137.5670 C   0  0  0  0  0  2  0  0  0  0  0  0
  191.1710  174.7070  136.8040 C   0  0  0  0  0  1  0  0  0  0  0  0
  192.9010  176.2240  137.1540 C   0  0  0  0  0  1  0  0  0  0  0  0
  191.6360  175.7580  137.6910 N   0  0  0  0  0  0  0  0  0  0  0  0
  1  5  1  0  0  0  0
  1 10  1  0  0  0  0
  2 14  1  0  0  0  0
  3  9  1  0  0  0  0
  4  8  1  0  0  0  0
  5  4  2  0  0  0  0
  8  6  2  0  0  0  0
  9 10  2  0  0  0  0
 10 11  1  0  0  0  0
 11  6  1  0  0  0  0
 11  7  1  0  0  0  0
 12 13  1  0  0  0  0
 12  2  2  0  0  0  0
 13 15  2  0  0  0  0
 14 16  1  0  0  0  0
 14  3  2  0  0  0  0
 15 16  1  0  0  0  0
 16  1  2  0  0  0  0
 17  4  1  0  0  0  0
 18 23  1  0  0  0  0
 19 22  1  0  0  0  0
 20 18  2  0  0  0  0
 20 21  1  0  0  0  0
 21 19  2  0  0  0  0
 22 17  1  0  0  0  0
 23 22  2  0  0  0  0
 24 25  1  0  0  0  0
 24 21  1  0  0  0  0
 26 20  1  0  0  0  0
 27 26  1  0  0  0  0
 28 27  1  0  0  0  0
 28 30  2  0  0  0  0
 29 28  1  0  0  0  0
 31 34  1  0  0  0  0
 31 12  1  0  0  0  0
 32 34  1  0  0  0  0
 33 34  1  0  0  0  0
M  END
>  <MODEL>
3

>  <REMARK>
 VINA RESULT:      -8.4      2.478      6.318
  Name = 
  7 active torsions:
  status: ('A' for Active; 'I' for Inactive)
    1  A    between atoms: N_7  and  C_14
    2  A    between atoms: C_8  and  S_18
    3  A    between atoms: C_14  and  C_16
    4  A    between atoms: S_18  and  C_30
    5  A    between atoms: C_23  and  N_24
    6  A    between atoms: C_23  and  C_25
    7  A    between atoms: O_26  and  C_28
                            x       y       z     vdW  Elec       q    Type
                         _______ _______ _______ _____ _____    ______ ____

>  <TORSDO>
F 7

$$$$
=
 OpenBabel10262423233D

 34 37  0  0  0  0  0  0  0  0999 V2000
  184.5180  178.3330  139.1420 C   0  0  0  0  0  0  0  0  0  0  0  0
  183.6370  178.6920  142.7360 C   0  0  0  0  0  3  0  0  0  0  0  0
  182.3420  178.0160  140.8560 N   0  0  0  0  0  0  0  0  0  0  0  0
  185.9860  178.1110  137.1490 C   0  0  0  0  0  0  0  0  0  0  0  0
  185.6510  178.6100  138.3000 N   0  0  0  0  0  0  0  0  0  0  0  0
  183.9400  176.8580  136.4830 C   0  0  0  0  0  3  0  0  0  0  0  0
  181.7120  177.8440  136.6790 C   0  0  0  0  0  1  0  0  0  0  0  0
  185.2520  177.0500  136.4500 C   0  0  0  0  0  3  0  0  0  0  0  0
  182.1930  177.7650  139.5320 C   0  0  0  0  0  3  0  0  0  0  0  0
  183.2650  177.9160  138.6380 C   0  0  0  0  0  0  0  0  0  0  0  0
  183.0430  177.6640  137.2420 N   0  0  0  0  0  0  0  0  0  0  0  0
  184.8510  179.1320  143.2700 C   0  0  0  0  0  0  0  0  0  0  0  0
  185.9600  179.3000  142.4380 C   0  0  0  0  0  3  0  0  0  0  0  0
  183.5270  178.4270  141.3690 C   0  0  0  0  0  0  0  0  0  0  0  0
  185.8560  179.0400  141.0700 C   0  0  0  0  0  3  0  0  0  0  0  0
  184.6410  178.6020  140.5190 C   0  0  0  0  0  0  0  0  0  0  0  0
  187.5240  178.6510  136.4140 S   0  0  0  0  0  0  0  0  0  0  0  0
  189.2560  178.2770  140.0160 C   0  0  0  0  0  3  0  0  0  0  0  0
  189.2090  176.8390  137.6490 C   0  0  0  0  0  3  0  0  0  0  0  0
  189.9890  177.0890  139.9240 C   0  0  0  0  0  0  0  0  0  0  0  0
  189.9720  176.3620  138.7240 C   0  0  0  0  0  0  0  0  0  0  0  0
  188.4910  178.0280  137.7840 C   0  0  0  0  0  0  0  0  0  0  0  0
  188.5290  178.7170  138.9560 N   0  0  0  0  0  0  0  0  0  0  0  0
  190.7170  175.1810  138.6190 O   0  0  0  0  0  0  0  0  0  0  0  0
  191.6970  174.9790  137.6110 C   0  0  0  0  0  1  0  0  0  0  0  0
  190.8030  176.6350  141.0880 C   0  0  0  0  0  2  0  0  0  0  0  0
  190.8200  177.6720  142.1080 N   0  0  0  0  0  2  0  0  0  0  0  0
  190.3210  177.4450  143.4240 C   0  0  0  0  0  0  0  0  0  0  0  0
  190.3440  178.5480  144.4190 C   0  0  0  0  0  1  0  0  0  0  0  0
  189.8690  176.3170  143.7540 O   0  0  0  0  0  0  0  0  0  0  0  0
  184.9690  179.3980  144.7320 C   0  0  0  0  0  2  0  0  0  0  0  0
  186.7690  178.1480  145.5340 C   0  0  0  0  0  1  0  0  0  0  0  0
  184.8160  178.3160  146.7880 C   0  0  0  0  0  1  0  0  0  0  0  0
  185.3210  178.1760  145.4350 N   0  0  0  0  0  0  0  0  0  0  0  0
  1 16  1  0  0  0  0
  2 12  1  0  0  0  0
  3 14  1  0  0  0  0
  4  5  2  0  0  0  0
  5  1  1  0  0  0  0
  6 11  1  0  0  0  0
  7 11  1  0  0  0  0
  8  6  2  0  0  0  0
  8  4  1  0  0  0  0
  9  3  2  0  0  0  0
 10  1  2  0  0  0  0
 10  9  1  0  0  0  0
 11 10  1  0  0  0  0
 12 31  1  0  0  0  0
 13 12  2  0  0  0  0
 14  2  2  0  0  0  0
 15 13  1  0  0  0  0
 16 15  2  0  0  0  0
 16 14  1  0  0  0  0
 17  4  1  0  0  0  0
 17 22  1  0  0  0  0
 19 22  2  0  0  0  0
 19 21  1  0  0  0  0
 20 18  1  0  0  0  0
 20 26  1  0  0  0  0
 21 20  2  0  0  0  0
 22 23  1  0  0  0  0
 23 18  2  0  0  0  0
 24 21  1  0  0  0  0
 25 24  1  0  0  0  0
 26 27  1  0  0  0  0
 27 28  1  0  0  0  0
 28 30  2  0  0  0  0
 28 29  1  0  0  0  0
 31 34  1  0  0  0  0
 34 32  1  0  0  0  0
 34 33  1  0  0  0  0
M  END
>  <MODEL>
4

>  <REMARK>
 VINA RESULT:      -8.2      2.365      6.398
  Name = 
  7 active torsions:
  status: ('A' for Active; 'I' for Inactive)
    1  A    between atoms: N_7  and  C_14
    2  A    between atoms: C_8  and  S_18
    3  A    between atoms: C_14  and  C_16
    4  A    between atoms: S_18  and  C_30
    5  A    between atoms: C_23  and  N_24
    6  A    between atoms: C_23  and  C_25
    7  A    between atoms: O_26  and  C_28
                            x       y       z     vdW  Elec       q    Type
                         _______ _______ _______ _____ _____    ______ ____

>  <TORSDO>
F 7

$$$$
=
 OpenBabel10262423233D

 34 37  0  0  0  0  0  0  0  0999 V2000
  185.3830  178.5820  142.1800 C   0  0  0  0  0  0  0  0  0  0  0  0
  188.2870  177.8610  144.3860 C   0  0  0  0  0  3  0  0  0  0  0  0
  185.9580  178.0310  144.8510 N   0  0  0  0  0  0  0  0  0  0  0  0
  184.1190  178.8210  140.0530 C   0  0  0  0  0  0  0  0  0  0  0  0
  185.1670  178.9560  140.8080 N   0  0  0  0  0  0  0  0  0  0  0  0
  182.3570  178.1610  141.6840 C   0  0  0  0  0  3  0  0  0  0  0  0
  182.0740  179.3340  143.8100 C   0  0  0  0  0  1  0  0  0  0  0  0
  182.8720  178.1640  140.4620 C   0  0  0  0  0  3  0  0  0  0  0  0
  184.6740  178.2540  144.4750 C   0  0  0  0  0  3  0  0  0  0  0  0
  184.3470  178.5360  143.1390 C   0  0  0  0  0  0  0  0  0  0  0  0
  182.9750  178.7910  142.8030 N   0  0  0  0  0  0  0  0  0  0  0  0
  189.3430  177.9230  143.4730 C   0  0  0  0  0  0  0  0  0  0  0  0
  189.0890  178.1960  142.1280 C   0  0  0  0  0  3  0  0  0  0  0  0
  186.9750  178.0790  143.9570 C   0  0  0  0  0  0  0  0  0  0  0  0
  187.7800  178.4180  141.6930 C   0  0  0  0  0  3  0  0  0  0  0  0
  186.7100  178.3620  142.6000 C   0  0  0  0  0  0  0  0  0  0  0  0
  184.2370  179.3490  138.3490 S   0  0  0  0  0  0  0  0  0  0  0  0
  187.9300  177.8100  138.0240 C   0  0  0  0  0  3  0  0  0  0  0  0
  185.3460  176.9690  137.4830 C   0  0  0  0  0  3  0  0  0  0  0  0
  187.7240  176.5320  137.4950 C   0  0  0  0  0  0  0  0  0  0  0  0
  186.4170  176.1050  137.2140 C   0  0  0  0  0  0  0  0  0  0  0  0
  185.5950  178.2350  138.0140 C   0  0  0  0  0  0  0  0  0  0  0  0
  186.8720  178.6270  138.2710 N   0  0  0  0  0  0  0  0  0  0  0  0
  186.2060  174.8340  136.6680 O   0  0  0  0  0  0  0  0  0  0  0  0
  185.3690  173.8640  137.2820 C   0  0  0  0  0  1  0  0  0  0  0  0
  188.8980  175.6590  137.2050 C   0  0  0  0  0  2  0  0  0  0  0  0
  190.1280  176.3880  137.4700 N   0  0  0  0  0  2  0  0  0  0  0  0
  191.3280  175.7270  137.8630 C   0  0  0  0  0  0  0  0  0  0  0  0
  192.5500  176.5250  138.1420 C   0  0  0  0  0  1  0  0  0  0  0  0
  191.3660  174.4720  137.9680 O   0  0  0  0  0  0  0  0  0  0  0  0
  190.7390  177.6740  143.9320 C   0  0  0  0  0  2  0  0  0  0  0  0
  191.6800  175.5380  143.9680 C   0  0  0  0  0  1  0  0  0  0  0  0
  191.4720  176.7530  145.9420 C   0  0  0  0  0  1  0  0  0  0  0  0
  190.8020  176.4390  144.6940 N   0  0  0  0  0  0  0  0  0  0  0  0
  1 16  2  0  0  0  0
  1 10  1  0  0  0  0
  4  8  1  0  0  0  0
  4  5  2  0  0  0  0
  5  1  1  0  0  0  0
  6 11  1  0  0  0  0
  8  6  2  0  0  0  0
  9  3  1  0  0  0  0
 10  9  2  0  0  0  0
 11 10  1  0  0  0  0
 11  7  1  0  0  0  0
 12 31  1  0  0  0  0
 12  2  2  0  0  0  0
 13 12  1  0  0  0  0
 14  2  1  0  0  0  0
 14  3  2  0  0  0  0
 15 13  2  0  0  0  0
 15 16  1  0  0  0  0
 16 14  1  0  0  0  0
 17  4  1  0  0  0  0
 18 23  1  0  0  0  0
 19 22  1  0  0  0  0
 20 18  2  0  0  0  0
 21 19  2  0  0  0  0
 21 20  1  0  0  0  0
 22 23  2  0  0  0  0
 22 17  1  0  0  0  0
 24 21  1  0  0  0  0
 24 25  1  0  0  0  0
 26 27  1  0  0  0  0
 26 20  1  0  0  0  0
 27 28  1  0  0  0  0
 28 30  2  0  0  0  0
 28 29  1  0  0  0  0
 31 34  1  0  0  0  0
 32 34  1  0  0  0  0
 34 33  1  0  0  0  0
M  END
>  <MODEL>
5

>  <REMARK>
 VINA RESULT:      -7.9      2.532      6.254
  Name = 
  7 active torsions:
  status: ('A' for Active; 'I' for Inactive)
    1  A    between atoms: N_7  and  C_14
    2  A    between atoms: C_8  and  S_18
    3  A    between atoms: C_14  and  C_16
    4  A    between atoms: S_18  and  C_30
    5  A    between atoms: C_23  and  N_24
    6  A    between atoms: C_23  and  C_25
    7  A    between atoms: O_26  and  C_28
                            x       y       z     vdW  Elec       q    Type
                         _______ _______ _______ _____ _____    ______ ____

>  <TORSDO>
F 7

$$$$
=
 OpenBabel10262423233D

 34 37  0  0  0  0  0  0  0  0999 V2000
  185.5180  177.3920  137.5580 C   0  0  0  0  0  0  0  0  0  0  0  0
  181.8680  177.8340  138.1060 C   0  0  0  0  0  3  0  0  0  0  0  0
  183.0790  176.3850  136.6570 N   0  0  0  0  0  0  0  0  0  0  0  0
  187.9500  177.5660  138.0400 C   0  0  0  0  0  0  0  0  0  0  0  0
  186.7350  178.0220  137.9940 N   0  0  0  0  0  0  0  0  0  0  0  0
  187.7830  175.4480  136.7430 C   0  0  0  0  0  3  0  0  0  0  0  0
  186.6210  175.3480  134.5950 C   0  0  0  0  0  1  0  0  0  0  0  0
  188.3450  176.2000  137.6790 C   0  0  0  0  0  3  0  0  0  0  0  0
  184.2360  175.9050  136.1350 C   0  0  0  0  0  3  0  0  0  0  0  0
  185.4820  176.3910  136.5620 C   0  0  0  0  0  0  0  0  0  0  0  0
  186.6720  175.8660  135.9540 N   0  0  0  0  0  0  0  0  0  0  0  0
  181.8590  178.8430  139.0730 C   0  0  0  0  0  0  0  0  0  0  0  0
  183.0630  179.3690  139.5450 C   0  0  0  0  0  3  0  0  0  0  0  0
  183.0800  177.3530  137.6050 C   0  0  0  0  0  0  0  0  0  0  0  0
  184.2790  178.8940  139.0460 C   0  0  0  0  0  3  0  0  0  0  0  0
  184.3020  177.8840  138.0720 C   0  0  0  0  0  0  0  0  0  0  0  0
  189.2210  178.6260  138.7170 S   0  0  0  0  0  0  0  0  0  0  0  0
  187.5290  178.2820  142.3410 C   0  0  0  0  0  3  0  0  0  0  0  0
  189.6840  177.1570  141.0130 C   0  0  0  0  0  3  0  0  0  0  0  0
  188.3140  177.3310  142.9980 C   0  0  0  0  0  0  0  0  0  0  0  0
  189.4110  176.7640  142.3310 C   0  0  0  0  0  0  0  0  0  0  0  0
  188.8730  178.1080  140.3930 C   0  0  0  0  0  0  0  0  0  0  0  0
  187.8200  178.6480  141.0640 N   0  0  0  0  0  0  0  0  0  0  0  0
  190.2120  175.8240  142.9890 O   0  0  0  0  0  0  0  0  0  0  0  0
  191.4580  176.1590  143.5840 C   0  0  0  0  0  1  0  0  0  0  0  0
  187.9960  176.9630  144.4080 C   0  0  0  0  0  2  0  0  0  0  0  0
  186.7160  177.5370  144.7880 N   0  0  0  0  0  2  0  0  0  0  0  0
  186.4690  178.0290  146.1030 C   0  0  0  0  0  0  0  0  0  0  0  0
  185.1340  178.5860  146.4410 C   0  0  0  0  0  1  0  0  0  0  0  0
  187.3740  178.0050  146.9780 O   0  0  0  0  0  0  0  0  0  0  0  0
  180.5640  179.3410  139.6170 C   0  0  0  0  0  2  0  0  0  0  0  0
  179.7410  180.4230  141.5140 C   0  0  0  0  0  1  0  0  0  0  0  0
  179.9610  178.1060  141.4970 C   0  0  0  0  0  1  0  0  0  0  0  0
  180.5970  179.3380  141.0690 N   0  0  0  0  0  0  0  0  0  0  0  0
  1  5  1  0  0  0  0
  1 16  1  0  0  0  0
  2 12  1  0  0  0  0
  3 14  1  0  0  0  0
  4 17  1  0  0  0  0
  5  4  2  0  0  0  0
  6  8  2  0  0  0  0
  7 11  1  0  0  0  0
  8  4  1  0  0  0  0
  9 10  1  0  0  0  0
  9  3  2  0  0  0  0
 10  1  2  0  0  0  0
 11 10  1  0  0  0  0
 11  6  1  0  0  0  0
 12 13  2  0  0  0  0
 12 31  1  0  0  0  0
 14 16  1  0  0  0  0
 14  2  2  0  0  0  0
 15 13  1  0  0  0  0
 16 15  2  0  0  0  0
 17 22  1  0  0  0  0
 18 20  1  0  0  0  0
 19 21  1  0  0  0  0
 20 26  1  0  0  0  0
 21 24  1  0  0  0  0
 21 20  2  0  0  0  0
 22 19  2  0  0  0  0
 22 23  1  0  0  0  0
 23 18  2  0  0  0  0
 24 25  1  0  0  0  0
 26 27  1  0  0  0  0
 27 28  1  0  0  0  0
 28 29  1  0  0  0  0
 28 30  2  0  0  0  0
 31 34  1  0  0  0  0
 34 33  1  0  0  0  0
 34 32  1  0  0  0  0
M  END
>  <MODEL>
6

>  <REMARK>
 VINA RESULT:      -7.8      2.776      6.890
  Name = 
  7 active torsions:
  status: ('A' for Active; 'I' for Inactive)
    1  A    between atoms: N_7  and  C_14
    2  A    between atoms: C_8  and  S_18
    3  A    between atoms: C_14  and  C_16
    4  A    between atoms: S_18  and  C_30
    5  A    between atoms: C_23  and  N_24
    6  A    between atoms: C_23  and  C_25
    7  A    between atoms: O_26  and  C_28
                            x       y       z     vdW  Elec       q    Type
                         _______ _______ _______ _____ _____    ______ ____

>  <TORSDO>
F 7

$$$$
=
 OpenBabel10262423233D

 34 37  0  0  0  0  0  0  0  0999 V2000
  187.5930  177.8910  139.0110 C   0  0  0  0  0  0  0  0  0  0  0  0
  184.7260  179.0340  141.0840 C   0  0  0  0  0  3  0  0  0  0  0  0
  184.8580  178.3870  138.7960 N   0  0  0  0  0  0  0  0  0  0  0  0
  189.8610  177.0010  138.5200 C   0  0  0  0  0  0  0  0  0  0  0  0
  189.0160  177.7480  139.1630 N   0  0  0  0  0  0  0  0  0  0  0  0
  188.5060  176.1810  136.5990 C   0  0  0  0  0  3  0  0  0  0  0  0
  187.1020  177.6880  135.2830 C   0  0  0  0  0  1  0  0  0  0  0  0
  189.5010  176.0460  137.4660 C   0  0  0  0  0  3  0  0  0  0  0  0
  185.5480  177.9660  137.7080 C   0  0  0  0  0  3  0  0  0  0  0  0
  186.9270  177.7080  137.7780 C   0  0  0  0  0  0  0  0  0  0  0  0
  187.6120  177.2910  136.5870 N   0  0  0  0  0  0  0  0  0  0  0  0
  185.3520  179.2540  142.3140 C   0  0  0  0  0  0  0  0  0  0  0  0
  186.7210  179.0140  142.4540 C   0  0  0  0  0  3  0  0  0  0  0  0
  185.4690  178.5830  139.9900 C   0  0  0  0  0  0  0  0  0  0  0  0
  187.4690  178.5650  141.3630 C   0  0  0  0  0  3  0  0  0  0  0  0
  186.8540  178.3450  140.1210 C   0  0  0  0  0  0  0  0  0  0  0  0
  191.5720  177.0320  139.0360 S   0  0  0  0  0  0  0  0  0  0  0  0
  189.8600  175.9670  142.5070 C   0  0  0  0  0  3  0  0  0  0  0  0
  191.7230  177.8420  141.6760 C   0  0  0  0  0  3  0  0  0  0  0  0
  190.4280  176.8300  143.4500 C   0  0  0  0  0  0  0  0  0  0  0  0
  191.3670  177.7850  143.0310 C   0  0  0  0  0  0  0  0  0  0  0  0
  191.1340  176.9600  140.7690 C   0  0  0  0  0  0  0  0  0  0  0  0
  190.2220  176.0480  141.2000 N   0  0  0  0  0  0  0  0  0  0  0  0
  191.9260  178.6640  143.9660 O   0  0  0  0  0  0  0  0  0  0  0  0
  191.3040  179.8840  144.3410 C   0  0  0  0  0  1  0  0  0  0  0  0
  189.9990  176.7460  144.8760 C   0  0  0  0  0  2  0  0  0  0  0  0
  188.6670  177.3100  145.0210 N   0  0  0  0  0  2  0  0  0  0  0  0
  188.1540  177.7200  146.2860 C   0  0  0  0  0  0  0  0  0  0  0  0
  186.7770  178.2700  146.3780 C   0  0  0  0  0  1  0  0  0  0  0  0
  188.8600  177.6300  147.3250 O   0  0  0  0  0  0  0  0  0  0  0  0
  184.5530  179.7200  143.4830 C   0  0  0  0  0  2  0  0  0  0  0  0
  183.6870  178.6020  145.3390 C   0  0  0  0  0  1  0  0  0  0  0  0
  182.2900  179.1780  143.5700 C   0  0  0  0  0  1  0  0  0  0  0  0
  183.6170  178.6870  143.8920 N   0  0  0  0  0  0  0  0  0  0  0  0
  1  5  1  0  0  0  0
  1 16  1  0  0  0  0
  2 12  1  0  0  0  0
  3 14  1  0  0  0  0
  4 17  1  0  0  0  0
  4  5  2  0  0  0  0
  6  8  2  0  0  0  0
  7 11  1  0  0  0  0
  8  4  1  0  0  0  0
  9 10  1  0  0  0  0
  9  3  2  0  0  0  0
 10  1  2  0  0  0  0
 11  6  1  0  0  0  0
 11 10  1  0  0  0  0
 12 13  2  0  0  0  0
 12 31  1  0  0  0  0
 14 16  1  0  0  0  0
 14  2  2  0  0  0  0
 15 13  1  0  0  0  0
 16 15  2  0  0  0  0
 17 22  1  0  0  0  0
 18 20  1  0  0  0  0
 19 21  1  0  0  0  0
 20 26  1  0  0  0  0
 21 20  2  0  0  0  0
 21 24  1  0  0  0  0
 22 23  1  0  0  0  0
 22 19  2  0  0  0  0
 23 18  2  0  0  0  0
 24 25  1  0  0  0  0
 26 27  1  0  0  0  0
 27 28  1  0  0  0  0
 28 29  1  0  0  0  0
 28 30  2  0  0  0  0
 31 34  1  0  0  0  0
 33 34  1  0  0  0  0
 34 32  1  0  0  0  0
M  END
>  <MODEL>
7

>  <REMARK>
 VINA RESULT:      -7.8      2.699      6.465
  Name = 
  7 active torsions:
  status: ('A' for Active; 'I' for Inactive)
    1  A    between atoms: N_7  and  C_14
    2  A    between atoms: C_8  and  S_18
    3  A    between atoms: C_14  and  C_16
    4  A    between atoms: S_18  and  C_30
    5  A    between atoms: C_23  and  N_24
    6  A    between atoms: C_23  and  C_25
    7  A    between atoms: O_26  and  C_28
                            x       y       z     vdW  Elec       q    Type
                         _______ _______ _______ _____ _____    ______ ____

>  <TORSDO>
F 7

$$$$
=
 OpenBabel10262423233D

 34 37  0  0  0  0  0  0  0  0999 V2000
  185.6110  177.3160  137.3920 C   0  0  0  0  0  0  0  0  0  0  0  0
  181.9400  177.8840  137.5370 C   0  0  0  0  0  3  0  0  0  0  0  0
  183.2510  176.3720  136.2470 N   0  0  0  0  0  0  0  0  0  0  0  0
  187.9810  177.4200  138.1320 C   0  0  0  0  0  0  0  0  0  0  0  0
  186.7940  177.9140  137.9480 N   0  0  0  0  0  0  0  0  0  0  0  0
  187.8840  175.2860  136.8530 C   0  0  0  0  0  3  0  0  0  0  0  0
  186.9560  175.1860  134.5940 C   0  0  0  0  0  1  0  0  0  0  0  0
  188.3670  176.0360  137.8340 C   0  0  0  0  0  3  0  0  0  0  0  0
  184.4390  175.8470  135.8590 C   0  0  0  0  0  3  0  0  0  0  0  0
  185.6480  176.2990  136.4120 C   0  0  0  0  0  0  0  0  0  0  0  0
  186.8790  175.7260  135.9430 N   0  0  0  0  0  0  0  0  0  0  0  0
  181.8610  178.9100  138.4830 C   0  0  0  0  0  0  0  0  0  0  0  0
  183.0250  179.4040  139.0750 C   0  0  0  0  0  3  0  0  0  0  0  0
  183.1820  177.3560  137.1760 C   0  0  0  0  0  0  0  0  0  0  0  0
  184.2700  178.8820  138.7170 C   0  0  0  0  0  3  0  0  0  0  0  0
  184.3640  177.8550  137.7650 C   0  0  0  0  0  0  0  0  0  0  0  0
  189.2070  178.4510  138.9270 S   0  0  0  0  0  0  0  0  0  0  0  0
  188.8740  176.8770  142.6050 C   0  0  0  0  0  3  0  0  0  0  0  0
  187.3990  178.5990  141.0140 C   0  0  0  0  0  3  0  0  0  0  0  0
  187.6770  177.4060  143.0980 C   0  0  0  0  0  0  0  0  0  0  0  0
  186.9250  178.2730  142.2920 C   0  0  0  0  0  0  0  0  0  0  0  0
  188.6000  178.0510  140.5610 C   0  0  0  0  0  0  0  0  0  0  0  0
  189.3070  177.2070  141.3590 N   0  0  0  0  0  0  0  0  0  0  0  0
  185.7170  178.7930  142.7730 O   0  0  0  0  0  0  0  0  0  0  0  0
  184.4510  178.2740  142.3900 C   0  0  0  0  0  1  0  0  0  0  0  0
  187.2040  177.0100  144.4560 C   0  0  0  0  0  2  0  0  0  0  0  0
  188.3120  177.0600  145.3950 N   0  0  0  0  0  2  0  0  0  0  0  0
  188.1690  177.6040  146.7050 C   0  0  0  0  0  0  0  0  0  0  0  0
  189.3420  177.6490  147.6150 C   0  0  0  0  0  1  0  0  0  0  0  0
  187.0560  178.0400  147.1010 O   0  0  0  0  0  0  0  0  0  0  0  0
  180.5330  179.4580  138.8770 C   0  0  0  0  0  2  0  0  0  0  0  0
  179.6210  180.8800  140.4870 C   0  0  0  0  0  1  0  0  0  0  0  0
  179.8920  178.6160  140.9520 C   0  0  0  0  0  1  0  0  0  0  0  0
  180.5160  179.7530  140.2990 N   0  0  0  0  0  0  0  0  0  0  0  0
  1 16  1  0  0  0  0
  1  5  1  0  0  0  0
  2 12  1  0  0  0  0
  3 14  1  0  0  0  0
  4 17  1  0  0  0  0
  5  4  2  0  0  0  0
  6  8  2  0  0  0  0
  7 11  1  0  0  0  0
  8  4  1  0  0  0  0
  9  3  2  0  0  0  0
  9 10  1  0  0  0  0
 10  1  2  0  0  0  0
 11 10  1  0  0  0  0
 11  6  1  0  0  0  0
 12 31  1  0  0  0  0
 12 13  2  0  0  0  0
 14  2  2  0  0  0  0
 14 16  1  0  0  0  0
 15 13  1  0  0  0  0
 16 15  2  0  0  0  0
 17 22  1  0  0  0  0
 18 20  1  0  0  0  0
 19 21  1  0  0  0  0
 20 26  1  0  0  0  0
 21 24  1  0  0  0  0
 21 20  2  0  0  0  0
 22 19  2  0  0  0  0
 22 23  1  0  0  0  0
 23 18  2  0  0  0  0
 25 24  1  0  0  0  0
 26 27  1  0  0  0  0
 27 28  1  0  0  0  0
 28 30  2  0  0  0  0
 28 29  1  0  0  0  0
 31 34  1  0  0  0  0
 34 32  1  0  0  0  0
 34 33  1  0  0  0  0
M  END
>  <MODEL>
8

>  <REMARK>
 VINA RESULT:      -7.7      2.770      7.308
  Name = 
  7 active torsions:
  status: ('A' for Active; 'I' for Inactive)
    1  A    between atoms: N_7  and  C_14
    2  A    between atoms: C_8  and  S_18
    3  A    between atoms: C_14  and  C_16
    4  A    between atoms: S_18  and  C_30
    5  A    between atoms: C_23  and  N_24
    6  A    between atoms: C_23  and  C_25
    7  A    between atoms: O_26  and  C_28
                            x       y       z     vdW  Elec       q    Type
                         _______ _______ _______ _____ _____    ______ ____

>  <TORSDO>
F 7

$$$$
=
 OpenBabel10262423233D

 34 37  0  0  0  0  0  0  0  0999 V2000
  188.3260  177.7230  138.9770 C   0  0  0  0  0  0  0  0  0  0  0  0
  184.7310  178.6290  138.7060 C   0  0  0  0  0  3  0  0  0  0  0  0
  186.2620  177.7600  137.1030 N   0  0  0  0  0  0  0  0  0  0  0  0
  190.4720  177.1490  140.0920 C   0  0  0  0  0  0  0  0  0  0  0  0
  189.3690  177.8210  139.9630 N   0  0  0  0  0  0  0  0  0  0  0  0
  190.6140  175.9190  137.9320 C   0  0  0  0  0  3  0  0  0  0  0  0
  190.2150  177.0340  135.7930 C   0  0  0  0  0  1  0  0  0  0  0  0
  190.8820  176.0380  139.2250 C   0  0  0  0  0  3  0  0  0  0  0  0
  187.4950  177.3330  136.7330 C   0  0  0  0  0  3  0  0  0  0  0  0
  188.5590  177.3030  137.6480 C   0  0  0  0  0  0  0  0  0  0  0  0
  189.8490  176.8680  137.1920 N   0  0  0  0  0  0  0  0  0  0  0  0
  184.4660  179.0780  140.0030 C   0  0  0  0  0  0  0  0  0  0  0  0
  185.4790  179.0710  140.9650 C   0  0  0  0  0  3  0  0  0  0  0  0
  186.0100  178.1800  138.3670 C   0  0  0  0  0  0  0  0  0  0  0  0
  186.7600  178.6260  140.6310 C   0  0  0  0  0  3  0  0  0  0  0  0
  187.0410  178.1770  139.3310 C   0  0  0  0  0  0  0  0  0  0  0  0
  191.5120  177.5030  141.5030 S   0  0  0  0  0  0  0  0  0  0  0  0
  187.9320  176.6530  143.1080 C   0  0  0  0  0  3  0  0  0  0  0  0
  190.2370  177.9620  143.9140 C   0  0  0  0  0  3  0  0  0  0  0  0
  187.9890  177.2090  144.3900 C   0  0  0  0  0  0  0  0  0  0  0  0
  189.1530  177.8780  144.7990 C   0  0  0  0  0  0  0  0  0  0  0  0
  190.1390  177.3910  142.6440 C   0  0  0  0  0  0  0  0  0  0  0  0
  188.9970  176.7530  142.2700 N   0  0  0  0  0  0  0  0  0  0  0  0
  189.2110  178.4510  146.0740 O   0  0  0  0  0  0  0  0  0  0  0  0
  189.6710  177.7420  147.2150 C   0  0  0  0  0  1  0  0  0  0  0  0
  186.8010  177.1130  145.2860 C   0  0  0  0  0  2  0  0  0  0  0  0
  185.6650  177.7760  144.6660 N   0  0  0  0  0  2  0  0  0  0  0  0
  184.8070  178.6480  145.3980 C   0  0  0  0  0  0  0  0  0  0  0  0
  183.6480  179.2810  144.7170 C   0  0  0  0  0  1  0  0  0  0  0  0
  185.0270  178.8950  146.6130 O   0  0  0  0  0  0  0  0  0  0  0  0
  183.0970  179.5400  140.3650 C   0  0  0  0  0  2  0  0  0  0  0  0
  181.5270  178.5650  141.7900 C   0  0  0  0  0  1  0  0  0  0  0  0
  181.1960  178.5220  139.4870 C   0  0  0  0  0  1  0  0  0  0  0  0
  182.2090  178.4010  140.5190 N   0  0  0  0  0  0  0  0  0  0  0  0
  1 16  1  0  0  0  0
  1  5  1  0  0  0  0
  2 12  1  0  0  0  0
  3 14  1  0  0  0  0
  4 17  1  0  0  0  0
  5  4  2  0  0  0  0
  6  8  2  0  0  0  0
  7 11  1  0  0  0  0
  8  4  1  0  0  0  0
  9  3  2  0  0  0  0
  9 10  1  0  0  0  0
 10  1  2  0  0  0  0
 11 10  1  0  0  0  0
 11  6  1  0  0  0  0
 12 31  1  0  0  0  0
 12 13  2  0  0  0  0
 14  2  2  0  0  0  0
 14 16  1  0  0  0  0
 15 13  1  0  0  0  0
 16 15  2  0  0  0  0
 17 22  1  0  0  0  0
 18 20  1  0  0  0  0
 19 21  1  0  0  0  0
 20 21  2  0  0  0  0
 20 26  1  0  0  0  0
 21 24  1  0  0  0  0
 22 19  2  0  0  0  0
 23 22  1  0  0  0  0
 23 18  2  0  0  0  0
 24 25  1  0  0  0  0
 27 26  1  0  0  0  0
 27 28  1  0  0  0  0
 28 30  2  0  0  0  0
 29 28  1  0  0  0  0
 31 34  1  0  0  0  0
 33 34  1  0  0  0  0
 34 32  1  0  0  0  0
M  END
>  <MODEL>
9

>  <REMARK>
 VINA RESULT:      -7.7      2.541      6.439
  Name = 
  7 active torsions:
  status: ('A' for Active; 'I' for Inactive)
    1  A    between atoms: N_7  and  C_14
    2  A    between atoms: C_8  and  S_18
    3  A    between atoms: C_14  and  C_16
    4  A    between atoms: S_18  and  C_30
    5  A    between atoms: C_23  and  N_24
    6  A    between atoms: C_23  and  C_25
    7  A    between atoms: O_26  and  C_28
                            x       y       z     vdW  Elec       q    Type
                         _______ _______ _______ _____ _____    ______ ____

>  <TORSDO>
F 7

$$$$
