=
 OpenBabel10262422203D

 43 48  0  0  1  0  0  0  0  0999 V2000
  184.8760  178.6960  145.6810 C   0  0  0  0  0  0  0  0  0  0  0  0
  182.4380  178.6850  141.2540 C   0  0  0  0  0  0  0  0  0  0  0  0
  184.4390  178.1780  139.2660 C   0  0  0  0  0  0  0  0  0  0  0  0
  183.1760  178.7700  143.9550 C   0  0  0  0  0  0  0  0  0  0  0  0
  185.8660  178.5540  144.7040 C   0  0  0  0  0  3  0  0  0  0  0  0
  185.2130  178.7170  146.9890 F   0  0  0  0  0  0  0  0  0  0  0  0
  184.1740  178.6220  142.9620 C   0  0  0  0  0  0  0  0  0  0  0  0
  183.5330  178.8030  145.3060 C   0  0  0  0  0  3  0  0  0  0  0  0
  185.5180  178.5170  143.3520 C   0  0  0  0  0  3  0  0  0  0  0  0
  184.8040  178.4300  140.5300 C   0  0  0  0  0  3  0  0  0  0  0  0
  183.7990  178.5740  141.6060 C   0  0  0  0  0  0  0  0  0  0  0  0
  181.4670  178.8460  142.2460 C   0  0  0  0  0  3  0  0  0  0  0  0
  182.0350  178.7370  139.8040 C   0  0  2  0  0  3  0  0  0  0  0  0
  182.9900  177.9030  138.9390 C   0  0  0  0  0  2  0  0  0  0  0  0
  181.8330  178.8820  143.5910 C   0  0  0  0  0  3  0  0  0  0  0  0
  185.4570  178.0940  138.2070 C   0  0  0  0  0  0  0  0  0  0  0  0
  185.7410  176.8290  137.5900 N   0  0  0  0  0  2  0  0  0  0  0  0
  186.0670  179.1370  137.8460 O   0  0  0  0  0  0  0  0  0  0  0  0
  186.8520  176.5020  136.7400 C   0  0  0  0  0  0  0  0  0  0  0  0
  186.7730  176.6460  135.1090 S   0  0  0  0  0  0  0  0  0  0  0  0
  188.1360  176.0510  137.3510 C   0  0  2  0  0  3  0  0  0  0  0  0
  189.0130  177.2600  137.6780 C   0  0  0  0  0  2  0  0  0  0  0  0
  190.9340  175.5870  137.5540 C   0  0  0  0  0  2  0  0  0  0  0  0
  188.8190  175.1850  136.4800 O   0  0  0  0  0  0  0  0  0  0  0  0
  190.3520  176.8080  138.2760 C   0  0  2  0  0  3  0  0  0  0  0  0
  189.8330  174.5740  137.2390 C   0  0  0  0  0  2  0  0  0  0  0  0
  190.3020  176.6360  139.7960 C   0  0  0  0  0  2  0  0  0  0  0  0
  189.2390  177.5000  140.4630 C   0  0  0  0  0  2  0  0  0  0  0  0
  189.6070  177.7540  141.8460 N   0  0  0  0  0  0  0  0  0  0  0  0
  189.3150  176.8100  144.1150 C   0  0  0  0  0  2  0  0  0  0  0  0
  191.4220  177.3110  143.4740 C   0  0  0  0  0  2  0  0  0  0  0  0
  190.3660  177.7300  144.3060 O   0  0  0  0  0  0  0  0  0  0  0  0
  191.0240  177.4060  141.9900 C   0  0  0  0  0  2  0  0  0  0  0  0
  188.7920  176.8550  142.6680 C   0  0  0  0  0  2  0  0  0  0  0  0
  182.0400  180.0650  139.3600 O   0  0  0  0  0  0  0  0  0  0  0  0
  180.7000  182.4300  137.8130 N   0  0  0  0  0  0  0  0  0  0  0  0
  179.8880  181.0390  139.4640 C   0  0  0  0  0  2  0  0  0  0  0  0
  181.0950  181.0830  137.4400 C   0  0  0  0  0  2  0  0  0  0  0  0
  180.8490  180.2190  138.6450 C   0  0  1  0  0  3  0  0  0  0  0  0
  179.6640  182.2940  138.7560 N   0  0  0  0  0  2  0  0  0  0  0  0
  180.1240  183.0460  136.6290 C   0  0  0  0  0  2  0  0  0  0  0  0
  181.6660  184.8720  137.3280 C   0  0  0  0  0  1  0  0  0  0  0  0
  181.0050  184.1860  136.1460 C   0  0  0  0  0  2  0  0  0  0  0  0
  1  6  1  0  0  0  0
  2 11  2  0  0  0  0
  2 12  1  0  0  0  0
  3 10  2  0  0  0  0
  4  8  2  0  0  0  0
  5  1  2  0  0  0  0
  7  9  2  0  0  0  0
  7  4  1  0  0  0  0
  8  1  1  0  0  0  0
  9  5  1  0  0  0  0
 10 11  1  0  0  0  0
 11  7  1  0  0  0  0
 12 15  2  0  0  0  0
 13 35  1  6  0  0  0
 13  2  1  0  0  0  0
 14  3  1  0  0  0  0
 14 13  1  0  0  0  0
 15  4  1  0  0  0  0
 16  3  1  0  0  0  0
 17 16  1  0  0  0  0
 18 16  2  0  0  0  0
 19 17  1  0  0  0  0
 20 19  2  0  0  0  0
 21 19  1  6  0  0  0
 21 22  1  0  0  0  0
 22 25  1  0  0  0  0
 23 25  1  0  0  0  0
 24 26  1  0  0  0  0
 24 21  1  0  0  0  0
 25 27  1  1  0  0  0
 26 23  1  0  0  0  0
 27 28  1  0  0  0  0
 28 29  1  0  0  0  0
 29 33  1  0  0  0  0
 29 34  1  0  0  0  0
 30 32  1  0  0  0  0
 31 32  1  0  0  0  0
 33 31  1  0  0  0  0
 34 30  1  0  0  0  0
 36 40  1  0  0  0  0
 38 36  1  0  0  0  0
 38 39  1  0  0  0  0
 39 35  1  1  0  0  0
 39 37  1  0  0  0  0
 40 37  1  0  0  0  0
 41 36  1  0  0  0  0
 43 41  1  0  0  0  0
 43 42  1  0  0  0  0
M  END
>  <MODEL>
1

>  <REMARK>
 VINA RESULT:      -9.2      0.000      0.000
  Name = 
  10 active torsions:
  status: ('A' for Active; 'I' for Inactive)
    1  A    between atoms: O_1  and  C_34
    2  A    between atoms: O_1  and  C_35
    3  A    between atoms: C_2  and  C_13
    4  A    between atoms: C_3  and  C_12
    5  A    between atoms: N_6  and  C_12
    6  A    between atoms: C_9  and  N_19
    7  A    between atoms: C_9  and  C_37
    8  A    between atoms: N_11  and  C_14
    9  A    between atoms: C_14  and  C_41
   10  A    between atoms: C_22  and  C_41
                            x       y       z     vdW  Elec       q    Type
                         _______ _______ _______ _____ _____    ______ ____

>  <TORSDO>
F 10

$$$$
=
 OpenBabel10262422203D

 43 48  0  0  1  0  0  0  0  0999 V2000
  186.5530  178.2240  145.2850 C   0  0  0  0  0  0  0  0  0  0  0  0
  182.2540  178.7400  142.6800 C   0  0  0  0  0  0  0  0  0  0  0  0
  182.8180  177.7610  140.0460 C   0  0  0  0  0  0  0  0  0  0  0  0
  184.2640  178.6760  144.6280 C   0  0  0  0  0  0  0  0  0  0  0  0
  186.8580  177.8450  143.9740 C   0  0  0  0  0  3  0  0  0  0  0  0
  187.5060  178.1780  146.2410 F   0  0  0  0  0  0  0  0  0  0  0  0
  184.5660  178.2890  143.3010 C   0  0  0  0  0  0  0  0  0  0  0  0
  185.2580  178.6370  145.6110 C   0  0  0  0  0  3  0  0  0  0  0  0
  185.8700  177.8770  142.9870 C   0  0  0  0  0  3  0  0  0  0  0  0
  183.8170  177.9320  140.9210 C   0  0  0  0  0  3  0  0  0  0  0  0
  183.5520  178.3170  142.3240 C   0  0  0  0  0  0  0  0  0  0  0  0
  181.9770  179.1330  143.9920 C   0  0  0  0  0  3  0  0  0  0  0  0
  181.1880  178.8700  141.6240 C   0  0  2  0  0  3  0  0  0  0  0  0
  181.3830  177.8290  140.5140 C   0  0  0  0  0  2  0  0  0  0  0  0
  182.9760  179.0950  144.9640 C   0  0  0  0  0  3  0  0  0  0  0  0
  183.1160  177.4310  138.6430 C   0  0  0  0  0  0  0  0  0  0  0  0
  183.6340  176.1340  138.3100 N   0  0  0  0  0  2  0  0  0  0  0  0
  182.9050  178.2890  137.7440 O   0  0  0  0  0  0  0  0  0  0  0  0
  184.2140  175.7190  137.0630 C   0  0  0  0  0  0  0  0  0  0  0  0
  183.3490  174.9170  135.9240 S   0  0  0  0  0  0  0  0  0  0  0  0
  185.6370  176.0550  136.7670 C   0  0  2  0  0  3  0  0  0  0  0  0
  185.7110  177.3530  135.9610 C   0  0  0  0  0  2  0  0  0  0  0  0
  187.9740  176.4580  135.2000 C   0  0  0  0  0  2  0  0  0  0  0  0
  186.2520  175.0120  136.0540 O   0  0  0  0  0  0  0  0  0  0  0  0
  187.1680  177.6920  135.6200 C   0  0  2  0  0  3  0  0  0  0  0  0
  187.6340  175.2640  136.0920 C   0  0  0  0  0  2  0  0  0  0  0  0
  187.8620  178.5170  136.7080 C   0  0  0  0  0  2  0  0  0  0  0  0
  189.3220  178.1340  136.9120 C   0  0  0  0  0  2  0  0  0  0  0  0
  189.6420  178.1540  138.3290 N   0  0  0  0  0  0  0  0  0  0  0  0
  188.5800  177.8440  140.5440 C   0  0  0  0  0  2  0  0  0  0  0  0
  190.4750  176.6830  140.1410 C   0  0  0  0  0  2  0  0  0  0  0  0
  189.9530  177.7770  140.8580 O   0  0  0  0  0  0  0  0  0  0  0  0
  190.3860  176.9250  138.6240 C   0  0  0  0  0  2  0  0  0  0  0  0
  188.3650  178.1420  139.0490 C   0  0  0  0  0  2  0  0  0  0  0  0
  181.2260  180.1560  141.0700 O   0  0  0  0  0  0  0  0  0  0  0  0
  180.2480  182.2220  138.9350 N   0  0  0  0  0  0  0  0  0  0  0  0
  179.1310  181.1700  140.6570 C   0  0  0  0  0  2  0  0  0  0  0  0
  180.6340  180.8230  138.8750 C   0  0  0  0  0  2  0  0  0  0  0  0
  180.1670  180.1970  140.1600 C   0  0  1  0  0  3  0  0  0  0  0  0
  179.0750  182.2780  139.7100 N   0  0  0  0  0  2  0  0  0  0  0  0
  179.8890  182.6210  137.5840 C   0  0  0  0  0  2  0  0  0  0  0  0
  181.2130  184.4280  136.4980 C   0  0  0  0  0  1  0  0  0  0  0  0
  180.0450  184.1230  137.4190 C   0  0  0  0  0  2  0  0  0  0  0  0
  1  8  1  0  0  0  0
  1  6  1  0  0  0  0
  2 12  1  0  0  0  0
  3 14  1  0  0  0  0
  3 10  2  0  0  0  0
  4 15  1  0  0  0  0
  4  8  2  0  0  0  0
  5  1  2  0  0  0  0
  7  4  1  0  0  0  0
  9  7  2  0  0  0  0
  9  5  1  0  0  0  0
 10 11  1  0  0  0  0
 11  2  2  0  0  0  0
 11  7  1  0  0  0  0
 12 15  2  0  0  0  0
 13 35  1  6  0  0  0
 13  2  1  0  0  0  0
 14 13  1  0  0  0  0
 16  3  1  0  0  0  0
 17 16  1  0  0  0  0
 18 16  2  0  0  0  0
 19 17  1  0  0  0  0
 20 19  2  0  0  0  0
 21 19  1  6  0  0  0
 22 21  1  0  0  0  0
 23 25  1  0  0  0  0
 23 26  1  0  0  0  0
 24 26  1  0  0  0  0
 24 21  1  0  0  0  0
 25 22  1  0  0  0  0
 25 27  1  1  0  0  0
 27 28  1  0  0  0  0
 28 29  1  0  0  0  0
 29 33  1  0  0  0  0
 29 34  1  0  0  0  0
 30 32  1  0  0  0  0
 31 32  1  0  0  0  0
 33 31  1  0  0  0  0
 34 30  1  0  0  0  0
 36 40  1  0  0  0  0
 38 36  1  0  0  0  0
 38 39  1  0  0  0  0
 39 37  1  0  0  0  0
 39 35  1  1  0  0  0
 40 37  1  0  0  0  0
 41 36  1  0  0  0  0
 42 43  1  0  0  0  0
 43 41  1  0  0  0  0
M  END
>  <MODEL>
2

>  <REMARK>
 VINA RESULT:      -8.4      1.836      2.557
  Name = 
  10 active torsions:
  status: ('A' for Active; 'I' for Inactive)
    1  A    between atoms: O_1  and  C_34
    2  A    between atoms: O_1  and  C_35
    3  A    between atoms: C_2  and  C_13
    4  A    between atoms: C_3  and  C_12
    5  A    between atoms: N_6  and  C_12
    6  A    between atoms: C_9  and  N_19
    7  A    between atoms: C_9  and  C_37
    8  A    between atoms: N_11  and  C_14
    9  A    between atoms: C_14  and  C_41
   10  A    between atoms: C_22  and  C_41
                            x       y       z     vdW  Elec       q    Type
                         _______ _______ _______ _____ _____    ______ ____

>  <TORSDO>
F 10

$$$$
=
 OpenBabel10262422203D

 43 48  0  0  1  0  0  0  0  0999 V2000
  182.7470  178.7140  143.9070 C   0  0  0  0  0  0  0  0  0  0  0  0
  187.7120  178.1010  143.1900 C   0  0  0  0  0  0  0  0  0  0  0  0
  188.1240  178.3370  140.3640 C   0  0  0  0  0  0  0  0  0  0  0  0
  185.1280  178.3940  144.2300 C   0  0  0  0  0  0  0  0  0  0  0  0
  182.9330  178.7240  142.5210 C   0  0  0  0  0  3  0  0  0  0  0  0
  181.5100  178.8760  144.4250 F   0  0  0  0  0  0  0  0  0  0  0  0
  185.3230  178.4090  142.8280 C   0  0  0  0  0  0  0  0  0  0  0  0
  183.8430  178.5510  144.7590 C   0  0  0  0  0  3  0  0  0  0  0  0
  184.2130  178.5720  141.9840 C   0  0  0  0  0  3  0  0  0  0  0  0
  186.8800  178.2640  140.8520 C   0  0  0  0  0  3  0  0  0  0  0  0
  186.6230  178.2660  142.3090 C   0  0  0  0  0  0  0  0  0  0  0  0
  187.5000  178.0750  144.5710 C   0  0  0  0  0  3  0  0  0  0  0  0
  189.0920  177.8480  142.6450 C   0  0  2  0  0  3  0  0  0  0  0  0
  189.2900  178.5580  141.2990 C   0  0  0  0  0  2  0  0  0  0  0  0
  186.2150  178.2270  145.0890 C   0  0  0  0  0  3  0  0  0  0  0  0
  188.3520  178.2780  138.9110 C   0  0  0  0  0  0  0  0  0  0  0  0
  187.8780  177.1500  138.1600 N   0  0  0  0  0  2  0  0  0  0  0  0
  188.9570  179.2240  138.3370 O   0  0  0  0  0  0  0  0  0  0  0  0
  188.2180  176.7940  136.8110 C   0  0  0  0  0  0  0  0  0  0  0  0
  187.4140  177.4060  135.5190 S   0  0  0  0  0  0  0  0  0  0  0  0
  189.3600  175.8680  136.5610 C   0  0  2  0  0  3  0  0  0  0  0  0
  190.3940  176.5430  135.6590 C   0  0  0  0  0  2  0  0  0  0  0  0
  191.0870  174.1560  135.0870 C   0  0  0  0  0  2  0  0  0  0  0  0
  188.9090  174.6770  135.9660 O   0  0  0  0  0  0  0  0  0  0  0  0
  191.5590  175.5880  135.3670 C   0  0  2  0  0  3  0  0  0  0  0  0
  189.9710  173.7600  136.0540 C   0  0  0  0  0  2  0  0  0  0  0  0
  192.6690  175.6570  136.4190 C   0  0  0  0  0  2  0  0  0  0  0  0
  194.0680  175.6350  135.8170 C   0  0  0  0  0  2  0  0  0  0  0  0
  195.0570  175.5120  136.8740 N   0  0  0  0  0  0  0  0  0  0  0  0
  195.6130  174.1000  138.8300 C   0  0  0  0  0  2  0  0  0  0  0  0
  197.2660  174.4910  137.3420 C   0  0  0  0  0  2  0  0  0  0  0  0
  196.8080  174.8210  138.6320 O   0  0  0  0  0  0  0  0  0  0  0  0
  196.2800  174.9770  136.2650 C   0  0  0  0  0  2  0  0  0  0  0  0
  194.5230  174.5450  137.8380 C   0  0  0  0  0  2  0  0  0  0  0  0
  189.2900  176.4710  142.4810 O   0  0  0  0  0  0  0  0  0  0  0  0
  190.9980  176.7460  145.0870 N   0  0  0  0  0  0  0  0  0  0  0  0
  191.3220  177.5790  142.9610 C   0  0  0  0  0  2  0  0  0  0  0  0
  190.7280  175.6480  144.1750 C   0  0  0  0  0  2  0  0  0  0  0  0
  190.6320  176.2500  142.8010 C   0  0  1  0  0  3  0  0  0  0  0  0
  191.7300  177.7000  144.3560 N   0  0  0  0  0  2  0  0  0  0  0  0
  191.8780  176.2310  146.1230 C   0  0  0  0  0  2  0  0  0  0  0  0
  189.8990  177.0040  147.4200 C   0  0  0  0  0  1  0  0  0  0  0  0
  191.3690  176.6330  147.4960 C   0  0  0  0  0  2  0  0  0  0  0  0
  1  6  1  0  0  0  0
  1  8  1  0  0  0  0
  2 12  1  0  0  0  0
  3 10  2  0  0  0  0
  3 14  1  0  0  0  0
  4  8  2  0  0  0  0
  4 15  1  0  0  0  0
  5  1  2  0  0  0  0
  7  4  1  0  0  0  0
  9  5  1  0  0  0  0
  9  7  2  0  0  0  0
 10 11  1  0  0  0  0
 11  7  1  0  0  0  0
 11  2  2  0  0  0  0
 12 15  2  0  0  0  0
 13 35  1  6  0  0  0
 13  2  1  0  0  0  0
 14 13  1  0  0  0  0
 16  3  1  0  0  0  0
 17 16  1  0  0  0  0
 18 16  2  0  0  0  0
 19 17  1  0  0  0  0
 20 19  2  0  0  0  0
 21 19  1  6  0  0  0
 22 21  1  0  0  0  0
 23 25  1  0  0  0  0
 23 26  1  0  0  0  0
 24 26  1  0  0  0  0
 24 21  1  0  0  0  0
 25 22  1  0  0  0  0
 25 27  1  1  0  0  0
 28 27  1  0  0  0  0
 28 29  1  0  0  0  0
 29 34  1  0  0  0  0
 31 32  1  0  0  0  0
 32 30  1  0  0  0  0
 33 29  1  0  0  0  0
 33 31  1  0  0  0  0
 34 30  1  0  0  0  0
 36 41  1  0  0  0  0
 37 40  1  0  0  0  0
 38 36  1  0  0  0  0
 39 35  1  1  0  0  0
 39 37  1  0  0  0  0
 39 38  1  0  0  0  0
 40 36  1  0  0  0  0
 41 43  1  0  0  0  0
 42 43  1  0  0  0  0
M  END
>  <MODEL>
3

>  <REMARK>
 VINA RESULT:      -8.4      3.844      7.688
  Name = 
  10 active torsions:
  status: ('A' for Active; 'I' for Inactive)
    1  A    between atoms: O_1  and  C_34
    2  A    between atoms: O_1  and  C_35
    3  A    between atoms: C_2  and  C_13
    4  A    between atoms: C_3  and  C_12
    5  A    between atoms: N_6  and  C_12
    6  A    between atoms: C_9  and  N_19
    7  A    between atoms: C_9  and  C_37
    8  A    between atoms: N_11  and  C_14
    9  A    between atoms: C_14  and  C_41
   10  A    between atoms: C_22  and  C_41
                            x       y       z     vdW  Elec       q    Type
                         _______ _______ _______ _____ _____    ______ ____

>  <TORSDO>
F 10

$$$$
=
 OpenBabel10262422203D

 43 48  0  0  1  0  0  0  0  0999 V2000
  187.8320  177.6120  145.9920 C   0  0  0  0  0  0  0  0  0  0  0  0
  190.2500  177.4200  141.5590 C   0  0  0  0  0  0  0  0  0  0  0  0
  188.2910  178.0860  139.5750 C   0  0  0  0  0  0  0  0  0  0  0  0
  189.5160  177.3990  144.2610 C   0  0  0  0  0  0  0  0  0  0  0  0
  186.8540  177.8330  145.0180 C   0  0  0  0  0  3  0  0  0  0  0  0
  187.4980  177.6200  147.3010 F   0  0  0  0  0  0  0  0  0  0  0  0
  188.5300  177.6260  143.2710 C   0  0  0  0  0  0  0  0  0  0  0  0
  189.1610  177.3970  145.6130 C   0  0  0  0  0  3  0  0  0  0  0  0
  187.2000  177.8400  143.6650 C   0  0  0  0  0  3  0  0  0  0  0  0
  187.9110  177.8660  140.8400 C   0  0  0  0  0  3  0  0  0  0  0  0
  188.9030  177.6420  141.9130 C   0  0  0  0  0  0  0  0  0  0  0  0
  191.2070  177.1820  142.5480 C   0  0  0  0  0  3  0  0  0  0  0  0
  190.6430  177.3350  140.1070 C   0  0  2  0  0  3  0  0  0  0  0  0
  189.7570  178.2420  139.2440 C   0  0  0  0  0  2  0  0  0  0  0  0
  190.8440  177.1780  143.8930 C   0  0  0  0  0  3  0  0  0  0  0  0
  187.2800  178.2510  138.5190 C   0  0  0  0  0  0  0  0  0  0  0  0
  185.9680  177.6940  138.6940 N   0  0  0  0  0  2  0  0  0  0  0  0
  187.5730  178.8880  137.4710 O   0  0  0  0  0  0  0  0  0  0  0  0
  184.9490  177.5300  137.6960 C   0  0  0  0  0  0  0  0  0  0  0  0
  185.2360  176.7660  136.2730 S   0  0  0  0  0  0  0  0  0  0  0  0
  183.5700  178.0350  137.9630 C   0  0  2  0  0  3  0  0  0  0  0  0
  183.6340  179.3280  138.7760 C   0  0  0  0  0  2  0  0  0  0  0  0
  181.2630  178.7090  139.4810 C   0  0  0  0  0  2  0  0  0  0  0  0
  182.8170  177.0700  138.6550 O   0  0  0  0  0  0  0  0  0  0  0  0
  182.2210  179.8390  139.0860 C   0  0  2  0  0  3  0  0  0  0  0  0
  181.4770  177.4860  138.5880 C   0  0  0  0  0  2  0  0  0  0  0  0
  181.6570  180.7460  137.9890 C   0  0  0  0  0  2  0  0  0  0  0  0
  180.7550  181.8490  138.5280 C   0  0  0  0  0  2  0  0  0  0  0  0
  180.3220  182.7070  137.4380 N   0  0  0  0  0  0  0  0  0  0  0  0
  181.0850  184.6450  136.0990 C   0  0  0  0  0  2  0  0  0  0  0  0
  180.3360  182.8420  134.9640 C   0  0  0  0  0  2  0  0  0  0  0  0
  180.0050  184.1590  135.3360 O   0  0  0  0  0  0  0  0  0  0  0  0
  180.4400  181.9310  136.2000 C   0  0  0  0  0  2  0  0  0  0  0  0
  181.2530  183.8390  137.4010 C   0  0  0  0  0  2  0  0  0  0  0  0
  190.5290  176.0110  139.6650 O   0  0  0  0  0  0  0  0  0  0  0  0
  190.5640  173.8890  137.3670 N   0  0  0  0  0  0  0  0  0  0  0  0
  192.1190  175.4720  138.0000 C   0  0  0  0  0  2  0  0  0  0  0  0
  189.8250  175.1200  137.5850 C   0  0  0  0  0  2  0  0  0  0  0  0
  190.7640  176.0610  138.2880 C   0  0  1  0  0  3  0  0  0  0  0  0
  191.9150  174.2570  137.2190 N   0  0  0  0  0  2  0  0  0  0  0  0
  190.1240  173.3510  136.0900 C   0  0  0  0  0  2  0  0  0  0  0  0
  187.9350  172.2070  136.4120 C   0  0  0  0  0  1  0  0  0  0  0  0
  188.6170  173.4840  135.9540 C   0  0  0  0  0  2  0  0  0  0  0  0
  1  6  1  0  0  0  0
  2 11  2  0  0  0  0
  2 12  1  0  0  0  0
  3 10  2  0  0  0  0
  4  8  2  0  0  0  0
  5  1  2  0  0  0  0
  7  9  2  0  0  0  0
  7  4  1  0  0  0  0
  8  1  1  0  0  0  0
  9  5  1  0  0  0  0
 10 11  1  0  0  0  0
 11  7  1  0  0  0  0
 12 15  2  0  0  0  0
 13 35  1  6  0  0  0
 13  2  1  0  0  0  0
 14  3  1  0  0  0  0
 14 13  1  0  0  0  0
 15  4  1  0  0  0  0
 16 17  1  0  0  0  0
 16  3  1  0  0  0  0
 18 16  2  0  0  0  0
 19 17  1  0  0  0  0
 20 19  2  0  0  0  0
 21 19  1  1  0  0  0
 21 24  1  0  0  0  0
 21 22  1  0  0  0  0
 22 25  1  0  0  0  0
 25 27  1  6  0  0  0
 25 23  1  0  0  0  0
 26 24  1  0  0  0  0
 26 23  1  0  0  0  0
 27 28  1  0  0  0  0
 29 28  1  0  0  0  0
 30 34  1  0  0  0  0
 31 32  1  0  0  0  0
 31 33  1  0  0  0  0
 32 30  1  0  0  0  0
 33 29  1  0  0  0  0
 34 29  1  0  0  0  0
 36 38  1  0  0  0  0
 37 39  1  0  0  0  0
 38 39  1  0  0  0  0
 39 35  1  1  0  0  0
 40 36  1  0  0  0  0
 40 37  1  0  0  0  0
 41 36  1  0  0  0  0
 43 41  1  0  0  0  0
 43 42  1  0  0  0  0
M  END
>  <MODEL>
4

>  <REMARK>
 VINA RESULT:      -8.3      2.228      9.203
  Name = 
  10 active torsions:
  status: ('A' for Active; 'I' for Inactive)
    1  A    between atoms: O_1  and  C_34
    2  A    between atoms: O_1  and  C_35
    3  A    between atoms: C_2  and  C_13
    4  A    between atoms: C_3  and  C_12
    5  A    between atoms: N_6  and  C_12
    6  A    between atoms: C_9  and  N_19
    7  A    between atoms: C_9  and  C_37
    8  A    between atoms: N_11  and  C_14
    9  A    between atoms: C_14  and  C_41
   10  A    between atoms: C_22  and  C_41
                            x       y       z     vdW  Elec       q    Type
                         _______ _______ _______ _____ _____    ______ ____

>  <TORSDO>
F 10

$$$$
=
 OpenBabel10262422203D

 43 48  0  0  1  0  0  0  0  0999 V2000
  187.3830  177.5070  145.4760 C   0  0  0  0  0  0  0  0  0  0  0  0
  190.1720  177.5580  141.2620 C   0  0  0  0  0  0  0  0  0  0  0  0
  188.3160  177.8870  139.1040 C   0  0  0  0  0  0  0  0  0  0  0  0
  189.2210  177.4960  143.8950 C   0  0  0  0  0  0  0  0  0  0  0  0
  186.4700  177.5620  144.4180 C   0  0  0  0  0  3  0  0  0  0  0  0
  186.9410  177.4990  146.7520 F   0  0  0  0  0  0  0  0  0  0  0  0
  188.3010  177.5560  142.8210 C   0  0  0  0  0  0  0  0  0  0  0  0
  188.7560  177.4760  145.2130 C   0  0  0  0  0  3  0  0  0  0  0  0
  186.9250  177.5860  143.0980 C   0  0  0  0  0  3  0  0  0  0  0  0
  187.8640  177.6460  140.3410 C   0  0  0  0  0  3  0  0  0  0  0  0
  188.7830  177.5920  141.4990 C   0  0  0  0  0  0  0  0  0  0  0  0
  191.0660  177.4840  142.3340 C   0  0  0  0  0  3  0  0  0  0  0  0
  190.6960  177.4950  139.8510 C   0  0  2  0  0  3  0  0  0  0  0  0
  189.7680  178.2440  138.8870 C   0  0  0  0  0  2  0  0  0  0  0  0
  190.5930  177.4590  143.6450 C   0  0  0  0  0  3  0  0  0  0  0  0
  187.3850  177.8810  137.9640 C   0  0  0  0  0  0  0  0  0  0  0  0
  186.9430  176.6310  137.4120 N   0  0  0  0  0  2  0  0  0  0  0  0
  186.9790  178.9740  137.4850 O   0  0  0  0  0  0  0  0  0  0  0  0
  186.2560  176.4200  136.1690 C   0  0  0  0  0  0  0  0  0  0  0  0
  187.0470  176.3680  134.7340 S   0  0  0  0  0  0  0  0  0  0  0  0
  184.7790  176.2020  136.1720 C   0  0  2  0  0  3  0  0  0  0  0  0
  184.3880  175.2890  137.3350 C   0  0  0  0  0  2  0  0  0  0  0  0
  182.3270  174.7870  135.9180 C   0  0  0  0  0  2  0  0  0  0  0  0
  184.3610  175.6360  134.9560 O   0  0  0  0  0  0  0  0  0  0  0  0
  182.8750  175.0310  137.3290 C   0  0  2  0  0  3  0  0  0  0  0  0
  182.9610  175.7560  134.9200 C   0  0  0  0  0  2  0  0  0  0  0  0
  182.0830  176.0880  138.1040 C   0  0  0  0  0  2  0  0  0  0  0  0
  182.6290  176.3400  139.5030 C   0  0  0  0  0  2  0  0  0  0  0  0
  183.5130  177.4930  139.4870 N   0  0  0  0  0  0  0  0  0  0  0  0
  183.4760  179.9370  139.0940 C   0  0  0  0  0  2  0  0  0  0  0  0
  184.4670  179.2170  140.9910 C   0  0  0  0  0  2  0  0  0  0  0  0
  184.7270  179.7530  139.7150 O   0  0  0  0  0  0  0  0  0  0  0  0
  183.8240  177.8220  140.8820 C   0  0  0  0  0  2  0  0  0  0  0  0
  182.7580  178.5920  138.8780 C   0  0  0  0  0  2  0  0  0  0  0  0
  190.8080  176.1580  139.4490 O   0  0  0  0  0  0  0  0  0  0  0  0
  192.2750  174.1190  137.5850 N   0  0  0  0  0  0  0  0  0  0  0  0
  192.8110  176.2780  138.1980 C   0  0  0  0  0  2  0  0  0  0  0  0
  191.0530  174.8920  137.4610 C   0  0  0  0  0  2  0  0  0  0  0  0
  191.3080  176.2060  138.1450 C   0  0  1  0  0  3  0  0  0  0  0  0
  193.3320  175.0490  137.6110 N   0  0  0  0  0  2  0  0  0  0  0  0
  192.4150  173.3450  136.3620 C   0  0  0  0  0  2  0  0  0  0  0  0
  193.9040  171.7340  135.1860 C   0  0  0  0  0  1  0  0  0  0  0  0
  193.8440  172.8530  136.2100 C   0  0  0  0  0  2  0  0  0  0  0  0
  1  6  1  0  0  0  0
  2 11  2  0  0  0  0
  2 12  1  0  0  0  0
  3 10  2  0  0  0  0
  4  8  2  0  0  0  0
  5  1  2  0  0  0  0
  7  9  2  0  0  0  0
  7  4  1  0  0  0  0
  8  1  1  0  0  0  0
  9  5  1  0  0  0  0
 10 11  1  0  0  0  0
 11  7  1  0  0  0  0
 12 15  2  0  0  0  0
 13 35  1  6  0  0  0
 13  2  1  0  0  0  0
 14  3  1  0  0  0  0
 14 13  1  0  0  0  0
 15  4  1  0  0  0  0
 16  3  1  0  0  0  0
 17 16  1  0  0  0  0
 18 16  2  0  0  0  0
 19 17  1  0  0  0  0
 20 19  2  0  0  0  0
 21 19  1  6  0  0  0
 21 22  1  0  0  0  0
 23 25  1  0  0  0  0
 24 21  1  0  0  0  0
 25 22  1  0  0  0  0
 25 27  1  6  0  0  0
 26 24  1  0  0  0  0
 26 23  1  0  0  0  0
 27 28  1  0  0  0  0
 29 28  1  0  0  0  0
 29 33  1  0  0  0  0
 30 32  1  0  0  0  0
 32 31  1  0  0  0  0
 33 31  1  0  0  0  0
 34 30  1  0  0  0  0
 34 29  1  0  0  0  0
 36 40  1  0  0  0  0
 38 36  1  0  0  0  0
 38 39  1  0  0  0  0
 39 37  1  0  0  0  0
 39 35  1  1  0  0  0
 40 37  1  0  0  0  0
 41 36  1  0  0  0  0
 42 43  1  0  0  0  0
 43 41  1  0  0  0  0
M  END
>  <MODEL>
5

>  <REMARK>
 VINA RESULT:      -8.1      2.906      8.457
  Name = 
  10 active torsions:
  status: ('A' for Active; 'I' for Inactive)
    1  A    between atoms: O_1  and  C_34
    2  A    between atoms: O_1  and  C_35
    3  A    between atoms: C_2  and  C_13
    4  A    between atoms: C_3  and  C_12
    5  A    between atoms: N_6  and  C_12
    6  A    between atoms: C_9  and  N_19
    7  A    between atoms: C_9  and  C_37
    8  A    between atoms: N_11  and  C_14
    9  A    between atoms: C_14  and  C_41
   10  A    between atoms: C_22  and  C_41
                            x       y       z     vdW  Elec       q    Type
                         _______ _______ _______ _____ _____    ______ ____

>  <TORSDO>
F 10

$$$$
=
 OpenBabel10262422203D

 43 48  0  0  1  0  0  0  0  0999 V2000
  190.7490  176.7560  147.0140 C   0  0  0  0  0  0  0  0  0  0  0  0
  189.1170  178.1900  142.4510 C   0  0  0  0  0  0  0  0  0  0  0  0
  186.2640  178.3620  142.6640 C   0  0  0  0  0  0  0  0  0  0  0  0
  190.6210  177.4700  144.7010 C   0  0  0  0  0  0  0  0  0  0  0  0
  189.3530  176.7370  147.0880 C   0  0  0  0  0  3  0  0  0  0  0  0
  191.4890  176.4320  148.0960 F   0  0  0  0  0  0  0  0  0  0  0  0
  189.2070  177.4580  144.7720 C   0  0  0  0  0  0  0  0  0  0  0  0
  191.3810  177.1220  145.8220 C   0  0  0  0  0  3  0  0  0  0  0  0
  188.5860  177.0860  145.9750 C   0  0  0  0  0  3  0  0  0  0  0  0
  186.9760  177.8200  143.6610 C   0  0  0  0  0  3  0  0  0  0  0  0
  188.4540  177.8250  143.6410 C   0  0  0  0  0  0  0  0  0  0  0  0
  190.5130  178.1820  142.3930 C   0  0  0  0  0  3  0  0  0  0  0  0
  188.3230  178.4870  141.2060 C   0  0  2  0  0  3  0  0  0  0  0  0
  186.9670  179.1130  141.5570 C   0  0  0  0  0  2  0  0  0  0  0  0
  191.2620  177.8300  143.5150 C   0  0  0  0  0  3  0  0  0  0  0  0
  184.7940  178.2940  142.6840 C   0  0  0  0  0  0  0  0  0  0  0  0
  184.0630  178.3060  141.4490 N   0  0  0  0  0  2  0  0  0  0  0  0
  184.1900  178.2180  143.7880 O   0  0  0  0  0  0  0  0  0  0  0  0
  182.6510  178.5000  141.2720 C   0  0  0  0  0  0  0  0  0  0  0  0
  181.6680  178.9260  142.5130 S   0  0  0  0  0  0  0  0  0  0  0  0
  182.0530  178.3500  139.9130 C   0  0  2  0  0  3  0  0  0  0  0  0
  183.0850  177.7650  138.9480 C   0  0  0  0  0  2  0  0  0  0  0  0
  181.6490  178.8550  137.1450 C   0  0  0  0  0  2  0  0  0  0  0  0
  181.5980  179.5910  139.4340 O   0  0  0  0  0  0  0  0  0  0  0  0
  182.4920  177.6370  137.5390 C   0  0  2  0  0  3  0  0  0  0  0  0
  180.7860  179.3150  138.3210 C   0  0  0  0  0  2  0  0  0  0  0  0
  181.7660  176.3080  137.3130 C   0  0  0  0  0  2  0  0  0  0  0  0
  182.5020  175.3770  136.3590 C   0  0  0  0  0  2  0  0  0  0  0  0
  183.4000  174.5140  137.1070 N   0  0  0  0  0  0  0  0  0  0  0  0
  184.1740  172.1650  137.2000 C   0  0  0  0  0  2  0  0  0  0  0  0
  185.7630  173.7700  137.1630 C   0  0  0  0  0  2  0  0  0  0  0  0
  185.1300  172.8270  137.9960 O   0  0  0  0  0  0  0  0  0  0  0  0
  184.7670  174.8460  136.6930 C   0  0  0  0  0  2  0  0  0  0  0  0
  183.0840  173.1380  136.7140 C   0  0  0  0  0  2  0  0  0  0  0  0
  188.1210  177.3060  140.4820 O   0  0  0  0  0  0  0  0  0  0  0  0
  189.5180  176.2900  137.8750 N   0  0  0  0  0  0  0  0  0  0  0  0
  189.3860  178.3950  138.8080 C   0  0  0  0  0  2  0  0  0  0  0  0
  188.1310  176.4760  138.2620 C   0  0  0  0  0  2  0  0  0  0  0  0
  188.0950  177.6960  139.1400 C   0  0  1  0  0  3  0  0  0  0  0  0
  190.0950  177.5730  137.8350 N   0  0  0  0  0  2  0  0  0  0  0  0
  189.5130  175.7790  136.5130 C   0  0  0  0  0  2  0  0  0  0  0  0
  190.8310  173.6970  136.8690 C   0  0  0  0  0  1  0  0  0  0  0  0
  189.4650  174.2610  136.5200 C   0  0  0  0  0  2  0  0  0  0  0  0
  1  5  1  0  0  0  0
  1  6  1  0  0  0  0
  2 11  1  0  0  0  0
  3 16  1  0  0  0  0
  3 10  2  0  0  0  0
  4  7  1  0  0  0  0
  4  8  1  0  0  0  0
  7  9  1  0  0  0  0
  8  1  2  0  0  0  0
  9  5  2  0  0  0  0
 11 10  1  0  0  0  0
 11  7  2  0  0  0  0
 12  2  2  0  0  0  0
 12 15  1  0  0  0  0
 13 35  1  1  0  0  0
 13 14  1  0  0  0  0
 13  2  1  0  0  0  0
 14  3  1  0  0  0  0
 15  4  2  0  0  0  0
 16 18  2  0  0  0  0
 17 16  1  0  0  0  0
 19 17  1  0  0  0  0
 19 20  2  0  0  0  0
 21 19  1  1  0  0  0
 22 21  1  0  0  0  0
 23 25  1  0  0  0  0
 23 26  1  0  0  0  0
 24 21  1  0  0  0  0
 25 27  1  1  0  0  0
 25 22  1  0  0  0  0
 26 24  1  0  0  0  0
 28 29  1  0  0  0  0
 28 27  1  0  0  0  0
 30 32  1  0  0  0  0
 31 32  1  0  0  0  0
 33 29  1  0  0  0  0
 33 31  1  0  0  0  0
 34 29  1  0  0  0  0
 34 30  1  0  0  0  0
 36 38  1  0  0  0  0
 37 39  1  0  0  0  0
 38 39  1  0  0  0  0
 39 35  1  1  0  0  0
 40 36  1  0  0  0  0
 40 37  1  0  0  0  0
 41 43  1  0  0  0  0
 41 36  1  0  0  0  0
 43 42  1  0  0  0  0
M  END
>  <MODEL>
6

>  <REMARK>
 VINA RESULT:      -8.1      3.283      8.275
  Name = 
  10 active torsions:
  status: ('A' for Active; 'I' for Inactive)
    1  A    between atoms: O_1  and  C_34
    2  A    between atoms: O_1  and  C_35
    3  A    between atoms: C_2  and  C_13
    4  A    between atoms: C_3  and  C_12
    5  A    between atoms: N_6  and  C_12
    6  A    between atoms: C_9  and  N_19
    7  A    between atoms: C_9  and  C_37
    8  A    between atoms: N_11  and  C_14
    9  A    between atoms: C_14  and  C_41
   10  A    between atoms: C_22  and  C_41
                            x       y       z     vdW  Elec       q    Type
                         _______ _______ _______ _____ _____    ______ ____

>  <TORSDO>
F 10

$$$$
=
 OpenBabel10262422203D

 43 48  0  0  1  0  0  0  0  0999 V2000
  180.3350  172.8010  137.5060 C   0  0  0  0  0  0  0  0  0  0  0  0
  182.0640  177.0480  139.6320 C   0  0  0  0  0  0  0  0  0  0  0  0
  184.4970  177.6730  138.2520 C   0  0  0  0  0  0  0  0  0  0  0  0
  180.5930  174.7910  138.8670 C   0  0  0  0  0  0  0  0  0  0  0  0
  181.5730  173.0480  136.9060 C   0  0  0  0  0  3  0  0  0  0  0  0
  179.6030  171.7290  137.1340 F   0  0  0  0  0  0  0  0  0  0  0  0
  181.8450  175.0480  138.2590 C   0  0  0  0  0  0  0  0  0  0  0  0
  179.8460  173.6730  138.4850 C   0  0  0  0  0  3  0  0  0  0  0  0
  182.3250  174.1640  137.2790 C   0  0  0  0  0  3  0  0  0  0  0  0
  183.8970  176.4940  138.0440 C   0  0  0  0  0  3  0  0  0  0  0  0
  182.5800  176.1860  138.6420 C   0  0  0  0  0  0  0  0  0  0  0  0
  180.8330  176.7710  140.2320 C   0  0  0  0  0  3  0  0  0  0  0  0
  182.8850  178.2120  140.1210 C   0  0  2  0  0  3  0  0  0  0  0  0
  183.7720  178.7680  138.9990 C   0  0  0  0  0  2  0  0  0  0  0  0
  180.0970  175.6510  139.8480 C   0  0  0  0  0  3  0  0  0  0  0  0
  185.8320  177.9310  137.6890 C   0  0  0  0  0  0  0  0  0  0  0  0
  186.6160  176.8390  137.1850 N   0  0  0  0  0  2  0  0  0  0  0  0
  186.2730  179.1120  137.6490 O   0  0  0  0  0  0  0  0  0  0  0  0
  188.0100  176.8510  136.8410 C   0  0  0  0  0  0  0  0  0  0  0  0
  188.5310  177.2070  135.3270 S   0  0  0  0  0  0  0  0  0  0  0  0
  189.0300  176.5700  137.8940 C   0  0  2  0  0  3  0  0  0  0  0  0
  189.2310  177.8060  138.7710 C   0  0  0  0  0  2  0  0  0  0  0  0
  191.5030  176.7670  139.2820 C   0  0  0  0  0  2  0  0  0  0  0  0
  190.2510  176.1930  137.3090 O   0  0  0  0  0  0  0  0  0  0  0  0
  190.3020  177.5400  139.8380 C   0  0  2  0  0  3  0  0  0  0  0  0
  191.0380  175.6540  138.3420 C   0  0  0  0  0  2  0  0  0  0  0  0
  189.7330  176.9220  141.1180 C   0  0  0  0  0  2  0  0  0  0  0  0
  189.4290  177.9520  142.1980 C   0  0  0  0  0  2  0  0  0  0  0  0
  190.3270  177.7650  143.3240 N   0  0  0  0  0  0  0  0  0  0  0  0
  190.2930  177.2530  145.7460 C   0  0  0  0  0  2  0  0  0  0  0  0
  191.6710  176.0160  144.4530 C   0  0  0  0  0  2  0  0  0  0  0  0
  191.6470  177.0440  145.4140 O   0  0  0  0  0  0  0  0  0  0  0  0
  190.9680  176.4570  143.1560 C   0  0  0  0  0  2  0  0  0  0  0  0
  189.4940  177.7550  144.5290 C   0  0  0  0  0  2  0  0  0  0  0  0
  183.6880  177.8050  141.1940 O   0  0  0  0  0  0  0  0  0  0  0  0
  184.5000  178.2920  144.1750 N   0  0  0  0  0  0  0  0  0  0  0  0
  182.6750  179.0070  142.9590 C   0  0  0  0  0  2  0  0  0  0  0  0
  185.0190  178.7650  142.9040 C   0  0  0  0  0  2  0  0  0  0  0  0
  183.8310  178.9390  141.9980 C   0  0  1  0  0  3  0  0  0  0  0  0
  183.2090  178.8370  144.3050 N   0  0  0  0  0  2  0  0  0  0  0  0
  185.3240  178.8840  145.2160 C   0  0  0  0  0  2  0  0  0  0  0  0
  186.8540  178.4120  147.1220 C   0  0  0  0  0  1  0  0  0  0  0  0
  185.8920  177.8020  146.1180 C   0  0  0  0  0  2  0  0  0  0  0  0
  1  8  1  0  0  0  0
  2 13  1  0  0  0  0
  2 12  1  0  0  0  0
  3 14  1  0  0  0  0
  4 15  1  0  0  0  0
  5  9  1  0  0  0  0
  5  1  2  0  0  0  0
  6  1  1  0  0  0  0
  7 11  1  0  0  0  0
  7  4  1  0  0  0  0
  8  4  2  0  0  0  0
  9  7  2  0  0  0  0
 10  3  2  0  0  0  0
 10 11  1  0  0  0  0
 11  2  2  0  0  0  0
 13 35  1  1  0  0  0
 14 13  1  0  0  0  0
 15 12  2  0  0  0  0
 16  3  1  0  0  0  0
 17 16  1  0  0  0  0
 18 16  2  0  0  0  0
 19 17  1  0  0  0  0
 20 19  2  0  0  0  0
 21 19  1  6  0  0  0
 21 22  1  0  0  0  0
 22 25  1  0  0  0  0
 23 25  1  0  0  0  0
 24 21  1  0  0  0  0
 24 26  1  0  0  0  0
 25 27  1  1  0  0  0
 26 23  1  0  0  0  0
 27 28  1  0  0  0  0
 28 29  1  0  0  0  0
 29 34  1  0  0  0  0
 31 32  1  0  0  0  0
 32 30  1  0  0  0  0
 33 29  1  0  0  0  0
 33 31  1  0  0  0  0
 34 30  1  0  0  0  0
 36 40  1  0  0  0  0
 36 41  1  0  0  0  0
 37 40  1  0  0  0  0
 38 36  1  0  0  0  0
 39 35  1  6  0  0  0
 39 38  1  0  0  0  0
 39 37  1  0  0  0  0
 41 43  1  0  0  0  0
 43 42  1  0  0  0  0
M  END
>  <MODEL>
7

>  <REMARK>
 VINA RESULT:      -8.0      3.496      5.815
  Name = 
  10 active torsions:
  status: ('A' for Active; 'I' for Inactive)
    1  A    between atoms: O_1  and  C_34
    2  A    between atoms: O_1  and  C_35
    3  A    between atoms: C_2  and  C_13
    4  A    between atoms: C_3  and  C_12
    5  A    between atoms: N_6  and  C_12
    6  A    between atoms: C_9  and  N_19
    7  A    between atoms: C_9  and  C_37
    8  A    between atoms: N_11  and  C_14
    9  A    between atoms: C_14  and  C_41
   10  A    between atoms: C_22  and  C_41
                            x       y       z     vdW  Elec       q    Type
                         _______ _______ _______ _____ _____    ______ ____

>  <TORSDO>
F 10

$$$$
=
 OpenBabel10262422203D

 43 48  0  0  1  0  0  0  0  0999 V2000
  193.1800  176.9950  139.8460 C   0  0  0  0  0  0  0  0  0  0  0  0
  189.2260  176.6390  136.7190 C   0  0  0  0  0  0  0  0  0  0  0  0
  187.0270  177.8480  138.1040 C   0  0  0  0  0  0  0  0  0  0  0  0
  191.7450  176.5660  137.9390 C   0  0  0  0  0  0  0  0  0  0  0  0
  192.0850  177.4880  140.5620 C   0  0  0  0  0  3  0  0  0  0  0  0
  194.4060  176.9730  140.4120 F   0  0  0  0  0  0  0  0  0  0  0  0
  190.6350  177.0700  138.6580 C   0  0  0  0  0  0  0  0  0  0  0  0
  193.0090  176.5360  138.5360 C   0  0  0  0  0  3  0  0  0  0  0  0
  190.8200  177.5260  139.9730 C   0  0  0  0  0  3  0  0  0  0  0  0
  188.1770  177.6170  138.7510 C   0  0  0  0  0  3  0  0  0  0  0  0
  189.3700  177.1100  138.0400 C   0  0  0  0  0  0  0  0  0  0  0  0
  190.3290  176.1320  136.0280 C   0  0  0  0  0  3  0  0  0  0  0  0
  187.8610  176.5840  136.0830 C   0  0  2  0  0  3  0  0  0  0  0  0
  186.9680  177.7190  136.6000 C   0  0  0  0  0  2  0  0  0  0  0  0
  191.5850  176.1010  136.6330 C   0  0  0  0  0  3  0  0  0  0  0  0
  185.8410  178.3010  138.8480 C   0  0  0  0  0  0  0  0  0  0  0  0
  185.9560  178.6380  140.2390 N   0  0  0  0  0  2  0  0  0  0  0  0
  184.7330  178.3960  138.2530 O   0  0  0  0  0  0  0  0  0  0  0  0
  184.8900  178.8480  141.1770 C   0  0  0  0  0  0  0  0  0  0  0  0
  183.3210  178.9350  140.7090 S   0  0  0  0  0  0  0  0  0  0  0  0
  185.2020  178.9560  142.6320 C   0  0  2  0  0  3  0  0  0  0  0  0
  185.7740  177.6330  143.1440 C   0  0  0  0  0  2  0  0  0  0  0  0
  184.9630  178.4500  145.4200 C   0  0  0  0  0  2  0  0  0  0  0  0
  184.0480  179.2930  143.3610 O   0  0  0  0  0  0  0  0  0  0  0  0
  186.0680  177.7200  144.6480 C   0  0  2  0  0  3  0  0  0  0  0  0
  184.4830  179.6760  144.6420 C   0  0  0  0  0  2  0  0  0  0  0  0
  187.4680  178.2590  144.9550 C   0  0  0  0  0  2  0  0  0  0  0  0
  187.9840  177.8430  146.3260 C   0  0  0  0  0  2  0  0  0  0  0  0
  189.4330  177.7490  146.3000 N   0  0  0  0  0  0  0  0  0  0  0  0
  191.2870  176.3820  147.2080 C   0  0  0  0  0  2  0  0  0  0  0  0
  191.2810  176.7560  144.9800 C   0  0  0  0  0  2  0  0  0  0  0  0
  191.9240  177.1090  146.1820 O   0  0  0  0  0  0  0  0  0  0  0  0
  189.8100  177.2130  144.9880 C   0  0  0  0  0  2  0  0  0  0  0  0
  189.8110  176.7980  147.3490 C   0  0  0  0  0  2  0  0  0  0  0  0
  187.2600  175.3510  136.3630 O   0  0  0  0  0  0  0  0  0  0  0  0
  184.8160  173.4080  136.1670 N   0  0  0  0  0  0  0  0  0  0  0  0
  185.7770  174.8070  134.6040 C   0  0  0  0  0  2  0  0  0  0  0  0
  185.0380  174.6760  136.8380 C   0  0  0  0  0  2  0  0  0  0  0  0
  185.9340  175.4830  135.9400 C   0  0  1  0  0  3  0  0  0  0  0  0
  184.8770  173.6740  134.7860 N   0  0  0  0  0  2  0  0  0  0  0  0
  183.4530  173.0020  136.4660 C   0  0  0  0  0  2  0  0  0  0  0  0
  183.8870  170.5840  136.0650 C   0  0  0  0  0  1  0  0  0  0  0  0
  183.4390  171.6150  137.0850 C   0  0  0  0  0  2  0  0  0  0  0  0
  1  6  1  0  0  0  0
  1  5  1  0  0  0  0
  2 11  1  0  0  0  0
  3 10  2  0  0  0  0
  3 16  1  0  0  0  0
  4  8  1  0  0  0  0
  4  7  1  0  0  0  0
  7  9  1  0  0  0  0
  8  1  2  0  0  0  0
  9  5  2  0  0  0  0
 11  7  2  0  0  0  0
 11 10  1  0  0  0  0
 12 15  1  0  0  0  0
 12  2  2  0  0  0  0
 13 35  1  1  0  0  0
 13 14  1  0  0  0  0
 13  2  1  0  0  0  0
 14  3  1  0  0  0  0
 15  4  2  0  0  0  0
 16 17  1  0  0  0  0
 17 19  1  0  0  0  0
 18 16  2  0  0  0  0
 20 19  2  0  0  0  0
 21 19  1  6  0  0  0
 21 22  1  0  0  0  0
 21 24  1  0  0  0  0
 22 25  1  0  0  0  0
 24 26  1  0  0  0  0
 25 27  1  6  0  0  0
 25 23  1  0  0  0  0
 26 23  1  0  0  0  0
 27 28  1  0  0  0  0
 29 28  1  0  0  0  0
 29 34  1  0  0  0  0
 30 34  1  0  0  0  0
 31 33  1  0  0  0  0
 31 32  1  0  0  0  0
 32 30  1  0  0  0  0
 33 29  1  0  0  0  0
 36 41  1  0  0  0  0
 36 38  1  0  0  0  0
 37 40  1  0  0  0  0
 37 39  1  0  0  0  0
 39 35  1  1  0  0  0
 39 38  1  0  0  0  0
 40 36  1  0  0  0  0
 41 43  1  0  0  0  0
 42 43  1  0  0  0  0
M  END
>  <MODEL>
8

>  <REMARK>
 VINA RESULT:      -7.9      4.018      8.074
  Name = 
  10 active torsions:
  status: ('A' for Active; 'I' for Inactive)
    1  A    between atoms: O_1  and  C_34
    2  A    between atoms: O_1  and  C_35
    3  A    between atoms: C_2  and  C_13
    4  A    between atoms: C_3  and  C_12
    5  A    between atoms: N_6  and  C_12
    6  A    between atoms: C_9  and  N_19
    7  A    between atoms: C_9  and  C_37
    8  A    between atoms: N_11  and  C_14
    9  A    between atoms: C_14  and  C_41
   10  A    between atoms: C_22  and  C_41
                            x       y       z     vdW  Elec       q    Type
                         _______ _______ _______ _____ _____    ______ ____

>  <TORSDO>
F 10

$$$$
=
 OpenBabel10262422203D

 43 48  0  0  1  0  0  0  0  0999 V2000
  190.0050  176.9260  136.2010 C   0  0  0  0  0  0  0  0  0  0  0  0
  185.2080  177.7840  137.5400 C   0  0  0  0  0  0  0  0  0  0  0  0
  185.3140  178.7460  140.2370 C   0  0  0  0  0  0  0  0  0  0  0  0
  187.5920  177.1630  136.2090 C   0  0  0  0  0  0  0  0  0  0  0  0
  190.0480  177.2940  137.5490 C   0  0  0  0  0  3  0  0  0  0  0  0
  191.1480  176.6450  135.5380 F   0  0  0  0  0  0  0  0  0  0  0  0
  187.6310  177.5410  137.5720 C   0  0  0  0  0  0  0  0  0  0  0  0
  188.7780  176.8620  135.5320 C   0  0  0  0  0  3  0  0  0  0  0  0
  188.8690  177.6010  138.2310 C   0  0  0  0  0  3  0  0  0  0  0  0
  186.4160  178.2490  139.6630 C   0  0  0  0  0  3  0  0  0  0  0  0
  186.4310  177.8580  138.2370 C   0  0  0  0  0  0  0  0  0  0  0  0
  185.1860  177.3940  136.1980 C   0  0  0  0  0  3  0  0  0  0  0  0
  183.9100  178.0220  138.2660 C   0  0  2  0  0  3  0  0  0  0  0  0
  184.0930  179.0420  139.3970 C   0  0  0  0  0  2  0  0  0  0  0  0
  186.3730  177.0910  135.5330 C   0  0  0  0  0  3  0  0  0  0  0  0
  185.3130  179.0760  141.6710 C   0  0  0  0  0  0  0  0  0  0  0  0
  184.5180  178.2980  142.5810 N   0  0  0  0  0  2  0  0  0  0  0  0
  186.0160  180.0350  142.0900 O   0  0  0  0  0  0  0  0  0  0  0  0
  184.1910  178.6140  143.9430 C   0  0  0  0  0  0  0  0  0  0  0  0
  182.6460  178.8540  144.4350 S   0  0  0  0  0  0  0  0  0  0  0  0
  185.2800  178.6930  144.9610 C   0  0  2  0  0  3  0  0  0  0  0  0
  185.9850  177.3410  145.0790 C   0  0  0  0  0  2  0  0  0  0  0  0
  186.6470  178.1700  147.3980 C   0  0  0  0  0  2  0  0  0  0  0  0
  184.7600  179.0730  146.2100 O   0  0  0  0  0  0  0  0  0  0  0  0
  187.0850  177.4000  146.1470 C   0  0  2  0  0  3  0  0  0  0  0  0
  185.8620  179.4230  147.0100 C   0  0  0  0  0  2  0  0  0  0  0  0
  188.4320  177.8730  145.5950 C   0  0  0  0  0  2  0  0  0  0  0  0
  188.4220  178.0830  144.0860 C   0  0  0  0  0  2  0  0  0  0  0  0
  189.7630  177.9050  143.5550 N   0  0  0  0  0  0  0  0  0  0  0  0
  191.6330  176.2830  143.5620 C   0  0  0  0  0  2  0  0  0  0  0  0
  190.9500  177.0550  141.5530 C   0  0  0  0  0  2  0  0  0  0  0  0
  191.9860  177.1420  142.5030 O   0  0  0  0  0  0  0  0  0  0  0  0
  189.6280  177.5940  142.1290 C   0  0  0  0  0  2  0  0  0  0  0  0
  190.3440  176.7570  144.2580 C   0  0  0  0  0  2  0  0  0  0  0  0
  183.4380  176.8150  138.7970 O   0  0  0  0  0  0  0  0  0  0  0  0
  180.8550  175.3140  139.7230 N   0  0  0  0  0  0  0  0  0  0  0  0
  182.0130  175.2600  137.7280 C   0  0  0  0  0  2  0  0  0  0  0  0
  181.1460  176.6960  139.3850 C   0  0  0  0  0  2  0  0  0  0  0  0
  182.1530  176.6580  138.2690 C   0  0  1  0  0  3  0  0  0  0  0  0
  181.0120  174.5720  138.5370 N   0  0  0  0  0  2  0  0  0  0  0  0
  179.4480  175.2520  140.0840 C   0  0  0  0  0  2  0  0  0  0  0  0
  179.5520  173.3930  141.7370 C   0  0  0  0  0  1  0  0  0  0  0  0
  179.2950  174.8780  141.5480 C   0  0  0  0  0  2  0  0  0  0  0  0
  1  5  1  0  0  0  0
  2 11  1  0  0  0  0
  2 13  1  0  0  0  0
  3 16  1  0  0  0  0
  4  7  1  0  0  0  0
  5  9  2  0  0  0  0
  6  1  1  0  0  0  0
  7  9  1  0  0  0  0
  7 11  2  0  0  0  0
  8  1  2  0  0  0  0
  8  4  1  0  0  0  0
 10  3  2  0  0  0  0
 11 10  1  0  0  0  0
 12  2  2  0  0  0  0
 13 35  1  1  0  0  0
 13 14  1  0  0  0  0
 14  3  1  0  0  0  0
 15 12  1  0  0  0  0
 15  4  2  0  0  0  0
 16 18  2  0  0  0  0
 16 17  1  0  0  0  0
 17 19  1  0  0  0  0
 19 20  2  0  0  0  0
 21 19  1  6  0  0  0
 21 22  1  0  0  0  0
 21 24  1  0  0  0  0
 22 25  1  0  0  0  0
 24 26  1  0  0  0  0
 25 27  1  6  0  0  0
 25 23  1  0  0  0  0
 26 23  1  0  0  0  0
 28 27  1  0  0  0  0
 29 28  1  0  0  0  0
 29 34  1  0  0  0  0
 30 34  1  0  0  0  0
 31 33  1  0  0  0  0
 31 32  1  0  0  0  0
 32 30  1  0  0  0  0
 33 29  1  0  0  0  0
 36 41  1  0  0  0  0
 37 39  1  0  0  0  0
 37 40  1  0  0  0  0
 38 36  1  0  0  0  0
 39 35  1  1  0  0  0
 39 38  1  0  0  0  0
 40 36  1  0  0  0  0
 41 43  1  0  0  0  0
 43 42  1  0  0  0  0
M  END
>  <MODEL>
9

>  <REMARK>
 VINA RESULT:      -7.8      4.126      7.323
  Name = 
  10 active torsions:
  status: ('A' for Active; 'I' for Inactive)
    1  A    between atoms: O_1  and  C_34
    2  A    between atoms: O_1  and  C_35
    3  A    between atoms: C_2  and  C_13
    4  A    between atoms: C_3  and  C_12
    5  A    between atoms: N_6  and  C_12
    6  A    between atoms: C_9  and  N_19
    7  A    between atoms: C_9  and  C_37
    8  A    between atoms: N_11  and  C_14
    9  A    between atoms: C_14  and  C_41
   10  A    between atoms: C_22  and  C_41
                            x       y       z     vdW  Elec       q    Type
                         _______ _______ _______ _____ _____    ______ ____

>  <TORSDO>
F 10

$$$$
