=
 OpenBabel10262420463D

 28 30  0  0  1  0  0  0  0  0999 V2000
  187.5240  177.9430  140.3370 C   0  0  1  0  0  3  0  0  0  0  0  0
  184.4410  179.6550  139.3790 O   0  0  0  0  0  0  0  0  0  0  0  0
  186.3760  178.8410  140.3980 N   0  0  0  0  0  0  0  0  0  0  0  0
  185.4150  178.8590  139.3370 C   0  0  0  0  0  0  0  0  0  0  0  0
  186.2460  179.7060  141.4340 O   0  0  0  0  0  1  0  0  0  0  0  0
  185.5480  177.9750  138.2260 N   0  0  0  0  0  1  0  0  0  0  0  0
  188.1540  177.9530  138.9400 C   0  0  2  0  0  3  0  0  0  0  0  0
  188.9440  176.6640  138.6790 C   0  0  2  0  0  3  0  0  0  0  0  0
  189.6620  176.1220  136.4420 N   0  0  0  0  0  0  0  0  0  0  0  0
  190.4410  176.9790  138.5170 C   0  0  0  0  0  3  0  0  0  0  0  0
  187.4700  175.5830  137.0820 O   0  0  0  0  0  0  0  0  0  0  0  0
  188.5930  176.0840  137.3590 C   0  0  0  0  0  0  0  0  0  0  0  0
  189.5890  175.7080  135.0530 C   0  0  0  0  0  1  0  0  0  0  0  0
  190.8250  176.7260  137.0520 C   0  0  0  0  0  3  0  0  0  0  0  0
  188.9760  179.0750  138.7840 O   0  0  0  0  0  0  0  0  0  0  0  0
  188.6060  179.6020  137.6360 O   0  0  0  0  0  1  0  0  0  0  0  0
  188.5400  178.2620  141.4410 C   0  0  0  0  0  2  0  0  0  0  0  0
  187.3210  177.1410  144.4780 C   0  0  0  0  0  2  0  0  0  0  0  0
  189.7980  176.9070  144.5400 C   0  0  0  0  0  0  0  0  0  0  0  0
  188.7290  177.1120  142.4310 C   0  0  2  0  0  3  0  0  0  0  0  0
  187.8930  177.3910  146.9230 C   0  0  1  0  0  3  0  0  0  0  0  0
  188.6480  177.5840  143.8740 C   0  0  1  0  0  3  0  0  0  0  0  0
  190.6210  176.0940  143.6160 C   0  0  0  0  0  2  0  0  0  0  0  0
  189.3240  177.8950  146.7820 C   0  0  0  0  0  2  0  0  0  0  0  0
  190.1120  177.0400  145.8350 C   0  0  0  0  0  3  0  0  0  0  0  0
  187.3620  177.8600  148.1230 O   0  0  0  0  0  1  0  0  0  0  0  0
  187.0290  177.8900  145.7710 C   0  0  0  0  0  2  0  0  0  0  0  0
  190.0630  176.3920  142.2360 C   0  0  0  0  0  2  0  0  0  0  0  0
  1  3  1  0  0  0  0
  1 17  1  1  0  0  0
  3  5  1  0  0  0  0
  4  2  2  0  0  0  0
  4  3  1  0  0  0  0
  6  4  1  0  0  0  0
  7 15  1  1  0  0  0
  7  1  1  0  0  0  0
  8  7  1  6  0  0  0
  9 14  1  0  0  0  0
  9 12  1  0  0  0  0
 10  8  1  0  0  0  0
 11 12  2  0  0  0  0
 12  8  1  0  0  0  0
 13  9  1  0  0  0  0
 14 10  2  0  0  0  0
 16 15  1  0  0  0  0
 18 27  1  0  0  0  0
 19 25  2  0  0  0  0
 20 17  1  6  0  0  0
 20 22  1  0  0  0  0
 21 26  1  1  0  0  0
 22 18  1  1  0  0  0
 22 19  1  0  0  0  0
 23 19  1  0  0  0  0
 24 21  1  0  0  0  0
 25 24  1  0  0  0  0
 27 21  1  0  0  0  0
 28 20  1  0  0  0  0
 28 23  1  0  0  0  0
M  END
>  <MODEL>
1

>  <REMARK>
 VINA RESULT:      -8.1      0.000      0.000
  Name = 
  6 active torsions:
  status: ('A' for Active; 'I' for Inactive)
    1  A    between atoms: O_1  and  C_2
    2  A    between atoms: C_2  and  C_3
    3  A    between atoms: C_2  and  C_27
    4  A    between atoms: C_10  and  C_17
    5  A    between atoms: N_16  and  C_27
    6  A    between atoms: C_17  and  C_27
                            x       y       z     vdW  Elec       q    Type
                         _______ _______ _______ _____ _____    ______ ____

>  <TORSDO>
F 6

$$$$
=
 OpenBabel10262420463D

 28 30  0  0  1  0  0  0  0  0999 V2000
  186.8840  177.8880  144.3570 C   0  0  1  0  0  3  0  0  0  0  0  0
  184.8860  178.5400  147.3460 O   0  0  0  0  0  0  0  0  0  0  0  0
  186.1650  177.6590  145.6060 N   0  0  0  0  0  0  0  0  0  0  0  0
  185.4820  178.7370  146.2550 C   0  0  0  0  0  0  0  0  0  0  0  0
  186.1900  176.4350  146.1870 O   0  0  0  0  0  1  0  0  0  0  0  0
  185.4640  180.0370  145.6730 N   0  0  0  0  0  1  0  0  0  0  0  0
  188.2620  177.2170  144.3870 C   0  0  2  0  0  3  0  0  0  0  0  0
  189.2410  178.0010  145.2700 C   0  0  2  0  0  3  0  0  0  0  0  0
  191.2170  176.9220  146.1320 N   0  0  0  0  0  0  0  0  0  0  0  0
  190.4720  178.4290  144.4520 C   0  0  0  0  0  3  0  0  0  0  0  0
  189.1880  176.6330  147.2740 O   0  0  0  0  0  0  0  0  0  0  0  0
  189.8340  177.1260  146.3110 C   0  0  0  0  0  0  0  0  0  0  0  0
  192.0460  176.0470  146.9390 C   0  0  0  0  0  1  0  0  0  0  0  0
  191.6820  177.6340  144.9620 C   0  0  0  0  0  3  0  0  0  0  0  0
  188.7680  177.0830  143.0880 O   0  0  0  0  0  0  0  0  0  0  0  0
  189.0140  175.7970  142.9570 O   0  0  0  0  0  1  0  0  0  0  0  0
  186.0480  177.4580  143.1450 C   0  0  0  0  0  2  0  0  0  0  0  0
  183.1020  179.2400  143.4720 C   0  0  0  0  0  2  0  0  0  0  0  0
  183.4220  178.7730  141.0490 C   0  0  0  0  0  0  0  0  0  0  0  0
  185.2990  178.6210  142.4930 C   0  0  2  0  0  3  0  0  0  0  0  0
  180.7510  179.1410  142.5580 C   0  0  1  0  0  3  0  0  0  0  0  0
  183.8000  178.3710  142.4330 C   0  0  1  0  0  3  0  0  0  0  0  0
  184.5730  179.2020  140.2220 C   0  0  0  0  0  2  0  0  0  0  0  0
  181.0030  178.2410  141.3540 C   0  0  0  0  0  2  0  0  0  0  0  0
  182.1790  178.7160  140.5540 C   0  0  0  0  0  3  0  0  0  0  0  0
  179.4280  178.9910  142.9690 O   0  0  0  0  0  1  0  0  0  0  0  0
  181.6740  178.7680  143.7120 C   0  0  0  0  0  2  0  0  0  0  0  0
  185.7940  178.9060  141.0750 C   0  0  0  0  0  2  0  0  0  0  0  0
  1 17  1  6  0  0  0
  1  7  1  0  0  0  0
  1  3  1  0  0  0  0
  3  5  1  0  0  0  0
  3  4  1  0  0  0  0
  4  2  2  0  0  0  0
  6  4  1  0  0  0  0
  7 15  1  6  0  0  0
  8  7  1  6  0  0  0
  8 12  1  0  0  0  0
  9 12  1  0  0  0  0
  9 13  1  0  0  0  0
 10 14  2  0  0  0  0
 10  8  1  0  0  0  0
 12 11  2  0  0  0  0
 14  9  1  0  0  0  0
 16 15  1  0  0  0  0
 18 27  1  0  0  0  0
 19 22  1  0  0  0  0
 20 17  1  6  0  0  0
 21 26  1  1  0  0  0
 21 27  1  0  0  0  0
 22 20  1  0  0  0  0
 22 18  1  1  0  0  0
 23 19  1  0  0  0  0
 23 28  1  0  0  0  0
 24 21  1  0  0  0  0
 25 19  2  0  0  0  0
 25 24  1  0  0  0  0
 28 20  1  0  0  0  0
M  END
>  <MODEL>
2

>  <REMARK>
 VINA RESULT:      -7.8      4.549      7.396
  Name = 
  6 active torsions:
  status: ('A' for Active; 'I' for Inactive)
    1  A    between atoms: O_1  and  C_2
    2  A    between atoms: C_2  and  C_3
    3  A    between atoms: C_2  and  C_27
    4  A    between atoms: C_10  and  C_17
    5  A    between atoms: N_16  and  C_27
    6  A    between atoms: C_17  and  C_27
                            x       y       z     vdW  Elec       q    Type
                         _______ _______ _______ _____ _____    ______ ____

>  <TORSDO>
F 6

$$$$
=
 OpenBabel10262420463D

 28 30  0  0  1  0  0  0  0  0999 V2000
  187.5180  177.9020  139.6490 C   0  0  1  0  0  3  0  0  0  0  0  0
  184.2970  179.5070  140.2830 O   0  0  0  0  0  0  0  0  0  0  0  0
  186.2810  178.6400  139.4150 N   0  0  0  0  0  0  0  0  0  0  0  0
  185.3770  178.8950  140.4950 C   0  0  0  0  0  0  0  0  0  0  0  0
  185.9550  179.0350  138.1600 O   0  0  0  0  0  1  0  0  0  0  0  0
  185.6890  178.4650  141.8180 N   0  0  0  0  0  1  0  0  0  0  0  0
  188.3460  177.7990  138.3630 C   0  0  2  0  0  3  0  0  0  0  0  0
  188.8730  176.3730  138.1550 C   0  0  2  0  0  3  0  0  0  0  0  0
  189.1910  175.5190  135.9240 N   0  0  0  0  0  0  0  0  0  0  0  0
  190.3670  176.4040  137.7900 C   0  0  0  0  0  3  0  0  0  0  0  0
  187.0450  175.4330  136.8660 O   0  0  0  0  0  0  0  0  0  0  0  0
  188.2610  175.7500  136.9560 C   0  0  0  0  0  0  0  0  0  0  0  0
  188.8700  175.0030  134.6060 C   0  0  0  0  0  1  0  0  0  0  0  0
  190.5080  175.9600  136.3270 C   0  0  0  0  0  3  0  0  0  0  0  0
  189.4040  178.7170  138.3900 O   0  0  0  0  0  0  0  0  0  0  0  0
  189.0390  179.6690  137.5570 O   0  0  0  0  0  1  0  0  0  0  0  0
  188.3150  178.5050  140.8130 C   0  0  0  0  0  2  0  0  0  0  0  0
  187.8570  176.7460  143.7560 C   0  0  0  0  0  2  0  0  0  0  0  0
  190.2230  177.5140  143.7110 C   0  0  0  0  0  0  0  0  0  0  0  0
  189.0110  177.4480  141.6710 C   0  0  2  0  0  3  0  0  0  0  0  0
  188.4580  177.0020  146.1940 C   0  0  1  0  0  3  0  0  0  0  0  0
  188.8550  177.7280  143.1580 C   0  0  1  0  0  3  0  0  0  0  0  0
  191.2310  177.1740  142.6810 C   0  0  0  0  0  2  0  0  0  0  0  0
  189.5610  178.0440  146.0580 C   0  0  0  0  0  2  0  0  0  0  0  0
  190.5520  177.6550  145.0010 C   0  0  0  0  0  3  0  0  0  0  0  0
  187.8730  177.1210  147.4530 O   0  0  0  0  0  1  0  0  0  0  0  0
  187.3870  177.2090  145.1290 C   0  0  0  0  0  2  0  0  0  0  0  0
  190.5030  177.3370  141.3580 C   0  0  0  0  0  2  0  0  0  0  0  0
  1 17  1  1  0  0  0
  2  4  2  0  0  0  0
  3  1  1  0  0  0  0
  3  4  1  0  0  0  0
  4  6  1  0  0  0  0
  5  3  1  0  0  0  0
  7 15  1  1  0  0  0
  7  1  1  0  0  0  0
  8  7  1  6  0  0  0
  9 14  1  0  0  0  0
  9 12  1  0  0  0  0
 10  8  1  0  0  0  0
 11 12  2  0  0  0  0
 12  8  1  0  0  0  0
 13  9  1  0  0  0  0
 14 10  2  0  0  0  0
 16 15  1  0  0  0  0
 18 27  1  0  0  0  0
 19 25  2  0  0  0  0
 20 17  1  6  0  0  0
 20 22  1  0  0  0  0
 21 26  1  1  0  0  0
 22 19  1  0  0  0  0
 22 18  1  1  0  0  0
 23 19  1  0  0  0  0
 24 21  1  0  0  0  0
 25 24  1  0  0  0  0
 27 21  1  0  0  0  0
 28 20  1  0  0  0  0
 28 23  1  0  0  0  0
M  END
>  <MODEL>
3

>  <REMARK>
 VINA RESULT:      -7.5      1.031      1.306
  Name = 
  6 active torsions:
  status: ('A' for Active; 'I' for Inactive)
    1  A    between atoms: O_1  and  C_2
    2  A    between atoms: C_2  and  C_3
    3  A    between atoms: C_2  and  C_27
    4  A    between atoms: C_10  and  C_17
    5  A    between atoms: N_16  and  C_27
    6  A    between atoms: C_17  and  C_27
                            x       y       z     vdW  Elec       q    Type
                         _______ _______ _______ _____ _____    ______ ____

>  <TORSDO>
F 6

$$$$
=
 OpenBabel10262420463D

 28 30  0  0  1  0  0  0  0  0999 V2000
  189.4430  177.9810  141.7590 C   0  0  1  0  0  3  0  0  0  0  0  0
  191.4490  175.5230  143.5710 O   0  0  0  0  0  0  0  0  0  0  0  0
  189.8680  176.7080  142.3320 N   0  0  0  0  0  0  0  0  0  0  0  0
  191.0720  176.6280  143.1020 C   0  0  0  0  0  0  0  0  0  0  0  0
  189.1530  175.5830  142.0870 O   0  0  0  0  0  1  0  0  0  0  0  0
  191.8510  177.7960  143.3500 N   0  0  0  0  0  1  0  0  0  0  0  0
  188.8070  177.7760  140.3790 C   0  0  2  0  0  3  0  0  0  0  0  0
  189.8490  177.9180  139.2620 C   0  0  2  0  0  3  0  0  0  0  0  0
  189.6330  176.6230  137.2400 N   0  0  0  0  0  0  0  0  0  0  0  0
  189.2990  178.8020  138.1290 C   0  0  0  0  0  3  0  0  0  0  0  0
  190.6250  175.6230  139.1160 O   0  0  0  0  0  0  0  0  0  0  0  0
  190.0750  176.6210  138.5780 C   0  0  0  0  0  0  0  0  0  0  0  0
  189.6430  175.4760  136.3520 C   0  0  0  0  0  1  0  0  0  0  0  0
  189.0720  177.9120  136.8980 C   0  0  0  0  0  3  0  0  0  0  0  0
  187.7540  178.6780  140.1890 O   0  0  0  0  0  0  0  0  0  0  0  0
  186.8100  177.9710  139.6050 O   0  0  0  0  0  1  0  0  0  0  0  0
  188.5250  178.7470  142.7200 C   0  0  0  0  0  2  0  0  0  0  0  0
  185.1830  177.8810  142.5070 C   0  0  0  0  0  2  0  0  0  0  0  0
  185.7050  178.2410  144.9130 C   0  0  0  0  0  0  0  0  0  0  0  0
  187.4980  177.8480  143.4080 C   0  0  2  0  0  3  0  0  0  0  0  0
  182.9920  178.6500  143.4940 C   0  0  1  0  0  3  0  0  0  0  0  0
  186.1360  178.5150  143.5130 C   0  0  1  0  0  3  0  0  0  0  0  0
  186.7130  177.5010  145.7080 C   0  0  0  0  0  2  0  0  0  0  0  0
  183.5300  179.4420  144.6800 C   0  0  0  0  0  2  0  0  0  0  0  0
  184.5480  178.6510  145.4470 C   0  0  0  0  0  3  0  0  0  0  0  0
  181.7540  179.1720  143.1240 O   0  0  0  0  0  1  0  0  0  0  0  0
  183.9430  178.7420  142.3070 C   0  0  0  0  0  2  0  0  0  0  0  0
  187.9380  177.4340  144.8130 C   0  0  0  0  0  2  0  0  0  0  0  0
  1  3  1  0  0  0  0
  1 17  1  1  0  0  0
  3  4  1  0  0  0  0
  4  6  1  0  0  0  0
  4  2  2  0  0  0  0
  5  3  1  0  0  0  0
  7 15  1  6  0  0  0
  7  1  1  0  0  0  0
  8  7  1  1  0  0  0
  9 12  1  0  0  0  0
 10  8  1  0  0  0  0
 12 11  2  0  0  0  0
 12  8  1  0  0  0  0
 13  9  1  0  0  0  0
 14  9  1  0  0  0  0
 14 10  2  0  0  0  0
 16 15  1  0  0  0  0
 19 25  2  0  0  0  0
 19 23  1  0  0  0  0
 20 17  1  1  0  0  0
 20 22  1  0  0  0  0
 20 28  1  0  0  0  0
 21 26  1  6  0  0  0
 21 24  1  0  0  0  0
 22 18  1  6  0  0  0
 22 19  1  0  0  0  0
 24 25  1  0  0  0  0
 27 18  1  0  0  0  0
 27 21  1  0  0  0  0
 28 23  1  0  0  0  0
M  END
>  <MODEL>
4

>  <REMARK>
 VINA RESULT:      -7.5      3.053      4.501
  Name = 
  6 active torsions:
  status: ('A' for Active; 'I' for Inactive)
    1  A    between atoms: O_1  and  C_2
    2  A    between atoms: C_2  and  C_3
    3  A    between atoms: C_2  and  C_27
    4  A    between atoms: C_10  and  C_17
    5  A    between atoms: N_16  and  C_27
    6  A    between atoms: C_17  and  C_27
                            x       y       z     vdW  Elec       q    Type
                         _______ _______ _______ _____ _____    ______ ____

>  <TORSDO>
F 6

$$$$
=
 OpenBabel10262420463D

 28 30  0  0  1  0  0  0  0  0999 V2000
  189.8060  177.2850  142.3550 C   0  0  1  0  0  3  0  0  0  0  0  0
  192.0560  175.5940  144.6850 O   0  0  0  0  0  0  0  0  0  0  0  0
  190.4690  176.2140  143.0930 N   0  0  0  0  0  0  0  0  0  0  0  0
  191.4670  176.5220  144.0720 C   0  0  0  0  0  0  0  0  0  0  0  0
  190.1820  174.9200  142.8120 O   0  0  0  0  0  1  0  0  0  0  0  0
  191.8010  177.8760  144.3640 N   0  0  0  0  0  1  0  0  0  0  0  0
  190.3860  177.4170  140.9430 C   0  0  2  0  0  3  0  0  0  0  0  0
  189.4570  176.7820  139.9000 C   0  0  2  0  0  3  0  0  0  0  0  0
  189.2020  177.8020  137.7310 N   0  0  0  0  0  0  0  0  0  0  0  0
  190.2760  176.0050  138.8560 C   0  0  0  0  0  3  0  0  0  0  0  0
  187.9290  178.6290  139.5190 O   0  0  0  0  0  0  0  0  0  0  0  0
  188.7910  177.8230  139.0780 C   0  0  0  0  0  0  0  0  0  0  0  0
  188.7910  178.7520  136.7140 C   0  0  0  0  0  1  0  0  0  0  0  0
  190.1760  176.7540  137.5190 C   0  0  0  0  0  3  0  0  0  0  0  0
  191.6600  176.8400  140.8830 O   0  0  0  0  0  0  0  0  0  0  0  0
  192.4690  177.8440  140.6210 O   0  0  0  0  0  1  0  0  0  0  0  0
  188.2840  177.0990  142.3500 C   0  0  0  0  0  2  0  0  0  0  0  0
  188.5830  178.5760  145.4630 C   0  0  0  0  0  2  0  0  0  0  0  0
  186.2070  177.8870  145.1940 C   0  0  0  0  0  0  0  0  0  0  0  0
  187.5570  178.0960  143.2520 C   0  0  2  0  0  3  0  0  0  0  0  0
  187.8110  178.1250  147.8230 C   0  0  1  0  0  3  0  0  0  0  0  0
  187.6030  177.6810  144.7150 C   0  0  1  0  0  3  0  0  0  0  0  0
  185.2800  178.3470  144.1340 C   0  0  0  0  0  2  0  0  0  0  0  0
  186.6940  177.1330  147.5220 C   0  0  0  0  0  2  0  0  0  0  0  0
  185.7870  177.6430  146.4420 C   0  0  0  0  0  3  0  0  0  0  0  0
  188.3050  177.8780  149.1030 O   0  0  0  0  0  1  0  0  0  0  0  0
  188.9470  177.9800  146.8170 C   0  0  0  0  0  2  0  0  0  0  0  0
  186.0930  178.2790  142.8530 C   0  0  0  0  0  2  0  0  0  0  0  0
  1 17  1  6  0  0  0
  1  3  1  0  0  0  0
  3  4  1  0  0  0  0
  4  6  1  0  0  0  0
  4  2  2  0  0  0  0
  5  3  1  0  0  0  0
  7 15  1  1  0  0  0
  7  1  1  0  0  0  0
  8  7  1  1  0  0  0
  9 12  1  0  0  0  0
 10  8  1  0  0  0  0
 12 11  2  0  0  0  0
 12  8  1  0  0  0  0
 13  9  1  0  0  0  0
 14  9  1  0  0  0  0
 14 10  2  0  0  0  0
 16 15  1  0  0  0  0
 18 27  1  0  0  0  0
 19 25  2  0  0  0  0
 20 17  1  6  0  0  0
 20 22  1  0  0  0  0
 21 26  1  1  0  0  0
 22 19  1  0  0  0  0
 22 18  1  1  0  0  0
 23 19  1  0  0  0  0
 24 21  1  0  0  0  0
 25 24  1  0  0  0  0
 27 21  1  0  0  0  0
 28 20  1  0  0  0  0
 28 23  1  0  0  0  0
M  END
>  <MODEL>
5

>  <REMARK>
 VINA RESULT:      -7.3      2.870      4.371
  Name = 
  6 active torsions:
  status: ('A' for Active; 'I' for Inactive)
    1  A    between atoms: O_1  and  C_2
    2  A    between atoms: C_2  and  C_3
    3  A    between atoms: C_2  and  C_27
    4  A    between atoms: C_10  and  C_17
    5  A    between atoms: N_16  and  C_27
    6  A    between atoms: C_17  and  C_27
                            x       y       z     vdW  Elec       q    Type
                         _______ _______ _______ _____ _____    ______ ____

>  <TORSDO>
F 6

$$$$
=
 OpenBabel10262420463D

 28 30  0  0  1  0  0  0  0  0999 V2000
  183.2640  178.4580  140.0090 C   0  0  1  0  0  3  0  0  0  0  0  0
  185.3500  176.9970  137.3890 O   0  0  0  0  0  0  0  0  0  0  0  0
  183.7590  177.5110  139.0140 N   0  0  0  0  0  0  0  0  0  0  0  0
  184.9430  177.8030  138.2650 C   0  0  0  0  0  0  0  0  0  0  0  0
  183.0640  176.3770  138.7550 O   0  0  0  0  0  1  0  0  0  0  0  0
  185.6740  179.0030  138.5050 N   0  0  0  0  0  1  0  0  0  0  0  0
  181.8490  178.9310  139.6570 C   0  0  2  0  0  3  0  0  0  0  0  0
  181.8810  180.0300  138.5870 C   0  0  2  0  0  3  0  0  0  0  0  0
  180.0010  180.3300  137.1090 N   0  0  0  0  0  0  0  0  0  0  0  0
  181.0470  181.2400  139.0390 C   0  0  0  0  0  3  0  0  0  0  0  0
  181.5880  178.6810  136.5910 O   0  0  0  0  0  0  0  0  0  0  0  0
  181.1770  179.5940  137.3560 C   0  0  0  0  0  0  0  0  0  0  0  0
  179.0630  180.0730  136.0330 C   0  0  0  0  0  1  0  0  0  0  0  0
  179.8040  181.3230  138.1400 C   0  0  0  0  0  3  0  0  0  0  0  0
  181.1860  179.3820  140.8060 O   0  0  0  0  0  0  0  0  0  0  0  0
  180.1130  178.6250  140.8890 O   0  0  0  0  0  1  0  0  0  0  0  0
  183.3540  177.8770  141.4250 C   0  0  0  0  0  2  0  0  0  0  0  0
  186.6590  178.7160  142.0060 C   0  0  0  0  0  2  0  0  0  0  0  0
  185.6130  178.2470  144.2140 C   0  0  0  0  0  0  0  0  0  0  0  0
  184.2010  178.7310  142.3690 C   0  0  2  0  0  3  0  0  0  0  0  0
  188.5750  177.8770  143.4180 C   0  0  1  0  0  3  0  0  0  0  0  0
  185.5060  178.0440  142.7410 C   0  0  1  0  0  3  0  0  0  0  0  0
  184.4530  178.9580  144.7990 C   0  0  0  0  0  2  0  0  0  0  0  0
  187.7860  177.0350  144.4120 C   0  0  0  0  0  2  0  0  0  0  0  0
  186.6220  177.7990  144.9720 C   0  0  0  0  0  3  0  0  0  0  0  0
  189.8650  177.3610  143.3080 O   0  0  0  0  0  1  0  0  0  0  0  0
  187.9130  177.8530  142.0450 C   0  0  0  0  0  2  0  0  0  0  0  0
  183.4590  179.0800  143.6580 C   0  0  0  0  0  2  0  0  0  0  0  0
  1 17  1  1  0  0  0
  2  4  2  0  0  0  0
  3  1  1  0  0  0  0
  4  6  1  0  0  0  0
  4  3  1  0  0  0  0
  5  3  1  0  0  0  0
  7  1  1  0  0  0  0
  7 15  1  1  0  0  0
  8 10  1  0  0  0  0
  8  7  1  1  0  0  0
  9 12  1  0  0  0  0
  9 14  1  0  0  0  0
 11 12  2  0  0  0  0
 12  8  1  0  0  0  0
 13  9  1  0  0  0  0
 14 10  2  0  0  0  0
 15 16  1  0  0  0  0
 18 27  1  0  0  0  0
 19 23  1  0  0  0  0
 19 25  2  0  0  0  0
 20 17  1  6  0  0  0
 20 22  1  0  0  0  0
 20 28  1  0  0  0  0
 21 26  1  6  0  0  0
 21 24  1  0  0  0  0
 22 18  1  6  0  0  0
 22 19  1  0  0  0  0
 24 25  1  0  0  0  0
 27 21  1  0  0  0  0
 28 23  1  0  0  0  0
M  END
>  <MODEL>
6

>  <REMARK>
 VINA RESULT:      -7.2      3.661      6.542
  Name = 
  6 active torsions:
  status: ('A' for Active; 'I' for Inactive)
    1  A    between atoms: O_1  and  C_2
    2  A    between atoms: C_2  and  C_3
    3  A    between atoms: C_2  and  C_27
    4  A    between atoms: C_10  and  C_17
    5  A    between atoms: N_16  and  C_27
    6  A    between atoms: C_17  and  C_27
                            x       y       z     vdW  Elec       q    Type
                         _______ _______ _______ _____ _____    ______ ____

>  <TORSDO>
F 6

$$$$
=
 OpenBabel10262420463D

 28 30  0  0  1  0  0  0  0  0999 V2000
  188.6200  176.9410  138.8910 C   0  0  1  0  0  3  0  0  0  0  0  0
  185.3870  177.2210  137.2120 O   0  0  0  0  0  0  0  0  0  0  0  0
  187.3320  177.4840  138.4720 N   0  0  0  0  0  0  0  0  0  0  0  0
  186.4840  176.7370  137.5930 C   0  0  0  0  0  0  0  0  0  0  0  0
  186.9590  178.7250  138.8690 O   0  0  0  0  0  1  0  0  0  0  0  0
  186.8700  175.4400  137.1450 N   0  0  0  0  0  1  0  0  0  0  0  0
  189.5140  176.6550  137.6790 C   0  0  2  0  0  3  0  0  0  0  0  0
  190.7000  175.7610  138.0630 C   0  0  2  0  0  3  0  0  0  0  0  0
  191.7760  174.4010  136.3900 N   0  0  0  0  0  0  0  0  0  0  0  0
  192.0230  176.4140  137.6280 C   0  0  0  0  0  3  0  0  0  0  0  0
  189.8230  173.5950  137.4090 O   0  0  0  0  0  0  0  0  0  0  0  0
  190.6900  174.5010  137.2810 C   0  0  0  0  0  0  0  0  0  0  0  0
  191.9820  173.3260  135.4360 C   0  0  0  0  0  1  0  0  0  0  0  0
  192.6140  175.5750  136.4850 C   0  0  0  0  0  3  0  0  0  0  0  0
  189.9640  177.8540  137.1120 O   0  0  0  0  0  0  0  0  0  0  0  0
  189.3190  177.9440  135.9680 O   0  0  0  0  0  1  0  0  0  0  0  0
  189.3010  177.8520  139.9200 C   0  0  0  0  0  2  0  0  0  0  0  0
  188.3910  176.4270  142.9380 C   0  0  0  0  0  2  0  0  0  0  0  0
  190.5250  177.6530  143.3090 C   0  0  0  0  0  0  0  0  0  0  0  0
  189.9150  177.0790  141.0880 C   0  0  2  0  0  3  0  0  0  0  0  0
  188.2840  177.1110  145.3660 C   0  0  1  0  0  3  0  0  0  0  0  0
  189.3330  177.5100  142.4250 C   0  0  1  0  0  3  0  0  0  0  0  0
  191.8090  177.3990  142.6170 C   0  0  0  0  0  2  0  0  0  0  0  0
  189.1950  178.3310  145.3090 C   0  0  0  0  0  2  0  0  0  0  0  0
  190.4770  178.0220  144.5950 C   0  0  0  0  0  3  0  0  0  0  0  0
  187.3800  177.2670  146.4140 O   0  0  0  0  0  1  0  0  0  0  0  0
  187.5090  176.9550  144.0620 C   0  0  0  0  0  2  0  0  0  0  0  0
  191.4340  177.2390  141.1540 C   0  0  0  0  0  2  0  0  0  0  0  0
  1 17  1  1  0  0  0
  2  4  2  0  0  0  0
  3  5  1  0  0  0  0
  3  1  1  0  0  0  0
  4  3  1  0  0  0  0
  6  4  1  0  0  0  0
  7 15  1  1  0  0  0
  7  1  1  0  0  0  0
  8  7  1  6  0  0  0
  9 14  1  0  0  0  0
  9 12  1  0  0  0  0
 10  8  1  0  0  0  0
 12 11  2  0  0  0  0
 12  8  1  0  0  0  0
 13  9  1  0  0  0  0
 14 10  2  0  0  0  0
 16 15  1  0  0  0  0
 18 27  1  0  0  0  0
 19 25  2  0  0  0  0
 20 17  1  6  0  0  0
 20 28  1  0  0  0  0
 20 22  1  0  0  0  0
 21 26  1  1  0  0  0
 22 18  1  1  0  0  0
 22 19  1  0  0  0  0
 23 19  1  0  0  0  0
 24 21  1  0  0  0  0
 25 24  1  0  0  0  0
 27 21  1  0  0  0  0
 28 23  1  0  0  0  0
M  END
>  <MODEL>
7

>  <REMARK>
 VINA RESULT:      -7.1      1.967      2.325
  Name = 
  6 active torsions:
  status: ('A' for Active; 'I' for Inactive)
    1  A    between atoms: O_1  and  C_2
    2  A    between atoms: C_2  and  C_3
    3  A    between atoms: C_2  and  C_27
    4  A    between atoms: C_10  and  C_17
    5  A    between atoms: N_16  and  C_27
    6  A    between atoms: C_17  and  C_27
                            x       y       z     vdW  Elec       q    Type
                         _______ _______ _______ _____ _____    ______ ____

>  <TORSDO>
F 6

$$$$
=
 OpenBabel10262420463D

 28 30  0  0  1  0  0  0  0  0999 V2000
  182.7390  177.9760  139.7770 C   0  0  1  0  0  3  0  0  0  0  0  0
  185.7770  178.6180  137.8510 O   0  0  0  0  0  0  0  0  0  0  0  0
  183.9070  177.7410  138.9340 N   0  0  0  0  0  0  0  0  0  0  0  0
  184.7870  178.8200  138.6010 C   0  0  0  0  0  0  0  0  0  0  0  0
  184.1300  176.5090  138.4140 O   0  0  0  0  0  1  0  0  0  0  0  0
  184.5550  180.1280  139.1180 N   0  0  0  0  0  1  0  0  0  0  0  0
  181.4820  177.3570  139.1560 C   0  0  2  0  0  3  0  0  0  0  0  0
  180.3590  178.3940  139.0270 C   0  0  2  0  0  3  0  0  0  0  0  0
  179.9710  179.9780  140.8020 N   0  0  0  0  0  0  0  0  0  0  0  0
  180.9390  179.7650  138.6430 C   0  0  0  0  0  3  0  0  0  0  0  0
  179.0410  177.8320  140.9870 O   0  0  0  0  0  0  0  0  0  0  0  0
  179.7340  178.6660  140.3450 C   0  0  0  0  0  0  0  0  0  0  0  0
  179.5610  180.5030  142.0910 C   0  0  0  0  0  1  0  0  0  0  0  0
  180.7700  180.7070  139.8440 C   0  0  0  0  0  3  0  0  0  0  0  0
  181.0540  176.2590  139.9130 O   0  0  0  0  0  0  0  0  0  0  0  0
  181.0630  175.2490  139.0690 O   0  0  0  0  0  1  0  0  0  0  0  0
  182.9830  177.4940  141.2130 C   0  0  0  0  0  2  0  0  0  0  0  0
  186.1280  178.6360  142.0900 C   0  0  0  0  0  2  0  0  0  0  0  0
  184.7810  178.4940  144.1770 C   0  0  0  0  0  0  0  0  0  0  0  0
  183.6450  178.5540  142.0940 C   0  0  2  0  0  3  0  0  0  0  0  0
  187.8410  178.1850  143.8880 C   0  0  1  0  0  3  0  0  0  0  0  0
  184.9040  178.0300  142.7660 C   0  0  1  0  0  3  0  0  0  0  0  0
  183.5190  179.2200  144.4530 C   0  0  0  0  0  2  0  0  0  0  0  0
  186.9440  177.4810  144.8980 C   0  0  0  0  0  2  0  0  0  0  0  0
  185.6810  178.2530  145.1390 C   0  0  0  0  0  3  0  0  0  0  0  0
  189.1510  177.7430  144.0570 O   0  0  0  0  0  1  0  0  0  0  0  0
  187.3940  177.8770  142.4630 C   0  0  0  0  0  2  0  0  0  0  0  0
  182.7040  179.0750  143.1800 C   0  0  0  0  0  2  0  0  0  0  0  0
  1 17  1  1  0  0  0
  2  4  2  0  0  0  0
  3  1  1  0  0  0  0
  4  3  1  0  0  0  0
  4  6  1  0  0  0  0
  5  3  1  0  0  0  0
  7  1  1  0  0  0  0
  7 15  1  1  0  0  0
  8  7  1  1  0  0  0
  8 12  1  0  0  0  0
  9 13  1  0  0  0  0
 10  8  1  0  0  0  0
 10 14  2  0  0  0  0
 12  9  1  0  0  0  0
 12 11  2  0  0  0  0
 14  9  1  0  0  0  0
 16 15  1  0  0  0  0
 18 27  1  0  0  0  0
 19 23  1  0  0  0  0
 19 25  2  0  0  0  0
 20 17  1  1  0  0  0
 20 22  1  0  0  0  0
 20 28  1  0  0  0  0
 21 26  1  6  0  0  0
 21 24  1  0  0  0  0
 22 18  1  6  0  0  0
 22 19  1  0  0  0  0
 24 25  1  0  0  0  0
 27 21  1  0  0  0  0
 28 23  1  0  0  0  0
M  END
>  <MODEL>
8

>  <REMARK>
 VINA RESULT:      -7.0      3.975      6.961
  Name = 
  6 active torsions:
  status: ('A' for Active; 'I' for Inactive)
    1  A    between atoms: O_1  and  C_2
    2  A    between atoms: C_2  and  C_3
    3  A    between atoms: C_2  and  C_27
    4  A    between atoms: C_10  and  C_17
    5  A    between atoms: N_16  and  C_27
    6  A    between atoms: C_17  and  C_27
                            x       y       z     vdW  Elec       q    Type
                         _______ _______ _______ _____ _____    ______ ____

>  <TORSDO>
F 6

$$$$
=
 OpenBabel10262420463D

 28 30  0  0  1  0  0  0  0  0999 V2000
  189.3580  177.6340  141.2660 C   0  0  1  0  0  3  0  0  0  0  0  0
  186.1860  179.4470  141.2260 O   0  0  0  0  0  0  0  0  0  0  0  0
  188.3540  178.6390  140.9320 N   0  0  0  0  0  0  0  0  0  0  0  0
  187.0580  178.5950  141.5380 C   0  0  0  0  0  0  0  0  0  0  0  0
  188.6270  179.5860  140.0010 O   0  0  0  0  0  1  0  0  0  0  0  0
  186.7430  177.5920  142.5010 N   0  0  0  0  0  1  0  0  0  0  0  0
  190.3020  177.3890  140.0830 C   0  0  2  0  0  3  0  0  0  0  0  0
  189.7410  176.3170  139.1390 C   0  0  2  0  0  3  0  0  0  0  0  0
  189.8300  176.6450  136.7530 N   0  0  0  0  0  0  0  0  0  0  0  0
  190.8840  175.4840  138.5380 C   0  0  0  0  0  3  0  0  0  0  0  0
  188.0740  177.6280  137.9590 O   0  0  0  0  0  0  0  0  0  0  0  0
  189.1260  176.9360  137.9390 C   0  0  0  0  0  0  0  0  0  0  0  0
  189.5180  177.1810  135.4410 C   0  0  0  0  0  1  0  0  0  0  0  0
  190.9750  175.8110  137.0400 C   0  0  0  0  0  3  0  0  0  0  0  0
  191.5740  177.0240  140.5420 O   0  0  0  0  0  0  0  0  0  0  0  0
  192.3870  177.9110  140.0080 O   0  0  0  0  0  1  0  0  0  0  0  0
  190.1110  178.0040  142.5500 C   0  0  0  0  0  2  0  0  0  0  0  0
  188.3210  176.9770  145.3260 C   0  0  0  0  0  2  0  0  0  0  0  0
  190.7370  176.7480  145.8750 C   0  0  0  0  0  0  0  0  0  0  0  0
  190.0980  176.8850  143.5930 C   0  0  2  0  0  3  0  0  0  0  0  0
  188.4090  177.3050  147.8270 C   0  0  1  0  0  3  0  0  0  0  0  0
  189.7420  177.4020  144.9780 C   0  0  1  0  0  3  0  0  0  0  0  0
  191.7200  175.9070  145.1540 C   0  0  0  0  0  2  0  0  0  0  0  0
  189.8430  177.8050  147.9510 C   0  0  0  0  0  2  0  0  0  0  0  0
  190.7950  176.9220  147.2010 C   0  0  0  0  0  3  0  0  0  0  0  0
  187.6580  177.8110  148.8860 O   0  0  0  0  0  1  0  0  0  0  0  0
  187.7870  177.7670  146.5140 C   0  0  0  0  0  2  0  0  0  0  0  0
  191.4410  176.1610  143.6830 C   0  0  0  0  0  2  0  0  0  0  0  0
  1 17  1  1  0  0  0
  2  4  2  0  0  0  0
  3  1  1  0  0  0  0
  3  4  1  0  0  0  0
  4  6  1  0  0  0  0
  5  3  1  0  0  0  0
  7 15  1  1  0  0  0
  7  1  1  0  0  0  0
  8  7  1  1  0  0  0
  9 14  1  0  0  0  0
  9 12  1  0  0  0  0
 10  8  1  0  0  0  0
 12 11  2  0  0  0  0
 12  8  1  0  0  0  0
 13  9  1  0  0  0  0
 14 10  2  0  0  0  0
 16 15  1  0  0  0  0
 18 27  1  0  0  0  0
 19 25  2  0  0  0  0
 20 17  1  6  0  0  0
 20 28  1  0  0  0  0
 20 22  1  0  0  0  0
 21 24  1  0  0  0  0
 21 26  1  1  0  0  0
 22 18  1  1  0  0  0
 22 19  1  0  0  0  0
 23 19  1  0  0  0  0
 25 24  1  0  0  0  0
 27 21  1  0  0  0  0
 28 23  1  0  0  0  0
M  END
>  <MODEL>
9

>  <REMARK>
 VINA RESULT:      -7.0      1.632      2.199
  Name = 
  6 active torsions:
  status: ('A' for Active; 'I' for Inactive)
    1  A    between atoms: O_1  and  C_2
    2  A    between atoms: C_2  and  C_3
    3  A    between atoms: C_2  and  C_27
    4  A    between atoms: C_10  and  C_17
    5  A    between atoms: N_16  and  C_27
    6  A    between atoms: C_17  and  C_27
                            x       y       z     vdW  Elec       q    Type
                         _______ _______ _______ _____ _____    ______ ____

>  <TORSDO>
F 6

$$$$
