=
 OpenBabel10252414523D

 34 38  0  0  1  0  0  0  0  0999 V2000
  189.0360  176.7740  141.5090 N   0  0  0  0  0  0  0  0  0  0  0  0
  191.3830  176.8100  142.0450 C   0  0  0  0  0  2  0  0  0  0  0  0
  189.1700  176.2930  142.8830 C   0  0  0  0  0  2  0  0  0  0  0  0
  190.6440  176.3350  143.2710 C   0  0  2  0  0  3  0  0  0  0  0  0
  190.3770  176.6110  140.9320 C   0  0  2  0  0  3  0  0  0  0  0  0
  191.0310  175.9980  137.7010 C   0  0  0  0  0  0  0  0  0  0  0  0
  193.0200  176.7450  138.9000 C   0  0  0  0  0  0  0  0  0  0  0  0
  190.6410  177.4590  139.6720 C   0  0  1  0  0  3  0  0  0  0  0  0
  193.1860  174.7420  137.4220 C   0  0  0  0  0  2  0  0  0  0  0  0
  193.8250  175.8250  138.1610 N   0  0  0  0  0  2  0  0  0  0  0  0
  191.5560  176.7280  138.7090 C   0  0  0  0  0  0  0  0  0  0  0  0
  191.9170  175.2510  136.7370 C   0  0  0  0  0  2  0  0  0  0  0  0
  189.3880  177.7670  139.0460 O   0  0  0  0  0  0  0  0  0  0  0  0
  189.5910  176.0740  137.4070 C   0  0  0  0  0  3  0  0  0  0  0  0
  193.5620  177.5720  139.6780 O   0  0  0  0  0  0  0  0  0  0  0  0
  188.8270  176.9470  138.0590 C   0  0  0  0  0  3  0  0  0  0  0  0
  190.8810  177.2690  144.4520 C   0  0  0  0  0  2  0  0  0  0  0  0
  190.4620  176.6610  145.6700 O   0  0  0  0  0  0  0  0  0  0  0  0
  191.0920  177.4190  148.2830 O   0  0  0  0  0  1  0  0  0  0  0  0
  189.4760  177.2120  146.4930 C   0  0  0  0  0  0  0  0  0  0  0  0
  189.8000  177.5890  147.8020 C   0  0  0  0  0  0  0  0  0  0  0  0
  187.5250  178.3080  148.1410 C   0  0  0  0  0  3  0  0  0  0  0  0
  187.2240  177.9390  146.8670 N   0  0  0  0  0  0  0  0  0  0  0  0
  188.1620  177.4010  146.0420 C   0  0  0  0  0  3  0  0  0  0  0  0
  188.8210  178.1400  148.6320 C   0  0  0  0  0  3  0  0  0  0  0  0
  188.6750  178.1910  141.5980 C   0  0  0  0  0  2  0  0  0  0  0  0
  184.4140  178.5930  141.8310 C   0  0  0  0  0  0  0  0  0  0  0  0
  186.4620  178.6910  140.5410 C   0  0  0  0  0  3  0  0  0  0  0  0
  185.1470  178.2350  142.9670 C   0  0  0  0  0  3  0  0  0  0  0  0
  185.0720  178.8160  140.6170 C   0  0  0  0  0  3  0  0  0  0  0  0
  186.5370  178.1080  142.8920 C   0  0  0  0  0  3  0  0  0  0  0  0
  187.1960  178.3430  141.6800 C   0  0  0  0  0  0  0  0  0  0  0  0
  182.6360  178.7490  141.9260 S   0  0  0  0  0  0  0  0  0  0  0  0
  182.6690  178.9470  144.0450 S   0  0  0  0  0  1  0  0  0  0  0  0
  1 26  1  0  0  0  0
  1  3  1  0  0  0  0
  2  4  1  0  0  0  0
  3  4  1  0  0  0  0
  4 17  1  1  0  0  0
  5  1  1  0  0  0  0
  5  2  1  1  0  0  0
  6 11  2  0  0  0  0
  7 15  2  0  0  0  0
  8 11  1  6  0  0  0
  8  5  1  0  0  0  0
  9 10  1  0  0  0  0
 10  7  1  0  0  0  0
 11  7  1  0  0  0  0
 12  9  1  0  0  0  0
 12  6  1  0  0  0  0
 13  8  1  0  0  0  0
 14  6  1  0  0  0  0
 14 16  2  0  0  0  0
 16 13  1  0  0  0  0
 17 18  1  0  0  0  0
 18 20  1  0  0  0  0
 20 21  1  0  0  0  0
 21 19  1  0  0  0  0
 21 25  2  0  0  0  0
 22 25  1  0  0  0  0
 23 22  2  0  0  0  0
 24 20  2  0  0  0  0
 24 23  1  0  0  0  0
 26 32  1  0  0  0  0
 27 33  1  0  0  0  0
 27 29  1  0  0  0  0
 28 30  1  0  0  0  0
 28 32  2  0  0  0  0
 30 27  2  0  0  0  0
 31 29  2  0  0  0  0
 32 31  1  0  0  0  0
 33 34  1  0  0  0  0
M  END
>  <MODEL>
1

>  <REMARK>
 VINA RESULT:      -8.7      0.000      0.000
  Name = 
  7 active torsions:
  status: ('A' for Active; 'I' for Inactive)
    1  A    between atoms: O_3  and  C_13
    2  A    between atoms: O_3  and  C_17
    3  A    between atoms: C_4  and  C_31
    4  A    between atoms: N_5  and  C_26
    5  A    between atoms: S_7  and  C_8
    6  A    between atoms: C_17  and  C_29
    7  A    between atoms: C_26  and  C_28
                            x       y       z     vdW  Elec       q    Type
                         _______ _______ _______ _____ _____    ______ ____

>  <TORSDO>
F 7

$$$$
=
 OpenBabel10252414523D

 34 38  0  0  1  0  0  0  0  0999 V2000
  186.5040  178.5570  142.4520 N   0  0  0  0  0  0  0  0  0  0  0  0
  188.4400  177.5800  141.4070 C   0  0  0  0  0  2  0  0  0  0  0  0
  186.6950  179.2440  141.1760 C   0  0  0  0  0  2  0  0  0  0  0  0
  187.8950  178.6280  140.4670 C   0  0  2  0  0  3  0  0  0  0  0  0
  187.8060  177.9380  142.7330 C   0  0  2  0  0  3  0  0  0  0  0  0
  189.1760  177.3030  145.7270 C   0  0  0  0  0  0  0  0  0  0  0  0
  190.2330  176.0030  143.9550 C   0  0  0  0  0  0  0  0  0  0  0  0
  187.7610  176.7830  143.7540 C   0  0  1  0  0  3  0  0  0  0  0  0
  191.6810  177.2100  145.5890 C   0  0  0  0  0  2  0  0  0  0  0  0
  191.5100  176.1810  144.5690 N   0  0  0  0  0  2  0  0  0  0  0  0
  189.0610  176.6940  144.5280 C   0  0  0  0  0  0  0  0  0  0  0  0
  190.4610  177.2410  146.5120 C   0  0  0  0  0  2  0  0  0  0  0  0
  186.6540  176.9890  144.6420 O   0  0  0  0  0  0  0  0  0  0  0  0
  187.9890  177.8790  146.3790 C   0  0  0  0  0  3  0  0  0  0  0  0
  190.1150  175.2450  142.9570 O   0  0  0  0  0  0  0  0  0  0  0  0
  186.7840  177.6970  145.8430 C   0  0  0  0  0  3  0  0  0  0  0  0
  187.4950  178.0120  139.1310 C   0  0  0  0  0  2  0  0  0  0  0  0
  186.5210  178.8170  138.4740 O   0  0  0  0  0  0  0  0  0  0  0  0
  184.1800  180.2070  139.0930 O   0  0  0  0  0  1  0  0  0  0  0  0
  185.2840  178.3200  138.0550 C   0  0  0  0  0  0  0  0  0  0  0  0
  184.1150  179.0230  138.3700 C   0  0  0  0  0  0  0  0  0  0  0  0
  182.8170  177.3440  137.2280 C   0  0  0  0  0  3  0  0  0  0  0  0
  183.9600  176.6720  136.9280 N   0  0  0  0  0  0  0  0  0  0  0  0
  185.1790  177.1300  137.3210 C   0  0  0  0  0  3  0  0  0  0  0  0
  182.8740  178.5340  137.9560 C   0  0  0  0  0  3  0  0  0  0  0  0
  185.4780  177.5350  142.2250 C   0  0  0  0  0  2  0  0  0  0  0  0
  181.5660  179.1310  142.9460 C   0  0  0  0  0  0  0  0  0  0  0  0
  183.1590  178.0770  141.4560 C   0  0  0  0  0  3  0  0  0  0  0  0
  182.5270  179.1450  143.9630 C   0  0  0  0  0  3  0  0  0  0  0  0
  181.8820  178.5920  141.6940 C   0  0  0  0  0  3  0  0  0  0  0  0
  183.8040  178.6290  143.7260 C   0  0  0  0  0  3  0  0  0  0  0  0
  184.1230  178.1000  142.4710 C   0  0  0  0  0  0  0  0  0  0  0  0
  179.9310  179.7850  143.2510 S   0  0  0  0  0  0  0  0  0  0  0  0
  179.6810  180.3730  141.2200 S   0  0  0  0  0  1  0  0  0  0  0  0
  1  5  1  0  0  0  0
  3  1  1  0  0  0  0
  4 17  1  6  0  0  0
  4  3  1  0  0  0  0
  4  2  1  0  0  0  0
  5  2  1  6  0  0  0
  5  8  1  0  0  0  0
  6 14  1  0  0  0  0
  6 12  1  0  0  0  0
  7 11  1  0  0  0  0
  7 10  1  0  0  0  0
  8 11  1  1  0  0  0
  8 13  1  0  0  0  0
  9 12  1  0  0  0  0
 10  9  1  0  0  0  0
 11  6  2  0  0  0  0
 13 16  1  0  0  0  0
 15  7  2  0  0  0  0
 16 14  2  0  0  0  0
 18 17  1  0  0  0  0
 20 21  1  0  0  0  0
 20 18  1  0  0  0  0
 21 19  1  0  0  0  0
 22 25  1  0  0  0  0
 23 22  2  0  0  0  0
 23 24  1  0  0  0  0
 24 20  2  0  0  0  0
 25 21  2  0  0  0  0
 26  1  1  0  0  0  0
 26 32  1  0  0  0  0
 27 33  1  0  0  0  0
 27 29  1  0  0  0  0
 28 30  1  0  0  0  0
 28 32  2  0  0  0  0
 30 27  2  0  0  0  0
 31 29  2  0  0  0  0
 32 31  1  0  0  0  0
 34 33  1  0  0  0  0
M  END
>  <MODEL>
2

>  <REMARK>
 VINA RESULT:      -8.3      3.345      7.144
  Name = 
  7 active torsions:
  status: ('A' for Active; 'I' for Inactive)
    1  A    between atoms: O_3  and  C_13
    2  A    between atoms: O_3  and  C_17
    3  A    between atoms: C_4  and  C_31
    4  A    between atoms: N_5  and  C_26
    5  A    between atoms: S_7  and  C_8
    6  A    between atoms: C_17  and  C_29
    7  A    between atoms: C_26  and  C_28
                            x       y       z     vdW  Elec       q    Type
                         _______ _______ _______ _____ _____    ______ ____

>  <TORSDO>
F 7

$$$$
=
 OpenBabel10252414523D

 34 38  0  0  1  0  0  0  0  0999 V2000
  186.4700  178.5910  142.4980 N   0  0  0  0  0  0  0  0  0  0  0  0
  188.4110  177.6430  141.4340 C   0  0  0  0  0  2  0  0  0  0  0  0
  186.6580  179.3020  141.2340 C   0  0  0  0  0  2  0  0  0  0  0  0
  187.8610  178.7040  140.5130 C   0  0  2  0  0  3  0  0  0  0  0  0
  187.7760  177.9740  142.7670 C   0  0  2  0  0  3  0  0  0  0  0  0
  189.1880  177.2740  145.7270 C   0  0  0  0  0  0  0  0  0  0  0  0
  190.2060  175.9970  143.9150 C   0  0  0  0  0  0  0  0  0  0  0  0
  187.7370  176.8010  143.7670 C   0  0  1  0  0  3  0  0  0  0  0  0
  191.6890  177.1630  145.5480 C   0  0  0  0  0  2  0  0  0  0  0  0
  191.4940  176.1540  144.5120 N   0  0  0  0  0  2  0  0  0  0  0  0
  189.0490  176.6870  144.5190 C   0  0  0  0  0  0  0  0  0  0  0  0
  190.4850  177.1870  146.4900 C   0  0  0  0  0  2  0  0  0  0  0  0
  186.6460  176.9990  144.6770 O   0  0  0  0  0  0  0  0  0  0  0  0
  188.0160  177.8470  146.4080 C   0  0  0  0  0  3  0  0  0  0  0  0
  190.0660  175.2590  142.9060 O   0  0  0  0  0  0  0  0  0  0  0  0
  186.8010  177.6850  145.8880 C   0  0  0  0  0  3  0  0  0  0  0  0
  187.4630  178.1100  139.1670 C   0  0  0  0  0  2  0  0  0  0  0  0
  188.5800  178.0620  138.2850 O   0  0  0  0  0  0  0  0  0  0  0  0
  187.7230  176.7620  135.9680 O   0  0  0  0  0  1  0  0  0  0  0  0
  189.1860  176.8650  137.8930 C   0  0  0  0  0  0  0  0  0  0  0  0
  188.7490  176.2190  136.7300 C   0  0  0  0  0  0  0  0  0  0  0  0
  190.3810  174.4850  137.1000 C   0  0  0  0  0  3  0  0  0  0  0  0
  190.7960  175.1230  138.2270 N   0  0  0  0  0  0  0  0  0  0  0  0
  190.2270  176.2890  138.6350 C   0  0  0  0  0  3  0  0  0  0  0  0
  189.3490  175.0220  136.3300 C   0  0  0  0  0  3  0  0  0  0  0  0
  185.4500  177.5680  142.2530 C   0  0  0  0  0  2  0  0  0  0  0  0
  181.5190  179.2050  142.7370 C   0  0  0  0  0  0  0  0  0  0  0  0
  183.2020  178.1700  141.3350 C   0  0  0  0  0  3  0  0  0  0  0  0
  182.4020  179.1720  143.8220 C   0  0  0  0  0  3  0  0  0  0  0  0
  181.9180  178.6990  141.4960 C   0  0  0  0  0  3  0  0  0  0  0  0
  183.6860  178.6430  143.6620 C   0  0  0  0  0  3  0  0  0  0  0  0
  184.0890  178.1470  142.4170 C   0  0  0  0  0  0  0  0  0  0  0  0
  179.8750  179.8760  142.9430 S   0  0  0  0  0  0  0  0  0  0  0  0
  179.7790  180.5220  140.9170 S   0  0  0  0  0  1  0  0  0  0  0  0
  1  5  1  0  0  0  0
  3  1  1  0  0  0  0
  4 17  1  6  0  0  0
  4  3  1  0  0  0  0
  4  2  1  0  0  0  0
  5  2  1  6  0  0  0
  5  8  1  0  0  0  0
  6 14  1  0  0  0  0
  6 12  1  0  0  0  0
  7 10  1  0  0  0  0
  7 11  1  0  0  0  0
  8 11  1  1  0  0  0
  8 13  1  0  0  0  0
  9 12  1  0  0  0  0
 10  9  1  0  0  0  0
 11  6  2  0  0  0  0
 13 16  1  0  0  0  0
 15  7  2  0  0  0  0
 16 14  2  0  0  0  0
 18 17  1  0  0  0  0
 19 21  1  0  0  0  0
 20 18  1  0  0  0  0
 20 24  1  0  0  0  0
 21 20  2  0  0  0  0
 22 23  1  0  0  0  0
 23 24  2  0  0  0  0
 25 21  1  0  0  0  0
 25 22  2  0  0  0  0
 26 32  1  0  0  0  0
 26  1  1  0  0  0  0
 27 33  1  0  0  0  0
 27 29  1  0  0  0  0
 28 30  1  0  0  0  0
 28 32  2  0  0  0  0
 30 27  2  0  0  0  0
 31 29  2  0  0  0  0
 32 31  1  0  0  0  0
 34 33  1  0  0  0  0
M  END
>  <MODEL>
3

>  <REMARK>
 VINA RESULT:      -8.2      2.396      7.090
  Name = 
  7 active torsions:
  status: ('A' for Active; 'I' for Inactive)
    1  A    between atoms: O_3  and  C_13
    2  A    between atoms: O_3  and  C_17
    3  A    between atoms: C_4  and  C_31
    4  A    between atoms: N_5  and  C_26
    5  A    between atoms: S_7  and  C_8
    6  A    between atoms: C_17  and  C_29
    7  A    between atoms: C_26  and  C_28
                            x       y       z     vdW  Elec       q    Type
                         _______ _______ _______ _____ _____    ______ ____

>  <TORSDO>
F 7

$$$$
=
 OpenBabel10252414523D

 34 38  0  0  1  0  0  0  0  0999 V2000
  186.4140  178.6060  142.5850 N   0  0  0  0  0  0  0  0  0  0  0  0
  188.3240  177.6940  141.4370 C   0  0  0  0  0  2  0  0  0  0  0  0
  186.5610  179.3520  141.3370 C   0  0  0  0  0  2  0  0  0  0  0  0
  187.7430  178.7790  140.5640 C   0  0  2  0  0  3  0  0  0  0  0  0
  187.7280  177.9860  142.7970 C   0  0  2  0  0  3  0  0  0  0  0  0
  189.1840  177.2310  145.7230 C   0  0  0  0  0  0  0  0  0  0  0  0
  190.2080  176.0260  143.8660 C   0  0  0  0  0  0  0  0  0  0  0  0
  187.7230  176.7850  143.7640 C   0  0  1  0  0  3  0  0  0  0  0  0
  191.6850  177.1740  145.5150 C   0  0  0  0  0  2  0  0  0  0  0  0
  191.4990  176.1910  144.4540 N   0  0  0  0  0  2  0  0  0  0  0  0
  189.0440  176.6750  144.5000 C   0  0  0  0  0  0  0  0  0  0  0  0
  190.4900  177.1480  146.4700 C   0  0  0  0  0  2  0  0  0  0  0  0
  186.6370  176.9360  144.6900 O   0  0  0  0  0  0  0  0  0  0  0  0
  188.0090  177.7620  146.4310 C   0  0  0  0  0  3  0  0  0  0  0  0
  190.0720  175.3130  142.8370 O   0  0  0  0  0  0  0  0  0  0  0  0
  186.7920  177.5910  145.9190 C   0  0  0  0  0  3  0  0  0  0  0  0
  187.3070  178.2220  139.2140 C   0  0  0  0  0  2  0  0  0  0  0  0
  188.1450  178.7090  138.1710 O   0  0  0  0  0  0  0  0  0  0  0  0
  190.5750  177.4490  138.7220 O   0  0  0  0  0  1  0  0  0  0  0  0
  188.7300  177.8720  137.2150 C   0  0  0  0  0  0  0  0  0  0  0  0
  189.9490  177.2450  137.4990 C   0  0  0  0  0  0  0  0  0  0  0  0
  189.9040  176.2080  135.3250 C   0  0  0  0  0  3  0  0  0  0  0  0
  188.7200  176.8220  135.0620 N   0  0  0  0  0  0  0  0  0  0  0  0
  188.1260  177.6410  135.9710 C   0  0  0  0  0  3  0  0  0  0  0  0
  190.5410  176.4080  136.5500 C   0  0  0  0  0  3  0  0  0  0  0  0
  185.3900  177.5870  142.3420 C   0  0  0  0  0  2  0  0  0  0  0  0
  181.4640  179.2540  142.7710 C   0  0  0  0  0  0  0  0  0  0  0  0
  183.1590  178.2080  141.3920 C   0  0  0  0  0  3  0  0  0  0  0  0
  182.3310  179.2120  143.8680 C   0  0  0  0  0  3  0  0  0  0  0  0
  181.8780  178.7470  141.5340 C   0  0  0  0  0  3  0  0  0  0  0  0
  183.6130  178.6730  143.7260 C   0  0  0  0  0  3  0  0  0  0  0  0
  184.0300  178.1760  142.4870 C   0  0  0  0  0  0  0  0  0  0  0  0
  179.8230  179.9380  142.9540 S   0  0  0  0  0  0  0  0  0  0  0  0
  179.7300  180.5170  140.9070 S   0  0  0  0  0  1  0  0  0  0  0  0
  1  5  1  0  0  0  0
  3  1  1  0  0  0  0
  4 17  1  6  0  0  0
  4  3  1  0  0  0  0
  4  2  1  0  0  0  0
  5  2  1  6  0  0  0
  5  8  1  0  0  0  0
  6 14  1  0  0  0  0
  6 12  1  0  0  0  0
  7 10  1  0  0  0  0
  7 11  1  0  0  0  0
  8 11  1  1  0  0  0
  8 13  1  0  0  0  0
  9 12  1  0  0  0  0
 10  9  1  0  0  0  0
 11  6  2  0  0  0  0
 13 16  1  0  0  0  0
 15  7  2  0  0  0  0
 16 14  2  0  0  0  0
 18 17  1  0  0  0  0
 20 21  1  0  0  0  0
 20 18  1  0  0  0  0
 21 19  1  0  0  0  0
 22 25  1  0  0  0  0
 23 22  2  0  0  0  0
 23 24  1  0  0  0  0
 24 20  2  0  0  0  0
 25 21  2  0  0  0  0
 26 32  1  0  0  0  0
 26  1  1  0  0  0  0
 27 33  1  0  0  0  0
 27 29  1  0  0  0  0
 28 30  1  0  0  0  0
 28 32  2  0  0  0  0
 30 27  2  0  0  0  0
 31 29  2  0  0  0  0
 32 31  1  0  0  0  0
 34 33  1  0  0  0  0
M  END
>  <MODEL>
4

>  <REMARK>
 VINA RESULT:      -8.2      2.541      7.176
  Name = 
  7 active torsions:
  status: ('A' for Active; 'I' for Inactive)
    1  A    between atoms: O_3  and  C_13
    2  A    between atoms: O_3  and  C_17
    3  A    between atoms: C_4  and  C_31
    4  A    between atoms: N_5  and  C_26
    5  A    between atoms: S_7  and  C_8
    6  A    between atoms: C_17  and  C_29
    7  A    between atoms: C_26  and  C_28
                            x       y       z     vdW  Elec       q    Type
                         _______ _______ _______ _____ _____    ______ ____

>  <TORSDO>
F 7

$$$$
=
 OpenBabel10252414523D

 34 38  0  0  1  0  0  0  0  0999 V2000
  188.8720  176.8500  141.2580 N   0  0  0  0  0  0  0  0  0  0  0  0
  191.1620  176.9350  141.9960 C   0  0  0  0  0  2  0  0  0  0  0  0
  188.8920  176.4020  142.6490 C   0  0  0  0  0  2  0  0  0  0  0  0
  190.3250  176.4750  143.1640 C   0  0  2  0  0  3  0  0  0  0  0  0
  190.2610  176.6950  140.8050 C   0  0  2  0  0  3  0  0  0  0  0  0
  191.1320  176.0200  137.6370 C   0  0  0  0  0  0  0  0  0  0  0  0
  193.0410  176.7640  138.9610 C   0  0  0  0  0  0  0  0  0  0  0  0
  190.6230  177.5180  139.5520 C   0  0  1  0  0  3  0  0  0  0  0  0
  193.2850  174.7340  137.5310 C   0  0  0  0  0  2  0  0  0  0  0  0
  193.8840  175.8230  138.2960 N   0  0  0  0  0  2  0  0  0  0  0  0
  191.5940  176.7600  138.6680 C   0  0  0  0  0  0  0  0  0  0  0  0
  192.0730  175.2460  136.7500 C   0  0  0  0  0  2  0  0  0  0  0  0
  189.4200  177.8300  138.8350 O   0  0  0  0  0  0  0  0  0  0  0  0
  189.7170  176.1070  137.2420 C   0  0  0  0  0  3  0  0  0  0  0  0
  193.5370  177.5980  139.7620 O   0  0  0  0  0  0  0  0  0  0  0  0
  188.9190  177.0000  137.8240 C   0  0  0  0  0  3  0  0  0  0  0  0
  190.4450  177.4390  144.3380 C   0  0  0  0  0  2  0  0  0  0  0  0
  189.1580  177.8230  144.8120 O   0  0  0  0  0  0  0  0  0  0  0  0
  186.4800  177.8820  145.6010 O   0  0  0  0  0  1  0  0  0  0  0  0
  188.8320  177.8710  146.1710 C   0  0  0  0  0  0  0  0  0  0  0  0
  187.4870  177.9010  146.5580 C   0  0  0  0  0  0  0  0  0  0  0  0
  188.1710  177.9660  148.8680 C   0  0  0  0  0  3  0  0  0  0  0  0
  189.4730  177.9360  148.4780 N   0  0  0  0  0  0  0  0  0  0  0  0
  189.8220  177.8890  147.1640 C   0  0  0  0  0  3  0  0  0  0  0  0
  187.1530  177.9490  147.9130 C   0  0  0  0  0  3  0  0  0  0  0  0
  188.4860  178.2630  141.2810 C   0  0  0  0  0  2  0  0  0  0  0  0
  184.2130  178.6020  141.2750 C   0  0  0  0  0  0  0  0  0  0  0  0
  186.3170  178.5880  140.0750 C   0  0  0  0  0  3  0  0  0  0  0  0
  184.8980  178.3970  142.4780 C   0  0  0  0  0  3  0  0  0  0  0  0
  184.9230  178.6930  140.0740 C   0  0  0  0  0  3  0  0  0  0  0  0
  186.2920  178.2910  142.4800 C   0  0  0  0  0  3  0  0  0  0  0  0
  187.0030  178.3930  141.2790 C   0  0  0  0  0  0  0  0  0  0  0  0
  182.4300  178.7310  141.2720 S   0  0  0  0  0  0  0  0  0  0  0  0
  182.3510  179.0310  143.3790 S   0  0  0  0  0  1  0  0  0  0  0  0
  1 26  1  0  0  0  0
  1  3  1  0  0  0  0
  2  4  1  0  0  0  0
  3  4  1  0  0  0  0
  4 17  1  1  0  0  0
  5  1  1  0  0  0  0
  5  2  1  1  0  0  0
  6 11  2  0  0  0  0
  7 15  2  0  0  0  0
  8 11  1  6  0  0  0
  8  5  1  0  0  0  0
  9 10  1  0  0  0  0
 10  7  1  0  0  0  0
 11  7  1  0  0  0  0
 12  9  1  0  0  0  0
 12  6  1  0  0  0  0
 13  8  1  0  0  0  0
 14  6  1  0  0  0  0
 14 16  2  0  0  0  0
 16 13  1  0  0  0  0
 17 18  1  0  0  0  0
 18 20  1  0  0  0  0
 19 21  1  0  0  0  0
 20 21  2  0  0  0  0
 20 24  1  0  0  0  0
 21 25  1  0  0  0  0
 23 22  1  0  0  0  0
 24 23  2  0  0  0  0
 25 22  2  0  0  0  0
 27 29  1  0  0  0  0
 28 32  2  0  0  0  0
 29 31  2  0  0  0  0
 30 28  1  0  0  0  0
 30 27  2  0  0  0  0
 32 26  1  0  0  0  0
 32 31  1  0  0  0  0
 33 27  1  0  0  0  0
 33 34  1  0  0  0  0
M  END
>  <MODEL>
5

>  <REMARK>
 VINA RESULT:      -8.2      1.024      1.335
  Name = 
  7 active torsions:
  status: ('A' for Active; 'I' for Inactive)
    1  A    between atoms: O_3  and  C_13
    2  A    between atoms: O_3  and  C_17
    3  A    between atoms: C_4  and  C_31
    4  A    between atoms: N_5  and  C_26
    5  A    between atoms: S_7  and  C_8
    6  A    between atoms: C_17  and  C_29
    7  A    between atoms: C_26  and  C_28
                            x       y       z     vdW  Elec       q    Type
                         _______ _______ _______ _____ _____    ______ ____

>  <TORSDO>
F 7

$$$$
=
 OpenBabel10252414523D

 34 38  0  0  1  0  0  0  0  0999 V2000
  189.4640  177.7650  141.0470 N   0  0  0  0  0  0  0  0  0  0  0  0
  187.4650  177.9650  139.7200 C   0  0  0  0  0  2  0  0  0  0  0  0
  188.6460  178.8110  141.6580 C   0  0  0  0  0  2  0  0  0  0  0  0
  187.3520  178.9430  140.8630 C   0  0  2  0  0  3  0  0  0  0  0  0
  188.9440  177.6470  139.6790 C   0  0  2  0  0  3  0  0  0  0  0  0
  190.2110  176.7580  136.7030 C   0  0  0  0  0  0  0  0  0  0  0  0
  187.8140  176.3230  136.8320 C   0  0  0  0  0  0  0  0  0  0  0  0
  189.2940  176.3230  138.9700 C   0  0  1  0  0  3  0  0  0  0  0  0
  188.7210  177.4820  134.8180 C   0  0  0  0  0  2  0  0  0  0  0  0
  187.6540  176.7320  135.4730 N   0  0  0  0  0  2  0  0  0  0  0  0
  189.1400  176.4540  137.4680 C   0  0  0  0  0  0  0  0  0  0  0  0
  190.0830  176.9080  135.2090 C   0  0  0  0  0  2  0  0  0  0  0  0
  190.6370  175.9520  139.3130 O   0  0  0  0  0  0  0  0  0  0  0  0
  191.5600  176.7600  137.2910 C   0  0  0  0  0  3  0  0  0  0  0  0
  186.8400  175.8330  137.4610 O   0  0  0  0  0  0  0  0  0  0  0  0
  191.7380  176.3510  138.5450 C   0  0  0  0  0  3  0  0  0  0  0  0
  186.1350  178.6380  141.7280 C   0  0  0  0  0  2  0  0  0  0  0  0
  185.0110  179.4070  141.3120 O   0  0  0  0  0  0  0  0  0  0  0  0
  184.5520  180.4330  138.7560 O   0  0  0  0  0  1  0  0  0  0  0  0
  183.9820  178.8830  140.5240 C   0  0  0  0  0  0  0  0  0  0  0  0
  183.7580  179.4030  139.2440 C   0  0  0  0  0  0  0  0  0  0  0  0
  181.9400  177.8490  138.9490 C   0  0  0  0  0  3  0  0  0  0  0  0
  182.1690  177.3520  140.1930 N   0  0  0  0  0  0  0  0  0  0  0  0
  183.1630  177.8410  140.9830 C   0  0  0  0  0  3  0  0  0  0  0  0
  182.7320  178.8850  138.4510 C   0  0  0  0  0  3  0  0  0  0  0  0
  189.2100  176.5400  141.8090 C   0  0  0  0  0  2  0  0  0  0  0  0
  190.0700  177.1320  145.9660 C   0  0  0  0  0  0  0  0  0  0  0  0
  188.4630  176.9370  144.1640 C   0  0  0  0  0  3  0  0  0  0  0  0
  191.1140  176.9430  145.0540 C   0  0  0  0  0  3  0  0  0  0  0  0
  188.7440  177.1240  145.5200 C   0  0  0  0  0  3  0  0  0  0  0  0
  190.8340  176.7540  143.6980 C   0  0  0  0  0  3  0  0  0  0  0  0
  189.5080  176.7570  143.2510 C   0  0  0  0  0  0  0  0  0  0  0  0
  190.4290  177.3670  147.7010 S   0  0  0  0  0  0  0  0  0  0  0  0
  192.0460  175.9820  147.6530 S   0  0  0  0  0  1  0  0  0  0  0  0
  1  3  1  0  0  0  0
  1 26  1  0  0  0  0
  2  4  1  0  0  0  0
  4  3  1  0  0  0  0
  4 17  1  1  0  0  0
  5  2  1  1  0  0  0
  5  1  1  0  0  0  0
  6 14  1  0  0  0  0
  6 11  2  0  0  0  0
  7 15  2  0  0  0  0
  7 11  1  0  0  0  0
  8 11  1  6  0  0  0
  8 13  1  0  0  0  0
  8  5  1  0  0  0  0
  9 12  1  0  0  0  0
  9 10  1  0  0  0  0
 10  7  1  0  0  0  0
 12  6  1  0  0  0  0
 14 16  2  0  0  0  0
 16 13  1  0  0  0  0
 18 17  1  0  0  0  0
 19 21  1  0  0  0  0
 20 24  1  0  0  0  0
 20 18  1  0  0  0  0
 21 20  2  0  0  0  0
 22 23  1  0  0  0  0
 23 24  2  0  0  0  0
 25 22  2  0  0  0  0
 25 21  1  0  0  0  0
 26 32  1  0  0  0  0
 27 33  1  0  0  0  0
 28 30  2  0  0  0  0
 29 27  2  0  0  0  0
 30 27  1  0  0  0  0
 31 29  1  0  0  0  0
 32 31  2  0  0  0  0
 32 28  1  0  0  0  0
 34 33  1  0  0  0  0
M  END
>  <MODEL>
6

>  <REMARK>
 VINA RESULT:      -7.6      3.599      6.528
  Name = 
  7 active torsions:
  status: ('A' for Active; 'I' for Inactive)
    1  A    between atoms: O_3  and  C_13
    2  A    between atoms: O_3  and  C_17
    3  A    between atoms: C_4  and  C_31
    4  A    between atoms: N_5  and  C_26
    5  A    between atoms: S_7  and  C_8
    6  A    between atoms: C_17  and  C_29
    7  A    between atoms: C_26  and  C_28
                            x       y       z     vdW  Elec       q    Type
                         _______ _______ _______ _____ _____    ______ ____

>  <TORSDO>
F 7

$$$$
=
 OpenBabel10252414523D

 34 38  0  0  1  0  0  0  0  0999 V2000
  189.7020  177.8100  139.8470 N   0  0  0  0  0  0  0  0  0  0  0  0
  189.2510  177.2790  137.5430 C   0  0  0  0  0  2  0  0  0  0  0  0
  188.6180  178.6870  139.4090 C   0  0  0  0  0  2  0  0  0  0  0  0
  188.2790  178.3550  137.9600 C   0  0  2  0  0  3  0  0  0  0  0  0
  190.3300  177.3550  138.6000 C   0  0  2  0  0  3  0  0  0  0  0  0
  192.4470  175.6340  136.6490 C   0  0  0  0  0  0  0  0  0  0  0  0
  190.2960  174.5050  136.8650 C   0  0  0  0  0  0  0  0  0  0  0  0
  191.1810  176.0760  138.7400 C   0  0  1  0  0  3  0  0  0  0  0  0
  191.2990  174.7600  134.5960 C   0  0  0  0  0  2  0  0  0  0  0  0
  190.3530  174.1080  135.4950 N   0  0  0  0  0  2  0  0  0  0  0  0
  191.3510  175.3890  137.3990 C   0  0  0  0  0  0  0  0  0  0  0  0
  192.6360  174.9760  135.3070 C   0  0  0  0  0  2  0  0  0  0  0  0
  192.4560  176.4210  139.2990 O   0  0  0  0  0  0  0  0  0  0  0  0
  193.5700  176.4000  137.2130 C   0  0  0  0  0  3  0  0  0  0  0  0
  189.3720  174.0790  137.6060 O   0  0  0  0  0  0  0  0  0  0  0  0
  193.5550  176.7510  138.4970 C   0  0  0  0  0  3  0  0  0  0  0  0
  186.8380  177.8780  137.8210 C   0  0  0  0  0  2  0  0  0  0  0  0
  185.9320  178.8470  138.3380 O   0  0  0  0  0  0  0  0  0  0  0  0
  185.6830  179.5760  141.0220 O   0  0  0  0  0  1  0  0  0  0  0  0
  184.7790  178.5040  139.0500 C   0  0  0  0  0  0  0  0  0  0  0  0
  184.6620  178.8730  140.3960 C   0  0  0  0  0  0  0  0  0  0  0  0
  182.4920  177.8280  140.4770 C   0  0  0  0  0  3  0  0  0  0  0  0
  182.6180  177.4780  139.1690 N   0  0  0  0  0  0  0  0  0  0  0  0
  183.7270  177.7970  138.4500 C   0  0  0  0  0  3  0  0  0  0  0  0
  183.5140  178.5330  141.1150 C   0  0  0  0  0  3  0  0  0  0  0  0
  189.0720  176.6910  140.5530 C   0  0  0  0  0  2  0  0  0  0  0  0
  189.5650  177.1710  144.7840 C   0  0  0  0  0  0  0  0  0  0  0  0
  190.5270  176.8660  142.5820 C   0  0  0  0  0  3  0  0  0  0  0  0
  188.2820  177.1610  144.2250 C   0  0  0  0  0  3  0  0  0  0  0  0
  190.6870  177.0290  143.9610 C   0  0  0  0  0  3  0  0  0  0  0  0
  188.1220  177.0000  142.8450 C   0  0  0  0  0  3  0  0  0  0  0  0
  189.2440  176.8460  142.0240 C   0  0  0  0  0  0  0  0  0  0  0  0
  189.7700  177.3850  146.5470 S   0  0  0  0  0  0  0  0  0  0  0  0
  191.6490  176.3840  146.5470 S   0  0  0  0  0  1  0  0  0  0  0  0
  1 26  1  0  0  0  0
  2  4  1  0  0  0  0
  3  1  1  0  0  0  0
  4 17  1  1  0  0  0
  4  3  1  0  0  0  0
  5  2  1  6  0  0  0
  5  8  1  0  0  0  0
  5  1  1  0  0  0  0
  6 14  1  0  0  0  0
  6 11  2  0  0  0  0
  7 11  1  0  0  0  0
  7 15  2  0  0  0  0
  8 11  1  6  0  0  0
  8 13  1  0  0  0  0
  9 12  1  0  0  0  0
  9 10  1  0  0  0  0
 10  7  1  0  0  0  0
 12  6  1  0  0  0  0
 14 16  2  0  0  0  0
 16 13  1  0  0  0  0
 17 18  1  0  0  0  0
 18 20  1  0  0  0  0
 20 21  1  0  0  0  0
 21 19  1  0  0  0  0
 21 25  2  0  0  0  0
 22 25  1  0  0  0  0
 23 22  2  0  0  0  0
 24 20  2  0  0  0  0
 24 23  1  0  0  0  0
 26 32  1  0  0  0  0
 27 33  1  0  0  0  0
 28 30  1  0  0  0  0
 29 27  1  0  0  0  0
 30 27  2  0  0  0  0
 31 29  2  0  0  0  0
 32 28  2  0  0  0  0
 32 31  1  0  0  0  0
 33 34  1  0  0  0  0
M  END
>  <MODEL>
7

>  <REMARK>
 VINA RESULT:      -7.6      3.595      6.075
  Name = 
  7 active torsions:
  status: ('A' for Active; 'I' for Inactive)
    1  A    between atoms: O_3  and  C_13
    2  A    between atoms: O_3  and  C_17
    3  A    between atoms: C_4  and  C_31
    4  A    between atoms: N_5  and  C_26
    5  A    between atoms: S_7  and  C_8
    6  A    between atoms: C_17  and  C_29
    7  A    between atoms: C_26  and  C_28
                            x       y       z     vdW  Elec       q    Type
                         _______ _______ _______ _____ _____    ______ ____

>  <TORSDO>
F 7

$$$$
=
 OpenBabel10252414523D

 34 38  0  0  1  0  0  0  0  0999 V2000
  189.3270  177.9720  140.8090 N   0  0  0  0  0  0  0  0  0  0  0  0
  188.9770  177.5000  138.4740 C   0  0  0  0  0  2  0  0  0  0  0  0
  188.1920  178.7840  140.3720 C   0  0  0  0  0  2  0  0  0  0  0  0
  187.9170  178.4850  138.9030 C   0  0  2  0  0  3  0  0  0  0  0  0
  190.0200  177.6130  139.5650 C   0  0  2  0  0  3  0  0  0  0  0  0
  192.6980  176.4580  137.9090 C   0  0  0  0  0  0  0  0  0  0  0  0
  190.6960  175.1570  137.4090 C   0  0  0  0  0  0  0  0  0  0  0  0
  190.9590  176.3950  139.6810 C   0  0  1  0  0  3  0  0  0  0  0  0
  192.1400  175.9180  135.5230 C   0  0  0  0  0  2  0  0  0  0  0  0
  191.0990  175.0390  136.0450 N   0  0  0  0  0  2  0  0  0  0  0  0
  191.4980  175.9950  138.3220 C   0  0  0  0  0  0  0  0  0  0  0  0
  193.2530  176.0870  136.5580 C   0  0  0  0  0  2  0  0  0  0  0  0
  192.0300  176.7170  140.5790 O   0  0  0  0  0  0  0  0  0  0  0  0
  193.5730  177.1790  138.8470 C   0  0  0  0  0  3  0  0  0  0  0  0
  189.6860  174.5310  137.8240 O   0  0  0  0  0  0  0  0  0  0  0  0
  193.2350  177.2730  140.1310 C   0  0  0  0  0  3  0  0  0  0  0  0
  186.5200  177.9090  138.7050 C   0  0  0  0  0  2  0  0  0  0  0  0
  185.5290  178.9190  138.8690 O   0  0  0  0  0  0  0  0  0  0  0  0
  182.8860  178.6870  137.9980 O   0  0  0  0  0  1  0  0  0  0  0  0
  184.4930  178.8200  139.8020 C   0  0  0  0  0  0  0  0  0  0  0  0
  183.1710  178.7060  139.3570 C   0  0  0  0  0  0  0  0  0  0  0  0
  182.4240  178.6240  141.6470 C   0  0  0  0  0  3  0  0  0  0  0  0
  183.7130  178.7350  142.0660 N   0  0  0  0  0  0  0  0  0  0  0  0
  184.7420  178.8330  141.1820 C   0  0  0  0  0  3  0  0  0  0  0  0
  182.1290  178.6070  140.2830 C   0  0  0  0  0  3  0  0  0  0  0  0
  188.7640  176.7830  141.4550 C   0  0  0  0  0  2  0  0  0  0  0  0
  188.0450  177.5800  145.6040 C   0  0  0  0  0  0  0  0  0  0  0  0
  189.5860  177.3400  143.7510 C   0  0  0  0  0  3  0  0  0  0  0  0
  186.9730  177.2980  144.7490 C   0  0  0  0  0  3  0  0  0  0  0  0
  189.3500  177.6050  145.1030 C   0  0  0  0  0  3  0  0  0  0  0  0
  187.2090  177.0340  143.3970 C   0  0  0  0  0  3  0  0  0  0  0  0
  188.5160  177.0480  142.8990 C   0  0  0  0  0  0  0  0  0  0  0  0
  187.7420  177.9240  147.3320 S   0  0  0  0  0  0  0  0  0  0  0  0
  185.7860  178.6690  146.9420 S   0  0  0  0  0  1  0  0  0  0  0  0
  1 26  1  0  0  0  0
  2  4  1  0  0  0  0
  3  1  1  0  0  0  0
  4 17  1  1  0  0  0
  4  3  1  0  0  0  0
  5  2  1  6  0  0  0
  5  8  1  0  0  0  0
  5  1  1  0  0  0  0
  6 11  2  0  0  0  0
  6 14  1  0  0  0  0
  7 15  2  0  0  0  0
  7 11  1  0  0  0  0
  8 11  1  6  0  0  0
  8 13  1  0  0  0  0
  9 10  1  0  0  0  0
  9 12  1  0  0  0  0
 10  7  1  0  0  0  0
 12  6  1  0  0  0  0
 14 16  2  0  0  0  0
 16 13  1  0  0  0  0
 17 18  1  0  0  0  0
 18 20  1  0  0  0  0
 19 21  1  0  0  0  0
 20 24  1  0  0  0  0
 21 20  2  0  0  0  0
 21 25  1  0  0  0  0
 22 23  1  0  0  0  0
 24 23  2  0  0  0  0
 25 22  2  0  0  0  0
 26 32  1  0  0  0  0
 27 33  1  0  0  0  0
 28 30  2  0  0  0  0
 29 27  2  0  0  0  0
 30 27  1  0  0  0  0
 31 29  1  0  0  0  0
 32 31  2  0  0  0  0
 32 28  1  0  0  0  0
 34 33  1  0  0  0  0
M  END
>  <MODEL>
8

>  <REMARK>
 VINA RESULT:      -7.4      2.826      5.725
  Name = 
  7 active torsions:
  status: ('A' for Active; 'I' for Inactive)
    1  A    between atoms: O_3  and  C_13
    2  A    between atoms: O_3  and  C_17
    3  A    between atoms: C_4  and  C_31
    4  A    between atoms: N_5  and  C_26
    5  A    between atoms: S_7  and  C_8
    6  A    between atoms: C_17  and  C_29
    7  A    between atoms: C_26  and  C_28
                            x       y       z     vdW  Elec       q    Type
                         _______ _______ _______ _____ _____    ______ ____

>  <TORSDO>
F 7

$$$$
=
 OpenBabel10252414523D

 34 38  0  0  1  0  0  0  0  0999 V2000
  189.4920  177.6410  140.8870 N   0  0  0  0  0  0  0  0  0  0  0  0
  187.9570  177.6300  139.0320 C   0  0  0  0  0  2  0  0  0  0  0  0
  188.4750  178.6540  141.1650 C   0  0  0  0  0  2  0  0  0  0  0  0
  187.4630  178.6520  140.0250 C   0  0  2  0  0  3  0  0  0  0  0  0
  189.3990  177.4180  139.4380 C   0  0  2  0  0  3  0  0  0  0  0  0
  191.0090  176.3580  136.6940 C   0  0  0  0  0  0  0  0  0  0  0  0
  188.7130  175.5380  136.7690 C   0  0  0  0  0  0  0  0  0  0  0  0
  190.0120  176.0890  138.9530 C   0  0  1  0  0  3  0  0  0  0  0  0
  189.5630  176.5460  134.6510 C   0  0  0  0  0  2  0  0  0  0  0  0
  188.5890  175.7210  135.3580 N   0  0  0  0  0  2  0  0  0  0  0  0
  189.9490  175.9830  137.4420 C   0  0  0  0  0  0  0  0  0  0  0  0
  190.9690  176.2750  135.1900 C   0  0  0  0  0  2  0  0  0  0  0  0
  191.3690  176.0050  139.4120 O   0  0  0  0  0  0  0  0  0  0  0  0
  192.2930  176.6740  137.3400 C   0  0  0  0  0  3  0  0  0  0  0  0
  187.7890  174.9790  137.4150 O   0  0  0  0  0  0  0  0  0  0  0  0
  192.4430  176.4780  138.6480 C   0  0  0  0  0  3  0  0  0  0  0  0
  186.0650  178.3030  140.5240 C   0  0  0  0  0  2  0  0  0  0  0  0
  185.8300  178.8710  141.8080 O   0  0  0  0  0  0  0  0  0  0  0  0
  185.5940  179.4540  144.5290 O   0  0  0  0  0  1  0  0  0  0  0  0
  184.5690  178.8850  142.4120 C   0  0  0  0  0  0  0  0  0  0  0  0
  184.4600  179.1780  143.7760 C   0  0  0  0  0  0  0  0  0  0  0  0
  182.0690  178.9170  143.6240 C   0  0  0  0  0  3  0  0  0  0  0  0
  182.1890  178.6350  142.3000 N   0  0  0  0  0  0  0  0  0  0  0  0
  183.4010  178.6140  141.6840 C   0  0  0  0  0  3  0  0  0  0  0  0
  183.2040  179.1940  144.3880 C   0  0  0  0  0  3  0  0  0  0  0  0
  189.0950  176.4400  141.6260 C   0  0  0  0  0  2  0  0  0  0  0  0
  189.1370  177.2420  145.8370 C   0  0  0  0  0  0  0  0  0  0  0  0
  190.3280  176.8600  143.7620 C   0  0  0  0  0  3  0  0  0  0  0  0
  187.9190  177.0980  145.1630 C   0  0  0  0  0  3  0  0  0  0  0  0
  190.3410  177.1270  145.1350 C   0  0  0  0  0  3  0  0  0  0  0  0
  187.9060  176.8320  143.7910 C   0  0  0  0  0  3  0  0  0  0  0  0
  189.1100  176.7070  143.0910 C   0  0  0  0  0  0  0  0  0  0  0  0
  189.1530  177.5890  147.5900 S   0  0  0  0  0  0  0  0  0  0  0  0
  187.1280  178.2460  147.5780 S   0  0  0  0  0  1  0  0  0  0  0  0
  1  3  1  0  0  0  0
  1 26  1  0  0  0  0
  2  4  1  0  0  0  0
  4 17  1  1  0  0  0
  4  3  1  0  0  0  0
  5  2  1  1  0  0  0
  5  1  1  0  0  0  0
  6 14  1  0  0  0  0
  6 11  2  0  0  0  0
  7 15  2  0  0  0  0
  7 11  1  0  0  0  0
  8 11  1  6  0  0  0
  8 13  1  0  0  0  0
  8  5  1  0  0  0  0
  9 12  1  0  0  0  0
  9 10  1  0  0  0  0
 10  7  1  0  0  0  0
 12  6  1  0  0  0  0
 14 16  2  0  0  0  0
 16 13  1  0  0  0  0
 17 18  1  0  0  0  0
 18 20  1  0  0  0  0
 20 21  1  0  0  0  0
 21 25  2  0  0  0  0
 21 19  1  0  0  0  0
 22 25  1  0  0  0  0
 23 22  2  0  0  0  0
 24 23  1  0  0  0  0
 24 20  2  0  0  0  0
 26 32  1  0  0  0  0
 27 33  1  0  0  0  0
 28 30  1  0  0  0  0
 29 27  1  0  0  0  0
 30 27  2  0  0  0  0
 31 29  2  0  0  0  0
 32 28  2  0  0  0  0
 32 31  1  0  0  0  0
 34 33  1  0  0  0  0
M  END
>  <MODEL>
9

>  <REMARK>
 VINA RESULT:      -7.4      3.005      5.150
  Name = 
  7 active torsions:
  status: ('A' for Active; 'I' for Inactive)
    1  A    between atoms: O_3  and  C_13
    2  A    between atoms: O_3  and  C_17
    3  A    between atoms: C_4  and  C_31
    4  A    between atoms: N_5  and  C_26
    5  A    between atoms: S_7  and  C_8
    6  A    between atoms: C_17  and  C_29
    7  A    between atoms: C_26  and  C_28
                            x       y       z     vdW  Elec       q    Type
                         _______ _______ _______ _____ _____    ______ ____

>  <TORSDO>
F 7

$$$$
