=
 OpenBabel10262421543D

 30 32  0  0  1  0  0  0  0  0999 V2000
  186.4190  177.7790  142.7510 C   0  0  0  0  0  3  0  0  0  0  0  0
  184.0580  178.3190  142.1480 C   0  0  1  0  0  3  0  0  0  0  0  0
  185.7820  178.5470  146.8360 C   0  0  0  0  0  3  0  0  0  0  0  0
  187.4740  177.6020  143.6530 C   0  0  0  0  0  0  0  0  0  0  0  0
  186.8280  178.3940  147.7480 C   0  0  0  0  0  3  0  0  0  0  0  0
  182.8480  179.0990  142.6510 C   0  0  0  0  0  2  0  0  0  0  0  0
  184.5210  178.9050  140.9830 F   0  0  0  0  0  0  0  0  0  0  0  0
  185.9810  178.2890  145.4690 C   0  0  0  0  0  0  0  0  0  0  0  0
  182.4640  178.6180  144.0410 C   0  0  0  0  0  2  0  0  0  0  0  0
  185.1650  178.2240  143.1710 C   0  0  0  0  0  0  0  0  0  0  0  0
  187.2590  177.8630  145.0220 C   0  0  0  0  0  0  0  0  0  0  0  0
  188.0860  177.9860  147.3070 C   0  0  0  0  0  3  0  0  0  0  0  0
  188.2990  177.7240  145.9530 C   0  0  0  0  0  3  0  0  0  0  0  0
  183.5840  178.9650  145.0110 C   0  0  0  0  0  2  0  0  0  0  0  0
  184.9270  178.4540  144.5450 C   0  0  0  0  0  0  0  0  0  0  0  0
  189.8230  176.2290  141.2930 O   0  0  0  0  0  0  0  0  0  0  0  0
  189.0500  177.1130  141.7540 C   0  0  0  0  0  0  0  0  0  0  0  0
  188.7430  177.1280  143.1630 N   0  0  0  0  0  0  0  0  0  0  0  0
  188.6130  179.3510  141.1170 O   0  0  0  0  0  0  0  0  0  0  0  0
  188.5010  178.1270  140.8340 C   0  0  0  0  0  0  0  0  0  0  0  0
  187.8360  177.7310  139.6690 O   0  0  0  0  0  0  0  0  0  0  0  0
  189.6810  177.7510  138.1220 C   0  0  0  0  0  1  0  0  0  0  0  0
  188.2410  178.1570  138.3760 C   0  0  0  0  0  2  0  0  0  0  0  0
  189.6360  176.4310  144.0860 C   0  0  0  0  0  2  0  0  0  0  0  0
  191.0440  176.9910  143.9740 C   0  0  0  0  0  2  0  0  0  0  0  0
  191.6770  177.1100  145.3510 C   0  0  0  0  0  2  0  0  0  0  0  0
  191.9460  175.7410  145.9670 C   0  0  0  0  0  2  0  0  0  0  0  0
  191.3100  177.1120  147.9510 C   0  0  0  0  0  1  0  0  0  0  0  0
  191.8960  175.7930  147.4870 C   0  0  2  0  0  3  0  0  0  0  0  0
  193.2410  175.6600  148.0150 N   0  0  0  0  0  1  0  0  0  0  0  0
  1 10  2  0  0  0  0
  1  4  1  0  0  0  0
  2  7  1  6  0  0  0
  2  6  1  0  0  0  0
  2 10  1  0  0  0  0
  3  5  2  0  0  0  0
  4 11  2  0  0  0  0
  6  9  1  0  0  0  0
  8  3  1  0  0  0  0
  9 14  1  0  0  0  0
 10 15  1  0  0  0  0
 11  8  1  0  0  0  0
 11 13  1  0  0  0  0
 12  5  1  0  0  0  0
 13 12  2  0  0  0  0
 15 14  1  0  0  0  0
 15  8  2  0  0  0  0
 16 17  2  0  0  0  0
 17 18  1  0  0  0  0
 18  4  1  0  0  0  0
 18 24  1  0  0  0  0
 20 19  2  0  0  0  0
 20 17  1  0  0  0  0
 21 20  1  0  0  0  0
 22 23  1  0  0  0  0
 23 21  1  0  0  0  0
 25 24  1  0  0  0  0
 25 26  1  0  0  0  0
 26 27  1  0  0  0  0
 27 29  1  0  0  0  0
 29 28  1  6  0  0  0
 29 30  1  0  0  0  0
M  END
>  <MODEL>
1

>  <REMARK>
 VINA RESULT:      -8.6      0.000      0.000
  Name = 
  9 active torsions:
  status: ('A' for Active; 'I' for Inactive)
    1  A    between atoms: C_4  and  N_13
    2  A    between atoms: O_5  and  C_12
    3  A    between atoms: O_5  and  C_21
    4  A    between atoms: C_7  and  C_15
    5  A    between atoms: C_7  and  C_16
    6  A    between atoms: C_8  and  C_12
    7  A    between atoms: N_13  and  C_27
    8  A    between atoms: C_16  and  C_30
    9  A    between atoms: C_27  and  C_30
                            x       y       z     vdW  Elec       q    Type
                         _______ _______ _______ _____ _____    ______ ____

>  <TORSDO>
F 9

$$$$
=
 OpenBabel10262421543D

 30 32  0  0  1  0  0  0  0  0999 V2000
  184.0810  178.7040  141.2810 C   0  0  0  0  0  3  0  0  0  0  0  0
  185.7320  178.5690  143.1480 C   0  0  1  0  0  3  0  0  0  0  0  0
  180.8020  178.9260  143.9040 C   0  0  0  0  0  3  0  0  0  0  0  0
  182.7910  178.8300  140.7540 C   0  0  0  0  0  0  0  0  0  0  0  0
  179.5060  179.0330  143.3970 C   0  0  0  0  0  3  0  0  0  0  0  0
  185.8390  178.1830  144.6200 C   0  0  0  0  0  2  0  0  0  0  0  0
  186.4700  177.6760  142.3910 F   0  0  0  0  0  0  0  0  0  0  0  0
  181.9070  178.8560  143.0380 C   0  0  0  0  0  0  0  0  0  0  0  0
  184.8590  179.0030  145.4420 C   0  0  0  0  0  2  0  0  0  0  0  0
  184.3050  178.6300  142.6560 C   0  0  0  0  0  0  0  0  0  0  0  0
  181.6930  178.9010  141.6360 C   0  0  0  0  0  0  0  0  0  0  0  0
  179.2960  179.0670  142.0190 C   0  0  0  0  0  3  0  0  0  0  0  0
  180.3810  178.9990  141.1460 C   0  0  0  0  0  3  0  0  0  0  0  0
  183.4400  178.6280  145.0400 C   0  0  0  0  0  2  0  0  0  0  0  0
  183.2160  178.7370  143.5500 C   0  0  0  0  0  0  0  0  0  0  0  0
  183.0670  177.8170  137.3090 O   0  0  0  0  0  0  0  0  0  0  0  0
  182.6390  177.7370  138.4930 C   0  0  0  0  0  0  0  0  0  0  0  0
  182.6220  178.9150  139.3260 N   0  0  0  0  0  0  0  0  0  0  0  0
  182.9610  175.5000  139.1990 O   0  0  0  0  0  0  0  0  0  0  0  0
  182.1440  176.4370  138.9840 C   0  0  0  0  0  0  0  0  0  0  0  0
  180.7740  176.2370  139.1810 O   0  0  0  0  0  0  0  0  0  0  0  0
  179.2940  175.4650  140.9160 C   0  0  0  0  0  1  0  0  0  0  0  0
  180.2550  175.0730  139.8100 C   0  0  0  0  0  2  0  0  0  0  0  0
  182.6730  180.2280  138.6890 C   0  0  0  0  0  2  0  0  0  0  0  0
  181.3370  180.5460  138.0380 C   0  0  0  0  0  2  0  0  0  0  0  0
  180.9720  182.0040  138.2630 C   0  0  0  0  0  2  0  0  0  0  0  0
  180.6930  182.7240  136.9470 C   0  0  0  0  0  2  0  0  0  0  0  0
  180.8850  184.8700  135.6900 C   0  0  0  0  0  1  0  0  0  0  0  0
  180.9730  184.2150  137.0550 C   0  0  2  0  0  3  0  0  0  0  0  0
  182.3060  184.4150  137.5920 N   0  0  0  0  0  1  0  0  0  0  0  0
  1 10  1  0  0  0  0
  2  7  1  6  0  0  0
  2  6  1  0  0  0  0
  4  1  2  0  0  0  0
  4 11  1  0  0  0  0
  5  3  1  0  0  0  0
  6  9  1  0  0  0  0
  8 15  1  0  0  0  0
  8  3  2  0  0  0  0
 10  2  1  0  0  0  0
 10 15  2  0  0  0  0
 11  8  1  0  0  0  0
 12  5  2  0  0  0  0
 13 11  2  0  0  0  0
 13 12  1  0  0  0  0
 14  9  1  0  0  0  0
 15 14  1  0  0  0  0
 16 17  2  0  0  0  0
 17 20  1  0  0  0  0
 17 18  1  0  0  0  0
 18  4  1  0  0  0  0
 20 21  1  0  0  0  0
 20 19  2  0  0  0  0
 21 23  1  0  0  0  0
 23 22  1  0  0  0  0
 24 18  1  0  0  0  0
 25 26  1  0  0  0  0
 25 24  1  0  0  0  0
 27 29  1  0  0  0  0
 27 26  1  0  0  0  0
 29 28  1  6  0  0  0
 29 30  1  0  0  0  0
M  END
>  <MODEL>
2

>  <REMARK>
 VINA RESULT:      -8.5      5.002      9.247
  Name = 
  9 active torsions:
  status: ('A' for Active; 'I' for Inactive)
    1  A    between atoms: C_4  and  N_13
    2  A    between atoms: O_5  and  C_12
    3  A    between atoms: O_5  and  C_21
    4  A    between atoms: C_7  and  C_15
    5  A    between atoms: C_7  and  C_16
    6  A    between atoms: C_8  and  C_12
    7  A    between atoms: N_13  and  C_27
    8  A    between atoms: C_16  and  C_30
    9  A    between atoms: C_27  and  C_30
                            x       y       z     vdW  Elec       q    Type
                         _______ _______ _______ _____ _____    ______ ____

>  <TORSDO>
F 9

$$$$
=
 OpenBabel10262421543D

 30 32  0  0  1  0  0  0  0  0999 V2000
  188.5010  177.7780  144.3190 C   0  0  0  0  0  3  0  0  0  0  0  0
  188.3820  177.8850  146.8100 C   0  0  1  0  0  3  0  0  0  0  0  0
  184.3950  178.5640  143.8690 C   0  0  0  0  0  3  0  0  0  0  0  0
  187.9590  177.8690  143.0320 C   0  0  0  0  0  0  0  0  0  0  0  0
  183.8320  178.6390  142.5940 C   0  0  0  0  0  3  0  0  0  0  0  0
  187.3940  177.7420  147.9630 C   0  0  0  0  0  2  0  0  0  0  0  0
  189.2990  176.8500  146.8690 F   0  0  0  0  0  0  0  0  0  0  0  0
  185.7670  178.3070  144.0330 C   0  0  0  0  0  0  0  0  0  0  0  0
  186.2500  178.7270  147.7890 C   0  0  0  0  0  2  0  0  0  0  0  0
  187.7090  177.9230  145.4580 C   0  0  0  0  0  0  0  0  0  0  0  0
  186.5810  178.1290  142.8840 C   0  0  0  0  0  0  0  0  0  0  0  0
  184.6310  178.4540  141.4660 C   0  0  0  0  0  3  0  0  0  0  0  0
  185.9950  178.1990  141.6110 C   0  0  0  0  0  3  0  0  0  0  0  0
  185.4570  178.3500  146.5450 C   0  0  0  0  0  2  0  0  0  0  0  0
  186.3340  178.2200  145.3220 C   0  0  0  0  0  0  0  0  0  0  0  0
  191.0410  177.3170  141.2520 O   0  0  0  0  0  0  0  0  0  0  0  0
  190.0630  176.9820  141.9760 C   0  0  0  0  0  0  0  0  0  0  0  0
  188.8290  177.7230  141.8930 N   0  0  0  0  0  0  0  0  0  0  0  0
  189.3050  174.9370  142.8960 O   0  0  0  0  0  0  0  0  0  0  0  0
  190.2070  175.8190  142.8710 C   0  0  0  0  0  0  0  0  0  0  0  0
  191.3220  175.7100  143.7080 O   0  0  0  0  0  0  0  0  0  0  0  0
  191.9820  176.0270  146.0020 C   0  0  0  0  0  1  0  0  0  0  0  0
  191.6460  176.6940  144.6810 C   0  0  0  0  0  2  0  0  0  0  0  0
  188.5740  178.5380  140.7070 C   0  0  0  0  0  2  0  0  0  0  0  0
  188.6270  177.6730  139.4580 C   0  0  0  0  0  2  0  0  0  0  0  0
  189.0700  178.4990  138.2610 C   0  0  0  0  0  2  0  0  0  0  0  0
  187.9670  178.6060  137.2120 C   0  0  0  0  0  2  0  0  0  0  0  0
  186.1970  177.0110  136.4730 C   0  0  0  0  0  1  0  0  0  0  0  0
  186.7220  177.8380  137.6310 C   0  0  2  0  0  3  0  0  0  0  0  0
  185.6960  178.7780  138.0450 N   0  0  0  0  0  1  0  0  0  0  0  0
  1 10  1  0  0  0  0
  2  7  1  6  0  0  0
  2  6  1  0  0  0  0
  3  8  1  0  0  0  0
  4  1  2  0  0  0  0
  5  3  2  0  0  0  0
  8 15  1  0  0  0  0
  9  6  1  0  0  0  0
 10  2  1  0  0  0  0
 11  4  1  0  0  0  0
 11  8  2  0  0  0  0
 12 13  2  0  0  0  0
 12  5  1  0  0  0  0
 13 11  1  0  0  0  0
 14  9  1  0  0  0  0
 15 10  2  0  0  0  0
 15 14  1  0  0  0  0
 16 17  2  0  0  0  0
 17 20  1  0  0  0  0
 18 17  1  0  0  0  0
 18  4  1  0  0  0  0
 20 19  2  0  0  0  0
 20 21  1  0  0  0  0
 21 23  1  0  0  0  0
 23 22  1  0  0  0  0
 24 18  1  0  0  0  0
 25 24  1  0  0  0  0
 26 25  1  0  0  0  0
 27 29  1  0  0  0  0
 27 26  1  0  0  0  0
 29 28  1  6  0  0  0
 29 30  1  0  0  0  0
M  END
>  <MODEL>
3

>  <REMARK>
 VINA RESULT:      -8.5      2.432      6.290
  Name = 
  9 active torsions:
  status: ('A' for Active; 'I' for Inactive)
    1  A    between atoms: C_4  and  N_13
    2  A    between atoms: O_5  and  C_12
    3  A    between atoms: O_5  and  C_21
    4  A    between atoms: C_7  and  C_15
    5  A    between atoms: C_7  and  C_16
    6  A    between atoms: C_8  and  C_12
    7  A    between atoms: N_13  and  C_27
    8  A    between atoms: C_16  and  C_30
    9  A    between atoms: C_27  and  C_30
                            x       y       z     vdW  Elec       q    Type
                         _______ _______ _______ _____ _____    ______ ____

>  <TORSDO>
F 9

$$$$
=
 OpenBabel10262421543D

 30 32  0  0  1  0  0  0  0  0999 V2000
  188.4810  177.7810  144.0970 C   0  0  0  0  0  3  0  0  0  0  0  0
  188.1860  177.8680  146.5740 C   0  0  1  0  0  3  0  0  0  0  0  0
  184.4360  178.6640  143.3640 C   0  0  0  0  0  3  0  0  0  0  0  0
  188.0350  177.8960  142.7760 C   0  0  0  0  0  0  0  0  0  0  0  0
  183.9680  178.7630  142.0530 C   0  0  0  0  0  3  0  0  0  0  0  0
  187.1160  177.7360  147.6520 C   0  0  0  0  0  2  0  0  0  0  0  0
  189.0740  176.8120  146.6870 F   0  0  0  0  0  0  0  0  0  0  0  0
  185.7870  178.3740  143.6230 C   0  0  0  0  0  0  0  0  0  0  0  0
  186.0090  178.7470  147.4080 C   0  0  0  0  0  2  0  0  0  0  0  0
  187.6130  177.9330  145.1780 C   0  0  0  0  0  0  0  0  0  0  0  0
  186.6770  178.1890  142.5330 C   0  0  0  0  0  0  0  0  0  0  0  0
  184.8410  178.5710  140.9830 C   0  0  0  0  0  3  0  0  0  0  0  0
  186.1850  178.2840  141.2220 C   0  0  0  0  0  3  0  0  0  0  0  0
  185.2990  178.4000  146.1070 C   0  0  0  0  0  2  0  0  0  0  0  0
  186.2580  178.2620  144.9480 C   0  0  0  0  0  0  0  0  0  0  0  0
  191.2520  177.4710  141.2140 O   0  0  0  0  0  0  0  0  0  0  0  0
  190.2600  177.1100  141.9050 C   0  0  0  0  0  0  0  0  0  0  0  0
  188.9810  177.7420  141.7000 N   0  0  0  0  0  0  0  0  0  0  0  0
  189.5920  175.0940  142.9500 O   0  0  0  0  0  0  0  0  0  0  0  0
  190.4380  176.0270  142.8910 C   0  0  0  0  0  0  0  0  0  0  0  0
  191.5220  176.0520  143.7740 O   0  0  0  0  0  0  0  0  0  0  0  0
  191.9280  176.3020  146.1340 C   0  0  0  0  0  1  0  0  0  0  0  0
  191.6310  177.0040  144.8230 C   0  0  0  0  0  2  0  0  0  0  0  0
  188.7370  178.4490  140.4450 C   0  0  0  0  0  2  0  0  0  0  0  0
  188.7480  177.4680  139.2830 C   0  0  0  0  0  2  0  0  0  0  0  0
  189.4990  178.0580  138.1000 C   0  0  0  0  0  2  0  0  0  0  0  0
  190.2080  176.9790  137.2890 C   0  0  0  0  0  2  0  0  0  0  0  0
  192.4840  176.2770  138.0310 C   0  0  0  0  0  1  0  0  0  0  0  0
  190.9940  176.0330  138.1840 C   0  0  2  0  0  3  0  0  0  0  0  0
  190.6980  174.6630  137.8120 N   0  0  0  0  0  1  0  0  0  0  0  0
  1 10  1  0  0  0  0
  2  7  1  6  0  0  0
  2  6  1  0  0  0  0
  3  8  1  0  0  0  0
  4  1  2  0  0  0  0
  5  3  2  0  0  0  0
  8 15  1  0  0  0  0
  9  6  1  0  0  0  0
 10  2  1  0  0  0  0
 11  4  1  0  0  0  0
 11  8  2  0  0  0  0
 12 13  2  0  0  0  0
 12  5  1  0  0  0  0
 13 11  1  0  0  0  0
 14  9  1  0  0  0  0
 15 10  2  0  0  0  0
 15 14  1  0  0  0  0
 16 17  2  0  0  0  0
 17 20  1  0  0  0  0
 18 17  1  0  0  0  0
 18  4  1  0  0  0  0
 20 19  2  0  0  0  0
 20 21  1  0  0  0  0
 21 23  1  0  0  0  0
 23 22  1  0  0  0  0
 24 18  1  0  0  0  0
 25 24  1  0  0  0  0
 26 25  1  0  0  0  0
 27 26  1  0  0  0  0
 27 29  1  0  0  0  0
 29 28  1  6  0  0  0
 30 29  1  0  0  0  0
M  END
>  <MODEL>
4

>  <REMARK>
 VINA RESULT:      -8.4      2.453      5.816
  Name = 
  9 active torsions:
  status: ('A' for Active; 'I' for Inactive)
    1  A    between atoms: C_4  and  N_13
    2  A    between atoms: O_5  and  C_12
    3  A    between atoms: O_5  and  C_21
    4  A    between atoms: C_7  and  C_15
    5  A    between atoms: C_7  and  C_16
    6  A    between atoms: C_8  and  C_12
    7  A    between atoms: N_13  and  C_27
    8  A    between atoms: C_16  and  C_30
    9  A    between atoms: C_27  and  C_30
                            x       y       z     vdW  Elec       q    Type
                         _______ _______ _______ _____ _____    ______ ____

>  <TORSDO>
F 9

$$$$
=
 OpenBabel10262421543D

 30 32  0  0  1  0  0  0  0  0999 V2000
  186.2840  178.1290  142.0160 C   0  0  0  0  0  3  0  0  0  0  0  0
  184.1230  178.5490  140.8390 C   0  0  1  0  0  3  0  0  0  0  0  0
  184.5610  178.6220  145.8200 C   0  0  0  0  0  3  0  0  0  0  0  0
  187.0820  177.9690  143.1540 C   0  0  0  0  0  0  0  0  0  0  0  0
  185.3450  178.4860  146.9670 C   0  0  0  0  0  3  0  0  0  0  0  0
  182.7680  179.2190  141.0390 C   0  0  0  0  0  2  0  0  0  0  0  0
  184.8240  179.2280  139.8580 F   0  0  0  0  0  0  0  0  0  0  0  0
  185.1230  178.4560  144.5430 C   0  0  0  0  0  0  0  0  0  0  0  0
  182.0780  178.6370  142.2610 C   0  0  0  0  0  2  0  0  0  0  0  0
  184.9340  178.4680  142.1110 C   0  0  0  0  0  0  0  0  0  0  0  0
  186.5020  178.1390  144.4280 C   0  0  0  0  0  0  0  0  0  0  0  0
  186.7020  178.1850  146.8530 C   0  0  0  0  0  3  0  0  0  0  0  0
  187.2760  178.0150  145.5930 C   0  0  0  0  0  3  0  0  0  0  0  0
  182.8810  179.0000  143.5020 C   0  0  0  0  0  2  0  0  0  0  0  0
  184.3330  178.6040  143.3830 C   0  0  0  0  0  0  0  0  0  0  0  0
  189.9650  176.4560  141.6160 O   0  0  0  0  0  0  0  0  0  0  0  0
  189.0190  177.2850  141.7010 C   0  0  0  0  0  0  0  0  0  0  0  0
  188.4670  177.6060  142.9940 N   0  0  0  0  0  0  0  0  0  0  0  0
  188.2700  179.1600  140.4640 O   0  0  0  0  0  0  0  0  0  0  0  0
  188.5190  177.9230  140.4690 C   0  0  0  0  0  0  0  0  0  0  0  0
  188.2960  177.1550  139.3210 O   0  0  0  0  0  0  0  0  0  0  0  0
  186.5870  177.6310  137.6930 C   0  0  0  0  0  1  0  0  0  0  0  0
  188.0580  177.7360  138.0470 C   0  0  0  0  0  2  0  0  0  0  0  0
  189.2620  177.3290  144.1880 C   0  0  0  0  0  2  0  0  0  0  0  0
  190.3490  178.3800  144.3490 C   0  0  0  0  0  2  0  0  0  0  0  0
  191.6720  177.7220  144.7050 C   0  0  0  0  0  2  0  0  0  0  0  0
  191.4670  176.4560  145.5310 C   0  0  0  0  0  2  0  0  0  0  0  0
  192.3950  175.6280  147.6940 C   0  0  0  0  0  1  0  0  0  0  0  0
  191.6010  176.7330  147.0210 C   0  0  2  0  0  3  0  0  0  0  0  0
  190.2800  176.7980  147.6170 N   0  0  0  0  0  1  0  0  0  0  0  0
  1 10  2  0  0  0  0
  1  4  1  0  0  0  0
  2  7  1  6  0  0  0
  2  6  1  0  0  0  0
  2 10  1  0  0  0  0
  3  5  2  0  0  0  0
  4 11  2  0  0  0  0
  6  9  1  0  0  0  0
  8  3  1  0  0  0  0
  9 14  1  0  0  0  0
 10 15  1  0  0  0  0
 11  8  1  0  0  0  0
 11 13  1  0  0  0  0
 12  5  1  0  0  0  0
 13 12  2  0  0  0  0
 15 14  1  0  0  0  0
 15  8  2  0  0  0  0
 16 17  2  0  0  0  0
 17 18  1  0  0  0  0
 18  4  1  0  0  0  0
 18 24  1  0  0  0  0
 19 20  2  0  0  0  0
 20 17  1  0  0  0  0
 21 20  1  0  0  0  0
 22 23  1  0  0  0  0
 23 21  1  0  0  0  0
 24 25  1  0  0  0  0
 25 26  1  0  0  0  0
 26 27  1  0  0  0  0
 27 29  1  0  0  0  0
 29 30  1  0  0  0  0
 29 28  1  1  0  0  0
M  END
>  <MODEL>
5

>  <REMARK>
 VINA RESULT:      -8.3      1.106      1.410
  Name = 
  9 active torsions:
  status: ('A' for Active; 'I' for Inactive)
    1  A    between atoms: C_4  and  N_13
    2  A    between atoms: O_5  and  C_12
    3  A    between atoms: O_5  and  C_21
    4  A    between atoms: C_7  and  C_15
    5  A    between atoms: C_7  and  C_16
    6  A    between atoms: C_8  and  C_12
    7  A    between atoms: N_13  and  C_27
    8  A    between atoms: C_16  and  C_30
    9  A    between atoms: C_27  and  C_30
                            x       y       z     vdW  Elec       q    Type
                         _______ _______ _______ _____ _____    ______ ____

>  <TORSDO>
F 9

$$$$
=
 OpenBabel10262421543D

 30 32  0  0  1  0  0  0  0  0999 V2000
  188.4800  177.1440  143.3950 C   0  0  0  0  0  3  0  0  0  0  0  0
  190.7840  176.2620  143.7760 C   0  0  1  0  0  3  0  0  0  0  0  0
  187.8920  177.9880  147.4730 C   0  0  0  0  0  3  0  0  0  0  0  0
  187.2760  177.7260  143.8060 C   0  0  0  0  0  0  0  0  0  0  0  0
  186.6900  178.5500  147.9050 C   0  0  0  0  0  3  0  0  0  0  0  0
  191.6660  175.6640  144.8670 C   0  0  0  0  0  2  0  0  0  0  0  0
  190.5430  175.3000  142.8110 F   0  0  0  0  0  0  0  0  0  0  0  0
  188.1030  177.7050  146.1120 C   0  0  0  0  0  0  0  0  0  0  0  0
  191.7550  176.6220  146.0430 C   0  0  0  0  0  2  0  0  0  0  0  0
  189.4840  176.8190  144.3070 C   0  0  0  0  0  0  0  0  0  0  0  0
  187.0800  178.0050  145.1750 C   0  0  0  0  0  0  0  0  0  0  0  0
  185.6810  178.8340  146.9850 C   0  0  0  0  0  3  0  0  0  0  0  0
  185.8750  178.5610  145.6300 C   0  0  0  0  0  3  0  0  0  0  0  0
  190.3790  176.7530  146.6800 C   0  0  0  0  0  2  0  0  0  0  0  0
  189.3140  177.1270  145.6760 C   0  0  0  0  0  0  0  0  0  0  0  0
  185.7680  179.5300  141.0780 O   0  0  0  0  0  0  0  0  0  0  0  0
  186.6210  178.7690  141.6130 C   0  0  0  0  0  0  0  0  0  0  0  0
  186.2810  178.0520  142.8170 N   0  0  0  0  0  0  0  0  0  0  0  0
  188.8880  179.3770  141.3070 O   0  0  0  0  0  0  0  0  0  0  0  0
  187.9400  178.6170  140.9700 C   0  0  0  0  0  0  0  0  0  0  0  0
  188.1280  177.6550  139.9720 O   0  0  0  0  0  0  0  0  0  0  0  0
  190.3250  176.7530  139.5780 C   0  0  0  0  0  1  0  0  0  0  0  0
  189.2350  177.6840  139.0820 C   0  0  0  0  0  2  0  0  0  0  0  0
  184.8720  177.8650  143.1510 C   0  0  0  0  0  2  0  0  0  0  0  0
  184.2080  179.2120  143.3920 C   0  0  0  0  0  2  0  0  0  0  0  0
  182.7380  179.0250  143.7290 C   0  0  0  0  0  2  0  0  0  0  0  0
  181.8800  178.9240  142.4720 C   0  0  0  0  0  2  0  0  0  0  0  0
  179.5570  178.2970  141.8170 C   0  0  0  0  0  1  0  0  0  0  0  0
  180.4020  179.0990  142.7880 C   0  0  2  0  0  3  0  0  0  0  0  0
  180.0510  180.5020  142.6760 N   0  0  0  0  0  1  0  0  0  0  0  0
  1  4  2  0  0  0  0
  1 10  1  0  0  0  0
  2  7  1  6  0  0  0
  2 10  1  0  0  0  0
  2  6  1  0  0  0  0
  3  5  1  0  0  0  0
  4 11  1  0  0  0  0
  6  9  1  0  0  0  0
  8  3  2  0  0  0  0
  9 14  1  0  0  0  0
 10 15  2  0  0  0  0
 11 13  2  0  0  0  0
 11  8  1  0  0  0  0
 12  5  2  0  0  0  0
 13 12  1  0  0  0  0
 15  8  1  0  0  0  0
 15 14  1  0  0  0  0
 16 17  2  0  0  0  0
 17 18  1  0  0  0  0
 18 24  1  0  0  0  0
 18  4  1  0  0  0  0
 20 19  2  0  0  0  0
 20 17  1  0  0  0  0
 21 20  1  0  0  0  0
 23 22  1  0  0  0  0
 23 21  1  0  0  0  0
 24 25  1  0  0  0  0
 25 26  1  0  0  0  0
 27 29  1  0  0  0  0
 27 26  1  0  0  0  0
 29 28  1  6  0  0  0
 30 29  1  0  0  0  0
M  END
>  <MODEL>
6

>  <REMARK>
 VINA RESULT:      -8.3      2.538      6.647
  Name = 
  9 active torsions:
  status: ('A' for Active; 'I' for Inactive)
    1  A    between atoms: C_4  and  N_13
    2  A    between atoms: O_5  and  C_12
    3  A    between atoms: O_5  and  C_21
    4  A    between atoms: C_7  and  C_15
    5  A    between atoms: C_7  and  C_16
    6  A    between atoms: C_8  and  C_12
    7  A    between atoms: N_13  and  C_27
    8  A    between atoms: C_16  and  C_30
    9  A    between atoms: C_27  and  C_30
                            x       y       z     vdW  Elec       q    Type
                         _______ _______ _______ _____ _____    ______ ____

>  <TORSDO>
F 9

$$$$
=
 OpenBabel10262421543D

 30 32  0  0  1  0  0  0  0  0999 V2000
  188.2640  177.8780  144.1980 C   0  0  0  0  0  3  0  0  0  0  0  0
  189.3440  177.6170  146.4330 C   0  0  1  0  0  3  0  0  0  0  0  0
  184.4790  178.6260  145.8700 C   0  0  0  0  0  3  0  0  0  0  0  0
  187.1830  178.1440  143.3510 C   0  0  0  0  0  0  0  0  0  0  0  0
  183.3840  178.8730  145.0400 C   0  0  0  0  0  3  0  0  0  0  0  0
  189.0140  177.2840  147.8850 C   0  0  0  0  0  2  0  0  0  0  0  0
  190.1270  176.6060  145.9040 F   0  0  0  0  0  0  0  0  0  0  0  0
  185.7510  178.3790  145.3240 C   0  0  0  0  0  0  0  0  0  0  0  0
  187.9740  178.2560  148.4150 C   0  0  0  0  0  2  0  0  0  0  0  0
  188.1140  177.8360  145.5840 C   0  0  0  0  0  0  0  0  0  0  0  0
  185.9140  178.3900  143.9140 C   0  0  0  0  0  0  0  0  0  0  0  0
  183.5440  178.8740  143.6550 C   0  0  0  0  0  3  0  0  0  0  0  0
  184.7990  178.6320  143.0970 C   0  0  0  0  0  3  0  0  0  0  0  0
  186.6700  178.0460  147.6590 C   0  0  0  0  0  2  0  0  0  0  0  0
  186.8560  178.1180  146.1620 C   0  0  0  0  0  0  0  0  0  0  0  0
  189.0500  178.3870  140.2800 O   0  0  0  0  0  0  0  0  0  0  0  0
  188.6730  177.8300  141.3480 C   0  0  0  0  0  0  0  0  0  0  0  0
  187.4020  178.1870  141.9270 N   0  0  0  0  0  0  0  0  0  0  0  0
  189.0230  175.7720  142.4650 O   0  0  0  0  0  0  0  0  0  0  0  0
  189.5400  176.8060  141.9600 C   0  0  0  0  0  0  0  0  0  0  0  0
  190.9250  176.9950  142.0050 O   0  0  0  0  0  0  0  0  0  0  0  0
  191.6800  178.5720  143.6600 C   0  0  0  0  0  1  0  0  0  0  0  0
  191.6400  177.1190  143.2270 C   0  0  0  0  0  2  0  0  0  0  0  0
  186.3980  178.8290  141.0830 C   0  0  0  0  0  2  0  0  0  0  0  0
  186.4490  178.2510  139.6780 C   0  0  0  0  0  2  0  0  0  0  0  0
  185.1530  178.5410  138.9380 C   0  0  0  0  0  2  0  0  0  0  0  0
  184.1980  179.3780  139.7830 C   0  0  0  0  0  2  0  0  0  0  0  0
  182.6670  177.4580  140.2170 C   0  0  0  0  0  1  0  0  0  0  0  0
  182.7680  178.8720  139.6770 C   0  0  2  0  0  3  0  0  0  0  0  0
  182.3590  178.8780  138.2850 N   0  0  0  0  0  1  0  0  0  0  0  0
  1 10  1  0  0  0  0
  2  7  1  6  0  0  0
  2  6  1  0  0  0  0
  4 11  1  0  0  0  0
  4  1  2  0  0  0  0
  5  3  2  0  0  0  0
  6  9  1  0  0  0  0
  8  3  1  0  0  0  0
  8 15  1  0  0  0  0
 10 15  2  0  0  0  0
 10  2  1  0  0  0  0
 11  8  2  0  0  0  0
 12  5  1  0  0  0  0
 13 12  2  0  0  0  0
 13 11  1  0  0  0  0
 14  9  1  0  0  0  0
 15 14  1  0  0  0  0
 16 17  2  0  0  0  0
 17 18  1  0  0  0  0
 17 20  1  0  0  0  0
 18  4  1  0  0  0  0
 20 21  1  0  0  0  0
 20 19  2  0  0  0  0
 21 23  1  0  0  0  0
 23 22  1  0  0  0  0
 24 18  1  0  0  0  0
 25 24  1  0  0  0  0
 26 25  1  0  0  0  0
 26 27  1  0  0  0  0
 29 27  1  0  0  0  0
 29 28  1  6  0  0  0
 30 29  1  0  0  0  0
M  END
>  <MODEL>
7

>  <REMARK>
 VINA RESULT:      -8.1      2.667      6.442
  Name = 
  9 active torsions:
  status: ('A' for Active; 'I' for Inactive)
    1  A    between atoms: C_4  and  N_13
    2  A    between atoms: O_5  and  C_12
    3  A    between atoms: O_5  and  C_21
    4  A    between atoms: C_7  and  C_15
    5  A    between atoms: C_7  and  C_16
    6  A    between atoms: C_8  and  C_12
    7  A    between atoms: N_13  and  C_27
    8  A    between atoms: C_16  and  C_30
    9  A    between atoms: C_27  and  C_30
                            x       y       z     vdW  Elec       q    Type
                         _______ _______ _______ _____ _____    ______ ____

>  <TORSDO>
F 9

$$$$
=
 OpenBabel10262421543D

 30 32  0  0  1  0  0  0  0  0999 V2000
  188.2930  177.8930  143.7770 C   0  0  0  0  0  3  0  0  0  0  0  0
  189.7900  177.3870  145.7090 C   0  0  1  0  0  3  0  0  0  0  0  0
  184.9300  178.4370  146.2420 C   0  0  0  0  0  3  0  0  0  0  0  0
  187.0710  178.2480  143.1970 C   0  0  0  0  0  0  0  0  0  0  0  0
  183.6970  178.7720  145.6800 C   0  0  0  0  0  3  0  0  0  0  0  0
  189.7490  176.8920  147.1510 C   0  0  0  0  0  2  0  0  0  0  0  0
  190.4330  176.4440  144.9260 F   0  0  0  0  0  0  0  0  0  0  0  0
  186.0630  178.2570  145.4300 C   0  0  0  0  0  0  0  0  0  0  0  0
  188.8540  177.7960  147.9820 C   0  0  0  0  0  2  0  0  0  0  0  0
  188.4210  177.6960  145.1520 C   0  0  0  0  0  0  0  0  0  0  0  0
  185.9440  178.4270  144.0260 C   0  0  0  0  0  0  0  0  0  0  0  0
  183.5790  178.9280  144.3000 C   0  0  0  0  0  3  0  0  0  0  0  0
  184.6930  178.7550  143.4790 C   0  0  0  0  0  3  0  0  0  0  0  0
  187.4210  177.6680  147.4830 C   0  0  0  0  0  2  0  0  0  0  0  0
  187.3070  177.9070  145.9960 C   0  0  0  0  0  0  0  0  0  0  0  0
  188.2720  178.9950  139.8850 O   0  0  0  0  0  0  0  0  0  0  0  0
  188.1640  178.2990  140.9320 C   0  0  0  0  0  0  0  0  0  0  0  0
  187.0020  178.4520  141.7720 N   0  0  0  0  0  0  0  0  0  0  0  0
  188.9180  176.1390  141.5410 O   0  0  0  0  0  0  0  0  0  0  0  0
  189.2270  177.3280  141.2530 C   0  0  0  0  0  0  0  0  0  0  0  0
  190.5670  177.7300  141.2640 O   0  0  0  0  0  0  0  0  0  0  0  0
  191.0680  177.0110  139.0220 C   0  0  0  0  0  1  0  0  0  0  0  0
  191.5570  177.1130  140.4550 C   0  0  0  0  0  2  0  0  0  0  0  0
  185.7980  179.0520  141.2060 C   0  0  0  0  0  2  0  0  0  0  0  0
  185.1050  178.0630  140.2820 C   0  0  0  0  0  2  0  0  0  0  0  0
  184.8230  178.7060  138.9340 C   0  0  0  0  0  2  0  0  0  0  0  0
  184.8710  177.6850  137.8020 C   0  0  0  0  0  2  0  0  0  0  0  0
  186.9540  178.1400  136.5070 C   0  0  0  0  0  1  0  0  0  0  0  0
  186.2950  177.2270  137.5230 C   0  0  2  0  0  3  0  0  0  0  0  0
  186.2690  175.8740  136.9990 N   0  0  0  0  0  1  0  0  0  0  0  0
  1 10  1  0  0  0  0
  2  7  1  6  0  0  0
  2  6  1  0  0  0  0
  4  1  2  0  0  0  0
  4 11  1  0  0  0  0
  5  3  1  0  0  0  0
  6  9  1  0  0  0  0
  8 15  1  0  0  0  0
  8  3  2  0  0  0  0
 10  2  1  0  0  0  0
 10 15  2  0  0  0  0
 11  8  1  0  0  0  0
 12  5  2  0  0  0  0
 13 11  2  0  0  0  0
 13 12  1  0  0  0  0
 14  9  1  0  0  0  0
 15 14  1  0  0  0  0
 16 17  2  0  0  0  0
 17 20  1  0  0  0  0
 17 18  1  0  0  0  0
 18  4  1  0  0  0  0
 20 21  1  0  0  0  0
 20 19  2  0  0  0  0
 22 23  1  0  0  0  0
 23 21  1  0  0  0  0
 24 18  1  0  0  0  0
 25 24  1  0  0  0  0
 26 25  1  0  0  0  0
 27 26  1  0  0  0  0
 29 28  1  6  0  0  0
 29 27  1  0  0  0  0
 30 29  1  0  0  0  0
M  END
>  <MODEL>
8

>  <REMARK>
 VINA RESULT:      -7.7      2.622      6.219
  Name = 
  9 active torsions:
  status: ('A' for Active; 'I' for Inactive)
    1  A    between atoms: C_4  and  N_13
    2  A    between atoms: O_5  and  C_12
    3  A    between atoms: O_5  and  C_21
    4  A    between atoms: C_7  and  C_15
    5  A    between atoms: C_7  and  C_16
    6  A    between atoms: C_8  and  C_12
    7  A    between atoms: N_13  and  C_27
    8  A    between atoms: C_16  and  C_30
    9  A    between atoms: C_27  and  C_30
                            x       y       z     vdW  Elec       q    Type
                         _______ _______ _______ _____ _____    ______ ____

>  <TORSDO>
F 9

$$$$
=
 OpenBabel10262421543D

 30 32  0  0  1  0  0  0  0  0999 V2000
  189.5950  176.9950  143.8350 C   0  0  0  0  0  3  0  0  0  0  0  0
  191.6260  176.2870  145.1040 C   0  0  1  0  0  3  0  0  0  0  0  0
  187.4430  177.8730  147.3390 C   0  0  0  0  0  3  0  0  0  0  0  0
  188.2940  177.4970  143.7300 C   0  0  0  0  0  0  0  0  0  0  0  0
  186.1360  178.3570  147.2540 C   0  0  0  0  0  3  0  0  0  0  0  0
  192.0560  175.7750  146.4750 C   0  0  0  0  0  2  0  0  0  0  0  0
  191.8290  175.2920  144.1650 F   0  0  0  0  0  0  0  0  0  0  0  0
  188.1750  177.5800  146.1750 C   0  0  0  0  0  0  0  0  0  0  0  0
  191.6310  176.7600  147.5510 C   0  0  0  0  0  2  0  0  0  0  0  0
  190.1910  176.7600  145.0750 C   0  0  0  0  0  0  0  0  0  0  0  0
  187.5730  177.7870  144.9060 C   0  0  0  0  0  0  0  0  0  0  0  0
  185.5420  178.5490  146.0080 C   0  0  0  0  0  3  0  0  0  0  0  0
  186.2550  178.2650  144.8430 C   0  0  0  0  0  3  0  0  0  0  0  0
  190.1110  176.8050  147.6100 C   0  0  0  0  0  2  0  0  0  0  0  0
  189.4920  177.0820  146.2600 C   0  0  0  0  0  0  0  0  0  0  0  0
  188.1190  178.7950  140.3750 O   0  0  0  0  0  0  0  0  0  0  0  0
  188.5710  178.0570  141.2930 C   0  0  0  0  0  0  0  0  0  0  0  0
  187.7360  177.7310  142.4220 N   0  0  0  0  0  0  0  0  0  0  0  0
  190.8990  178.1370  141.7180 O   0  0  0  0  0  0  0  0  0  0  0  0
  189.9430  177.5270  141.1680 C   0  0  0  0  0  0  0  0  0  0  0  0
  190.1820  176.3700  140.4200 O   0  0  0  0  0  0  0  0  0  0  0  0
  190.1510  177.0870  138.1220 C   0  0  0  0  0  1  0  0  0  0  0  0
  190.9330  176.3820  139.2140 C   0  0  0  0  0  2  0  0  0  0  0  0
  186.2890  177.8770  142.2930 C   0  0  0  0  0  2  0  0  0  0  0  0
  185.9500  179.2470  141.7280 C   0  0  0  0  0  2  0  0  0  0  0  0
  184.6130  179.2050  141.0040 C   0  0  0  0  0  2  0  0  0  0  0  0
  183.8190  177.9530  141.3610 C   0  0  0  0  0  2  0  0  0  0  0  0
  183.2560  178.2910  138.9550 C   0  0  0  0  0  1  0  0  0  0  0  0
  182.9220  177.5140  140.2140 C   0  0  2  0  0  3  0  0  0  0  0  0
  181.5360  177.7590  140.5680 N   0  0  0  0  0  1  0  0  0  0  0  0
  1 10  1  0  0  0  0
  2  7  1  6  0  0  0
  2  6  1  0  0  0  0
  4  1  2  0  0  0  0
  4 11  1  0  0  0  0
  5  3  1  0  0  0  0
  6  9  1  0  0  0  0
  8 15  1  0  0  0  0
  8  3  2  0  0  0  0
  9 14  1  0  0  0  0
 10  2  1  0  0  0  0
 10 15  2  0  0  0  0
 11  8  1  0  0  0  0
 12  5  2  0  0  0  0
 13 11  2  0  0  0  0
 13 12  1  0  0  0  0
 15 14  1  0  0  0  0
 16 17  2  0  0  0  0
 17 18  1  0  0  0  0
 18  4  1  0  0  0  0
 20 17  1  0  0  0  0
 20 19  2  0  0  0  0
 21 20  1  0  0  0  0
 22 23  1  0  0  0  0
 23 21  1  0  0  0  0
 24 18  1  0  0  0  0
 25 24  1  0  0  0  0
 26 27  1  0  0  0  0
 26 25  1  0  0  0  0
 29 28  1  6  0  0  0
 29 30  1  0  0  0  0
 29 27  1  0  0  0  0
M  END
>  <MODEL>
9

>  <REMARK>
 VINA RESULT:      -7.6      2.492      6.444
  Name = 
  9 active torsions:
  status: ('A' for Active; 'I' for Inactive)
    1  A    between atoms: C_4  and  N_13
    2  A    between atoms: O_5  and  C_12
    3  A    between atoms: O_5  and  C_21
    4  A    between atoms: C_7  and  C_15
    5  A    between atoms: C_7  and  C_16
    6  A    between atoms: C_8  and  C_12
    7  A    between atoms: N_13  and  C_27
    8  A    between atoms: C_16  and  C_30
    9  A    between atoms: C_27  and  C_30
                            x       y       z     vdW  Elec       q    Type
                         _______ _______ _______ _____ _____    ______ ____

>  <TORSDO>
F 9

$$$$
