=
 OpenBabel10262419533D

 25 28  0  0  1  0  0  0  0  0999 V2000
  186.9020  177.8770  144.8410 N   0  0  0  0  0  0  0  0  0  0  0  0
  187.9520  177.1800  144.3280 C   0  0  0  0  0  0  0  0  0  0  0  0
  188.0770  178.4740  146.8310 C   0  0  0  0  0  3  0  0  0  0  0  0
  185.6720  178.1280  144.3760 C   0  0  0  0  0  0  0  0  0  0  0  0
  183.1070  178.9050  143.8330 C   0  0  0  0  0  3  0  0  0  0  0  0
  189.1830  177.7600  146.3470 C   0  0  0  0  0  3  0  0  0  0  0  0
  185.0010  178.8950  145.2840 C   0  0  0  0  0  0  0  0  0  0  0  0
  183.6960  179.3110  145.0460 C   0  0  0  0  0  3  0  0  0  0  0  0
  190.2770  176.3900  144.5890 N   0  0  0  0  0  0  0  0  0  0  0  0
  191.5760  176.4830  145.2360 C   0  0  0  0  0  1  0  0  0  0  0  0
  187.8480  176.4640  143.0060 C   0  0  0  0  0  2  0  0  0  0  0  0
  183.8400  178.1120  142.9200 C   0  0  0  0  0  3  0  0  0  0  0  0
  186.9340  178.5110  146.0380 C   0  0  0  0  0  0  0  0  0  0  0  0
  185.7790  179.1560  146.3570 N   0  0  0  0  0  0  0  0  0  0  0  0
  190.1620  175.5610  143.3910 C   0  0  0  0  0  2  0  0  0  0  0  0
  185.1230  177.7290  143.2010 N   0  0  0  0  0  0  0  0  0  0  0  0
  189.2160  176.1970  142.3710 C   0  0  2  0  0  3  0  0  0  0  0  0
  189.1330  177.1000  145.1000 C   0  0  0  0  0  0  0  0  0  0  0  0
  189.7980  177.4480  141.8040 C   0  0  0  0  0  3  0  0  0  0  0  0
  189.8230  177.6300  140.5140 C   0  0  0  0  0  0  0  0  0  0  0  0
  189.8500  177.8080  139.2210 C   0  0  0  0  0  0  0  0  0  0  0  0
  189.1480  178.9890  138.6440 C   0  0  0  0  0  1  0  0  0  0  0  0
  190.5460  176.8490  138.3480 C   0  0  0  0  0  0  0  0  0  0  0  0
  191.0240  175.6460  138.8600 O   0  0  0  0  0  1  0  0  0  0  0  0
  190.7180  177.1100  137.1290 O   0  0  0  0  0  0  0  0  0  0  0  0
  1 13  1  0  0  0  0
  2  1  1  0  0  0  0
  2 18  2  0  0  0  0
  4  1  1  0  0  0  0
  4  7  1  0  0  0  0
  5  8  1  0  0  0  0
  6  3  2  0  0  0  0
  7 14  1  0  0  0  0
  8  7  2  0  0  0  0
  9 18  1  0  0  0  0
  9 10  1  0  0  0  0
 11  2  1  0  0  0  0
 12 16  1  0  0  0  0
 12  5  2  0  0  0  0
 13 14  2  0  0  0  0
 13  3  1  0  0  0  0
 15  9  1  0  0  0  0
 16  4  2  0  0  0  0
 17 19  1  1  0  0  0
 17 11  1  0  0  0  0
 17 15  1  0  0  0  0
 18  6  1  0  0  0  0
 20 19  2  0  0  0  0
 21 20  2  0  0  0  0
 22 21  1  0  0  0  0
 23 24  1  0  0  0  0
 23 21  1  0  0  0  0
 25 23  2  0  0  0  0
M  END
>  <MODEL>
1

>  <REMARK>
 VINA RESULT:      -8.3      0.000      0.000
  Name = 
  2 active torsions:
  status: ('A' for Active; 'I' for Inactive)
    1  A    between atoms: C_2  and  C_21
    2  A    between atoms: C_6  and  C_23
                            x       y       z     vdW  Elec       q    Type
                         _______ _______ _______ _____ _____    ______ ____

>  <TORSDO>
F 2

$$$$
=
 OpenBabel10262419533D

 25 28  0  0  1  0  0  0  0  0999 V2000
  187.9020  177.7420  142.1760 N   0  0  0  0  0  0  0  0  0  0  0  0
  186.7880  178.3430  142.6770 C   0  0  0  0  0  0  0  0  0  0  0  0
  188.4170  176.6450  144.2320 C   0  0  0  0  0  3  0  0  0  0  0  0
  188.4750  177.7670  140.9650 C   0  0  0  0  0  0  0  0  0  0  0  0
  189.9620  177.5010  138.6860 C   0  0  0  0  0  3  0  0  0  0  0  0
  187.2830  177.2490  144.7940 C   0  0  0  0  0  3  0  0  0  0  0  0
  189.5850  176.9740  140.9830 C   0  0  0  0  0  0  0  0  0  0  0  0
  190.3680  176.8120  139.8460 C   0  0  0  0  0  3  0  0  0  0  0  0
  185.2820  178.7060  144.5990 N   0  0  0  0  0  0  0  0  0  0  0  0
  184.7830  178.3040  145.9050 C   0  0  0  0  0  1  0  0  0  0  0  0
  185.9550  179.2770  141.8360 C   0  0  0  0  0  2  0  0  0  0  0  0
  188.8030  178.3120  138.7140 C   0  0  0  0  0  3  0  0  0  0  0  0
  188.7010  176.9200  142.8980 C   0  0  0  0  0  0  0  0  0  0  0  0
  189.7580  176.4190  142.2020 N   0  0  0  0  0  0  0  0  0  0  0  0
  184.5420  179.7300  143.8650 C   0  0  0  0  0  2  0  0  0  0  0  0
  188.0650  178.4370  139.8590 N   0  0  0  0  0  0  0  0  0  0  0  0
  184.5270  179.4290  142.3650 C   0  0  2  0  0  3  0  0  0  0  0  0
  186.4620  178.1070  144.0310 C   0  0  0  0  0  0  0  0  0  0  0  0
  183.7120  178.2150  142.0690 C   0  0  0  0  0  3  0  0  0  0  0  0
  182.4440  178.3310  141.7930 C   0  0  0  0  0  0  0  0  0  0  0  0
  181.1730  178.4500  141.5200 C   0  0  0  0  0  0  0  0  0  0  0  0
  180.6700  177.9570  140.2070 C   0  0  0  0  0  1  0  0  0  0  0  0
  180.2560  179.0750  142.4870 C   0  0  0  0  0  0  0  0  0  0  0  0
  179.2270  178.3370  143.0640 O   0  0  0  0  0  1  0  0  0  0  0  0
  180.3930  180.2870  142.7980 O   0  0  0  0  0  0  0  0  0  0  0  0
  1  2  1  0  0  0  0
  1 13  1  0  0  0  0
  2 18  2  0  0  0  0
  3  6  2  0  0  0  0
  4  7  1  0  0  0  0
  4  1  1  0  0  0  0
  5 12  2  0  0  0  0
  5  8  1  0  0  0  0
  7 14  1  0  0  0  0
  8  7  2  0  0  0  0
  9 10  1  0  0  0  0
 11 17  1  0  0  0  0
 11  2  1  0  0  0  0
 12 16  1  0  0  0  0
 13  3  1  0  0  0  0
 14 13  2  0  0  0  0
 15  9  1  0  0  0  0
 16  4  2  0  0  0  0
 17 19  1  1  0  0  0
 17 15  1  0  0  0  0
 18  9  1  0  0  0  0
 18  6  1  0  0  0  0
 20 19  2  0  0  0  0
 21 20  2  0  0  0  0
 21 23  1  0  0  0  0
 22 21  1  0  0  0  0
 23 25  2  0  0  0  0
 23 24  1  0  0  0  0
M  END
>  <MODEL>
2

>  <REMARK>
 VINA RESULT:      -8.2      4.077      7.044
  Name = 
  2 active torsions:
  status: ('A' for Active; 'I' for Inactive)
    1  A    between atoms: C_2  and  C_21
    2  A    between atoms: C_6  and  C_23
                            x       y       z     vdW  Elec       q    Type
                         _______ _______ _______ _____ _____    ______ ____

>  <TORSDO>
F 2

$$$$
=
 OpenBabel10262419533D

 25 28  0  0  1  0  0  0  0  0999 V2000
  188.2930  177.6250  141.5900 N   0  0  0  0  0  0  0  0  0  0  0  0
  187.2350  178.1570  142.2590 C   0  0  0  0  0  0  0  0  0  0  0  0
  189.0820  176.4180  143.4910 C   0  0  0  0  0  3  0  0  0  0  0  0
  188.7130  177.7450  140.3230 C   0  0  0  0  0  0  0  0  0  0  0  0
  189.9180  177.6720  137.8690 C   0  0  0  0  0  3  0  0  0  0  0  0
  188.0100  176.9480  144.2240 C   0  0  0  0  0  3  0  0  0  0  0  0
  189.8360  176.9890  140.1540 C   0  0  0  0  0  0  0  0  0  0  0  0
  190.4780  176.9240  138.9230 C   0  0  0  0  0  3  0  0  0  0  0  0
  185.9660  178.3490  144.3680 N   0  0  0  0  0  0  0  0  0  0  0  0
  185.6400  177.8500  145.6950 C   0  0  0  0  0  1  0  0  0  0  0  0
  186.2830  179.1150  141.5890 C   0  0  0  0  0  2  0  0  0  0  0  0
  188.7510  178.4420  138.0890 C   0  0  0  0  0  3  0  0  0  0  0  0
  189.1940  176.7860  142.1530 C   0  0  0  0  0  0  0  0  0  0  0  0
  190.1700  176.3640  141.3040 N   0  0  0  0  0  0  0  0  0  0  0  0
  185.1170  179.3940  143.7980 C   0  0  0  0  0  2  0  0  0  0  0  0
  188.1560  178.4700  139.3210 N   0  0  0  0  0  0  0  0  0  0  0  0
  184.9270  179.1880  142.2950 C   0  0  2  0  0  3  0  0  0  0  0  0
  187.0820  177.8260  143.6240 C   0  0  0  0  0  0  0  0  0  0  0  0
  184.1110  177.9690  142.0180 C   0  0  0  0  0  3  0  0  0  0  0  0
  183.4660  177.8580  140.8920 C   0  0  0  0  0  0  0  0  0  0  0  0
  182.8180  177.7500  139.7640 C   0  0  0  0  0  0  0  0  0  0  0  0
  183.1250  176.6030  138.8640 C   0  0  0  0  0  1  0  0  0  0  0  0
  181.8130  178.7560  139.3790 C   0  0  0  0  0  0  0  0  0  0  0  0
  181.5420  179.0050  138.0370 O   0  0  0  0  0  0  0  0  0  0  0  0
  181.1910  179.4010  140.2630 O   0  0  0  0  0  1  0  0  0  0  0  0
  1 13  1  0  0  0  0
  1  2  1  0  0  0  0
  2 18  2  0  0  0  0
  3  6  2  0  0  0  0
  4  1  1  0  0  0  0
  5 12  2  0  0  0  0
  5  8  1  0  0  0  0
  7  4  1  0  0  0  0
  7 14  1  0  0  0  0
  8  7  2  0  0  0  0
  9 10  1  0  0  0  0
 11  2  1  0  0  0  0
 11 17  1  0  0  0  0
 12 16  1  0  0  0  0
 13  3  1  0  0  0  0
 14 13  2  0  0  0  0
 15  9  1  0  0  0  0
 16  4  2  0  0  0  0
 17 19  1  1  0  0  0
 17 15  1  0  0  0  0
 18  6  1  0  0  0  0
 18  9  1  0  0  0  0
 20 19  2  0  0  0  0
 21 20  2  0  0  0  0
 22 21  1  0  0  0  0
 23 21  1  0  0  0  0
 23 25  1  0  0  0  0
 24 23  2  0  0  0  0
M  END
>  <MODEL>
3

>  <REMARK>
 VINA RESULT:      -7.9      3.597      6.452
  Name = 
  2 active torsions:
  status: ('A' for Active; 'I' for Inactive)
    1  A    between atoms: C_2  and  C_21
    2  A    between atoms: C_6  and  C_23
                            x       y       z     vdW  Elec       q    Type
                         _______ _______ _______ _____ _____    ______ ____

>  <TORSDO>
F 2

$$$$
=
 OpenBabel10262419533D

 25 28  0  0  1  0  0  0  0  0999 V2000
  185.5760  178.2840  143.2620 N   0  0  0  0  0  0  0  0  0  0  0  0
  184.5530  178.5190  142.3960 C   0  0  0  0  0  0  0  0  0  0  0  0
  184.2010  178.5550  145.1940 C   0  0  0  0  0  3  0  0  0  0  0  0
  186.8710  177.9990  143.0740 C   0  0  0  0  0  0  0  0  0  0  0  0
  189.5340  177.3860  143.1770 C   0  0  0  0  0  3  0  0  0  0  0  0
  183.1180  178.8110  144.3400 C   0  0  0  0  0  3  0  0  0  0  0  0
  187.4730  177.8430  144.2880 C   0  0  0  0  0  0  0  0  0  0  0  0
  188.8240  177.5310  144.3850 C   0  0  0  0  0  3  0  0  0  0  0  0
  182.1630  179.0400  142.0600 N   0  0  0  0  0  0  0  0  0  0  0  0
  180.8010  179.1010  142.5670 C   0  0  0  0  0  1  0  0  0  0  0  0
  184.7750  178.5320  140.9050 C   0  0  0  0  0  2  0  0  0  0  0  0
  188.8690  177.5550  141.9400 C   0  0  0  0  0  3  0  0  0  0  0  0
  185.4360  178.2920  144.6090 C   0  0  0  0  0  0  0  0  0  0  0  0
  186.5840  178.0240  145.2900 N   0  0  0  0  0  0  0  0  0  0  0  0
  182.3710  179.2110  140.6230 C   0  0  0  0  0  2  0  0  0  0  0  0
  187.5360  177.8610  141.9000 N   0  0  0  0  0  0  0  0  0  0  0  0
  183.4840  178.2940  140.1150 C   0  0  2  0  0  3  0  0  0  0  0  0
  183.2800  178.8040  142.9380 C   0  0  0  0  0  0  0  0  0  0  0  0
  183.0720  176.8610  140.1800 C   0  0  0  0  0  3  0  0  0  0  0  0
  181.8740  176.5100  139.8100 C   0  0  0  0  0  0  0  0  0  0  0  0
  180.6710  176.1610  139.4410 C   0  0  0  0  0  0  0  0  0  0  0  0
  180.5160  175.1800  138.3290 C   0  0  0  0  0  1  0  0  0  0  0  0
  179.4890  176.7390  140.1000 C   0  0  0  0  0  0  0  0  0  0  0  0
  178.9310  176.1240  141.2160 O   0  0  0  0  0  1  0  0  0  0  0  0
  178.9700  177.7970  139.6570 O   0  0  0  0  0  0  0  0  0  0  0  0
  1 13  1  0  0  0  0
  2 18  2  0  0  0  0
  2  1  1  0  0  0  0
  4  1  1  0  0  0  0
  4  7  1  0  0  0  0
  5  8  1  0  0  0  0
  6  3  2  0  0  0  0
  7  8  2  0  0  0  0
  7 14  1  0  0  0  0
  9 10  1  0  0  0  0
  9 18  1  0  0  0  0
 11  2  1  0  0  0  0
 12  5  2  0  0  0  0
 13  3  1  0  0  0  0
 13 14  2  0  0  0  0
 15  9  1  0  0  0  0
 16 12  1  0  0  0  0
 16  4  2  0  0  0  0
 17 19  1  1  0  0  0
 17 15  1  0  0  0  0
 17 11  1  0  0  0  0
 18  6  1  0  0  0  0
 20 19  2  0  0  0  0
 21 20  2  0  0  0  0
 21 23  1  0  0  0  0
 22 21  1  0  0  0  0
 23 24  1  0  0  0  0
 25 23  2  0  0  0  0
M  END
>  <MODEL>
4

>  <REMARK>
 VINA RESULT:      -7.4      4.370      7.246
  Name = 
  2 active torsions:
  status: ('A' for Active; 'I' for Inactive)
    1  A    between atoms: C_2  and  C_21
    2  A    between atoms: C_6  and  C_23
                            x       y       z     vdW  Elec       q    Type
                         _______ _______ _______ _____ _____    ______ ____

>  <TORSDO>
F 2

$$$$
=
 OpenBabel10262419533D

 25 28  0  0  1  0  0  0  0  0999 V2000
  187.4760  177.8890  142.3730 N   0  0  0  0  0  0  0  0  0  0  0  0
  186.2000  178.3510  142.2870 C   0  0  0  0  0  0  0  0  0  0  0  0
  187.2970  177.3850  144.6990 C   0  0  0  0  0  3  0  0  0  0  0  0
  188.4550  177.7640  141.4660 C   0  0  0  0  0  0  0  0  0  0  0  0
  190.7060  177.3120  139.9820 C   0  0  0  0  0  3  0  0  0  0  0  0
  185.9780  177.8600  144.6610 C   0  0  0  0  0  3  0  0  0  0  0  0
  189.5550  177.2290  142.0700 C   0  0  0  0  0  0  0  0  0  0  0  0
  190.7190  176.9830  141.3520 C   0  0  0  0  0  3  0  0  0  0  0  0
  184.0540  178.8150  143.4170 N   0  0  0  0  0  0  0  0  0  0  0  0
  183.1480  178.6150  144.5370 C   0  0  0  0  0  1  0  0  0  0  0  0
  185.6480  178.8980  140.9950 C   0  0  0  0  0  2  0  0  0  0  0  0
  189.5420  177.8630  139.3970 C   0  0  0  0  0  3  0  0  0  0  0  0
  188.0290  177.4160  143.5160 C   0  0  0  0  0  0  0  0  0  0  0  0
  189.3160  176.9960  143.3790 N   0  0  0  0  0  0  0  0  0  0  0  0
  183.5380  179.4900  142.2270 C   0  0  0  0  0  2  0  0  0  0  0  0
  188.4210  178.0850  140.1490 N   0  0  0  0  0  0  0  0  0  0  0  0
  184.1180  178.8760  140.9520 C   0  0  2  0  0  3  0  0  0  0  0  0
  185.4170  178.3540  143.4630 C   0  0  0  0  0  0  0  0  0  0  0  0
  183.6070  177.4890  140.7430 C   0  0  0  0  0  3  0  0  0  0  0  0
  182.3660  177.2970  140.3960 C   0  0  0  0  0  0  0  0  0  0  0  0
  181.1220  177.1060  140.0500 C   0  0  0  0  0  0  0  0  0  0  0  0
  180.8300  176.3990  138.7720 C   0  0  0  0  0  1  0  0  0  0  0  0
  180.0250  177.5980  140.9020 C   0  0  0  0  0  0  0  0  0  0  0  0
  179.3010  176.7170  141.6980 O   0  0  0  0  0  1  0  0  0  0  0  0
  179.7320  178.8220  140.9140 O   0  0  0  0  0  0  0  0  0  0  0  0
  1 13  1  0  0  0  0
  2  1  1  0  0  0  0
  2 18  2  0  0  0  0
  4  7  1  0  0  0  0
  4  1  1  0  0  0  0
  5  8  1  0  0  0  0
  6  3  2  0  0  0  0
  7 14  1  0  0  0  0
  8  7  2  0  0  0  0
  9 18  1  0  0  0  0
  9 10  1  0  0  0  0
 11  2  1  0  0  0  0
 12  5  2  0  0  0  0
 12 16  1  0  0  0  0
 13  3  1  0  0  0  0
 14 13  2  0  0  0  0
 15  9  1  0  0  0  0
 16  4  2  0  0  0  0
 17 19  1  1  0  0  0
 17 11  1  0  0  0  0
 17 15  1  0  0  0  0
 18  6  1  0  0  0  0
 20 19  2  0  0  0  0
 21 20  2  0  0  0  0
 21 23  1  0  0  0  0
 22 21  1  0  0  0  0
 23 25  2  0  0  0  0
 23 24  1  0  0  0  0
M  END
>  <MODEL>
5

>  <REMARK>
 VINA RESULT:      -7.3      4.111      7.014
  Name = 
  2 active torsions:
  status: ('A' for Active; 'I' for Inactive)
    1  A    between atoms: C_2  and  C_21
    2  A    between atoms: C_6  and  C_23
                            x       y       z     vdW  Elec       q    Type
                         _______ _______ _______ _____ _____    ______ ____

>  <TORSDO>
F 2

$$$$
=
 OpenBabel10262419533D

 25 28  0  0  1  0  0  0  0  0999 V2000
  188.8320  177.5750  143.6780 N   0  0  0  0  0  0  0  0  0  0  0  0
  189.0460  177.8490  142.3630 C   0  0  0  0  0  0  0  0  0  0  0  0
  186.4570  177.6900  143.4710 C   0  0  0  0  0  3  0  0  0  0  0  0
  189.6660  177.3260  144.6960 C   0  0  0  0  0  0  0  0  0  0  0  0
  190.9620  176.7540  147.0360 C   0  0  0  0  0  3  0  0  0  0  0  0
  186.6290  177.9840  142.1100 C   0  0  0  0  0  3  0  0  0  0  0  0
  188.9350  177.0980  145.8250 C   0  0  0  0  0  0  0  0  0  0  0  0
  189.5540  176.8040  147.0340 C   0  0  0  0  0  3  0  0  0  0  0  0
  188.0950  178.3500  140.1400 N   0  0  0  0  0  0  0  0  0  0  0  0
  186.9670  178.3530  139.2220 C   0  0  0  0  0  1  0  0  0  0  0  0
  190.4400  177.9680  141.8030 C   0  0  0  0  0  2  0  0  0  0  0  0
  191.6800  176.9950  145.8410 C   0  0  0  0  0  3  0  0  0  0  0  0
  187.6010  177.4880  144.2370 C   0  0  0  0  0  0  0  0  0  0  0  0
  187.6120  177.1960  145.5660 N   0  0  0  0  0  0  0  0  0  0  0  0
  189.4250  178.6230  139.5990 C   0  0  0  0  0  2  0  0  0  0  0  0
  191.0220  177.2790  144.6760 N   0  0  0  0  0  0  0  0  0  0  0  0
  190.4850  177.7620  140.2860 C   0  0  2  0  0  3  0  0  0  0  0  0
  187.9180  178.0750  141.5430 C   0  0  0  0  0  0  0  0  0  0  0  0
  190.3180  176.3210  139.9350 C   0  0  0  0  0  3  0  0  0  0  0  0
  190.5560  175.9130  138.7210 C   0  0  0  0  0  0  0  0  0  0  0  0
  190.7910  175.5080  137.5030 C   0  0  0  0  0  0  0  0  0  0  0  0
  191.8380  174.4710  137.2790 C   0  0  0  0  0  1  0  0  0  0  0  0
  190.0470  176.0780  136.3680 C   0  0  0  0  0  0  0  0  0  0  0  0
  188.8900  176.8200  136.5840 O   0  0  0  0  0  1  0  0  0  0  0  0
  190.4510  175.8970  135.1890 O   0  0  0  0  0  0  0  0  0  0  0  0
  1 13  1  0  0  0  0
  1  4  1  0  0  0  0
  2  1  1  0  0  0  0
  3 13  1  0  0  0  0
  4  7  1  0  0  0  0
  6  3  2  0  0  0  0
  7  8  2  0  0  0  0
  8  5  1  0  0  0  0
  9 18  1  0  0  0  0
 10  9  1  0  0  0  0
 11  2  1  0  0  0  0
 12  5  2  0  0  0  0
 13 14  2  0  0  0  0
 14  7  1  0  0  0  0
 15  9  1  0  0  0  0
 15 17  1  0  0  0  0
 16  4  2  0  0  0  0
 16 12  1  0  0  0  0
 17 19  1  1  0  0  0
 17 11  1  0  0  0  0
 18  6  1  0  0  0  0
 18  2  2  0  0  0  0
 20 19  2  0  0  0  0
 21 20  2  0  0  0  0
 22 21  1  0  0  0  0
 23 24  1  0  0  0  0
 23 21  1  0  0  0  0
 25 23  2  0  0  0  0
M  END
>  <MODEL>
6

>  <REMARK>
 VINA RESULT:      -7.3      2.042      4.676
  Name = 
  2 active torsions:
  status: ('A' for Active; 'I' for Inactive)
    1  A    between atoms: C_2  and  C_21
    2  A    between atoms: C_6  and  C_23
                            x       y       z     vdW  Elec       q    Type
                         _______ _______ _______ _____ _____    ______ ____

>  <TORSDO>
F 2

$$$$
=
 OpenBabel10262419533D

 25 28  0  0  1  0  0  0  0  0999 V2000
  185.3950  178.2680  144.2200 N   0  0  0  0  0  0  0  0  0  0  0  0
  186.5990  177.6380  144.1420 C   0  0  0  0  0  0  0  0  0  0  0  0
  185.8700  179.2370  146.3480 C   0  0  0  0  0  3  0  0  0  0  0  0
  184.3460  178.3160  143.3890 C   0  0  0  0  0  0  0  0  0  0  0  0
  182.0120  178.7190  142.0220 C   0  0  0  0  0  3  0  0  0  0  0  0
  187.1200  178.6010  146.3160 C   0  0  0  0  0  3  0  0  0  0  0  0
  183.3790  179.1060  143.9390 C   0  0  0  0  0  0  0  0  0  0  0  0
  182.1790  179.3370  143.2770 C   0  0  0  0  0  3  0  0  0  0  0  0
  188.7890  177.1600  145.1760 N   0  0  0  0  0  0  0  0  0  0  0  0
  189.8240  177.4810  146.1450 C   0  0  0  0  0  1  0  0  0  0  0  0
  186.9490  176.7580  142.9700 C   0  0  0  0  0  2  0  0  0  0  0  0
  183.0420  177.9090  141.4890 C   0  0  0  0  0  3  0  0  0  0  0  0
  185.0190  179.0430  145.2650 C   0  0  0  0  0  0  0  0  0  0  0  0
  183.7770  179.5850  145.1370 N   0  0  0  0  0  0  0  0  0  0  0  0
  189.1010  176.1820  144.1350 C   0  0  0  0  0  2  0  0  0  0  0  0
  184.2060  177.7150  142.1810 N   0  0  0  0  0  0  0  0  0  0  0  0
  188.4600  176.5740  142.8030 C   0  0  2  0  0  3  0  0  0  0  0  0
  187.4960  177.7910  145.2220 C   0  0  0  0  0  0  0  0  0  0  0  0
  189.0920  177.8050  142.2430 C   0  0  0  0  0  3  0  0  0  0  0  0
  189.5090  177.8200  141.0090 C   0  0  0  0  0  0  0  0  0  0  0  0
  189.9280  177.8330  139.7730 C   0  0  0  0  0  0  0  0  0  0  0  0
  189.3540  178.8330  138.8290 C   0  0  0  0  0  1  0  0  0  0  0  0
  190.9370  176.8640  139.3150 C   0  0  0  0  0  0  0  0  0  0  0  0
  190.5490  175.6820  138.6910 O   0  0  0  0  0  0  0  0  0  0  0  0
  192.1620  177.0950  139.4870 O   0  0  0  0  0  1  0  0  0  0  0  0
  1 13  1  0  0  0  0
  2  1  1  0  0  0  0
  2 18  2  0  0  0  0
  4  7  1  0  0  0  0
  4  1  1  0  0  0  0
  5  8  1  0  0  0  0
  6  3  2  0  0  0  0
  7 14  1  0  0  0  0
  8  7  2  0  0  0  0
  9 18  1  0  0  0  0
  9 10  1  0  0  0  0
 11  2  1  0  0  0  0
 12  5  2  0  0  0  0
 12 16  1  0  0  0  0
 13  3  1  0  0  0  0
 14 13  2  0  0  0  0
 15  9  1  0  0  0  0
 16  4  2  0  0  0  0
 17 19  1  1  0  0  0
 17 11  1  0  0  0  0
 17 15  1  0  0  0  0
 18  6  1  0  0  0  0
 20 19  2  0  0  0  0
 21 20  2  0  0  0  0
 22 21  1  0  0  0  0
 23 25  1  0  0  0  0
 23 21  1  0  0  0  0
 24 23  2  0  0  0  0
M  END
>  <MODEL>
7

>  <REMARK>
 VINA RESULT:      -7.3      1.212      1.712
  Name = 
  2 active torsions:
  status: ('A' for Active; 'I' for Inactive)
    1  A    between atoms: C_2  and  C_21
    2  A    between atoms: C_6  and  C_23
                            x       y       z     vdW  Elec       q    Type
                         _______ _______ _______ _____ _____    ______ ____

>  <TORSDO>
F 2

$$$$
=
 OpenBabel10262419533D

 25 28  0  0  1  0  0  0  0  0999 V2000
  187.5540  177.7990  142.9080 N   0  0  0  0  0  0  0  0  0  0  0  0
  186.2960  178.3110  142.8270 C   0  0  0  0  0  0  0  0  0  0  0  0
  187.3890  177.3660  145.2490 C   0  0  0  0  0  3  0  0  0  0  0  0
  188.5120  177.6090  141.9920 C   0  0  0  0  0  0  0  0  0  0  0  0
  190.7210  177.0230  140.4900 C   0  0  0  0  0  3  0  0  0  0  0  0
  186.0900  177.8940  145.2160 C   0  0  0  0  0  3  0  0  0  0  0  0
  189.5990  177.0450  142.5950 C   0  0  0  0  0  0  0  0  0  0  0  0
  190.7410  176.7320  141.8680 C   0  0  0  0  0  3  0  0  0  0  0  0
  184.1880  178.8950  143.9720 N   0  0  0  0  0  0  0  0  0  0  0  0
  183.2920  178.7630  145.1100 C   0  0  0  0  0  1  0  0  0  0  0  0
  185.7490  178.8460  141.5280 C   0  0  0  0  0  2  0  0  0  0  0  0
  189.5730  177.6070  139.9060 C   0  0  0  0  0  3  0  0  0  0  0  0
  188.1040  177.3350  144.0560 C   0  0  0  0  0  0  0  0  0  0  0  0
  189.3700  176.8580  143.9130 N   0  0  0  0  0  0  0  0  0  0  0  0
  183.6840  179.5580  142.7720 C   0  0  0  0  0  2  0  0  0  0  0  0
  188.4720  177.8960  140.6660 N   0  0  0  0  0  0  0  0  0  0  0  0
  184.2180  178.8860  141.5060 C   0  0  2  0  0  3  0  0  0  0  0  0
  185.5320  178.3780  144.0130 C   0  0  0  0  0  0  0  0  0  0  0  0
  183.6470  177.5170  141.3420 C   0  0  0  0  0  3  0  0  0  0  0  0
  183.0760  177.1790  140.2220 C   0  0  0  0  0  0  0  0  0  0  0  0
  182.5010  176.8420  139.0990 C   0  0  0  0  0  0  0  0  0  0  0  0
  183.0450  175.6870  138.3300 C   0  0  0  0  0  1  0  0  0  0  0  0
  181.3470  177.6030  138.5920 C   0  0  0  0  0  0  0  0  0  0  0  0
  181.4780  178.9500  138.2650 O   0  0  0  0  0  0  0  0  0  0  0  0
  180.2290  177.0410  138.4520 O   0  0  0  0  0  1  0  0  0  0  0  0
  1 13  1  0  0  0  0
  2  1  1  0  0  0  0
  2 18  2  0  0  0  0
  4  7  1  0  0  0  0
  4  1  1  0  0  0  0
  5  8  1  0  0  0  0
  6  3  2  0  0  0  0
  7 14  1  0  0  0  0
  8  7  2  0  0  0  0
  9 18  1  0  0  0  0
  9 10  1  0  0  0  0
 11  2  1  0  0  0  0
 12  5  2  0  0  0  0
 12 16  1  0  0  0  0
 13  3  1  0  0  0  0
 14 13  2  0  0  0  0
 15  9  1  0  0  0  0
 16  4  2  0  0  0  0
 17 19  1  1  0  0  0
 17 11  1  0  0  0  0
 17 15  1  0  0  0  0
 18  6  1  0  0  0  0
 20 19  2  0  0  0  0
 21 20  2  0  0  0  0
 22 21  1  0  0  0  0
 23 21  1  0  0  0  0
 24 23  2  0  0  0  0
 25 23  1  0  0  0  0
M  END
>  <MODEL>
8

>  <REMARK>
 VINA RESULT:      -7.1      3.647      6.402
  Name = 
  2 active torsions:
  status: ('A' for Active; 'I' for Inactive)
    1  A    between atoms: C_2  and  C_21
    2  A    between atoms: C_6  and  C_23
                            x       y       z     vdW  Elec       q    Type
                         _______ _______ _______ _____ _____    ______ ____

>  <TORSDO>
F 2

$$$$
=
 OpenBabel10262419533D

 25 28  0  0  1  0  0  0  0  0999 V2000
  186.7450  177.2180  137.9580 N   0  0  0  0  0  0  0  0  0  0  0  0
  188.0120  177.2820  138.4500 C   0  0  0  0  0  0  0  0  0  0  0  0
  187.2640  175.4560  136.4350 C   0  0  0  0  0  3  0  0  0  0  0  0
  185.6290  177.9010  138.2460 C   0  0  0  0  0  0  0  0  0  0  0  0
  183.1390  179.0010  138.5060 C   0  0  0  0  0  3  0  0  0  0  0  0
  188.5850  175.4900  136.9050 C   0  0  0  0  0  3  0  0  0  0  0  0
  184.6110  177.4380  137.4650 C   0  0  0  0  0  0  0  0  0  0  0  0
  183.3300  177.9700  137.5660 C   0  0  0  0  0  3  0  0  0  0  0  0
  190.3260  176.4220  138.4110 N   0  0  0  0  0  0  0  0  0  0  0  0
  191.2810  175.3850  138.0530 C   0  0  0  0  0  1  0  0  0  0  0  0
  188.3960  178.2930  139.5000 C   0  0  0  0  0  2  0  0  0  0  0  0
  184.2230  179.4480  139.2970 C   0  0  0  0  0  3  0  0  0  0  0  0
  186.3560  176.3500  136.9930 C   0  0  0  0  0  0  0  0  0  0  0  0
  185.0420  176.4480  136.6530 N   0  0  0  0  0  0  0  0  0  0  0  0
  190.7690  177.4840  139.3120 C   0  0  0  0  0  2  0  0  0  0  0  0
  185.4650  178.8910  139.1590 N   0  0  0  0  0  0  0  0  0  0  0  0
  189.6520  177.8880  140.2760 C   0  0  2  0  0  3  0  0  0  0  0  0
  188.9770  176.4040  137.9080 C   0  0  0  0  0  0  0  0  0  0  0  0
  189.3550  176.7920  141.2440 C   0  0  0  0  0  3  0  0  0  0  0  0
  189.0570  177.0760  142.4800 C   0  0  0  0  0  0  0  0  0  0  0  0
  188.7610  177.3630  143.7180 C   0  0  0  0  0  0  0  0  0  0  0  0
  187.4440  176.9270  144.2630 C   0  0  0  0  0  1  0  0  0  0  0  0
  189.7050  178.1210  144.5570 C   0  0  0  0  0  0  0  0  0  0  0  0
  190.5990  179.0170  143.9790 O   0  0  0  0  0  0  0  0  0  0  0  0
  189.7130  177.9620  145.8050 O   0  0  0  0  0  1  0  0  0  0  0  0
  1  4  1  0  0  0  0
  1  2  1  0  0  0  0
  2 11  1  0  0  0  0
  3  6  2  0  0  0  0
  3 13  1  0  0  0  0
  4 16  1  0  0  0  0
  5 12  1  0  0  0  0
  6 18  1  0  0  0  0
  7  8  1  0  0  0  0
  7  4  2  0  0  0  0
  8  5  2  0  0  0  0
  9 15  1  0  0  0  0
 10  9  1  0  0  0  0
 11 17  1  0  0  0  0
 13  1  1  0  0  0  0
 14 13  2  0  0  0  0
 14  7  1  0  0  0  0
 15 17  1  0  0  0  0
 16 12  2  0  0  0  0
 17 19  1  1  0  0  0
 18  9  1  0  0  0  0
 18  2  2  0  0  0  0
 19 20  2  0  0  0  0
 20 21  2  0  0  0  0
 21 22  1  0  0  0  0
 21 23  1  0  0  0  0
 23 25  1  0  0  0  0
 24 23  2  0  0  0  0
M  END
>  <MODEL>
9

>  <REMARK>
 VINA RESULT:      -7.0      3.929      6.672
  Name = 
  2 active torsions:
  status: ('A' for Active; 'I' for Inactive)
    1  A    between atoms: C_2  and  C_21
    2  A    between atoms: C_6  and  C_23
                            x       y       z     vdW  Elec       q    Type
                         _______ _______ _______ _____ _____    ______ ____

>  <TORSDO>
F 2

$$$$
