=
 OpenBabel10262421343D

 32 36  0  0  1  0  0  0  0  0999 V2000
  187.5510  177.7600  146.1500 C   0  0  2  0  0  3  0  0  0  0  0  0
  186.4420  178.2240  142.0500 C   0  0  0  0  0  0  0  0  0  0  0  0
  181.7870  178.9440  143.4070 C   0  0  0  0  0  3  0  0  0  0  0  0
  181.3760  178.7750  141.9720 C   0  0  0  0  0  2  0  0  0  0  0  0
  188.1700  177.7850  143.6920 C   0  0  0  0  0  0  0  0  0  0  0  0
  185.7690  177.9860  144.3810 C   0  0  0  0  0  3  0  0  0  0  0  0
  186.6580  177.2100  147.0530 F   0  0  0  0  0  0  0  0  0  0  0  0
  183.0710  178.8580  143.7610 C   0  0  0  0  0  3  0  0  0  0  0  0
  185.4330  178.2990  143.1230 C   0  0  0  0  0  0  0  0  0  0  0  0
  184.0980  178.6980  142.7670 N   0  0  0  0  0  0  0  0  0  0  0  0
  184.7480  178.7960  140.4390 C   0  0  0  0  0  0  0  0  0  0  0  0
  189.9490  177.8040  145.4400 C   0  0  1  0  0  3  0  0  0  0  0  0
  187.1220  177.4240  144.7230 C   0  0  2  0  0  3  0  0  0  0  0  0
  189.4630  177.8800  144.0150 C   0  0  0  0  0  3  0  0  0  0  0  0
  188.9350  177.1690  146.3940 C   0  0  0  0  0  2  0  0  0  0  0  0
  182.3980  179.3920  141.0190 C   0  0  0  0  0  2  0  0  0  0  0  0
  183.7850  178.9250  141.3760 C   0  0  0  0  0  0  0  0  0  0  0  0
  187.7800  177.9770  142.3640 O   0  0  0  0  0  0  0  0  0  0  0  0
  186.0920  178.4470  140.8190 N   0  0  0  0  0  0  0  0  0  0  0  0
  191.2660  177.1060  145.5180 C   0  0  0  0  0  0  0  0  0  0  0  0
  191.8010  176.6420  144.4720 O   0  0  0  0  0  0  0  0  0  0  0  0
  191.8950  176.9790  146.7560 O   0  0  0  0  0  0  0  0  0  0  0  0
  192.2790  175.7140  147.2740 C   0  0  0  0  0  1  0  0  0  0  0  0
  184.4630  179.0570  138.9900 C   0  0  0  0  0  2  0  0  0  0  0  0
  188.8460  178.7600  136.9020 C   0  0  0  0  0  1  0  0  0  0  0  0
  186.6000  178.8050  137.9200 N   0  0  0  0  0  0  0  0  0  0  0  0
  185.0060  177.1100  137.5900 C   0  0  0  0  0  0  0  0  0  0  0  0
  185.9000  176.4180  136.7750 C   0  0  0  0  0  3  0  0  0  0  0  0
  187.1640  176.9510  136.5430 C   0  0  0  0  0  3  0  0  0  0  0  0
  187.5040  178.1660  137.1330 C   0  0  0  0  0  0  0  0  0  0  0  0
  183.8610  176.6270  137.8040 O   0  0  0  0  0  0  0  0  0  0  0  0
  185.3830  178.3010  138.1490 N   0  0  0  0  0  0  0  0  0  0  0  0
  1 15  1  0  0  0  0
  1  7  1  1  0  0  0
  2 18  1  0  0  0  0
  2  9  1  0  0  0  0
  3  8  2  0  0  0  0
  4  3  1  0  0  0  0
  5 14  2  0  0  0  0
  5 13  1  0  0  0  0
  9  6  2  0  0  0  0
 10  9  1  0  0  0  0
 10  8  1  0  0  0  0
 11 19  1  0  0  0  0
 11 17  2  0  0  0  0
 12 20  1  6  0  0  0
 12 15  1  0  0  0  0
 13  6  1  6  0  0  0
 13  1  1  0  0  0  0
 14 12  1  0  0  0  0
 16 17  1  0  0  0  0
 16  4  1  0  0  0  0
 17 10  1  0  0  0  0
 18  5  1  0  0  0  0
 19  2  2  0  0  0  0
 20 22  1  0  0  0  0
 21 20  2  0  0  0  0
 22 23  1  0  0  0  0
 24 11  1  0  0  0  0
 25 30  1  0  0  0  0
 26 32  1  0  0  0  0
 27 31  2  0  0  0  0
 27 32  1  0  0  0  0
 28 27  1  0  0  0  0
 29 28  2  0  0  0  0
 29 30  1  0  0  0  0
 30 26  2  0  0  0  0
 32 24  1  0  0  0  0
M  END
>  <MODEL>
1

>  <REMARK>
 VINA RESULT:     -10.0      0.000      0.000
  Name = 
  4 active torsions:
  status: ('A' for Active; 'I' for Inactive)
    1  A    between atoms: C_1  and  O_10
    2  A    between atoms: C_1  and  C_19
    3  A    between atoms: C_16  and  C_27
    4  A    between atoms: C_27  and  N_32
                            x       y       z     vdW  Elec       q    Type
                         _______ _______ _______ _____ _____    ______ ____

>  <TORSDO>
F 4

$$$$
=
 OpenBabel10262421343D

 32 36  0  0  1  0  0  0  0  0999 V2000
  187.5840  177.7250  146.2430 C   0  0  2  0  0  3  0  0  0  0  0  0
  186.4140  178.2610  142.1680 C   0  0  0  0  0  0  0  0  0  0  0  0
  181.7720  178.9100  143.6030 C   0  0  0  0  0  3  0  0  0  0  0  0
  181.3430  178.7660  142.1710 C   0  0  0  0  0  2  0  0  0  0  0  0
  188.1690  177.8050  143.7770 C   0  0  0  0  0  0  0  0  0  0  0  0
  185.7760  177.9700  144.5040 C   0  0  0  0  0  3  0  0  0  0  0  0
  186.7090  177.1490  147.1460 F   0  0  0  0  0  0  0  0  0  0  0  0
  183.0620  178.8290  143.9380 C   0  0  0  0  0  3  0  0  0  0  0  0
  185.4190  178.3060  143.2570 C   0  0  0  0  0  0  0  0  0  0  0  0
  184.0760  178.6990  142.9270 N   0  0  0  0  0  0  0  0  0  0  0  0
  184.6930  178.8490  140.5930 C   0  0  0  0  0  0  0  0  0  0  0  0
  189.9720  177.8060  145.5020 C   0  0  1  0  0  3  0  0  0  0  0  0
  187.1390  177.4140  144.8160 C   0  0  2  0  0  3  0  0  0  0  0  0
  189.4650  177.9060  144.0860 C   0  0  0  0  0  3  0  0  0  0  0  0
  188.9760  177.1420  146.4560 C   0  0  0  0  0  2  0  0  0  0  0  0
  182.3470  179.4110  141.2170 C   0  0  0  0  0  2  0  0  0  0  0  0
  183.7420  178.9510  141.5450 C   0  0  0  0  0  0  0  0  0  0  0  0
  187.7590  178.0200  142.4600 O   0  0  0  0  0  0  0  0  0  0  0  0
  186.0460  178.5060  140.9470 N   0  0  0  0  0  0  0  0  0  0  0  0
  191.2960  177.1190  145.5470 C   0  0  0  0  0  0  0  0  0  0  0  0
  191.8250  176.6910  144.4840 O   0  0  0  0  0  0  0  0  0  0  0  0
  191.9370  176.9620  146.7760 O   0  0  0  0  0  0  0  0  0  0  0  0
  192.3150  175.6840  147.2650 C   0  0  0  0  0  1  0  0  0  0  0  0
  184.3860  179.1370  139.1540 C   0  0  0  0  0  2  0  0  0  0  0  0
  182.8980  174.7470  137.6780 C   0  0  0  0  0  1  0  0  0  0  0  0
  183.7420  176.9640  138.3530 N   0  0  0  0  0  0  0  0  0  0  0  0
  185.7740  177.8550  137.5810 C   0  0  0  0  0  0  0  0  0  0  0  0
  185.9990  176.7060  136.8240 C   0  0  0  0  0  3  0  0  0  0  0  0
  185.0600  175.6800  136.8480 C   0  0  0  0  0  3  0  0  0  0  0  0
  183.9180  175.8270  137.6310 C   0  0  0  0  0  0  0  0  0  0  0  0
  186.6230  178.7870  137.5580 O   0  0  0  0  0  0  0  0  0  0  0  0
  184.6380  177.9560  138.3360 N   0  0  0  0  0  0  0  0  0  0  0  0
  1 15  1  0  0  0  0
  1  7  1  1  0  0  0
  2 18  1  0  0  0  0
  2  9  1  0  0  0  0
  3  8  2  0  0  0  0
  4  3  1  0  0  0  0
  5 14  2  0  0  0  0
  5 13  1  0  0  0  0
  9  6  2  0  0  0  0
 10  9  1  0  0  0  0
 10  8  1  0  0  0  0
 11 19  1  0  0  0  0
 11 17  2  0  0  0  0
 12 20  1  6  0  0  0
 12 15  1  0  0  0  0
 13  6  1  6  0  0  0
 13  1  1  0  0  0  0
 14 12  1  0  0  0  0
 16 17  1  0  0  0  0
 16  4  1  0  0  0  0
 17 10  1  0  0  0  0
 18  5  1  0  0  0  0
 19  2  2  0  0  0  0
 20 22  1  0  0  0  0
 21 20  2  0  0  0  0
 22 23  1  0  0  0  0
 24 11  1  0  0  0  0
 27 32  1  0  0  0  0
 28 29  2  0  0  0  0
 28 27  1  0  0  0  0
 29 30  1  0  0  0  0
 30 25  1  0  0  0  0
 30 26  2  0  0  0  0
 31 27  2  0  0  0  0
 32 26  1  0  0  0  0
 32 24  1  0  0  0  0
M  END
>  <MODEL>
2

>  <REMARK>
 VINA RESULT:      -9.9      1.045      1.796
  Name = 
  4 active torsions:
  status: ('A' for Active; 'I' for Inactive)
    1  A    between atoms: C_1  and  O_10
    2  A    between atoms: C_1  and  C_19
    3  A    between atoms: C_16  and  C_27
    4  A    between atoms: C_27  and  N_32
                            x       y       z     vdW  Elec       q    Type
                         _______ _______ _______ _____ _____    ______ ____

>  <TORSDO>
F 4

$$$$
=
 OpenBabel10262421343D

 32 36  0  0  1  0  0  0  0  0999 V2000
  183.2260  178.5470  144.2730 C   0  0  2  0  0  3  0  0  0  0  0  0
  186.2350  178.5790  141.2390 C   0  0  0  0  0  0  0  0  0  0  0  0
  189.5810  177.2480  144.5640 C   0  0  0  0  0  3  0  0  0  0  0  0
  190.6560  177.5830  143.5710 C   0  0  0  0  0  2  0  0  0  0  0  0
  183.9200  178.9330  141.8650 C   0  0  0  0  0  0  0  0  0  0  0  0
  185.6530  178.4150  143.6010 C   0  0  0  0  0  3  0  0  0  0  0  0
  183.5520  178.8760  145.5770 F   0  0  0  0  0  0  0  0  0  0  0  0
  188.2920  177.3980  144.2500 C   0  0  0  0  0  3  0  0  0  0  0  0
  186.5710  178.2570  142.6390 C   0  0  0  0  0  0  0  0  0  0  0  0
  187.9020  177.7940  142.9240 N   0  0  0  0  0  0  0  0  0  0  0  0
  188.5040  178.0930  140.5990 C   0  0  0  0  0  0  0  0  0  0  0  0
  181.5050  178.8250  142.4800 C   0  0  1  0  0  3  0  0  0  0  0  0
  184.3140  179.0440  143.3230 C   0  0  2  0  0  3  0  0  0  0  0  0
  182.6380  178.9110  141.4900 C   0  0  0  0  0  3  0  0  0  0  0  0
  181.9110  179.2210  143.9010 C   0  0  0  0  0  2  0  0  0  0  0  0
  190.2430  177.2070  142.1490 C   0  0  0  0  0  2  0  0  0  0  0  0
  188.8670  177.7420  141.8510 C   0  0  0  0  0  0  0  0  0  0  0  0
  184.9210  178.9000  140.8920 O   0  0  0  0  0  0  0  0  0  0  0  0
  187.1520  178.5040  140.3220 N   0  0  0  0  0  0  0  0  0  0  0  0
  180.3310  179.6220  142.0170 C   0  0  0  0  0  0  0  0  0  0  0  0
  180.0080  180.6840  142.6190 O   0  0  0  0  0  0  0  0  0  0  0  0
  179.6030  179.1790  140.9130 O   0  0  0  0  0  0  0  0  0  0  0  0
  179.0280  177.8820  140.8680 C   0  0  0  0  0  1  0  0  0  0  0  0
  189.4730  178.0180  139.4580 C   0  0  0  0  0  2  0  0  0  0  0  0
  187.2840  174.5360  136.8610 C   0  0  0  0  0  1  0  0  0  0  0  0
  188.3660  176.3770  138.0950 N   0  0  0  0  0  0  0  0  0  0  0  0
  188.5800  178.5520  137.2310 C   0  0  0  0  0  0  0  0  0  0  0  0
  187.9330  178.1580  136.0610 C   0  0  0  0  0  3  0  0  0  0  0  0
  187.5030  176.8410  135.9290 C   0  0  0  0  0  3  0  0  0  0  0  0
  187.7310  175.9490  136.9730 C   0  0  0  0  0  0  0  0  0  0  0  0
  188.9680  179.7450  137.3530 O   0  0  0  0  0  0  0  0  0  0  0  0
  188.7830  177.6400  138.2310 N   0  0  0  0  0  0  0  0  0  0  0  0
  1  7  1  1  0  0  0
  2  9  1  0  0  0  0
  4  3  1  0  0  0  0
  5 13  1  0  0  0  0
  8  3  2  0  0  0  0
  9 10  1  0  0  0  0
  9  6  2  0  0  0  0
 10  8  1  0  0  0  0
 11 17  2  0  0  0  0
 12 20  1  6  0  0  0
 12 15  1  0  0  0  0
 13  6  1  6  0  0  0
 13  1  1  0  0  0  0
 14  5  2  0  0  0  0
 14 12  1  0  0  0  0
 15  1  1  0  0  0  0
 16  4  1  0  0  0  0
 17 16  1  0  0  0  0
 17 10  1  0  0  0  0
 18  2  1  0  0  0  0
 18  5  1  0  0  0  0
 19 11  1  0  0  0  0
 19  2  2  0  0  0  0
 20 21  2  0  0  0  0
 22 20  1  0  0  0  0
 23 22  1  0  0  0  0
 24 11  1  0  0  0  0
 25 30  1  0  0  0  0
 26 32  1  0  0  0  0
 27 31  2  0  0  0  0
 27 32  1  0  0  0  0
 28 27  1  0  0  0  0
 29 28  2  0  0  0  0
 29 30  1  0  0  0  0
 30 26  2  0  0  0  0
 32 24  1  0  0  0  0
M  END
>  <MODEL>
3

>  <REMARK>
 VINA RESULT:      -9.5      2.990      6.692
  Name = 
  4 active torsions:
  status: ('A' for Active; 'I' for Inactive)
    1  A    between atoms: C_1  and  O_10
    2  A    between atoms: C_1  and  C_19
    3  A    between atoms: C_16  and  C_27
    4  A    between atoms: C_27  and  N_32
                            x       y       z     vdW  Elec       q    Type
                         _______ _______ _______ _____ _____    ______ ____

>  <TORSDO>
F 4

$$$$
=
 OpenBabel10262421343D

 32 36  0  0  1  0  0  0  0  0999 V2000
  187.5630  177.7230  145.8490 C   0  0  2  0  0  3  0  0  0  0  0  0
  187.2320  178.0890  141.6050 C   0  0  0  0  0  0  0  0  0  0  0  0
  182.4160  178.8780  142.0630 C   0  0  0  0  0  3  0  0  0  0  0  0
  182.2740  178.6750  140.5820 C   0  0  0  0  0  2  0  0  0  0  0  0
  188.6240  177.6800  143.5470 C   0  0  0  0  0  0  0  0  0  0  0  0
  186.1390  177.9170  143.7780 C   0  0  0  0  0  3  0  0  0  0  0  0
  186.5130  177.2040  146.5850 F   0  0  0  0  0  0  0  0  0  0  0  0
  183.6120  178.7920  142.6500 C   0  0  0  0  0  3  0  0  0  0  0  0
  186.0440  178.2000  142.4720 C   0  0  0  0  0  0  0  0  0  0  0  0
  184.8020  178.5990  141.8670 N   0  0  0  0  0  0  0  0  0  0  0  0
  185.8700  178.6310  139.6960 C   0  0  0  0  0  0  0  0  0  0  0  0
  190.0510  177.7320  145.5920 C   0  0  1  0  0  3  0  0  0  0  0  0
  187.4000  177.3540  144.3760 C   0  0  2  0  0  3  0  0  0  0  0  0
  189.8360  177.7740  144.1010 C   0  0  0  0  0  3  0  0  0  0  0  0
  188.8710  177.1290  146.3580 C   0  0  0  0  0  2  0  0  0  0  0  0
  183.4610  179.2590  139.8190 C   0  0  0  0  0  2  0  0  0  0  0  0
  184.7530  178.7920  140.4360 C   0  0  0  0  0  0  0  0  0  0  0  0
  188.4860  177.8410  142.1660 O   0  0  0  0  0  0  0  0  0  0  0  0
  187.1180  178.2830  140.3250 N   0  0  0  0  0  0  0  0  0  0  0  0
  191.3220  177.0270  145.9280 C   0  0  0  0  0  0  0  0  0  0  0  0
  192.0430  176.5460  145.0090 O   0  0  0  0  0  0  0  0  0  0  0  0
  191.7020  176.9120  147.2650 O   0  0  0  0  0  0  0  0  0  0  0  0
  192.4140  175.7820  147.7460 C   0  0  0  0  0  1  0  0  0  0  0  0
  185.8600  178.8570  138.2140 C   0  0  0  0  0  2  0  0  0  0  0  0
  187.0780  174.3870  136.7330 C   0  0  0  0  0  1  0  0  0  0  0  0
  186.5580  176.6930  137.4350 N   0  0  0  0  0  0  0  0  0  0  0  0
  188.0260  178.4980  137.1090 C   0  0  0  0  0  0  0  0  0  0  0  0
  188.9510  177.6460  136.5080 C   0  0  0  0  0  3  0  0  0  0  0  0
  188.6490  176.2940  136.3780 C   0  0  0  0  0  3  0  0  0  0  0  0
  187.4270  175.8260  136.8550 C   0  0  0  0  0  0  0  0  0  0  0  0
  188.2970  179.7240  137.2240 O   0  0  0  0  0  0  0  0  0  0  0  0
  186.8380  177.9940  137.5630 N   0  0  0  0  0  0  0  0  0  0  0  0
  1 15  1  0  0  0  0
  1  7  1  1  0  0  0
  2 18  1  0  0  0  0
  2  9  1  0  0  0  0
  3  8  2  0  0  0  0
  4  3  1  0  0  0  0
  5 14  2  0  0  0  0
  5 13  1  0  0  0  0
  9  6  2  0  0  0  0
 10  9  1  0  0  0  0
 10  8  1  0  0  0  0
 11 19  1  0  0  0  0
 11 17  2  0  0  0  0
 12 20  1  6  0  0  0
 12 15  1  0  0  0  0
 13  6  1  6  0  0  0
 13  1  1  0  0  0  0
 14 12  1  0  0  0  0
 16 17  1  0  0  0  0
 16  4  1  0  0  0  0
 17 10  1  0  0  0  0
 18  5  1  0  0  0  0
 19  2  2  0  0  0  0
 20 22  1  0  0  0  0
 21 20  2  0  0  0  0
 22 23  1  0  0  0  0
 24 11  1  0  0  0  0
 25 30  1  0  0  0  0
 26 32  1  0  0  0  0
 27 31  2  0  0  0  0
 27 32  1  0  0  0  0
 28 27  1  0  0  0  0
 29 28  2  0  0  0  0
 29 30  1  0  0  0  0
 30 26  2  0  0  0  0
 32 24  1  0  0  0  0
M  END
>  <MODEL>
4

>  <REMARK>
 VINA RESULT:      -9.4      1.401      1.873
  Name = 
  4 active torsions:
  status: ('A' for Active; 'I' for Inactive)
    1  A    between atoms: C_1  and  O_10
    2  A    between atoms: C_1  and  C_19
    3  A    between atoms: C_16  and  C_27
    4  A    between atoms: C_27  and  N_32
                            x       y       z     vdW  Elec       q    Type
                         _______ _______ _______ _____ _____    ______ ____

>  <TORSDO>
F 4

$$$$
=
 OpenBabel10262421343D

 32 36  0  0  1  0  0  0  0  0999 V2000
  187.0610  178.0340  145.2140 C   0  0  2  0  0  3  0  0  0  0  0  0
  189.0700  177.6130  141.4650 C   0  0  0  0  0  0  0  0  0  0  0  0
  184.8860  178.6400  139.1260 C   0  0  0  0  0  3  0  0  0  0  0  0
  185.5210  178.1700  137.8490 C   0  0  0  0  0  2  0  0  0  0  0  0
  189.1610  177.5250  143.8860 C   0  0  0  0  0  0  0  0  0  0  0  0
  186.9830  177.8870  142.6980 C   0  0  0  0  0  3  0  0  0  0  0  0
  185.7240  177.6970  145.3260 F   0  0  0  0  0  0  0  0  0  0  0  0
  185.5700  178.6240  140.2730 C   0  0  0  0  0  3  0  0  0  0  0  0
  187.6290  177.9240  141.5250 C   0  0  0  0  0  0  0  0  0  0  0  0
  186.9570  178.2470  140.2950 N   0  0  0  0  0  0  0  0  0  0  0  0
  189.0030  177.8360  139.0700 C   0  0  0  0  0  0  0  0  0  0  0  0
  189.2870  177.9070  146.3480 C   0  0  1  0  0  3  0  0  0  0  0  0
  187.6530  177.4020  143.9550 C   0  0  2  0  0  3  0  0  0  0  0  0
  189.8990  177.6780  144.9890 C   0  0  0  0  0  3  0  0  0  0  0  0
  187.8140  177.4990  146.4260 C   0  0  0  0  0  2  0  0  0  0  0  0
  186.9970  178.5600  137.7800 C   0  0  0  0  0  2  0  0  0  0  0  0
  187.6960  178.1710  139.0560 C   0  0  0  0  0  0  0  0  0  0  0  0
  189.7940  177.4300  142.6450 O   0  0  0  0  0  0  0  0  0  0  0  0
  189.6730  177.5690  140.3160 N   0  0  0  0  0  0  0  0  0  0  0  0
  190.0860  177.2340  147.4130 C   0  0  0  0  0  0  0  0  0  0  0  0
  190.1860  177.7560  148.5580 O   0  0  0  0  0  0  0  0  0  0  0  0
  190.7140  176.0220  147.1250 O   0  0  0  0  0  0  0  0  0  0  0  0
  192.0600  175.7680  147.5020 C   0  0  0  0  0  1  0  0  0  0  0  0
  189.8050  177.7820  137.8050 C   0  0  0  0  0  2  0  0  0  0  0  0
  188.3060  173.3660  136.4200 C   0  0  0  0  0  1  0  0  0  0  0  0
  189.1750  175.5660  137.1180 N   0  0  0  0  0  0  0  0  0  0  0  0
  191.4460  175.9660  137.5720 C   0  0  0  0  0  0  0  0  0  0  0  0
  191.7460  174.6370  137.2780 C   0  0  0  0  0  3  0  0  0  0  0  0
  190.7220  173.7740  136.8970 C   0  0  0  0  0  3  0  0  0  0  0  0
  189.4200  174.2640  136.8210 C   0  0  0  0  0  0  0  0  0  0  0  0
  192.3730  176.7490  137.9140 O   0  0  0  0  0  0  0  0  0  0  0  0
  190.1520  176.4020  137.4840 N   0  0  0  0  0  0  0  0  0  0  0  0
  1  7  1  1  0  0  0
  1 15  1  0  0  0  0
  2  9  1  0  0  0  0
  2 18  1  0  0  0  0
  3  8  2  0  0  0  0
  4  3  1  0  0  0  0
  5 13  1  0  0  0  0
  5 14  2  0  0  0  0
  8 10  1  0  0  0  0
  9  6  2  0  0  0  0
 10  9  1  0  0  0  0
 11 19  1  0  0  0  0
 12 15  1  0  0  0  0
 12 20  1  1  0  0  0
 13  6  1  6  0  0  0
 13  1  1  0  0  0  0
 14 12  1  0  0  0  0
 16  4  1  0  0  0  0
 16 17  1  0  0  0  0
 17 11  2  0  0  0  0
 17 10  1  0  0  0  0
 18  5  1  0  0  0  0
 19  2  2  0  0  0  0
 20 21  2  0  0  0  0
 22 20  1  0  0  0  0
 22 23  1  0  0  0  0
 24 11  1  0  0  0  0
 25 30  1  0  0  0  0
 26 32  1  0  0  0  0
 27 31  2  0  0  0  0
 28 27  1  0  0  0  0
 29 28  2  0  0  0  0
 30 29  1  0  0  0  0
 30 26  2  0  0  0  0
 32 27  1  0  0  0  0
 32 24  1  0  0  0  0
M  END
>  <MODEL>
5

>  <REMARK>
 VINA RESULT:      -9.2      2.682      4.136
  Name = 
  4 active torsions:
  status: ('A' for Active; 'I' for Inactive)
    1  A    between atoms: C_1  and  O_10
    2  A    between atoms: C_1  and  C_19
    3  A    between atoms: C_16  and  C_27
    4  A    between atoms: C_27  and  N_32
                            x       y       z     vdW  Elec       q    Type
                         _______ _______ _______ _____ _____    ______ ____

>  <TORSDO>
F 4

$$$$
=
 OpenBabel10262421343D

 32 36  0  0  1  0  0  0  0  0999 V2000
  183.4540  178.3530  144.3310 C   0  0  2  0  0  3  0  0  0  0  0  0
  186.3790  178.6260  141.2280 C   0  0  0  0  0  0  0  0  0  0  0  0
  189.8500  177.2400  144.4000 C   0  0  0  0  0  3  0  0  0  0  0  0
  190.8880  177.6570  143.3980 C   0  0  0  0  0  2  0  0  0  0  0  0
  184.0720  178.8770  141.9280 C   0  0  0  0  0  0  0  0  0  0  0  0
  185.8650  178.3300  143.5930 C   0  0  0  0  0  3  0  0  0  0  0  0
  183.8040  178.6300  145.6410 F   0  0  0  0  0  0  0  0  0  0  0  0
  188.5490  177.3660  144.1260 C   0  0  0  0  0  3  0  0  0  0  0  0
  186.7620  178.2470  142.6020 C   0  0  0  0  0  0  0  0  0  0  0  0
  188.1130  177.8120  142.8300 N   0  0  0  0  0  0  0  0  0  0  0  0
  188.6440  178.2420  140.5090 C   0  0  0  0  0  0  0  0  0  0  0  0
  181.6780  178.6640  142.5970 C   0  0  1  0  0  3  0  0  0  0  0  0
  184.5010  178.9290  143.3800 C   0  0  2  0  0  3  0  0  0  0  0  0
  182.7820  178.8330  141.5840 C   0  0  0  0  0  3  0  0  0  0  0  0
  182.1100  179.0030  144.0260 C   0  0  0  0  0  2  0  0  0  0  0  0
  190.4490  177.3370  141.9700 C   0  0  0  0  0  2  0  0  0  0  0  0
  189.0510  177.8420  141.7330 C   0  0  0  0  0  0  0  0  0  0  0  0
  185.0480  178.9220  140.9300 O   0  0  0  0  0  0  0  0  0  0  0  0
  187.2740  178.6240  140.2860 N   0  0  0  0  0  0  0  0  0  0  0  0
  180.4700  179.4450  142.2030 C   0  0  0  0  0  0  0  0  0  0  0  0
  180.1670  180.5030  142.8240 O   0  0  0  0  0  0  0  0  0  0  0  0
  179.6850  178.9930  141.1420 O   0  0  0  0  0  0  0  0  0  0  0  0
  179.3450  177.6230  140.9940 C   0  0  0  0  0  1  0  0  0  0  0  0
  189.5850  178.2530  139.3420 C   0  0  0  0  0  2  0  0  0  0  0  0
  186.5590  177.4740  135.6150 C   0  0  0  0  0  1  0  0  0  0  0  0
  188.1410  177.7650  137.4840 N   0  0  0  0  0  0  0  0  0  0  0  0
  189.6350  176.0890  138.1750 C   0  0  0  0  0  0  0  0  0  0  0  0
  189.1510  175.2380  137.1830 C   0  0  0  0  0  3  0  0  0  0  0  0
  188.1410  175.6830  136.3360 C   0  0  0  0  0  3  0  0  0  0  0  0
  187.6380  176.9710  136.5030 C   0  0  0  0  0  0  0  0  0  0  0  0
  190.5530  175.6890  138.9410 O   0  0  0  0  0  0  0  0  0  0  0  0
  189.1120  177.3470  138.3020 N   0  0  0  0  0  0  0  0  0  0  0  0
  1  7  1  1  0  0  0
  2  9  1  0  0  0  0
  4  3  1  0  0  0  0
  5 13  1  0  0  0  0
  8  3  2  0  0  0  0
  9 10  1  0  0  0  0
  9  6  2  0  0  0  0
 10  8  1  0  0  0  0
 11 17  2  0  0  0  0
 12 20  1  6  0  0  0
 12 15  1  0  0  0  0
 13  6  1  6  0  0  0
 13  1  1  0  0  0  0
 14  5  2  0  0  0  0
 14 12  1  0  0  0  0
 15  1  1  0  0  0  0
 16  4  1  0  0  0  0
 17 16  1  0  0  0  0
 17 10  1  0  0  0  0
 18  2  1  0  0  0  0
 18  5  1  0  0  0  0
 19 11  1  0  0  0  0
 19  2  2  0  0  0  0
 20 21  2  0  0  0  0
 22 20  1  0  0  0  0
 23 22  1  0  0  0  0
 24 11  1  0  0  0  0
 25 30  1  0  0  0  0
 26 32  1  0  0  0  0
 27 32  1  0  0  0  0
 27 31  2  0  0  0  0
 28 27  1  0  0  0  0
 29 30  1  0  0  0  0
 29 28  2  0  0  0  0
 30 26  2  0  0  0  0
 32 24  1  0  0  0  0
M  END
>  <MODEL>
6

>  <REMARK>
 VINA RESULT:      -9.1      2.701      6.644
  Name = 
  4 active torsions:
  status: ('A' for Active; 'I' for Inactive)
    1  A    between atoms: C_1  and  O_10
    2  A    between atoms: C_1  and  C_19
    3  A    between atoms: C_16  and  C_27
    4  A    between atoms: C_27  and  N_32
                            x       y       z     vdW  Elec       q    Type
                         _______ _______ _______ _____ _____    ______ ____

>  <TORSDO>
F 4

$$$$
=
 OpenBabel10262421343D

 32 36  0  0  1  0  0  0  0  0999 V2000
  186.5700  178.2060  145.6120 C   0  0  2  0  0  3  0  0  0  0  0  0
  188.1760  177.9580  141.6600 C   0  0  0  0  0  0  0  0  0  0  0  0
  183.7430  178.9380  139.8140 C   0  0  0  0  0  3  0  0  0  0  0  0
  184.2490  178.5250  138.4620 C   0  0  0  0  0  2  0  0  0  0  0  0
  188.5280  177.7990  144.0540 C   0  0  0  0  0  0  0  0  0  0  0  0
  186.2270  178.1350  143.1160 C   0  0  0  0  0  3  0  0  0  0  0  0
  185.2610  177.8290  145.8540 F   0  0  0  0  0  0  0  0  0  0  0  0
  184.5450  178.9060  140.8800 C   0  0  0  0  0  3  0  0  0  0  0  0
  186.7420  178.2270  141.8830 C   0  0  0  0  0  0  0  0  0  0  0  0
  185.9350  178.5680  140.7420 N   0  0  0  0  0  0  0  0  0  0  0  0
  187.8480  178.2540  139.2940 C   0  0  0  0  0  0  0  0  0  0  0  0
  188.9060  178.1090  146.5000 C   0  0  1  0  0  3  0  0  0  0  0  0
  187.0390  177.6310  144.2780 C   0  0  2  0  0  3  0  0  0  0  0  0
  189.3750  177.9390  145.0770 C   0  0  0  0  0  3  0  0  0  0  0  0
  187.4610  177.6560  146.7200 C   0  0  0  0  0  2  0  0  0  0  0  0
  185.6980  178.9590  138.2490 C   0  0  0  0  0  2  0  0  0  0  0  0
  186.5390  178.5510  139.4300 C   0  0  0  0  0  0  0  0  0  0  0  0
  189.0270  177.7600  142.7500 O   0  0  0  0  0  0  0  0  0  0  0  0
  188.6540  177.9670  140.4530 N   0  0  0  0  0  0  0  0  0  0  0  0
  189.8310  177.4250  147.4500 C   0  0  0  0  0  0  0  0  0  0  0  0
  189.9890  177.8780  148.6180 O   0  0  0  0  0  0  0  0  0  0  0  0
  190.5120  176.2830  147.0320 O   0  0  0  0  0  0  0  0  0  0  0  0
  191.8820  176.0720  147.3410 C   0  0  0  0  0  1  0  0  0  0  0  0
  188.5120  178.2610  137.9500 C   0  0  0  0  0  2  0  0  0  0  0  0
  192.9030  176.1700  138.0260 C   0  0  0  0  0  1  0  0  0  0  0  0
  190.6300  177.1260  137.9660 N   0  0  0  0  0  0  0  0  0  0  0  0
  188.7250  175.8750  137.3990 C   0  0  0  0  0  0  0  0  0  0  0  0
  189.5140  174.7400  137.2180 C   0  0  0  0  0  3  0  0  0  0  0  0
  190.8880  174.8260  137.4230 C   0  0  0  0  0  3  0  0  0  0  0  0
  191.4390  176.0470  137.8030 C   0  0  0  0  0  0  0  0  0  0  0  0
  187.4790  175.7980  137.2170 O   0  0  0  0  0  0  0  0  0  0  0  0
  189.3090  177.0540  137.7720 N   0  0  0  0  0  0  0  0  0  0  0  0
  1  7  1  1  0  0  0
  1 15  1  0  0  0  0
  2  9  1  0  0  0  0
  2 18  1  0  0  0  0
  3  8  2  0  0  0  0
  4  3  1  0  0  0  0
  5 13  1  0  0  0  0
  5 14  2  0  0  0  0
  9  6  2  0  0  0  0
 10  8  1  0  0  0  0
 10  9  1  0  0  0  0
 11 17  2  0  0  0  0
 11 19  1  0  0  0  0
 12 15  1  0  0  0  0
 12 20  1  1  0  0  0
 13  6  1  6  0  0  0
 13  1  1  0  0  0  0
 14 12  1  0  0  0  0
 16  4  1  0  0  0  0
 16 17  1  0  0  0  0
 17 10  1  0  0  0  0
 18  5  1  0  0  0  0
 19  2  2  0  0  0  0
 20 21  2  0  0  0  0
 22 23  1  0  0  0  0
 22 20  1  0  0  0  0
 24 11  1  0  0  0  0
 27 32  1  0  0  0  0
 28 27  1  0  0  0  0
 28 29  2  0  0  0  0
 29 30  1  0  0  0  0
 30 26  2  0  0  0  0
 30 25  1  0  0  0  0
 31 27  2  0  0  0  0
 32 24  1  0  0  0  0
 32 26  1  0  0  0  0
M  END
>  <MODEL>
7

>  <REMARK>
 VINA RESULT:      -8.9      2.270      3.163
  Name = 
  4 active torsions:
  status: ('A' for Active; 'I' for Inactive)
    1  A    between atoms: C_1  and  O_10
    2  A    between atoms: C_1  and  C_19
    3  A    between atoms: C_16  and  C_27
    4  A    between atoms: C_27  and  N_32
                            x       y       z     vdW  Elec       q    Type
                         _______ _______ _______ _____ _____    ______ ____

>  <TORSDO>
F 4

$$$$
=
 OpenBabel10262421343D

 32 36  0  0  1  0  0  0  0  0999 V2000
  190.9210  176.9850  143.3200 C   0  0  2  0  0  3  0  0  0  0  0  0
  187.3080  178.2650  141.4320 C   0  0  0  0  0  0  0  0  0  0  0  0
  189.4150  177.6920  137.0440 C   0  0  0  0  0  3  0  0  0  0  0  0
  188.2710  178.4460  136.4300 C   0  0  0  0  0  2  0  0  0  0  0  0
  188.5320  177.8180  143.4760 C   0  0  0  0  0  0  0  0  0  0  0  0
  189.6680  177.6820  141.2460 C   0  0  0  0  0  3  0  0  0  0  0  0
  192.1450  177.2600  142.7350 F   0  0  0  0  0  0  0  0  0  0  0  0
  189.4570  177.4690  138.3590 C   0  0  0  0  0  3  0  0  0  0  0  0
  188.5000  177.9180  140.6350 C   0  0  0  0  0  0  0  0  0  0  0  0
  188.3620  177.8610  139.2050 N   0  0  0  0  0  0  0  0  0  0  0  0
  186.0580  178.5740  139.3990 C   0  0  0  0  0  0  0  0  0  0  0  0
  189.6830  176.9040  145.4910 C   0  0  1  0  0  3  0  0  0  0  0  0
  189.8450  177.8910  142.7250 C   0  0  2  0  0  3  0  0  0  0  0  0
  188.4810  177.4400  144.7570 C   0  0  0  0  0  3  0  0  0  0  0  0
  191.0120  177.2540  144.8170 C   0  0  0  0  0  2  0  0  0  0  0  0
  186.9470  178.1120  137.1170 C   0  0  0  0  0  2  0  0  0  0  0  0
  187.0960  178.2240  138.6110 C   0  0  0  0  0  0  0  0  0  0  0  0
  187.3550  178.1980  142.8260 O   0  0  0  0  0  0  0  0  0  0  0  0
  186.1980  178.5740  140.8320 N   0  0  0  0  0  0  0  0  0  0  0  0
  189.6750  177.3420  146.9170 C   0  0  0  0  0  0  0  0  0  0  0  0
  190.6500  177.0680  147.6710 O   0  0  0  0  0  0  0  0  0  0  0  0
  188.5810  178.0590  147.4010 O   0  0  0  0  0  0  0  0  0  0  0  0
  188.1090  177.8990  148.7300 C   0  0  0  0  0  1  0  0  0  0  0  0
  184.7220  178.9230  138.8140 C   0  0  0  0  0  2  0  0  0  0  0  0
  183.2860  174.4660  137.5010 C   0  0  0  0  0  1  0  0  0  0  0  0
  183.9320  176.7250  138.2490 N   0  0  0  0  0  0  0  0  0  0  0  0
  182.7650  177.9130  139.9060 C   0  0  0  0  0  0  0  0  0  0  0  0
  181.8730  176.8510  140.0490 C   0  0  0  0  0  3  0  0  0  0  0  0
  182.0350  175.7140  139.2640 C   0  0  0  0  0  3  0  0  0  0  0  0
  183.0880  175.6660  138.3530 C   0  0  0  0  0  0  0  0  0  0  0  0
  182.6210  178.9430  140.6190 O   0  0  0  0  0  0  0  0  0  0  0  0
  183.7850  177.8220  138.9990 N   0  0  0  0  0  0  0  0  0  0  0  0
  1  7  1  6  0  0  0
  1 15  1  0  0  0  0
  2 18  1  0  0  0  0
  3  8  2  0  0  0  0
  4  3  1  0  0  0  0
  4 16  1  0  0  0  0
  5 14  2  0  0  0  0
  8 10  1  0  0  0  0
  9  6  2  0  0  0  0
  9  2  1  0  0  0  0
 10  9  1  0  0  0  0
 11 19  1  0  0  0  0
 12 20  1  1  0  0  0
 13  6  1  6  0  0  0
 13  1  1  0  0  0  0
 13  5  1  0  0  0  0
 14 12  1  0  0  0  0
 15 12  1  0  0  0  0
 16 17  1  0  0  0  0
 17 10  1  0  0  0  0
 17 11  2  0  0  0  0
 18  5  1  0  0  0  0
 19  2  2  0  0  0  0
 20 22  1  0  0  0  0
 20 21  2  0  0  0  0
 22 23  1  0  0  0  0
 24 32  1  0  0  0  0
 24 11  1  0  0  0  0
 25 30  1  0  0  0  0
 26 30  2  0  0  0  0
 26 32  1  0  0  0  0
 27 28  1  0  0  0  0
 27 31  2  0  0  0  0
 29 28  2  0  0  0  0
 30 29  1  0  0  0  0
 32 27  1  0  0  0  0
M  END
>  <MODEL>
8

>  <REMARK>
 VINA RESULT:      -8.8      2.424      4.702
  Name = 
  4 active torsions:
  status: ('A' for Active; 'I' for Inactive)
    1  A    between atoms: C_1  and  O_10
    2  A    between atoms: C_1  and  C_19
    3  A    between atoms: C_16  and  C_27
    4  A    between atoms: C_27  and  N_32
                            x       y       z     vdW  Elec       q    Type
                         _______ _______ _______ _____ _____    ______ ____

>  <TORSDO>
F 4

$$$$
=
 OpenBabel10262421343D

 32 36  0  0  1  0  0  0  0  0999 V2000
  186.4100  178.0140  146.2160 C   0  0  2  0  0  3  0  0  0  0  0  0
  185.9300  178.2430  141.9760 C   0  0  0  0  0  0  0  0  0  0  0  0
  181.1470  179.1250  142.5810 C   0  0  0  0  0  3  0  0  0  0  0  0
  180.9470  178.8750  141.1140 C   0  0  0  0  0  2  0  0  0  0  0  0
  187.3860  177.8760  143.8800 C   0  0  0  0  0  0  0  0  0  0  0  0
  184.9150  178.1610  144.1920 C   0  0  0  0  0  3  0  0  0  0  0  0
  185.3800  177.5360  147.0060 F   0  0  0  0  0  0  0  0  0  0  0  0
  182.3620  179.0390  143.1280 C   0  0  0  0  0  3  0  0  0  0  0  0
  184.7760  178.4020  142.8820 C   0  0  0  0  0  0  0  0  0  0  0  0
  183.5190  178.8000  142.3080 N   0  0  0  0  0  0  0  0  0  0  0  0
  184.5080  178.7430  140.1010 C   0  0  0  0  0  0  0  0  0  0  0  0
  188.8870  177.9730  145.8700 C   0  0  1  0  0  3  0  0  0  0  0  0
  186.1880  177.5980  144.7630 C   0  0  2  0  0  3  0  0  0  0  0  0
  188.6190  177.9690  144.3860 C   0  0  0  0  0  3  0  0  0  0  0  0
  187.7270  177.4150  146.6970 C   0  0  0  0  0  2  0  0  0  0  0  0
  182.1150  179.4140  140.2890 C   0  0  0  0  0  2  0  0  0  0  0  0
  183.4210  178.9470  140.8750 C   0  0  0  0  0  0  0  0  0  0  0  0
  187.2000  177.9930  142.5000 O   0  0  0  0  0  0  0  0  0  0  0  0
  185.7720  178.3960  140.6960 N   0  0  0  0  0  0  0  0  0  0  0  0
  190.1590  177.2590  146.1830 C   0  0  0  0  0  0  0  0  0  0  0  0
  190.3080  176.6860  147.2980 O   0  0  0  0  0  0  0  0  0  0  0  0
  191.1750  177.2320  145.2270 O   0  0  0  0  0  0  0  0  0  0  0  0
  191.6760  176.0120  144.7020 C   0  0  0  0  0  1  0  0  0  0  0  0
  184.4460  178.9190  138.6130 C   0  0  0  0  0  2  0  0  0  0  0  0
  189.0450  178.5990  137.0620 C   0  0  0  0  0  1  0  0  0  0  0  0
  186.6980  178.6510  137.8170 N   0  0  0  0  0  0  0  0  0  0  0  0
  185.2070  176.8620  137.5030 C   0  0  0  0  0  0  0  0  0  0  0  0
  186.2100  176.1280  136.8710 C   0  0  0  0  0  3  0  0  0  0  0  0
  187.4750  176.6890  136.7220 C   0  0  0  0  0  3  0  0  0  0  0  0
  187.7060  177.9730  137.2090 C   0  0  0  0  0  0  0  0  0  0  0  0
  184.0620  176.3540  137.6420 O   0  0  0  0  0  0  0  0  0  0  0  0
  185.4800  178.1200  137.9650 N   0  0  0  0  0  0  0  0  0  0  0  0
  1 15  1  0  0  0  0
  1  7  1  1  0  0  0
  2 18  1  0  0  0  0
  2  9  1  0  0  0  0
  3  8  2  0  0  0  0
  4  3  1  0  0  0  0
  5 14  2  0  0  0  0
  5 13  1  0  0  0  0
  9  6  2  0  0  0  0
 10  9  1  0  0  0  0
 10  8  1  0  0  0  0
 11 19  1  0  0  0  0
 11 17  2  0  0  0  0
 12 20  1  6  0  0  0
 12 15  1  0  0  0  0
 13  6  1  6  0  0  0
 13  1  1  0  0  0  0
 14 12  1  0  0  0  0
 16 17  1  0  0  0  0
 16  4  1  0  0  0  0
 17 10  1  0  0  0  0
 18  5  1  0  0  0  0
 19  2  2  0  0  0  0
 20 21  2  0  0  0  0
 22 20  1  0  0  0  0
 23 22  1  0  0  0  0
 24 11  1  0  0  0  0
 25 30  1  0  0  0  0
 26 32  1  0  0  0  0
 27 31  2  0  0  0  0
 27 32  1  0  0  0  0
 28 27  1  0  0  0  0
 29 28  2  0  0  0  0
 29 30  1  0  0  0  0
 30 26  2  0  0  0  0
 32 24  1  0  0  0  0
M  END
>  <MODEL>
9

>  <REMARK>
 VINA RESULT:      -8.8      0.898      1.093
  Name = 
  4 active torsions:
  status: ('A' for Active; 'I' for Inactive)
    1  A    between atoms: C_1  and  O_10
    2  A    between atoms: C_1  and  C_19
    3  A    between atoms: C_16  and  C_27
    4  A    between atoms: C_27  and  N_32
                            x       y       z     vdW  Elec       q    Type
                         _______ _______ _______ _____ _____    ______ ____

>  <TORSDO>
F 4

$$$$
