=
 OpenBabel10262420483D

 28 31  0  0  1  0  0  0  0  0999 V2000
  191.1320  176.9660  142.6840 C   0  0  1  0  0  3  0  0  0  0  0  0
  191.0270  176.6020  138.6460 O   0  0  0  0  0  0  0  0  0  0  0  0
  187.8250  177.2710  142.7250 N   0  0  0  0  0  0  0  0  0  0  0  0
  189.6850  176.7470  140.5880 C   0  0  1  0  0  3  0  0  0  0  0  0
  188.7300  176.1120  142.8480 C   0  0  0  0  0  2  0  0  0  0  0  0
  192.1010  177.6650  140.4620 C   0  0  0  0  0  2  0  0  0  0  0  0
  188.8640  178.0440  140.6390 C   0  0  0  0  0  2  0  0  0  0  0  0
  190.9490  176.9640  139.8100 C   0  0  0  0  0  0  0  0  0  0  0  0
  188.4520  178.4130  142.0610 C   0  0  0  0  0  2  0  0  0  0  0  0
  192.3950  177.0330  141.8200 C   0  0  0  0  0  2  0  0  0  0  0  0
  190.0040  176.1740  141.9820 C   0  0  2  0  0  3  0  0  0  0  0  0
  191.4440  176.4540  144.0660 C   0  0  0  0  0  0  0  0  0  0  0  0
  191.9920  175.1690  144.1660 C   0  0  0  0  0  3  0  0  0  0  0  0
  191.5810  176.6620  146.4930 C   0  0  0  0  0  0  0  0  0  0  0  0
  192.3320  174.6320  145.4090 C   0  0  0  0  0  3  0  0  0  0  0  0
  190.6610  178.5920  145.1860 C   0  0  0  0  0  1  0  0  0  0  0  0
  191.2290  177.2100  145.2430 C   0  0  0  0  0  0  0  0  0  0  0  0
  191.3890  177.3840  147.6670 O   0  0  0  0  0  1  0  0  0  0  0  0
  192.1280  175.3790  146.5700 C   0  0  0  0  0  3  0  0  0  0  0  0
  187.5220  177.7020  144.0790 C   0  0  0  0  0  2  0  0  0  0  0  0
  186.0600  177.4410  144.4030 C   0  0  0  0  0  2  0  0  0  0  0  0
  185.2750  178.7570  144.4040 C   0  0  2  0  0  3  0  0  0  0  0  0
  184.8990  179.2700  145.6990 N   0  0  0  0  0  0  0  0  0  0  0  0
  183.1030  179.5210  144.2500 C   0  0  0  0  0  1  0  0  0  0  0  0
  183.9550  178.5350  144.8920 N   0  0  0  0  0  0  0  0  0  0  0  0
  185.2350  178.4060  146.8290 C   0  0  0  0  0  2  0  0  0  0  0  0
  187.4690  178.1390  147.8140 C   0  0  0  0  0  2  0  0  0  0  0  0
  186.4350  178.9320  147.5470 C   0  0  0  0  0  3  0  0  0  0  0  0
  1 12  1  1  0  0  0
  2  8  2  0  0  0  0
  3  5  1  0  0  0  0
  3 20  1  0  0  0  0
  4  7  1  1  0  0  0
  4 11  1  0  0  0  0
  6 10  1  0  0  0  0
  7  9  1  0  0  0  0
  8  6  1  0  0  0  0
  8  4  1  0  0  0  0
  9  3  1  0  0  0  0
 10  1  1  0  0  0  0
 11  1  1  0  0  0  0
 11  5  1  1  0  0  0
 12 13  2  0  0  0  0
 12 17  1  0  0  0  0
 13 15  1  0  0  0  0
 14 19  1  0  0  0  0
 14 18  1  0  0  0  0
 15 19  2  0  0  0  0
 16 17  1  0  0  0  0
 17 14  2  0  0  0  0
 20 21  1  0  0  0  0
 22 21  1  1  0  0  0
 22 25  1  0  0  0  0
 22 23  1  0  0  0  0
 23 26  1  0  0  0  0
 24 25  1  0  0  0  0
 25 23  1  0  0  0  0
 26 28  1  0  0  0  0
 28 27  2  0  0  0  0
M  END
>  <MODEL>
1

>  <REMARK>
 VINA RESULT:      -7.5      0.000      0.000
  Name = 
  6 active torsions:
  status: ('A' for Active; 'I' for Inactive)
    1  A    between atoms: C_1  and  C_2
    2  A    between atoms: C_4  and  C_12
    3  A    between atoms: C_4  and  C_13
    4  A    between atoms: C_9  and  N_15
    5  A    between atoms: C_9  and  C_18
    6  A    between atoms: N_10  and  C_13
                            x       y       z     vdW  Elec       q    Type
                         _______ _______ _______ _____ _____    ______ ____

>  <TORSDO>
F 6

$$$$
=
 OpenBabel10262420483D

 28 31  0  0  1  0  0  0  0  0999 V2000
  191.0640  176.9600  142.7950 C   0  0  1  0  0  3  0  0  0  0  0  0
  191.0270  176.5630  138.7590 O   0  0  0  0  0  0  0  0  0  0  0  0
  187.7460  177.0930  142.7950 N   0  0  0  0  0  0  0  0  0  0  0  0
  189.6560  176.6520  140.6840 C   0  0  1  0  0  3  0  0  0  0  0  0
  188.7080  175.9840  142.9380 C   0  0  0  0  0  2  0  0  0  0  0  0
  192.0220  177.6940  140.5780 C   0  0  0  0  0  2  0  0  0  0  0  0
  188.7670  177.9040  140.7150 C   0  0  0  0  0  2  0  0  0  0  0  0
  190.9160  176.9290  139.9190 C   0  0  0  0  0  0  0  0  0  0  0  0
  188.3200  178.2620  142.1300 C   0  0  0  0  0  2  0  0  0  0  0  0
  192.3320  177.0880  141.9440 C   0  0  0  0  0  2  0  0  0  0  0  0
  189.9880  176.1060  142.0860 C   0  0  2  0  0  3  0  0  0  0  0  0
  191.3860  176.4750  144.1840 C   0  0  0  0  0  0  0  0  0  0  0  0
  192.0120  175.2270  144.2990 C   0  0  0  0  0  3  0  0  0  0  0  0
  191.4710  176.7020  146.6120 C   0  0  0  0  0  0  0  0  0  0  0  0
  192.3660  174.7180  145.5500 C   0  0  0  0  0  3  0  0  0  0  0  0
  190.4520  178.5640  145.2810 C   0  0  0  0  0  1  0  0  0  0  0  0
  191.1050  177.2210  145.3540 C   0  0  0  0  0  0  0  0  0  0  0  0
  191.2150  177.4150  147.7790 O   0  0  0  0  0  1  0  0  0  0  0  0
  192.0970  175.4560  146.7040 C   0  0  0  0  0  3  0  0  0  0  0  0
  187.4040  177.5170  144.1420 C   0  0  0  0  0  2  0  0  0  0  0  0
  185.9320  177.8860  144.2240 C   0  0  0  0  0  2  0  0  0  0  0  0
  185.5040  178.0330  145.6890 C   0  0  2  0  0  3  0  0  0  0  0  0
  184.3090  178.8050  145.9260 N   0  0  0  0  0  0  0  0  0  0  0  0
  185.8950  179.3840  147.5180 C   0  0  0  0  0  1  0  0  0  0  0  0
  185.6150  179.3950  146.0930 N   0  0  0  0  0  0  0  0  0  0  0  0
  183.7260  179.4250  144.7370 C   0  0  0  0  0  2  0  0  0  0  0  0
  181.7780  179.1020  143.2760 C   0  0  0  0  0  2  0  0  0  0  0  0
  182.4660  178.7210  144.3490 C   0  0  0  0  0  3  0  0  0  0  0  0
  1 12  1  1  0  0  0
  2  8  2  0  0  0  0
  3  5  1  0  0  0  0
  3 20  1  0  0  0  0
  4  7  1  1  0  0  0
  4 11  1  0  0  0  0
  6 10  1  0  0  0  0
  7  9  1  0  0  0  0
  8  6  1  0  0  0  0
  8  4  1  0  0  0  0
  9  3  1  0  0  0  0
 10  1  1  0  0  0  0
 11  1  1  0  0  0  0
 11  5  1  1  0  0  0
 12 13  2  0  0  0  0
 12 17  1  0  0  0  0
 13 15  1  0  0  0  0
 14 19  1  0  0  0  0
 14 18  1  0  0  0  0
 15 19  2  0  0  0  0
 16 17  1  0  0  0  0
 17 14  2  0  0  0  0
 20 21  1  0  0  0  0
 22 21  1  6  0  0  0
 22 23  1  0  0  0  0
 22 25  1  0  0  0  0
 23 25  1  0  0  0  0
 25 24  1  0  0  0  0
 26 23  1  0  0  0  0
 27 28  2  0  0  0  0
 28 26  1  0  0  0  0
M  END
>  <MODEL>
2

>  <REMARK>
 VINA RESULT:      -7.5      0.618      2.024
  Name = 
  6 active torsions:
  status: ('A' for Active; 'I' for Inactive)
    1  A    between atoms: C_1  and  C_2
    2  A    between atoms: C_4  and  C_12
    3  A    between atoms: C_4  and  C_13
    4  A    between atoms: C_9  and  N_15
    5  A    between atoms: C_9  and  C_18
    6  A    between atoms: N_10  and  C_13
                            x       y       z     vdW  Elec       q    Type
                         _______ _______ _______ _____ _____    ______ ____

>  <TORSDO>
F 6

$$$$
=
 OpenBabel10262420483D

 28 31  0  0  1  0  0  0  0  0999 V2000
  188.7280  177.7820  141.3820 C   0  0  1  0  0  3  0  0  0  0  0  0
  184.9100  177.9640  142.7380 O   0  0  0  0  0  0  0  0  0  0  0  0
  189.6780  176.4730  144.2820 N   0  0  0  0  0  0  0  0  0  0  0  0
  187.0860  177.1900  143.2490 C   0  0  1  0  0  3  0  0  0  0  0  0
  189.2400  175.8780  143.0050 C   0  0  0  0  0  2  0  0  0  0  0  0
  186.6230  179.1520  141.6270 C   0  0  0  0  0  2  0  0  0  0  0  0
  187.7020  177.9210  144.4510 C   0  0  0  0  0  2  0  0  0  0  0  0
  186.1110  178.0850  142.5430 C   0  0  0  0  0  0  0  0  0  0  0  0
  189.2270  177.8540  144.4490 C   0  0  0  0  0  2  0  0  0  0  0  0
  187.6310  178.5580  140.6460 C   0  0  0  0  0  2  0  0  0  0  0  0
  188.1370  176.6540  142.2580 C   0  0  2  0  0  3  0  0  0  0  0  0
  189.7870  177.2970  140.4260 C   0  0  0  0  0  0  0  0  0  0  0  0
  189.3540  176.6200  139.2790 C   0  0  0  0  0  3  0  0  0  0  0  0
  192.0900  177.0480  139.6610 C   0  0  0  0  0  0  0  0  0  0  0  0
  190.2720  176.1610  138.3320 C   0  0  0  0  0  3  0  0  0  0  0  0
  191.6810  178.2400  141.8270 C   0  0  0  0  0  1  0  0  0  0  0  0
  191.1720  177.5100  140.6260 C   0  0  0  0  0  0  0  0  0  0  0  0
  193.4580  177.2490  139.8250 O   0  0  0  0  0  1  0  0  0  0  0  0
  191.6370  176.3770  138.5230 C   0  0  0  0  0  3  0  0  0  0  0  0
  191.1290  176.5200  144.2380 C   0  0  0  0  0  2  0  0  0  0  0  0
  191.6770  177.1620  145.5030 C   0  0  0  0  0  2  0  0  0  0  0  0
  191.7810  176.1210  146.6230 C   0  0  2  0  0  3  0  0  0  0  0  0
  190.8640  176.2800  147.7240 N   0  0  0  0  0  0  0  0  0  0  0  0
  192.9530  175.7300  148.5710 C   0  0  0  0  0  1  0  0  0  0  0  0
  192.2260  176.7420  147.8250 N   0  0  0  0  0  0  0  0  0  0  0  0
  190.0260  177.4770  147.6650 C   0  0  0  0  0  2  0  0  0  0  0  0
  187.6940  178.0980  148.1200 C   0  0  0  0  0  2  0  0  0  0  0  0
  188.6210  177.1470  148.0510 C   0  0  0  0  0  3  0  0  0  0  0  0
  1 12  1  6  0  0  0
  1 11  1  0  0  0  0
  3  9  1  0  0  0  0
  4  7  1  1  0  0  0
  5  3  1  0  0  0  0
  6  8  1  0  0  0  0
  8  2  2  0  0  0  0
  8  4  1  0  0  0  0
  9  7  1  0  0  0  0
 10  1  1  0  0  0  0
 10  6  1  0  0  0  0
 11  5  1  1  0  0  0
 11  4  1  0  0  0  0
 12 17  1  0  0  0  0
 13 12  2  0  0  0  0
 14 18  1  0  0  0  0
 14 17  2  0  0  0  0
 15 19  2  0  0  0  0
 15 13  1  0  0  0  0
 17 16  1  0  0  0  0
 19 14  1  0  0  0  0
 20  3  1  0  0  0  0
 20 21  1  0  0  0  0
 22 21  1  6  0  0  0
 22 23  1  0  0  0  0
 22 25  1  0  0  0  0
 23 25  1  0  0  0  0
 25 24  1  0  0  0  0
 26 23  1  0  0  0  0
 26 28  1  0  0  0  0
 28 27  2  0  0  0  0
M  END
>  <MODEL>
3

>  <REMARK>
 VINA RESULT:      -7.1      2.696      5.719
  Name = 
  6 active torsions:
  status: ('A' for Active; 'I' for Inactive)
    1  A    between atoms: C_1  and  C_2
    2  A    between atoms: C_4  and  C_12
    3  A    between atoms: C_4  and  C_13
    4  A    between atoms: C_9  and  N_15
    5  A    between atoms: C_9  and  C_18
    6  A    between atoms: N_10  and  C_13
                            x       y       z     vdW  Elec       q    Type
                         _______ _______ _______ _____ _____    ______ ____

>  <TORSDO>
F 6

$$$$
=
 OpenBabel10262420483D

 28 31  0  0  1  0  0  0  0  0999 V2000
  188.0610  177.9900  145.3430 C   0  0  1  0  0  3  0  0  0  0  0  0
  190.8450  175.9720  147.4930 O   0  0  0  0  0  0  0  0  0  0  0  0
  189.9780  177.7260  142.6440 N   0  0  0  0  0  0  0  0  0  0  0  0
  190.2580  176.6830  145.3150 C   0  0  1  0  0  3  0  0  0  0  0  0
  188.8900  176.8920  143.1910 C   0  0  0  0  0  2  0  0  0  0  0  0
  189.4210  177.8560  147.4640 C   0  0  0  0  0  2  0  0  0  0  0  0
  191.2350  177.7260  144.7540 C   0  0  0  0  0  2  0  0  0  0  0  0
  190.2140  176.7660  146.8120 C   0  0  0  0  0  0  0  0  0  0  0  0
  190.6040  178.5770  143.6550 C   0  0  0  0  0  2  0  0  0  0  0  0
  188.0150  177.9030  146.8720 C   0  0  0  0  0  2  0  0  0  0  0  0
  188.8370  176.8020  144.7290 C   0  0  2  0  0  3  0  0  0  0  0  0
  186.6800  178.1570  144.7650 C   0  0  0  0  0  0  0  0  0  0  0  0
  186.4950  177.7890  143.4260 C   0  0  0  0  0  3  0  0  0  0  0  0
  184.3140  178.7380  144.8950 C   0  0  0  0  0  0  0  0  0  0  0  0
  185.2390  177.8910  142.8240 C   0  0  0  0  0  3  0  0  0  0  0  0
  185.7230  179.0360  146.9450 C   0  0  0  0  0  1  0  0  0  0  0  0
  185.5790  178.6450  145.5090 C   0  0  0  0  0  0  0  0  0  0  0  0
  183.2100  179.2060  145.6030 O   0  0  0  0  0  1  0  0  0  0  0  0
  184.1510  178.3630  143.5590 C   0  0  0  0  0  3  0  0  0  0  0  0
  189.3640  178.6220  141.6800 C   0  0  0  0  0  2  0  0  0  0  0  0
  188.6790  177.8270  140.5790 C   0  0  0  0  0  2  0  0  0  0  0  0
  188.8000  178.5640  139.2410 C   0  0  2  0  0  3  0  0  0  0  0  0
  187.5930  178.6590  138.4570 N   0  0  0  0  0  0  0  0  0  0  0  0
  189.3600  178.1530  137.0400 C   0  0  0  0  0  1  0  0  0  0  0  0
  188.5870  177.6550  138.1650 N   0  0  0  0  0  0  0  0  0  0  0  0
  186.4400  177.9490  139.0080 C   0  0  0  0  0  2  0  0  0  0  0  0
  184.4060  179.2500  139.4650 C   0  0  0  0  0  2  0  0  0  0  0  0
  185.1700  178.6120  138.5810 C   0  0  0  0  0  3  0  0  0  0  0  0
  1 12  1  6  0  0  0
  1 10  1  0  0  0  0
  3  5  1  0  0  0  0
  3  9  1  0  0  0  0
  4  7  1  6  0  0  0
  4  8  1  0  0  0  0
  8  6  1  0  0  0  0
  8  2  2  0  0  0  0
  9  7  1  0  0  0  0
 10  6  1  0  0  0  0
 11  5  1  6  0  0  0
 11  4  1  0  0  0  0
 11  1  1  0  0  0  0
 12 17  1  0  0  0  0
 13 12  2  0  0  0  0
 14 17  2  0  0  0  0
 14 18  1  0  0  0  0
 15 13  1  0  0  0  0
 15 19  2  0  0  0  0
 17 16  1  0  0  0  0
 19 14  1  0  0  0  0
 20  3  1  0  0  0  0
 21 20  1  0  0  0  0
 22 21  1  1  0  0  0
 23 26  1  0  0  0  0
 23 22  1  0  0  0  0
 24 25  1  0  0  0  0
 25 23  1  0  0  0  0
 25 22  1  0  0  0  0
 28 26  1  0  0  0  0
 28 27  2  0  0  0  0
M  END
>  <MODEL>
4

>  <REMARK>
 VINA RESULT:      -7.1      2.911      6.656
  Name = 
  6 active torsions:
  status: ('A' for Active; 'I' for Inactive)
    1  A    between atoms: C_1  and  C_2
    2  A    between atoms: C_4  and  C_12
    3  A    between atoms: C_4  and  C_13
    4  A    between atoms: C_9  and  N_15
    5  A    between atoms: C_9  and  C_18
    6  A    between atoms: N_10  and  C_13
                            x       y       z     vdW  Elec       q    Type
                         _______ _______ _______ _____ _____    ______ ____

>  <TORSDO>
F 6

$$$$
=
 OpenBabel10262420483D

 28 31  0  0  1  0  0  0  0  0999 V2000
  186.5650  178.5170  144.8690 C   0  0  1  0  0  3  0  0  0  0  0  0
  187.6450  177.0920  148.5090 O   0  0  0  0  0  0  0  0  0  0  0  0
  189.3420  177.2450  143.5660 N   0  0  0  0  0  0  0  0  0  0  0  0
  188.2170  177.1030  146.2140 C   0  0  1  0  0  3  0  0  0  0  0  0
  187.9720  176.7200  143.7210 C   0  0  0  0  0  2  0  0  0  0  0  0
  186.8220  178.9710  147.3380 C   0  0  0  0  0  2  0  0  0  0  0  0
  189.5420  177.8280  145.9420 C   0  0  0  0  0  2  0  0  0  0  0  0
  187.5570  177.6700  147.4360 C   0  0  0  0  0  0  0  0  0  0  0  0
  189.6460  178.3250  144.5030 C   0  0  0  0  0  2  0  0  0  0  0  0
  185.8520  178.9340  146.1600 C   0  0  0  0  0  2  0  0  0  0  0  0
  187.2470  177.1370  145.0160 C   0  0  2  0  0  3  0  0  0  0  0  0
  185.6380  178.5960  143.6850 C   0  0  0  0  0  0  0  0  0  0  0  0
  186.2180  178.5540  142.4110 C   0  0  0  0  0  3  0  0  0  0  0  0
  183.4370  178.7280  142.6390 C   0  0  0  0  0  0  0  0  0  0  0  0
  185.4260  178.5980  141.2620 C   0  0  0  0  0  3  0  0  0  0  0  0
  183.5630  178.7230  145.1410 C   0  0  0  0  0  1  0  0  0  0  0  0
  184.2300  178.6910  143.8030 C   0  0  0  0  0  0  0  0  0  0  0  0
  182.0510  178.8120  142.7220 O   0  0  0  0  0  1  0  0  0  0  0  0
  184.0370  178.6820  141.3770 C   0  0  0  0  0  3  0  0  0  0  0  0
  189.4130  177.8260  142.2360 C   0  0  0  0  0  2  0  0  0  0  0  0
  189.5660  176.7340  141.1880 C   0  0  0  0  0  2  0  0  0  0  0  0
  190.5000  177.2050  140.0680 C   0  0  2  0  0  3  0  0  0  0  0  0
  189.8890  177.4080  138.7770 N   0  0  0  0  0  0  0  0  0  0  0  0
  191.9270  176.3390  138.4750 C   0  0  0  0  0  1  0  0  0  0  0  0
  190.6100  176.1930  139.0710 N   0  0  0  0  0  0  0  0  0  0  0  0
  188.4770  177.0390  138.6950 C   0  0  0  0  0  2  0  0  0  0  0  0
  186.4160  177.9530  137.7200 C   0  0  0  0  0  2  0  0  0  0  0  0
  187.6880  178.1390  138.0610 C   0  0  0  0  0  3  0  0  0  0  0  0
  1 12  1  6  0  0  0
  1 11  1  0  0  0  0
  1 10  1  0  0  0  0
  3  5  1  0  0  0  0
  3  9  1  0  0  0  0
  4  7  1  6  0  0  0
  4  8  1  0  0  0  0
  6  8  1  0  0  0  0
  8  2  2  0  0  0  0
  9  7  1  0  0  0  0
 10  6  1  0  0  0  0
 11  5  1  6  0  0  0
 11  4  1  0  0  0  0
 12 17  1  0  0  0  0
 13 12  2  0  0  0  0
 14 18  1  0  0  0  0
 14 17  2  0  0  0  0
 15 19  2  0  0  0  0
 15 13  1  0  0  0  0
 17 16  1  0  0  0  0
 19 14  1  0  0  0  0
 20  3  1  0  0  0  0
 21 20  1  0  0  0  0
 22 21  1  1  0  0  0
 23 25  1  0  0  0  0
 23 22  1  0  0  0  0
 24 25  1  0  0  0  0
 25 22  1  0  0  0  0
 26 23  1  0  0  0  0
 27 28  2  0  0  0  0
 28 26  1  0  0  0  0
M  END
>  <MODEL>
5

>  <REMARK>
 VINA RESULT:      -7.0      3.125      7.673
  Name = 
  6 active torsions:
  status: ('A' for Active; 'I' for Inactive)
    1  A    between atoms: C_1  and  C_2
    2  A    between atoms: C_4  and  C_12
    3  A    between atoms: C_4  and  C_13
    4  A    between atoms: C_9  and  N_15
    5  A    between atoms: C_9  and  C_18
    6  A    between atoms: N_10  and  C_13
                            x       y       z     vdW  Elec       q    Type
                         _______ _______ _______ _____ _____    ______ ____

>  <TORSDO>
F 6

$$$$
=
 OpenBabel10262420483D

 28 31  0  0  1  0  0  0  0  0999 V2000
  187.6850  177.7400  141.5880 C   0  0  1  0  0  3  0  0  0  0  0  0
  189.0960  179.2810  138.1120 O   0  0  0  0  0  0  0  0  0  0  0  0
  190.8030  177.2380  142.6120 N   0  0  0  0  0  0  0  0  0  0  0  0
  189.7300  178.4840  140.2470 C   0  0  1  0  0  3  0  0  0  0  0  0
  189.8590  178.3600  142.7750 C   0  0  0  0  0  2  0  0  0  0  0  0
  187.5320  177.7930  139.0700 C   0  0  0  0  0  2  0  0  0  0  0  0
  190.5440  177.1850  140.1710 C   0  0  0  0  0  2  0  0  0  0  0  0
  188.8020  178.5850  139.0720 C   0  0  0  0  0  0  0  0  0  0  0  0
  190.4800  176.3840  141.4700 C   0  0  0  0  0  2  0  0  0  0  0  0
  186.7800  178.0080  140.3810 C   0  0  0  0  0  2  0  0  0  0  0  0
  188.9450  178.6350  141.5650 C   0  0  2  0  0  3  0  0  0  0  0  0
  186.9130  177.8350  142.8780 C   0  0  0  0  0  0  0  0  0  0  0  0
  187.3930  177.0990  143.9690 C   0  0  0  0  0  3  0  0  0  0  0  0
  185.1170  178.6900  144.2910 C   0  0  0  0  0  0  0  0  0  0  0  0
  186.7490  177.1540  145.2070 C   0  0  0  0  0  3  0  0  0  0  0  0
  185.2160  179.4520  141.9060 C   0  0  0  0  0  1  0  0  0  0  0  0
  185.7570  178.6370  143.0370 C   0  0  0  0  0  0  0  0  0  0  0  0
  183.9830  179.4750  144.4800 O   0  0  0  0  0  1  0  0  0  0  0  0
  185.6140  177.9500  145.3660 C   0  0  0  0  0  3  0  0  0  0  0  0
  190.6630  176.4070  143.7950 C   0  0  0  0  0  2  0  0  0  0  0  0
  191.2410  177.1130  145.0110 C   0  0  0  0  0  2  0  0  0  0  0  0
  191.4330  176.1160  146.1600 C   0  0  2  0  0  3  0  0  0  0  0  0
  190.6100  176.3260  147.3260 N   0  0  0  0  0  0  0  0  0  0  0  0
  192.7600  175.7950  148.0190 C   0  0  0  0  0  1  0  0  0  0  0  0
  191.9790  176.7820  147.2950 N   0  0  0  0  0  0  0  0  0  0  0  0
  189.7760  177.5260  147.2870 C   0  0  0  0  0  2  0  0  0  0  0  0
  187.8470  178.4090  148.5250 C   0  0  0  0  0  2  0  0  0  0  0  0
  188.5850  177.3600  148.1740 C   0  0  0  0  0  3  0  0  0  0  0  0
  1 12  1  1  0  0  0
  2  8  2  0  0  0  0
  3  5  1  0  0  0  0
  3 20  1  0  0  0  0
  4  7  1  1  0  0  0
  4 11  1  0  0  0  0
  6  8  1  0  0  0  0
  6 10  1  0  0  0  0
  7  9  1  0  0  0  0
  8  4  1  0  0  0  0
  9  3  1  0  0  0  0
 10  1  1  0  0  0  0
 11  1  1  0  0  0  0
 11  5  1  1  0  0  0
 12 17  2  0  0  0  0
 12 13  1  0  0  0  0
 13 15  2  0  0  0  0
 14 18  1  0  0  0  0
 14 19  2  0  0  0  0
 15 19  1  0  0  0  0
 16 17  1  0  0  0  0
 17 14  1  0  0  0  0
 20 21  1  0  0  0  0
 22 21  1  6  0  0  0
 22 25  1  0  0  0  0
 22 23  1  0  0  0  0
 25 23  1  0  0  0  0
 25 24  1  0  0  0  0
 26 23  1  0  0  0  0
 26 28  1  0  0  0  0
 28 27  2  0  0  0  0
M  END
>  <MODEL>
6

>  <REMARK>
 VINA RESULT:      -6.7      2.855      5.406
  Name = 
  6 active torsions:
  status: ('A' for Active; 'I' for Inactive)
    1  A    between atoms: C_1  and  C_2
    2  A    between atoms: C_4  and  C_12
    3  A    between atoms: C_4  and  C_13
    4  A    between atoms: C_9  and  N_15
    5  A    between atoms: C_9  and  C_18
    6  A    between atoms: N_10  and  C_13
                            x       y       z     vdW  Elec       q    Type
                         _______ _______ _______ _____ _____    ______ ____

>  <TORSDO>
F 6

$$$$
=
 OpenBabel10262420483D

 28 31  0  0  1  0  0  0  0  0999 V2000
  186.5290  178.4800  144.9020 C   0  0  1  0  0  3  0  0  0  0  0  0
  187.8180  176.9910  148.4470 O   0  0  0  0  0  0  0  0  0  0  0  0
  189.2080  177.2060  143.4110 N   0  0  0  0  0  0  0  0  0  0  0  0
  188.2470  177.0330  146.1220 C   0  0  1  0  0  3  0  0  0  0  0  0
  187.8450  176.6900  143.6430 C   0  0  0  0  0  2  0  0  0  0  0  0
  186.9410  178.8940  147.3570 C   0  0  0  0  0  2  0  0  0  0  0  0
  189.5600  177.7520  145.7790 C   0  0  0  0  0  2  0  0  0  0  0  0
  187.6690  177.5860  147.3910 C   0  0  0  0  0  0  0  0  0  0  0  0
  189.5800  178.2700  144.3430 C   0  0  0  0  0  2  0  0  0  0  0  0
  185.9000  178.8830  146.2410 C   0  0  0  0  0  2  0  0  0  0  0  0
  187.2060  177.0930  144.9870 C   0  0  2  0  0  3  0  0  0  0  0  0
  185.5310  178.5850  143.7790 C   0  0  0  0  0  0  0  0  0  0  0  0
  186.0310  178.5560  142.4710 C   0  0  0  0  0  3  0  0  0  0  0  0
  183.2720  178.7520  142.8730 C   0  0  0  0  0  0  0  0  0  0  0  0
  185.1690  178.6240  141.3740 C   0  0  0  0  0  3  0  0  0  0  0  0
  183.5520  178.7100  145.3620 C   0  0  0  0  0  1  0  0  0  0  0  0
  184.1340  178.6910  143.9850 C   0  0  0  0  0  0  0  0  0  0  0  0
  181.8940  178.8480  143.0440 O   0  0  0  0  0  1  0  0  0  0  0  0
  183.7920  178.7190  141.5760 C   0  0  0  0  0  3  0  0  0  0  0  0
  189.2020  177.8070  142.0880 C   0  0  0  0  0  2  0  0  0  0  0  0
  189.9370  176.9160  141.0980 C   0  0  0  0  0  2  0  0  0  0  0  0
  189.2850  177.0150  139.7150 C   0  0  2  0  0  3  0  0  0  0  0  0
  190.1590  176.8090  138.5860 N   0  0  0  0  0  0  0  0  0  0  0  0
  188.7520  178.5940  138.1190 C   0  0  0  0  0  1  0  0  0  0  0  0
  189.8040  178.1410  139.0130 N   0  0  0  0  0  0  0  0  0  0  0  0
  191.5720  176.6340  138.9210 C   0  0  0  0  0  2  0  0  0  0  0  0
  192.3820  174.7370  137.5860 C   0  0  0  0  0  2  0  0  0  0  0  0
  192.3130  176.0540  137.7590 C   0  0  0  0  0  3  0  0  0  0  0  0
  1 12  1  6  0  0  0
  1 11  1  0  0  0  0
  1 10  1  0  0  0  0
  3  5  1  0  0  0  0
  3  9  1  0  0  0  0
  4  7  1  6  0  0  0
  4  8  1  0  0  0  0
  6  8  1  0  0  0  0
  8  2  2  0  0  0  0
  9  7  1  0  0  0  0
 10  6  1  0  0  0  0
 11  5  1  6  0  0  0
 11  4  1  0  0  0  0
 12 17  1  0  0  0  0
 13 12  2  0  0  0  0
 14 18  1  0  0  0  0
 14 17  2  0  0  0  0
 15 19  2  0  0  0  0
 15 13  1  0  0  0  0
 17 16  1  0  0  0  0
 19 14  1  0  0  0  0
 20  3  1  0  0  0  0
 21 20  1  0  0  0  0
 22 21  1  1  0  0  0
 23 26  1  0  0  0  0
 23 25  1  0  0  0  0
 23 22  1  0  0  0  0
 24 25  1  0  0  0  0
 25 22  1  0  0  0  0
 27 28  2  0  0  0  0
 28 26  1  0  0  0  0
M  END
>  <MODEL>
7

>  <REMARK>
 VINA RESULT:      -6.7      3.131      7.788
  Name = 
  6 active torsions:
  status: ('A' for Active; 'I' for Inactive)
    1  A    between atoms: C_1  and  C_2
    2  A    between atoms: C_4  and  C_12
    3  A    between atoms: C_4  and  C_13
    4  A    between atoms: C_9  and  N_15
    5  A    between atoms: C_9  and  C_18
    6  A    between atoms: N_10  and  C_13
                            x       y       z     vdW  Elec       q    Type
                         _______ _______ _______ _____ _____    ______ ____

>  <TORSDO>
F 6

$$$$
=
 OpenBabel10262420483D

 28 31  0  0  1  0  0  0  0  0999 V2000
  190.2070  177.5330  143.4350 C   0  0  1  0  0  3  0  0  0  0  0  0
  190.9330  176.3360  139.6280 O   0  0  0  0  0  0  0  0  0  0  0  0
  186.9440  177.4150  142.8320 N   0  0  0  0  0  0  0  0  0  0  0  0
  189.2270  176.7050  141.2240 C   0  0  1  0  0  3  0  0  0  0  0  0
  187.9040  176.4320  143.3690 C   0  0  0  0  0  2  0  0  0  0  0  0
  191.5310  177.8780  141.3140 C   0  0  0  0  0  2  0  0  0  0  0  0
  188.3020  177.8680  140.8370 C   0  0  0  0  0  2  0  0  0  0  0  0
  190.5960  176.9170  140.6490 C   0  0  0  0  0  0  0  0  0  0  0  0
  187.5880  178.4670  142.0460 C   0  0  0  0  0  2  0  0  0  0  0  0
  191.6060  177.5820  142.8100 C   0  0  0  0  0  2  0  0  0  0  0  0
  189.3140  176.4760  142.7460 C   0  0  2  0  0  3  0  0  0  0  0  0
  190.2850  177.3600  144.9290 C   0  0  0  0  0  0  0  0  0  0  0  0
  189.4400  178.1570  145.7120 C   0  0  0  0  0  3  0  0  0  0  0  0
  191.1280  176.3160  146.9660 C   0  0  0  0  0  0  0  0  0  0  0  0
  189.4330  178.0400  147.1030 C   0  0  0  0  0  3  0  0  0  0  0  0
  192.0540  175.5490  144.7690 C   0  0  0  0  0  1  0  0  0  0  0  0
  191.1450  176.4320  145.5620 C   0  0  0  0  0  0  0  0  0  0  0  0
  191.9560  175.4060  147.6170 O   0  0  0  0  0  1  0  0  0  0  0  0
  190.2750  177.1190  147.7280 C   0  0  0  0  0  3  0  0  0  0  0  0
  186.3440  178.0730  143.9790 C   0  0  0  0  0  2  0  0  0  0  0  0
  185.3050  179.0860  143.5260 C   0  0  0  0  0  2  0  0  0  0  0  0
  183.9300  178.4190  143.4110 C   0  0  2  0  0  3  0  0  0  0  0  0
  183.3540  178.3760  142.0900 N   0  0  0  0  0  0  0  0  0  0  0  0
  181.6900  178.9380  143.6080 C   0  0  0  0  0  1  0  0  0  0  0  0
  182.9510  179.3850  143.0400 N   0  0  0  0  0  0  0  0  0  0  0  0
  184.1220  179.0680  141.0560 C   0  0  0  0  0  2  0  0  0  0  0  0
  184.9330  178.6270  138.7800 C   0  0  0  0  0  2  0  0  0  0  0  0
  184.3050  178.1840  139.8660 C   0  0  0  0  0  3  0  0  0  0  0  0
  1 12  1  1  0  0  0
  2  8  2  0  0  0  0
  3  5  1  0  0  0  0
  3 20  1  0  0  0  0
  4  7  1  1  0  0  0
  4 11  1  0  0  0  0
  6 10  1  0  0  0  0
  7  9  1  0  0  0  0
  8  4  1  0  0  0  0
  8  6  1  0  0  0  0
  9  3  1  0  0  0  0
 10  1  1  0  0  0  0
 11  5  1  1  0  0  0
 11  1  1  0  0  0  0
 12 17  2  0  0  0  0
 12 13  1  0  0  0  0
 13 15  2  0  0  0  0
 14 18  1  0  0  0  0
 14 19  2  0  0  0  0
 15 19  1  0  0  0  0
 16 17  1  0  0  0  0
 17 14  1  0  0  0  0
 21 20  1  0  0  0  0
 22 21  1  6  0  0  0
 23 25  1  0  0  0  0
 23 22  1  0  0  0  0
 25 22  1  0  0  0  0
 25 24  1  0  0  0  0
 26 23  1  0  0  0  0
 27 28  2  0  0  0  0
 28 26  1  0  0  0  0
M  END
>  <MODEL>
8

>  <REMARK>
 VINA RESULT:      -6.7      1.876      3.272
  Name = 
  6 active torsions:
  status: ('A' for Active; 'I' for Inactive)
    1  A    between atoms: C_1  and  C_2
    2  A    between atoms: C_4  and  C_12
    3  A    between atoms: C_4  and  C_13
    4  A    between atoms: C_9  and  N_15
    5  A    between atoms: C_9  and  C_18
    6  A    between atoms: N_10  and  C_13
                            x       y       z     vdW  Elec       q    Type
                         _______ _______ _______ _____ _____    ______ ____

>  <TORSDO>
F 6

$$$$
=
 OpenBabel10262420483D

 28 31  0  0  1  0  0  0  0  0999 V2000
  190.9890  176.1810  144.2490 C   0  0  1  0  0  3  0  0  0  0  0  0
  193.1640  175.5710  147.6170 O   0  0  0  0  0  0  0  0  0  0  0  0
  188.9360  178.1580  145.9530 N   0  0  0  0  0  0  0  0  0  0  0  0
  191.3680  176.8050  146.6990 C   0  0  1  0  0  3  0  0  0  0  0  0
  190.1540  178.4150  145.1620 C   0  0  0  0  0  2  0  0  0  0  0  0
  192.1490  174.5250  145.7580 C   0  0  0  0  0  2  0  0  0  0  0  0
  190.0170  176.4350  147.3280 C   0  0  0  0  0  2  0  0  0  0  0  0
  192.3040  175.6340  146.7520 C   0  0  0  0  0  0  0  0  0  0  0  0
  188.8410  176.7740  146.4160 C   0  0  0  0  0  2  0  0  0  0  0  0
  192.0680  175.0970  144.3460 C   0  0  0  0  0  2  0  0  0  0  0  0
  191.2440  177.3280  145.2540 C   0  0  2  0  0  3  0  0  0  0  0  0
  190.8260  176.6610  142.8300 C   0  0  0  0  0  0  0  0  0  0  0  0
  191.9840  177.0610  142.1510 C   0  0  0  0  0  3  0  0  0  0  0  0
  189.5240  177.1410  140.8230 C   0  0  0  0  0  0  0  0  0  0  0  0
  191.9200  177.4950  140.8250 C   0  0  0  0  0  3  0  0  0  0  0  0
  188.3180  176.2770  142.8420 C   0  0  0  0  0  1  0  0  0  0  0  0
  189.5780  176.7070  142.1630 C   0  0  0  0  0  0  0  0  0  0  0  0
  188.3140  177.1900  140.1380 O   0  0  0  0  0  1  0  0  0  0  0  0
  190.6920  177.5330  140.1630 C   0  0  0  0  0  3  0  0  0  0  0  0
  187.8120  178.3650  145.0560 C   0  0  0  0  0  2  0  0  0  0  0  0
  186.6240  177.5220  145.4910 C   0  0  0  0  0  2  0  0  0  0  0  0
  185.9190  178.1770  146.6840 C   0  0  2  0  0  3  0  0  0  0  0  0
  184.7790  179.0020  146.3720 N   0  0  0  0  0  0  0  0  0  0  0  0
  186.0500  180.0730  147.9930 C   0  0  0  0  0  1  0  0  0  0  0  0
  186.0720  179.5920  146.6220 N   0  0  0  0  0  0  0  0  0  0  0  0
  184.5140  179.1800  144.9450 C   0  0  0  0  0  2  0  0  0  0  0  0
  182.6120  178.9660  143.4070 C   0  0  0  0  0  2  0  0  0  0  0  0
  183.0600  178.9860  144.6590 C   0  0  0  0  0  3  0  0  0  0  0  0
  1 12  1  6  0  0  0
  1 10  1  0  0  0  0
  1 11  1  0  0  0  0
  3  9  1  0  0  0  0
  4  8  1  0  0  0  0
  4  7  1  6  0  0  0
  5  3  1  0  0  0  0
  6  8  1  0  0  0  0
  8  2  2  0  0  0  0
  9  7  1  0  0  0  0
 10  6  1  0  0  0  0
 11  5  1  1  0  0  0
 11  4  1  0  0  0  0
 13 12  2  0  0  0  0
 14 17  2  0  0  0  0
 15 13  1  0  0  0  0
 17 12  1  0  0  0  0
 17 16  1  0  0  0  0
 18 14  1  0  0  0  0
 19 14  1  0  0  0  0
 19 15  2  0  0  0  0
 20 21  1  0  0  0  0
 20  3  1  0  0  0  0
 22 21  1  6  0  0  0
 23 25  1  0  0  0  0
 23 22  1  0  0  0  0
 25 22  1  0  0  0  0
 25 24  1  0  0  0  0
 26 23  1  0  0  0  0
 27 28  2  0  0  0  0
 28 26  1  0  0  0  0
M  END
>  <MODEL>
9

>  <REMARK>
 VINA RESULT:      -6.6      1.359      4.877
  Name = 
  6 active torsions:
  status: ('A' for Active; 'I' for Inactive)
    1  A    between atoms: C_1  and  C_2
    2  A    between atoms: C_4  and  C_12
    3  A    between atoms: C_4  and  C_13
    4  A    between atoms: C_9  and  N_15
    5  A    between atoms: C_9  and  C_18
    6  A    between atoms: N_10  and  C_13
                            x       y       z     vdW  Elec       q    Type
                         _______ _______ _______ _____ _____    ______ ____

>  <TORSDO>
F 6

$$$$
