=
 OpenBabel10262421023D

 32 36  0  0  1  0  0  0  0  0999 V2000
  187.0640  178.6790  142.7270 C   0  0  1  0  0  3  0  0  0  0  0  0
  188.9420  177.1160  142.4500 N   0  0  2  0  0  0  0  0  0  0  0  0
  185.7830  178.9780  143.4870 C   0  0  0  0  0  2  0  0  0  0  0  0
  187.6120  177.2900  143.0460 C   0  0  1  0  0  3  0  0  0  0  0  0
  189.9060  178.1750  142.8250 C   0  0  1  0  0  3  0  0  0  0  0  0
  188.7640  177.1720  140.9900 C   0  0  1  0  0  3  0  0  0  0  0  0
  192.4380  177.4680  140.2770 C   0  0  0  0  0  0  0  0  0  0  0  0
  191.2810  177.5130  140.8810 C   0  0  0  0  0  0  0  0  0  0  0  0
  189.8400  178.6490  144.2890 C   0  0  2  0  0  3  0  0  0  0  0  0
  187.5500  176.8700  144.5260 C   0  0  1  0  0  3  0  0  0  0  0  0
  191.3030  177.7930  142.3570 C   0  0  0  0  0  2  0  0  0  0  0  0
  188.8630  176.4440  145.1920 C   0  0  0  0  0  2  0  0  0  0  0  0
  186.4910  177.5290  145.4200 C   0  0  0  0  0  2  0  0  0  0  0  0
  188.2600  178.4930  140.5500 N   0  0  0  0  0  2  0  0  0  0  0  0
  190.8000  179.6120  144.5370 F   0  0  0  0  0  0  0  0  0  0  0  0
  186.9850  178.8490  141.2040 C   0  0  1  0  0  3  0  0  0  0  0  0
  190.0810  176.7980  140.2810 C   0  0  2  0  0  3  0  0  0  0  0  0
  189.9070  177.5520  145.3480 C   0  0  0  0  0  2  0  0  0  0  0  0
  186.1110  178.9420  144.9750 C   0  0  0  0  0  2  0  0  0  0  0  0
  193.5340  177.4250  139.7040 O   0  0  0  0  0  0  0  0  0  0  0  0
  184.1760  179.0540  138.6480 C   0  0  2  0  0  3  0  0  0  0  0  0
  184.0080  180.4020  138.9630 O   0  0  0  0  0  1  0  0  0  0  0  0
  183.2960  177.9140  140.6450 C   0  0  0  0  0  3  0  0  0  0  0  0
  185.7620  178.2080  140.5230 C   0  0  1  0  0  3  0  0  0  0  0  0
  183.1300  178.2330  139.3540 C   0  0  0  0  0  0  0  0  0  0  0  0
  184.5040  178.4170  141.3750 C   0  0  0  0  0  2  0  0  0  0  0  0
  185.5950  178.6070  139.0350 C   0  0  1  0  0  3  0  0  0  0  0  0
  185.9910  177.5440  138.2230 O   0  0  0  0  0  1  0  0  0  0  0  0
  181.9670  177.6970  138.5890 C   0  0  0  0  0  2  0  0  0  0  0  0
  182.1590  177.9020  137.2230 O   0  0  0  0  0  1  0  0  0  0  0  0
  190.1650  175.7600  138.1220 O   0  0  0  0  0  1  0  0  0  0  0  0
  189.9500  176.9770  138.7680 C   0  0  0  0  0  2  0  0  0  0  0  0
  1  4  1  0  0  0  0
  1  3  1  1  0  0  0
  2  5  1  0  0  0  0
  2  4  1  0  0  0  0
  3 19  1  0  0  0  0
  4 10  1  0  0  0  0
  5  9  1  0  0  0  0
  6  2  1  0  0  0  0
  7  8  2  0  0  0  0
  8 11  1  0  0  0  0
  9 15  1  0  0  0  0
  9 18  1  0  0  0  0
 10 12  1  0  0  0  0
 10 13  1  0  0  0  0
 11  5  1  0  0  0  0
 12 18  1  0  0  0  0
 14  6  1  0  0  0  0
 14 16  1  0  0  0  0
 16  1  1  0  0  0  0
 17  8  1  0  0  0  0
 17  6  1  0  0  0  0
 19 13  1  0  0  0  0
 20  7  2  0  0  0  0
 21 22  1  0  0  0  0
 21 27  1  0  0  0  0
 21 25  1  0  0  0  0
 23 26  1  0  0  0  0
 24 16  1  0  0  0  0
 24 26  1  0  0  0  0
 25 23  2  0  0  0  0
 27 24  1  0  0  0  0
 28 27  1  0  0  0  0
 29 25  1  0  0  0  0
 30 29  1  0  0  0  0
 31 32  1  0  0  0  0
 32 17  1  0  0  0  0
M  END
>  <MODEL>
1

>  <REMARK>
 VINA RESULT:      -8.1      0.000      0.000
  Name = 
  3 active torsions:
  status: ('A' for Active; 'I' for Inactive)
    1  A    between atoms: C_7  and  C_19
    2  A    between atoms: C_16  and  C_27
    3  A    between atoms: C_28  and  C_32
                            x       y       z     vdW  Elec       q    Type
                         _______ _______ _______ _____ _____    ______ ____

>  <TORSDO>
F 3

$$$$
=
 OpenBabel10262421023D

 32 36  0  0  1  0  0  0  0  0999 V2000
  187.5300  178.4920  141.2550 C   0  0  1  0  0  3  0  0  0  0  0  0
  189.4150  176.9710  141.6760 N   0  0  2  0  0  0  0  0  0  0  0  0
  186.0990  178.8470  141.6220 C   0  0  0  0  0  2  0  0  0  0  0  0
  187.9780  177.1790  141.8900 C   0  0  1  0  0  3  0  0  0  0  0  0
  190.2550  178.1030  142.1300 C   0  0  1  0  0  3  0  0  0  0  0  0
  189.6120  176.8240  140.2240 C   0  0  1  0  0  3  0  0  0  0  0  0
  193.3480  177.1470  140.4190 C   0  0  0  0  0  0  0  0  0  0  0  0
  192.0760  177.2340  140.7020 C   0  0  0  0  0  0  0  0  0  0  0  0
  189.8220  178.7670  143.4500 C   0  0  2  0  0  3  0  0  0  0  0  0
  187.5450  176.9590  143.3510 C   0  0  1  0  0  3  0  0  0  0  0  0
  191.7240  177.7090  142.0830 C   0  0  0  0  0  2  0  0  0  0  0  0
  188.6470  176.6710  144.3770 C   0  0  0  0  0  2  0  0  0  0  0  0
  186.2960  177.6960  143.8520 C   0  0  0  0  0  2  0  0  0  0  0  0
  189.2370  178.0570  139.4930 N   0  0  0  0  0  2  0  0  0  0  0  0
  190.6900  179.7870  143.7950 F   0  0  0  0  0  0  0  0  0  0  0  0
  187.8380  178.4540  139.7520 C   0  0  1  0  0  3  0  0  0  0  0  0
  191.0650  176.4030  139.9260 C   0  0  2  0  0  3  0  0  0  0  0  0
  189.6190  177.8250  144.6340 C   0  0  0  0  0  2  0  0  0  0  0  0
  186.0420  179.0230  143.1350 C   0  0  0  0  0  2  0  0  0  0  0  0
  194.5530  177.0640  140.1490 O   0  0  0  0  0  0  0  0  0  0  0  0
  186.6360  177.3650  136.3120 C   0  0  2  0  0  3  0  0  0  0  0  0
  186.9750  178.6220  135.8120 O   0  0  0  0  0  1  0  0  0  0  0  0
  184.6510  177.8420  137.6880 C   0  0  0  0  0  3  0  0  0  0  0  0
  186.8260  177.6860  138.8830 C   0  0  1  0  0  3  0  0  0  0  0  0
  185.1550  177.3020  136.5690 C   0  0  0  0  0  0  0  0  0  0  0  0
  185.5710  178.5350  138.6460 C   0  0  0  0  0  2  0  0  0  0  0  0
  187.4400  177.0860  137.5920 C   0  0  1  0  0  3  0  0  0  0  0  0
  187.6040  175.7100  137.7540 O   0  0  0  0  0  1  0  0  0  0  0  0
  184.2690  176.5550  135.6280 C   0  0  0  0  0  2  0  0  0  0  0  0
  184.9590  175.4710  135.0840 O   0  0  0  0  0  1  0  0  0  0  0  0
  191.0650  175.0970  137.9160 O   0  0  0  0  0  1  0  0  0  0  0  0
  191.3200  176.3730  138.4190 C   0  0  0  0  0  2  0  0  0  0  0  0
  1  3  1  6  0  0  0
  1  4  1  0  0  0  0
  2  4  1  0  0  0  0
  2  5  1  0  0  0  0
  3 19  1  0  0  0  0
  4 10  1  0  0  0  0
  5  9  1  0  0  0  0
  6  2  1  0  0  0  0
  7  8  2  0  0  0  0
  8 11  1  0  0  0  0
  9 15  1  0  0  0  0
  9 18  1  0  0  0  0
 10 13  1  0  0  0  0
 10 12  1  0  0  0  0
 11  5  1  0  0  0  0
 12 18  1  0  0  0  0
 14 16  1  0  0  0  0
 14  6  1  0  0  0  0
 16  1  1  0  0  0  0
 17  6  1  0  0  0  0
 17  8  1  0  0  0  0
 19 13  1  0  0  0  0
 20  7  2  0  0  0  0
 21 25  1  0  0  0  0
 21 27  1  0  0  0  0
 22 21  1  0  0  0  0
 23 26  1  0  0  0  0
 24 16  1  0  0  0  0
 25 23  2  0  0  0  0
 26 24  1  0  0  0  0
 27 28  1  0  0  0  0
 27 24  1  0  0  0  0
 29 25  1  0  0  0  0
 30 29  1  0  0  0  0
 31 32  1  0  0  0  0
 32 17  1  0  0  0  0
M  END
>  <MODEL>
2

>  <REMARK>
 VINA RESULT:      -8.0      1.762      2.193
  Name = 
  3 active torsions:
  status: ('A' for Active; 'I' for Inactive)
    1  A    between atoms: C_7  and  C_19
    2  A    between atoms: C_16  and  C_27
    3  A    between atoms: C_28  and  C_32
                            x       y       z     vdW  Elec       q    Type
                         _______ _______ _______ _____ _____    ______ ____

>  <TORSDO>
F 3

$$$$
=
 OpenBabel10262421023D

 32 36  0  0  1  0  0  0  0  0999 V2000
  190.8940  177.7350  140.2200 C   0  0  1  0  0  3  0  0  0  0  0  0
  188.6020  177.0690  139.6260 N   0  0  2  0  0  0  0  0  0  0  0  0
  192.3570  177.3280  140.2190 C   0  0  0  0  0  2  0  0  0  0  0  0
  189.9770  176.5880  139.8030 C   0  0  1  0  0  3  0  0  0  0  0  0
  188.4880  178.2160  138.6960 C   0  0  1  0  0  3  0  0  0  0  0  0
  188.1360  177.5190  140.9480 C   0  0  1  0  0  3  0  0  0  0  0  0
  185.0910  179.2470  139.5920 C   0  0  0  0  0  0  0  0  0  0  0  0
  186.2760  178.7060  139.6840 C   0  0  0  0  0  0  0  0  0  0  0  0
  189.3850  178.1530  137.4460 C   0  0  2  0  0  3  0  0  0  0  0  0
  190.4750  175.7280  138.6260 C   0  0  1  0  0  3  0  0  0  0  0  0
  187.0220  178.4950  138.3970 C   0  0  0  0  0  2  0  0  0  0  0  0
  189.5440  175.5830  137.4170 C   0  0  0  0  0  2  0  0  0  0  0  0
  191.9850  175.6740  138.3600 C   0  0  0  0  0  2  0  0  0  0  0  0
  188.9350  178.6600  141.4510 N   0  0  0  0  0  2  0  0  0  0  0  0
  189.1750  179.2530  136.6350 F   0  0  0  0  0  0  0  0  0  0  0  0
  190.3750  178.3390  141.5320 C   0  0  1  0  0  3  0  0  0  0  0  0
  186.6330  177.8550  140.8940 C   0  0  2  0  0  3  0  0  0  0  0  0
  189.2950  176.8690  136.6260 C   0  0  0  0  0  2  0  0  0  0  0  0
  192.7260  176.9390  138.7930 C   0  0  0  0  0  2  0  0  0  0  0  0
  183.9670  179.7590  139.5060 O   0  0  0  0  0  0  0  0  0  0  0  0
  189.3640  176.9250  144.9140 C   0  0  2  0  0  3  0  0  0  0  0  0
  188.5820  178.0590  145.1370 O   0  0  0  0  0  1  0  0  0  0  0  0
  191.6580  177.7950  145.1160 C   0  0  0  0  0  3  0  0  0  0  0  0
  190.7470  177.5730  142.8130 C   0  0  1  0  0  3  0  0  0  0  0  0
  190.6720  177.0580  145.6460 C   0  0  0  0  0  0  0  0  0  0  0  0
  191.4230  178.5100  143.8210 C   0  0  0  0  0  2  0  0  0  0  0  0
  189.5820  176.7400  143.4040 C   0  0  1  0  0  3  0  0  0  0  0  0
  189.7880  175.3890  143.1220 O   0  0  0  0  0  1  0  0  0  0  0  0
  190.9000  176.2880  146.9040 C   0  0  0  0  0  2  0  0  0  0  0  0
  191.9690  176.8380  147.6120 O   0  0  0  0  0  1  0  0  0  0  0  0
  184.9310  177.8980  142.5820 O   0  0  0  0  0  1  0  0  0  0  0  0
  186.1630  178.4460  142.2230 C   0  0  0  0  0  2  0  0  0  0  0  0
  1  3  1  1  0  0  0
  1 16  1  0  0  0  0
  2  4  1  0  0  0  0
  2  6  1  0  0  0  0
  4  1  1  0  0  0  0
  5  2  1  0  0  0  0
  6 14  1  0  0  0  0
  7  8  2  0  0  0  0
  8 17  1  0  0  0  0
  9  5  1  0  0  0  0
 10  4  1  0  0  0  0
 11  5  1  0  0  0  0
 11  8  1  0  0  0  0
 12 10  1  0  0  0  0
 13 10  1  0  0  0  0
 13 19  1  0  0  0  0
 14 16  1  0  0  0  0
 15  9  1  0  0  0  0
 16 24  1  0  0  0  0
 17  6  1  0  0  0  0
 17 32  1  0  0  0  0
 18 12  1  0  0  0  0
 18  9  1  0  0  0  0
 19  3  1  0  0  0  0
 20  7  2  0  0  0  0
 21 22  1  0  0  0  0
 21 25  1  0  0  0  0
 23 25  2  0  0  0  0
 24 27  1  0  0  0  0
 24 26  1  0  0  0  0
 25 29  1  0  0  0  0
 26 23  1  0  0  0  0
 27 21  1  0  0  0  0
 28 27  1  0  0  0  0
 29 30  1  0  0  0  0
 32 31  1  0  0  0  0
M  END
>  <MODEL>
3

>  <REMARK>
 VINA RESULT:      -7.4      2.996      7.410
  Name = 
  3 active torsions:
  status: ('A' for Active; 'I' for Inactive)
    1  A    between atoms: C_7  and  C_19
    2  A    between atoms: C_16  and  C_27
    3  A    between atoms: C_28  and  C_32
                            x       y       z     vdW  Elec       q    Type
                         _______ _______ _______ _____ _____    ______ ____

>  <TORSDO>
F 3

$$$$
=
 OpenBabel10262421023D

 32 36  0  0  1  0  0  0  0  0999 V2000
  183.8520  178.4470  138.6370 C   0  0  1  0  0  3  0  0  0  0  0  0
  183.4290  177.5190  140.8740 N   0  0  2  0  0  0  0  0  0  0  0  0
  183.6490  178.2610  137.1440 C   0  0  0  0  0  2  0  0  0  0  0  0
  183.4000  177.2280  139.4360 C   0  0  1  0  0  3  0  0  0  0  0  0
  182.6610  178.7270  141.2530 C   0  0  1  0  0  3  0  0  0  0  0  0
  184.8370  177.7560  141.2320 C   0  0  1  0  0  3  0  0  0  0  0  0
  184.0290  179.1510  144.6230 C   0  0  0  0  0  0  0  0  0  0  0  0
  183.9290  178.7820  143.3740 C   0  0  0  0  0  0  0  0  0  0  0  0
  181.3240  178.9260  140.5150 C   0  0  2  0  0  3  0  0  0  0  0  0
  182.0830  176.5770  138.9750 C   0  0  1  0  0  3  0  0  0  0  0  0
  182.5550  178.8180  142.7690 C   0  0  0  0  0  2  0  0  0  0  0  0
  180.9710  176.4240  140.0180 C   0  0  0  0  0  2  0  0  0  0  0  0
  181.6530  176.7720  137.5150 C   0  0  0  0  0  2  0  0  0  0  0  0
  185.3860  178.9430  140.5370 N   0  0  0  0  0  2  0  0  0  0  0  0
  180.6780  180.0620  140.9670 F   0  0  0  0  0  0  0  0  0  0  0  0
  185.2750  178.8300  139.0680 C   0  0  1  0  0  3  0  0  0  0  0  0
  184.9830  177.8720  142.7620 C   0  0  2  0  0  3  0  0  0  0  0  0
  180.3700  177.7350  140.5320 C   0  0  0  0  0  2  0  0  0  0  0  0
  182.1550  178.0800  136.9020 C   0  0  0  0  0  2  0  0  0  0  0  0
  184.1240  179.4990  145.8070 O   0  0  0  0  0  0  0  0  0  0  0  0
  188.9180  178.5180  138.0210 C   0  0  2  0  0  3  0  0  0  0  0  0
  188.8960  179.8500  137.6060 O   0  0  0  0  0  1  0  0  0  0  0  0
  187.5450  177.3930  136.3160 C   0  0  0  0  0  3  0  0  0  0  0  0
  186.4080  177.9960  138.4440 C   0  0  1  0  0  3  0  0  0  0  0  0
  188.7620  177.6120  136.8300 C   0  0  0  0  0  0  0  0  0  0  0  0
  186.3610  178.0900  136.9140 C   0  0  0  0  0  2  0  0  0  0  0  0
  187.8040  178.2830  139.0540 C   0  0  1  0  0  3  0  0  0  0  0  0
  188.1630  177.2340  139.9020 O   0  0  0  0  0  1  0  0  0  0  0  0
  189.9500  176.8850  136.2910 C   0  0  0  0  0  2  0  0  0  0  0  0
  190.9370  176.7920  137.2720 O   0  0  0  0  0  1  0  0  0  0  0  0
  187.2070  177.1000  143.2150 O   0  0  0  0  0  1  0  0  0  0  0  0
  186.4160  178.2470  143.1410 C   0  0  0  0  0  2  0  0  0  0  0  0
  1  3  1  6  0  0  0
  1 16  1  0  0  0  0
  1  4  1  0  0  0  0
  2  6  1  0  0  0  0
  2  5  1  0  0  0  0
  4  2  1  0  0  0  0
  5 11  1  0  0  0  0
  6 17  1  0  0  0  0
  7 20  2  0  0  0  0
  8  7  2  0  0  0  0
  9 18  1  0  0  0  0
  9 15  1  0  0  0  0
  9  5  1  0  0  0  0
 10  4  1  0  0  0  0
 10 12  1  0  0  0  0
 11  8  1  0  0  0  0
 12 18  1  0  0  0  0
 13 10  1  0  0  0  0
 14  6  1  0  0  0  0
 16 14  1  0  0  0  0
 17 32  1  0  0  0  0
 17  8  1  0  0  0  0
 19  3  1  0  0  0  0
 19 13  1  0  0  0  0
 21 27  1  0  0  0  0
 22 21  1  0  0  0  0
 23 25  2  0  0  0  0
 23 26  1  0  0  0  0
 24 27  1  0  0  0  0
 24 16  1  0  0  0  0
 25 21  1  0  0  0  0
 26 24  1  0  0  0  0
 27 28  1  0  0  0  0
 29 25  1  0  0  0  0
 29 30  1  0  0  0  0
 32 31  1  0  0  0  0
M  END
>  <MODEL>
4

>  <REMARK>
 VINA RESULT:      -7.2      3.528      7.151
  Name = 
  3 active torsions:
  status: ('A' for Active; 'I' for Inactive)
    1  A    between atoms: C_7  and  C_19
    2  A    between atoms: C_16  and  C_27
    3  A    between atoms: C_28  and  C_32
                            x       y       z     vdW  Elec       q    Type
                         _______ _______ _______ _____ _____    ______ ____

>  <TORSDO>
F 3

$$$$
=
 OpenBabel10262421023D

 32 36  0  0  1  0  0  0  0  0999 V2000
  185.9270  178.8290  143.4730 C   0  0  1  0  0  3  0  0  0  0  0  0
  187.2660  177.5680  141.8420 N   0  0  2  0  0  0  0  0  0  0  0  0
  185.3280  178.8320  144.8690 C   0  0  0  0  0  2  0  0  0  0  0  0
  186.5290  177.4760  143.1070 C   0  0  1  0  0  3  0  0  0  0  0  0
  188.2920  178.6370  141.8260 C   0  0  1  0  0  3  0  0  0  0  0  0
  186.2780  177.8830  140.7970 C   0  0  1  0  0  3  0  0  0  0  0  0
  188.8690  178.7200  138.2110 C   0  0  0  0  0  0  0  0  0  0  0  0
  188.2760  178.5180  139.3570 C   0  0  0  0  0  0  0  0  0  0  0  0
  189.0940  178.8100  143.1290 C   0  0  2  0  0  3  0  0  0  0  0  0
  187.3270  176.7750  144.2240 C   0  0  1  0  0  3  0  0  0  0  0  0
  189.1520  178.5090  140.5770 C   0  0  0  0  0  2  0  0  0  0  0  0
  188.7740  176.3780  143.9120 C   0  0  0  0  0  2  0  0  0  0  0  0
  186.9940  177.1280  145.6790 C   0  0  0  0  0  2  0  0  0  0  0  0
  185.6400  179.2000  141.0260 N   0  0  0  0  0  2  0  0  0  0  0  0
  190.0410  179.8090  142.9930 F   0  0  0  0  0  0  0  0  0  0  0  0
  184.9850  179.2800  142.3480 C   0  0  1  0  0  3  0  0  0  0  0  0
  186.9350  177.8020  139.4040 C   0  0  2  0  0  3  0  0  0  0  0  0
  189.7380  177.5440  143.6880 C   0  0  0  0  0  2  0  0  0  0  0  0
  186.4550  178.5480  145.8540 C   0  0  0  0  0  2  0  0  0  0  0  0
  189.4300  178.9100  137.1250 O   0  0  0  0  0  0  0  0  0  0  0  0
  181.5160  178.9770  140.8190 C   0  0  2  0  0  3  0  0  0  0  0  0
  181.5190  180.3510  140.5780 O   0  0  0  0  0  1  0  0  0  0  0  0
  181.2750  178.8540  143.2660 C   0  0  0  0  0  3  0  0  0  0  0  0
  183.5820  178.6490  142.3600 C   0  0  1  0  0  3  0  0  0  0  0  0
  180.7170  178.6810  142.0600 C   0  0  0  0  0  0  0  0  0  0  0  0
  182.6750  179.3790  143.3580 C   0  0  0  0  0  2  0  0  0  0  0  0
  182.9620  178.4740  140.9500 C   0  0  1  0  0  3  0  0  0  0  0  0
  183.0280  177.1310  140.5780 O   0  0  0  0  0  1  0  0  0  0  0  0
  179.3470  178.1030  141.9400 C   0  0  0  0  0  2  0  0  0  0  0  0
  179.4260  176.7280  141.7190 O   0  0  0  0  0  1  0  0  0  0  0  0
  185.5700  177.1610  137.5410 O   0  0  0  0  0  1  0  0  0  0  0  0
  185.9570  178.2530  138.3190 C   0  0  0  0  0  2  0  0  0  0  0  0
  1  3  1  1  0  0  0
  2  4  1  0  0  0  0
  3 19  1  0  0  0  0
  4  1  1  0  0  0  0
  4 10  1  0  0  0  0
  5  2  1  0  0  0  0
  5  9  1  0  0  0  0
  6 14  1  0  0  0  0
  6  2  1  0  0  0  0
  7  8  2  0  0  0  0
  8 17  1  0  0  0  0
  8 11  1  0  0  0  0
  9 18  1  0  0  0  0
 10 13  1  0  0  0  0
 11  5  1  0  0  0  0
 12 10  1  0  0  0  0
 13 19  1  0  0  0  0
 14 16  1  0  0  0  0
 15  9  1  0  0  0  0
 16 24  1  0  0  0  0
 16  1  1  0  0  0  0
 17  6  1  0  0  0  0
 18 12  1  0  0  0  0
 20  7  2  0  0  0  0
 21 27  1  0  0  0  0
 21 25  1  0  0  0  0
 22 21  1  0  0  0  0
 23 26  1  0  0  0  0
 24 26  1  0  0  0  0
 25 23  2  0  0  0  0
 27 24  1  0  0  0  0
 28 27  1  0  0  0  0
 29 25  1  0  0  0  0
 30 29  1  0  0  0  0
 31 32  1  0  0  0  0
 32 17  1  0  0  0  0
M  END
>  <MODEL>
5

>  <REMARK>
 VINA RESULT:      -6.9      2.213      3.040
  Name = 
  3 active torsions:
  status: ('A' for Active; 'I' for Inactive)
    1  A    between atoms: C_7  and  C_19
    2  A    between atoms: C_16  and  C_27
    3  A    between atoms: C_28  and  C_32
                            x       y       z     vdW  Elec       q    Type
                         _______ _______ _______ _____ _____    ______ ____

>  <TORSDO>
F 3

$$$$
=
 OpenBabel10262421023D

 32 36  0  0  1  0  0  0  0  0999 V2000
  185.2560  179.1630  140.8490 C   0  0  1  0  0  3  0  0  0  0  0  0
  185.0820  177.8020  142.8890 N   0  0  2  0  0  0  0  0  0  0  0  0
  184.6400  179.4790  139.4970 C   0  0  0  0  0  2  0  0  0  0  0  0
  184.5990  177.9550  141.5120 C   0  0  1  0  0  3  0  0  0  0  0  0
  184.9250  179.0210  143.7150 C   0  0  1  0  0  3  0  0  0  0  0  0
  186.5210  177.5030  142.8040 C   0  0  1  0  0  3  0  0  0  0  0  0
  187.1320  178.0450  146.4690 C   0  0  0  0  0  0  0  0  0  0  0  0
  186.6030  178.0950  145.2760 C   0  0  0  0  0  0  0  0  0  0  0  0
  183.6170  179.8050  143.5040 C   0  0  2  0  0  3  0  0  0  0  0  0
  183.0650  177.8790  141.3950 C   0  0  1  0  0  3  0  0  0  0  0  0
  185.2330  178.7030  145.1710 C   0  0  0  0  0  2  0  0  0  0  0  0
  182.2650  177.7670  142.6970 C   0  0  0  0  0  2  0  0  0  0  0  0
  182.3950  178.5990  140.2180 C   0  0  0  0  0  2  0  0  0  0  0  0
  187.2780  178.6230  142.2000 N   0  0  0  0  0  2  0  0  0  0  0  0
  183.5610  180.9020  144.3440 F   0  0  0  0  0  0  0  0  0  0  0  0
  186.7780  178.9720  140.8540 C   0  0  1  0  0  3  0  0  0  0  0  0
  187.0680  177.1290  144.1960 C   0  0  2  0  0  3  0  0  0  0  0  0
  182.3290  178.9930  143.6110 C   0  0  0  0  0  2  0  0  0  0  0  0
  183.1730  179.8210  139.7280 C   0  0  0  0  0  2  0  0  0  0  0  0
  187.6330  177.9980  147.5990 O   0  0  0  0  0  0  0  0  0  0  0  0
  189.2320  178.4030  138.0040 C   0  0  2  0  0  3  0  0  0  0  0  0
  189.0550  179.7290  137.6080 O   0  0  0  0  0  1  0  0  0  0  0  0
  187.0930  177.3580  137.3770 C   0  0  0  0  0  3  0  0  0  0  0  0
  187.3400  178.0580  139.7510 C   0  0  1  0  0  3  0  0  0  0  0  0
  188.4030  177.4980  137.1330 C   0  0  0  0  0  0  0  0  0  0  0  0
  186.4680  178.1390  138.4920 C   0  0  0  0  0  2  0  0  0  0  0  0
  188.8550  178.2550  139.4870 C   0  0  1  0  0  3  0  0  0  0  0  0
  189.5650  177.1930  140.0480 O   0  0  0  0  0  1  0  0  0  0  0  0
  189.0620  176.6870  136.0670 C   0  0  0  0  0  2  0  0  0  0  0  0
  190.0720  175.9010  136.6220 O   0  0  0  0  0  1  0  0  0  0  0  0
  188.9170  175.9580  143.2190 O   0  0  0  0  0  1  0  0  0  0  0  0
  188.5850  176.9440  144.1480 C   0  0  0  0  0  2  0  0  0  0  0  0
  1  3  1  6  0  0  0
  1 16  1  0  0  0  0
  1  4  1  0  0  0  0
  2  5  1  0  0  0  0
  3 19  1  0  0  0  0
  4  2  1  0  0  0  0
  5 11  1  0  0  0  0
  6  2  1  0  0  0  0
  6 17  1  0  0  0  0
  7 20  2  0  0  0  0
  8  7  2  0  0  0  0
  9 18  1  0  0  0  0
  9  5  1  0  0  0  0
  9 15  1  0  0  0  0
 10  4  1  0  0  0  0
 10 12  1  0  0  0  0
 11  8  1  0  0  0  0
 12 18  1  0  0  0  0
 13 10  1  0  0  0  0
 14  6  1  0  0  0  0
 16 14  1  0  0  0  0
 17  8  1  0  0  0  0
 19 13  1  0  0  0  0
 21 27  1  0  0  0  0
 22 21  1  0  0  0  0
 23 26  1  0  0  0  0
 24 16  1  0  0  0  0
 25 23  2  0  0  0  0
 25 21  1  0  0  0  0
 26 24  1  0  0  0  0
 27 24  1  0  0  0  0
 27 28  1  0  0  0  0
 29 30  1  0  0  0  0
 29 25  1  0  0  0  0
 31 32  1  0  0  0  0
 32 17  1  0  0  0  0
M  END
>  <MODEL>
6

>  <REMARK>
 VINA RESULT:      -6.8      2.960      5.664
  Name = 
  3 active torsions:
  status: ('A' for Active; 'I' for Inactive)
    1  A    between atoms: C_7  and  C_19
    2  A    between atoms: C_16  and  C_27
    3  A    between atoms: C_28  and  C_32
                            x       y       z     vdW  Elec       q    Type
                         _______ _______ _______ _____ _____    ______ ____

>  <TORSDO>
F 3

$$$$
=
 OpenBabel10262421023D

 32 36  0  0  1  0  0  0  0  0999 V2000
  181.9230  178.6170  140.6010 C   0  0  1  0  0  3  0  0  0  0  0  0
  183.2770  179.2520  138.6500 N   0  0  2  0  0  0  0  0  0  0  0  0
  180.8130  179.0390  141.5480 C   0  0  0  0  0  2  0  0  0  0  0  0
  182.3510  179.7500  139.6730 C   0  0  1  0  0  3  0  0  0  0  0  0
  182.7550  178.0960  137.8850 C   0  0  1  0  0  3  0  0  0  0  0  0
  184.4910  178.8080  139.3560 C   0  0  1  0  0  3  0  0  0  0  0  0
  185.9140  177.0360  136.3680 C   0  0  0  0  0  0  0  0  0  0  0  0
  185.0760  177.5900  137.2020 C   0  0  0  0  0  0  0  0  0  0  0  0
  181.2610  178.1590  137.5190 C   0  0  2  0  0  3  0  0  0  0  0  0
  181.2090  180.6060  139.0920 C   0  0  1  0  0  3  0  0  0  0  0  0
  183.6730  177.7980  136.7080 C   0  0  0  0  0  2  0  0  0  0  0  0
  181.1290  180.7310  137.5670 C   0  0  0  0  0  2  0  0  0  0  0  0
  179.8900  180.6750  139.8720 C   0  0  0  0  0  2  0  0  0  0  0  0
  184.2080  177.6800  140.2740 N   0  0  0  0  0  2  0  0  0  0  0  0
  180.8890  177.0500  136.7820 F   0  0  0  0  0  0  0  0  0  0  0  0
  183.1690  178.0170  141.2680 C   0  0  1  0  0  3  0  0  0  0  0  0
  185.5960  178.4550  138.3410 C   0  0  2  0  0  3  0  0  0  0  0  0
  180.8000  179.4360  136.8210 C   0  0  0  0  0  2  0  0  0  0  0  0
  179.6050  179.4210  140.7010 C   0  0  0  0  0  2  0  0  0  0  0  0
  186.7090  176.5110  135.5780 O   0  0  0  0  0  0  0  0  0  0  0  0
  185.8580  178.4780  143.9180 C   0  0  2  0  0  3  0  0  0  0  0  0
  185.9410  177.0920  144.0520 O   0  0  0  0  0  1  0  0  0  0  0  0
  183.6840  178.9970  144.9510 C   0  0  0  0  0  3  0  0  0  0  0  0
  183.7230  178.7980  142.4720 C   0  0  1  0  0  3  0  0  0  0  0  0
  185.0200  179.0480  145.0310 C   0  0  0  0  0  0  0  0  0  0  0  0
  183.0450  178.3350  143.7680 C   0  0  0  0  0  2  0  0  0  0  0  0
  185.2710  178.8270  142.5410 C   0  0  1  0  0  3  0  0  0  0  0  0
  185.7290  180.0820  142.1390 O   0  0  0  0  0  1  0  0  0  0  0  0
  185.6810  179.7530  146.1690 C   0  0  0  0  0  2  0  0  0  0  0  0
  185.5210  179.0170  147.3430 O   0  0  0  0  0  1  0  0  0  0  0  0
  187.9490  178.6280  138.7610 O   0  0  0  0  0  1  0  0  0  0  0  0
  186.8150  177.8690  139.0520 C   0  0  0  0  0  2  0  0  0  0  0  0
  1 16  1  0  0  0  0
  1  3  1  1  0  0  0
  2  6  1  0  0  0  0
  2  4  1  0  0  0  0
  4  1  1  0  0  0  0
  5  2  1  0  0  0  0
  6 14  1  0  0  0  0
  7  8  2  0  0  0  0
  8 17  1  0  0  0  0
  9  5  1  0  0  0  0
 10  4  1  0  0  0  0
 10 13  1  0  0  0  0
 11  8  1  0  0  0  0
 11  5  1  0  0  0  0
 12 10  1  0  0  0  0
 13 19  1  0  0  0  0
 14 16  1  0  0  0  0
 15  9  1  0  0  0  0
 16 24  1  0  0  0  0
 17 32  1  0  0  0  0
 17  6  1  0  0  0  0
 18  9  1  0  0  0  0
 18 12  1  0  0  0  0
 19  3  1  0  0  0  0
 20  7  2  0  0  0  0
 21 22  1  0  0  0  0
 21 25  1  0  0  0  0
 23 25  2  0  0  0  0
 24 27  1  0  0  0  0
 24 26  1  0  0  0  0
 25 29  1  0  0  0  0
 26 23  1  0  0  0  0
 27 21  1  0  0  0  0
 28 27  1  0  0  0  0
 29 30  1  0  0  0  0
 31 32  1  0  0  0  0
M  END
>  <MODEL>
7

>  <REMARK>
 VINA RESULT:      -6.8      4.040      7.459
  Name = 
  3 active torsions:
  status: ('A' for Active; 'I' for Inactive)
    1  A    between atoms: C_7  and  C_19
    2  A    between atoms: C_16  and  C_27
    3  A    between atoms: C_28  and  C_32
                            x       y       z     vdW  Elec       q    Type
                         _______ _______ _______ _____ _____    ______ ____

>  <TORSDO>
F 3

$$$$
=
 OpenBabel10262421023D

 32 36  0  0  1  0  0  0  0  0999 V2000
  189.6540  177.3810  138.4680 C   0  0  1  0  0  3  0  0  0  0  0  0
  187.2150  177.0810  138.3920 N   0  0  2  0  0  0  0  0  0  0  0  0
  191.0050  176.7390  138.2060 C   0  0  0  0  0  2  0  0  0  0  0  0
  188.5060  176.3860  138.3260 C   0  0  1  0  0  3  0  0  0  0  0  0
  187.0870  178.1940  137.4230 C   0  0  1  0  0  3  0  0  0  0  0  0
  187.1090  177.6530  139.7450 C   0  0  1  0  0  3  0  0  0  0  0  0
  184.1510  179.8070  138.9010 C   0  0  0  0  0  0  0  0  0  0  0  0
  185.2320  179.0810  138.7940 C   0  0  0  0  0  0  0  0  0  0  0  0
  187.6840  177.9350  136.0280 C   0  0  2  0  0  3  0  0  0  0  0  0
  188.6090  175.4100  137.1390 C   0  0  1  0  0  3  0  0  0  0  0  0
  185.6530  178.7000  137.4030 C   0  0  0  0  0  2  0  0  0  0  0  0
  187.4360  175.3740  136.1530 C   0  0  0  0  0  2  0  0  0  0  0  0
  190.0040  175.0970  136.5820 C   0  0  0  0  0  2  0  0  0  0  0  0
  188.1620  178.6650  139.9950 N   0  0  0  0  0  2  0  0  0  0  0  0
  187.4820  179.0220  135.1980 F   0  0  0  0  0  0  0  0  0  0  0  0
  189.5200  178.1140  139.8100 C   0  0  1  0  0  3  0  0  0  0  0  0
  185.6970  178.2310  139.9670 C   0  0  2  0  0  3  0  0  0  0  0  0
  187.2280  176.6520  135.3370 C   0  0  0  0  0  2  0  0  0  0  0  0
  191.0050  176.2380  136.7660 C   0  0  0  0  0  2  0  0  0  0  0  0
  183.1270  180.4940  139.0040 O   0  0  0  0  0  0  0  0  0  0  0  0
  190.0170  177.9260  143.5760 C   0  0  2  0  0  3  0  0  0  0  0  0
  190.3210  179.2870  143.5880 O   0  0  0  0  0  1  0  0  0  0  0  0
  191.9980  176.9330  142.5040 C   0  0  0  0  0  3  0  0  0  0  0  0
  190.0280  177.3470  141.0440 C   0  0  1  0  0  3  0  0  0  0  0  0
  191.2870  177.1200  143.6240 C   0  0  0  0  0  0  0  0  0  0  0  0
  191.5350  177.5670  141.2270 C   0  0  0  0  0  2  0  0  0  0  0  0
  189.1900  177.5950  142.3230 C   0  0  1  0  0  3  0  0  0  0  0  0
  188.3840  176.4830  142.5730 O   0  0  0  0  0  1  0  0  0  0  0  0
  191.6940  176.4530  144.8950 C   0  0  0  0  0  2  0  0  0  0  0  0
  191.7530  177.3890  145.9280 O   0  0  0  0  0  1  0  0  0  0  0  0
  185.3500  178.0200  142.3290 O   0  0  0  0  0  1  0  0  0  0  0  0
  185.6120  178.9430  141.3170 C   0  0  0  0  0  2  0  0  0  0  0  0
  1  3  1  1  0  0  0
  1 16  1  0  0  0  0
  2  6  1  0  0  0  0
  4  2  1  0  0  0  0
  4  1  1  0  0  0  0
  5  2  1  0  0  0  0
  6 17  1  0  0  0  0
  6 14  1  0  0  0  0
  7 20  2  0  0  0  0
  8  7  2  0  0  0  0
  8 17  1  0  0  0  0
  9  5  1  0  0  0  0
 10  4  1  0  0  0  0
 11  5  1  0  0  0  0
 11  8  1  0  0  0  0
 12 10  1  0  0  0  0
 13 19  1  0  0  0  0
 13 10  1  0  0  0  0
 15  9  1  0  0  0  0
 16 14  1  0  0  0  0
 16 24  1  0  0  0  0
 17 32  1  0  0  0  0
 18  9  1  0  0  0  0
 18 12  1  0  0  0  0
 19  3  1  0  0  0  0
 21 22  1  0  0  0  0
 21 25  1  0  0  0  0
 23 25  2  0  0  0  0
 24 26  1  0  0  0  0
 24 27  1  0  0  0  0
 25 29  1  0  0  0  0
 26 23  1  0  0  0  0
 27 28  1  0  0  0  0
 27 21  1  0  0  0  0
 29 30  1  0  0  0  0
 32 31  1  0  0  0  0
M  END
>  <MODEL>
8

>  <REMARK>
 VINA RESULT:      -6.8      3.158      7.711
  Name = 
  3 active torsions:
  status: ('A' for Active; 'I' for Inactive)
    1  A    between atoms: C_7  and  C_19
    2  A    between atoms: C_16  and  C_27
    3  A    between atoms: C_28  and  C_32
                            x       y       z     vdW  Elec       q    Type
                         _______ _______ _______ _____ _____    ______ ____

>  <TORSDO>
F 3

$$$$
=
 OpenBabel10262421023D

 32 36  0  0  1  0  0  0  0  0999 V2000
  188.5010  177.9740  140.8980 C   0  0  1  0  0  3  0  0  0  0  0  0
  190.2960  176.3730  140.3900 N   0  0  2  0  0  0  0  0  0  0  0  0
  187.3140  178.2840  141.7950 C   0  0  0  0  0  2  0  0  0  0  0  0
  189.0400  176.5640  141.1250 C   0  0  1  0  0  3  0  0  0  0  0  0
  191.3230  177.3970  140.6870 C   0  0  1  0  0  3  0  0  0  0  0  0
  189.9700  176.4710  138.9570 C   0  0  1  0  0  3  0  0  0  0  0  0
  193.5570  176.6960  137.8730 C   0  0  0  0  0  0  0  0  0  0  0  0
  192.4710  176.7540  138.5950 C   0  0  0  0  0  0  0  0  0  0  0  0
  191.4220  177.8340  142.1610 C   0  0  2  0  0  3  0  0  0  0  0  0
  189.1210  176.1060  142.5930 C   0  0  1  0  0  3  0  0  0  0  0  0
  192.6520  176.9930  140.0670 C   0  0  0  0  0  2  0  0  0  0  0  0
  190.4840  175.6300  143.1080 C   0  0  0  0  0  2  0  0  0  0  0  0
  188.1800  176.7670  143.6080 C   0  0  0  0  0  2  0  0  0  0  0  0
  189.4590  177.8160  138.6040 N   0  0  0  0  0  2  0  0  0  0  0  0
  192.4290  178.7660  142.3300 F   0  0  0  0  0  0  0  0  0  0  0  0
  188.2690  178.1870  139.3960 C   0  0  1  0  0  3  0  0  0  0  0  0
  191.1950  176.0840  138.1070 C   0  0  2  0  0  3  0  0  0  0  0  0
  191.5690  176.7070  143.1800 C   0  0  0  0  0  2  0  0  0  0  0  0
  187.7940  178.2010  143.2390 C   0  0  0  0  0  2  0  0  0  0  0  0
  194.5860  176.6410  137.1870 O   0  0  0  0  0  0  0  0  0  0  0  0
  186.0820  177.3400  136.4020 C   0  0  2  0  0  3  0  0  0  0  0  0
  186.4690  178.5380  135.8000 O   0  0  0  0  0  1  0  0  0  0  0  0
  184.6070  178.0960  138.2220 C   0  0  0  0  0  3  0  0  0  0  0  0
  186.9650  177.5940  138.8320 C   0  0  1  0  0  3  0  0  0  0  0  0
  184.7230  177.5020  137.0270 C   0  0  0  0  0  0  0  0  0  0  0  0
  185.8350  178.6280  138.8980 C   0  0  0  0  0  2  0  0  0  0  0  0
  187.1330  176.9250  137.4440 C   0  0  1  0  0  3  0  0  0  0  0  0
  187.1220  175.5370  137.5940 O   0  0  0  0  0  1  0  0  0  0  0  0
  183.5250  176.9110  136.3610 C   0  0  0  0  0  2  0  0  0  0  0  0
  183.6820  176.9520  134.9750 O   0  0  0  0  0  1  0  0  0  0  0  0
  191.1380  175.1280  135.9090 O   0  0  0  0  0  1  0  0  0  0  0  0
  190.9130  176.3070  136.6210 C   0  0  0  0  0  2  0  0  0  0  0  0
  1  4  1  0  0  0  0
  1  3  1  1  0  0  0
  2  5  1  0  0  0  0
  2  4  1  0  0  0  0
  3 19  1  0  0  0  0
  4 10  1  0  0  0  0
  5  9  1  0  0  0  0
  6  2  1  0  0  0  0
  7  8  2  0  0  0  0
  8 11  1  0  0  0  0
  9 15  1  0  0  0  0
  9 18  1  0  0  0  0
 10 12  1  0  0  0  0
 10 13  1  0  0  0  0
 11  5  1  0  0  0  0
 12 18  1  0  0  0  0
 14  6  1  0  0  0  0
 14 16  1  0  0  0  0
 16  1  1  0  0  0  0
 17  8  1  0  0  0  0
 17  6  1  0  0  0  0
 19 13  1  0  0  0  0
 20  7  2  0  0  0  0
 21 25  1  0  0  0  0
 21 27  1  0  0  0  0
 22 21  1  0  0  0  0
 23 26  1  0  0  0  0
 24 26  1  0  0  0  0
 24 16  1  0  0  0  0
 25 23  2  0  0  0  0
 27 28  1  0  0  0  0
 27 24  1  0  0  0  0
 29 25  1  0  0  0  0
 30 29  1  0  0  0  0
 31 32  1  0  0  0  0
 32 17  1  0  0  0  0
M  END
>  <MODEL>
9

>  <REMARK>
 VINA RESULT:      -6.5      2.104      2.735
  Name = 
  3 active torsions:
  status: ('A' for Active; 'I' for Inactive)
    1  A    between atoms: C_7  and  C_19
    2  A    between atoms: C_16  and  C_27
    3  A    between atoms: C_28  and  C_32
                            x       y       z     vdW  Elec       q    Type
                         _______ _______ _______ _____ _____    ______ ____

>  <TORSDO>
F 3

$$$$
