=
 OpenBabel10262420133D

 27 31  0  0  1  0  0  0  0  0999 V2000
  184.7100  178.4430  137.9750 C   0  0  0  0  0  2  0  0  0  0  0  0
  184.0260  176.2260  137.3800 C   0  0  1  0  0  3  0  0  0  0  0  0
  185.7620  176.9950  135.6680 C   0  0  0  0  0  2  0  0  0  0  0  0
  182.0790  174.9610  137.3930 C   0  0  1  0  0  3  0  0  0  0  0  0
  183.4150  175.0430  137.8550 O   0  0  0  0  0  0  0  0  0  0  0  0
  182.3440  178.5650  141.0790 C   0  0  0  0  0  2  0  0  0  0  0  0
  183.2700  177.1920  139.4350 C   0  0  1  0  0  3  0  0  0  0  0  0
  189.0380  178.1990  137.3870 C   0  0  0  0  0  2  0  0  0  0  0  0
  182.0670  177.9870  138.9180 C   0  0  2  0  0  3  0  0  0  0  0  0
  188.4170  178.0880  138.7370 C   0  0  0  0  0  0  0  0  0  0  0  0
  184.4010  177.1080  138.4980 N   0  0  2  0  0  0  0  0  0  0  0  0
  181.0370  175.6590  138.2810 C   0  0  2  0  0  3  0  0  0  0  0  0
  186.2020  178.6000  137.7050 C   0  0  1  0  0  3  0  0  0  0  0  0
  185.2450  175.8360  136.5300 C   0  0  1  0  0  3  0  0  0  0  0  0
  188.1530  177.4590  136.3880 C   0  0  0  0  0  2  0  0  0  0  0  0
  181.8780  175.1730  135.8920 C   0  0  0  0  0  1  0  0  0  0  0  0
  189.1310  177.8930  139.7540 O   0  0  0  0  0  0  0  0  0  0  0  0
  181.5270  178.6040  140.0930 N   0  0  0  0  0  2  0  0  0  0  0  0
  187.0010  178.1990  138.8590 N   0  0  0  0  0  2  0  0  0  0  0  0
  181.0040  177.1900  138.1510 C   0  0  0  0  0  2  0  0  0  0  0  0
  186.7050  177.9820  136.3720 C   0  0  1  0  0  3  0  0  0  0  0  0
  183.6210  177.8690  140.7510 C   0  0  0  0  0  2  0  0  0  0  0  0
  185.9420  173.7750  137.5280 O   0  0  0  0  0  0  0  0  0  0  0  0
  186.8980  174.0050  136.5230 C   0  0  0  0  0  2  0  0  0  0  0  0
  186.3300  175.1120  137.3240 C   0  0  1  0  0  3  0  0  0  0  0  0
  179.8140  175.2040  140.0700 C   0  0  0  0  0  1  0  0  0  0  0  0
  181.1320  175.2450  139.6130 O   0  0  0  0  0  0  0  0  0  0  0  0
  2  5  1  1  0  0  0
  2 11  1  0  0  0  0
  4 16  1  6  0  0  0
  4  5  1  0  0  0  0
  4 12  1  0  0  0  0
  7 22  1  1  0  0  0
  8 10  1  0  0  0  0
  9 20  1  1  0  0  0
  9  7  1  0  0  0  0
  9 18  1  0  0  0  0
 10 19  1  0  0  0  0
 10 17  2  0  0  0  0
 11  1  1  6  0  0  0
 11  7  1  0  0  0  0
 12 27  1  1  0  0  0
 13  1  1  1  0  0  0
 13 19  1  0  0  0  0
 14  3  1  1  0  0  0
 14 25  1  0  0  0  0
 14  2  1  0  0  0  0
 15  8  1  0  0  0  0
 18  6  1  0  0  0  0
 20 12  1  0  0  0  0
 21  3  1  1  0  0  0
 21 15  1  0  0  0  0
 21 13  1  0  0  0  0
 22  6  1  0  0  0  0
 24 23  1  0  0  0  0
 25 24  1  6  0  0  0
 25 23  1  0  0  0  0
 27 26  1  0  0  0  0
M  END
>  <MODEL>
1

>  <REMARK>
 VINA RESULT:      -4.8      0.000      0.000
  Name = 
  2 active torsions:
  status: ('A' for Active; 'I' for Inactive)
    1  A    between atoms: C_14  and  C_19
    2  A    between atoms: O_16  and  C_17
                            x       y       z     vdW  Elec       q    Type
                         _______ _______ _______ _____ _____    ______ ____

>  <TORSDO>
F 2

$$$$
=
 OpenBabel10262420133D

 27 31  0  0  1  0  0  0  0  0999 V2000
  189.3220  178.6520  143.6060 C   0  0  0  0  0  2  0  0  0  0  0  0
  190.4130  177.0240  142.2300 C   0  0  1  0  0  3  0  0  0  0  0  0
  192.0200  177.6600  144.1130 C   0  0  0  0  0  2  0  0  0  0  0  0
  190.5460  176.4840  139.9750 C   0  0  1  0  0  3  0  0  0  0  0  0
  190.2110  176.0090  141.2670 O   0  0  0  0  0  0  0  0  0  0  0  0
  186.0800  178.6280  141.4280 C   0  0  0  0  0  2  0  0  0  0  0  0
  188.1110  177.5570  141.8430 C   0  0  1  0  0  3  0  0  0  0  0  0
  190.3720  177.2390  147.6110 C   0  0  0  0  0  2  0  0  0  0  0  0
  188.2800  178.8000  140.9660 C   0  0  2  0  0  3  0  0  0  0  0  0
  189.0460  176.9520  146.9950 C   0  0  0  0  0  0  0  0  0  0  0  0
  189.1430  177.3900  142.8800 N   0  0  2  0  0  0  0  0  0  0  0  0
  189.4070  177.1930  139.2240 C   0  0  2  0  0  3  0  0  0  0  0  0
  189.6850  178.4020  145.0660 C   0  0  1  0  0  3  0  0  0  0  0  0
  191.4500  176.5280  143.2480 C   0  0  1  0  0  3  0  0  0  0  0  0
  191.4400  177.1280  146.5270 C   0  0  0  0  0  2  0  0  0  0  0  0
  191.9100  177.1620  139.8470 C   0  0  0  0  0  1  0  0  0  0  0  0
  188.1910  176.2650  147.6110 O   0  0  0  0  0  0  0  0  0  0  0  0
  186.9360  179.1980  140.6650 N   0  0  0  0  0  2  0  0  0  0  0  0
  188.7610  177.4620  145.6950 N   0  0  0  0  0  2  0  0  0  0  0  0
  189.1230  178.6280  139.6950 C   0  0  0  0  0  2  0  0  0  0  0  0
  191.1760  178.0610  145.3310 C   0  0  1  0  0  3  0  0  0  0  0  0
  186.7040  177.6890  142.4050 C   0  0  0  0  0  2  0  0  0  0  0  0
  191.3050  174.1400  143.3220 O   0  0  0  0  0  0  0  0  0  0  0  0
  192.1450  174.4610  144.4030 C   0  0  0  0  0  2  0  0  0  0  0  0
  190.9860  175.3070  144.0400 C   0  0  1  0  0  3  0  0  0  0  0  0
  187.6870  176.6660  137.9330 C   0  0  0  0  0  1  0  0  0  0  0  0
  188.2480  176.4120  139.1860 O   0  0  0  0  0  0  0  0  0  0  0  0
  2  5  1  6  0  0  0
  2 11  1  0  0  0  0
  2 14  1  0  0  0  0
  4 16  1  1  0  0  0
  4  5  1  0  0  0  0
  6 22  1  0  0  0  0
  7 22  1  1  0  0  0
  7 11  1  0  0  0  0
  9 20  1  6  0  0  0
  9  7  1  0  0  0  0
 10 17  2  0  0  0  0
 10  8  1  0  0  0  0
 11  1  1  6  0  0  0
 12 27  1  1  0  0  0
 12 20  1  0  0  0  0
 12  4  1  0  0  0  0
 13  1  1  6  0  0  0
 13 21  1  0  0  0  0
 13 19  1  0  0  0  0
 14 25  1  0  0  0  0
 14  3  1  1  0  0  0
 15  8  1  0  0  0  0
 18  9  1  0  0  0  0
 18  6  1  0  0  0  0
 19 10  1  0  0  0  0
 21  3  1  6  0  0  0
 21 15  1  0  0  0  0
 23 25  1  0  0  0  0
 23 24  1  0  0  0  0
 25 24  1  1  0  0  0
 26 27  1  0  0  0  0
M  END
>  <MODEL>
2

>  <REMARK>
 VINA RESULT:      -4.7      5.381      8.166
  Name = 
  2 active torsions:
  status: ('A' for Active; 'I' for Inactive)
    1  A    between atoms: C_14  and  C_19
    2  A    between atoms: O_16  and  C_17
                            x       y       z     vdW  Elec       q    Type
                         _______ _______ _______ _____ _____    ______ ____

>  <TORSDO>
F 2

$$$$
=
 OpenBabel10262420133D

 27 31  0  0  1  0  0  0  0  0999 V2000
  185.4580  177.5240  136.3140 C   0  0  0  0  0  2  0  0  0  0  0  0
  184.4020  175.4550  136.8970 C   0  0  1  0  0  3  0  0  0  0  0  0
  185.9190  175.0200  134.8860 C   0  0  0  0  0  2  0  0  0  0  0  0
  182.3350  174.7320  137.6690 C   0  0  1  0  0  3  0  0  0  0  0  0
  183.7280  174.7550  137.9230 O   0  0  0  0  0  0  0  0  0  0  0  0
  183.6680  179.4840  139.1790 C   0  0  0  0  0  2  0  0  0  0  0  0
  184.1250  177.3690  138.3070 C   0  0  1  0  0  3  0  0  0  0  0  0
  189.5610  176.2140  135.5500 C   0  0  0  0  0  2  0  0  0  0  0  0
  182.9690  178.0590  137.5790 C   0  0  2  0  0  3  0  0  0  0  0  0
  189.1610  176.8450  136.8400 C   0  0  0  0  0  0  0  0  0  0  0  0
  185.0670  176.6550  137.4300 N   0  0  2  0  0  0  0  0  0  0  0  0
  181.5520  175.9400  138.2060 C   0  0  2  0  0  3  0  0  0  0  0  0
  186.8930  177.2520  135.8780 C   0  0  1  0  0  3  0  0  0  0  0  0
  185.4030  174.4970  136.2330 C   0  0  1  0  0  3  0  0  0  0  0  0
  188.4360  175.2890  135.0970 C   0  0  0  0  0  2  0  0  0  0  0  0
  181.9200  174.2780  136.2690 C   0  0  0  0  0  1  0  0  0  0  0  0
  190.0000  176.9970  137.7640 O   0  0  0  0  0  0  0  0  0  0  0  0
  182.7140  179.2310  138.3640 N   0  0  0  0  0  2  0  0  0  0  0  0
  187.8110  177.2690  137.0130 N   0  0  0  0  0  2  0  0  0  0  0  0
  181.6990  177.2230  137.3710 C   0  0  0  0  0  2  0  0  0  0  0  0
  187.0860  176.0160  134.9580 C   0  0  1  0  0  3  0  0  0  0  0  0
  184.7730  178.4840  139.1130 C   0  0  0  0  0  2  0  0  0  0  0  0
  185.9950  172.9780  137.9860 O   0  0  0  0  0  0  0  0  0  0  0  0
  186.8200  172.5950  136.9150 C   0  0  0  0  0  2  0  0  0  0  0  0
  186.5000  174.0150  137.1810 C   0  0  1  0  0  3  0  0  0  0  0  0
  180.6130  176.6640  140.0760 C   0  0  0  0  0  1  0  0  0  0  0  0
  181.8090  176.1630  139.5620 O   0  0  0  0  0  0  0  0  0  0  0  0
  2 11  1  0  0  0  0
  2  5  1  1  0  0  0
  4 16  1  6  0  0  0
  4  5  1  0  0  0  0
  4 12  1  0  0  0  0
  7 22  1  6  0  0  0
  8 10  1  0  0  0  0
  9 20  1  1  0  0  0
  9  7  1  0  0  0  0
  9 18  1  0  0  0  0
 10 19  1  0  0  0  0
 10 17  2  0  0  0  0
 11  1  1  6  0  0  0
 11  7  1  0  0  0  0
 12 27  1  1  0  0  0
 13  1  1  1  0  0  0
 13 19  1  0  0  0  0
 14  3  1  6  0  0  0
 14  2  1  0  0  0  0
 14 25  1  0  0  0  0
 15  8  1  0  0  0  0
 18  6  1  0  0  0  0
 20 12  1  0  0  0  0
 21  3  1  1  0  0  0
 21 15  1  0  0  0  0
 21 13  1  0  0  0  0
 22  6  1  0  0  0  0
 24 23  1  0  0  0  0
 25 24  1  6  0  0  0
 25 23  1  0  0  0  0
 27 26  1  0  0  0  0
M  END
>  <MODEL>
3

>  <REMARK>
 VINA RESULT:      -4.6      1.491      1.788
  Name = 
  2 active torsions:
  status: ('A' for Active; 'I' for Inactive)
    1  A    between atoms: C_14  and  C_19
    2  A    between atoms: O_16  and  C_17
                            x       y       z     vdW  Elec       q    Type
                         _______ _______ _______ _____ _____    ______ ____

>  <TORSDO>
F 2

$$$$
=
 OpenBabel10262420133D

 27 31  0  0  1  0  0  0  0  0999 V2000
  186.9820  177.0820  142.9430 C   0  0  0  0  0  2  0  0  0  0  0  0
  188.2420  177.7810  144.8560 C   0  0  1  0  0  3  0  0  0  0  0  0
  189.6830  176.1390  143.5280 C   0  0  0  0  0  2  0  0  0  0  0  0
  187.8480  178.2960  147.0850 C   0  0  1  0  0  3  0  0  0  0  0  0
  188.3630  178.7730  145.8550 O   0  0  0  0  0  0  0  0  0  0  0  0
  183.9050  179.2850  143.9050 C   0  0  0  0  0  2  0  0  0  0  0  0
  186.1450  178.8250  144.3680 C   0  0  1  0  0  3  0  0  0  0  0  0
  190.0290  177.2170  139.8060 C   0  0  0  0  0  2  0  0  0  0  0  0
  185.1980  177.8210  145.0290 C   0  0  2  0  0  3  0  0  0  0  0  0
  189.0360  178.3130  139.9910 C   0  0  0  0  0  0  0  0  0  0  0  0
  187.3530  178.2340  143.7720 N   0  0  2  0  0  0  0  0  0  0  0  0
  186.3400  178.5090  147.2890 C   0  0  2  0  0  3  0  0  0  0  0  0
  187.9190  176.9370  141.7480 C   0  0  1  0  0  3  0  0  0  0  0  0
  189.6470  177.4430  144.3350 C   0  0  1  0  0  3  0  0  0  0  0  0
  190.4640  176.7250  141.1830 C   0  0  0  0  0  2  0  0  0  0  0  0
  188.3630  176.9290  147.5390 C   0  0  0  0  0  1  0  0  0  0  0  0
  189.0660  179.3320  139.2530 O   0  0  0  0  0  0  0  0  0  0  0  0
  183.8930  178.3690  144.7990 N   0  0  0  0  0  2  0  0  0  0  0  0
  188.0560  178.1950  141.0190 N   0  0  0  0  0  2  0  0  0  0  0  0
  185.4420  177.5300  146.5150 C   0  0  0  0  0  2  0  0  0  0  0  0
  189.2810  176.2560  142.0500 C   0  0  1  0  0  3  0  0  0  0  0  0
  185.2680  179.5530  143.3610 C   0  0  0  0  0  2  0  0  0  0  0  0
  190.8420  179.4960  144.6340 O   0  0  0  0  0  0  0  0  0  0  0  0
  191.7750  178.6500  144.0110 C   0  0  0  0  0  2  0  0  0  0  0  0
  190.3400  178.6220  143.6530 C   0  0  1  0  0  3  0  0  0  0  0  0
  186.3130  180.5010  148.2570 C   0  0  0  0  0  1  0  0  0  0  0  0
  185.9720  179.8410  147.0750 O   0  0  0  0  0  0  0  0  0  0  0  0
  2  5  1  1  0  0  0
  4 12  1  0  0  0  0
  4 16  1  6  0  0  0
  5  4  1  0  0  0  0
  6 18  1  0  0  0  0
  7 22  1  6  0  0  0
  7  9  1  0  0  0  0
  8 10  1  0  0  0  0
  8 15  1  0  0  0  0
  9 20  1  1  0  0  0
 10 19  1  0  0  0  0
 11  1  1  6  0  0  0
 11  7  1  0  0  0  0
 11  2  1  0  0  0  0
 12 27  1  6  0  0  0
 13 21  1  0  0  0  0
 13  1  1  1  0  0  0
 14  3  1  6  0  0  0
 14  2  1  0  0  0  0
 17 10  2  0  0  0  0
 18  9  1  0  0  0  0
 19 13  1  0  0  0  0
 20 12  1  0  0  0  0
 21 15  1  6  0  0  0
 21  3  1  0  0  0  0
 22  6  1  0  0  0  0
 24 23  1  0  0  0  0
 25 24  1  1  0  0  0
 25 14  1  0  0  0  0
 25 23  1  0  0  0  0
 27 26  1  0  0  0  0
M  END
>  <MODEL>
4

>  <REMARK>
 VINA RESULT:      -4.4      5.510      7.921
  Name = 
  2 active torsions:
  status: ('A' for Active; 'I' for Inactive)
    1  A    between atoms: C_14  and  C_19
    2  A    between atoms: O_16  and  C_17
                            x       y       z     vdW  Elec       q    Type
                         _______ _______ _______ _____ _____    ______ ____

>  <TORSDO>
F 2

$$$$
=
 OpenBabel10262420133D

 27 31  0  0  1  0  0  0  0  0999 V2000
  187.2630  175.2830  135.0770 C   0  0  0  0  0  2  0  0  0  0  0  0
  187.4210  176.9210  136.8160 C   0  0  1  0  0  3  0  0  0  0  0  0
  185.5680  177.6550  135.2160 C   0  0  0  0  0  2  0  0  0  0  0  0
  189.0810  177.9290  138.0900 C   0  0  1  0  0  3  0  0  0  0  0  0
  187.8870  177.1670  138.1280 O   0  0  0  0  0  0  0  0  0  0  0  0
  190.1380  173.1080  136.5790 C   0  0  0  0  0  2  0  0  0  0  0  0
  188.6990  174.9030  136.9650 C   0  0  1  0  0  3  0  0  0  0  0  0
  182.9280  174.8470  134.6910 C   0  0  0  0  0  2  0  0  0  0  0  0
  189.9090  175.3020  136.1170 C   0  0  2  0  0  3  0  0  0  0  0  0
  183.7540  173.8720  135.4590 C   0  0  0  0  0  0  0  0  0  0  0  0
  187.4190  175.4780  136.5220 N   0  0  2  0  0  0  0  0  0  0  0  0
  190.3750  177.1090  137.9610 C   0  0  2  0  0  3  0  0  0  0  0  0
  185.7990  175.0870  134.7000 C   0  0  1  0  0  3  0  0  0  0  0  0
  186.0180  177.5310  136.6770 C   0  0  1  0  0  3  0  0  0  0  0  0
  183.4690  176.2490  134.9530 C   0  0  0  0  0  2  0  0  0  0  0  0
  189.0390  179.1910  137.2280 C   0  0  0  0  0  1  0  0  0  0  0  0
  183.2140  172.8990  136.0440 O   0  0  0  0  0  0  0  0  0  0  0  0
  190.7550  174.1450  136.1530 N   0  0  0  0  0  2  0  0  0  0  0  0
  185.1650  174.0620  135.5250 N   0  0  0  0  0  2  0  0  0  0  0  0
  190.6560  176.5700  136.5500 C   0  0  0  0  0  2  0  0  0  0  0  0
  184.9600  176.3890  134.5940 C   0  0  1  0  0  3  0  0  0  0  0  0
  188.7190  173.3820  136.9460 C   0  0  0  0  0  2  0  0  0  0  0  0
  184.9690  177.5760  138.8290 O   0  0  0  0  0  0  0  0  0  0  0  0
  183.9220  177.8650  137.9360 C   0  0  0  0  0  2  0  0  0  0  0  0
  184.9840  176.8900  137.6010 C   0  0  1  0  0  3  0  0  0  0  0  0
  190.5530  176.7900  140.1450 C   0  0  0  0  0  1  0  0  0  0  0  0
  190.4520  176.1070  138.9330 O   0  0  0  0  0  0  0  0  0  0  0  0
  2  5  1  1  0  0  0
  4 16  1  6  0  0  0
  4  5  1  0  0  0  0
  6 22  1  0  0  0  0
  7 22  1  6  0  0  0
  8 15  1  0  0  0  0
  8 10  1  0  0  0  0
  9 18  1  0  0  0  0
  9 20  1  1  0  0  0
  9  7  1  0  0  0  0
 10 19  1  0  0  0  0
 10 17  2  0  0  0  0
 11  1  1  6  0  0  0
 11  2  1  0  0  0  0
 11  7  1  0  0  0  0
 12  4  1  0  0  0  0
 12 27  1  1  0  0  0
 13  1  1  1  0  0  0
 13 19  1  0  0  0  0
 14  3  1  6  0  0  0
 14  2  1  0  0  0  0
 14 25  1  0  0  0  0
 18  6  1  0  0  0  0
 20 12  1  0  0  0  0
 21 13  1  0  0  0  0
 21 15  1  1  0  0  0
 21  3  1  0  0  0  0
 24 23  1  0  0  0  0
 25 24  1  6  0  0  0
 25 23  1  0  0  0  0
 27 26  1  0  0  0  0
M  END
>  <MODEL>
5

>  <REMARK>
 VINA RESULT:      -4.3      2.958      7.005
  Name = 
  2 active torsions:
  status: ('A' for Active; 'I' for Inactive)
    1  A    between atoms: C_14  and  C_19
    2  A    between atoms: O_16  and  C_17
                            x       y       z     vdW  Elec       q    Type
                         _______ _______ _______ _____ _____    ______ ____

>  <TORSDO>
F 2

$$$$
=
 OpenBabel10262420133D

 27 31  0  0  1  0  0  0  0  0999 V2000
  192.6780  176.7260  137.8160 C   0  0  0  0  0  2  0  0  0  0  0  0
  190.9900  175.8890  136.3370 C   0  0  1  0  0  3  0  0  0  0  0  0
  193.2180  175.8490  135.0840 C   0  0  0  0  0  2  0  0  0  0  0  0
  188.7600  176.3140  135.8490 C   0  0  1  0  0  3  0  0  0  0  0  0
  189.6930  175.3330  136.2670 O   0  0  0  0  0  0  0  0  0  0  0  0
  190.1370  177.3020  140.7250 C   0  0  0  0  0  2  0  0  0  0  0  0
  190.4510  176.3330  138.6260 C   0  0  1  0  0  3  0  0  0  0  0  0
  195.9490  173.9180  137.0710 C   0  0  0  0  0  2  0  0  0  0  0  0
  190.1610  177.8330  138.5350 C   0  0  2  0  0  3  0  0  0  0  0  0
  195.0520  173.7900  138.2550 C   0  0  0  0  0  0  0  0  0  0  0  0
  191.5030  175.8530  137.7170 N   0  0  2  0  0  0  0  0  0  0  0  0
  188.1570  177.1650  136.9780 C   0  0  2  0  0  3  0  0  0  0  0  0
  193.9690  175.9420  137.6030 C   0  0  1  0  0  3  0  0  0  0  0  0
  191.9020  175.1160  135.3720 C   0  0  1  0  0  3  0  0  0  0  0  0
  195.1060  174.3440  135.8730 C   0  0  0  0  0  2  0  0  0  0  0  0
  189.1380  177.1010  134.5940 C   0  0  0  0  0  1  0  0  0  0  0  0
  195.2010  172.8430  139.0690 O   0  0  0  0  0  0  0  0  0  0  0  0
  189.8100  178.2020  139.8750 N   0  0  0  0  0  2  0  0  0  0  0  0
  194.0200  174.7530  138.4490 N   0  0  0  0  0  2  0  0  0  0  0  0
  189.0860  178.2590  137.5250 C   0  0  0  0  0  2  0  0  0  0  0  0
  194.3340  175.6520  136.1220 C   0  0  1  0  0  3  0  0  0  0  0  0
  190.7690  176.1070  140.0960 C   0  0  0  0  0  2  0  0  0  0  0  0
  190.8280  172.9950  135.6490 O   0  0  0  0  0  0  0  0  0  0  0  0
  191.7300  172.7810  134.5940 C   0  0  0  0  0  2  0  0  0  0  0  0
  192.0710  173.6450  135.7450 C   0  0  1  0  0  3  0  0  0  0  0  0
  186.5430  175.7110  137.4080 C   0  0  0  0  0  1  0  0  0  0  0  0
  187.6230  176.3700  137.9970 O   0  0  0  0  0  0  0  0  0  0  0  0
  2  5  1  1  0  0  0
  2 11  1  0  0  0  0
  4 16  1  6  0  0  0
  4  5  1  0  0  0  0
  4 12  1  0  0  0  0
  7 22  1  1  0  0  0
  8 10  1  0  0  0  0
  9 20  1  6  0  0  0
  9  7  1  0  0  0  0
  9 18  1  0  0  0  0
 10 19  1  0  0  0  0
 10 17  2  0  0  0  0
 11  1  1  6  0  0  0
 11  7  1  0  0  0  0
 12 20  1  0  0  0  0
 12 27  1  1  0  0  0
 13  1  1  6  0  0  0
 13 19  1  0  0  0  0
 14  3  1  1  0  0  0
 14 25  1  0  0  0  0
 14  2  1  0  0  0  0
 15 21  1  0  0  0  0
 15  8  1  0  0  0  0
 18  6  1  0  0  0  0
 21  3  1  6  0  0  0
 21 13  1  0  0  0  0
 22  6  1  0  0  0  0
 23 25  1  0  0  0  0
 24 23  1  0  0  0  0
 25 24  1  6  0  0  0
 26 27  1  0  0  0  0
M  END
>  <MODEL>
6

>  <REMARK>
 VINA RESULT:      -4.3      4.802      7.410
  Name = 
  2 active torsions:
  status: ('A' for Active; 'I' for Inactive)
    1  A    between atoms: C_14  and  C_19
    2  A    between atoms: O_16  and  C_17
                            x       y       z     vdW  Elec       q    Type
                         _______ _______ _______ _____ _____    ______ ____

>  <TORSDO>
F 2

$$$$
=
 OpenBabel10262420133D

 27 31  0  0  1  0  0  0  0  0999 V2000
  188.8380  178.9030  141.4570 C   0  0  0  0  0  2  0  0  0  0  0  0
  190.3820  177.1740  140.8550 C   0  0  1  0  0  3  0  0  0  0  0  0
  191.2090  178.2410  143.0260 C   0  0  0  0  0  2  0  0  0  0  0  0
  191.3120  176.2890  138.9200 C   0  0  1  0  0  3  0  0  0  0  0  0
  190.5560  176.0030  140.0830 O   0  0  0  0  0  0  0  0  0  0  0  0
  186.5710  178.2500  138.3450 C   0  0  0  0  0  2  0  0  0  0  0  0
  188.3510  177.4380  139.6160 C   0  0  1  0  0  3  0  0  0  0  0  0
  188.4470  178.2530  145.7650 C   0  0  0  0  0  2  0  0  0  0  0  0
  188.7880  178.5330  138.6390 C   0  0  2  0  0  3  0  0  0  0  0  0
  187.4300  177.7570  144.7960 C   0  0  0  0  0  0  0  0  0  0  0  0
  188.9560  177.5300  140.9540 N   0  0  2  0  0  0  0  0  0  0  0  0
  190.4930  176.7670  137.7100 C   0  0  2  0  0  3  0  0  0  0  0  0
  188.6710  178.9250  142.9720 C   0  0  1  0  0  3  0  0  0  0  0  0
  191.0060  176.9400  142.2390 C   0  0  1  0  0  3  0  0  0  0  0  0
  189.8310  178.0600  145.1510 C   0  0  0  0  0  2  0  0  0  0  0  0
  192.6180  177.0520  139.1450 C   0  0  0  0  0  1  0  0  0  0  0  0
  186.4290  177.1080  145.1970 O   0  0  0  0  0  0  0  0  0  0  0  0
  187.6270  178.7600  137.8300 N   0  0  0  0  0  2  0  0  0  0  0  0
  187.6080  178.0240  143.4070 N   0  0  0  0  0  2  0  0  0  0  0  0
  190.0280  178.2300  137.7870 C   0  0  0  0  0  2  0  0  0  0  0  0
  189.9820  178.7600  143.7890 C   0  0  1  0  0  3  0  0  0  0  0  0
  186.8340  177.5380  139.6290 C   0  0  0  0  0  2  0  0  0  0  0  0
  191.0260  174.6240  142.8440 O   0  0  0  0  0  0  0  0  0  0  0  0
  191.2420  175.2920  144.0610 C   0  0  0  0  0  2  0  0  0  0  0  0
  190.3230  175.8270  143.0320 C   0  0  1  0  0  3  0  0  0  0  0  0
  189.3100  175.9390  136.0310 C   0  0  0  0  0  1  0  0  0  0  0  0
  189.4400  175.8940  137.4200 O   0  0  0  0  0  0  0  0  0  0  0  0
  2  5  1  6  0  0  0
  2 11  1  0  0  0  0
  2 14  1  0  0  0  0
  4 16  1  1  0  0  0
  4  5  1  0  0  0  0
  6 22  1  0  0  0  0
  7 22  1  1  0  0  0
  7 11  1  0  0  0  0
  9 20  1  6  0  0  0
  9  7  1  0  0  0  0
 10 17  2  0  0  0  0
 10  8  1  0  0  0  0
 11  1  1  6  0  0  0
 12 27  1  1  0  0  0
 12 20  1  0  0  0  0
 12  4  1  0  0  0  0
 13  1  1  6  0  0  0
 13 19  1  0  0  0  0
 13 21  1  0  0  0  0
 14  3  1  1  0  0  0
 14 25  1  0  0  0  0
 15  8  1  0  0  0  0
 18  6  1  0  0  0  0
 18  9  1  0  0  0  0
 19 10  1  0  0  0  0
 21  3  1  6  0  0  0
 21 15  1  0  0  0  0
 23 25  1  0  0  0  0
 23 24  1  0  0  0  0
 25 24  1  1  0  0  0
 26 27  1  0  0  0  0
M  END
>  <MODEL>
7

>  <REMARK>
 VINA RESULT:      -4.2      4.340      7.630
  Name = 
  2 active torsions:
  status: ('A' for Active; 'I' for Inactive)
    1  A    between atoms: C_14  and  C_19
    2  A    between atoms: O_16  and  C_17
                            x       y       z     vdW  Elec       q    Type
                         _______ _______ _______ _____ _____    ______ ____

>  <TORSDO>
F 2

$$$$
=
 OpenBabel10262420133D

 27 31  0  0  1  0  0  0  0  0999 V2000
  183.2150  175.1100  136.3590 C   0  0  0  0  0  2  0  0  0  0  0  0
  184.8840  176.7310  136.9260 C   0  0  1  0  0  3  0  0  0  0  0  0
  182.6880  177.9760  136.5250 C   0  0  0  0  0  2  0  0  0  0  0  0
  187.1470  177.0830  136.5410 C   0  0  1  0  0  3  0  0  0  0  0  0
  186.1480  176.9190  137.5310 O   0  0  0  0  0  0  0  0  0  0  0  0
  185.7160  172.1250  136.6540 C   0  0  0  0  0  2  0  0  0  0  0  0
  185.3950  174.3970  137.0740 C   0  0  1  0  0  3  0  0  0  0  0  0
  179.8000  176.5320  138.6940 C   0  0  0  0  0  2  0  0  0  0  0  0
  185.7770  174.1250  135.6170 C   0  0  2  0  0  3  0  0  0  0  0  0
  180.6590  175.4050  139.1570 C   0  0  0  0  0  0  0  0  0  0  0  0
  184.3370  175.4040  137.2570 N   0  0  2  0  0  0  0  0  0  0  0  0
  187.7730  175.7790  136.0230 C   0  0  2  0  0  3  0  0  0  0  0  0
  181.8850  175.5150  136.9850 C   0  0  1  0  0  3  0  0  0  0  0  0
  183.9520  177.8610  137.3880 C   0  0  1  0  0  3  0  0  0  0  0  0
  180.6960  177.5860  138.0510 C   0  0  0  0  0  2  0  0  0  0  0  0
  186.8470  178.1180  135.4560 C   0  0  0  0  0  1  0  0  0  0  0  0
  180.4340  174.8420  140.2590 O   0  0  0  0  0  0  0  0  0  0  0  0
  186.1170  172.7330  135.6000 N   0  0  0  0  0  2  0  0  0  0  0  0
  181.7430  174.9770  138.3350 N   0  0  0  0  0  2  0  0  0  0  0  0
  186.8980  174.9940  135.0330 C   0  0  0  0  0  2  0  0  0  0  0  0
  181.5390  177.0260  136.8910 C   0  0  1  0  0  3  0  0  0  0  0  0
  185.0280  173.0270  137.6220 C   0  0  0  0  0  2  0  0  0  0  0  0
  184.7910  178.4030  139.5630 O   0  0  0  0  0  0  0  0  0  0  0  0
  183.6660  179.2330  139.4180 C   0  0  0  0  0  2  0  0  0  0  0  0
  183.6850  177.8500  138.8920 C   0  0  1  0  0  3  0  0  0  0  0  0
  189.4600  175.5310  137.4360 C   0  0  0  0  0  1  0  0  0  0  0  0
  188.2340  174.9740  137.0700 O   0  0  0  0  0  0  0  0  0  0  0  0
  2 11  1  0  0  0  0
  2 14  1  0  0  0  0
  2  5  1  1  0  0  0
  4 16  1  6  0  0  0
  4  5  1  0  0  0  0
  6 22  1  0  0  0  0
  7 11  1  0  0  0  0
  7 22  1  6  0  0  0
  8 10  1  0  0  0  0
  9 20  1  1  0  0  0
  9  7  1  0  0  0  0
 10 17  2  0  0  0  0
 11  1  1  6  0  0  0
 12  4  1  0  0  0  0
 12 27  1  1  0  0  0
 13  1  1  1  0  0  0
 13 19  1  0  0  0  0
 14  3  1  6  0  0  0
 14 25  1  0  0  0  0
 15  8  1  0  0  0  0
 18  9  1  0  0  0  0
 18  6  1  0  0  0  0
 19 10  1  0  0  0  0
 20 12  1  0  0  0  0
 21  3  1  1  0  0  0
 21 13  1  0  0  0  0
 21 15  1  0  0  0  0
 24 23  1  0  0  0  0
 25 24  1  6  0  0  0
 25 23  1  0  0  0  0
 27 26  1  0  0  0  0
M  END
>  <MODEL>
8

>  <REMARK>
 VINA RESULT:      -4.2      2.192      6.378
  Name = 
  2 active torsions:
  status: ('A' for Active; 'I' for Inactive)
    1  A    between atoms: C_14  and  C_19
    2  A    between atoms: O_16  and  C_17
                            x       y       z     vdW  Elec       q    Type
                         _______ _______ _______ _____ _____    ______ ____

>  <TORSDO>
F 2

$$$$
=
 OpenBabel10262420133D

 27 31  0  0  1  0  0  0  0  0999 V2000
  179.9730  177.2670  138.2810 C   0  0  0  0  0  2  0  0  0  0  0  0
  182.3660  177.2420  138.2050 C   0  0  1  0  0  3  0  0  0  0  0  0
  181.6130  179.6800  138.3490 C   0  0  0  0  0  2  0  0  0  0  0  0
  184.0450  176.0280  137.1560 C   0  0  1  0  0  3  0  0  0  0  0  0
  183.5160  176.4440  138.4030 O   0  0  0  0  0  0  0  0  0  0  0  0
  179.7180  173.3740  138.0960 C   0  0  0  0  0  2  0  0  0  0  0  0
  181.1620  175.1820  138.3970 C   0  0  1  0  0  3  0  0  0  0  0  0
  179.2380  180.2750  141.3710 C   0  0  0  0  0  2  0  0  0  0  0  0
  180.8480  174.9300  136.9200 C   0  0  2  0  0  3  0  0  0  0  0  0
  179.1770  178.8140  141.6610 C   0  0  0  0  0  0  0  0  0  0  0  0
  181.1760  176.6000  138.7900 N   0  0  2  0  0  0  0  0  0  0  0  0
  183.4440  174.7300  136.5930 C   0  0  2  0  0  3  0  0  0  0  0  0
  179.5100  178.3690  139.2270 C   0  0  1  0  0  3  0  0  0  0  0  0
  182.6240  178.6260  138.8180 C   0  0  1  0  0  3  0  0  0  0  0  0
  180.3960  180.5270  140.4110 C   0  0  0  0  0  2  0  0  0  0  0  0
  184.2580  177.1320  136.1200 C   0  0  0  0  0  1  0  0  0  0  0  0
  178.9340  178.4040  142.8250 O   0  0  0  0  0  0  0  0  0  0  0  0
  180.1260  173.6920  136.9240 N   0  0  0  0  0  2  0  0  0  0  0  0
  179.4050  177.8880  140.6020 N   0  0  0  0  0  2  0  0  0  0  0  0
  182.0500  174.8870  135.9660 C   0  0  0  0  0  2  0  0  0  0  0  0
  180.2790  179.7130  139.1090 C   0  0  1  0  0  3  0  0  0  0  0  0
  180.1230  174.3580  139.1410 C   0  0  0  0  0  2  0  0  0  0  0  0
  183.8390  177.6520  140.6360 O   0  0  0  0  0  0  0  0  0  0  0  0
  184.2160  179.0060  140.6650 C   0  0  0  0  0  2  0  0  0  0  0  0
  182.8360  178.5900  140.3310 C   0  0  1  0  0  3  0  0  0  0  0  0
  184.8250  173.2930  137.5580 C   0  0  0  0  0  1  0  0  0  0  0  0
  183.4880  173.6910  137.5270 O   0  0  0  0  0  0  0  0  0  0  0  0
  2  5  1  1  0  0  0
  2 11  1  0  0  0  0
  2 14  1  0  0  0  0
  4 16  1  6  0  0  0
  4  5  1  0  0  0  0
  6 22  1  0  0  0  0
  7 11  1  0  0  0  0
  7 22  1  1  0  0  0
  8 10  1  0  0  0  0
  9 20  1  6  0  0  0
  9 18  1  0  0  0  0
  9  7  1  0  0  0  0
 10 17  2  0  0  0  0
 11  1  1  6  0  0  0
 12  4  1  0  0  0  0
 12 27  1  1  0  0  0
 13  1  1  6  0  0  0
 13 19  1  0  0  0  0
 14  3  1  1  0  0  0
 14 25  1  0  0  0  0
 15  8  1  0  0  0  0
 18  6  1  0  0  0  0
 19 10  1  0  0  0  0
 20 12  1  0  0  0  0
 21  3  1  1  0  0  0
 21 13  1  0  0  0  0
 21 15  1  0  0  0  0
 23 24  1  0  0  0  0
 25 23  1  0  0  0  0
 25 24  1  6  0  0  0
 27 26  1  0  0  0  0
M  END
>  <MODEL>
9

>  <REMARK>
 VINA RESULT:      -4.2      2.771      6.048
  Name = 
  2 active torsions:
  status: ('A' for Active; 'I' for Inactive)
    1  A    between atoms: C_14  and  C_19
    2  A    between atoms: O_16  and  C_17
                            x       y       z     vdW  Elec       q    Type
                         _______ _______ _______ _____ _____    ______ ____

>  <TORSDO>
F 2

$$$$
