=
 OpenBabel10262421513D

 30 32  0  0  1  0  0  0  0  0999 V2000
  184.9470  178.0280  143.2330 C   0  0  1  0  0  3  0  0  0  0  0  0
  186.2760  178.0150  143.9690 C   0  0  1  0  0  3  0  0  0  0  0  0
  185.9570  178.2730  145.4290 C   0  0  0  0  0  2  0  0  0  0  0  0
  183.8870  178.4860  144.2230 C   0  0  0  0  0  2  0  0  0  0  0  0
  184.6380  179.0110  145.4270 C   0  0  0  0  0  2  0  0  0  0  0  0
  185.6740  179.9620  142.0660 O   0  0  0  0  0  0  0  0  0  0  0  0
  185.0030  178.9370  142.0390 C   0  0  0  0  0  0  0  0  0  0  0  0
  184.1850  178.5930  140.8310 C   0  0  2  0  0  3  0  0  0  0  0  0
  184.2890  180.1960  139.0440 O   0  0  0  0  0  0  0  0  0  0  0  0
  184.7710  179.1560  139.5690 C   0  0  0  0  0  0  0  0  0  0  0  0
  185.8910  178.5160  138.9680 N   0  0  0  0  0  1  0  0  0  0  0  0
  182.7320  179.0190  141.0300 C   0  0  0  0  0  2  0  0  0  0  0  0
  181.3910  178.1180  139.2830 C   0  0  0  0  0  1  0  0  0  0  0  0
  181.8120  177.9370  140.6680 N   0  0  0  0  0  0  0  0  0  0  0  0
  180.6790  177.9250  141.5220 N   0  0  0  0  0  2  0  0  0  0  0  0
  180.2660  178.4800  143.8520 C   0  0  0  0  0  2  0  0  0  0  0  0
  179.3240  179.2990  142.9990 C   0  0  0  0  0  2  0  0  0  0  0  0
  180.7270  179.0090  142.5110 C   0  0  0  0  0  3  0  0  0  0  0  0
  186.9400  176.6560  143.8000 C   0  0  0  0  0  2  0  0  0  0  0  0
  188.2470  176.8040  143.1740 N   0  0  0  0  0  0  0  0  0  0  0  0
  188.0210  177.1390  141.8820 O   0  0  0  0  0  1  0  0  0  0  0  0
  188.9040  177.9500  143.7870 C   0  0  0  0  0  2  0  0  0  0  0  0
  191.7060  176.1220  146.9170 C   0  0  0  0  0  0  0  0  0  0  0  0
  190.3370  176.0860  147.5120 C   0  0  0  0  0  2  0  0  0  0  0  0
  192.7530  175.7210  147.6760 F   0  0  0  0  0  0  0  0  0  0  0  0
  189.7620  177.5210  144.9320 C   0  0  0  0  0  0  0  0  0  0  0  0
  189.6650  177.4150  147.4280 C   0  0  0  0  0  3  0  0  0  0  0  0
  191.9160  176.3960  145.6260 C   0  0  0  0  0  3  0  0  0  0  0  0
  189.3850  178.0150  146.2730 C   0  0  0  0  0  3  0  0  0  0  0  0
  190.8950  176.8520  144.6620 C   0  0  0  0  0  3  0  0  0  0  0  0
  1  7  1  6  0  0  0
  1  2  1  0  0  0  0
  1  4  1  0  0  0  0
  2 19  1  1  0  0  0
  2  3  1  0  0  0  0
  4  5  1  0  0  0  0
  5  3  1  0  0  0  0
  7  6  2  0  0  0  0
  8 12  1  1  0  0  0
  8  7  1  0  0  0  0
  9 10  2  0  0  0  0
 10  8  1  0  0  0  0
 11 10  1  0  0  0  0
 13 14  1  0  0  0  0
 14 12  1  0  0  0  0
 14 15  1  0  0  0  0
 15 18  1  0  0  0  0
 17 16  1  0  0  0  0
 18 17  1  0  0  0  0
 18 16  1  0  0  0  0
 20 22  1  0  0  0  0
 20 19  1  0  0  0  0
 21 20  1  0  0  0  0
 22 26  1  0  0  0  0
 23 24  1  0  0  0  0
 23 25  1  0  0  0  0
 26 29  1  0  0  0  0
 27 24  1  0  0  0  0
 28 23  2  0  0  0  0
 29 27  2  0  0  0  0
 30 26  2  0  0  0  0
 30 28  1  0  0  0  0
M  END
>  <MODEL>
1

>  <REMARK>
 VINA RESULT:      -7.6      0.000      0.000
  Name = 
  11 active torsions:
  status: ('A' for Active; 'I' for Inactive)
    1  A    between atoms: C_3  and  N_11
    2  A    between atoms: C_3  and  C_19
    3  A    between atoms: C_4  and  C_13
    4  A    between atoms: C_7  and  C_30
    5  A    between atoms: C_8  and  N_12
    6  A    between atoms: C_8  and  C_13
    7  A    between atoms: N_9  and  N_12
    8  A    between atoms: N_9  and  C_21
    9  A    between atoms: C_10  and  C_25
   10  A    between atoms: N_11  and  C_25
   11  A    between atoms: C_13  and  C_30
                            x       y       z     vdW  Elec       q    Type
                         _______ _______ _______ _____ _____    ______ ____

>  <TORSDO>
F 11

$$$$
=
 OpenBabel10262421513D

 30 32  0  0  1  0  0  0  0  0999 V2000
  184.9490  178.0160  143.2380 C   0  0  1  0  0  3  0  0  0  0  0  0
  186.2670  178.0300  143.9950 C   0  0  1  0  0  3  0  0  0  0  0  0
  185.9210  178.3000  145.4470 C   0  0  0  0  0  2  0  0  0  0  0  0
  183.8680  178.4710  144.2050 C   0  0  0  0  0  2  0  0  0  0  0  0
  184.5920  179.0200  145.4150 C   0  0  0  0  0  2  0  0  0  0  0  0
  185.6230  179.9750  142.0780 O   0  0  0  0  0  0  0  0  0  0  0  0
  185.0130  178.9130  142.0340 C   0  0  0  0  0  0  0  0  0  0  0  0
  184.2750  178.5090  140.7940 C   0  0  2  0  0  3  0  0  0  0  0  0
  184.3450  180.1290  139.0200 O   0  0  0  0  0  0  0  0  0  0  0  0
  184.8680  179.1140  139.5560 C   0  0  0  0  0  0  0  0  0  0  0  0
  186.0440  178.5460  138.9910 N   0  0  0  0  0  1  0  0  0  0  0  0
  182.7870  178.8240  140.9300 C   0  0  0  0  0  2  0  0  0  0  0  0
  180.7210  177.6430  140.8950 C   0  0  0  0  0  1  0  0  0  0  0  0
  181.9730  177.8640  140.1790 N   0  0  0  0  0  0  0  0  0  0  0  0
  182.6600  176.6340  140.0130 N   0  0  0  0  0  2  0  0  0  0  0  0
  183.5330  175.5290  138.0320 C   0  0  0  0  0  2  0  0  0  0  0  0
  182.7850  176.7660  137.5900 C   0  0  0  0  0  2  0  0  0  0  0  0
  182.2810  175.9580  138.7670 C   0  0  0  0  0  3  0  0  0  0  0  0
  186.9510  176.6780  143.8520 C   0  0  0  0  0  2  0  0  0  0  0  0
  188.2400  176.8300  143.1880 N   0  0  0  0  0  0  0  0  0  0  0  0
  187.9760  177.1740  141.9060 O   0  0  0  0  0  1  0  0  0  0  0  0
  188.9150  177.9720  143.7890 C   0  0  0  0  0  2  0  0  0  0  0  0
  191.6230  176.1510  147.0050 C   0  0  0  0  0  0  0  0  0  0  0  0
  190.2380  176.1210  147.5620 C   0  0  0  0  0  2  0  0  0  0  0  0
  192.6470  175.7510  147.7950 F   0  0  0  0  0  0  0  0  0  0  0  0
  189.7400  177.5460  144.9600 C   0  0  0  0  0  0  0  0  0  0  0  0
  189.5730  177.4520  147.4530 C   0  0  0  0  0  3  0  0  0  0  0  0
  191.8700  176.4190  145.7200 C   0  0  0  0  0  3  0  0  0  0  0  0
  189.3270  178.0480  146.2870 C   0  0  0  0  0  3  0  0  0  0  0  0
  190.8770  176.8720  144.7240 C   0  0  0  0  0  3  0  0  0  0  0  0
  1  7  1  6  0  0  0
  1  2  1  0  0  0  0
  1  4  1  0  0  0  0
  2 19  1  1  0  0  0
  2  3  1  0  0  0  0
  4  5  1  0  0  0  0
  5  3  1  0  0  0  0
  7  6  2  0  0  0  0
  8 12  1  1  0  0  0
  8  7  1  0  0  0  0
  9 10  2  0  0  0  0
 10  8  1  0  0  0  0
 11 10  1  0  0  0  0
 14 13  1  0  0  0  0
 14 12  1  0  0  0  0
 15 14  1  0  0  0  0
 16 18  1  0  0  0  0
 17 16  1  0  0  0  0
 17 18  1  0  0  0  0
 18 15  1  0  0  0  0
 20 22  1  0  0  0  0
 20 19  1  0  0  0  0
 21 20  1  0  0  0  0
 22 26  1  0  0  0  0
 23 24  1  0  0  0  0
 23 25  1  0  0  0  0
 26 29  1  0  0  0  0
 27 24  1  0  0  0  0
 28 23  2  0  0  0  0
 29 27  2  0  0  0  0
 30 26  2  0  0  0  0
 30 28  1  0  0  0  0
M  END
>  <MODEL>
2

>  <REMARK>
 VINA RESULT:      -7.5      1.030      2.147
  Name = 
  11 active torsions:
  status: ('A' for Active; 'I' for Inactive)
    1  A    between atoms: C_3  and  N_11
    2  A    between atoms: C_3  and  C_19
    3  A    between atoms: C_4  and  C_13
    4  A    between atoms: C_7  and  C_30
    5  A    between atoms: C_8  and  N_12
    6  A    between atoms: C_8  and  C_13
    7  A    between atoms: N_9  and  N_12
    8  A    between atoms: N_9  and  C_21
    9  A    between atoms: C_10  and  C_25
   10  A    between atoms: N_11  and  C_25
   11  A    between atoms: C_13  and  C_30
                            x       y       z     vdW  Elec       q    Type
                         _______ _______ _______ _____ _____    ______ ____

>  <TORSDO>
F 11

$$$$
=
 OpenBabel10262421513D

 30 32  0  0  1  0  0  0  0  0999 V2000
  185.1880  178.2180  140.7470 C   0  0  1  0  0  3  0  0  0  0  0  0
  186.0520  179.0090  141.7160 C   0  0  1  0  0  3  0  0  0  0  0  0
  185.3310  178.9800  143.0490 C   0  0  0  0  0  2  0  0  0  0  0  0
  183.8830  177.9020  141.4600 C   0  0  0  0  0  2  0  0  0  0  0  0
  183.8750  178.7500  142.7140 C   0  0  0  0  0  2  0  0  0  0  0  0
  184.3940  180.0920  139.5260 O   0  0  0  0  0  0  0  0  0  0  0  0
  184.9430  178.9980  139.4860 C   0  0  0  0  0  0  0  0  0  0  0  0
  185.3390  178.3900  138.1750 C   0  0  2  0  0  3  0  0  0  0  0  0
  183.1430  177.4550  137.8960 O   0  0  0  0  0  0  0  0  0  0  0  0
  184.3860  177.3180  137.7340 C   0  0  0  0  0  0  0  0  0  0  0  0
  184.8910  176.1410  137.1150 N   0  0  0  0  0  1  0  0  0  0  0  0
  186.7810  177.8890  138.2310 C   0  0  0  0  0  2  0  0  0  0  0  0
  187.8090  178.5990  136.2060 C   0  0  0  0  0  1  0  0  0  0  0  0
  187.7010  178.8630  137.6360 N   0  0  0  0  0  0  0  0  0  0  0  0
  188.9820  178.7880  138.2410 N   0  0  0  0  0  2  0  0  0  0  0  0
  190.4650  177.5560  139.7220 C   0  0  0  0  0  2  0  0  0  0  0  0
  190.5220  176.9130  138.3550 C   0  0  0  0  0  2  0  0  0  0  0  0
  189.2170  177.4820  138.8680 C   0  0  0  0  0  3  0  0  0  0  0  0
  187.4190  178.3520  141.8340 C   0  0  0  0  0  2  0  0  0  0  0  0
  187.5150  177.6000  143.0790 N   0  0  0  0  0  0  0  0  0  0  0  0
  187.7110  176.3060  142.7350 O   0  0  0  0  0  1  0  0  0  0  0  0
  188.7260  178.0310  143.7640 C   0  0  0  0  0  2  0  0  0  0  0  0
  188.0230  177.7080  148.2800 C   0  0  0  0  0  0  0  0  0  0  0  0
  189.4710  178.0270  148.1060 C   0  0  0  0  0  2  0  0  0  0  0  0
  187.5590  177.4640  149.5280 F   0  0  0  0  0  0  0  0  0  0  0  0
  188.6320  177.7580  145.2300 C   0  0  0  0  0  0  0  0  0  0  0  0
  190.1240  177.1090  147.1290 C   0  0  0  0  0  3  0  0  0  0  0  0
  187.1480  177.7940  147.2750 C   0  0  0  0  0  3  0  0  0  0  0  0
  189.7620  177.0340  145.8490 C   0  0  0  0  0  3  0  0  0  0  0  0
  187.4800  178.0440  145.8570 C   0  0  0  0  0  3  0  0  0  0  0  0
  1  7  1  6  0  0  0
  1  4  1  0  0  0  0
  1  2  1  0  0  0  0
  2 19  1  1  0  0  0
  2  3  1  0  0  0  0
  4  5  1  0  0  0  0
  5  3  1  0  0  0  0
  7  6  2  0  0  0  0
  8 12  1  1  0  0  0
  8  7  1  0  0  0  0
 10  9  2  0  0  0  0
 10  8  1  0  0  0  0
 11 10  1  0  0  0  0
 13 14  1  0  0  0  0
 14 12  1  0  0  0  0
 14 15  1  0  0  0  0
 15 18  1  0  0  0  0
 17 18  1  0  0  0  0
 17 16  1  0  0  0  0
 18 16  1  0  0  0  0
 19 20  1  0  0  0  0
 20 22  1  0  0  0  0
 21 20  1  0  0  0  0
 22 26  1  0  0  0  0
 23 25  1  0  0  0  0
 24 23  1  0  0  0  0
 26 29  1  0  0  0  0
 26 30  2  0  0  0  0
 27 24  1  0  0  0  0
 28 23  2  0  0  0  0
 29 27  2  0  0  0  0
 30 28  1  0  0  0  0
M  END
>  <MODEL>
3

>  <REMARK>
 VINA RESULT:      -7.4      2.662      5.033
  Name = 
  11 active torsions:
  status: ('A' for Active; 'I' for Inactive)
    1  A    between atoms: C_3  and  N_11
    2  A    between atoms: C_3  and  C_19
    3  A    between atoms: C_4  and  C_13
    4  A    between atoms: C_7  and  C_30
    5  A    between atoms: C_8  and  N_12
    6  A    between atoms: C_8  and  C_13
    7  A    between atoms: N_9  and  N_12
    8  A    between atoms: N_9  and  C_21
    9  A    between atoms: C_10  and  C_25
   10  A    between atoms: N_11  and  C_25
   11  A    between atoms: C_13  and  C_30
                            x       y       z     vdW  Elec       q    Type
                         _______ _______ _______ _____ _____    ______ ____

>  <TORSDO>
F 11

$$$$
=
 OpenBabel10262421513D

 30 32  0  0  1  0  0  0  0  0999 V2000
  183.6160  178.1740  139.8340 C   0  0  1  0  0  3  0  0  0  0  0  0
  183.6620  178.7220  141.2520 C   0  0  1  0  0  3  0  0  0  0  0  0
  182.2260  178.7640  141.7380 C   0  0  0  0  0  2  0  0  0  0  0  0
  182.1530  178.0870  139.4310 C   0  0  0  0  0  2  0  0  0  0  0  0
  181.3810  178.8470  140.4870 C   0  0  0  0  0  2  0  0  0  0  0  0
  184.2170  180.2700  138.8950 O   0  0  0  0  0  0  0  0  0  0  0  0
  184.3870  179.0560  138.8940 C   0  0  0  0  0  0  0  0  0  0  0  0
  185.3320  178.4200  137.9200 C   0  0  2  0  0  3  0  0  0  0  0  0
  183.7050  177.5490  136.3800 O   0  0  0  0  0  0  0  0  0  0  0  0
  184.6840  177.3140  137.1390 C   0  0  0  0  0  0  0  0  0  0  0  0
  185.1900  175.9880  137.2470 N   0  0  0  0  0  1  0  0  0  0  0  0
  186.5990  177.9520  138.6320 C   0  0  0  0  0  2  0  0  0  0  0  0
  188.3270  178.1830  137.0120 C   0  0  0  0  0  1  0  0  0  0  0  0
  187.7580  178.7550  138.2280 N   0  0  0  0  0  0  0  0  0  0  0  0
  188.7370  178.7890  139.2530 N   0  0  0  0  0  2  0  0  0  0  0  0
  189.0030  177.9560  141.5210 C   0  0  0  0  0  2  0  0  0  0  0  0
  190.0790  177.3320  140.6610 C   0  0  0  0  0  2  0  0  0  0  0  0
  188.7000  177.5810  140.0860 C   0  0  0  0  0  3  0  0  0  0  0  0
  184.4950  177.7990  142.1290 C   0  0  0  0  0  2  0  0  0  0  0  0
  185.5640  178.5460  142.7790 N   0  0  0  0  0  0  0  0  0  0  0  0
  185.6210  179.7520  142.1670 O   0  0  0  0  0  1  0  0  0  0  0  0
  185.1520  178.8020  144.1530 C   0  0  0  0  0  2  0  0  0  0  0  0
  188.2050  177.8200  147.4260 C   0  0  0  0  0  0  0  0  0  0  0  0
  188.9680  177.8630  146.1430 C   0  0  0  0  0  2  0  0  0  0  0  0
  188.8550  177.4550  148.5550 F   0  0  0  0  0  0  0  0  0  0  0  0
  186.1740  178.2940  145.1170 C   0  0  0  0  0  0  0  0  0  0  0  0
  188.3260  177.0220  145.0920 C   0  0  0  0  0  3  0  0  0  0  0  0
  186.9480  178.2630  147.5220 C   0  0  0  0  0  3  0  0  0  0  0  0
  187.1010  177.2550  144.6240 C   0  0  0  0  0  3  0  0  0  0  0  0
  186.0920  178.6910  146.3970 C   0  0  0  0  0  3  0  0  0  0  0  0
  1  7  1  6  0  0  0
  1  2  1  0  0  0  0
  2  3  1  0  0  0  0
  2 19  1  1  0  0  0
  4  1  1  0  0  0  0
  4  5  1  0  0  0  0
  5  3  1  0  0  0  0
  7  6  2  0  0  0  0
  8 12  1  1  0  0  0
  8  7  1  0  0  0  0
  9 10  2  0  0  0  0
 10 11  1  0  0  0  0
 10  8  1  0  0  0  0
 13 14  1  0  0  0  0
 14 12  1  0  0  0  0
 14 15  1  0  0  0  0
 15 18  1  0  0  0  0
 17 16  1  0  0  0  0
 18 17  1  0  0  0  0
 18 16  1  0  0  0  0
 19 20  1  0  0  0  0
 20 22  1  0  0  0  0
 21 20  1  0  0  0  0
 22 26  1  0  0  0  0
 23 28  2  0  0  0  0
 23 25  1  0  0  0  0
 24 23  1  0  0  0  0
 26 30  2  0  0  0  0
 27 24  1  0  0  0  0
 29 27  2  0  0  0  0
 29 26  1  0  0  0  0
 30 28  1  0  0  0  0
M  END
>  <MODEL>
4

>  <REMARK>
 VINA RESULT:      -7.4      2.366      5.258
  Name = 
  11 active torsions:
  status: ('A' for Active; 'I' for Inactive)
    1  A    between atoms: C_3  and  N_11
    2  A    between atoms: C_3  and  C_19
    3  A    between atoms: C_4  and  C_13
    4  A    between atoms: C_7  and  C_30
    5  A    between atoms: C_8  and  N_12
    6  A    between atoms: C_8  and  C_13
    7  A    between atoms: N_9  and  N_12
    8  A    between atoms: N_9  and  C_21
    9  A    between atoms: C_10  and  C_25
   10  A    between atoms: N_11  and  C_25
   11  A    between atoms: C_13  and  C_30
                            x       y       z     vdW  Elec       q    Type
                         _______ _______ _______ _____ _____    ______ ____

>  <TORSDO>
F 11

$$$$
=
 OpenBabel10262421513D

 30 32  0  0  1  0  0  0  0  0999 V2000
  188.2340  177.7400  144.6510 C   0  0  1  0  0  3  0  0  0  0  0  0
  187.0190  177.6380  145.5590 C   0  0  1  0  0  3  0  0  0  0  0  0
  187.5530  177.5160  146.9730 C   0  0  0  0  0  2  0  0  0  0  0  0
  189.4620  177.4800  145.5090 C   0  0  0  0  0  2  0  0  0  0  0  0
  188.9450  176.9460  146.8280 C   0  0  0  0  0  2  0  0  0  0  0  0
  187.4260  175.7660  143.6110 O   0  0  0  0  0  0  0  0  0  0  0  0
  188.1430  176.7550  143.5210 C   0  0  0  0  0  0  0  0  0  0  0  0
  188.9840  176.9790  142.3000 C   0  0  2  0  0  3  0  0  0  0  0  0
  190.5270  175.2150  142.8310 O   0  0  0  0  0  0  0  0  0  0  0  0
  190.3620  176.4050  142.4460 C   0  0  0  0  0  0  0  0  0  0  0  0
  191.4950  177.2080  142.1330 N   0  0  0  0  0  1  0  0  0  0  0  0
  189.0160  178.4630  141.9380 C   0  0  0  0  0  2  0  0  0  0  0  0
  186.9300  178.5200  140.7950 C   0  0  0  0  0  1  0  0  0  0  0  0
  188.3690  178.7030  140.6450 N   0  0  0  0  0  0  0  0  0  0  0  0
  188.8690  177.8210  139.6530 N   0  0  0  0  0  2  0  0  0  0  0  0
  188.9730  177.3000  137.2810 C   0  0  0  0  0  2  0  0  0  0  0  0
  189.0580  178.8010  137.4370 C   0  0  0  0  0  2  0  0  0  0  0  0
  188.1800  177.9930  138.3690 C   0  0  0  0  0  3  0  0  0  0  0  0
  186.1690  178.8920  145.4160 C   0  0  0  0  0  2  0  0  0  0  0  0
  184.7580  178.5410  145.3250 N   0  0  0  0  0  0  0  0  0  0  0  0
  184.2700  178.5660  146.5870 O   0  0  0  0  0  1  0  0  0  0  0  0
  184.0810  179.6100  144.6020 C   0  0  0  0  0  2  0  0  0  0  0  0
  181.7630  178.1790  140.9190 C   0  0  0  0  0  0  0  0  0  0  0  0
  180.8480  179.1030  141.6530 C   0  0  0  0  0  2  0  0  0  0  0  0
  181.2910  177.5340  139.8260 F   0  0  0  0  0  0  0  0  0  0  0  0
  183.1890  179.0530  143.5410 C   0  0  0  0  0  0  0  0  0  0  0  0
  180.7480  178.7450  143.0970 C   0  0  0  0  0  3  0  0  0  0  0  0
  183.0620  178.0780  141.2140 C   0  0  0  0  0  3  0  0  0  0  0  0
  181.7910  178.7670  143.9260 C   0  0  0  0  0  3  0  0  0  0  0  0
  183.7390  178.7060  142.3670 C   0  0  0  0  0  3  0  0  0  0  0  0
  1  7  1  6  0  0  0
  1  4  1  0  0  0  0
  1  2  1  0  0  0  0
  2 19  1  1  0  0  0
  2  3  1  0  0  0  0
  4  5  1  0  0  0  0
  5  3  1  0  0  0  0
  7  6  2  0  0  0  0
  8 12  1  1  0  0  0
  8 10  1  0  0  0  0
  8  7  1  0  0  0  0
 10  9  2  0  0  0  0
 11 10  1  0  0  0  0
 14 13  1  0  0  0  0
 14 12  1  0  0  0  0
 15 14  1  0  0  0  0
 16 17  1  0  0  0  0
 16 18  1  0  0  0  0
 17 18  1  0  0  0  0
 18 15  1  0  0  0  0
 20 19  1  0  0  0  0
 20 21  1  0  0  0  0
 22 20  1  0  0  0  0
 23 28  2  0  0  0  0
 23 24  1  0  0  0  0
 24 27  1  0  0  0  0
 25 23  1  0  0  0  0
 26 29  1  0  0  0  0
 26 22  1  0  0  0  0
 27 29  2  0  0  0  0
 28 30  1  0  0  0  0
 30 26  2  0  0  0  0
M  END
>  <MODEL>
5

>  <REMARK>
 VINA RESULT:      -7.4      3.693      7.654
  Name = 
  11 active torsions:
  status: ('A' for Active; 'I' for Inactive)
    1  A    between atoms: C_3  and  N_11
    2  A    between atoms: C_3  and  C_19
    3  A    between atoms: C_4  and  C_13
    4  A    between atoms: C_7  and  C_30
    5  A    between atoms: C_8  and  N_12
    6  A    between atoms: C_8  and  C_13
    7  A    between atoms: N_9  and  N_12
    8  A    between atoms: N_9  and  C_21
    9  A    between atoms: C_10  and  C_25
   10  A    between atoms: N_11  and  C_25
   11  A    between atoms: C_13  and  C_30
                            x       y       z     vdW  Elec       q    Type
                         _______ _______ _______ _____ _____    ______ ____

>  <TORSDO>
F 11

$$$$
=
 OpenBabel10262421513D

 30 32  0  0  1  0  0  0  0  0999 V2000
  187.5580  177.4760  138.5280 C   0  0  1  0  0  3  0  0  0  0  0  0
  186.3030  178.2940  138.2680 C   0  0  1  0  0  3  0  0  0  0  0  0
  185.7830  177.8560  136.9130 C   0  0  0  0  0  2  0  0  0  0  0  0
  187.8730  176.7150  137.2500 C   0  0  0  0  0  2  0  0  0  0  0  0
  186.9860  177.3100  136.1780 C   0  0  0  0  0  2  0  0  0  0  0  0
  188.9860  179.3540  138.2670 O   0  0  0  0  0  0  0  0  0  0  0  0
  188.7030  178.3620  138.9280 C   0  0  0  0  0  0  0  0  0  0  0  0
  189.5230  177.9830  140.1240 C   0  0  2  0  0  3  0  0  0  0  0  0
  190.4860  175.9990  139.1700 O   0  0  0  0  0  0  0  0  0  0  0  0
  190.6770  177.0950  139.7630 C   0  0  0  0  0  0  0  0  0  0  0  0
  192.0030  177.5030  140.0810 N   0  0  0  0  0  1  0  0  0  0  0  0
  188.6390  177.3650  141.2050 C   0  0  0  0  0  2  0  0  0  0  0  0
  188.6290  176.0000  143.1540 C   0  0  0  0  0  1  0  0  0  0  0  0
  189.4420  176.8940  142.3370 N   0  0  0  0  0  0  0  0  0  0  0  0
  189.9040  177.9820  143.1210 N   0  0  0  0  0  2  0  0  0  0  0  0
  191.2340  177.8620  145.1530 C   0  0  0  0  0  2  0  0  0  0  0  0
  191.7560  179.0080  144.3140 C   0  0  0  0  0  2  0  0  0  0  0  0
  191.2560  177.7460  143.6430 C   0  0  0  0  0  3  0  0  0  0  0  0
  185.2740  178.0090  139.3520 C   0  0  0  0  0  2  0  0  0  0  0  0
  184.9260  179.2370  140.0560 N   0  0  0  0  0  0  0  0  0  0  0  0
  184.5900  180.1440  139.1090 O   0  0  0  0  0  1  0  0  0  0  0  0
  183.7150  178.9780  140.8240 C   0  0  0  0  0  2  0  0  0  0  0  0
  184.2720  178.6800  145.3620 C   0  0  0  0  0  0  0  0  0  0  0  0
  185.5850  179.1270  144.8100 C   0  0  0  0  0  2  0  0  0  0  0  0
  184.1810  178.4200  146.6870 F   0  0  0  0  0  0  0  0  0  0  0  0
  184.0410  178.7260  142.2600 C   0  0  0  0  0  0  0  0  0  0  0  0
  186.0370  178.2540  143.6890 C   0  0  0  0  0  3  0  0  0  0  0  0
  183.1560  178.6650  144.6260 C   0  0  0  0  0  3  0  0  0  0  0  0
  185.3570  178.1210  142.5520 C   0  0  0  0  0  3  0  0  0  0  0  0
  183.0750  178.9170  143.1730 C   0  0  0  0  0  3  0  0  0  0  0  0
  1  7  1  6  0  0  0
  2  1  1  0  0  0  0
  2 19  1  1  0  0  0
  3  2  1  0  0  0  0
  4  1  1  0  0  0  0
  5  3  1  0  0  0  0
  5  4  1  0  0  0  0
  6  7  2  0  0  0  0
  7  8  1  0  0  0  0
  8 12  1  1  0  0  0
  9 10  2  0  0  0  0
 10 11  1  0  0  0  0
 10  8  1  0  0  0  0
 12 14  1  0  0  0  0
 14 15  1  0  0  0  0
 14 13  1  0  0  0  0
 15 18  1  0  0  0  0
 17 16  1  0  0  0  0
 18 17  1  0  0  0  0
 18 16  1  0  0  0  0
 19 20  1  0  0  0  0
 20 22  1  0  0  0  0
 21 20  1  0  0  0  0
 22 26  1  0  0  0  0
 23 25  1  0  0  0  0
 24 23  1  0  0  0  0
 26 29  1  0  0  0  0
 26 30  2  0  0  0  0
 27 24  1  0  0  0  0
 28 23  2  0  0  0  0
 29 27  2  0  0  0  0
 30 28  1  0  0  0  0
M  END
>  <MODEL>
6

>  <REMARK>
 VINA RESULT:      -7.3      3.128      7.556
  Name = 
  11 active torsions:
  status: ('A' for Active; 'I' for Inactive)
    1  A    between atoms: C_3  and  N_11
    2  A    between atoms: C_3  and  C_19
    3  A    between atoms: C_4  and  C_13
    4  A    between atoms: C_7  and  C_30
    5  A    between atoms: C_8  and  N_12
    6  A    between atoms: C_8  and  C_13
    7  A    between atoms: N_9  and  N_12
    8  A    between atoms: N_9  and  C_21
    9  A    between atoms: C_10  and  C_25
   10  A    between atoms: N_11  and  C_25
   11  A    between atoms: C_13  and  C_30
                            x       y       z     vdW  Elec       q    Type
                         _______ _______ _______ _____ _____    ______ ____

>  <TORSDO>
F 11

$$$$
=
 OpenBabel10262421513D

 30 32  0  0  1  0  0  0  0  0999 V2000
  187.6820  177.3800  138.0620 C   0  0  1  0  0  3  0  0  0  0  0  0
  186.4430  178.2510  138.1850 C   0  0  1  0  0  3  0  0  0  0  0  0
  185.6140  177.9900  136.9430 C   0  0  0  0  0  2  0  0  0  0  0  0
  187.6690  176.7700  136.6700 C   0  0  0  0  0  2  0  0  0  0  0  0
  186.5960  177.5080  135.8990 C   0  0  0  0  0  2  0  0  0  0  0  0
  188.9750  179.3690  137.9720 O   0  0  0  0  0  0  0  0  0  0  0  0
  188.9290  178.1860  138.2890 C   0  0  0  0  0  0  0  0  0  0  0  0
  190.1330  177.5040  138.8660 C   0  0  2  0  0  3  0  0  0  0  0  0
  191.1010  176.8320  136.7720 O   0  0  0  0  0  0  0  0  0  0  0  0
  190.7190  176.4930  137.9250 C   0  0  0  0  0  0  0  0  0  0  0  0
  190.8570  175.1400  138.3440 N   0  0  0  0  0  1  0  0  0  0  0  0
  189.8020  176.8960  140.2280 C   0  0  0  0  0  2  0  0  0  0  0  0
  192.0040  177.5020  140.8950 C   0  0  0  0  0  1  0  0  0  0  0  0
  190.6000  177.5170  141.2890 N   0  0  0  0  0  0  0  0  0  0  0  0
  190.4340  176.8290  142.5190 N   0  0  0  0  0  2  0  0  0  0  0  0
  191.0330  176.8130  144.8750 C   0  0  0  0  0  2  0  0  0  0  0  0
  191.0220  178.2490  144.4010 C   0  0  0  0  0  2  0  0  0  0  0  0
  191.5000  177.1510  143.4750 C   0  0  0  0  0  3  0  0  0  0  0  0
  185.6670  177.8620  139.4350 C   0  0  0  0  0  2  0  0  0  0  0  0
  185.4890  179.0190  140.3020 N   0  0  0  0  0  0  0  0  0  0  0  0
  184.8300  179.9510  139.5750 O   0  0  0  0  0  1  0  0  0  0  0  0
  184.5900  178.6300  141.3810 C   0  0  0  0  0  2  0  0  0  0  0  0
  186.9880  177.9380  145.2230 C   0  0  0  0  0  0  0  0  0  0  0  0
  185.5650  178.1050  145.6450 C   0  0  0  0  0  2  0  0  0  0  0  0
  187.9360  177.8090  146.1810 F   0  0  0  0  0  0  0  0  0  0  0  0
  185.3110  178.6030  142.6900 C   0  0  0  0  0  0  0  0  0  0  0  0
  184.9580  179.3320  145.0550 C   0  0  0  0  0  3  0  0  0  0  0  0
  187.3380  177.7670  143.9450 C   0  0  0  0  0  3  0  0  0  0  0  0
  184.8190  179.5160  143.7430 C   0  0  0  0  0  3  0  0  0  0  0  0
  186.4380  177.8790  142.7790 C   0  0  0  0  0  3  0  0  0  0  0  0
  1  2  1  0  0  0  0
  1  7  1  6  0  0  0
  2 19  1  1  0  0  0
  3  2  1  0  0  0  0
  4  1  1  0  0  0  0
  5  4  1  0  0  0  0
  5  3  1  0  0  0  0
  6  7  2  0  0  0  0
  7  8  1  0  0  0  0
  8 12  1  1  0  0  0
  9 10  2  0  0  0  0
 10 11  1  0  0  0  0
 10  8  1  0  0  0  0
 12 14  1  0  0  0  0
 13 14  1  0  0  0  0
 14 15  1  0  0  0  0
 15 18  1  0  0  0  0
 17 16  1  0  0  0  0
 18 17  1  0  0  0  0
 18 16  1  0  0  0  0
 19 20  1  0  0  0  0
 20 22  1  0  0  0  0
 21 20  1  0  0  0  0
 22 26  1  0  0  0  0
 23 24  1  0  0  0  0
 23 25  1  0  0  0  0
 26 30  2  0  0  0  0
 26 29  1  0  0  0  0
 27 24  1  0  0  0  0
 28 23  2  0  0  0  0
 29 27  2  0  0  0  0
 30 28  1  0  0  0  0
M  END
>  <MODEL>
7

>  <REMARK>
 VINA RESULT:      -7.1      3.356      7.297
  Name = 
  11 active torsions:
  status: ('A' for Active; 'I' for Inactive)
    1  A    between atoms: C_3  and  N_11
    2  A    between atoms: C_3  and  C_19
    3  A    between atoms: C_4  and  C_13
    4  A    between atoms: C_7  and  C_30
    5  A    between atoms: C_8  and  N_12
    6  A    between atoms: C_8  and  C_13
    7  A    between atoms: N_9  and  N_12
    8  A    between atoms: N_9  and  C_21
    9  A    between atoms: C_10  and  C_25
   10  A    between atoms: N_11  and  C_25
   11  A    between atoms: C_13  and  C_30
                            x       y       z     vdW  Elec       q    Type
                         _______ _______ _______ _____ _____    ______ ____

>  <TORSDO>
F 11

$$$$
=
 OpenBabel10262421513D

 30 32  0  0  1  0  0  0  0  0999 V2000
  185.0590  178.1650  142.7760 C   0  0  1  0  0  3  0  0  0  0  0  0
  186.2420  178.0850  143.7260 C   0  0  1  0  0  3  0  0  0  0  0  0
  185.6810  178.2750  145.1220 C   0  0  0  0  0  2  0  0  0  0  0  0
  183.8510  178.5940  143.5940 C   0  0  0  0  0  2  0  0  0  0  0  0
  184.3910  179.0410  144.9350 C   0  0  0  0  0  2  0  0  0  0  0  0
  186.0230  180.1250  141.8490 O   0  0  0  0  0  0  0  0  0  0  0  0
  185.3300  179.1330  141.6600 C   0  0  0  0  0  0  0  0  0  0  0  0
  184.6980  178.8870  140.3230 C   0  0  2  0  0  3  0  0  0  0  0  0
  182.3430  179.0850  140.7590 O   0  0  0  0  0  0  0  0  0  0  0  0
  183.3080  178.3360  140.4450 C   0  0  0  0  0  0  0  0  0  0  0  0
  183.0750  176.9560  140.1890 N   0  0  0  0  0  1  0  0  0  0  0  0
  185.5940  177.9990  139.4630 C   0  0  0  0  0  2  0  0  0  0  0  0
  185.0930  177.4990  137.1910 C   0  0  0  0  0  1  0  0  0  0  0  0
  185.6660  178.4980  138.0860 N   0  0  0  0  0  0  0  0  0  0  0  0
  187.0060  178.7720  137.7130 N   0  0  0  0  0  2  0  0  0  0  0  0
  189.2680  178.6230  138.5920 C   0  0  0  0  0  2  0  0  0  0  0  0
  189.1270  177.6100  137.4790 C   0  0  0  0  0  2  0  0  0  0  0  0
  187.9580  177.8890  138.3980 C   0  0  0  0  0  3  0  0  0  0  0  0
  186.9080  176.7230  143.6000 C   0  0  0  0  0  2  0  0  0  0  0  0
  188.2760  176.8700  143.1190 N   0  0  0  0  0  0  0  0  0  0  0  0
  188.1940  177.1540  141.7980 O   0  0  0  0  0  1  0  0  0  0  0  0
  188.8460  178.0480  143.7580 C   0  0  0  0  0  2  0  0  0  0  0  0
  191.3510  176.3780  147.2110 C   0  0  0  0  0  0  0  0  0  0  0  0
  189.9300  176.3270  147.6660 C   0  0  0  0  0  2  0  0  0  0  0  0
  192.3230  176.0240  148.0840 F   0  0  0  0  0  0  0  0  0  0  0  0
  189.5910  177.6730  144.9970 C   0  0  0  0  0  0  0  0  0  0  0  0
  189.2440  177.6370  147.4730 C   0  0  0  0  0  3  0  0  0  0  0  0
  191.6860  176.6200  145.9400 C   0  0  0  0  0  3  0  0  0  0  0  0
  189.0700  178.1970  146.2770 C   0  0  0  0  0  3  0  0  0  0  0  0
  190.7590  177.0230  144.8630 C   0  0  0  0  0  3  0  0  0  0  0  0
  1  7  1  6  0  0  0
  1  4  1  0  0  0  0
  1  2  1  0  0  0  0
  2 19  1  1  0  0  0
  2  3  1  0  0  0  0
  4  5  1  0  0  0  0
  5  3  1  0  0  0  0
  7  6  2  0  0  0  0
  8 12  1  6  0  0  0
  8 10  1  0  0  0  0
  8  7  1  0  0  0  0
 10  9  2  0  0  0  0
 11 10  1  0  0  0  0
 13 14  1  0  0  0  0
 14 12  1  0  0  0  0
 15 14  1  0  0  0  0
 15 18  1  0  0  0  0
 17 18  1  0  0  0  0
 17 16  1  0  0  0  0
 18 16  1  0  0  0  0
 20 19  1  0  0  0  0
 20 22  1  0  0  0  0
 21 20  1  0  0  0  0
 22 26  1  0  0  0  0
 23 24  1  0  0  0  0
 23 25  1  0  0  0  0
 26 29  1  0  0  0  0
 27 24  1  0  0  0  0
 28 23  2  0  0  0  0
 29 27  2  0  0  0  0
 30 26  2  0  0  0  0
 30 28  1  0  0  0  0
M  END
>  <MODEL>
8

>  <REMARK>
 VINA RESULT:      -6.9      1.736      3.844
  Name = 
  11 active torsions:
  status: ('A' for Active; 'I' for Inactive)
    1  A    between atoms: C_3  and  N_11
    2  A    between atoms: C_3  and  C_19
    3  A    between atoms: C_4  and  C_13
    4  A    between atoms: C_7  and  C_30
    5  A    between atoms: C_8  and  N_12
    6  A    between atoms: C_8  and  C_13
    7  A    between atoms: N_9  and  N_12
    8  A    between atoms: N_9  and  C_21
    9  A    between atoms: C_10  and  C_25
   10  A    between atoms: N_11  and  C_25
   11  A    between atoms: C_13  and  C_30
                            x       y       z     vdW  Elec       q    Type
                         _______ _______ _______ _____ _____    ______ ____

>  <TORSDO>
F 11

$$$$
=
 OpenBabel10262421513D

 30 32  0  0  1  0  0  0  0  0999 V2000
  189.1710  177.3490  142.5680 C   0  0  1  0  0  3  0  0  0  0  0  0
  188.1530  178.2520  141.8900 C   0  0  1  0  0  3  0  0  0  0  0  0
  188.3100  178.0260  140.3990 C   0  0  0  0  0  2  0  0  0  0  0  0
  190.0430  176.7520  141.4750 C   0  0  0  0  0  2  0  0  0  0  0  0
  189.7250  177.5270  140.2150 C   0  0  0  0  0  2  0  0  0  0  0  0
  190.6170  179.1150  143.2160 O   0  0  0  0  0  0  0  0  0  0  0  0
  189.9940  178.1180  143.5610 C   0  0  0  0  0  0  0  0  0  0  0  0
  190.0780  177.6150  144.9700 C   0  0  2  0  0  3  0  0  0  0  0  0
  191.7590  176.0440  144.2740 O   0  0  0  0  0  0  0  0  0  0  0  0
  191.2940  176.7650  145.1980 C   0  0  0  0  0  0  0  0  0  0  0  0
  191.9370  176.7860  146.4680 N   0  0  0  0  0  1  0  0  0  0  0  0
  188.7910  176.8910  145.3580 C   0  0  0  0  0  2  0  0  0  0  0  0
  188.6120  176.9580  147.7290 C   0  0  0  0  0  1  0  0  0  0  0  0
  188.1330  177.5540  146.4880 N   0  0  0  0  0  0  0  0  0  0  0  0
  186.7230  177.4280  146.4010 N   0  0  0  0  0  2  0  0  0  0  0  0
  184.5560  178.5140  146.5880 C   0  0  0  0  0  2  0  0  0  0  0  0
  185.4430  179.3780  145.7210 C   0  0  0  0  0  2  0  0  0  0  0  0
  186.0340  178.6270  146.8950 C   0  0  0  0  0  3  0  0  0  0  0  0
  186.7510  177.8730  142.3430 C   0  0  0  0  0  2  0  0  0  0  0  0
  185.8480  179.0070  142.2010 N   0  0  0  0  0  0  0  0  0  0  0  0
  186.6060  180.0610  141.8200 O   0  0  0  0  0  1  0  0  0  0  0  0
  184.9520  178.7220  141.0870 C   0  0  0  0  0  2  0  0  0  0  0  0
  180.4650  178.3760  141.9460 C   0  0  0  0  0  0  0  0  0  0  0  0
  180.9800  179.4500  142.8470 C   0  0  0  0  0  2  0  0  0  0  0  0
  179.1700  178.0010  142.0600 F   0  0  0  0  0  0  0  0  0  0  0  0
  183.5480  178.5490  141.5660 C   0  0  0  0  0  0  0  0  0  0  0  0
  182.1800  179.0000  143.6100 C   0  0  0  0  0  3  0  0  0  0  0  0
  181.1930  177.8770  140.9430 C   0  0  0  0  0  3  0  0  0  0  0  0
  183.3210  178.6420  143.0230 C   0  0  0  0  0  3  0  0  0  0  0  0
  182.6150  178.1710  140.6760 C   0  0  0  0  0  3  0  0  0  0  0  0
  1  7  1  1  0  0  0
  2 19  1  1  0  0  0
  2  1  1  0  0  0  0
  3  2  1  0  0  0  0
  4  1  1  0  0  0  0
  5  3  1  0  0  0  0
  5  4  1  0  0  0  0
  6  7  2  0  0  0  0
  7  8  1  0  0  0  0
  8 10  1  0  0  0  0
  8 12  1  6  0  0  0
  9 10  2  0  0  0  0
 10 11  1  0  0  0  0
 12 14  1  0  0  0  0
 14 13  1  0  0  0  0
 15 14  1  0  0  0  0
 15 18  1  0  0  0  0
 16 18  1  0  0  0  0
 17 16  1  0  0  0  0
 17 18  1  0  0  0  0
 20 19  1  0  0  0  0
 21 20  1  0  0  0  0
 22 26  1  0  0  0  0
 22 20  1  0  0  0  0
 23 25  1  0  0  0  0
 23 24  1  0  0  0  0
 24 27  1  0  0  0  0
 26 29  1  0  0  0  0
 28 23  2  0  0  0  0
 29 27  2  0  0  0  0
 30 28  1  0  0  0  0
 30 26  2  0  0  0  0
M  END
>  <MODEL>
9

>  <REMARK>
 VINA RESULT:      -6.8      3.554      8.014
  Name = 
  11 active torsions:
  status: ('A' for Active; 'I' for Inactive)
    1  A    between atoms: C_3  and  N_11
    2  A    between atoms: C_3  and  C_19
    3  A    between atoms: C_4  and  C_13
    4  A    between atoms: C_7  and  C_30
    5  A    between atoms: C_8  and  N_12
    6  A    between atoms: C_8  and  C_13
    7  A    between atoms: N_9  and  N_12
    8  A    between atoms: N_9  and  C_21
    9  A    between atoms: C_10  and  C_25
   10  A    between atoms: N_11  and  C_25
   11  A    between atoms: C_13  and  C_30
                            x       y       z     vdW  Elec       q    Type
                         _______ _______ _______ _____ _____    ______ ____

>  <TORSDO>
F 11

$$$$
