=
 OpenBabel10262419433D

 25 28  0  0  1  0  0  0  0  0999 V2000
  187.4470  177.9150  145.4640 C   0  0  0  0  0  0  0  0  0  0  0  0
  188.7680  177.5760  145.1090 C   0  0  0  0  0  0  0  0  0  0  0  0
  188.0350  177.9100  147.8330 C   0  0  0  0  0  3  0  0  0  0  0  0
  186.3420  178.1260  144.6190 C   0  0  0  0  0  0  0  0  0  0  0  0
  183.9350  178.6300  143.3430 C   0  0  0  0  0  3  0  0  0  0  0  0
  189.3490  177.5690  147.4910 C   0  0  0  0  0  3  0  0  0  0  0  0
  185.1870  178.4460  145.3220 C   0  0  0  0  0  0  0  0  0  0  0  0
  184.0070  178.6940  144.7040 N   0  0  0  0  0  0  0  0  0  0  0  0
  191.1080  177.0600  145.7820 C   0  0  0  0  0  0  0  0  0  0  0  0
  191.9430  176.7240  146.6610 O   0  0  0  0  0  0  0  0  0  0  0  0
  189.1600  177.2980  143.6800 C   0  0  0  0  0  2  0  0  0  0  0  0
  185.0740  178.3120  142.5820 C   0  0  0  0  0  3  0  0  0  0  0  0
  187.1080  178.0790  146.8100 C   0  0  0  0  0  0  0  0  0  0  0  0
  185.4760  178.4790  146.9800 S   0  0  0  0  0  0  0  0  0  0  0  0
  191.4950  177.0970  144.4060 N   0  0  0  0  0  2  0  0  0  0  0  0
  186.2940  178.0570  143.2250 C   0  0  0  0  0  3  0  0  0  0  0  0
  190.6130  177.7030  143.4140 C   0  0  1  0  0  3  0  0  0  0  0  0
  189.7200  177.4010  146.1420 C   0  0  0  0  0  0  0  0  0  0  0  0
  191.0410  177.2780  142.0230 C   0  0  0  0  0  2  0  0  0  0  0  0
  189.8350  176.8380  141.2100 C   0  0  0  0  0  2  0  0  0  0  0  0
  189.8850  177.4490  139.8500 C   0  0  0  0  0  0  0  0  0  0  0  0
  190.8620  177.1490  139.0580 N   0  0  0  0  0  2  0  0  0  0  0  0
  188.8830  178.4460  139.4460 C   0  0  0  0  0  0  0  0  0  0  0  0
  189.0420  179.1560  138.2620 O   0  0  0  0  0  0  0  0  0  0  0  0
  187.8760  178.6660  140.1690 O   0  0  0  0  0  1  0  0  0  0  0  0
  1 13  1  0  0  0  0
  2  1  2  0  0  0  0
  2 18  1  0  0  0  0
  4  7  1  0  0  0  0
  4  1  1  0  0  0  0
  5  8  1  0  0  0  0
  6  3  1  0  0  0  0
  7 14  1  0  0  0  0
  8  7  2  0  0  0  0
  9 18  1  0  0  0  0
  9 10  2  0  0  0  0
 11  2  1  0  0  0  0
 12 16  1  0  0  0  0
 12  5  2  0  0  0  0
 13 14  1  0  0  0  0
 13  3  2  0  0  0  0
 15  9  1  0  0  0  0
 16  4  2  0  0  0  0
 17 19  1  6  0  0  0
 17 11  1  0  0  0  0
 17 15  1  0  0  0  0
 18  6  2  0  0  0  0
 20 19  1  0  0  0  0
 21 20  1  0  0  0  0
 22 21  2  0  0  0  0
 23 21  1  0  0  0  0
 23 25  1  0  0  0  0
 24 23  2  0  0  0  0
M  END
>  <MODEL>
1

>  <REMARK>
 VINA RESULT:     -10.1      0.000      0.000
  Name = 
  4 active torsions:
  status: ('A' for Active; 'I' for Inactive)
    1  A    between atoms: C_2  and  CA_21
    2  A    between atoms: C_6  and  C_15
    3  A    between atoms: C_6  and  C_23
    4  A    between atoms: C_15  and  CA_21
                            x       y       z     vdW  Elec       q    Type
                         _______ _______ _______ _____ _____    ______ ____

>  <TORSDO>
F 4

$$$$
=
 OpenBabel10262419433D

 25 28  0  0  1  0  0  0  0  0999 V2000
  187.4750  177.8970  145.5840 C   0  0  0  0  0  0  0  0  0  0  0  0
  188.8090  177.5500  145.2910 C   0  0  0  0  0  0  0  0  0  0  0  0
  187.9640  177.9310  147.9760 C   0  0  0  0  0  3  0  0  0  0  0  0
  186.4070  178.0950  144.6910 C   0  0  0  0  0  0  0  0  0  0  0  0
  184.0560  178.5800  143.3060 C   0  0  0  0  0  3  0  0  0  0  0  0
  189.2900  177.5830  147.6950 C   0  0  0  0  0  3  0  0  0  0  0  0
  185.2240  178.4280  145.3400 C   0  0  0  0  0  0  0  0  0  0  0  0
  184.0710  178.6670  144.6680 N   0  0  0  0  0  0  0  0  0  0  0  0
  191.1180  177.0430  146.0690 C   0  0  0  0  0  0  0  0  0  0  0  0
  191.9150  176.7200  146.9880 O   0  0  0  0  0  0  0  0  0  0  0  0
  189.2600  177.2480  143.8840 C   0  0  0  0  0  2  0  0  0  0  0  0
  185.2260  178.2480  142.5990 C   0  0  0  0  0  3  0  0  0  0  0  0
  187.0800  178.0830  146.9120 C   0  0  0  0  0  0  0  0  0  0  0  0
  185.4440  178.4890  147.0080 S   0  0  0  0  0  0  0  0  0  0  0  0
  191.5620  177.0560  144.7110 N   0  0  0  0  0  2  0  0  0  0  0  0
  186.4170  178.0020  143.2980 C   0  0  0  0  0  3  0  0  0  0  0  0
  190.7230  177.6470  143.6730 C   0  0  1  0  0  3  0  0  0  0  0  0
  189.7160  177.3920  146.3660 C   0  0  0  0  0  0  0  0  0  0  0  0
  191.2090  177.1980  142.3080 C   0  0  0  0  0  2  0  0  0  0  0  0
  190.1030  176.4640  141.5690 C   0  0  0  0  0  2  0  0  0  0  0  0
  189.7490  177.1970  140.3180 C   0  0  0  0  0  0  0  0  0  0  0  0
  188.9310  178.1960  140.3800 N   0  0  0  0  0  2  0  0  0  0  0  0
  190.2560  176.7340  139.0180 C   0  0  0  0  0  0  0  0  0  0  0  0
  190.1480  177.5470  137.8970 O   0  0  0  0  0  0  0  0  0  0  0  0
  190.7880  175.5980  138.9100 O   0  0  0  0  0  1  0  0  0  0  0  0
  1 13  1  0  0  0  0
  2  1  2  0  0  0  0
  2 18  1  0  0  0  0
  4  7  1  0  0  0  0
  4  1  1  0  0  0  0
  5  8  1  0  0  0  0
  6  3  1  0  0  0  0
  7 14  1  0  0  0  0
  8  7  2  0  0  0  0
  9 18  1  0  0  0  0
  9 10  2  0  0  0  0
 11  2  1  0  0  0  0
 12 16  1  0  0  0  0
 12  5  2  0  0  0  0
 13 14  1  0  0  0  0
 13  3  2  0  0  0  0
 15  9  1  0  0  0  0
 16  4  2  0  0  0  0
 17 19  1  6  0  0  0
 17 11  1  0  0  0  0
 17 15  1  0  0  0  0
 18  6  2  0  0  0  0
 20 19  1  0  0  0  0
 21 22  2  0  0  0  0
 21 20  1  0  0  0  0
 23 21  1  0  0  0  0
 24 23  2  0  0  0  0
 25 23  1  0  0  0  0
M  END
>  <MODEL>
2

>  <REMARK>
 VINA RESULT:      -9.9      1.085      1.207
  Name = 
  4 active torsions:
  status: ('A' for Active; 'I' for Inactive)
    1  A    between atoms: C_2  and  CA_21
    2  A    between atoms: C_6  and  C_15
    3  A    between atoms: C_6  and  C_23
    4  A    between atoms: C_15  and  CA_21
                            x       y       z     vdW  Elec       q    Type
                         _______ _______ _______ _____ _____    ______ ____

>  <TORSDO>
F 4

$$$$
=
 OpenBabel10262419433D

 25 28  0  0  1  0  0  0  0  0999 V2000
  187.1720  177.8630  145.0450 C   0  0  0  0  0  0  0  0  0  0  0  0
  188.2590  177.4150  144.2680 C   0  0  0  0  0  0  0  0  0  0  0  0
  188.4860  177.6400  147.0910 C   0  0  0  0  0  3  0  0  0  0  0  0
  185.8880  178.2420  144.6140 C   0  0  0  0  0  0  0  0  0  0  0  0
  183.2760  179.0740  144.2090 C   0  0  0  0  0  3  0  0  0  0  0  0
  189.5700  177.1900  146.3280 C   0  0  0  0  0  3  0  0  0  0  0  0
  185.0670  178.6310  145.6650 C   0  0  0  0  0  0  0  0  0  0  0  0
  183.7880  179.0400  145.4730 N   0  0  0  0  0  0  0  0  0  0  0  0
  190.6130  176.6180  144.1240 C   0  0  0  0  0  0  0  0  0  0  0  0
  191.6400  176.1400  144.6710 O   0  0  0  0  0  0  0  0  0  0  0  0
  188.1360  177.1950  142.7810 C   0  0  0  0  0  2  0  0  0  0  0  0
  184.0650  178.6920  143.1090 C   0  0  0  0  0  3  0  0  0  0  0  0
  187.3060  177.9700  146.4320 C   0  0  0  0  0  0  0  0  0  0  0  0
  185.8750  178.5240  147.1380 S   0  0  0  0  0  0  0  0  0  0  0  0
  190.5390  176.7070  142.6990 N   0  0  0  0  0  2  0  0  0  0  0  0
  185.3870  178.2710  143.3110 C   0  0  0  0  0  3  0  0  0  0  0  0
  189.4640  177.4650  142.0680 C   0  0  1  0  0  3  0  0  0  0  0  0
  189.4650  177.0750  144.9280 C   0  0  0  0  0  0  0  0  0  0  0  0
  189.3690  177.0920  140.6010 C   0  0  0  0  0  2  0  0  0  0  0  0
  188.5610  178.1300  139.8420 C   0  0  0  0  0  2  0  0  0  0  0  0
  188.3800  177.7030  138.4250 C   0  0  0  0  0  0  0  0  0  0  0  0
  188.2810  176.4430  138.1520 N   0  0  0  0  0  2  0  0  0  0  0  0
  188.4020  178.6960  137.3410 C   0  0  0  0  0  0  0  0  0  0  0  0
  187.7900  178.4160  136.1250 O   0  0  0  0  0  0  0  0  0  0  0  0
  188.9760  179.8040  137.5040 O   0  0  0  0  0  1  0  0  0  0  0  0
  1 13  2  0  0  0  0
  2 18  2  0  0  0  0
  2  1  1  0  0  0  0
  4  1  1  0  0  0  0
  4  7  1  0  0  0  0
  5  8  1  0  0  0  0
  6  3  2  0  0  0  0
  7 14  1  0  0  0  0
  8  7  2  0  0  0  0
  9 10  2  0  0  0  0
  9 18  1  0  0  0  0
 11  2  1  0  0  0  0
 12 16  1  0  0  0  0
 12  5  2  0  0  0  0
 13  3  1  0  0  0  0
 13 14  1  0  0  0  0
 15  9  1  0  0  0  0
 16  4  2  0  0  0  0
 17 19  1  6  0  0  0
 17 15  1  0  0  0  0
 17 11  1  0  0  0  0
 18  6  1  0  0  0  0
 20 19  1  0  0  0  0
 21 20  1  0  0  0  0
 22 21  2  0  0  0  0
 23 25  1  0  0  0  0
 23 21  1  0  0  0  0
 24 23  2  0  0  0  0
M  END
>  <MODEL>
3

>  <REMARK>
 VINA RESULT:      -9.5      1.311      1.679
  Name = 
  4 active torsions:
  status: ('A' for Active; 'I' for Inactive)
    1  A    between atoms: C_2  and  CA_21
    2  A    between atoms: C_6  and  C_15
    3  A    between atoms: C_6  and  C_23
    4  A    between atoms: C_15  and  CA_21
                            x       y       z     vdW  Elec       q    Type
                         _______ _______ _______ _____ _____    ______ ____

>  <TORSDO>
F 4

$$$$
=
 OpenBabel10262419433D

 25 28  0  0  1  0  0  0  0  0999 V2000
  187.2630  177.9330  145.5320 C   0  0  0  0  0  0  0  0  0  0  0  0
  188.4880  177.5170  144.9730 C   0  0  0  0  0  0  0  0  0  0  0  0
  188.1910  177.7850  147.7860 C   0  0  0  0  0  3  0  0  0  0  0  0
  186.0660  178.2580  144.8690 C   0  0  0  0  0  0  0  0  0  0  0  0
  183.5430  178.9850  143.9840 C   0  0  0  0  0  3  0  0  0  0  0  0
  189.4110  177.3670  147.2400 C   0  0  0  0  0  3  0  0  0  0  0  0
  185.0550  178.6280  145.7470 C   0  0  0  0  0  0  0  0  0  0  0  0
  183.8180  178.9850  145.3200 N   0  0  0  0  0  0  0  0  0  0  0  0
  190.8550  176.8090  145.2720 C   0  0  0  0  0  0  0  0  0  0  0  0
  191.7830  176.3770  146.0050 O   0  0  0  0  0  0  0  0  0  0  0  0
  188.6440  177.2740  143.4930 C   0  0  0  0  0  2  0  0  0  0  0  0
  184.5310  178.6200  143.0510 C   0  0  0  0  0  3  0  0  0  0  0  0
  187.1390  178.0620  146.9180 C   0  0  0  0  0  0  0  0  0  0  0  0
  185.5850  178.5690  147.3440 S   0  0  0  0  0  0  0  0  0  0  0  0
  191.0380  176.8770  143.8560 N   0  0  0  0  0  2  0  0  0  0  0  0
  185.8090  178.2520  143.4970 C   0  0  0  0  0  3  0  0  0  0  0  0
  190.0690  177.5870  143.0270 C   0  0  1  0  0  3  0  0  0  0  0  0
  189.5650  177.2310  145.8460 C   0  0  0  0  0  0  0  0  0  0  0  0
  190.2550  177.1930  141.5740 C   0  0  0  0  0  2  0  0  0  0  0  0
  191.6710  177.5010  141.1200 C   0  0  0  0  0  2  0  0  0  0  0  0
  191.8410  177.1280  139.6860 C   0  0  0  0  0  0  0  0  0  0  0  0
  190.7930  176.9470  138.9500 N   0  0  0  0  0  2  0  0  0  0  0  0
  193.1820  176.8830  139.1360 C   0  0  0  0  0  0  0  0  0  0  0  0
  194.2920  176.8880  139.9720 O   0  0  0  0  0  1  0  0  0  0  0  0
  193.3360  176.6690  137.9050 O   0  0  0  0  0  0  0  0  0  0  0  0
  1 13  1  0  0  0  0
  2  1  2  0  0  0  0
  2 18  1  0  0  0  0
  4  1  1  0  0  0  0
  4  7  1  0  0  0  0
  5  8  1  0  0  0  0
  6  3  1  0  0  0  0
  7 14  1  0  0  0  0
  8  7  2  0  0  0  0
  9 18  1  0  0  0  0
  9 10  2  0  0  0  0
 11  2  1  0  0  0  0
 12 16  1  0  0  0  0
 12  5  2  0  0  0  0
 13 14  1  0  0  0  0
 13  3  2  0  0  0  0
 15  9  1  0  0  0  0
 16  4  2  0  0  0  0
 17 19  1  6  0  0  0
 17 11  1  0  0  0  0
 17 15  1  0  0  0  0
 18  6  2  0  0  0  0
 20 19  1  0  0  0  0
 21 20  1  0  0  0  0
 22 21  2  0  0  0  0
 23 21  1  0  0  0  0
 23 24  1  0  0  0  0
 25 23  2  0  0  0  0
M  END
>  <MODEL>
4

>  <REMARK>
 VINA RESULT:      -9.3      1.822      2.094
  Name = 
  4 active torsions:
  status: ('A' for Active; 'I' for Inactive)
    1  A    between atoms: C_2  and  CA_21
    2  A    between atoms: C_6  and  C_15
    3  A    between atoms: C_6  and  C_23
    4  A    between atoms: C_15  and  CA_21
                            x       y       z     vdW  Elec       q    Type
                         _______ _______ _______ _____ _____    ______ ____

>  <TORSDO>
F 4

$$$$
=
 OpenBabel10262419433D

 25 28  0  0  1  0  0  0  0  0999 V2000
  187.0810  178.0010  142.9420 C   0  0  0  0  0  0  0  0  0  0  0  0
  186.9580  177.8560  144.3380 C   0  0  0  0  0  0  0  0  0  0  0  0
  184.8930  179.0770  142.8170 C   0  0  0  0  0  3  0  0  0  0  0  0
  188.1440  177.6020  142.1120 C   0  0  0  0  0  0  0  0  0  0  0  0
  189.9900  176.9970  140.1350 C   0  0  0  0  0  3  0  0  0  0  0  0
  184.7600  178.9330  144.2040 C   0  0  0  0  0  3  0  0  0  0  0  0
  187.9200  177.9070  140.7750 C   0  0  0  0  0  0  0  0  0  0  0  0
  188.8190  177.6140  139.8030 N   0  0  0  0  0  0  0  0  0  0  0  0
  185.6470  178.1940  146.4260 C   0  0  0  0  0  0  0  0  0  0  0  0
  184.5550  178.4340  147.0040 O   0  0  0  0  0  0  0  0  0  0  0  0
  187.9940  177.1260  145.1540 C   0  0  0  0  0  2  0  0  0  0  0  0
  190.2680  176.6670  141.4740 C   0  0  0  0  0  3  0  0  0  0  0  0
  186.0550  178.6080  142.2130 C   0  0  0  0  0  0  0  0  0  0  0  0
  186.4310  178.6650  140.5670 S   0  0  0  0  0  0  0  0  0  0  0  0
  186.7770  177.7630  147.1870 N   0  0  0  0  0  2  0  0  0  0  0  0
  189.3350  176.9720  142.4760 C   0  0  0  0  0  3  0  0  0  0  0  0
  188.0970  177.7070  146.5680 C   0  0  1  0  0  3  0  0  0  0  0  0
  185.7800  178.3280  144.9640 C   0  0  0  0  0  0  0  0  0  0  0  0
  189.0270  176.8690  147.4240 C   0  0  0  0  0  2  0  0  0  0  0  0
  190.4170  177.4820  147.4520 C   0  0  0  0  0  2  0  0  0  0  0  0
  191.3880  176.5800  146.7670 C   0  0  0  0  0  0  0  0  0  0  0  0
  192.0330  175.7010  147.4610 N   0  0  0  0  0  2  0  0  0  0  0  0
  191.6740  176.7470  145.3350 C   0  0  0  0  0  0  0  0  0  0  0  0
  191.9270  175.6370  144.5390 O   0  0  0  0  0  0  0  0  0  0  0  0
  191.6950  177.8950  144.8190 O   0  0  0  0  0  1  0  0  0  0  0  0
  1  2  2  0  0  0  0
  2 18  1  0  0  0  0
  2 11  1  0  0  0  0
  3  6  1  0  0  0  0
  4 16  1  0  0  0  0
  4  1  1  0  0  0  0
  5 12  1  0  0  0  0
  6 18  2  0  0  0  0
  7  4  2  0  0  0  0
  8  5  2  0  0  0  0
  8  7  1  0  0  0  0
  9 10  2  0  0  0  0
  9 15  1  0  0  0  0
 11 17  1  0  0  0  0
 12 16  2  0  0  0  0
 13  3  2  0  0  0  0
 13  1  1  0  0  0  0
 14  7  1  0  0  0  0
 14 13  1  0  0  0  0
 17 15  1  0  0  0  0
 17 19  1  1  0  0  0
 18  9  1  0  0  0  0
 19 20  1  0  0  0  0
 21 20  1  0  0  0  0
 21 22  2  0  0  0  0
 23 21  1  0  0  0  0
 24 23  2  0  0  0  0
 25 23  1  0  0  0  0
M  END
>  <MODEL>
5

>  <REMARK>
 VINA RESULT:      -9.3      2.741      5.730
  Name = 
  4 active torsions:
  status: ('A' for Active; 'I' for Inactive)
    1  A    between atoms: C_2  and  CA_21
    2  A    between atoms: C_6  and  C_15
    3  A    between atoms: C_6  and  C_23
    4  A    between atoms: C_15  and  CA_21
                            x       y       z     vdW  Elec       q    Type
                         _______ _______ _______ _____ _____    ______ ____

>  <TORSDO>
F 4

$$$$
=
 OpenBabel10262419433D

 25 28  0  0  1  0  0  0  0  0999 V2000
  188.1400  177.7690  144.3140 C   0  0  0  0  0  0  0  0  0  0  0  0
  187.8910  178.0590  142.9570 C   0  0  0  0  0  0  0  0  0  0  0  0
  185.8330  178.3190  144.8990 C   0  0  0  0  0  3  0  0  0  0  0  0
  189.3400  177.3430  144.9100 C   0  0  0  0  0  0  0  0  0  0  0  0
  191.4630  176.4980  146.4780 C   0  0  0  0  0  3  0  0  0  0  0  0
  185.5780  178.6130  143.5540 C   0  0  0  0  0  3  0  0  0  0  0  0
  189.2150  177.1550  146.2810 C   0  0  0  0  0  0  0  0  0  0  0  0
  190.2500  176.7410  147.0530 N   0  0  0  0  0  0  0  0  0  0  0  0
  186.3190  178.7790  141.1670 C   0  0  0  0  0  0  0  0  0  0  0  0
  185.2430  179.3270  140.8130 O   0  0  0  0  0  0  0  0  0  0  0  0
  188.9880  178.0220  141.9240 C   0  0  0  0  0  2  0  0  0  0  0  0
  191.6440  176.6710  145.0930 C   0  0  0  0  0  3  0  0  0  0  0  0
  187.1120  177.9000  145.2520 C   0  0  0  0  0  0  0  0  0  0  0  0
  187.6520  177.5000  146.8020 S   0  0  0  0  0  0  0  0  0  0  0  0
  187.3070  178.4480  140.1880 N   0  0  0  0  0  2  0  0  0  0  0  0
  190.5700  177.0990  144.2980 C   0  0  0  0  0  3  0  0  0  0  0  0
  188.4450  177.6100  140.5520 C   0  0  1  0  0  3  0  0  0  0  0  0
  186.5940  178.4870  142.5860 C   0  0  0  0  0  0  0  0  0  0  0  0
  189.5240  177.7280  139.4920 C   0  0  0  0  0  2  0  0  0  0  0  0
  190.8630  177.2770  140.0490 C   0  0  0  0  0  2  0  0  0  0  0  0
  191.6280  176.5350  139.0060 C   0  0  0  0  0  0  0  0  0  0  0  0
  191.0420  175.5910  138.3440 N   0  0  0  0  0  2  0  0  0  0  0  0
  193.0560  176.8120  138.7930 C   0  0  0  0  0  0  0  0  0  0  0  0
  193.6030  176.7210  137.5190 O   0  0  0  0  0  0  0  0  0  0  0  0
  193.7940  177.1310  139.7620 O   0  0  0  0  0  1  0  0  0  0  0  0
  1  4  1  0  0  0  0
  1 13  2  0  0  0  0
  2  1  1  0  0  0  0
  3 13  1  0  0  0  0
  4  7  1  0  0  0  0
  5  8  1  0  0  0  0
  6  3  2  0  0  0  0
  7 14  1  0  0  0  0
  7  8  2  0  0  0  0
  9 18  1  0  0  0  0
 10  9  2  0  0  0  0
 11  2  1  0  0  0  0
 12  5  2  0  0  0  0
 13 14  1  0  0  0  0
 15 17  1  0  0  0  0
 15  9  1  0  0  0  0
 16  4  2  0  0  0  0
 16 12  1  0  0  0  0
 17 19  1  6  0  0  0
 17 11  1  0  0  0  0
 18  2  2  0  0  0  0
 18  6  1  0  0  0  0
 19 20  1  0  0  0  0
 21 20  1  0  0  0  0
 22 21  2  0  0  0  0
 23 21  1  0  0  0  0
 23 25  1  0  0  0  0
 24 23  2  0  0  0  0
M  END
>  <MODEL>
6

>  <REMARK>
 VINA RESULT:      -9.2      2.491      4.879
  Name = 
  4 active torsions:
  status: ('A' for Active; 'I' for Inactive)
    1  A    between atoms: C_2  and  CA_21
    2  A    between atoms: C_6  and  C_15
    3  A    between atoms: C_6  and  C_23
    4  A    between atoms: C_15  and  CA_21
                            x       y       z     vdW  Elec       q    Type
                         _______ _______ _______ _____ _____    ______ ____

>  <TORSDO>
F 4

$$$$
=
 OpenBabel10262419433D

 25 28  0  0  1  0  0  0  0  0999 V2000
  189.4900  177.3490  144.3460 C   0  0  0  0  0  0  0  0  0  0  0  0
  188.8740  177.5220  143.0910 C   0  0  0  0  0  0  0  0  0  0  0  0
  191.5970  176.7340  143.2760 C   0  0  0  0  0  3  0  0  0  0  0  0
  188.9280  177.5110  145.6250 C   0  0  0  0  0  0  0  0  0  0  0  0
  188.2380  177.7200  148.3010 C   0  0  0  0  0  3  0  0  0  0  0  0
  190.9920  176.9000  142.0250 C   0  0  0  0  0  3  0  0  0  0  0  0
  189.8370  177.2530  146.6430 C   0  0  0  0  0  0  0  0  0  0  0  0
  189.5060  177.3540  147.9540 N   0  0  0  0  0  0  0  0  0  0  0  0
  189.0120  177.4810  140.6060 C   0  0  0  0  0  0  0  0  0  0  0  0
  189.5930  177.1200  139.5500 O   0  0  0  0  0  0  0  0  0  0  0  0
  187.4060  177.8450  142.9640 C   0  0  0  0  0  2  0  0  0  0  0  0
  187.2780  177.9940  147.3100 C   0  0  0  0  0  3  0  0  0  0  0  0
  190.8320  176.9650  144.4160 C   0  0  0  0  0  0  0  0  0  0  0  0
  191.3400  176.8220  146.0200 S   0  0  0  0  0  0  0  0  0  0  0  0
  187.7110  178.0690  140.5400 N   0  0  0  0  0  2  0  0  0  0  0  0
  187.6250  177.8890  145.9550 C   0  0  0  0  0  3  0  0  0  0  0  0
  187.1310  178.6980  141.7230 C   0  0  1  0  0  3  0  0  0  0  0  0
  189.6420  177.2890  141.9250 C   0  0  0  0  0  0  0  0  0  0  0  0
  185.6390  178.8850  141.5220 C   0  0  0  0  0  2  0  0  0  0  0  0
  184.9850  179.3370  142.8150 C   0  0  0  0  0  2  0  0  0  0  0  0
  183.5770  178.8490  142.8750 C   0  0  0  0  0  0  0  0  0  0  0  0
  182.9920  178.4700  141.7850 N   0  0  0  0  0  2  0  0  0  0  0  0
  182.8320  178.8800  144.1420 C   0  0  0  0  0  0  0  0  0  0  0  0
  181.4620  178.6490  144.1530 O   0  0  0  0  0  0  0  0  0  0  0  0
  183.4280  179.1180  145.2250 O   0  0  0  0  0  1  0  0  0  0  0  0
  1 13  2  0  0  0  0
  1  4  1  0  0  0  0
  2  1  1  0  0  0  0
  3 13  1  0  0  0  0
  4 16  2  0  0  0  0
  4  7  1  0  0  0  0
  6  3  2  0  0  0  0
  7  8  2  0  0  0  0
  8  5  1  0  0  0  0
  9 18  1  0  0  0  0
 10  9  2  0  0  0  0
 11  2  1  0  0  0  0
 12  5  2  0  0  0  0
 13 14  1  0  0  0  0
 14  7  1  0  0  0  0
 15  9  1  0  0  0  0
 15 17  1  0  0  0  0
 16 12  1  0  0  0  0
 17 19  1  6  0  0  0
 17 11  1  0  0  0  0
 18  6  1  0  0  0  0
 18  2  2  0  0  0  0
 19 20  1  0  0  0  0
 20 21  1  0  0  0  0
 21 23  1  0  0  0  0
 22 21  2  0  0  0  0
 23 24  2  0  0  0  0
 23 25  1  0  0  0  0
M  END
>  <MODEL>
7

>  <REMARK>
 VINA RESULT:      -9.1      2.854      5.766
  Name = 
  4 active torsions:
  status: ('A' for Active; 'I' for Inactive)
    1  A    between atoms: C_2  and  CA_21
    2  A    between atoms: C_6  and  C_15
    3  A    between atoms: C_6  and  C_23
    4  A    between atoms: C_15  and  CA_21
                            x       y       z     vdW  Elec       q    Type
                         _______ _______ _______ _____ _____    ______ ____

>  <TORSDO>
F 4

$$$$
=
 OpenBabel10262419433D

 25 28  0  0  1  0  0  0  0  0999 V2000
  189.3800  177.3870  144.0900 C   0  0  0  0  0  0  0  0  0  0  0  0
  188.6910  177.6250  142.8840 C   0  0  0  0  0  0  0  0  0  0  0  0
  191.4400  176.9060  142.8720 C   0  0  0  0  0  3  0  0  0  0  0  0
  188.8840  177.4490  145.4050 C   0  0  0  0  0  0  0  0  0  0  0  0
  188.3370  177.4610  148.1220 C   0  0  0  0  0  3  0  0  0  0  0  0
  190.7640  177.1350  141.6670 C   0  0  0  0  0  3  0  0  0  0  0  0
  189.8540  177.1510  146.3540 C   0  0  0  0  0  0  0  0  0  0  0  0
  189.5930  177.1560  147.6850 N   0  0  0  0  0  0  0  0  0  0  0  0
  188.6940  177.7500  140.3980 C   0  0  0  0  0  0  0  0  0  0  0  0
  189.2260  177.4770  139.2900 O   0  0  0  0  0  0  0  0  0  0  0  0
  187.2120  177.9120  142.8570 C   0  0  0  0  0  2  0  0  0  0  0  0
  187.3180  177.7720  147.2030 C   0  0  0  0  0  3  0  0  0  0  0  0
  190.7330  177.0380  144.0620 C   0  0  0  0  0  0  0  0  0  0  0  0
  191.3310  176.8060  145.6240 S   0  0  0  0  0  0  0  0  0  0  0  0
  187.3770  178.3040  140.4400 N   0  0  0  0  0  2  0  0  0  0  0  0
  187.5920  177.7660  145.8280 C   0  0  0  0  0  3  0  0  0  0  0  0
  186.8470  178.8370  141.6910 C   0  0  1  0  0  3  0  0  0  0  0  0
  189.4010  177.4910  141.6660 C   0  0  0  0  0  0  0  0  0  0  0  0
  185.3420  178.9930  141.5830 C   0  0  0  0  0  2  0  0  0  0  0  0
  184.6420  178.0210  142.5160 C   0  0  0  0  0  2  0  0  0  0  0  0
  183.6800  178.7540  143.3900 C   0  0  0  0  0  0  0  0  0  0  0  0
  182.4890  179.0010  142.9510 N   0  0  0  0  0  2  0  0  0  0  0  0
  184.1070  179.2660  144.6990 C   0  0  0  0  0  0  0  0  0  0  0  0
  185.2540  180.0430  144.8060 O   0  0  0  0  0  0  0  0  0  0  0  0
  183.4400  179.0030  145.7340 O   0  0  0  0  0  1  0  0  0  0  0  0
  1  4  1  0  0  0  0
  2  1  1  0  0  0  0
  3 13  1  0  0  0  0
  4 16  2  0  0  0  0
  4  7  1  0  0  0  0
  6  3  2  0  0  0  0
  7  8  2  0  0  0  0
  8  5  1  0  0  0  0
  9 15  1  0  0  0  0
  9 18  1  0  0  0  0
 10  9  2  0  0  0  0
 11  2  1  0  0  0  0
 12  5  2  0  0  0  0
 13  1  2  0  0  0  0
 13 14  1  0  0  0  0
 14  7  1  0  0  0  0
 15 17  1  0  0  0  0
 16 12  1  0  0  0  0
 17 19  1  6  0  0  0
 17 11  1  0  0  0  0
 18  6  1  0  0  0  0
 18  2  2  0  0  0  0
 19 20  1  0  0  0  0
 20 21  1  0  0  0  0
 21 23  1  0  0  0  0
 22 21  2  0  0  0  0
 23 24  2  0  0  0  0
 23 25  1  0  0  0  0
M  END
>  <MODEL>
8

>  <REMARK>
 VINA RESULT:      -9.1      2.639      5.797
  Name = 
  4 active torsions:
  status: ('A' for Active; 'I' for Inactive)
    1  A    between atoms: C_2  and  CA_21
    2  A    between atoms: C_6  and  C_15
    3  A    between atoms: C_6  and  C_23
    4  A    between atoms: C_15  and  CA_21
                            x       y       z     vdW  Elec       q    Type
                         _______ _______ _______ _____ _____    ______ ____

>  <TORSDO>
F 4

$$$$
=
 OpenBabel10262419433D

 25 28  0  0  1  0  0  0  0  0999 V2000
  185.9220  178.3610  144.4640 C   0  0  0  0  0  0  0  0  0  0  0  0
  187.0350  177.9650  145.2330 C   0  0  0  0  0  0  0  0  0  0  0  0
  184.5690  178.6300  146.4780 C   0  0  0  0  0  3  0  0  0  0  0  0
  185.8270  178.4850  143.0660 C   0  0  0  0  0  0  0  0  0  0  0  0
  185.2060  178.8660  140.3920 C   0  0  0  0  0  3  0  0  0  0  0  0
  185.6670  178.2330  147.2510 C   0  0  0  0  0  3  0  0  0  0  0  0
  184.5670  178.9010  142.6540 C   0  0  0  0  0  0  0  0  0  0  0  0
  184.2570  179.0900  141.3470 N   0  0  0  0  0  0  0  0  0  0  0  0
  188.0540  177.5020  147.4560 C   0  0  0  0  0  0  0  0  0  0  0  0
  187.9320  177.2610  148.6860 O   0  0  0  0  0  0  0  0  0  0  0  0
  188.3230  177.5150  144.5930 C   0  0  0  0  0  2  0  0  0  0  0  0
  186.4980  178.4440  140.7550 C   0  0  0  0  0  3  0  0  0  0  0  0
  184.7200  178.6870  145.0960 C   0  0  0  0  0  0  0  0  0  0  0  0
  183.5410  179.1270  143.9690 S   0  0  0  0  0  0  0  0  0  0  0  0
  189.3300  177.3700  146.8260 N   0  0  0  0  0  2  0  0  0  0  0  0
  186.8150  178.2510  142.1080 C   0  0  0  0  0  3  0  0  0  0  0  0
  189.5300  177.8660  145.4680 C   0  0  1  0  0  3  0  0  0  0  0  0
  186.8930  177.9010  146.6410 C   0  0  0  0  0  0  0  0  0  0  0  0
  190.8010  177.2730  144.8900 C   0  0  0  0  0  2  0  0  0  0  0  0
  191.0730  177.8480  143.5110 C   0  0  0  0  0  2  0  0  0  0  0  0
  190.7970  176.8210  142.4650 C   0  0  0  0  0  0  0  0  0  0  0  0
  190.5650  175.6000  142.8230 N   0  0  0  0  0  2  0  0  0  0  0  0
  190.8760  177.1720  141.0400 C   0  0  0  0  0  0  0  0  0  0  0  0
  192.0990  177.5010  140.4680 O   0  0  0  0  0  1  0  0  0  0  0  0
  189.8380  177.1810  140.3280 O   0  0  0  0  0  0  0  0  0  0  0  0
  1 13  1  0  0  0  0
  1  2  2  0  0  0  0
  2 18  1  0  0  0  0
  3  6  1  0  0  0  0
  4  1  1  0  0  0  0
  5 12  2  0  0  0  0
  5  8  1  0  0  0  0
  7  4  1  0  0  0  0
  7 14  1  0  0  0  0
  8  7  2  0  0  0  0
  9 10  2  0  0  0  0
 11  2  1  0  0  0  0
 11 17  1  0  0  0  0
 12 16  1  0  0  0  0
 13  3  2  0  0  0  0
 14 13  1  0  0  0  0
 15  9  1  0  0  0  0
 16  4  2  0  0  0  0
 17 19  1  6  0  0  0
 17 15  1  0  0  0  0
 18  6  2  0  0  0  0
 18  9  1  0  0  0  0
 20 19  1  0  0  0  0
 21 22  2  0  0  0  0
 21 20  1  0  0  0  0
 23 21  1  0  0  0  0
 24 23  1  0  0  0  0
 25 23  2  0  0  0  0
M  END
>  <MODEL>
9

>  <REMARK>
 VINA RESULT:      -9.0      2.065      3.017
  Name = 
  4 active torsions:
  status: ('A' for Active; 'I' for Inactive)
    1  A    between atoms: C_2  and  CA_21
    2  A    between atoms: C_6  and  C_15
    3  A    between atoms: C_6  and  C_23
    4  A    between atoms: C_15  and  CA_21
                            x       y       z     vdW  Elec       q    Type
                         _______ _______ _______ _____ _____    ______ ____

>  <TORSDO>
F 4

$$$$
