=
 OpenBabel10262423293D

 34 39  0  0  0  0  0  0  0  0999 V2000
  187.7730  177.8380  142.5680 C   0  0  0  0  0  3  0  0  0  0  0  0
  184.7450  178.4750  144.7490 C   0  0  0  0  0  0  0  0  0  0  0  0
  185.3760  178.3510  146.0770 C   0  0  0  0  0  0  0  0  0  0  0  0
  189.6900  177.4460  143.9350 N   0  0  0  0  0  0  0  0  0  0  0  0
  186.9780  178.0070  143.7090 C   0  0  0  0  0  0  0  0  0  0  0  0
  188.9550  177.6030  145.0670 C   0  0  0  0  0  0  0  0  0  0  0  0
  188.8160  177.6440  147.4840 C   0  0  0  0  0  3  0  0  0  0  0  0
  189.5670  177.4820  146.3160 C   0  0  0  0  0  3  0  0  0  0  0  0
  189.1410  177.5540  142.6930 C   0  0  0  0  0  0  0  0  0  0  0  0
  186.8190  178.0520  146.1610 C   0  0  0  0  0  0  0  0  0  0  0  0
  187.5750  177.8890  144.9800 C   0  0  0  0  0  0  0  0  0  0  0  0
  187.4510  177.9260  147.4070 C   0  0  0  0  0  3  0  0  0  0  0  0
  183.3780  178.7590  144.6340 C   0  0  0  0  0  3  0  0  0  0  0  0
  182.7830  178.8710  143.3740 C   0  0  0  0  0  0  0  0  0  0  0  0
  183.5570  178.7160  142.2210 C   0  0  0  0  0  3  0  0  0  0  0  0
  184.6910  178.4980  147.1270 O   0  0  0  0  0  0  0  0  0  0  0  0
  184.9210  178.4330  142.3270 C   0  0  0  0  0  3  0  0  0  0  0  0
  185.5270  178.3080  143.5870 C   0  0  0  0  0  0  0  0  0  0  0  0
  192.2540  177.3740  140.3860 C   0  0  0  0  0  2  0  0  0  0  0  0
  189.3590  177.0170  140.2020 C   0  0  0  0  0  3  0  0  0  0  0  0
  190.9780  176.2750  137.1500 C   0  0  0  0  0  0  0  0  0  0  0  0
  192.0240  176.4910  137.9590 C   0  0  0  0  0  3  0  0  0  0  0  0
  191.5480  176.7400  139.2790 N   0  0  0  0  0  0  0  0  0  0  0  0
  189.7340  176.4210  137.8500 N   0  0  0  0  0  0  0  0  0  0  0  0
  190.1430  176.7180  139.1720 C   0  0  0  0  0  0  0  0  0  0  0  0
  188.4130  175.9820  137.4260 C   0  0  0  0  0  1  0  0  0  0  0  0
  189.9930  177.3710  141.4970 C   0  0  0  0  0  0  0  0  0  0  0  0
  191.3360  177.5030  141.5830 C   0  0  0  0  0  3  0  0  0  0  0  0
  191.0970  175.9700  135.7150 C   0  0  0  0  0  0  0  0  0  0  0  0
  190.4310  176.7430  134.7730 O   0  0  0  0  0  0  0  0  0  0  0  0
  191.8100  175.0060  135.3280 O   0  0  0  0  0  1  0  0  0  0  0  0
  181.3360  179.1970  143.2600 C   0  0  0  0  0  2  0  0  0  0  0  0
  180.6300  178.5700  144.2870 O   0  0  0  0  0  0  0  0  0  0  0  0
  179.3190  179.0220  144.1360 C   0  0  0  0  0  1  0  0  0  0  0  0
  1  9  2  0  0  0  0
  1  5  1  0  0  0  0
  2  3  1  0  0  0  0
  3 10  1  0  0  0  0
  3 16  2  0  0  0  0
  4  6  2  0  0  0  0
  5 11  2  0  0  0  0
  6  8  1  0  0  0  0
  8  7  2  0  0  0  0
  9  4  1  0  0  0  0
 10 12  2  0  0  0  0
 11  6  1  0  0  0  0
 11 10  1  0  0  0  0
 12  7  1  0  0  0  0
 13  2  1  0  0  0  0
 14 13  2  0  0  0  0
 15 17  2  0  0  0  0
 15 14  1  0  0  0  0
 17 18  1  0  0  0  0
 18  5  1  0  0  0  0
 18  2  2  0  0  0  0
 19 28  1  0  0  0  0
 20 27  1  0  0  0  0
 21 24  1  0  0  0  0
 21 22  2  0  0  0  0
 22 23  1  0  0  0  0
 23 19  1  0  0  0  0
 24 25  1  0  0  0  0
 25 23  1  0  0  0  0
 25 20  2  0  0  0  0
 26 24  1  0  0  0  0
 27 28  2  0  0  0  0
 27  9  1  0  0  0  0
 29 21  1  0  0  0  0
 30 29  2  0  0  0  0
 31 29  1  0  0  0  0
 32 14  1  0  0  0  0
 32 33  1  0  0  0  0
 34 33  1  0  0  0  0
M  END
>  <MODEL>
1

>  <REMARK>
 VINA RESULT:     -11.7      0.000      0.000
  Name = 
  4 active torsions:
  status: ('A' for Active; 'I' for Inactive)
    1  A    between atoms: C_3  and  O_13
    2  A    between atoms: C_3  and  C_25
    3  A    between atoms: C_7  and  C_11
    4  A    between atoms: C_18  and  C_30
                            x       y       z     vdW  Elec       q    Type
                         _______ _______ _______ _____ _____    ______ ____

>  <TORSDO>
F 4

$$$$
=
 OpenBabel10262423293D

 34 39  0  0  0  0  0  0  0  0999 V2000
  186.6520  178.0180  143.2400 C   0  0  0  0  0  3  0  0  0  0  0  0
  190.3870  177.4090  143.3230 C   0  0  0  0  0  0  0  0  0  0  0  0
  190.5850  177.3320  144.7830 C   0  0  0  0  0  0  0  0  0  0  0  0
  185.7920  178.0920  145.4660 N   0  0  0  0  0  0  0  0  0  0  0  0
  187.9440  177.7940  143.7330 C   0  0  0  0  0  0  0  0  0  0  0  0
  187.0290  177.8750  145.9850 C   0  0  0  0  0  0  0  0  0  0  0  0
  188.4690  177.5820  147.9100 C   0  0  0  0  0  3  0  0  0  0  0  0
  187.2000  177.8050  147.3690 C   0  0  0  0  0  3  0  0  0  0  0  0
  185.5720  178.1680  144.1240 C   0  0  0  0  0  0  0  0  0  0  0  0
  189.4200  177.4950  145.6750 C   0  0  0  0  0  0  0  0  0  0  0  0
  188.1400  177.7200  145.1270 C   0  0  0  0  0  0  0  0  0  0  0  0
  189.5730  177.4280  147.0680 C   0  0  0  0  0  3  0  0  0  0  0  0
  191.4710  177.2580  142.4480 C   0  0  0  0  0  3  0  0  0  0  0  0
  191.2800  177.3360  141.0660 C   0  0  0  0  0  0  0  0  0  0  0  0
  189.9990  177.5500  140.5500 C   0  0  0  0  0  3  0  0  0  0  0  0
  191.7350  177.1300  145.2630 O   0  0  0  0  0  0  0  0  0  0  0  0
  188.9130  177.7010  141.4150 C   0  0  0  0  0  3  0  0  0  0  0  0
  189.0940  177.6340  142.8050 C   0  0  0  0  0  0  0  0  0  0  0  0
  181.7670  178.9120  144.0180 C   0  0  0  0  0  2  0  0  0  0  0  0
  183.9470  178.3390  142.1570 C   0  0  0  0  0  3  0  0  0  0  0  0
  180.9210  179.0380  140.4730 C   0  0  0  0  0  0  0  0  0  0  0  0
  180.5770  179.2830  141.7450 C   0  0  0  0  0  3  0  0  0  0  0  0
  181.7230  179.1160  142.5760 N   0  0  0  0  0  0  0  0  0  0  0  0
  182.2930  178.6360  140.3660 N   0  0  0  0  0  0  0  0  0  0  0  0
  182.7480  178.6930  141.7050 C   0  0  0  0  0  0  0  0  0  0  0  0
  183.1180  178.5790  139.1690 C   0  0  0  0  0  1  0  0  0  0  0  0
  184.2030  178.4070  143.6190 C   0  0  0  0  0  0  0  0  0  0  0  0
  183.1960  178.7040  144.4720 C   0  0  0  0  0  3  0  0  0  0  0  0
  179.9870  179.1310  139.3370 C   0  0  0  0  0  0  0  0  0  0  0  0
  179.9550  180.2700  138.5440 O   0  0  0  0  0  0  0  0  0  0  0  0
  179.2120  178.1730  139.0740 O   0  0  0  0  0  1  0  0  0  0  0  0
  192.4330  177.1500  140.1430 C   0  0  0  0  0  2  0  0  0  0  0  0
  191.9700  176.7790  138.8810 O   0  0  0  0  0  0  0  0  0  0  0  0
  193.1190  176.4150  138.1810 C   0  0  0  0  0  1  0  0  0  0  0  0
  1  5  2  0  0  0  0
  1  9  1  0  0  0  0
  2  3  1  0  0  0  0
  3 16  2  0  0  0  0
  3 10  1  0  0  0  0
  4  6  1  0  0  0  0
  5 11  1  0  0  0  0
  6  8  1  0  0  0  0
  8  7  2  0  0  0  0
  9  4  2  0  0  0  0
 10 12  2  0  0  0  0
 11 10  1  0  0  0  0
 11  6  2  0  0  0  0
 12  7  1  0  0  0  0
 13  2  2  0  0  0  0
 14 13  1  0  0  0  0
 15 14  2  0  0  0  0
 15 17  1  0  0  0  0
 17 18  2  0  0  0  0
 18  2  1  0  0  0  0
 18  5  1  0  0  0  0
 19 28  1  0  0  0  0
 20 27  1  0  0  0  0
 21 22  2  0  0  0  0
 22 23  1  0  0  0  0
 23 19  1  0  0  0  0
 24 21  1  0  0  0  0
 24 25  1  0  0  0  0
 25 20  2  0  0  0  0
 25 23  1  0  0  0  0
 26 24  1  0  0  0  0
 27  9  1  0  0  0  0
 27 28  2  0  0  0  0
 29 21  1  0  0  0  0
 30 29  2  0  0  0  0
 31 29  1  0  0  0  0
 32 14  1  0  0  0  0
 33 32  1  0  0  0  0
 34 33  1  0  0  0  0
M  END
>  <MODEL>
2

>  <REMARK>
 VINA RESULT:     -10.9      3.178      8.111
  Name = 
  4 active torsions:
  status: ('A' for Active; 'I' for Inactive)
    1  A    between atoms: C_3  and  O_13
    2  A    between atoms: C_3  and  C_25
    3  A    between atoms: C_7  and  C_11
    4  A    between atoms: C_18  and  C_30
                            x       y       z     vdW  Elec       q    Type
                         _______ _______ _______ _____ _____    ______ ____

>  <TORSDO>
F 4

$$$$
=
 OpenBabel10262423293D

 34 39  0  0  0  0  0  0  0  0999 V2000
  187.2530  177.7210  142.0090 C   0  0  0  0  0  3  0  0  0  0  0  0
  184.5850  178.5330  144.5680 C   0  0  0  0  0  0  0  0  0  0  0  0
  185.3910  178.4210  145.7990 C   0  0  0  0  0  0  0  0  0  0  0  0
  189.3290  177.2930  143.1080 N   0  0  0  0  0  0  0  0  0  0  0  0
  186.6330  177.9520  143.2440 C   0  0  0  0  0  0  0  0  0  0  0  0
  188.7650  177.5090  144.3250 C   0  0  0  0  0  0  0  0  0  0  0  0
  188.9680  177.6210  146.7360 C   0  0  0  0  0  3  0  0  0  0  0  0
  189.5420  177.3990  145.4810 C   0  0  0  0  0  3  0  0  0  0  0  0
  188.6150  177.3880  141.9510 C   0  0  0  0  0  0  0  0  0  0  0  0
  186.8210  178.0690  145.6910 C   0  0  0  0  0  0  0  0  0  0  0  0
  187.3970  177.8460  144.4230 C   0  0  0  0  0  0  0  0  0  0  0  0
  187.6160  177.9540  146.8400 C   0  0  0  0  0  3  0  0  0  0  0  0
  183.2250  178.8660  144.6350 C   0  0  0  0  0  3  0  0  0  0  0  0
  182.4640  178.9670  143.4680 C   0  0  0  0  0  0  0  0  0  0  0  0
  183.0630  178.7500  142.2240 C   0  0  0  0  0  3  0  0  0  0  0  0
  184.8650  178.6240  146.9280 O   0  0  0  0  0  0  0  0  0  0  0  0
  184.4180  178.4180  142.1480 C   0  0  0  0  0  3  0  0  0  0  0  0
  185.1900  178.3050  143.3140 C   0  0  0  0  0  0  0  0  0  0  0  0
  189.1880  176.7750  138.1650 C   0  0  0  0  0  2  0  0  0  0  0  0
  190.7610  176.9890  140.6190 C   0  0  0  0  0  3  0  0  0  0  0  0
  192.8100  176.6020  137.7660 C   0  0  0  0  0  0  0  0  0  0  0  0
  191.5970  176.7130  137.2080 C   0  0  0  0  0  3  0  0  0  0  0  0
  190.6340  176.9510  138.2300 N   0  0  0  0  0  0  0  0  0  0  0  0
  192.7410  176.6980  139.1960 N   0  0  0  0  0  0  0  0  0  0  0  0
  191.3620  176.9070  139.4370 C   0  0  0  0  0  0  0  0  0  0  0  0
  193.8320  176.9290  140.1300 C   0  0  0  0  0  1  0  0  0  0  0  0
  189.2840  177.1400  140.6560 C   0  0  0  0  0  0  0  0  0  0  0  0
  188.5650  177.0710  139.5120 C   0  0  0  0  0  3  0  0  0  0  0  0
  194.0480  176.3680  137.0040 C   0  0  0  0  0  0  0  0  0  0  0  0
  194.7980  175.2190  137.2170 O   0  0  0  0  0  1  0  0  0  0  0  0
  194.4340  177.2080  136.1480 O   0  0  0  0  0  0  0  0  0  0  0  0
  181.0270  179.3450  143.5460 C   0  0  0  0  0  2  0  0  0  0  0  0
  180.6770  180.0960  142.4240 O   0  0  0  0  0  0  0  0  0  0  0  0
  179.3340  180.4160  142.6240 C   0  0  0  0  0  1  0  0  0  0  0  0
  1  5  1  0  0  0  0
  2 13  1  0  0  0  0
  2  3  1  0  0  0  0
  3 16  2  0  0  0  0
  4  6  2  0  0  0  0
  5 18  1  0  0  0  0
  5 11  2  0  0  0  0
  6 11  1  0  0  0  0
  6  8  1  0  0  0  0
  7 12  1  0  0  0  0
  8  7  2  0  0  0  0
  9  1  2  0  0  0  0
  9  4  1  0  0  0  0
 10  3  1  0  0  0  0
 10 12  2  0  0  0  0
 11 10  1  0  0  0  0
 14 32  1  0  0  0  0
 14 13  2  0  0  0  0
 15 14  1  0  0  0  0
 17 15  2  0  0  0  0
 17 18  1  0  0  0  0
 18  2  2  0  0  0  0
 19 23  1  0  0  0  0
 19 28  1  0  0  0  0
 20 27  1  0  0  0  0
 21 24  1  0  0  0  0
 22 21  2  0  0  0  0
 22 23  1  0  0  0  0
 23 25  1  0  0  0  0
 24 25  1  0  0  0  0
 24 26  1  0  0  0  0
 25 20  2  0  0  0  0
 27  9  1  0  0  0  0
 28 27  2  0  0  0  0
 29 30  1  0  0  0  0
 29 21  1  0  0  0  0
 31 29  2  0  0  0  0
 33 34  1  0  0  0  0
 33 32  1  0  0  0  0
M  END
>  <MODEL>
3

>  <REMARK>
 VINA RESULT:     -10.8      1.345      2.128
  Name = 
  4 active torsions:
  status: ('A' for Active; 'I' for Inactive)
    1  A    between atoms: C_3  and  O_13
    2  A    between atoms: C_3  and  C_25
    3  A    between atoms: C_7  and  C_11
    4  A    between atoms: C_18  and  C_30
                            x       y       z     vdW  Elec       q    Type
                         _______ _______ _______ _____ _____    ______ ____

>  <TORSDO>
F 4

$$$$
=
 OpenBabel10262423293D

 34 39  0  0  0  0  0  0  0  0999 V2000
  188.7870  177.3830  142.7380 C   0  0  0  0  0  3  0  0  0  0  0  0
  189.2130  177.2010  146.4940 C   0  0  0  0  0  0  0  0  0  0  0  0
  187.8730  177.6580  146.9110 C   0  0  0  0  0  0  0  0  0  0  0  0
  186.5880  178.1460  142.2060 N   0  0  0  0  0  0  0  0  0  0  0  0
  188.5000  177.4690  144.1060 C   0  0  0  0  0  0  0  0  0  0  0  0
  186.2690  178.2430  143.5230 C   0  0  0  0  0  0  0  0  0  0  0  0
  184.6620  178.7790  145.2530 C   0  0  0  0  0  3  0  0  0  0  0  0
  184.9970  178.6780  143.9010 C   0  0  0  0  0  3  0  0  0  0  0  0
  187.8150  177.7270  141.7860 C   0  0  0  0  0  0  0  0  0  0  0  0
  186.8810  178.0090  145.8750 C   0  0  0  0  0  0  0  0  0  0  0  0
  187.2220  177.9050  144.5100 C   0  0  0  0  0  0  0  0  0  0  0  0
  185.5990  178.4470  146.2350 C   0  0  0  0  0  3  0  0  0  0  0  0
  190.1780  176.8590  147.4520 C   0  0  0  0  0  3  0  0  0  0  0  0
  191.4470  176.4310  147.0540 C   0  0  0  0  0  0  0  0  0  0  0  0
  191.7540  176.3280  145.6940 C   0  0  0  0  0  3  0  0  0  0  0  0
  187.5800  177.7470  148.1340 O   0  0  0  0  0  0  0  0  0  0  0  0
  190.7990  176.6660  144.7340 C   0  0  0  0  0  3  0  0  0  0  0  0
  189.5240  177.1060  145.1220 C   0  0  0  0  0  0  0  0  0  0  0  0
  187.5270  178.1790  137.9450 C   0  0  0  0  0  2  0  0  0  0  0  0
  189.2920  176.8800  139.8790 C   0  0  0  0  0  3  0  0  0  0  0  0
  190.5010  176.5740  136.5730 C   0  0  0  0  0  0  0  0  0  0  0  0
  189.4450  177.3780  136.3940 C   0  0  0  0  0  3  0  0  0  0  0  0
  188.8640  177.6720  137.6620 N   0  0  0  0  0  0  0  0  0  0  0  0
  190.6690  176.2250  137.9540 N   0  0  0  0  0  0  0  0  0  0  0  0
  189.6190  176.9280  138.5910 C   0  0  0  0  0  0  0  0  0  0  0  0
  191.8380  175.6400  138.5920 C   0  0  0  0  0  1  0  0  0  0  0  0
  188.1030  177.6420  140.3380 C   0  0  0  0  0  0  0  0  0  0  0  0
  187.3080  178.2680  139.4400 C   0  0  0  0  0  3  0  0  0  0  0  0
  191.3520  176.0790  135.4770 C   0  0  0  0  0  0  0  0  0  0  0  0
  192.6890  176.4450  135.4040 O   0  0  0  0  0  1  0  0  0  0  0  0
  190.8730  175.3150  134.5980 O   0  0  0  0  0  0  0  0  0  0  0  0
  192.4580  176.0460  148.0760 C   0  0  0  0  0  2  0  0  0  0  0  0
  192.7610  177.1470  148.8760 O   0  0  0  0  0  0  0  0  0  0  0  0
  193.5960  176.6370  149.8700 C   0  0  0  0  0  1  0  0  0  0  0  0
  1  5  1  0  0  0  0
  2  3  1  0  0  0  0
  2 13  1  0  0  0  0
  3 16  2  0  0  0  0
  4  6  2  0  0  0  0
  5 11  2  0  0  0  0
  5 18  1  0  0  0  0
  6  8  1  0  0  0  0
  6 11  1  0  0  0  0
  7 12  1  0  0  0  0
  8  7  2  0  0  0  0
  9  4  1  0  0  0  0
  9  1  2  0  0  0  0
 10 12  2  0  0  0  0
 10  3  1  0  0  0  0
 11 10  1  0  0  0  0
 14 13  2  0  0  0  0
 14 32  1  0  0  0  0
 15 14  1  0  0  0  0
 17 18  1  0  0  0  0
 17 15  2  0  0  0  0
 18  2  2  0  0  0  0
 19 28  1  0  0  0  0
 20 27  1  0  0  0  0
 21 24  1  0  0  0  0
 22 21  2  0  0  0  0
 22 23  1  0  0  0  0
 23 19  1  0  0  0  0
 23 25  1  0  0  0  0
 24 25  1  0  0  0  0
 24 26  1  0  0  0  0
 25 20  2  0  0  0  0
 27  9  1  0  0  0  0
 28 27  2  0  0  0  0
 29 21  1  0  0  0  0
 30 29  1  0  0  0  0
 31 29  2  0  0  0  0
 32 33  1  0  0  0  0
 33 34  1  0  0  0  0
M  END
>  <MODEL>
4

>  <REMARK>
 VINA RESULT:     -10.3      2.352      5.682
  Name = 
  4 active torsions:
  status: ('A' for Active; 'I' for Inactive)
    1  A    between atoms: C_3  and  O_13
    2  A    between atoms: C_3  and  C_25
    3  A    between atoms: C_7  and  C_11
    4  A    between atoms: C_18  and  C_30
                            x       y       z     vdW  Elec       q    Type
                         _______ _______ _______ _____ _____    ______ ____

>  <TORSDO>
F 4

$$$$
=
 OpenBabel10262423293D

 34 39  0  0  0  0  0  0  0  0999 V2000
  186.7130  177.8730  142.5380 C   0  0  0  0  0  3  0  0  0  0  0  0
  190.3600  177.1170  141.8630 C   0  0  0  0  0  0  0  0  0  0  0  0
  190.8430  177.0050  143.2530 C   0  0  0  0  0  0  0  0  0  0  0  0
  186.3190  177.9380  144.8920 N   0  0  0  0  0  0  0  0  0  0  0  0
  188.0670  177.5890  142.7600 C   0  0  0  0  0  0  0  0  0  0  0  0
  187.6250  177.6630  145.1500 C   0  0  0  0  0  0  0  0  0  0  0  0
  189.4070  177.2780  146.7430 C   0  0  0  0  0  3  0  0  0  0  0  0
  188.0660  177.5610  146.4710 C   0  0  0  0  0  3  0  0  0  0  0  0
  185.8380  178.0480  143.6220 C   0  0  0  0  0  0  0  0  0  0  0  0
  189.8880  177.1960  144.3620 C   0  0  0  0  0  0  0  0  0  0  0  0
  188.5340  177.4810  144.0850 C   0  0  0  0  0  0  0  0  0  0  0  0
  190.3130  177.0970  145.6950 C   0  0  0  0  0  3  0  0  0  0  0  0
  191.2400  176.9410  140.7870 C   0  0  0  0  0  3  0  0  0  0  0  0
  190.7800  177.0520  139.4720 C   0  0  0  0  0  0  0  0  0  0  0  0
  189.4320  177.3260  139.2260 C   0  0  0  0  0  3  0  0  0  0  0  0
  192.0560  176.7500  143.4900 O   0  0  0  0  0  0  0  0  0  0  0  0
  188.5470  177.5020  140.2930 C   0  0  0  0  0  3  0  0  0  0  0  0
  189.0000  177.4020  141.6180 C   0  0  0  0  0  0  0  0  0  0  0  0
  182.1240  178.9400  144.2900 C   0  0  0  0  0  2  0  0  0  0  0  0
  183.8610  178.3190  142.0230 C   0  0  0  0  0  3  0  0  0  0  0  0
  180.5910  179.1680  140.9880 C   0  0  0  0  0  0  0  0  0  0  0  0
  180.5200  179.4010  142.3060 C   0  0  0  0  0  3  0  0  0  0  0  0
  181.8010  179.1730  142.8880 N   0  0  0  0  0  0  0  0  0  0  0  0
  181.8970  178.7150  140.6040 N   0  0  0  0  0  0  0  0  0  0  0  0
  182.6120  178.7280  141.8250 C   0  0  0  0  0  0  0  0  0  0  0  0
  182.4620  178.6490  139.2650 C   0  0  0  0  0  1  0  0  0  0  0  0
  184.4070  178.3490  143.4040 C   0  0  0  0  0  0  0  0  0  0  0  0
  183.6050  178.6680  144.4460 C   0  0  0  0  0  3  0  0  0  0  0  0
  179.4550  179.3180  140.0640 C   0  0  0  0  0  0  0  0  0  0  0  0
  178.9390  178.2150  139.3970 O   0  0  0  0  0  0  0  0  0  0  0  0
  178.9370  180.4510  139.8750 O   0  0  0  0  0  1  0  0  0  0  0  0
  191.7160  176.8390  138.3350 C   0  0  0  0  0  2  0  0  0  0  0  0
  193.0250  176.7690  138.8090 O   0  0  0  0  0  0  0  0  0  0  0  0
  193.5780  175.6740  138.1460 C   0  0  0  0  0  1  0  0  0  0  0  0
  1  5  2  0  0  0  0
  1  9  1  0  0  0  0
  2  3  1  0  0  0  0
  3 16  2  0  0  0  0
  3 10  1  0  0  0  0
  4  6  1  0  0  0  0
  5 11  1  0  0  0  0
  6  8  1  0  0  0  0
  8  7  2  0  0  0  0
  9  4  2  0  0  0  0
 10 12  2  0  0  0  0
 11 10  1  0  0  0  0
 11  6  2  0  0  0  0
 12  7  1  0  0  0  0
 13  2  2  0  0  0  0
 14 13  1  0  0  0  0
 15 14  2  0  0  0  0
 15 17  1  0  0  0  0
 17 18  2  0  0  0  0
 18  2  1  0  0  0  0
 18  5  1  0  0  0  0
 19 28  1  0  0  0  0
 20 27  1  0  0  0  0
 21 22  2  0  0  0  0
 22 23  1  0  0  0  0
 23 19  1  0  0  0  0
 24 21  1  0  0  0  0
 24 25  1  0  0  0  0
 25 20  2  0  0  0  0
 25 23  1  0  0  0  0
 26 24  1  0  0  0  0
 27  9  1  0  0  0  0
 27 28  2  0  0  0  0
 29 21  1  0  0  0  0
 30 29  2  0  0  0  0
 31 29  1  0  0  0  0
 32 33  1  0  0  0  0
 32 14  1  0  0  0  0
 34 33  1  0  0  0  0
M  END
>  <MODEL>
5

>  <REMARK>
 VINA RESULT:     -10.0      3.185      8.437
  Name = 
  4 active torsions:
  status: ('A' for Active; 'I' for Inactive)
    1  A    between atoms: C_3  and  O_13
    2  A    between atoms: C_3  and  C_25
    3  A    between atoms: C_7  and  C_11
    4  A    between atoms: C_18  and  C_30
                            x       y       z     vdW  Elec       q    Type
                         _______ _______ _______ _____ _____    ______ ____

>  <TORSDO>
F 4

$$$$
=
 OpenBabel10262423293D

 34 39  0  0  0  0  0  0  0  0999 V2000
  187.6380  177.8310  141.7830 C   0  0  0  0  0  3  0  0  0  0  0  0
  187.5110  177.8320  145.5660 C   0  0  0  0  0  0  0  0  0  0  0  0
  186.1200  178.2880  145.7590 C   0  0  0  0  0  0  0  0  0  0  0  0
  185.5350  178.5340  140.8990 N   0  0  0  0  0  0  0  0  0  0  0  0
  187.1530  177.9770  143.0890 C   0  0  0  0  0  0  0  0  0  0  0  0
  185.0260  178.6880  142.1500 C   0  0  0  0  0  0  0  0  0  0  0  0
  183.1780  179.2810  143.5980 C   0  0  0  0  0  3  0  0  0  0  0  0
  183.7080  179.1210  142.3150 C   0  0  0  0  0  3  0  0  0  0  0  0
  186.8130  178.1150  140.6840 C   0  0  0  0  0  0  0  0  0  0  0  0
  185.2880  178.5750  144.5740 C   0  0  0  0  0  0  0  0  0  0  0  0
  185.8260  178.4120  143.2800 C   0  0  0  0  0  0  0  0  0  0  0  0
  183.9630  179.0100  144.7210 C   0  0  0  0  0  3  0  0  0  0  0  0
  188.3280  177.5510  146.6700 C   0  0  0  0  0  3  0  0  0  0  0  0
  189.6450  177.1240  146.4830 C   0  0  0  0  0  0  0  0  0  0  0  0
  190.1490  176.9620  145.1890 C   0  0  0  0  0  3  0  0  0  0  0  0
  185.6500  178.4300  146.9210 O   0  0  0  0  0  0  0  0  0  0  0  0
  189.3410  177.2400  144.0840 C   0  0  0  0  0  3  0  0  0  0  0  0
  188.0200  177.6780  144.2600 C   0  0  0  0  0  0  0  0  0  0  0  0
  187.1530  178.4780  136.8380 C   0  0  0  0  0  2  0  0  0  0  0  0
  188.4900  177.1010  139.0420 C   0  0  0  0  0  3  0  0  0  0  0  0
  190.1620  176.6070  135.9680 C   0  0  0  0  0  0  0  0  0  0  0  0
  189.2140  177.4860  135.6150 C   0  0  0  0  0  3  0  0  0  0  0  0
  188.4720  177.8600  136.7730 N   0  0  0  0  0  0  0  0  0  0  0  0
  190.0870  176.2860  137.3640 N   0  0  0  0  0  0  0  0  0  0  0  0
  189.0130  177.0870  137.8200 C   0  0  0  0  0  0  0  0  0  0  0  0
  191.0930  175.6300  138.1850 C   0  0  0  0  0  1  0  0  0  0  0  0
  187.3120  177.9670  139.2990 C   0  0  0  0  0  0  0  0  0  0  0  0
  186.7170  178.6260  138.2790 C   0  0  0  0  0  3  0  0  0  0  0  0
  191.1260  176.0170  135.0250 C   0  0  0  0  0  0  0  0  0  0  0  0
  192.2260  176.7470  134.5940 O   0  0  0  0  0  0  0  0  0  0  0  0
  190.9640  174.8400  134.6060 O   0  0  0  0  0  1  0  0  0  0  0  0
  190.4980  176.8030  147.6590 C   0  0  0  0  0  2  0  0  0  0  0  0
  191.8430  176.8880  147.3020 O   0  0  0  0  0  0  0  0  0  0  0  0
  192.3860  175.6640  147.6910 C   0  0  0  0  0  1  0  0  0  0  0  0
  1  5  1  0  0  0  0
  2  3  1  0  0  0  0
  2 13  1  0  0  0  0
  3 16  2  0  0  0  0
  4  6  2  0  0  0  0
  5 11  2  0  0  0  0
  5 18  1  0  0  0  0
  6  8  1  0  0  0  0
  6 11  1  0  0  0  0
  7 12  1  0  0  0  0
  8  7  2  0  0  0  0
  9  4  1  0  0  0  0
  9  1  2  0  0  0  0
 10 12  2  0  0  0  0
 10  3  1  0  0  0  0
 11 10  1  0  0  0  0
 14 13  2  0  0  0  0
 14 32  1  0  0  0  0
 15 14  1  0  0  0  0
 17 18  1  0  0  0  0
 17 15  2  0  0  0  0
 18  2  2  0  0  0  0
 19 28  1  0  0  0  0
 20 27  1  0  0  0  0
 21 24  1  0  0  0  0
 22 21  2  0  0  0  0
 22 23  1  0  0  0  0
 23 19  1  0  0  0  0
 23 25  1  0  0  0  0
 24 25  1  0  0  0  0
 24 26  1  0  0  0  0
 25 20  2  0  0  0  0
 27  9  1  0  0  0  0
 28 27  2  0  0  0  0
 29 21  1  0  0  0  0
 30 29  2  0  0  0  0
 31 29  1  0  0  0  0
 33 32  1  0  0  0  0
 33 34  1  0  0  0  0
M  END
>  <MODEL>
6

>  <REMARK>
 VINA RESULT:      -9.7      2.164      5.325
  Name = 
  4 active torsions:
  status: ('A' for Active; 'I' for Inactive)
    1  A    between atoms: C_3  and  O_13
    2  A    between atoms: C_3  and  C_25
    3  A    between atoms: C_7  and  C_11
    4  A    between atoms: C_18  and  C_30
                            x       y       z     vdW  Elec       q    Type
                         _______ _______ _______ _____ _____    ______ ____

>  <TORSDO>
F 4

$$$$
=
 OpenBabel10262423293D

 34 39  0  0  0  0  0  0  0  0999 V2000
  186.0060  178.2860  142.4760 C   0  0  0  0  0  3  0  0  0  0  0  0
  184.7870  178.5420  138.9010 C   0  0  0  0  0  0  0  0  0  0  0  0
  183.3520  178.7760  139.1530 C   0  0  0  0  0  0  0  0  0  0  0  0
  184.1740  178.5660  143.9800 N   0  0  0  0  0  0  0  0  0  0  0  0
  185.1470  178.4440  141.3800 C   0  0  0  0  0  0  0  0  0  0  0  0
  183.3080  178.7250  142.9450 C   0  0  0  0  0  0  0  0  0  0  0  0
  181.0560  179.1110  142.1410 C   0  0  0  0  0  3  0  0  0  0  0  0
  181.9520  178.9460  143.2010 C   0  0  0  0  0  3  0  0  0  0  0  0
  185.5040  178.3480  143.7850 C   0  0  0  0  0  0  0  0  0  0  0  0
  182.8690  178.8350  140.5460 C   0  0  0  0  0  0  0  0  0  0  0  0
  183.7760  178.6680  141.6140 C   0  0  0  0  0  0  0  0  0  0  0  0
  181.5120  179.0560  140.8220 C   0  0  0  0  0  3  0  0  0  0  0  0
  185.2800  178.4810  137.5900 C   0  0  0  0  0  3  0  0  0  0  0  0
  186.6380  178.2550  137.3560 C   0  0  0  0  0  0  0  0  0  0  0  0
  187.5160  178.1030  138.4330 C   0  0  0  0  0  3  0  0  0  0  0  0
  182.5500  178.9250  138.1900 O   0  0  0  0  0  0  0  0  0  0  0  0
  187.0340  178.1620  139.7420 C   0  0  0  0  0  3  0  0  0  0  0  0
  185.6700  178.3800  139.9900 C   0  0  0  0  0  0  0  0  0  0  0  0
  186.8080  178.2510  147.4360 C   0  0  0  0  0  2  0  0  0  0  0  0
  187.8140  177.7900  144.7300 C   0  0  0  0  0  3  0  0  0  0  0  0
  190.2500  177.0700  147.1860 C   0  0  0  0  0  0  0  0  0  0  0  0
  189.1790  177.3320  147.9460 C   0  0  0  0  0  3  0  0  0  0  0  0
  188.0580  177.5800  147.1010 N   0  0  0  0  0  0  0  0  0  0  0  0
  189.9430  177.1800  145.7890 N   0  0  0  0  0  0  0  0  0  0  0  0
  188.5670  177.5070  145.7880 C   0  0  0  0  0  0  0  0  0  0  0  0
  190.7220  176.6900  144.6620 C   0  0  0  0  0  1  0  0  0  0  0  0
  186.3980  178.1820  144.9510 C   0  0  0  0  0  0  0  0  0  0  0  0
  185.9310  178.3630  146.2080 C   0  0  0  0  0  3  0  0  0  0  0  0
  191.5830  176.7530  147.7250 C   0  0  0  0  0  0  0  0  0  0  0  0
  192.2710  175.6290  147.2870 O   0  0  0  0  0  0  0  0  0  0  0  0
  192.1130  177.5030  148.5880 O   0  0  0  0  0  1  0  0  0  0  0  0
  187.1570  178.2160  135.9620 C   0  0  0  0  0  2  0  0  0  0  0  0
  188.5510  178.2430  135.9770 O   0  0  0  0  0  0  0  0  0  0  0  0
  188.9280  177.4580  134.8890 C   0  0  0  0  0  1  0  0  0  0  0  0
  1  9  1  0  0  0  0
  2  3  1  0  0  0  0
  2 18  1  0  0  0  0
  3 10  1  0  0  0  0
  5 11  1  0  0  0  0
  5  1  2  0  0  0  0
  6  8  1  0  0  0  0
  6  4  1  0  0  0  0
  7  8  2  0  0  0  0
  9  4  2  0  0  0  0
  9 27  1  0  0  0  0
 10 12  2  0  0  0  0
 10 11  1  0  0  0  0
 11  6  2  0  0  0  0
 12  7  1  0  0  0  0
 13  2  2  0  0  0  0
 14 13  1  0  0  0  0
 14 15  2  0  0  0  0
 15 17  1  0  0  0  0
 16  3  2  0  0  0  0
 17 18  2  0  0  0  0
 18  5  1  0  0  0  0
 20 27  1  0  0  0  0
 20 25  2  0  0  0  0
 21 29  1  0  0  0  0
 21 22  2  0  0  0  0
 23 19  1  0  0  0  0
 23 22  1  0  0  0  0
 24 21  1  0  0  0  0
 25 24  1  0  0  0  0
 25 23  1  0  0  0  0
 26 24  1  0  0  0  0
 27 28  2  0  0  0  0
 28 19  1  0  0  0  0
 29 31  1  0  0  0  0
 30 29  2  0  0  0  0
 32 33  1  0  0  0  0
 32 14  1  0  0  0  0
 34 33  1  0  0  0  0
M  END
>  <MODEL>
7

>  <REMARK>
 VINA RESULT:      -9.6      3.312      8.161
  Name = 
  4 active torsions:
  status: ('A' for Active; 'I' for Inactive)
    1  A    between atoms: C_3  and  O_13
    2  A    between atoms: C_3  and  C_25
    3  A    between atoms: C_7  and  C_11
    4  A    between atoms: C_18  and  C_30
                            x       y       z     vdW  Elec       q    Type
                         _______ _______ _______ _____ _____    ______ ____

>  <TORSDO>
F 4

$$$$
=
 OpenBabel10262423293D

 34 39  0  0  0  0  0  0  0  0999 V2000
  189.1130  177.3480  143.4600 C   0  0  0  0  0  3  0  0  0  0  0  0
  189.6310  176.9930  147.1930 C   0  0  0  0  0  0  0  0  0  0  0  0
  188.3130  177.4600  147.6640 C   0  0  0  0  0  0  0  0  0  0  0  0
  186.9190  178.1790  143.0200 N   0  0  0  0  0  0  0  0  0  0  0  0
  188.8630  177.3800  144.8380 C   0  0  0  0  0  0  0  0  0  0  0  0
  186.6360  178.2260  144.3490 C   0  0  0  0  0  0  0  0  0  0  0  0
  185.0860  178.7200  146.1420 C   0  0  0  0  0  3  0  0  0  0  0  0
  185.3840  178.6710  144.7780 C   0  0  0  0  0  3  0  0  0  0  0  0
  188.1240  177.7540  142.5500 C   0  0  0  0  0  0  0  0  0  0  0  0
  187.3030  177.8770  146.6710 C   0  0  0  0  0  0  0  0  0  0  0  0
  187.6060  177.8250  145.2940 C   0  0  0  0  0  0  0  0  0  0  0  0
  186.0400  178.3260  147.0830 C   0  0  0  0  0  3  0  0  0  0  0  0
  190.6120  176.5890  148.1090 C   0  0  0  0  0  3  0  0  0  0  0  0
  191.8610  176.1520  147.6590 C   0  0  0  0  0  0  0  0  0  0  0  0
  192.1300  176.1010  146.2890 C   0  0  0  0  0  3  0  0  0  0  0  0
  188.0530  177.5010  148.8980 O   0  0  0  0  0  0  0  0  0  0  0  0
  191.1580  176.5020  145.3690 C   0  0  0  0  0  3  0  0  0  0  0  0
  189.9040  176.9520  145.8090 C   0  0  0  0  0  0  0  0  0  0  0  0
  189.9430  177.5200  139.1330 C   0  0  0  0  0  2  0  0  0  0  0  0
  187.2340  177.9120  140.1580 C   0  0  0  0  0  3  0  0  0  0  0  0
  187.2960  177.7140  136.6310 C   0  0  0  0  0  0  0  0  0  0  0  0
  188.5730  177.4420  136.9330 C   0  0  0  0  0  3  0  0  0  0  0  0
  188.7190  177.4090  138.3510 N   0  0  0  0  0  0  0  0  0  0  0  0
  186.5130  177.9390  137.8120 N   0  0  0  0  0  0  0  0  0  0  0  0
  187.4470  177.7450  138.8570 C   0  0  0  0  0  0  0  0  0  0  0  0
  185.0630  177.9590  137.9320 C   0  0  0  0  0  1  0  0  0  0  0  0
  188.3740  177.7260  141.0930 C   0  0  0  0  0  0  0  0  0  0  0  0
  189.6200  177.5130  140.6120 C   0  0  0  0  0  3  0  0  0  0  0  0
  186.7800  177.8110  135.2550 C   0  0  0  0  0  0  0  0  0  0  0  0
  186.6050  179.0510  134.6550 O   0  0  0  0  0  1  0  0  0  0  0  0
  186.4970  176.7670  134.6090 O   0  0  0  0  0  0  0  0  0  0  0  0
  192.8880  175.7010  148.6370 C   0  0  0  0  0  2  0  0  0  0  0  0
  193.7040  176.7750  148.9910 O   0  0  0  0  0  0  0  0  0  0  0  0
  193.4400  176.9830  150.3440 C   0  0  0  0  0  1  0  0  0  0  0  0
  1  5  1  0  0  0  0
  2  3  1  0  0  0  0
  2 13  1  0  0  0  0
  3 16  2  0  0  0  0
  4  6  2  0  0  0  0
  5 11  2  0  0  0  0
  5 18  1  0  0  0  0
  6  8  1  0  0  0  0
  6 11  1  0  0  0  0
  7 12  1  0  0  0  0
  8  7  2  0  0  0  0
  9  4  1  0  0  0  0
  9  1  2  0  0  0  0
 10 12  2  0  0  0  0
 10  3  1  0  0  0  0
 11 10  1  0  0  0  0
 14 13  2  0  0  0  0
 14 32  1  0  0  0  0
 15 14  1  0  0  0  0
 17 18  1  0  0  0  0
 17 15  2  0  0  0  0
 18  2  2  0  0  0  0
 19 28  1  0  0  0  0
 20 27  1  0  0  0  0
 21 22  2  0  0  0  0
 21 24  1  0  0  0  0
 22 23  1  0  0  0  0
 23 25  1  0  0  0  0
 23 19  1  0  0  0  0
 24 26  1  0  0  0  0
 24 25  1  0  0  0  0
 25 20  2  0  0  0  0
 27  9  1  0  0  0  0
 28 27  2  0  0  0  0
 29 21  1  0  0  0  0
 30 29  1  0  0  0  0
 31 29  2  0  0  0  0
 32 33  1  0  0  0  0
 33 34  1  0  0  0  0
M  END
>  <MODEL>
8

>  <REMARK>
 VINA RESULT:      -9.4      2.935      6.084
  Name = 
  4 active torsions:
  status: ('A' for Active; 'I' for Inactive)
    1  A    between atoms: C_3  and  O_13
    2  A    between atoms: C_3  and  C_25
    3  A    between atoms: C_7  and  C_11
    4  A    between atoms: C_18  and  C_30
                            x       y       z     vdW  Elec       q    Type
                         _______ _______ _______ _____ _____    ______ ____

>  <TORSDO>
F 4

$$$$
=
 OpenBabel10262423293D

 34 39  0  0  0  0  0  0  0  0999 V2000
  186.8510  177.9780  141.7020 C   0  0  0  0  0  3  0  0  0  0  0  0
  183.4730  178.7680  143.2170 C   0  0  0  0  0  0  0  0  0  0  0  0
  183.8450  178.7710  144.6450 C   0  0  0  0  0  0  0  0  0  0  0  0
  188.4790  177.7340  143.4300 N   0  0  0  0  0  0  0  0  0  0  0  0
  185.8580  178.2380  142.6560 C   0  0  0  0  0  0  0  0  0  0  0  0
  187.5470  177.9820  144.3870 C   0  0  0  0  0  0  0  0  0  0  0  0
  186.9620  178.2360  146.7230 C   0  0  0  0  0  3  0  0  0  0  0  0
  187.9150  177.9810  145.7340 C   0  0  0  0  0  3  0  0  0  0  0  0
  188.1710  177.7240  142.1030 C   0  0  0  0  0  0  0  0  0  0  0  0
  185.2470  178.4990  145.0220 C   0  0  0  0  0  0  0  0  0  0  0  0
  186.2080  178.2420  144.0210 C   0  0  0  0  0  0  0  0  0  0  0  0
  185.6350  178.4940  146.3690 C   0  0  0  0  0  3  0  0  0  0  0  0
  182.1520  179.0230  142.8250 C   0  0  0  0  0  3  0  0  0  0  0  0
  181.8020  179.0150  141.4730 C   0  0  0  0  0  0  0  0  0  0  0  0
  182.7770  178.7670  140.5020 C   0  0  0  0  0  3  0  0  0  0  0  0
  182.9780  179.0030  145.5320 O   0  0  0  0  0  0  0  0  0  0  0  0
  184.0960  178.5120  140.8830 C   0  0  0  0  0  3  0  0  0  0  0  0
  184.4570  178.5090  142.2400 C   0  0  0  0  0  0  0  0  0  0  0  0
  191.6570  177.1660  140.4990 C   0  0  0  0  0  2  0  0  0  0  0  0
  188.8480  177.1960  139.6940 C   0  0  0  0  0  3  0  0  0  0  0  0
  190.9770  176.2880  137.0250 C   0  0  0  0  0  0  0  0  0  0  0  0
  191.8450  176.3530  138.0440 C   0  0  0  0  0  3  0  0  0  0  0  0
  191.1320  176.6460  139.2430 N   0  0  0  0  0  0  0  0  0  0  0  0
  189.6410  176.5870  137.4520 N   0  0  0  0  0  0  0  0  0  0  0  0
  189.7910  176.8100  138.8410 C   0  0  0  0  0  0  0  0  0  0  0  0
  188.3970  176.3320  136.7410 C   0  0  0  0  0  1  0  0  0  0  0  0
  189.2290  177.4460  141.1080 C   0  0  0  0  0  0  0  0  0  0  0  0
  190.5290  177.4000  141.4800 C   0  0  0  0  0  3  0  0  0  0  0  0
  191.3620  175.9890  135.6360 C   0  0  0  0  0  0  0  0  0  0  0  0
  190.9410  176.8080  134.5970 O   0  0  0  0  0  0  0  0  0  0  0  0
  192.0820  174.9880  135.3780 O   0  0  0  0  0  1  0  0  0  0  0  0
  180.4020  179.3110  141.0630 C   0  0  0  0  0  2  0  0  0  0  0  0
  180.0190  178.4460  140.0390 O   0  0  0  0  0  0  0  0  0  0  0  0
  178.9820  177.6930  140.5870 C   0  0  0  0  0  1  0  0  0  0  0  0
  1  9  2  0  0  0  0
  1  5  1  0  0  0  0
  2  3  1  0  0  0  0
  3 10  1  0  0  0  0
  3 16  2  0  0  0  0
  4  6  2  0  0  0  0
  5 11  2  0  0  0  0
  6  8  1  0  0  0  0
  8  7  2  0  0  0  0
  9  4  1  0  0  0  0
 10 12  2  0  0  0  0
 11  6  1  0  0  0  0
 11 10  1  0  0  0  0
 12  7  1  0  0  0  0
 13  2  1  0  0  0  0
 14 13  2  0  0  0  0
 15 17  2  0  0  0  0
 15 14  1  0  0  0  0
 17 18  1  0  0  0  0
 18  5  1  0  0  0  0
 18  2  2  0  0  0  0
 19 28  1  0  0  0  0
 20 27  1  0  0  0  0
 21 24  1  0  0  0  0
 21 22  2  0  0  0  0
 22 23  1  0  0  0  0
 23 19  1  0  0  0  0
 24 25  1  0  0  0  0
 25 23  1  0  0  0  0
 25 20  2  0  0  0  0
 26 24  1  0  0  0  0
 27 28  2  0  0  0  0
 27  9  1  0  0  0  0
 29 21  1  0  0  0  0
 30 29  2  0  0  0  0
 31 29  1  0  0  0  0
 32 14  1  0  0  0  0
 33 34  1  0  0  0  0
 33 32  1  0  0  0  0
M  END
>  <MODEL>
9

>  <REMARK>
 VINA RESULT:      -9.4      1.396      1.756
  Name = 
  4 active torsions:
  status: ('A' for Active; 'I' for Inactive)
    1  A    between atoms: C_3  and  O_13
    2  A    between atoms: C_3  and  C_25
    3  A    between atoms: C_7  and  C_11
    4  A    between atoms: C_18  and  C_30
                            x       y       z     vdW  Elec       q    Type
                         _______ _______ _______ _____ _____    ______ ____

>  <TORSDO>
F 4

$$$$
