=
 OpenBabel10262420313D

 55 60  0  0  1  0  0  0  0  0999 V2000
  186.5800  177.3690  143.2480 C   0  0  2  0  0  3  0  0  0  0  0  0
  186.9710  177.9580  138.5950 C   0  0  0  0  0  2  0  0  0  0  0  0
  184.6500  179.8590  139.0720 O   0  0  0  0  0  0  0  0  0  0  0  0
  181.2930  178.9750  140.7840 C   0  0  0  0  0  2  0  0  0  0  0  0
  185.2310  179.2600  146.2600 C   0  0  0  0  0  3  0  0  0  0  0  0
  179.9540  179.5690  141.2700 C   0  0  0  0  0  2  0  0  0  0  0  0
  181.9550  179.2760  143.2310 C   0  0  2  0  0  3  0  0  0  0  0  0
  180.5290  179.0200  143.6070 C   0  0  0  0  0  3  0  0  0  0  0  0
  184.0320  177.9720  140.2970 N   0  0  0  0  0  2  0  0  0  0  0  0
  179.5830  179.1410  142.6680 C   0  0  0  0  0  3  0  0  0  0  0  0
  188.6220  175.9030  143.4140 C   0  0  0  0  0  3  0  0  0  0  0  0
  182.2510  178.5360  141.9090 C   0  0  2  0  0  3  0  0  0  0  0  0
  189.7720  177.1090  141.1690 C   0  0  0  0  0  0  0  0  0  0  0  0
  185.9520  178.2180  142.3130 O   0  0  0  0  0  0  0  0  0  0  0  0
  188.5370  177.5550  141.6490 C   0  0  0  0  0  3  0  0  0  0  0  0
  187.3360  178.2420  146.9200 C   0  0  0  0  0  0  0  0  0  0  0  0
  184.3450  179.0520  143.9020 C   0  0  2  0  0  3  0  0  0  0  0  0
  186.5080  177.9740  144.6410 C   0  0  0  0  0  0  0  0  0  0  0  0
  187.7760  177.1030  137.7410 N   0  0  0  0  0  2  0  0  0  0  0  0
  182.8990  178.8370  144.3520 C   0  0  0  0  0  2  0  0  0  0  0  0
  185.5020  177.7920  138.2570 C   0  0  0  0  0  2  0  0  0  0  0  0
  187.4720  177.7190  145.6230 C   0  0  0  0  0  3  0  0  0  0  0  0
  184.6950  178.6070  139.2040 C   0  0  0  0  0  0  0  0  0  0  0  0
  189.8630  175.4630  142.9430 C   0  0  0  0  0  3  0  0  0  0  0  0
  189.1300  177.6470  137.7470 C   0  0  1  0  0  3  0  0  0  0  0  0
  187.9570  176.9630  142.7820 C   0  0  0  0  0  0  0  0  0  0  0  0
  183.7200  178.7150  141.5090 C   0  0  1  0  0  3  0  0  0  0  0  0
  186.2090  179.0160  147.2260 C   0  0  0  0  0  3  0  0  0  0  0  0
  184.5910  178.2020  142.6480 C   0  0  1  0  0  3  0  0  0  0  0  0
  189.9760  176.8380  138.7280 C   0  0  0  0  0  2  0  0  0  0  0  0
  185.3570  178.7200  144.9740 C   0  0  0  0  0  0  0  0  0  0  0  0
  190.3410  177.6980  139.9250 C   0  0  0  0  0  2  0  0  0  0  0  0
  190.4360  176.0630  141.8180 C   0  0  0  0  0  3  0  0  0  0  0  0
  188.3570  177.9850  147.9580 C   0  0  0  0  0  0  0  0  0  0  0  0
  188.0800  178.1320  149.2490 C   0  0  0  0  0  2  0  0  0  0  0  0
  189.6710  177.5920  147.5810 N   0  0  0  0  0  1  0  0  0  0  0  0
  189.2190  178.7420  135.6420 C   0  0  0  0  0  1  0  0  0  0  0  0
  189.7020  177.5920  136.3960 N   0  0  0  0  0  0  0  0  0  0  0  0
  189.1490  176.4280  135.7160 C   0  0  0  0  0  2  0  0  0  0  0  0
  190.1380  175.2680  135.7600 C   0  0  1  0  0  3  0  0  0  0  0  0
  189.9270  174.3940  134.6930 O   0  0  0  0  0  1  0  0  0  0  0  0
  191.5950  175.7400  135.8010 C   0  0  2  0  0  3  0  0  0  0  0  0
  191.8750  176.3980  134.6030 O   0  0  0  0  0  1  0  0  0  0  0  0
  192.0910  173.3750  136.6870 C   0  0  0  0  0  1  0  0  0  0  0  0
  192.6660  174.6470  136.0600 C   0  0  2  0  0  3  0  0  0  0  0  0
  193.5010  176.4030  137.5990 C   0  0  0  0  0  1  0  0  0  0  0  0
  193.9170  175.1450  136.8430 C   0  0  2  0  0  0  0  0  0  0  0  0
  195.2910  176.8600  135.5340 N   0  0  0  0  0  2  0  0  0  0  0  0
  196.4100  177.2540  134.6950 C   0  0  0  0  0  1  0  0  0  0  0  0
  195.0760  175.4990  135.9210 C   0  0  0  0  0  0  0  0  0  0  0  0
  195.8920  174.6100  135.5540 O   0  0  0  0  0  0  0  0  0  0  0  0
  194.3150  174.1350  137.9420 C   0  0  0  0  0  2  0  0  0  0  0  0
  195.4160  174.5640  138.8680 C   0  0  0  0  0  0  0  0  0  0  0  0
  195.1910  175.3980  139.7830 O   0  0  0  0  0  1  0  0  0  0  0  0
  196.6830  174.0150  138.7310 O   0  0  0  0  0  0  0  0  0  0  0  0
  1 14  1  6  0  0  0
  1 18  1  0  0  0  0
  3 23  2  0  0  0  0
  4  6  1  0  0  0  0
  5 28  1  0  0  0  0
  6 10  1  0  0  0  0
  7  8  1  1  0  0  0
  7 20  1  0  0  0  0
 10  8  2  0  0  0  0
 12  4  1  6  0  0  0
 12  7  1  0  0  0  0
 13 15  2  0  0  0  0
 13 33  1  0  0  0  0
 15 26  1  0  0  0  0
 16 28  2  0  0  0  0
 16 34  1  0  0  0  0
 17 20  1  1  0  0  0
 17 31  1  0  0  0  0
 18 31  1  0  0  0  0
 18 22  2  0  0  0  0
 19 25  1  0  0  0  0
 19  2  1  0  0  0  0
 21  2  1  0  0  0  0
 21 23  1  0  0  0  0
 22 16  1  0  0  0  0
 23  9  1  0  0  0  0
 24 11  1  0  0  0  0
 25 38  1  6  0  0  0
 25 30  1  0  0  0  0
 26  1  1  0  0  0  0
 26 11  2  0  0  0  0
 27  9  1  6  0  0  0
 27 12  1  0  0  0  0
 27 29  1  0  0  0  0
 29 14  1  6  0  0  0
 29 17  1  0  0  0  0
 30 32  1  0  0  0  0
 31  5  2  0  0  0  0
 32 13  1  0  0  0  0
 33 24  2  0  0  0  0
 34 35  2  0  0  0  0
 36 34  1  0  0  0  0
 37 38  1  0  0  0  0
 39 40  1  0  0  0  0
 39 38  1  0  0  0  0
 40 41  1  6  0  0  0
 40 42  1  0  0  0  0
 42 43  1  6  0  0  0
 42 45  1  0  0  0  0
 45 44  1  1  0  0  0
 45 47  1  0  0  0  0
 47 46  1  1  0  0  0
 47 52  1  0  0  0  0
 48 50  1  0  0  0  0
 49 48  1  0  0  0  0
 50 47  1  0  0  0  0
 51 50  2  0  0  0  0
 52 53  1  0  0  0  0
 53 54  1  0  0  0  0
 55 53  2  0  0  0  0
M  END
>  <MODEL>
1

>  <REMARK>
 VINA RESULT:     -10.8      0.000      0.000
  Name = 
  10 active torsions:
  status: ('A' for Active; 'I' for Inactive)
    1  A    between atoms: C_1  and  C_53
    2  A    between atoms: C_6  and  C_14
    3  A    between atoms: C_6  and  C_20
    4  A    between atoms: N_8  and  C_22
    5  A    between atoms: N_8  and  C_43
    6  A    between atoms: C_10  and  C_32
    7  A    between atoms: C_14  and  C_38
    8  A    between atoms: C_20  and  C_22
    9  A    between atoms: C_29  and  C_38
   10  A    between atoms: C_38  and  C_53
                            x       y       z     vdW  Elec       q    Type
                         _______ _______ _______ _____ _____    ______ ____

>  <TORSDO>
F 10

$$$$
=
 OpenBabel10262420313D

 55 60  0  0  1  0  0  0  0  0999 V2000
  186.6430  177.3490  143.3360 C   0  0  2  0  0  3  0  0  0  0  0  0
  187.1320  177.8840  138.6860 C   0  0  0  0  0  2  0  0  0  0  0  0
  184.7990  179.7860  139.0910 O   0  0  0  0  0  0  0  0  0  0  0  0
  181.4070  178.9170  140.7420 C   0  0  0  0  0  2  0  0  0  0  0  0
  185.2270  179.2720  146.2970 C   0  0  0  0  0  3  0  0  0  0  0  0
  180.0570  179.5130  141.1920 C   0  0  0  0  0  2  0  0  0  0  0  0
  182.0160  179.2470  143.1980 C   0  0  2  0  0  3  0  0  0  0  0  0
  180.5830  178.9930  143.5460 C   0  0  0  0  0  3  0  0  0  0  0  0
  184.1570  177.9130  140.3240 N   0  0  0  0  0  2  0  0  0  0  0  0
  179.6570  179.1010  142.5860 C   0  0  0  0  0  3  0  0  0  0  0  0
  188.6830  175.8890  143.5630 C   0  0  0  0  0  3  0  0  0  0  0  0
  182.3420  178.4930  141.8920 C   0  0  2  0  0  3  0  0  0  0  0  0
  189.8790  177.0700  141.3290 C   0  0  0  0  0  0  0  0  0  0  0  0
  186.0340  178.1850  142.3780 O   0  0  0  0  0  0  0  0  0  0  0  0
  188.6330  177.5200  141.7770 C   0  0  0  0  0  3  0  0  0  0  0  0
  187.3190  178.2660  147.0130 C   0  0  0  0  0  0  0  0  0  0  0  0
  184.3920  179.0350  143.9230 C   0  0  2  0  0  3  0  0  0  0  0  0
  186.5400  177.9700  144.7200 C   0  0  0  0  0  0  0  0  0  0  0  0
  187.9570  177.0210  137.8600 N   0  0  0  0  0  2  0  0  0  0  0  0
  182.9370  178.8230  144.3440 C   0  0  0  0  0  2  0  0  0  0  0  0
  185.6710  177.7120  138.3190 C   0  0  0  0  0  2  0  0  0  0  0  0
  187.4840  177.7280  145.7260 C   0  0  0  0  0  3  0  0  0  0  0  0
  184.8430  178.5360  139.2390 C   0  0  0  0  0  0  0  0  0  0  0  0
  189.9350  175.4460  143.1240 C   0  0  0  0  0  3  0  0  0  0  0  0
  189.3100  177.5680  137.8880 C   0  0  1  0  0  3  0  0  0  0  0  0
  188.0300  176.9400  142.9040 C   0  0  0  0  0  0  0  0  0  0  0  0
  183.8180  178.6690  141.5210 C   0  0  1  0  0  3  0  0  0  0  0  0
  186.1850  179.0410  147.2860 C   0  0  0  0  0  3  0  0  0  0  0  0
  184.6660  178.1720  142.6850 C   0  0  1  0  0  3  0  0  0  0  0  0
  190.1360  176.7710  138.8960 C   0  0  0  0  0  2  0  0  0  0  0  0
  185.3810  178.7180  145.0200 C   0  0  0  0  0  0  0  0  0  0  0  0
  190.4740  177.6460  140.0910 C   0  0  0  0  0  2  0  0  0  0  0  0
  190.5310  176.0340  142.0050 C   0  0  0  0  0  3  0  0  0  0  0  0
  188.3170  178.0230  148.0760 C   0  0  0  0  0  0  0  0  0  0  0  0
  189.5990  177.8280  147.7870 C   0  0  0  0  0  2  0  0  0  0  0  0
  187.9090  177.9750  149.4380 N   0  0  0  0  0  1  0  0  0  0  0  0
  189.0090  178.1440  135.6040 C   0  0  0  0  0  1  0  0  0  0  0  0
  189.9110  177.4980  136.5500 N   0  0  0  0  0  0  0  0  0  0  0  0
  189.9530  176.1000  136.1440 C   0  0  0  0  0  2  0  0  0  0  0  0
  191.3850  175.6830  135.8250 C   0  0  1  0  0  3  0  0  0  0  0  0
  192.2790  176.7150  136.1120 O   0  0  0  0  0  1  0  0  0  0  0  0
  191.7920  174.3900  136.5400 C   0  0  2  0  0  3  0  0  0  0  0  0
  190.6970  173.9330  137.2730 O   0  0  0  0  0  1  0  0  0  0  0  0
  193.2360  175.8630  138.0810 C   0  0  0  0  0  1  0  0  0  0  0  0
  193.0380  174.4770  137.4610 C   0  0  2  0  0  3  0  0  0  0  0  0
  193.9850  173.3740  135.4530 C   0  0  0  0  0  1  0  0  0  0  0  0
  194.3550  173.9560  136.8130 C   0  0  2  0  0  0  0  0  0  0  0  0
  195.3440  171.6080  137.0350 N   0  0  0  0  0  2  0  0  0  0  0  0
  196.0180  170.5510  137.7700 C   0  0  0  0  0  1  0  0  0  0  0  0
  195.0170  172.8630  137.6400 C   0  0  0  0  0  0  0  0  0  0  0  0
  195.3460  173.0810  138.8390 O   0  0  0  0  0  0  0  0  0  0  0  0
  195.3120  175.1270  136.4960 C   0  0  0  0  0  2  0  0  0  0  0  0
  196.7790  174.8060  136.5080 C   0  0  0  0  0  0  0  0  0  0  0  0
  197.5210  175.2480  137.4230 O   0  0  0  0  0  1  0  0  0  0  0  0
  197.3120  173.9900  135.5200 O   0  0  0  0  0  0  0  0  0  0  0  0
  1 14  1  6  0  0  0
  1 18  1  0  0  0  0
  3 23  2  0  0  0  0
  4  6  1  0  0  0  0
  5 28  1  0  0  0  0
  6 10  1  0  0  0  0
  7  8  1  1  0  0  0
  7 20  1  0  0  0  0
 10  8  2  0  0  0  0
 12  4  1  6  0  0  0
 12  7  1  0  0  0  0
 13 15  2  0  0  0  0
 13 33  1  0  0  0  0
 15 26  1  0  0  0  0
 16 28  2  0  0  0  0
 16 34  1  0  0  0  0
 17 20  1  1  0  0  0
 17 31  1  0  0  0  0
 18 31  1  0  0  0  0
 18 22  2  0  0  0  0
 19 25  1  0  0  0  0
 19  2  1  0  0  0  0
 21  2  1  0  0  0  0
 21 23  1  0  0  0  0
 22 16  1  0  0  0  0
 23  9  1  0  0  0  0
 24 11  1  0  0  0  0
 25 38  1  6  0  0  0
 25 30  1  0  0  0  0
 26  1  1  0  0  0  0
 26 11  2  0  0  0  0
 27  9  1  6  0  0  0
 27 12  1  0  0  0  0
 27 29  1  0  0  0  0
 29 14  1  6  0  0  0
 29 17  1  0  0  0  0
 30 32  1  0  0  0  0
 31  5  2  0  0  0  0
 32 13  1  0  0  0  0
 33 24  2  0  0  0  0
 34 36  1  0  0  0  0
 35 34  2  0  0  0  0
 37 38  1  0  0  0  0
 39 38  1  0  0  0  0
 40 41  1  1  0  0  0
 40 39  1  0  0  0  0
 40 42  1  0  0  0  0
 42 43  1  1  0  0  0
 42 45  1  0  0  0  0
 45 44  1  6  0  0  0
 47 46  1  6  0  0  0
 47 45  1  0  0  0  0
 47 50  1  0  0  0  0
 48 50  1  0  0  0  0
 48 49  1  0  0  0  0
 50 51  2  0  0  0  0
 52 53  1  0  0  0  0
 52 47  1  0  0  0  0
 53 54  1  0  0  0  0
 55 53  2  0  0  0  0
M  END
>  <MODEL>
2

>  <REMARK>
 VINA RESULT:     -10.6      1.278      1.969
  Name = 
  10 active torsions:
  status: ('A' for Active; 'I' for Inactive)
    1  A    between atoms: C_1  and  C_53
    2  A    between atoms: C_6  and  C_14
    3  A    between atoms: C_6  and  C_20
    4  A    between atoms: N_8  and  C_22
    5  A    between atoms: N_8  and  C_43
    6  A    between atoms: C_10  and  C_32
    7  A    between atoms: C_14  and  C_38
    8  A    between atoms: C_20  and  C_22
    9  A    between atoms: C_29  and  C_38
   10  A    between atoms: C_38  and  C_53
                            x       y       z     vdW  Elec       q    Type
                         _______ _______ _______ _____ _____    ______ ____

>  <TORSDO>
F 10

$$$$
=
 OpenBabel10262420313D

 55 60  0  0  1  0  0  0  0  0999 V2000
  185.6220  178.7410  141.9570 C   0  0  2  0  0  3  0  0  0  0  0  0
  189.2980  176.6030  139.9400 C   0  0  0  0  0  2  0  0  0  0  0  0
  189.6090  175.4440  142.7300 O   0  0  0  0  0  0  0  0  0  0  0  0
  189.9210  177.4640  146.0180 C   0  0  0  0  0  2  0  0  0  0  0  0
  183.3030  178.2310  144.9290 C   0  0  0  0  0  3  0  0  0  0  0  0
  190.0220  177.3290  147.5520 C   0  0  0  0  0  2  0  0  0  0  0  0
  187.4510  177.8560  146.5290 C   0  0  2  0  0  3  0  0  0  0  0  0
  187.8600  178.4890  147.8220 C   0  0  0  0  0  3  0  0  0  0  0  0
  189.2380  177.7080  143.1510 N   0  0  0  0  0  2  0  0  0  0  0  0
  189.0890  178.2520  148.2950 C   0  0  0  0  0  3  0  0  0  0  0  0
  184.8050  179.7610  139.8030 C   0  0  0  0  0  3  0  0  0  0  0  0
  188.5910  178.0530  145.5070 C   0  0  2  0  0  3  0  0  0  0  0  0
  185.9340  177.6920  138.2990 C   0  0  0  0  0  0  0  0  0  0  0  0
  186.5480  177.7710  142.3910 O   0  0  0  0  0  0  0  0  0  0  0  0
  186.0210  177.6720  139.6950 C   0  0  0  0  0  3  0  0  0  0  0  0
  181.9430  178.9850  143.0620 C   0  0  0  0  0  0  0  0  0  0  0  0
  185.7840  177.8250  144.6760 C   0  0  2  0  0  3  0  0  0  0  0  0
  184.3420  178.6490  142.7720 C   0  0  0  0  0  0  0  0  0  0  0  0
  189.8180  176.9620  138.6330 N   0  0  0  0  0  2  0  0  0  0  0  0
  186.1320  178.4470  146.0290 C   0  0  0  0  0  2  0  0  0  0  0  0
  190.3200  176.9280  141.0120 C   0  0  0  0  0  2  0  0  0  0  0  0
  183.0930  179.0200  142.2570 C   0  0  0  0  0  3  0  0  0  0  0  0
  189.7280  176.6370  142.3450 C   0  0  0  0  0  0  0  0  0  0  0  0
  184.7060  179.7760  138.4080 C   0  0  0  0  0  3  0  0  0  0  0  0
  189.0580  176.2010  137.6470 C   0  0  1  0  0  3  0  0  0  0  0  0
  185.4480  178.7010  140.4590 C   0  0  0  0  0  0  0  0  0  0  0  0
  188.1980  177.4760  144.1430 C   0  0  1  0  0  3  0  0  0  0  0  0
  182.0600  178.5850  144.4000 C   0  0  0  0  0  3  0  0  0  0  0  0
  186.9120  178.1550  143.6890 C   0  0  1  0  0  3  0  0  0  0  0  0
  187.9810  177.1070  137.0560 C   0  0  0  0  0  2  0  0  0  0  0  0
  184.4530  178.2870  144.1320 C   0  0  0  0  0  0  0  0  0  0  0  0
  186.6080  176.6320  137.4990 C   0  0  0  0  0  2  0  0  0  0  0  0
  185.2740  178.7440  137.6560 C   0  0  0  0  0  3  0  0  0  0  0  0
  180.6200  179.3660  142.5220 C   0  0  0  0  0  0  0  0  0  0  0  0
  179.9370  178.5470  141.7310 C   0  0  0  0  0  2  0  0  0  0  0  0
  180.0660  180.6400  142.8300 N   0  0  0  0  0  1  0  0  0  0  0  0
  189.2400  174.6920  135.8230 C   0  0  0  0  0  1  0  0  0  0  0  0
  189.9530  175.7010  136.5950 N   0  0  0  0  0  0  0  0  0  0  0  0
  191.0510  174.9890  137.2340 C   0  0  0  0  0  2  0  0  0  0  0  0
  192.3490  175.2150  136.4660 C   0  0  1  0  0  3  0  0  0  0  0  0
  192.3450  176.4610  135.8380 O   0  0  0  0  0  1  0  0  0  0  0  0
  193.5900  175.0510  137.3490 C   0  0  2  0  0  3  0  0  0  0  0  0
  193.7090  176.1870  138.1510 O   0  0  0  0  0  1  0  0  0  0  0  0
  194.7570  174.5480  135.1100 C   0  0  0  0  0  1  0  0  0  0  0  0
  194.9300  174.7900  136.6120 C   0  0  2  0  0  3  0  0  0  0  0  0
  194.8950  172.5270  137.6250 C   0  0  0  0  0  1  0  0  0  0  0  0
  195.8170  173.6860  137.2610 C   0  0  2  0  0  0  0  0  0  0  0  0
  197.7960  174.7880  138.4510 N   0  0  0  0  0  2  0  0  0  0  0  0
  198.4750  175.3050  139.6270 C   0  0  0  0  0  1  0  0  0  0  0  0
  196.5080  174.1680  138.5300 C   0  0  0  0  0  0  0  0  0  0  0  0
  195.9220  174.0900  139.6440 O   0  0  0  0  0  0  0  0  0  0  0  0
  196.8060  173.0980  136.2300 C   0  0  0  0  0  2  0  0  0  0  0  0
  197.0660  171.6230  136.3280 C   0  0  0  0  0  0  0  0  0  0  0  0
  196.5950  170.8330  135.4700 O   0  0  0  0  0  0  0  0  0  0  0  0
  197.8580  171.1320  137.3580 O   0  0  0  0  0  1  0  0  0  0  0  0
  1 26  1  6  0  0  0
  1 14  1  0  0  0  0
  1 18  1  0  0  0  0
  2 21  1  0  0  0  0
  4  6  1  0  0  0  0
  6 10  1  0  0  0  0
  7 20  1  6  0  0  0
  7  8  1  0  0  0  0
  8 10  2  0  0  0  0
 11 26  1  0  0  0  0
 12  4  1  1  0  0  0
 12  7  1  0  0  0  0
 13 15  1  0  0  0  0
 15 26  2  0  0  0  0
 16 28  2  0  0  0  0
 17 20  1  1  0  0  0
 18 31  1  0  0  0  0
 19  2  1  0  0  0  0
 21 23  1  0  0  0  0
 22 18  2  0  0  0  0
 22 16  1  0  0  0  0
 23  3  2  0  0  0  0
 23  9  1  0  0  0  0
 24 11  2  0  0  0  0
 25 38  1  6  0  0  0
 25 19  1  0  0  0  0
 27  9  1  6  0  0  0
 27 12  1  0  0  0  0
 28  5  1  0  0  0  0
 29 14  1  6  0  0  0
 29 27  1  0  0  0  0
 29 17  1  0  0  0  0
 30 32  1  0  0  0  0
 30 25  1  0  0  0  0
 31 17  1  0  0  0  0
 31  5  2  0  0  0  0
 32 13  1  0  0  0  0
 33 13  2  0  0  0  0
 33 24  1  0  0  0  0
 34 36  1  0  0  0  0
 34 16  1  0  0  0  0
 35 34  2  0  0  0  0
 37 38  1  0  0  0  0
 38 39  1  0  0  0  0
 40 41  1  1  0  0  0
 40 39  1  0  0  0  0
 40 42  1  0  0  0  0
 42 43  1  6  0  0  0
 45 44  1  6  0  0  0
 45 47  1  0  0  0  0
 45 42  1  0  0  0  0
 47 46  1  1  0  0  0
 47 50  1  0  0  0  0
 48 50  1  0  0  0  0
 48 49  1  0  0  0  0
 50 51  2  0  0  0  0
 52 53  1  0  0  0  0
 52 47  1  0  0  0  0
 53 55  1  0  0  0  0
 54 53  2  0  0  0  0
M  END
>  <MODEL>
3

>  <REMARK>
 VINA RESULT:      -8.7      2.047      5.622
  Name = 
  10 active torsions:
  status: ('A' for Active; 'I' for Inactive)
    1  A    between atoms: C_1  and  C_53
    2  A    between atoms: C_6  and  C_14
    3  A    between atoms: C_6  and  C_20
    4  A    between atoms: N_8  and  C_22
    5  A    between atoms: N_8  and  C_43
    6  A    between atoms: C_10  and  C_32
    7  A    between atoms: C_14  and  C_38
    8  A    between atoms: C_20  and  C_22
    9  A    between atoms: C_29  and  C_38
   10  A    between atoms: C_38  and  C_53
                            x       y       z     vdW  Elec       q    Type
                         _______ _______ _______ _____ _____    ______ ____

>  <TORSDO>
F 10

$$$$
=
 OpenBabel10262420313D

 55 60  0  0  1  0  0  0  0  0999 V2000
  187.0740  178.4120  142.4500 C   0  0  2  0  0  3  0  0  0  0  0  0
  184.4720  177.7880  138.5790 C   0  0  0  0  0  2  0  0  0  0  0  0
  186.8250  176.0340  137.7980 O   0  0  0  0  0  0  0  0  0  0  0  0
  190.5370  177.1270  137.6580 C   0  0  0  0  0  2  0  0  0  0  0  0
  189.8350  176.6160  144.3530 C   0  0  0  0  0  3  0  0  0  0  0  0
  191.9710  176.6180  137.4050 C   0  0  0  0  0  2  0  0  0  0  0  0
  191.1850  176.7930  140.1040 C   0  0  2  0  0  3  0  0  0  0  0  0
  192.5940  177.1370  139.7360 C   0  0  0  0  0  3  0  0  0  0  0  0
  187.8630  177.9590  138.6110 N   0  0  0  0  0  2  0  0  0  0  0  0
  192.9590  177.0720  138.4500 C   0  0  0  0  0  3  0  0  0  0  0  0
  185.3030  179.7500  143.6420 C   0  0  0  0  0  3  0  0  0  0  0  0
  190.2350  177.5090  139.1210 C   0  0  2  0  0  3  0  0  0  0  0  0
  183.2630  178.4700  142.2220 C   0  0  0  0  0  0  0  0  0  0  0  0
  187.2040  177.6010  141.3040 O   0  0  0  0  0  0  0  0  0  0  0  0
  184.5970  178.1020  142.0180 C   0  0  0  0  0  3  0  0  0  0  0  0
  188.2770  177.5040  145.9920 C   0  0  0  0  0  0  0  0  0  0  0  0
  189.4290  176.8720  141.8720 C   0  0  2  0  0  3  0  0  0  0  0  0
  187.8570  177.8170  143.6100 C   0  0  0  0  0  0  0  0  0  0  0  0
  183.3050  178.5890  138.2570 N   0  0  0  0  0  2  0  0  0  0  0  0
  190.8950  177.1760  141.5570 C   0  0  0  0  0  2  0  0  0  0  0  0
  185.5710  178.0420  137.5660 C   0  0  0  0  0  2  0  0  0  0  0  0
  187.4900  178.0140  144.9460 C   0  0  0  0  0  3  0  0  0  0  0  0
  186.7830  177.2810  137.9700 C   0  0  0  0  0  0  0  0  0  0  0  0
  183.9690  180.1120  143.8560 C   0  0  0  0  0  3  0  0  0  0  0  0
  182.1620  177.9630  138.9140 C   0  0  1  0  0  3  0  0  0  0  0  0
  185.6270  178.7320  142.7340 C   0  0  0  0  0  0  0  0  0  0  0  0
  188.7730  177.2390  139.4910 C   0  0  1  0  0  3  0  0  0  0  0  0
  189.4490  176.8020  145.6830 C   0  0  0  0  0  3  0  0  0  0  0  0
  188.5500  177.7010  140.9260 C   0  0  1  0  0  3  0  0  0  0  0  0
  181.8660  178.7210  140.2060 C   0  0  0  0  0  2  0  0  0  0  0  0
  189.0610  177.1430  143.3120 C   0  0  0  0  0  0  0  0  0  0  0  0
  182.1880  177.8440  141.4040 C   0  0  0  0  0  2  0  0  0  0  0  0
  182.9500  179.4740  143.1430 C   0  0  0  0  0  3  0  0  0  0  0  0
  187.8890  177.7010  147.4050 C   0  0  0  0  0  0  0  0  0  0  0  0
  188.5420  177.0950  148.3910 C   0  0  0  0  0  2  0  0  0  0  0  0
  186.7840  178.5370  147.7300 N   0  0  0  0  0  1  0  0  0  0  0  0
  179.8980  178.6490  138.7090 C   0  0  0  0  0  1  0  0  0  0  0  0
  180.9950  177.9790  138.0220 N   0  0  0  0  0  0  0  0  0  0  0  0
  180.5480  176.6050  137.8350 C   0  0  0  0  0  2  0  0  0  0  0  0
  180.7140  176.1870  136.3780 C   0  0  1  0  0  3  0  0  0  0  0  0
  180.6780  177.2970  135.5340 O   0  0  0  0  0  1  0  0  0  0  0  0
  181.9850  175.3640  136.1460 C   0  0  2  0  0  3  0  0  0  0  0  0
  182.9960  176.2300  135.7260 O   0  0  0  0  0  1  0  0  0  0  0  0
  180.4350  173.9440  134.6600 C   0  0  0  0  0  1  0  0  0  0  0  0
  181.8660  174.1800  135.1500 C   0  0  2  0  0  3  0  0  0  0  0  0
  181.7940  172.4520  136.9270 C   0  0  0  0  0  1  0  0  0  0  0  0
  182.5170  172.8540  135.6460 C   0  0  2  0  0  0  0  0  0  0  0  0
  184.4940  172.6750  137.2590 N   0  0  0  0  0  2  0  0  0  0  0  0
  185.9050  172.7680  137.5930 C   0  0  0  0  0  1  0  0  0  0  0  0
  183.9980  173.0160  135.9610 C   0  0  0  0  0  0  0  0  0  0  0  0
  184.8040  173.3800  135.0610 O   0  0  0  0  0  0  0  0  0  0  0  0
  182.2400  171.7010  134.6550 C   0  0  0  0  0  2  0  0  0  0  0  0
  182.1120  170.3300  135.2540 C   0  0  0  0  0  0  0  0  0  0  0  0
  183.1260  169.7300  135.6940 O   0  0  0  0  0  1  0  0  0  0  0  0
  180.8610  169.7350  135.3490 O   0  0  0  0  0  0  0  0  0  0  0  0
  1 14  1  6  0  0  0
  1 26  1  0  0  0  0
  1 18  1  0  0  0  0
  3 23  2  0  0  0  0
  5 28  1  0  0  0  0
  6  4  1  0  0  0  0
  6 10  1  0  0  0  0
  7  8  1  6  0  0  0
  7 20  1  0  0  0  0
 10  8  2  0  0  0  0
 11 24  1  0  0  0  0
 12  4  1  6  0  0  0
 12 27  1  0  0  0  0
 12  7  1  0  0  0  0
 13 33  1  0  0  0  0
 15 13  2  0  0  0  0
 15 26  1  0  0  0  0
 16 34  1  0  0  0  0
 17 20  1  1  0  0  0
 17 31  1  0  0  0  0
 18 22  2  0  0  0  0
 19  2  1  0  0  0  0
 19 25  1  0  0  0  0
 21 23  1  0  0  0  0
 21  2  1  0  0  0  0
 22 16  1  0  0  0  0
 23  9  1  0  0  0  0
 25 38  1  6  0  0  0
 25 30  1  0  0  0  0
 26 11  2  0  0  0  0
 27  9  1  6  0  0  0
 27 29  1  0  0  0  0
 28 16  2  0  0  0  0
 29 14  1  1  0  0  0
 29 17  1  0  0  0  0
 30 32  1  0  0  0  0
 31 18  1  0  0  0  0
 31  5  2  0  0  0  0
 32 13  1  0  0  0  0
 33 24  2  0  0  0  0
 34 36  1  0  0  0  0
 34 35  2  0  0  0  0
 38 37  1  0  0  0  0
 39 38  1  0  0  0  0
 40 41  1  6  0  0  0
 40 39  1  0  0  0  0
 42 43  1  6  0  0  0
 42 40  1  0  0  0  0
 45 44  1  1  0  0  0
 45 47  1  0  0  0  0
 45 42  1  0  0  0  0
 47 50  1  0  0  0  0
 47 46  1  1  0  0  0
 48 49  1  0  0  0  0
 50 48  1  0  0  0  0
 51 50  2  0  0  0  0
 52 53  1  0  0  0  0
 52 47  1  0  0  0  0
 53 55  2  0  0  0  0
 53 54  1  0  0  0  0
M  END
>  <MODEL>
4

>  <REMARK>
 VINA RESULT:      -8.4      3.895      8.610
  Name = 
  10 active torsions:
  status: ('A' for Active; 'I' for Inactive)
    1  A    between atoms: C_1  and  C_53
    2  A    between atoms: C_6  and  C_14
    3  A    between atoms: C_6  and  C_20
    4  A    between atoms: N_8  and  C_22
    5  A    between atoms: N_8  and  C_43
    6  A    between atoms: C_10  and  C_32
    7  A    between atoms: C_14  and  C_38
    8  A    between atoms: C_20  and  C_22
    9  A    between atoms: C_29  and  C_38
   10  A    between atoms: C_38  and  C_53
                            x       y       z     vdW  Elec       q    Type
                         _______ _______ _______ _____ _____    ______ ____

>  <TORSDO>
F 10

$$$$
=
 OpenBabel10262420313D

 55 60  0  0  1  0  0  0  0  0999 V2000
  187.0720  178.4080  142.4490 C   0  0  2  0  0  3  0  0  0  0  0  0
  184.4850  177.7850  138.5670 C   0  0  0  0  0  2  0  0  0  0  0  0
  186.8430  176.0330  137.7940 O   0  0  0  0  0  0  0  0  0  0  0  0
  190.5540  177.1290  137.6690 C   0  0  0  0  0  2  0  0  0  0  0  0
  189.8270  176.6120  144.3610 C   0  0  0  0  0  3  0  0  0  0  0  0
  191.9900  176.6210  137.4210 C   0  0  0  0  0  2  0  0  0  0  0  0
  191.1940  176.7930  140.1170 C   0  0  2  0  0  3  0  0  0  0  0  0
  192.6040  177.1380  139.7550 C   0  0  0  0  0  3  0  0  0  0  0  0
  187.8770  177.9580  138.6130 N   0  0  0  0  0  2  0  0  0  0  0  0
  192.9730  177.0750  138.4700 C   0  0  0  0  0  3  0  0  0  0  0  0
  185.2960  179.7440  143.6350 C   0  0  0  0  0  3  0  0  0  0  0  0
  190.2470  177.5100  139.1310 C   0  0  2  0  0  3  0  0  0  0  0  0
  183.2620  178.4630  142.2060 C   0  0  0  0  0  0  0  0  0  0  0  0
  187.2070  177.5980  141.3030 O   0  0  0  0  0  0  0  0  0  0  0  0
  184.5970  178.0960  142.0070 C   0  0  0  0  0  3  0  0  0  0  0  0
  188.2630  177.4980  145.9950 C   0  0  0  0  0  0  0  0  0  0  0  0
  189.4310  176.8690  141.8790 C   0  0  2  0  0  3  0  0  0  0  0  0
  187.8520  177.8120  143.6110 C   0  0  0  0  0  0  0  0  0  0  0  0
  183.3190  178.5850  138.2420 N   0  0  0  0  0  2  0  0  0  0  0  0
  190.8970  177.1750  141.5690 C   0  0  0  0  0  2  0  0  0  0  0  0
  185.5880  178.0400  137.5590 C   0  0  0  0  0  2  0  0  0  0  0  0
  187.4790  178.0080  144.9460 C   0  0  0  0  0  3  0  0  0  0  0  0
  186.7990  177.2800  137.9670 C   0  0  0  0  0  0  0  0  0  0  0  0
  183.9610  180.1040  143.8440 C   0  0  0  0  0  3  0  0  0  0  0  0
  182.1740  177.9580  138.8940 C   0  0  1  0  0  3  0  0  0  0  0  0
  185.6240  178.7260  142.7280 C   0  0  0  0  0  0  0  0  0  0  0  0
  188.7840  177.2390  139.4960 C   0  0  1  0  0  3  0  0  0  0  0  0
  189.4360  176.7970  145.6890 C   0  0  0  0  0  3  0  0  0  0  0  0
  188.5550  177.6990  140.9300 C   0  0  1  0  0  3  0  0  0  0  0  0
  181.8730  178.7150  140.1860 C   0  0  0  0  0  2  0  0  0  0  0  0
  189.0570  177.1390  143.3170 C   0  0  0  0  0  0  0  0  0  0  0  0
  182.1910  177.8370  141.3840 C   0  0  0  0  0  2  0  0  0  0  0  0
  182.9450  179.4670  143.1270 C   0  0  0  0  0  3  0  0  0  0  0  0
  187.8690  177.6930  147.4070 C   0  0  0  0  0  0  0  0  0  0  0  0
  186.7180  178.2710  147.7290 C   0  0  0  0  0  2  0  0  0  0  0  0
  188.7400  177.2750  148.4520 N   0  0  0  0  0  1  0  0  0  0  0  0
  180.4910  179.3350  137.9400 C   0  0  0  0  0  1  0  0  0  0  0  0
  181.0110  177.9740  137.9980 N   0  0  0  0  0  0  0  0  0  0  0  0
  179.9520  177.1860  138.6130 C   0  0  0  0  0  2  0  0  0  0  0  0
  180.1870  175.6990  138.3690 C   0  0  1  0  0  3  0  0  0  0  0  0
  179.2410  174.9280  139.0450 O   0  0  0  0  0  1  0  0  0  0  0  0
  180.2160  175.3470  136.8780 C   0  0  2  0  0  3  0  0  0  0  0  0
  178.9310  175.5190  136.3630 O   0  0  0  0  0  1  0  0  0  0  0  0
  180.7020  172.9530  137.6930 C   0  0  0  0  0  1  0  0  0  0  0  0
  180.7390  173.9310  136.5150 C   0  0  2  0  0  3  0  0  0  0  0  0
  182.2000  172.6440  134.9810 C   0  0  0  0  0  1  0  0  0  0  0  0
  182.1300  173.9190  135.8160 C   0  0  2  0  0  0  0  0  0  0  0  0
  184.2830  172.8850  136.7330 N   0  0  0  0  0  2  0  0  0  0  0  0
  185.4240  172.8550  137.6320 C   0  0  0  0  0  1  0  0  0  0  0  0
  183.2810  173.9050  136.8120 C   0  0  0  0  0  0  0  0  0  0  0  0
  183.3980  174.8280  137.6640 O   0  0  0  0  0  0  0  0  0  0  0  0
  182.2410  175.0710  134.7920 C   0  0  0  0  0  2  0  0  0  0  0  0
  183.4850  175.9080  134.8710 C   0  0  0  0  0  0  0  0  0  0  0  0
  183.4190  177.1180  135.2090 O   0  0  0  0  0  1  0  0  0  0  0  0
  184.7190  175.3340  134.5970 O   0  0  0  0  0  0  0  0  0  0  0  0
  1 14  1  6  0  0  0
  1 26  1  0  0  0  0
  1 18  1  0  0  0  0
  3 23  2  0  0  0  0
  5 28  1  0  0  0  0
  6  4  1  0  0  0  0
  6 10  1  0  0  0  0
  7  8  1  6  0  0  0
  7 20  1  0  0  0  0
 10  8  2  0  0  0  0
 11 24  1  0  0  0  0
 12  4  1  6  0  0  0
 12 27  1  0  0  0  0
 12  7  1  0  0  0  0
 13 33  1  0  0  0  0
 15 13  2  0  0  0  0
 15 26  1  0  0  0  0
 16 34  1  0  0  0  0
 17 20  1  1  0  0  0
 17 31  1  0  0  0  0
 18 22  2  0  0  0  0
 19  2  1  0  0  0  0
 19 25  1  0  0  0  0
 21 23  1  0  0  0  0
 21  2  1  0  0  0  0
 22 16  1  0  0  0  0
 23  9  1  0  0  0  0
 25 38  1  6  0  0  0
 25 30  1  0  0  0  0
 26 11  2  0  0  0  0
 27  9  1  6  0  0  0
 27 29  1  0  0  0  0
 28 16  2  0  0  0  0
 29 14  1  1  0  0  0
 29 17  1  0  0  0  0
 30 32  1  0  0  0  0
 31 18  1  0  0  0  0
 31  5  2  0  0  0  0
 32 13  1  0  0  0  0
 33 24  2  0  0  0  0
 34 35  2  0  0  0  0
 34 36  1  0  0  0  0
 37 38  1  0  0  0  0
 38 39  1  0  0  0  0
 40 39  1  0  0  0  0
 40 41  1  1  0  0  0
 42 43  1  1  0  0  0
 42 40  1  0  0  0  0
 45 42  1  0  0  0  0
 45 44  1  1  0  0  0
 47 46  1  6  0  0  0
 47 45  1  0  0  0  0
 47 50  1  0  0  0  0
 48 50  1  0  0  0  0
 48 49  1  0  0  0  0
 50 51  2  0  0  0  0
 52 53  1  0  0  0  0
 52 47  1  0  0  0  0
 53 54  1  0  0  0  0
 55 53  2  0  0  0  0
M  END
>  <MODEL>
5

>  <REMARK>
 VINA RESULT:      -7.9      3.436      8.666
  Name = 
  10 active torsions:
  status: ('A' for Active; 'I' for Inactive)
    1  A    between atoms: C_1  and  C_53
    2  A    between atoms: C_6  and  C_14
    3  A    between atoms: C_6  and  C_20
    4  A    between atoms: N_8  and  C_22
    5  A    between atoms: N_8  and  C_43
    6  A    between atoms: C_10  and  C_32
    7  A    between atoms: C_14  and  C_38
    8  A    between atoms: C_20  and  C_22
    9  A    between atoms: C_29  and  C_38
   10  A    between atoms: C_38  and  C_53
                            x       y       z     vdW  Elec       q    Type
                         _______ _______ _______ _____ _____    ______ ____

>  <TORSDO>
F 10

$$$$
