=
 OpenBabel10262419183D

 34 38  0  0  1  0  0  0  0  0999 V2000
  181.3660  180.9680  137.8680 C   0  0  1  0  0  3  0  0  0  0  0  0
  179.7030  181.5850  139.8020 C   0  0  0  0  0  2  0  0  0  0  0  0
  183.4310  178.7120  145.5000 O   0  0  0  0  0  0  0  0  0  0  0  0
  180.7590  179.2250  139.7380 C   0  0  1  0  0  3  0  0  0  0  0  0
  183.0960  178.6340  140.6870 C   0  0  1  0  0  3  0  0  0  0  0  0
  181.1430  179.3710  142.2280 C   0  0  0  0  0  2  0  0  0  0  0  0
  180.4210  180.5180  139.0000 C   0  0  0  0  0  0  0  0  0  0  0  0
  181.8820  178.4390  143.1870 C   0  0  0  0  0  2  0  0  0  0  0  0
  184.0300  178.8230  141.8840 C   0  0  0  0  0  2  0  0  0  0  0  0
  181.1420  178.1140  138.7390 C   0  0  2  0  0  3  0  0  0  0  0  0
  181.6460  179.7970  136.9270 C   0  0  0  0  0  2  0  0  0  0  0  0
  178.9350  180.7310  138.7960 C   0  0  0  0  0  2  0  0  0  0  0  0
  182.8340  177.1420  140.4350 C   0  0  0  0  0  2  0  0  0  0  0  0
  181.6290  176.8830  139.5170 C   0  0  2  0  0  3  0  0  0  0  0  0
  183.3160  178.7230  143.1630 N   0  0  0  0  0  0  0  0  0  0  0  0
  181.8040  179.4670  140.8450 C   0  0  2  0  0  3  0  0  0  0  0  0
  182.1760  178.5980  137.7080 C   0  0  0  0  0  2  0  0  0  0  0  0
  184.0340  178.8450  144.4010 C   0  0  0  0  0  0  0  0  0  0  0  0
  180.8110  173.8730  137.3820 C   0  0  0  0  0  0  0  0  0  0  0  0
  182.0540  173.4270  137.0570 N   0  0  0  0  0  0  0  0  0  0  0  0
  181.7970  175.6620  138.6660 C   0  0  0  0  0  0  0  0  0  0  0  0
  183.1750  174.0560  137.5030 C   0  0  0  0  0  3  0  0  0  0  0  0
  180.6610  175.0020  138.1910 C   0  0  0  0  0  3  0  0  0  0  0  0
  183.0680  175.1870  138.3140 C   0  0  0  0  0  3  0  0  0  0  0  0
  179.7170  173.2230  136.9180 F   0  0  0  0  0  0  0  0  0  0  0  0
  180.9130  182.1730  137.0980 C   0  0  0  0  0  0  0  0  0  0  0  0
  181.3500  183.4450  137.4510 O   0  0  0  0  0  1  0  0  0  0  0  0
  180.1500  182.0280  136.1090 O   0  0  0  0  0  0  0  0  0  0  0  0
  185.4960  179.1640  144.4170 C   0  0  0  0  0  2  0  0  0  0  0  0
  186.3220  177.8980  144.6130 C   0  0  0  0  0  3  0  0  0  0  0  0
  187.0500  177.4830  143.3290 C   0  0  0  0  0  2  0  0  0  0  0  0
  188.1100  176.4180  143.5790 C   0  0  0  0  0  1  0  0  0  0  0  0
  187.2850  178.0820  145.7770 C   0  0  0  0  0  2  0  0  0  0  0  0
  186.5180  178.2720  147.0720 C   0  0  0  0  0  1  0  0  0  0  0  0
  1 26  1  6  0  0  0
  1  7  1  0  0  0  0
  4  7  1  6  0  0  0
  4 16  1  0  0  0  0
  5 13  1  1  0  0  0
  5 16  1  0  0  0  0
  5  9  1  0  0  0  0
  6  8  1  0  0  0  0
  7  2  1  0  0  0  0
  9 15  1  0  0  0  0
 10 17  1  6  0  0  0
 10 14  1  0  0  0  0
 10  4  1  0  0  0  0
 11 17  1  0  0  0  0
 11  1  1  0  0  0  0
 12  7  1  0  0  0  0
 12  2  1  0  0  0  0
 14 21  1  6  0  0  0
 14 13  1  0  0  0  0
 15  8  1  0  0  0  0
 15 18  1  0  0  0  0
 16  6  1  1  0  0  0
 18 29  1  0  0  0  0
 18  3  2  0  0  0  0
 19 23  1  0  0  0  0
 20 19  2  0  0  0  0
 20 22  1  0  0  0  0
 22 24  2  0  0  0  0
 23 21  2  0  0  0  0
 24 21  1  0  0  0  0
 25 19  1  0  0  0  0
 26 27  1  0  0  0  0
 28 26  2  0  0  0  0
 29 30  1  0  0  0  0
 30 33  1  0  0  0  0
 31 32  1  0  0  0  0
 31 30  1  0  0  0  0
 33 34  1  0  0  0  0
M  END
>  <MODEL>
1

>  <REMARK>
 VINA RESULT:      -6.8      0.000      0.000
  Name = 
  6 active torsions:
  status: ('A' for Active; 'I' for Inactive)
    1  A    between atoms: C_1  and  C_6
    2  A    between atoms: C_11  and  C_20
    3  A    between atoms: C_12  and  C_28
    4  A    between atoms: C_13  and  C_20
    5  A    between atoms: C_13  and  C_33
    6  A    between atoms: C_14  and  C_20
                            x       y       z     vdW  Elec       q    Type
                         _______ _______ _______ _____ _____    ______ ____

>  <TORSDO>
F 6

$$$$
=
 OpenBabel10262419183D

 34 38  0  0  1  0  0  0  0  0999 V2000
  181.0580  175.8000  137.0100 C   0  0  1  0  0  3  0  0  0  0  0  0
  183.5710  175.5380  136.2990 C   0  0  0  0  0  2  0  0  0  0  0  0
  186.7600  178.9990  141.9970 O   0  0  0  0  0  0  0  0  0  0  0  0
  182.7370  177.8130  137.2000 C   0  0  1  0  0  3  0  0  0  0  0  0
  182.5500  178.4210  139.7120 C   0  0  1  0  0  3  0  0  0  0  0  0
  184.8440  177.9980  138.5760 C   0  0  0  0  0  2  0  0  0  0  0  0
  182.3990  176.4470  136.6070 C   0  0  0  0  0  0  0  0  0  0  0  0
  185.2690  179.0190  139.6290 C   0  0  0  0  0  2  0  0  0  0  0  0
  183.2740  178.3570  141.0570 C   0  0  0  0  0  2  0  0  0  0  0  0
  181.5170  178.7550  137.1210 C   0  0  2  0  0  3  0  0  0  0  0  0
  179.9260  176.8140  136.8610 C   0  0  0  0  0  2  0  0  0  0  0  0
  182.8530  176.2770  135.1720 C   0  0  0  0  0  2  0  0  0  0  0  0
  182.2110  179.8730  139.3470 C   0  0  0  0  0  2  0  0  0  0  0  0
  181.8390  180.0580  137.8670 C   0  0  2  0  0  3  0  0  0  0  0  0
  184.7030  178.6680  140.9310 N   0  0  0  0  0  0  0  0  0  0  0  0
  183.3410  177.6790  138.6110 C   0  0  2  0  0  3  0  0  0  0  0  0
  180.2360  178.0840  137.6470 C   0  0  0  0  0  2  0  0  0  0  0  0
  185.5420  178.6860  142.0960 C   0  0  0  0  0  0  0  0  0  0  0  0
  179.6000  182.5680  136.1420 C   0  0  0  0  0  0  0  0  0  0  0  0
  178.9330  183.1040  137.1980 N   0  0  0  0  0  0  0  0  0  0  0  0
  180.8250  181.1390  137.6510 C   0  0  0  0  0  0  0  0  0  0  0  0
  179.1710  182.6960  138.4730 C   0  0  0  0  0  3  0  0  0  0  0  0
  180.5580  181.5730  136.3510 C   0  0  0  0  0  3  0  0  0  0  0  0
  180.1210  181.7040  138.7240 C   0  0  0  0  0  3  0  0  0  0  0  0
  179.3340  182.9970  134.8850 F   0  0  0  0  0  0  0  0  0  0  0  0
  180.7270  174.5220  136.2990 C   0  0  0  0  0  0  0  0  0  0  0  0
  179.9940  174.5370  135.1170 O   0  0  0  0  0  0  0  0  0  0  0  0
  181.1370  173.4280  136.7650 O   0  0  0  0  0  1  0  0  0  0  0  0
  185.0060  178.3050  143.4400 C   0  0  0  0  0  2  0  0  0  0  0  0
  186.0640  178.5000  144.5190 C   0  0  0  0  0  3  0  0  0  0  0  0
  185.5080  179.2390  145.7420 C   0  0  0  0  0  2  0  0  0  0  0  0
  184.9860  178.2870  146.8100 C   0  0  0  0  0  1  0  0  0  0  0  0
  186.6740  177.1570  144.8970 C   0  0  0  0  0  2  0  0  0  0  0  0
  188.1800  177.2800  145.0330 C   0  0  0  0  0  1  0  0  0  0  0  0
  1 26  1  6  0  0  0
  2  7  1  0  0  0  0
  3 18  2  0  0  0  0
  4  7  1  1  0  0  0
  4 16  1  0  0  0  0
  5 13  1  6  0  0  0
  5  9  1  0  0  0  0
  6  8  1  0  0  0  0
  7  1  1  0  0  0  0
  8 15  1  0  0  0  0
 10  4  1  0  0  0  0
 10 17  1  1  0  0  0
 10 14  1  0  0  0  0
 11  1  1  0  0  0  0
 11 17  1  0  0  0  0
 12  2  1  0  0  0  0
 12  7  1  0  0  0  0
 14 21  1  1  0  0  0
 14 13  1  0  0  0  0
 15  9  1  0  0  0  0
 15 18  1  0  0  0  0
 16  6  1  6  0  0  0
 16  5  1  0  0  0  0
 18 29  1  0  0  0  0
 19 23  2  0  0  0  0
 19 20  1  0  0  0  0
 20 22  2  0  0  0  0
 21 24  2  0  0  0  0
 22 24  1  0  0  0  0
 23 21  1  0  0  0  0
 25 19  1  0  0  0  0
 26 28  1  0  0  0  0
 27 26  2  0  0  0  0
 29 30  1  0  0  0  0
 30 33  1  0  0  0  0
 30 31  1  0  0  0  0
 31 32  1  0  0  0  0
 33 34  1  0  0  0  0
M  END
>  <MODEL>
2

>  <REMARK>
 VINA RESULT:      -6.5      3.480      5.677
  Name = 
  6 active torsions:
  status: ('A' for Active; 'I' for Inactive)
    1  A    between atoms: C_1  and  C_6
    2  A    between atoms: C_11  and  C_20
    3  A    between atoms: C_12  and  C_28
    4  A    between atoms: C_13  and  C_20
    5  A    between atoms: C_13  and  C_33
    6  A    between atoms: C_14  and  C_20
                            x       y       z     vdW  Elec       q    Type
                         _______ _______ _______ _____ _____    ______ ____

>  <TORSDO>
F 6

$$$$
=
 OpenBabel10262419183D

 34 38  0  0  1  0  0  0  0  0999 V2000
  180.9670  180.7360  136.9900 C   0  0  1  0  0  3  0  0  0  0  0  0
  180.1580  181.2450  139.4340 C   0  0  0  0  0  2  0  0  0  0  0  0
  185.8350  178.3380  143.1670 O   0  0  0  0  0  0  0  0  0  0  0  0
  181.1550  178.9230  138.8830 C   0  0  1  0  0  3  0  0  0  0  0  0
  183.6880  178.3820  138.8460 C   0  0  1  0  0  3  0  0  0  0  0  0
  182.4580  179.0130  141.0420 C   0  0  0  0  0  2  0  0  0  0  0  0
  180.5350  180.2250  138.3790 C   0  0  0  0  0  0  0  0  0  0  0  0
  183.5250  178.0790  141.6100 C   0  0  0  0  0  2  0  0  0  0  0  0
  185.0040  178.5680  139.6030 C   0  0  0  0  0  2  0  0  0  0  0  0
  181.1480  177.8530  137.7720 C   0  0  2  0  0  3  0  0  0  0  0  0
  180.8890  179.6010  135.9700 C   0  0  0  0  0  2  0  0  0  0  0  0
  179.0800  180.3950  138.7650 C   0  0  0  0  0  2  0  0  0  0  0  0
  183.3790  176.8910  138.6560 C   0  0  0  0  0  2  0  0  0  0  0  0
  181.9190  176.6180  138.2580 C   0  0  2  0  0  3  0  0  0  0  0  0
  184.8350  178.4100  141.0530 N   0  0  0  0  0  0  0  0  0  0  0  0
  182.5380  179.1690  139.5160 C   0  0  2  0  0  3  0  0  0  0  0  0
  181.7000  178.3990  136.4430 C   0  0  0  0  0  2  0  0  0  0  0  0
  185.9690  178.5210  141.9260 C   0  0  0  0  0  0  0  0  0  0  0  0
  180.3620  173.7600  136.3350 C   0  0  0  0  0  0  0  0  0  0  0  0
  181.4430  173.2520  135.6850 N   0  0  0  0  0  0  0  0  0  0  0  0
  181.7720  175.4270  137.3610 C   0  0  0  0  0  0  0  0  0  0  0  0
  182.6830  173.7900  135.8370 C   0  0  0  0  0  3  0  0  0  0  0  0
  180.5090  174.8600  137.1840 C   0  0  0  0  0  3  0  0  0  0  0  0
  182.8710  174.8890  136.6760 C   0  0  0  0  0  3  0  0  0  0  0  0
  179.1420  173.2000  136.1580 F   0  0  0  0  0  0  0  0  0  0  0  0
  180.2310  181.9470  136.4980 C   0  0  0  0  0  0  0  0  0  0  0  0
  180.6870  183.2250  136.7990 O   0  0  0  0  0  1  0  0  0  0  0  0
  179.2040  181.8020  135.7860 O   0  0  0  0  0  0  0  0  0  0  0  0
  187.3200  178.8860  141.3960 C   0  0  0  0  0  2  0  0  0  0  0  0
  188.3080  177.7440  141.6020 C   0  0  0  0  0  3  0  0  0  0  0  0
  189.0480  177.3840  140.3090 C   0  0  0  0  0  2  0  0  0  0  0  0
  188.7820  178.3810  139.1890 C   0  0  0  0  0  1  0  0  0  0  0  0
  189.2700  178.0880  142.7300 C   0  0  0  0  0  2  0  0  0  0  0  0
  189.0810  177.1360  143.8960 C   0  0  0  0  0  1  0  0  0  0  0  0
  1 26  1  6  0  0  0
  1  7  1  0  0  0  0
  4  7  1  6  0  0  0
  4 16  1  0  0  0  0
  5 13  1  1  0  0  0
  5 16  1  0  0  0  0
  5  9  1  0  0  0  0
  6  8  1  0  0  0  0
  7 12  1  0  0  0  0
  7  2  1  0  0  0  0
  9 15  1  0  0  0  0
 10 17  1  6  0  0  0
 10 14  1  0  0  0  0
 10  4  1  0  0  0  0
 11 17  1  0  0  0  0
 11  1  1  0  0  0  0
 12  2  1  0  0  0  0
 14 21  1  6  0  0  0
 14 13  1  0  0  0  0
 15  8  1  0  0  0  0
 15 18  1  0  0  0  0
 16  6  1  1  0  0  0
 18  3  2  0  0  0  0
 19 23  1  0  0  0  0
 20 22  1  0  0  0  0
 20 19  2  0  0  0  0
 22 24  2  0  0  0  0
 23 21  2  0  0  0  0
 24 21  1  0  0  0  0
 25 19  1  0  0  0  0
 26 27  1  0  0  0  0
 28 26  2  0  0  0  0
 29 30  1  0  0  0  0
 29 18  1  0  0  0  0
 30 33  1  0  0  0  0
 31 30  1  0  0  0  0
 32 31  1  0  0  0  0
 33 34  1  0  0  0  0
M  END
>  <MODEL>
3

>  <REMARK>
 VINA RESULT:      -5.8      1.802      2.245
  Name = 
  6 active torsions:
  status: ('A' for Active; 'I' for Inactive)
    1  A    between atoms: C_1  and  C_6
    2  A    between atoms: C_11  and  C_20
    3  A    between atoms: C_12  and  C_28
    4  A    between atoms: C_13  and  C_20
    5  A    between atoms: C_13  and  C_33
    6  A    between atoms: C_14  and  C_20
                            x       y       z     vdW  Elec       q    Type
                         _______ _______ _______ _____ _____    ______ ____

>  <TORSDO>
F 6

$$$$
=
 OpenBabel10262419183D

 34 38  0  0  1  0  0  0  0  0999 V2000
  181.1410  180.6890  137.1040 C   0  0  1  0  0  3  0  0  0  0  0  0
  180.0050  181.7450  139.2210 C   0  0  0  0  0  2  0  0  0  0  0  0
  184.2600  178.7250  144.4540 O   0  0  0  0  0  0  0  0  0  0  0  0
  180.6380  179.2380  139.2370 C   0  0  1  0  0  3  0  0  0  0  0  0
  182.9910  178.3200  139.8170 C   0  0  1  0  0  3  0  0  0  0  0  0
  181.5160  179.5140  141.5870 C   0  0  0  0  0  2  0  0  0  0  0  0
  180.3740  180.5080  138.4290 C   0  0  0  0  0  0  0  0  0  0  0  0
  182.2680  178.5460  142.4980 C   0  0  0  0  0  2  0  0  0  0  0  0
  184.1560  178.4360  140.8000 C   0  0  0  0  0  2  0  0  0  0  0  0
  180.6380  178.0000  138.3160 C   0  0  2  0  0  3  0  0  0  0  0  0
  181.0430  179.4160  136.2670 C   0  0  0  0  0  2  0  0  0  0  0  0
  178.9310  180.9640  138.4690 C   0  0  0  0  0  2  0  0  0  0  0  0
  182.4500  176.8830  139.7840 C   0  0  0  0  0  2  0  0  0  0  0  0
  181.0640  176.7690  139.1290 C   0  0  2  0  0  3  0  0  0  0  0  0
  183.6970  178.5680  142.1890 N   0  0  0  0  0  0  0  0  0  0  0  0
  181.9030  179.3800  140.1060 C   0  0  2  0  0  3  0  0  0  0  0  0
  181.5170  178.2090  137.0700 C   0  0  0  0  0  2  0  0  0  0  0  0
  184.6520  178.6600  143.2570 C   0  0  0  0  0  0  0  0  0  0  0  0
  181.7760  173.6760  137.0760 C   0  0  0  0  0  0  0  0  0  0  0  0
  180.5630  173.0620  137.0840 N   0  0  0  0  0  0  0  0  0  0  0  0
  180.8670  175.4740  138.4040 C   0  0  0  0  0  0  0  0  0  0  0  0
  179.4940  173.6050  137.7280 C   0  0  0  0  0  3  0  0  0  0  0  0
  181.9500  174.8930  137.7400 C   0  0  0  0  0  3  0  0  0  0  0  0
  179.6270  174.8200  138.4020 C   0  0  0  0  0  3  0  0  0  0  0  0
  182.8190  173.1050  136.4270 F   0  0  0  0  0  0  0  0  0  0  0  0
  180.7460  181.8900  136.2970 C   0  0  0  0  0  0  0  0  0  0  0  0
  179.8360  181.7740  135.2530 O   0  0  0  0  0  0  0  0  0  0  0  0
  181.2260  183.0170  136.5840 O   0  0  0  0  0  1  0  0  0  0  0  0
  186.1210  178.7140  142.9780 C   0  0  0  0  0  2  0  0  0  0  0  0
  186.8340  177.5210  143.6050 C   0  0  0  0  0  3  0  0  0  0  0  0
  188.0210  177.0510  142.7570 C   0  0  0  0  0  2  0  0  0  0  0  0
  188.9000  178.2060  142.2960 C   0  0  0  0  0  1  0  0  0  0  0  0
  187.2510  177.8570  145.0300 C   0  0  0  0  0  2  0  0  0  0  0  0
  188.3160  176.8900  145.5110 C   0  0  0  0  0  1  0  0  0  0  0  0
  1 26  1  6  0  0  0
  1  7  1  0  0  0  0
  4  7  1  6  0  0  0
  4 16  1  0  0  0  0
  5 13  1  1  0  0  0
  5 16  1  0  0  0  0
  5  9  1  0  0  0  0
  6  8  1  0  0  0  0
  7 12  1  0  0  0  0
  7  2  1  0  0  0  0
  9 15  1  0  0  0  0
 10 17  1  6  0  0  0
 10 14  1  0  0  0  0
 10  4  1  0  0  0  0
 11 17  1  0  0  0  0
 11  1  1  0  0  0  0
 12  2  1  0  0  0  0
 14 21  1  6  0  0  0
 14 13  1  0  0  0  0
 15  8  1  0  0  0  0
 15 18  1  0  0  0  0
 16  6  1  1  0  0  0
 18  3  2  0  0  0  0
 19 20  2  0  0  0  0
 19 23  1  0  0  0  0
 20 22  1  0  0  0  0
 22 24  2  0  0  0  0
 23 21  2  0  0  0  0
 24 21  1  0  0  0  0
 25 19  1  0  0  0  0
 26 28  1  0  0  0  0
 27 26  2  0  0  0  0
 29 18  1  0  0  0  0
 29 30  1  0  0  0  0
 30 33  1  0  0  0  0
 31 30  1  0  0  0  0
 32 31  1  0  0  0  0
 33 34  1  0  0  0  0
M  END
>  <MODEL>
4

>  <REMARK>
 VINA RESULT:      -5.6      1.169      1.610
  Name = 
  6 active torsions:
  status: ('A' for Active; 'I' for Inactive)
    1  A    between atoms: C_1  and  C_6
    2  A    between atoms: C_11  and  C_20
    3  A    between atoms: C_12  and  C_28
    4  A    between atoms: C_13  and  C_20
    5  A    between atoms: C_13  and  C_33
    6  A    between atoms: C_14  and  C_20
                            x       y       z     vdW  Elec       q    Type
                         _______ _______ _______ _____ _____    ______ ____

>  <TORSDO>
F 6

$$$$
=
 OpenBabel10262419183D

 34 38  0  0  1  0  0  0  0  0999 V2000
  186.6450  178.0200  137.2100 C   0  0  1  0  0  3  0  0  0  0  0  0
  184.7670  176.6260  136.0180 C   0  0  0  0  0  2  0  0  0  0  0  0
  178.9350  180.8310  137.7230 O   0  0  0  0  0  0  0  0  0  0  0  0
  184.3510  177.5430  138.3990 C   0  0  1  0  0  3  0  0  0  0  0  0
  183.5220  179.9400  138.9270 C   0  0  1  0  0  3  0  0  0  0  0  0
  182.0250  178.2180  137.6910 C   0  0  0  0  0  2  0  0  0  0  0  0
  185.3490  177.1890  137.2980 C   0  0  0  0  0  0  0  0  0  0  0  0
  180.9440  179.0130  138.4210 C   0  0  0  0  0  2  0  0  0  0  0  0
  182.5070  181.0140  138.5310 C   0  0  0  0  0  2  0  0  0  0  0  0
  185.0780  177.7490  139.7440 C   0  0  2  0  0  3  0  0  0  0  0  0
  187.2890  178.1280  138.5900 C   0  0  0  0  0  2  0  0  0  0  0  0
  185.4510  175.7030  137.0250 C   0  0  0  0  0  2  0  0  0  0  0  0
  183.3700  179.5730  140.4100 C   0  0  0  0  0  2  0  0  0  0  0  0
  184.0710  178.2580  140.7870 C   0  0  2  0  0  3  0  0  0  0  0  0
  181.1790  180.4480  138.2640 N   0  0  0  0  0  0  0  0  0  0  0  0
  183.4480  178.7200  137.9820 C   0  0  2  0  0  3  0  0  0  0  0  0
  186.2940  178.6820  139.6040 C   0  0  0  0  0  2  0  0  0  0  0  0
  180.0880  181.3100  137.9060 C   0  0  0  0  0  0  0  0  0  0  0  0
  184.2550  178.6230  144.5450 C   0  0  0  0  0  0  0  0  0  0  0  0
  185.5390  178.2490  144.7900 N   0  0  0  0  0  0  0  0  0  0  0  0
  184.6070  178.2630  142.1860 C   0  0  0  0  0  0  0  0  0  0  0  0
  186.3770  177.8790  143.7840 C   0  0  0  0  0  3  0  0  0  0  0  0
  183.7660  178.6330  143.2360 C   0  0  0  0  0  3  0  0  0  0  0  0
  185.9260  177.8770  142.4630 C   0  0  0  0  0  3  0  0  0  0  0  0
  183.4470  178.9830  145.5710 F   0  0  0  0  0  0  0  0  0  0  0  0
  187.6390  177.5450  136.1920 C   0  0  0  0  0  0  0  0  0  0  0  0
  188.7100  176.7420  136.5680 O   0  0  0  0  0  1  0  0  0  0  0  0
  187.4870  177.8560  134.9830 O   0  0  0  0  0  0  0  0  0  0  0  0
  180.2960  182.7780  137.7090 C   0  0  0  0  0  2  0  0  0  0  0  0
  180.8990  183.0590  136.3370 C   0  0  0  0  0  3  0  0  0  0  0  0
  180.0820  182.4190  135.2090 C   0  0  0  0  0  2  0  0  0  0  0  0
  180.7750  181.2060  134.6040 C   0  0  0  0  0  1  0  0  0  0  0  0
  181.0620  184.5590  136.1400 C   0  0  0  0  0  2  0  0  0  0  0  0
  180.6950  185.3030  137.4100 C   0  0  0  0  0  1  0  0  0  0  0  0
  1 26  1  6  0  0  0
  1  7  1  0  0  0  0
  1 11  1  0  0  0  0
  2 12  1  0  0  0  0
  2  7  1  0  0  0  0
  3 18  2  0  0  0  0
  4  7  1  6  0  0  0
  4 10  1  0  0  0  0
  5  9  1  6  0  0  0
  5 13  1  0  0  0  0
  6  8  1  0  0  0  0
 10 17  1  6  0  0  0
 10 14  1  0  0  0  0
 11 17  1  0  0  0  0
 12  7  1  0  0  0  0
 13 14  1  0  0  0  0
 14 21  1  1  0  0  0
 15  8  1  0  0  0  0
 15  9  1  0  0  0  0
 16  6  1  1  0  0  0
 16  4  1  0  0  0  0
 16  5  1  0  0  0  0
 18 15  1  0  0  0  0
 19 20  1  0  0  0  0
 19 25  1  0  0  0  0
 21 24  2  0  0  0  0
 21 23  1  0  0  0  0
 22 20  2  0  0  0  0
 23 19  2  0  0  0  0
 24 22  1  0  0  0  0
 26 27  1  0  0  0  0
 28 26  2  0  0  0  0
 29 18  1  0  0  0  0
 30 29  1  0  0  0  0
 31 30  1  0  0  0  0
 32 31  1  0  0  0  0
 33 30  1  0  0  0  0
 33 34  1  0  0  0  0
M  END
>  <MODEL>
5

>  <REMARK>
 VINA RESULT:      -5.4      3.881      7.955
  Name = 
  6 active torsions:
  status: ('A' for Active; 'I' for Inactive)
    1  A    between atoms: C_1  and  C_6
    2  A    between atoms: C_11  and  C_20
    3  A    between atoms: C_12  and  C_28
    4  A    between atoms: C_13  and  C_20
    5  A    between atoms: C_13  and  C_33
    6  A    between atoms: C_14  and  C_20
                            x       y       z     vdW  Elec       q    Type
                         _______ _______ _______ _____ _____    ______ ____

>  <TORSDO>
F 6

$$$$
=
 OpenBabel10262419183D

 34 38  0  0  1  0  0  0  0  0999 V2000
  180.9540  180.1950  136.2220 C   0  0  1  0  0  3  0  0  0  0  0  0
  181.5020  181.6410  138.3430 C   0  0  0  0  0  2  0  0  0  0  0  0
  187.9880  178.6090  140.1720 O   0  0  0  0  0  0  0  0  0  0  0  0
  181.8820  179.0840  138.4150 C   0  0  1  0  0  3  0  0  0  0  0  0
  184.0080  177.8890  137.5410 C   0  0  1  0  0  3  0  0  0  0  0  0
  184.0800  179.4830  139.5880 C   0  0  0  0  0  2  0  0  0  0  0  0
  181.2160  180.2810  137.7380 C   0  0  0  0  0  0  0  0  0  0  0  0
  185.1980  178.5190  139.9800 C   0  0  0  0  0  2  0  0  0  0  0  0
  185.5370  177.9350  137.5300 C   0  0  0  0  0  2  0  0  0  0  0  0
  181.2320  177.7650  137.9460 C   0  0  2  0  0  3  0  0  0  0  0  0
  180.2810  178.8660  135.8840 C   0  0  0  0  0  2  0  0  0  0  0  0
  180.1620  180.9530  138.5930 C   0  0  0  0  0  2  0  0  0  0  0  0
  183.5110  176.5560  138.1190 C   0  0  0  0  0  2  0  0  0  0  0  0
  182.0260  176.5820  138.5170 C   0  0  2  0  0  3  0  0  0  0  0  0
  186.0890  178.2890  138.8430 N   0  0  0  0  0  0  0  0  0  0  0  0
  183.4130  179.1270  138.2500 C   0  0  2  0  0  3  0  0  0  0  0  0
  181.1070  177.6980  136.4140 C   0  0  0  0  0  2  0  0  0  0  0  0
  187.5110  178.3530  139.0330 C   0  0  0  0  0  0  0  0  0  0  0  0
  181.3070  173.0720  137.3130 C   0  0  0  0  0  0  0  0  0  0  0  0
  180.1590  172.7870  137.9830 N   0  0  0  0  0  0  0  0  0  0  0  0
  181.3500  175.2590  138.3310 C   0  0  0  0  0  0  0  0  0  0  0  0
  179.5820  173.6880  138.8230 C   0  0  0  0  0  3  0  0  0  0  0  0
  181.9240  174.3140  137.4780 C   0  0  0  0  0  3  0  0  0  0  0  0
  180.1680  174.9410  139.0150 C   0  0  0  0  0  3  0  0  0  0  0  0
  181.8550  172.1490  136.4870 F   0  0  0  0  0  0  0  0  0  0  0  0
  180.1850  181.3450  135.6410 C   0  0  0  0  0  0  0  0  0  0  0  0
  180.8460  182.4680  135.1580 O   0  0  0  0  0  0  0  0  0  0  0  0
  178.9310  181.2790  135.5680 O   0  0  0  0  0  1  0  0  0  0  0  0
  188.4530  178.1510  137.8890 C   0  0  0  0  0  2  0  0  0  0  0  0
  189.0060  176.7310  137.8880 C   0  0  0  0  0  3  0  0  0  0  0  0
  188.6170  175.9630  136.6200 C   0  0  0  0  0  2  0  0  0  0  0  0
  187.5490  174.9100  136.8810 C   0  0  0  0  0  1  0  0  0  0  0  0
  190.5150  176.7620  138.0920 C   0  0  0  0  0  2  0  0  0  0  0  0
  191.0860  175.3580  138.0240 C   0  0  0  0  0  1  0  0  0  0  0  0
  1 26  1  1  0  0  0
  1  7  1  0  0  0  0
  2 12  1  0  0  0  0
  4  7  1  6  0  0  0
  5  9  1  1  0  0  0
  5 13  1  0  0  0  0
  5 16  1  0  0  0  0
  6  8  1  0  0  0  0
  7  2  1  0  0  0  0
  7 12  1  0  0  0  0
  9 15  1  0  0  0  0
 10 17  1  6  0  0  0
 10  4  1  0  0  0  0
 10 14  1  0  0  0  0
 11  1  1  0  0  0  0
 11 17  1  0  0  0  0
 13 14  1  0  0  0  0
 14 21  1  6  0  0  0
 15 18  1  0  0  0  0
 15  8  1  0  0  0  0
 16  4  1  0  0  0  0
 16  6  1  1  0  0  0
 18  3  2  0  0  0  0
 19 23  2  0  0  0  0
 19 20  1  0  0  0  0
 20 22  2  0  0  0  0
 21 24  2  0  0  0  0
 22 24  1  0  0  0  0
 23 21  1  0  0  0  0
 25 19  1  0  0  0  0
 27 26  2  0  0  0  0
 28 26  1  0  0  0  0
 29 18  1  0  0  0  0
 30 29  1  0  0  0  0
 30 33  1  0  0  0  0
 31 32  1  0  0  0  0
 31 30  1  0  0  0  0
 34 33  1  0  0  0  0
M  END
>  <MODEL>
6

>  <REMARK>
 VINA RESULT:      -5.4      3.262      4.420
  Name = 
  6 active torsions:
  status: ('A' for Active; 'I' for Inactive)
    1  A    between atoms: C_1  and  C_6
    2  A    between atoms: C_11  and  C_20
    3  A    between atoms: C_12  and  C_28
    4  A    between atoms: C_13  and  C_20
    5  A    between atoms: C_13  and  C_33
    6  A    between atoms: C_14  and  C_20
                            x       y       z     vdW  Elec       q    Type
                         _______ _______ _______ _____ _____    ______ ____

>  <TORSDO>
F 6

$$$$
=
 OpenBabel10262419183D

 34 38  0  0  1  0  0  0  0  0999 V2000
  180.9380  175.4790  137.6310 C   0  0  1  0  0  3  0  0  0  0  0  0
  183.3760  175.0740  136.7480 C   0  0  0  0  0  2  0  0  0  0  0  0
  187.0890  179.1280  141.6860 O   0  0  0  0  0  0  0  0  0  0  0  0
  182.6510  177.4610  137.4300 C   0  0  1  0  0  3  0  0  0  0  0  0
  182.6900  178.3730  139.8540 C   0  0  1  0  0  3  0  0  0  0  0  0
  184.8720  177.7630  138.5890 C   0  0  0  0  0  2  0  0  0  0  0  0
  182.2460  176.0410  137.0400 C   0  0  0  0  0  0  0  0  0  0  0  0
  185.3990  178.8940  139.4690 C   0  0  0  0  0  2  0  0  0  0  0  0
  183.5270  178.4570  141.1310 C   0  0  0  0  0  2  0  0  0  0  0  0
  181.4410  178.4140  137.3390 C   0  0  2  0  0  3  0  0  0  0  0  0
  179.8090  176.4920  137.4550 C   0  0  0  0  0  2  0  0  0  0  0  0
  182.5720  175.6880  135.6040 C   0  0  0  0  0  2  0  0  0  0  0  0
  182.3390  179.7780  139.3440 C   0  0  0  0  0  2  0  0  0  0  0  0
  181.8420  179.7900  137.8890 C   0  0  2  0  0  3  0  0  0  0  0  0
  184.9440  178.7170  140.8470 N   0  0  0  0  0  0  0  0  0  0  0  0
  183.3740  177.4850  138.7900 C   0  0  2  0  0  3  0  0  0  0  0  0
  180.2020  177.8410  138.0500 C   0  0  0  0  0  2  0  0  0  0  0  0
  185.8810  178.8570  141.9260 C   0  0  0  0  0  0  0  0  0  0  0  0
  179.6350  182.8200  138.3760 C   0  0  0  0  0  0  0  0  0  0  0  0
  178.9880  182.8770  137.1810 N   0  0  0  0  0  0  0  0  0  0  0  0
  180.8270  180.8600  137.6290 C   0  0  0  0  0  0  0  0  0  0  0  0
  179.2260  181.9670  136.1990 C   0  0  0  0  0  3  0  0  0  0  0  0
  180.5680  181.8090  138.6200 C   0  0  0  0  0  3  0  0  0  0  0  0
  180.1510  180.9420  136.4030 C   0  0  0  0  0  3  0  0  0  0  0  0
  179.3750  183.7450  139.3310 F   0  0  0  0  0  0  0  0  0  0  0  0
  180.5300  174.1310  137.1130 C   0  0  0  0  0  0  0  0  0  0  0  0
  181.0490  172.9700  137.6730 O   0  0  0  0  0  1  0  0  0  0  0  0
  179.6910  174.0530  136.1790 O   0  0  0  0  0  0  0  0  0  0  0  0
  185.4590  178.6550  143.3470 C   0  0  0  0  0  2  0  0  0  0  0  0
  186.3350  177.6090  144.0270 C   0  0  0  0  0  3  0  0  0  0  0  0
  187.7620  177.6030  143.4680 C   0  0  0  0  0  2  0  0  0  0  0  0
  188.6170  176.4940  144.0640 C   0  0  0  0  0  1  0  0  0  0  0  0
  186.3170  177.8190  145.5350 C   0  0  0  0  0  2  0  0  0  0  0  0
  185.3140  178.8930  145.9080 C   0  0  0  0  0  1  0  0  0  0  0  0
  1 26  1  6  0  0  0
  2  7  1  0  0  0  0
  3 18  2  0  0  0  0
  4  7  1  1  0  0  0
  4 16  1  0  0  0  0
  5 13  1  6  0  0  0
  5  9  1  0  0  0  0
  6  8  1  0  0  0  0
  7  1  1  0  0  0  0
  8 15  1  0  0  0  0
 10  4  1  0  0  0  0
 10 14  1  0  0  0  0
 10 17  1  1  0  0  0
 11  1  1  0  0  0  0
 11 17  1  0  0  0  0
 12  2  1  0  0  0  0
 12  7  1  0  0  0  0
 14 21  1  1  0  0  0
 14 13  1  0  0  0  0
 15  9  1  0  0  0  0
 15 18  1  0  0  0  0
 16  6  1  6  0  0  0
 16  5  1  0  0  0  0
 18 29  1  0  0  0  0
 19 23  1  0  0  0  0
 19 25  1  0  0  0  0
 20 19  2  0  0  0  0
 21 23  2  0  0  0  0
 22 24  2  0  0  0  0
 22 20  1  0  0  0  0
 24 21  1  0  0  0  0
 26 27  1  0  0  0  0
 28 26  2  0  0  0  0
 29 30  1  0  0  0  0
 30 33  1  0  0  0  0
 31 30  1  0  0  0  0
 31 32  1  0  0  0  0
 33 34  1  0  0  0  0
M  END
>  <MODEL>
7

>  <REMARK>
 VINA RESULT:      -5.4      3.586      5.644
  Name = 
  6 active torsions:
  status: ('A' for Active; 'I' for Inactive)
    1  A    between atoms: C_1  and  C_6
    2  A    between atoms: C_11  and  C_20
    3  A    between atoms: C_12  and  C_28
    4  A    between atoms: C_13  and  C_20
    5  A    between atoms: C_13  and  C_33
    6  A    between atoms: C_14  and  C_20
                            x       y       z     vdW  Elec       q    Type
                         _______ _______ _______ _____ _____    ______ ____

>  <TORSDO>
F 6

$$$$
=
 OpenBabel10262419183D

 34 38  0  0  1  0  0  0  0  0999 V2000
  186.4720  177.9680  137.6970 C   0  0  1  0  0  3  0  0  0  0  0  0
  184.6950  176.6270  136.3070 C   0  0  0  0  0  2  0  0  0  0  0  0
  178.9390  181.2000  137.0590 O   0  0  0  0  0  0  0  0  0  0  0  0
  184.0150  177.6620  138.5780 C   0  0  1  0  0  3  0  0  0  0  0  0
  183.2630  180.1190  138.9070 C   0  0  1  0  0  3  0  0  0  0  0  0
  181.8490  178.4290  137.5360 C   0  0  0  0  0  2  0  0  0  0  0  0
  185.1300  177.2120  137.6360 C   0  0  0  0  0  0  0  0  0  0  0  0
  180.7270  179.3100  138.0840 C   0  0  0  0  0  2  0  0  0  0  0  0
  182.3750  181.2280  138.3400 C   0  0  0  0  0  2  0  0  0  0  0  0
  184.5660  177.8850  140.0020 C   0  0  2  0  0  3  0  0  0  0  0  0
  186.9310  178.0990  139.1480 C   0  0  0  0  0  2  0  0  0  0  0  0
  185.1820  175.7120  137.4280 C   0  0  0  0  0  2  0  0  0  0  0  0
  182.8930  179.8220  140.3670 C   0  0  0  0  0  2  0  0  0  0  0  0
  183.4600  178.4880  140.8790 C   0  0  2  0  0  3  0  0  0  0  0  0
  181.0640  180.7220  137.9140 N   0  0  0  0  0  0  0  0  0  0  0  0
  183.2460  178.8670  138.0010 C   0  0  2  0  0  3  0  0  0  0  0  0
  185.8410  178.7450  139.9980 C   0  0  0  0  0  2  0  0  0  0  0  0
  180.0820  181.6250  137.3810 C   0  0  0  0  0  0  0  0  0  0  0  0
  185.4070  178.1670  144.1040 C   0  0  0  0  0  0  0  0  0  0  0  0
  184.4950  178.6030  145.0130 N   0  0  0  0  0  0  0  0  0  0  0  0
  183.8020  178.5220  142.3370 C   0  0  0  0  0  0  0  0  0  0  0  0
  183.2500  179.0030  144.6390 C   0  0  0  0  0  3  0  0  0  0  0  0
  185.0750  178.1220  142.7470 C   0  0  0  0  0  3  0  0  0  0  0  0
  182.8800  178.9720  143.2930 C   0  0  0  0  0  3  0  0  0  0  0  0
  186.6380  177.7790  144.5120 F   0  0  0  0  0  0  0  0  0  0  0  0
  187.5650  177.4000  136.8410 C   0  0  0  0  0  0  0  0  0  0  0  0
  188.3570  176.3550  137.3030 O   0  0  0  0  0  1  0  0  0  0  0  0
  187.7500  177.8590  135.6850 O   0  0  0  0  0  0  0  0  0  0  0  0
  180.3990  183.0710  137.1650 C   0  0  0  0  0  2  0  0  0  0  0  0
  179.1550  183.9310  137.3560 C   0  0  0  0  0  3  0  0  0  0  0  0
  178.9320  184.3000  138.8270 C   0  0  0  0  0  2  0  0  0  0  0  0
  179.0050  185.8010  139.0680 C   0  0  0  0  0  1  0  0  0  0  0  0
  179.2360  185.1640  136.4670 C   0  0  0  0  0  2  0  0  0  0  0  0
  180.5860  185.2320  135.7780 C   0  0  0  0  0  1  0  0  0  0  0  0
  1 26  1  6  0  0  0
  1 11  1  0  0  0  0
  2 12  1  0  0  0  0
  2  7  1  0  0  0  0
  3 18  2  0  0  0  0
  4  7  1  6  0  0  0
  4 10  1  0  0  0  0
  5  9  1  6  0  0  0
  5 13  1  0  0  0  0
  6  8  1  0  0  0  0
  7  1  1  0  0  0  0
 10 17  1  6  0  0  0
 10 14  1  0  0  0  0
 11 17  1  0  0  0  0
 12  7  1  0  0  0  0
 13 14  1  0  0  0  0
 14 21  1  1  0  0  0
 15  8  1  0  0  0  0
 15  9  1  0  0  0  0
 16  6  1  1  0  0  0
 16  4  1  0  0  0  0
 16  5  1  0  0  0  0
 18 15  1  0  0  0  0
 19 25  1  0  0  0  0
 19 20  1  0  0  0  0
 21 23  1  0  0  0  0
 21 24  2  0  0  0  0
 22 20  2  0  0  0  0
 23 19  2  0  0  0  0
 24 22  1  0  0  0  0
 26 27  1  0  0  0  0
 28 26  2  0  0  0  0
 29 30  1  0  0  0  0
 29 18  1  0  0  0  0
 30 31  1  0  0  0  0
 31 32  1  0  0  0  0
 33 30  1  0  0  0  0
 34 33  1  0  0  0  0
M  END
>  <MODEL>
8

>  <REMARK>
 VINA RESULT:      -5.4      3.913      8.226
  Name = 
  6 active torsions:
  status: ('A' for Active; 'I' for Inactive)
    1  A    between atoms: C_1  and  C_6
    2  A    between atoms: C_11  and  C_20
    3  A    between atoms: C_12  and  C_28
    4  A    between atoms: C_13  and  C_20
    5  A    between atoms: C_13  and  C_33
    6  A    between atoms: C_14  and  C_20
                            x       y       z     vdW  Elec       q    Type
                         _______ _______ _______ _____ _____    ______ ____

>  <TORSDO>
F 6

$$$$
=
 OpenBabel10262419183D

 34 38  0  0  1  0  0  0  0  0999 V2000
  187.0140  175.4940  137.1520 C   0  0  1  0  0  3  0  0  0  0  0  0
  186.5050  177.8740  136.1690 C   0  0  0  0  0  2  0  0  0  0  0  0
  180.1650  179.2610  139.7010 O   0  0  0  0  0  0  0  0  0  0  0  0
  184.5960  176.1400  136.3510 C   0  0  1  0  0  3  0  0  0  0  0  0
  183.2000  175.7100  138.4920 C   0  0  1  0  0  3  0  0  0  0  0  0
  183.0740  177.9620  137.2080 C   0  0  0  0  0  2  0  0  0  0  0  0
  186.0960  176.4240  136.3340 C   0  0  0  0  0  0  0  0  0  0  0  0
  181.6500  177.9060  137.7570 C   0  0  0  0  0  2  0  0  0  0  0  0
  182.4470  176.3920  139.6360 C   0  0  0  0  0  2  0  0  0  0  0  0
  184.3270  174.6330  136.1560 C   0  0  2  0  0  3  0  0  0  0  0  0
  186.6770  174.0350  136.8520 C   0  0  0  0  0  2  0  0  0  0  0  0
  186.6070  176.9060  134.9920 C   0  0  0  0  0  2  0  0  0  0  0  0
  182.2640  174.7780  137.7080 C   0  0  0  0  0  2  0  0  0  0  0  0
  182.8270  174.3620  136.3400 C   0  0  2  0  0  3  0  0  0  0  0  0
  181.6680  177.5480  139.1740 N   0  0  0  0  0  0  0  0  0  0  0  0
  183.9250  176.7440  137.6000 C   0  0  2  0  0  3  0  0  0  0  0  0
  185.1940  173.7680  137.0870 C   0  0  0  0  0  2  0  0  0  0  0  0
  180.8720  178.2980  140.1040 C   0  0  0  0  0  0  0  0  0  0  0  0
  180.8880  171.1220  136.1450 C   0  0  0  0  0  0  0  0  0  0  0  0
  181.5860  170.4470  135.1940 N   0  0  0  0  0  0  0  0  0  0  0  0
  182.4130  172.9800  135.9350 C   0  0  0  0  0  0  0  0  0  0  0  0
  182.6800  170.9890  134.5950 C   0  0  0  0  0  3  0  0  0  0  0  0
  181.2890  172.4040  136.5310 C   0  0  0  0  0  3  0  0  0  0  0  0
  183.1140  172.2670  134.9530 C   0  0  0  0  0  3  0  0  0  0  0  0
  179.8000  170.5530  136.7180 F   0  0  0  0  0  0  0  0  0  0  0  0
  188.4840  175.7460  136.9930 C   0  0  0  0  0  0  0  0  0  0  0  0
  189.1420  176.6480  137.8200 O   0  0  0  0  0  1  0  0  0  0  0  0
  189.1310  175.1160  136.1170 O   0  0  0  0  0  0  0  0  0  0  0  0
  180.8870  177.9790  141.5660 C   0  0  0  0  0  2  0  0  0  0  0  0
  181.7190  179.0000  142.3330 C   0  0  0  0  0  3  0  0  0  0  0  0
  181.2390  179.1630  143.7790 C   0  0  0  0  0  2  0  0  0  0  0  0
  180.0550  178.2630  144.1050 C   0  0  0  0  0  1  0  0  0  0  0  0
  183.1930  178.6260  142.2630 C   0  0  0  0  0  2  0  0  0  0  0  0
  183.8360  178.7520  143.6310 C   0  0  0  0  0  1  0  0  0  0  0  0
  1 26  1  6  0  0  0
  2  7  1  0  0  0  0
  3 18  2  0  0  0  0
  4  7  1  1  0  0  0
  4 16  1  0  0  0  0
  5 13  1  6  0  0  0
  5  9  1  0  0  0  0
  6  8  1  0  0  0  0
  7  1  1  0  0  0  0
  8 15  1  0  0  0  0
 10 14  1  0  0  0  0
 10  4  1  0  0  0  0
 10 17  1  1  0  0  0
 11 17  1  0  0  0  0
 11  1  1  0  0  0  0
 12  2  1  0  0  0  0
 12  7  1  0  0  0  0
 14 21  1  1  0  0  0
 14 13  1  0  0  0  0
 15  9  1  0  0  0  0
 15 18  1  0  0  0  0
 16  6  1  6  0  0  0
 16  5  1  0  0  0  0
 18 29  1  0  0  0  0
 19 23  1  0  0  0  0
 19 25  1  0  0  0  0
 20 19  2  0  0  0  0
 21 23  2  0  0  0  0
 22 24  2  0  0  0  0
 22 20  1  0  0  0  0
 24 21  1  0  0  0  0
 26 27  1  0  0  0  0
 28 26  2  0  0  0  0
 29 30  1  0  0  0  0
 30 31  1  0  0  0  0
 31 32  1  0  0  0  0
 33 30  1  0  0  0  0
 33 34  1  0  0  0  0
M  END
>  <MODEL>
9

>  <REMARK>
 VINA RESULT:      -5.3      3.788      6.204
  Name = 
  6 active torsions:
  status: ('A' for Active; 'I' for Inactive)
    1  A    between atoms: C_1  and  C_6
    2  A    between atoms: C_11  and  C_20
    3  A    between atoms: C_12  and  C_28
    4  A    between atoms: C_13  and  C_20
    5  A    between atoms: C_13  and  C_33
    6  A    between atoms: C_14  and  C_20
                            x       y       z     vdW  Elec       q    Type
                         _______ _______ _______ _____ _____    ______ ____

>  <TORSDO>
F 6

$$$$
