=
 OpenBabel10262420163D

 55 60  0  0  1  0  0  0  0  0999 V2000
  189.3500  176.3990  138.8470 C   0  0  0  0  0  3  0  0  0  0  0  0
  184.7170  177.4000  138.5400 C   0  0  0  0  0  2  0  0  0  0  0  0
  183.8220  176.1050  135.2790 C   0  0  0  0  0  1  0  0  0  0  0  0
  187.6370  172.5400  135.8400 C   0  0  1  0  0  0  0  0  0  0  0  0
  187.4480  171.1070  135.5400 C   0  0  0  0  0  2  0  0  0  0  0  0
  185.8780  175.5750  136.4330 C   0  0  0  0  0  0  0  0  0  0  0  0
  187.1470  172.1100  134.5950 O   0  0  0  0  0  0  0  0  0  0  0  0
  190.4170  177.0840  140.9700 C   0  0  0  0  0  3  0  0  0  0  0  0
  186.5650  173.2700  136.6390 C   0  0  2  0  0  3  0  0  0  0  0  0
  188.0840  178.4040  141.8010 C   0  0  0  0  0  0  0  0  0  0  0  0
  188.2510  175.9400  138.2500 C   0  0  0  0  0  3  0  0  0  0  0  0
  188.1340  177.7640  140.5530 C   0  0  0  0  0  3  0  0  0  0  0  0
  189.3160  174.1190  136.8420 C   0  0  2  0  0  3  0  0  0  0  0  0
  184.8480  178.7000  139.3050 C   0  0  0  0  0  2  0  0  0  0  0  0
  189.0400  173.1220  135.7120 C   0  0  0  0  0  2  0  0  0  0  0  0
  184.8320  177.6810  137.0510 C   0  0  0  0  0  2  0  0  0  0  0  0
  184.8860  176.4090  136.2710 C   0  0  0  0  0  0  0  0  0  0  0  0
  190.3690  177.7060  142.2220 C   0  0  0  0  0  3  0  0  0  0  0  0
  185.1160  178.4180  140.7700 C   0  0  1  0  0  3  0  0  0  0  0  0
  189.2940  177.0960  140.1380 C   0  0  0  0  0  0  0  0  0  0  0  0
  186.8610  174.7390  136.6340 C   0  0  0  0  0  0  0  0  0  0  0  0
  188.2560  175.2520  136.9140 C   0  0  1  0  0  3  0  0  0  0  0  0
  185.9400  179.5660  141.3310 C   0  0  0  0  0  2  0  0  0  0  0  0
  186.9460  179.0980  142.2260 O   0  0  0  0  0  0  0  0  0  0  0  0
  189.2030  178.3560  142.6390 C   0  0  0  0  0  3  0  0  0  0  0  0
  191.7110  174.1950  137.5570 C   0  0  0  0  0  3  0  0  0  0  0  0
  193.3380  175.6060  136.4370 C   0  0  0  0  0  0  0  0  0  0  0  0
  191.0250  175.5870  135.7000 C   0  0  0  0  0  3  0  0  0  0  0  0
  192.3340  176.0600  135.5710 C   0  0  0  0  0  3  0  0  0  0  0  0
  193.0190  174.6700  137.4290 C   0  0  0  0  0  3  0  0  0  0  0  0
  190.7080  174.6550  136.6970 C   0  0  0  0  0  0  0  0  0  0  0  0
  194.7200  176.0970  136.3020 C   0  0  0  0  0  0  0  0  0  0  0  0
  194.9520  177.2100  135.7600 O   0  0  0  0  0  0  0  0  0  0  0  0
  195.7820  175.3340  136.7730 O   0  0  0  0  0  1  0  0  0  0  0  0
  186.5620  172.8040  137.9560 O   0  0  0  0  0  0  0  0  0  0  0  0
  185.2880  172.7460  138.2840 O   0  0  0  0  0  1  0  0  0  0  0  0
  183.8000  178.2950  141.5200 C   0  0  0  0  0  2  0  0  0  0  0  0
  182.7100  177.7440  140.6110 C   0  0  0  0  0  2  0  0  0  0  0  0
  180.6410  177.7390  141.7690 F   0  0  0  0  0  0  0  0  0  0  0  0
  181.3690  178.4520  140.8310 C   0  0  0  0  0  0  0  0  0  0  0  0
  181.6160  179.7230  141.3300 F   0  0  0  0  0  0  0  0  0  0  0  0
  180.5600  178.5350  139.5070 C   0  0  2  0  0  0  0  0  0  0  0  0
  179.3260  179.1020  139.7900 F   0  0  0  0  0  0  0  0  0  0  0  0
  179.4550  177.1350  137.6510 C   0  0  0  0  0  2  0  0  0  0  0  0
  179.8530  176.1320  139.8030 O   0  0  0  0  0  1  0  0  0  0  0  0
  180.2820  177.1290  138.9180 C   0  0  2  0  0  0  0  0  0  0  0  0
  180.9140  176.6810  137.6000 C   0  0  1  0  0  3  0  0  0  0  0  0
  181.0080  175.1870  137.4610 C   0  0  0  0  0  0  0  0  0  0  0  0
  181.9780  174.5910  137.9030 O   0  0  0  0  0  0  0  0  0  0  0  0
  179.9410  174.4300  136.7400 C   0  0  0  0  0  2  0  0  0  0  0  0
  179.1100  173.7880  137.6600 O   0  0  0  0  0  1  0  0  0  0  0  0
  181.1920  179.4070  138.5530 O   0  0  0  0  0  0  0  0  0  0  0  0
  180.9020  180.7600  138.3180 C   0  0  0  0  0  0  0  0  0  0  0  0
  180.4690  181.5100  139.2310 O   0  0  0  0  0  1  0  0  0  0  0  0
  181.1030  181.2840  137.0490 O   0  0  0  0  0  0  0  0  0  0  0  0
  1 20  1  0  0  0  0
  2 14  1  0  0  0  0
  3 17  1  0  0  0  0
  4  5  1  1  0  0  0
  4  9  1  0  0  0  0
  6 21  2  0  0  0  0
  7  5  1  0  0  0  0
  7  4  1  0  0  0  0
  8 18  1  0  0  0  0
  9 35  1  1  0  0  0
 10 24  1  0  0  0  0
 10 25  1  0  0  0  0
 11  1  2  0  0  0  0
 12 10  2  0  0  0  0
 13 31  1  6  0  0  0
 13 22  1  0  0  0  0
 14 19  1  0  0  0  0
 15  4  1  0  0  0  0
 15 13  1  0  0  0  0
 16  2  1  0  0  0  0
 17  6  2  0  0  0  0
 17 16  1  0  0  0  0
 18 25  2  0  0  0  0
 19 23  1  0  0  0  0
 19 37  1  1  0  0  0
 20 12  1  0  0  0  0
 20  8  2  0  0  0  0
 21  9  1  0  0  0  0
 21 22  1  0  0  0  0
 22 11  1  1  0  0  0
 23 24  1  0  0  0  0
 27 30  2  0  0  0  0
 28 31  1  0  0  0  0
 29 28  2  0  0  0  0
 29 27  1  0  0  0  0
 30 26  1  0  0  0  0
 31 26  2  0  0  0  0
 32 27  1  0  0  0  0
 32 34  1  0  0  0  0
 33 32  2  0  0  0  0
 35 36  1  0  0  0  0
 38 40  1  0  0  0  0
 38 37  1  0  0  0  0
 40 41  1  0  0  0  0
 40 39  1  0  0  0  0
 42 43  1  1  0  0  0
 42 40  1  0  0  0  0
 44 46  1  0  0  0  0
 46 42  1  0  0  0  0
 46 45  1  1  0  0  0
 47 48  1  1  0  0  0
 47 44  1  0  0  0  0
 47 46  1  0  0  0  0
 48 49  2  0  0  0  0
 50 48  1  0  0  0  0
 50 51  1  0  0  0  0
 52 42  1  0  0  0  0
 53 52  1  0  0  0  0
 53 54  1  0  0  0  0
 55 53  2  0  0  0  0
M  END
>  <MODEL>
1

>  <REMARK>
 VINA RESULT:      -6.0      0.000      0.000
  Name = 
  12 active torsions:
  status: ('A' for Active; 'I' for Inactive)
    1  A    between atoms: C_1  and  O_53
    2  A    between atoms: C_6  and  C_14
    3  A    between atoms: C_6  and  C_20
    4  A    between atoms: C_6  and  O_53
    5  A    between atoms: C_8  and  C_22
    6  A    between atoms: C_8  and  C_43
    7  A    between atoms: O_9  and  C_26
    8  A    between atoms: C_10  and  C_32
    9  A    between atoms: C_11  and  C_29
   10  A    between atoms: C_20  and  C_22
   11  A    between atoms: C_29  and  C_38
   12  A    between atoms: C_33  and  C_52
                            x       y       z     vdW  Elec       q    Type
                         _______ _______ _______ _____ _____    ______ ____

>  <TORSDO>
F 12

$$$$
=
 OpenBabel10262420163D

 55 60  0  0  1  0  0  0  0  0999 V2000
  189.6000  176.0410  138.1770 C   0  0  0  0  0  3  0  0  0  0  0  0
  184.9370  176.8940  137.8880 C   0  0  0  0  0  2  0  0  0  0  0  0
  183.9820  175.1610  134.8550 C   0  0  0  0  0  1  0  0  0  0  0  0
  187.8990  171.7820  135.7590 C   0  0  1  0  0  0  0  0  0  0  0  0
  187.7370  170.3190  135.6560 C   0  0  0  0  0  2  0  0  0  0  0  0
  186.0820  174.8320  136.0030 C   0  0  0  0  0  0  0  0  0  0  0  0
  187.3840  171.1810  134.5970 O   0  0  0  0  0  0  0  0  0  0  0  0
  190.7110  177.0220  140.1560 C   0  0  0  0  0  3  0  0  0  0  0  0
  186.8320  172.5890  136.4890 C   0  0  2  0  0  3  0  0  0  0  0  0
  188.3700  178.3910  140.8800 C   0  0  0  0  0  0  0  0  0  0  0  0
  188.4970  175.4840  137.6800 C   0  0  0  0  0  3  0  0  0  0  0  0
  188.4010  177.5930  139.7260 C   0  0  0  0  0  3  0  0  0  0  0  0
  189.5660  173.5150  136.4910 C   0  0  2  0  0  3  0  0  0  0  0  0
  185.0580  178.2860  138.4700 C   0  0  0  0  0  2  0  0  0  0  0  0
  189.2830  172.3720  135.5110 C   0  0  0  0  0  2  0  0  0  0  0  0
  185.0030  176.9790  136.3720 C   0  0  0  0  0  2  0  0  0  0  0  0
  185.0660  175.6160  135.7650 C   0  0  0  0  0  0  0  0  0  0  0  0
  190.6840  177.8030  141.3160 C   0  0  0  0  0  3  0  0  0  0  0  0
  185.3740  178.2070  139.9500 C   0  0  1  0  0  3  0  0  0  0  0  0
  189.5650  176.9010  139.3650 C   0  0  0  0  0  0  0  0  0  0  0  0
  187.0910  174.0510  136.2810 C   0  0  0  0  0  0  0  0  0  0  0  0
  188.4810  174.6250  136.4460 C   0  0  1  0  0  3  0  0  0  0  0  0
  186.1850  179.4360  140.3300 C   0  0  0  0  0  2  0  0  0  0  0  0
  187.2280  179.1120  141.2460 O   0  0  0  0  0  0  0  0  0  0  0  0
  189.5140  178.4780  141.6810 C   0  0  0  0  0  3  0  0  0  0  0  0
  191.8680  174.0920  137.2780 C   0  0  0  0  0  3  0  0  0  0  0  0
  193.5360  175.0290  135.7830 C   0  0  0  0  0  0  0  0  0  0  0  0
  191.3150  174.5010  134.9580 C   0  0  0  0  0  3  0  0  0  0  0  0
  192.6060  174.9860  134.7350 C   0  0  0  0  0  3  0  0  0  0  0  0
  193.1590  174.5780  137.0540 C   0  0  0  0  0  3  0  0  0  0  0  0
  190.9400  174.0560  136.2320 C   0  0  0  0  0  0  0  0  0  0  0  0
  194.9000  175.5330  135.5520 C   0  0  0  0  0  0  0  0  0  0  0  0
  195.7930  174.7720  135.0930 O   0  0  0  0  0  0  0  0  0  0  0  0
  195.2140  176.8570  135.8370 O   0  0  0  0  0  1  0  0  0  0  0  0
  186.8790  172.3010  137.8550 O   0  0  0  0  0  0  0  0  0  0  0  0
  185.7240  172.7250  138.3230 O   0  0  0  0  0  1  0  0  0  0  0  0
  184.0840  178.1560  140.7520 C   0  0  0  0  0  2  0  0  0  0  0  0
  183.0040  179.0000  140.0890 C   0  0  0  0  0  2  0  0  0  0  0  0
  181.8620  177.8920  138.3300 F   0  0  0  0  0  0  0  0  0  0  0  0
  181.7880  178.1590  139.6870 C   0  0  0  0  0  0  0  0  0  0  0  0
  181.8300  176.9590  140.3810 F   0  0  0  0  0  0  0  0  0  0  0  0
  180.4650  178.9170  139.9890 C   0  0  2  0  0  0  0  0  0  0  0  0
  179.4080  178.0460  139.7640 F   0  0  0  0  0  0  0  0  0  0  0  0
  179.0760  180.9940  139.3720 C   0  0  0  0  0  2  0  0  0  0  0  0
  180.3410  179.8720  137.6590 O   0  0  0  0  0  1  0  0  0  0  0  0
  180.2640  180.1200  139.0350 C   0  0  2  0  0  0  0  0  0  0  0  0
  180.4910  181.5560  139.5090 C   0  0  1  0  0  3  0  0  0  0  0  0
  180.8000  182.5110  138.3900 C   0  0  0  0  0  0  0  0  0  0  0  0
  181.9500  182.8720  138.1930 O   0  0  0  0  0  0  0  0  0  0  0  0
  179.6980  183.0630  137.5460 C   0  0  0  0  0  2  0  0  0  0  0  0
  180.0790  184.2970  137.0160 O   0  0  0  0  0  1  0  0  0  0  0  0
  180.3780  179.3010  141.3730 O   0  0  0  0  0  0  0  0  0  0  0  0
  180.4520  178.4600  142.4940 C   0  0  0  0  0  0  0  0  0  0  0  0
  179.6010  177.5560  142.6980 O   0  0  0  0  0  0  0  0  0  0  0  0
  181.4920  178.6270  143.3970 O   0  0  0  0  0  1  0  0  0  0  0  0
  1 20  1  0  0  0  0
  2 14  1  0  0  0  0
  3 17  1  0  0  0  0
  4 15  1  6  0  0  0
  4  9  1  0  0  0  0
  5  4  1  0  0  0  0
  6 21  2  0  0  0  0
  7  5  1  0  0  0  0
  7  4  1  0  0  0  0
  8 18  1  0  0  0  0
  9 35  1  1  0  0  0
 10 24  1  0  0  0  0
 10 25  1  0  0  0  0
 11  1  2  0  0  0  0
 12 10  2  0  0  0  0
 13 31  1  6  0  0  0
 14 19  1  0  0  0  0
 15 13  1  0  0  0  0
 16  2  1  0  0  0  0
 17  6  2  0  0  0  0
 17 16  1  0  0  0  0
 18 25  2  0  0  0  0
 19 23  1  0  0  0  0
 19 37  1  1  0  0  0
 20 12  1  0  0  0  0
 20  8  2  0  0  0  0
 21 22  1  0  0  0  0
 21  9  1  0  0  0  0
 22 13  1  0  0  0  0
 22 11  1  1  0  0  0
 23 24  1  0  0  0  0
 27 30  2  0  0  0  0
 28 31  1  0  0  0  0
 29 28  2  0  0  0  0
 29 27  1  0  0  0  0
 30 26  1  0  0  0  0
 31 26  2  0  0  0  0
 32 27  1  0  0  0  0
 32 34  1  0  0  0  0
 33 32  2  0  0  0  0
 35 36  1  0  0  0  0
 38 37  1  0  0  0  0
 39 40  1  0  0  0  0
 40 42  1  0  0  0  0
 40 38  1  0  0  0  0
 40 41  1  0  0  0  0
 42 43  1  6  0  0  0
 42 52  1  0  0  0  0
 44 47  1  0  0  0  0
 46 45  1  6  0  0  0
 46 44  1  0  0  0  0
 46 47  1  0  0  0  0
 46 42  1  0  0  0  0
 47 48  1  6  0  0  0
 49 48  2  0  0  0  0
 50 48  1  0  0  0  0
 51 50  1  0  0  0  0
 52 53  1  0  0  0  0
 53 54  2  0  0  0  0
 53 55  1  0  0  0  0
M  END
>  <MODEL>
2

>  <REMARK>
 VINA RESULT:      -4.8      1.815      3.180
  Name = 
  12 active torsions:
  status: ('A' for Active; 'I' for Inactive)
    1  A    between atoms: C_1  and  O_53
    2  A    between atoms: C_6  and  C_14
    3  A    between atoms: C_6  and  C_20
    4  A    between atoms: C_6  and  O_53
    5  A    between atoms: C_8  and  C_22
    6  A    between atoms: C_8  and  C_43
    7  A    between atoms: O_9  and  C_26
    8  A    between atoms: C_10  and  C_32
    9  A    between atoms: C_11  and  C_29
   10  A    between atoms: C_20  and  C_22
   11  A    between atoms: C_29  and  C_38
   12  A    between atoms: C_33  and  C_52
                            x       y       z     vdW  Elec       q    Type
                         _______ _______ _______ _____ _____    ______ ____

>  <TORSDO>
F 12

$$$$
=
 OpenBabel10262420163D

 55 60  0  0  1  0  0  0  0  0999 V2000
  189.6370  176.0550  138.2290 C   0  0  0  0  0  3  0  0  0  0  0  0
  185.0050  177.0650  137.9340 C   0  0  0  0  0  2  0  0  0  0  0  0
  184.0040  175.3940  134.8810 C   0  0  0  0  0  1  0  0  0  0  0  0
  187.8040  171.8790  135.7640 C   0  0  1  0  0  0  0  0  0  0  0  0
  187.5950  170.4220  135.6470 C   0  0  0  0  0  2  0  0  0  0  0  0
  186.0880  174.9840  136.0330 C   0  0  0  0  0  0  0  0  0  0  0  0
  187.2740  171.3060  134.5950 O   0  0  0  0  0  0  0  0  0  0  0  0
  190.7720  176.9800  140.2220 C   0  0  0  0  0  3  0  0  0  0  0  0
  186.7620  172.7130  136.4990 C   0  0  2  0  0  3  0  0  0  0  0  0
  188.4760  178.4180  140.9520 C   0  0  0  0  0  0  0  0  0  0  0  0
  188.5180  175.5390  137.7240 C   0  0  0  0  0  3  0  0  0  0  0  0
  188.4830  177.6310  139.7900 C   0  0  0  0  0  3  0  0  0  0  0  0
  189.5250  173.5480  136.5190 C   0  0  2  0  0  3  0  0  0  0  0  0
  185.1700  178.4460  138.5300 C   0  0  0  0  0  2  0  0  0  0  0  0
  189.2080  172.4250  135.5260 C   0  0  0  0  0  2  0  0  0  0  0  0
  185.0790  177.1620  136.4190 C   0  0  0  0  0  2  0  0  0  0  0  0
  185.0990  175.8030  135.7990 C   0  0  0  0  0  0  0  0  0  0  0  0
  190.7670  177.7490  141.3890 C   0  0  0  0  0  3  0  0  0  0  0  0
  185.4790  178.3420  140.0110 C   0  0  1  0  0  3  0  0  0  0  0  0
  189.6260  176.9040  139.4260 C   0  0  0  0  0  0  0  0  0  0  0  0
  187.0700  174.1670  136.3060 C   0  0  0  0  0  0  0  0  0  0  0  0
  188.4780  174.6930  136.4820 C   0  0  1  0  0  3  0  0  0  0  0  0
  186.3280  179.5400  140.4050 C   0  0  0  0  0  2  0  0  0  0  0  0
  187.3560  179.1720  141.3210 O   0  0  0  0  0  0  0  0  0  0  0  0
  189.6180  178.4590  141.7570 C   0  0  0  0  0  3  0  0  0  0  0  0
  191.1580  174.8800  135.1730 C   0  0  0  0  0  3  0  0  0  0  0  0
  193.5020  175.0330  135.7870 C   0  0  0  0  0  0  0  0  0  0  0  0
  191.9710  173.7120  137.1310 C   0  0  0  0  0  3  0  0  0  0  0  0
  193.2570  174.2030  136.8900 C   0  0  0  0  0  3  0  0  0  0  0  0
  192.4450  175.3690  134.9320 C   0  0  0  0  0  3  0  0  0  0  0  0
  190.9170  174.0460  136.2700 C   0  0  0  0  0  0  0  0  0  0  0  0
  194.8540  175.5570  135.5330 C   0  0  0  0  0  0  0  0  0  0  0  0
  195.8710  174.8980  135.8770 O   0  0  0  0  0  1  0  0  0  0  0  0
  195.0200  176.7880  134.9060 O   0  0  0  0  0  0  0  0  0  0  0  0
  186.7950  172.4110  137.8620 O   0  0  0  0  0  0  0  0  0  0  0  0
  185.5400  172.4950  138.2500 O   0  0  0  0  0  1  0  0  0  0  0  0
  184.1850  178.3260  140.8080 C   0  0  0  0  0  2  0  0  0  0  0  0
  184.2760  179.2660  142.0020 C   0  0  0  0  0  2  0  0  0  0  0  0
  183.7460  177.4040  143.3710 F   0  0  0  0  0  0  0  0  0  0  0  0
  184.5730  178.5120  143.3020 C   0  0  0  0  0  0  0  0  0  0  0  0
  185.8910  178.0830  143.2750 F   0  0  0  0  0  0  0  0  0  0  0  0
  184.3200  179.4180  144.5400 C   0  0  2  0  0  0  0  0  0  0  0  0
  184.5960  180.7290  144.1780 F   0  0  0  0  0  0  0  0  0  0  0  0
  184.7510  177.9940  146.6400 C   0  0  0  0  0  2  0  0  0  0  0  0
  185.8380  180.1310  146.4230 O   0  0  0  0  0  1  0  0  0  0  0  0
  185.2730  179.0670  145.7100 C   0  0  2  0  0  0  0  0  0  0  0  0
  185.9820  177.7130  145.7770 C   0  0  1  0  0  3  0  0  0  0  0  0
  187.2360  177.7380  146.6060 C   0  0  0  0  0  0  0  0  0  0  0  0
  187.1660  177.8570  147.8190 O   0  0  0  0  0  0  0  0  0  0  0  0
  188.5750  177.6700  145.9470 C   0  0  0  0  0  2  0  0  0  0  0  0
  189.5260  177.1960  146.8530 O   0  0  0  0  0  1  0  0  0  0  0  0
  182.9390  179.3960  144.9400 O   0  0  0  0  0  0  0  0  0  0  0  0
  181.8290  179.0760  144.1420 C   0  0  0  0  0  0  0  0  0  0  0  0
  181.2210  177.9810  144.2650 O   0  0  0  0  0  1  0  0  0  0  0  0
  181.3890  179.9930  143.1980 O   0  0  0  0  0  0  0  0  0  0  0  0
  1 20  1  0  0  0  0
  2 14  1  0  0  0  0
  3 17  1  0  0  0  0
  4 15  1  6  0  0  0
  4  9  1  0  0  0  0
  5  4  1  0  0  0  0
  6 21  2  0  0  0  0
  7  5  1  0  0  0  0
  7  4  1  0  0  0  0
  8 18  1  0  0  0  0
  9 35  1  1  0  0  0
 10 24  1  0  0  0  0
 10 25  1  0  0  0  0
 11  1  2  0  0  0  0
 12 10  2  0  0  0  0
 13 31  1  6  0  0  0
 14 19  1  0  0  0  0
 15 13  1  0  0  0  0
 16  2  1  0  0  0  0
 17  6  2  0  0  0  0
 17 16  1  0  0  0  0
 18 25  2  0  0  0  0
 19 23  1  0  0  0  0
 19 37  1  1  0  0  0
 20 12  1  0  0  0  0
 20  8  2  0  0  0  0
 21 22  1  0  0  0  0
 21  9  1  0  0  0  0
 22 13  1  0  0  0  0
 22 11  1  1  0  0  0
 23 24  1  0  0  0  0
 26 31  1  0  0  0  0
 27 29  2  0  0  0  0
 29 28  1  0  0  0  0
 30 26  2  0  0  0  0
 30 27  1  0  0  0  0
 31 28  2  0  0  0  0
 32 27  1  0  0  0  0
 32 33  1  0  0  0  0
 34 32  2  0  0  0  0
 35 36  1  0  0  0  0
 37 38  1  0  0  0  0
 38 40  1  0  0  0  0
 40 39  1  0  0  0  0
 40 42  1  0  0  0  0
 41 40  1  0  0  0  0
 42 43  1  6  0  0  0
 42 52  1  0  0  0  0
 42 46  1  0  0  0  0
 46 47  1  0  0  0  0
 46 45  1  1  0  0  0
 46 44  1  0  0  0  0
 47 48  1  1  0  0  0
 47 44  1  0  0  0  0
 48 49  2  0  0  0  0
 50 48  1  0  0  0  0
 50 51  1  0  0  0  0
 53 54  1  0  0  0  0
 53 52  1  0  0  0  0
 55 53  2  0  0  0  0
M  END
>  <MODEL>
3

>  <REMARK>
 VINA RESULT:      -4.6      2.714      5.010
  Name = 
  12 active torsions:
  status: ('A' for Active; 'I' for Inactive)
    1  A    between atoms: C_1  and  O_53
    2  A    between atoms: C_6  and  C_14
    3  A    between atoms: C_6  and  C_20
    4  A    between atoms: C_6  and  O_53
    5  A    between atoms: C_8  and  C_22
    6  A    between atoms: C_8  and  C_43
    7  A    between atoms: O_9  and  C_26
    8  A    between atoms: C_10  and  C_32
    9  A    between atoms: C_11  and  C_29
   10  A    between atoms: C_20  and  C_22
   11  A    between atoms: C_29  and  C_38
   12  A    between atoms: C_33  and  C_52
                            x       y       z     vdW  Elec       q    Type
                         _______ _______ _______ _____ _____    ______ ____

>  <TORSDO>
F 12

$$$$
=
 OpenBabel10262420163D

 55 60  0  0  1  0  0  0  0  0999 V2000
  183.6360  177.9810  139.7390 C   0  0  0  0  0  3  0  0  0  0  0  0
  185.7060  175.4840  136.2700 C   0  0  0  0  0  2  0  0  0  0  0  0
  182.8920  173.9350  134.5960 C   0  0  0  0  0  1  0  0  0  0  0  0
  179.9760  178.0470  136.0670 C   0  0  1  0  0  0  0  0  0  0  0  0
  179.0660  178.7570  135.1480 C   0  0  0  0  0  2  0  0  0  0  0  0
  182.7000  175.7610  136.1670 C   0  0  0  0  0  0  0  0  0  0  0  0
  178.9930  177.3600  135.3340 O   0  0  0  0  0  0  0  0  0  0  0  0
  185.1970  179.2660  141.1620 C   0  0  0  0  0  3  0  0  0  0  0  0
  181.3780  177.6950  135.5860 C   0  0  2  0  0  3  0  0  0  0  0  0
  187.4180  178.0940  139.9080 C   0  0  0  0  0  0  0  0  0  0  0  0
  183.3620  177.5210  138.5200 C   0  0  0  0  0  3  0  0  0  0  0  0
  186.1150  177.7370  139.5290 C   0  0  0  0  0  3  0  0  0  0  0  0
  180.9250  178.2150  138.3890 C   0  0  2  0  0  3  0  0  0  0  0  0
  186.9200  175.1450  137.1070 C   0  0  0  0  0  2  0  0  0  0  0  0
  179.6490  178.0610  137.5560 C   0  0  0  0  0  2  0  0  0  0  0  0
  184.6800  174.3690  136.4020 C   0  0  0  0  0  2  0  0  0  0  0  0
  183.3980  174.7450  135.7360 C   0  0  0  0  0  0  0  0  0  0  0  0
  186.4920  179.6390  141.5340 C   0  0  0  0  0  3  0  0  0  0  0  0
  187.7800  176.3780  137.3010 C   0  0  1  0  0  3  0  0  0  0  0  0
  185.0020  178.3260  140.1470 C   0  0  0  0  0  0  0  0  0  0  0  0
  182.0350  176.8010  136.5930 C   0  0  0  0  0  0  0  0  0  0  0  0
  181.9830  177.1240  138.0700 C   0  0  1  0  0  3  0  0  0  0  0  0
  188.4960  176.2530  138.6370 C   0  0  0  0  0  2  0  0  0  0  0  0
  188.5420  177.5010  139.3230 O   0  0  0  0  0  0  0  0  0  0  0  0
  187.5990  179.0610  140.9030 C   0  0  0  0  0  3  0  0  0  0  0  0
  180.1280  177.0700  140.4640 C   0  0  0  0  0  3  0  0  0  0  0  0
  179.9130  178.2480  142.5760 C   0  0  0  0  0  0  0  0  0  0  0  0
  180.6830  179.4220  140.5950 C   0  0  0  0  0  3  0  0  0  0  0  0
  180.3580  179.4230  141.9540 C   0  0  0  0  0  3  0  0  0  0  0  0
  179.8010  177.0720  141.8220 C   0  0  0  0  0  3  0  0  0  0  0  0
  180.5640  178.2450  139.8440 C   0  0  0  0  0  0  0  0  0  0  0  0
  179.5760  178.2420  144.0090 C   0  0  0  0  0  0  0  0  0  0  0  0
  179.8460  177.2420  144.7250 O   0  0  0  0  0  1  0  0  0  0  0  0
  178.9560  179.3450  144.5860 O   0  0  0  0  0  0  0  0  0  0  0  0
  182.1320  178.8620  135.4430 O   0  0  0  0  0  0  0  0  0  0  0  0
  181.3910  179.6450  134.6870 O   0  0  0  0  0  1  0  0  0  0  0  0
  188.7890  176.4870  136.1690 C   0  0  0  0  0  2  0  0  0  0  0  0
  189.7220  175.2830  136.1600 C   0  0  0  0  0  2  0  0  0  0  0  0
  191.4200  176.2810  134.8400 F   0  0  0  0  0  0  0  0  0  0  0  0
  191.1930  175.7010  136.0770 C   0  0  0  0  0  0  0  0  0  0  0  0
  191.4430  176.6420  137.0640 F   0  0  0  0  0  0  0  0  0  0  0  0
  192.1300  174.4720  136.2470 C   0  0  2  0  0  0  0  0  0  0  0  0
  191.6620  173.7170  137.3130 F   0  0  0  0  0  0  0  0  0  0  0  0
  193.8180  175.1170  138.0780 C   0  0  0  0  0  2  0  0  0  0  0  0
  194.1550  175.9160  135.8330 O   0  0  0  0  0  1  0  0  0  0  0  0
  193.5760  174.8990  136.6010 C   0  0  2  0  0  0  0  0  0  0  0  0
  194.5170  173.9620  137.3610 C   0  0  1  0  0  3  0  0  0  0  0  0
  195.9710  174.2700  137.1370 C   0  0  0  0  0  0  0  0  0  0  0  0
  196.5860  174.9460  137.9470 O   0  0  0  0  0  0  0  0  0  0  0  0
  196.6590  173.7930  135.8990 C   0  0  0  0  0  2  0  0  0  0  0  0
  198.0390  173.7520  136.1090 O   0  0  0  0  0  1  0  0  0  0  0  0
  192.0860  173.6090  135.0960 O   0  0  0  0  0  0  0  0  0  0  0  0
  192.1830  172.2090  135.0810 C   0  0  0  0  0  0  0  0  0  0  0  0
  191.1600  171.4770  135.0350 O   0  0  0  0  0  0  0  0  0  0  0  0
  193.4390  171.6190  135.1120 O   0  0  0  0  0  1  0  0  0  0  0  0
  1 20  1  0  0  0  0
  2 16  1  0  0  0  0
  2 14  1  0  0  0  0
  3 17  1  0  0  0  0
  4  5  1  6  0  0  0
  4 15  1  0  0  0  0
  5  7  1  0  0  0  0
  6 21  2  0  0  0  0
  7  4  1  0  0  0  0
  8 18  1  0  0  0  0
  9 35  1  1  0  0  0
  9  4  1  0  0  0  0
  9 21  1  0  0  0  0
 10 25  1  0  0  0  0
 11  1  2  0  0  0  0
 12 10  2  0  0  0  0
 12 20  1  0  0  0  0
 13 31  1  1  0  0  0
 14 19  1  0  0  0  0
 15 13  1  0  0  0  0
 17  6  2  0  0  0  0
 17 16  1  0  0  0  0
 19 37  1  6  0  0  0
 19 23  1  0  0  0  0
 20  8  2  0  0  0  0
 21 22  1  0  0  0  0
 22 13  1  0  0  0  0
 22 11  1  6  0  0  0
 23 24  1  0  0  0  0
 24 10  1  0  0  0  0
 25 18  2  0  0  0  0
 26 30  1  0  0  0  0
 27 32  1  0  0  0  0
 28 29  2  0  0  0  0
 29 27  1  0  0  0  0
 30 27  2  0  0  0  0
 31 26  2  0  0  0  0
 31 28  1  0  0  0  0
 32 34  2  0  0  0  0
 32 33  1  0  0  0  0
 36 35  1  0  0  0  0
 38 37  1  0  0  0  0
 39 40  1  0  0  0  0
 40 38  1  0  0  0  0
 40 42  1  0  0  0  0
 40 41  1  0  0  0  0
 42 46  1  0  0  0  0
 42 43  1  1  0  0  0
 46 45  1  6  0  0  0
 46 47  1  0  0  0  0
 46 44  1  0  0  0  0
 47 48  1  6  0  0  0
 47 44  1  0  0  0  0
 48 49  2  0  0  0  0
 50 51  1  0  0  0  0
 50 48  1  0  0  0  0
 52 42  1  0  0  0  0
 53 52  1  0  0  0  0
 53 55  1  0  0  0  0
 54 53  2  0  0  0  0
M  END
>  <MODEL>
4

>  <REMARK>
 VINA RESULT:      -3.5      3.709     11.037
  Name = 
  12 active torsions:
  status: ('A' for Active; 'I' for Inactive)
    1  A    between atoms: C_1  and  O_53
    2  A    between atoms: C_6  and  C_14
    3  A    between atoms: C_6  and  C_20
    4  A    between atoms: C_6  and  O_53
    5  A    between atoms: C_8  and  C_22
    6  A    between atoms: C_8  and  C_43
    7  A    between atoms: O_9  and  C_26
    8  A    between atoms: C_10  and  C_32
    9  A    between atoms: C_11  and  C_29
   10  A    between atoms: C_20  and  C_22
   11  A    between atoms: C_29  and  C_38
   12  A    between atoms: C_33  and  C_52
                            x       y       z     vdW  Elec       q    Type
                         _______ _______ _______ _____ _____    ______ ____

>  <TORSDO>
F 12

$$$$
