=
 OpenBabel10262419553D

 25 28  0  0  1  0  0  0  0  0999 V2000
  187.7500  177.8180  145.8410 C   0  0  0  0  0  0  0  0  0  0  0  0
  186.9190  178.0070  144.7200 C   0  0  0  0  0  0  0  0  0  0  0  0
  186.0390  178.6430  147.2870 N   0  0  0  0  0  0  0  0  0  0  0  0
  189.0690  177.3230  145.9030 C   0  0  0  0  0  0  0  0  0  0  0  0
  187.0930  178.6310  142.2860 C   0  0  2  0  0  3  0  0  0  0  0  0
  191.6590  176.4040  146.4240 C   0  0  0  0  0  3  0  0  0  0  0  0
  185.2340  178.8260  146.2400 N   0  0  0  0  0  0  0  0  0  0  0  0
  189.5690  177.2840  147.2060 C   0  0  0  0  0  0  0  0  0  0  0  0
  190.8550  176.8310  147.4910 C   0  0  0  0  0  3  0  0  0  0  0  0
  184.6210  178.8610  143.8440 C   0  0  2  0  0  3  0  0  0  0  0  0
  183.1840  178.8970  144.3430 C   0  0  0  0  0  1  0  0  0  0  0  0
  187.4200  177.5990  143.3580 C   0  0  0  0  0  2  0  0  0  0  0  0
  191.1710  176.4390  145.1060 C   0  0  0  0  0  3  0  0  0  0  0  0
  187.2770  178.1440  147.1010 C   0  0  0  0  0  0  0  0  0  0  0  0
  188.4210  177.8480  148.3020 S   0  0  0  0  0  0  0  0  0  0  0  0
  184.6830  177.9180  142.6520 C   0  0  0  0  0  2  0  0  0  0  0  0
  189.8720  176.9000  144.8390 C   0  0  0  0  0  3  0  0  0  0  0  0
  185.7290  178.3850  141.6440 C   0  0  0  0  0  2  0  0  0  0  0  0
  185.6000  178.5120  144.9560 C   0  0  0  0  0  0  0  0  0  0  0  0
  188.2020  178.7970  141.2360 C   0  0  0  0  0  2  0  0  0  0  0  0
  188.2810  177.7090  138.9340 C   0  0  0  0  0  1  0  0  0  0  0  0
  188.5930  177.5580  140.4130 C   0  0  1  0  0  3  0  0  0  0  0  0
  189.9850  177.0700  140.6560 C   0  0  0  0  0  0  0  0  0  0  0  0
  191.0630  177.6400  139.9890 O   0  0  0  0  0  0  0  0  0  0  0  0
  190.1870  176.1570  141.4980 O   0  0  0  0  0  1  0  0  0  0  0  0
  1  4  1  0  0  0  0
  1 14  2  0  0  0  0
  2 19  2  0  0  0  0
  2  1  1  0  0  0  0
  4  8  1  0  0  0  0
  5 20  1  6  0  0  0
  5 12  1  0  0  0  0
  6  9  1  0  0  0  0
  7  3  2  0  0  0  0
  8  9  2  0  0  0  0
  8 15  1  0  0  0  0
 10 11  1  1  0  0  0
 10 19  1  0  0  0  0
 12  2  1  0  0  0  0
 13  6  2  0  0  0  0
 14  3  1  0  0  0  0
 14 15  1  0  0  0  0
 16 10  1  0  0  0  0
 17 13  1  0  0  0  0
 17  4  2  0  0  0  0
 18  5  1  0  0  0  0
 18 16  1  0  0  0  0
 19  7  1  0  0  0  0
 22 21  1  6  0  0  0
 22 23  1  0  0  0  0
 22 20  1  0  0  0  0
 23 25  1  0  0  0  0
 24 23  2  0  0  0  0
M  END
>  <MODEL>
1

>  <REMARK>
 VINA RESULT:     -10.4      0.000      0.000
  Name = 
  3 active torsions:
  status: ('A' for Active; 'I' for Inactive)
    1  A    between atoms: C_2  and  C_25
    2  A    between atoms: C_6  and  C_15
    3  A    between atoms: C_15  and  C_25
                            x       y       z     vdW  Elec       q    Type
                         _______ _______ _______ _____ _____    ______ ____

>  <TORSDO>
F 3

$$$$
=
 OpenBabel10262419553D

 25 28  0  0  1  0  0  0  0  0999 V2000
  186.6360  178.2240  142.3370 C   0  0  0  0  0  0  0  0  0  0  0  0
  187.9560  177.7440  142.4350 C   0  0  0  0  0  0  0  0  0  0  0  0
  186.8830  178.5000  139.9780 N   0  0  0  0  0  0  0  0  0  0  0  0
  185.6750  178.4120  143.3500 C   0  0  0  0  0  0  0  0  0  0  0  0
  189.8960  177.7810  144.0430 C   0  0  2  0  0  3  0  0  0  0  0  0
  183.5250  178.9210  145.0660 C   0  0  0  0  0  3  0  0  0  0  0  0
  188.1330  178.0440  140.0490 N   0  0  0  0  0  0  0  0  0  0  0  0
  184.4680  178.9140  142.8610 C   0  0  0  0  0  0  0  0  0  0  0  0
  183.3830  179.1760  143.6950 C   0  0  0  0  0  3  0  0  0  0  0  0
  190.1760  177.2270  141.1780 C   0  0  2  0  0  3  0  0  0  0  0  0
  190.5830  176.7240  139.8010 C   0  0  0  0  0  1  0  0  0  0  0  0
  188.4760  177.2970  143.7790 C   0  0  0  0  0  2  0  0  0  0  0  0
  184.7350  178.4170  145.5760 C   0  0  0  0  0  3  0  0  0  0  0  0
  186.1370  178.5890  141.0970 C   0  0  0  0  0  0  0  0  0  0  0  0
  184.5470  179.1390  141.1930 S   0  0  0  0  0  0  0  0  0  0  0  0
  190.5500  176.1620  142.1980 C   0  0  0  0  0  2  0  0  0  0  0  0
  185.8170  178.1610  144.7190 C   0  0  0  0  0  3  0  0  0  0  0  0
  190.9460  176.7980  143.5270 C   0  0  0  0  0  2  0  0  0  0  0  0
  188.7110  177.6350  141.2230 C   0  0  0  0  0  0  0  0  0  0  0  0
  190.1480  178.1770  145.5050 C   0  0  0  0  0  2  0  0  0  0  0  0
  191.1310  176.5680  147.2170 C   0  0  0  0  0  1  0  0  0  0  0  0
  189.8640  177.1210  146.5860 C   0  0  1  0  0  3  0  0  0  0  0  0
  188.8540  177.5380  147.6070 C   0  0  0  0  0  0  0  0  0  0  0  0
  189.2230  178.3280  148.6890 O   0  0  0  0  0  1  0  0  0  0  0  0
  187.6510  177.1980  147.4670 O   0  0  0  0  0  0  0  0  0  0  0  0
  1  2  1  0  0  0  0
  1  4  1  0  0  0  0
  2 12  1  0  0  0  0
  3  7  2  0  0  0  0
  3 14  1  0  0  0  0
  4 17  1  0  0  0  0
  5 20  1  1  0  0  0
  6 13  1  0  0  0  0
  7 19  1  0  0  0  0
  8  4  2  0  0  0  0
  8  9  1  0  0  0  0
  9  6  2  0  0  0  0
 10 11  1  6  0  0  0
 10 19  1  0  0  0  0
 10 16  1  0  0  0  0
 12  5  1  0  0  0  0
 14 15  1  0  0  0  0
 14  1  2  0  0  0  0
 15  8  1  0  0  0  0
 16 18  1  0  0  0  0
 17 13  2  0  0  0  0
 18  5  1  0  0  0  0
 19  2  2  0  0  0  0
 20 22  1  0  0  0  0
 22 21  1  1  0  0  0
 22 23  1  0  0  0  0
 23 24  1  0  0  0  0
 25 23  2  0  0  0  0
M  END
>  <MODEL>
2

>  <REMARK>
 VINA RESULT:     -10.1      3.481      6.477
  Name = 
  3 active torsions:
  status: ('A' for Active; 'I' for Inactive)
    1  A    between atoms: C_2  and  C_25
    2  A    between atoms: C_6  and  C_15
    3  A    between atoms: C_15  and  C_25
                            x       y       z     vdW  Elec       q    Type
                         _______ _______ _______ _____ _____    ______ ____

>  <TORSDO>
F 3

$$$$
=
 OpenBabel10262419553D

 25 28  0  0  1  0  0  0  0  0999 V2000
  187.1900  177.8960  145.5210 C   0  0  0  0  0  0  0  0  0  0  0  0
  188.5310  177.5870  145.2200 C   0  0  0  0  0  0  0  0  0  0  0  0
  187.5530  177.3650  147.8200 N   0  0  0  0  0  0  0  0  0  0  0  0
  186.1600  178.3320  144.6640 C   0  0  0  0  0  0  0  0  0  0  0  0
  189.9010  176.6150  143.3430 C   0  0  2  0  0  3  0  0  0  0  0  0
  183.8790  179.1960  143.2930 C   0  0  0  0  0  3  0  0  0  0  0  0
  188.8270  177.0720  147.5580 N   0  0  0  0  0  0  0  0  0  0  0  0
  184.9520  178.5340  145.3340 C   0  0  0  0  0  0  0  0  0  0  0  0
  183.8030  178.9630  144.6740 C   0  0  0  0  0  3  0  0  0  0  0  0
  190.8140  176.7240  146.1260 C   0  0  2  0  0  3  0  0  0  0  0  0
  191.6070  176.8260  147.4210 C   0  0  0  0  0  1  0  0  0  0  0  0
  189.0290  177.7730  143.8080 C   0  0  0  0  0  2  0  0  0  0  0  0
  185.0880  178.9950  142.6030 C   0  0  0  0  0  3  0  0  0  0  0  0
  186.7410  177.7750  146.8250 C   0  0  0  0  0  0  0  0  0  0  0  0
  185.1140  178.1860  146.9750 S   0  0  0  0  0  0  0  0  0  0  0  0
  191.5710  177.4830  145.0480 C   0  0  0  0  0  2  0  0  0  0  0  0
  186.2350  178.5620  143.2860 C   0  0  0  0  0  3  0  0  0  0  0  0
  191.3750  176.8300  143.6840 C   0  0  0  0  0  2  0  0  0  0  0  0
  189.3740  177.1830  146.3050 C   0  0  0  0  0  0  0  0  0  0  0  0
  189.7000  176.2490  141.8650 C   0  0  0  0  0  2  0  0  0  0  0  0
  191.2220  177.1810  140.0490 C   0  0  0  0  0  1  0  0  0  0  0  0
  189.9270  177.3560  140.8220 C   0  0  1  0  0  3  0  0  0  0  0  0
  188.7570  177.6090  139.9250 C   0  0  0  0  0  0  0  0  0  0  0  0
  187.8610  178.6360  140.2010 O   0  0  0  0  0  1  0  0  0  0  0  0
  188.6010  176.9080  138.8930 O   0  0  0  0  0  0  0  0  0  0  0  0
  1 14  1  0  0  0  0
  2  1  2  0  0  0  0
  2 19  1  0  0  0  0
  4  8  1  0  0  0  0
  4  1  1  0  0  0  0
  5 20  1  6  0  0  0
  5 18  1  0  0  0  0
  5 12  1  0  0  0  0
  6  9  1  0  0  0  0
  7  3  1  0  0  0  0
  8 15  1  0  0  0  0
  9  8  2  0  0  0  0
 10 19  1  0  0  0  0
 10 11  1  1  0  0  0
 12  2  1  0  0  0  0
 13 17  1  0  0  0  0
 13  6  2  0  0  0  0
 14 15  1  0  0  0  0
 14  3  2  0  0  0  0
 16 10  1  0  0  0  0
 17  4  2  0  0  0  0
 18 16  1  0  0  0  0
 19  7  2  0  0  0  0
 22 21  1  6  0  0  0
 22 20  1  0  0  0  0
 23 24  1  0  0  0  0
 23 22  1  0  0  0  0
 25 23  2  0  0  0  0
M  END
>  <MODEL>
3

>  <REMARK>
 VINA RESULT:      -9.7      1.653      4.849
  Name = 
  3 active torsions:
  status: ('A' for Active; 'I' for Inactive)
    1  A    between atoms: C_2  and  C_25
    2  A    between atoms: C_6  and  C_15
    3  A    between atoms: C_15  and  C_25
                            x       y       z     vdW  Elec       q    Type
                         _______ _______ _______ _____ _____    ______ ____

>  <TORSDO>
F 3

$$$$
=
 OpenBabel10262419553D

 25 28  0  0  1  0  0  0  0  0999 V2000
  185.5470  178.4010  144.4170 C   0  0  0  0  0  0  0  0  0  0  0  0
  186.8050  178.1030  144.9760 C   0  0  0  0  0  0  0  0  0  0  0  0
  184.5440  178.3650  146.5840 N   0  0  0  0  0  0  0  0  0  0  0  0
  185.1930  178.6040  143.0680 C   0  0  0  0  0  0  0  0  0  0  0  0
  188.9070  176.8380  144.4050 C   0  0  2  0  0  3  0  0  0  0  0  0
  184.1150  179.0590  140.5270 C   0  0  0  0  0  3  0  0  0  0  0  0
  185.7260  178.0870  147.1330 N   0  0  0  0  0  0  0  0  0  0  0  0
  183.8350  178.8780  142.9030 C   0  0  0  0  0  0  0  0  0  0  0  0
  183.2740  179.1080  141.6490 C   0  0  0  0  0  3  0  0  0  0  0  0
  188.1410  177.5540  147.1420 C   0  0  2  0  0  3  0  0  0  0  0  0
  188.0950  177.9550  148.6090 C   0  0  0  0  0  1  0  0  0  0  0  0
  188.0090  178.0230  144.0720 C   0  0  0  0  0  2  0  0  0  0  0  0
  185.4860  178.7820  140.6770 C   0  0  0  0  0  3  0  0  0  0  0  0
  184.4460  178.5250  145.2490 C   0  0  0  0  0  0  0  0  0  0  0  0
  183.0410  178.8780  144.3890 S   0  0  0  0  0  0  0  0  0  0  0  0
  189.4200  178.1150  146.5400 C   0  0  0  0  0  2  0  0  0  0  0  0
  186.0320  178.5520  141.9490 C   0  0  0  0  0  3  0  0  0  0  0  0
  189.9610  177.1890  145.4540 C   0  0  0  0  0  2  0  0  0  0  0  0
  186.8780  177.9680  146.4000 C   0  0  0  0  0  0  0  0  0  0  0  0
  189.5270  176.1710  143.1680 C   0  0  0  0  0  2  0  0  0  0  0  0
  191.7440  177.1330  142.3630 C   0  0  0  0  0  1  0  0  0  0  0  0
  190.2400  177.0800  142.1530 C   0  0  1  0  0  3  0  0  0  0  0  0
  189.8720  176.8210  140.7270 C   0  0  0  0  0  0  0  0  0  0  0  0
  188.7530  177.4220  140.1630 O   0  0  0  0  0  1  0  0  0  0  0  0
  190.6020  176.0790  140.0210 O   0  0  0  0  0  0  0  0  0  0  0  0
  1  2  2  0  0  0  0
  1 14  1  0  0  0  0
  2 19  1  0  0  0  0
  3  7  1  0  0  0  0
  4  1  1  0  0  0  0
  5 20  1  6  0  0  0
  5 18  1  0  0  0  0
  6 13  2  0  0  0  0
  6  9  1  0  0  0  0
  8  4  1  0  0  0  0
  8 15  1  0  0  0  0
  9  8  2  0  0  0  0
 10 11  1  1  0  0  0
 12  5  1  0  0  0  0
 12  2  1  0  0  0  0
 13 17  1  0  0  0  0
 14  3  2  0  0  0  0
 15 14  1  0  0  0  0
 16 10  1  0  0  0  0
 17  4  2  0  0  0  0
 18 16  1  0  0  0  0
 19  7  2  0  0  0  0
 19 10  1  0  0  0  0
 22 21  1  6  0  0  0
 22 20  1  0  0  0  0
 23 22  1  0  0  0  0
 24 23  1  0  0  0  0
 25 23  2  0  0  0  0
M  END
>  <MODEL>
4

>  <REMARK>
 VINA RESULT:      -9.6      1.887      5.028
  Name = 
  3 active torsions:
  status: ('A' for Active; 'I' for Inactive)
    1  A    between atoms: C_2  and  C_25
    2  A    between atoms: C_6  and  C_15
    3  A    between atoms: C_15  and  C_25
                            x       y       z     vdW  Elec       q    Type
                         _______ _______ _______ _____ _____    ______ ____

>  <TORSDO>
F 3

$$$$
=
 OpenBabel10262419553D

 25 28  0  0  1  0  0  0  0  0999 V2000
  186.7740  178.2800  142.9390 C   0  0  0  0  0  0  0  0  0  0  0  0
  188.0540  177.8790  142.5080 C   0  0  0  0  0  0  0  0  0  0  0  0
  186.2240  179.0030  140.7310 N   0  0  0  0  0  0  0  0  0  0  0  0
  186.2030  178.2140  144.2260 C   0  0  0  0  0  0  0  0  0  0  0  0
  190.4160  177.7480  143.3720 C   0  0  2  0  0  3  0  0  0  0  0  0
  184.7440  178.2530  146.6120 C   0  0  0  0  0  3  0  0  0  0  0  0
  187.4290  178.6260  140.3010 N   0  0  0  0  0  0  0  0  0  0  0  0
  184.9020  178.7160  144.2640 C   0  0  0  0  0  0  0  0  0  0  0  0
  184.1550  178.7470  145.4390 C   0  0  0  0  0  3  0  0  0  0  0  0
  189.7320  177.7520  140.5220 C   0  0  2  0  0  3  0  0  0  0  0  0
  189.6600  177.5410  139.0160 C   0  0  0  0  0  1  0  0  0  0  0  0
  188.9900  177.2270  143.4940 C   0  0  0  0  0  2  0  0  0  0  0  0
  186.0550  177.7450  146.5920 C   0  0  0  0  0  3  0  0  0  0  0  0
  185.8920  178.8340  142.0260 C   0  0  0  0  0  0  0  0  0  0  0  0
  184.4230  179.2490  142.7390 S   0  0  0  0  0  0  0  0  0  0  0  0
  190.4240  176.5450  141.1350 C   0  0  0  0  0  2  0  0  0  0  0  0
  186.7920  177.7240  145.3970 C   0  0  0  0  0  3  0  0  0  0  0  0
  191.2370  176.9490  142.3610 C   0  0  0  0  0  2  0  0  0  0  0  0
  188.3640  178.0460  141.1200 C   0  0  0  0  0  0  0  0  0  0  0  0
  191.1380  177.8830  144.7210 C   0  0  0  0  0  2  0  0  0  0  0  0
  192.0550  175.6740  145.5960 C   0  0  0  0  0  1  0  0  0  0  0  0
  190.9770  176.7350  145.7310 C   0  0  1  0  0  3  0  0  0  0  0  0
  190.7890  177.1800  147.1470 C   0  0  0  0  0  0  0  0  0  0  0  0
  189.5470  177.6150  147.5940 O   0  0  0  0  0  0  0  0  0  0  0  0
  191.7560  177.1280  147.9490 O   0  0  0  0  0  1  0  0  0  0  0  0
  1  4  1  0  0  0  0
  2  1  1  0  0  0  0
  2 12  1  0  0  0  0
  3 14  1  0  0  0  0
  4  8  2  0  0  0  0
  4 17  1  0  0  0  0
  5 12  1  0  0  0  0
  5 20  1  1  0  0  0
  7  3  2  0  0  0  0
  7 19  1  0  0  0  0
  8  9  1  0  0  0  0
  9  6  2  0  0  0  0
 10 11  1  6  0  0  0
 10 19  1  0  0  0  0
 10 16  1  0  0  0  0
 13  6  1  0  0  0  0
 14 15  1  0  0  0  0
 14  1  2  0  0  0  0
 15  8  1  0  0  0  0
 16 18  1  0  0  0  0
 17 13  2  0  0  0  0
 18  5  1  0  0  0  0
 19  2  2  0  0  0  0
 20 22  1  0  0  0  0
 22 21  1  1  0  0  0
 22 23  1  0  0  0  0
 23 24  2  0  0  0  0
 23 25  1  0  0  0  0
M  END
>  <MODEL>
5

>  <REMARK>
 VINA RESULT:      -9.6      3.151      5.833
  Name = 
  3 active torsions:
  status: ('A' for Active; 'I' for Inactive)
    1  A    between atoms: C_2  and  C_25
    2  A    between atoms: C_6  and  C_15
    3  A    between atoms: C_15  and  C_25
                            x       y       z     vdW  Elec       q    Type
                         _______ _______ _______ _____ _____    ______ ____

>  <TORSDO>
F 3

$$$$
=
 OpenBabel10262419553D

 25 28  0  0  1  0  0  0  0  0999 V2000
  189.2530  177.6060  143.8310 C   0  0  0  0  0  0  0  0  0  0  0  0
  188.1820  177.7520  144.7340 C   0  0  0  0  0  0  0  0  0  0  0  0
  190.8070  177.5360  145.6430 N   0  0  0  0  0  0  0  0  0  0  0  0
  189.2340  177.5490  142.4230 C   0  0  0  0  0  0  0  0  0  0  0  0
  185.9370  178.8860  144.8800 C   0  0  2  0  0  3  0  0  0  0  0  0
  189.6000  177.4020  139.6540 C   0  0  0  0  0  3  0  0  0  0  0  0
  189.8070  177.6690  146.5140 N   0  0  0  0  0  0  0  0  0  0  0  0
  190.5080  177.4010  141.8730 C   0  0  0  0  0  0  0  0  0  0  0  0
  190.7170  177.3250  140.4980 C   0  0  0  0  0  3  0  0  0  0  0  0
  187.4610  178.0020  147.2230 C   0  0  2  0  0  3  0  0  0  0  0  0
  187.9290  177.4820  148.5740 C   0  0  0  0  0  1  0  0  0  0  0  0
  186.7730  177.8110  144.1980 C   0  0  0  0  0  2  0  0  0  0  0  0
  188.3090  177.5530  140.1920 C   0  0  0  0  0  3  0  0  0  0  0  0
  190.5440  177.5000  144.3210 C   0  0  0  0  0  0  0  0  0  0  0  0
  191.6780  177.3370  143.0850 S   0  0  0  0  0  0  0  0  0  0  0  0
  186.0990  177.3940  146.9290 C   0  0  0  0  0  2  0  0  0  0  0  0
  188.1200  177.6280  141.5810 C   0  0  0  0  0  3  0  0  0  0  0  0
  185.2320  178.3620  146.1300 C   0  0  0  0  0  2  0  0  0  0  0  0
  188.4930  177.7570  146.1320 C   0  0  0  0  0  0  0  0  0  0  0  0
  184.9670  179.6050  143.9310 C   0  0  0  0  0  2  0  0  0  0  0  0
  182.5160  179.0120  143.5780 C   0  0  0  0  0  1  0  0  0  0  0  0
  183.9520  178.7400  143.1650 C   0  0  1  0  0  3  0  0  0  0  0  0
  184.1290  178.7480  141.6800 C   0  0  0  0  0  0  0  0  0  0  0  0
  185.1540  179.4800  141.0920 O   0  0  0  0  0  1  0  0  0  0  0  0
  183.3650  178.0570  140.9580 O   0  0  0  0  0  0  0  0  0  0  0  0
  1 14  1  0  0  0  0
  1  2  2  0  0  0  0
  2 19  1  0  0  0  0
  3  7  1  0  0  0  0
  4  1  1  0  0  0  0
  5 20  1  6  0  0  0
  5 18  1  0  0  0  0
  6 13  2  0  0  0  0
  6  9  1  0  0  0  0
  8  4  1  0  0  0  0
  8 15  1  0  0  0  0
  9  8  2  0  0  0  0
 10 11  1  1  0  0  0
 12  2  1  0  0  0  0
 12  5  1  0  0  0  0
 13 17  1  0  0  0  0
 14  3  2  0  0  0  0
 15 14  1  0  0  0  0
 16 10  1  0  0  0  0
 17  4  2  0  0  0  0
 18 16  1  0  0  0  0
 19  7  2  0  0  0  0
 19 10  1  0  0  0  0
 22 21  1  6  0  0  0
 22 20  1  0  0  0  0
 23 22  1  0  0  0  0
 24 23  1  0  0  0  0
 25 23  2  0  0  0  0
M  END
>  <MODEL>
6

>  <REMARK>
 VINA RESULT:      -9.4      2.782      5.139
  Name = 
  3 active torsions:
  status: ('A' for Active; 'I' for Inactive)
    1  A    between atoms: C_2  and  C_25
    2  A    between atoms: C_6  and  C_15
    3  A    between atoms: C_15  and  C_25
                            x       y       z     vdW  Elec       q    Type
                         _______ _______ _______ _____ _____    ______ ____

>  <TORSDO>
F 3

$$$$
=
 OpenBabel10262419553D

 25 28  0  0  1  0  0  0  0  0999 V2000
  187.0500  178.1140  142.7390 C   0  0  0  0  0  0  0  0  0  0  0  0
  187.9400  177.7940  141.6950 C   0  0  0  0  0  0  0  0  0  0  0  0
  185.5880  179.2020  141.1970 N   0  0  0  0  0  0  0  0  0  0  0  0
  187.1460  177.8270  144.1150 C   0  0  0  0  0  0  0  0  0  0  0  0
  190.4130  177.5210  141.2990 C   0  0  2  0  0  3  0  0  0  0  0  0
  186.9860  177.4550  146.8830 C   0  0  0  0  0  3  0  0  0  0  0  0
  186.4150  178.9060  140.1940 N   0  0  0  0  0  0  0  0  0  0  0  0
  186.0600  178.3130  144.8440 C   0  0  0  0  0  0  0  0  0  0  0  0
  185.9570  178.1410  146.2220 C   0  0  0  0  0  3  0  0  0  0  0  0
  188.4740  178.0110  139.1570 C   0  0  2  0  0  3  0  0  0  0  0  0
  187.6880  178.0610  137.8550 C   0  0  0  0  0  1  0  0  0  0  0  0
  189.1750  176.9850  142.0050 C   0  0  0  0  0  2  0  0  0  0  0  0
  188.0890  176.9600  146.1640 C   0  0  0  0  0  3  0  0  0  0  0  0
  185.8900  178.8140  142.4520 C   0  0  0  0  0  0  0  0  0  0  0  0
  184.9660  179.0990  143.8310 S   0  0  0  0  0  0  0  0  0  0  0  0
  189.2740  176.7180  139.1760 C   0  0  0  0  0  2  0  0  0  0  0  0
  188.1740  177.1450  144.7750 C   0  0  0  0  0  3  0  0  0  0  0  0
  190.5970  176.9080  139.9110 C   0  0  0  0  0  2  0  0  0  0  0  0
  187.5750  178.1970  140.3710 C   0  0  0  0  0  0  0  0  0  0  0  0
  191.6920  177.4240  142.1440 C   0  0  0  0  0  2  0  0  0  0  0  0
  190.6420  179.1900  143.6500 C   0  0  0  0  0  1  0  0  0  0  0  0
  191.6760  178.0840  143.5340 C   0  0  1  0  0  3  0  0  0  0  0  0
  191.6110  177.1190  144.6750 C   0  0  0  0  0  0  0  0  0  0  0  0
  191.6240  177.5720  145.9890 O   0  0  0  0  0  1  0  0  0  0  0  0
  191.5080  175.8870  144.4430 O   0  0  0  0  0  0  0  0  0  0  0  0
  1  4  1  0  0  0  0
  2 12  1  0  0  0  0
  2  1  1  0  0  0  0
  3 14  1  0  0  0  0
  4 17  2  0  0  0  0
  4  8  1  0  0  0  0
  5 12  1  0  0  0  0
  5 20  1  1  0  0  0
  7 19  1  0  0  0  0
  7  3  2  0  0  0  0
  8  9  2  0  0  0  0
  9  6  1  0  0  0  0
 10 11  1  6  0  0  0
 10 16  1  0  0  0  0
 10 19  1  0  0  0  0
 13  6  2  0  0  0  0
 14  1  2  0  0  0  0
 14 15  1  0  0  0  0
 15  8  1  0  0  0  0
 16 18  1  0  0  0  0
 17 13  1  0  0  0  0
 18  5  1  0  0  0  0
 19  2  2  0  0  0  0
 20 22  1  0  0  0  0
 22 21  1  6  0  0  0
 22 23  1  0  0  0  0
 23 24  1  0  0  0  0
 25 23  2  0  0  0  0
M  END
>  <MODEL>
7

>  <REMARK>
 VINA RESULT:      -8.8      2.634      4.823
  Name = 
  3 active torsions:
  status: ('A' for Active; 'I' for Inactive)
    1  A    between atoms: C_2  and  C_25
    2  A    between atoms: C_6  and  C_15
    3  A    between atoms: C_15  and  C_25
                            x       y       z     vdW  Elec       q    Type
                         _______ _______ _______ _____ _____    ______ ____

>  <TORSDO>
F 3

$$$$
=
 OpenBabel10262419553D

 25 28  0  0  1  0  0  0  0  0999 V2000
  187.7060  178.1170  142.0840 C   0  0  0  0  0  0  0  0  0  0  0  0
  187.0400  178.2910  143.3130 C   0  0  0  0  0  0  0  0  0  0  0  0
  185.6420  178.3360  140.9030 N   0  0  0  0  0  0  0  0  0  0  0  0
  189.0750  177.9000  141.8310 C   0  0  0  0  0  0  0  0  0  0  0  0
  187.1900  177.5090  145.7030 C   0  0  2  0  0  3  0  0  0  0  0  0
  191.6890  177.4540  140.9400 C   0  0  0  0  0  3  0  0  0  0  0  0
  184.9940  178.5070  142.0550 N   0  0  0  0  0  0  0  0  0  0  0  0
  189.3580  177.7710  140.4710 C   0  0  0  0  0  0  0  0  0  0  0  0
  190.6510  177.5480  140.0020 C   0  0  0  0  0  3  0  0  0  0  0  0
  184.7550  178.6270  144.5140 C   0  0  2  0  0  3  0  0  0  0  0  0
  183.4400  179.3350  144.2240 C   0  0  0  0  0  1  0  0  0  0  0  0
  187.8470  178.3110  144.5870 C   0  0  0  0  0  2  0  0  0  0  0  0
  191.4210  177.5800  142.3150 C   0  0  0  0  0  3  0  0  0  0  0  0
  186.9770  178.1470  140.9060 C   0  0  0  0  0  0  0  0  0  0  0  0
  187.9530  177.9170  139.5530 S   0  0  0  0  0  0  0  0  0  0  0  0
  185.4290  179.3380  145.6770 C   0  0  0  0  0  2  0  0  0  0  0  0
  190.1110  177.8040  142.7670 C   0  0  0  0  0  3  0  0  0  0  0  0
  186.2230  178.3540  146.5300 C   0  0  0  0  0  2  0  0  0  0  0  0
  185.6270  178.5180  143.2710 C   0  0  0  0  0  0  0  0  0  0  0  0
  188.1920  176.7510  146.5860 C   0  0  0  0  0  2  0  0  0  0  0  0
  189.2790  178.1380  148.4250 C   0  0  0  0  0  1  0  0  0  0  0  0
  189.4460  177.5120  147.0510 C   0  0  1  0  0  3  0  0  0  0  0  0
  190.7190  176.7380  146.9270 C   0  0  0  0  0  0  0  0  0  0  0  0
  191.6720  177.0870  145.9770 O   0  0  0  0  0  0  0  0  0  0  0  0
  190.9460  175.7820  147.7130 O   0  0  0  0  0  1  0  0  0  0  0  0
  1  2  2  0  0  0  0
  2 12  1  0  0  0  0
  3 14  2  0  0  0  0
  3  7  1  0  0  0  0
  4  1  1  0  0  0  0
  4 17  1  0  0  0  0
  5 18  1  0  0  0  0
  5 20  1  1  0  0  0
  6 13  1  0  0  0  0
  7 19  2  0  0  0  0
  8  4  2  0  0  0  0
  9  8  1  0  0  0  0
  9  6  2  0  0  0  0
 10 11  1  6  0  0  0
 10 16  1  0  0  0  0
 12  5  1  0  0  0  0
 13 17  2  0  0  0  0
 14  1  1  0  0  0  0
 15  8  1  0  0  0  0
 15 14  1  0  0  0  0
 16 18  1  0  0  0  0
 19  2  1  0  0  0  0
 19 10  1  0  0  0  0
 20 22  1  0  0  0  0
 22 21  1  1  0  0  0
 23 22  1  0  0  0  0
 23 25  1  0  0  0  0
 24 23  2  0  0  0  0
M  END
>  <MODEL>
8

>  <REMARK>
 VINA RESULT:      -8.6      2.944      5.270
  Name = 
  3 active torsions:
  status: ('A' for Active; 'I' for Inactive)
    1  A    between atoms: C_2  and  C_25
    2  A    between atoms: C_6  and  C_15
    3  A    between atoms: C_15  and  C_25
                            x       y       z     vdW  Elec       q    Type
                         _______ _______ _______ _____ _____    ______ ____

>  <TORSDO>
F 3

$$$$
=
 OpenBabel10262419553D

 25 28  0  0  1  0  0  0  0  0999 V2000
  185.4760  178.1960  144.1740 C   0  0  0  0  0  0  0  0  0  0  0  0
  184.3910  178.3720  143.2940 C   0  0  0  0  0  0  0  0  0  0  0  0
  184.1280  178.8890  146.0200 N   0  0  0  0  0  0  0  0  0  0  0  0
  186.7910  177.7710  143.8990 C   0  0  0  0  0  0  0  0  0  0  0  0
  183.9440  179.0710  140.9160 C   0  0  2  0  0  3  0  0  0  0  0  0
  189.4690  176.9770  143.7470 C   0  0  0  0  0  3  0  0  0  0  0  0
  183.0880  179.0580  145.2040 N   0  0  0  0  0  0  0  0  0  0  0  0
  187.5920  177.7220  145.0400 C   0  0  0  0  0  0  0  0  0  0  0  0
  188.9280  177.3310  144.9910 C   0  0  0  0  0  3  0  0  0  0  0  0
  181.9130  179.1250  143.0290 C   0  0  2  0  0  3  0  0  0  0  0  0
  180.6390  179.0710  143.8590 C   0  0  0  0  0  1  0  0  0  0  0  0
  184.5650  178.0290  141.8360 C   0  0  0  0  0  2  0  0  0  0  0  0
  188.6760  177.0230  142.5860 C   0  0  0  0  0  3  0  0  0  0  0  0
  185.3070  178.4620  145.5230 C   0  0  0  0  0  0  0  0  0  0  0  0
  186.7190  178.1940  146.4020 S   0  0  0  0  0  0  0  0  0  0  0  0
  181.7280  178.2210  141.8200 C   0  0  0  0  0  2  0  0  0  0  0  0
  187.3320  177.4210  142.6570 C   0  0  0  0  0  3  0  0  0  0  0  0
  182.4770  178.7700  140.6100 C   0  0  0  0  0  2  0  0  0  0  0  0
  183.1460  178.7990  143.8590 C   0  0  0  0  0  0  0  0  0  0  0  0
  184.7570  179.3250  139.6380 C   0  0  0  0  0  2  0  0  0  0  0  0
  184.4190  177.5780  137.8150 C   0  0  0  0  0  1  0  0  0  0  0  0
  185.3350  178.1010  138.9080 C   0  0  1  0  0  3  0  0  0  0  0  0
  186.7450  178.2710  138.4390 C   0  0  0  0  0  0  0  0  0  0  0  0
  187.0200  178.9160  137.2390 O   0  0  0  0  0  0  0  0  0  0  0  0
  187.6930  177.8550  139.1530 O   0  0  0  0  0  1  0  0  0  0  0  0
  1 14  2  0  0  0  0
  2 19  2  0  0  0  0
  2  1  1  0  0  0  0
  4  1  1  0  0  0  0
  4  8  1  0  0  0  0
  5 20  1  6  0  0  0
  5 12  1  0  0  0  0
  6  9  1  0  0  0  0
  7  3  2  0  0  0  0
  8 15  1  0  0  0  0
  9  8  2  0  0  0  0
 10 11  1  1  0  0  0
 10 19  1  0  0  0  0
 12  2  1  0  0  0  0
 13 17  1  0  0  0  0
 13  6  2  0  0  0  0
 14  3  1  0  0  0  0
 14 15  1  0  0  0  0
 16 10  1  0  0  0  0
 17  4  2  0  0  0  0
 18  5  1  0  0  0  0
 18 16  1  0  0  0  0
 19  7  1  0  0  0  0
 22 21  1  6  0  0  0
 22 20  1  0  0  0  0
 23 22  1  0  0  0  0
 23 25  1  0  0  0  0
 24 23  2  0  0  0  0
M  END
>  <MODEL>
9

>  <REMARK>
 VINA RESULT:      -8.6      2.247      3.305
  Name = 
  3 active torsions:
  status: ('A' for Active; 'I' for Inactive)
    1  A    between atoms: C_2  and  C_25
    2  A    between atoms: C_6  and  C_15
    3  A    between atoms: C_15  and  C_25
                            x       y       z     vdW  Elec       q    Type
                         _______ _______ _______ _____ _____    ______ ____

>  <TORSDO>
F 3

$$$$
