=
 OpenBabel10262420103D

 27 31  0  0  0  0  0  0  0  0999 V2000
  186.4810  178.7520  141.0830 C   0  0  0  0  0  3  0  0  0  0  0  0
  185.9400  178.4410  143.4950 C   0  0  0  0  0  0  0  0  0  0  0  0
  188.0660  177.1850  143.0750 N   0  0  0  0  0  0  0  0  0  0  0  0
  186.7470  178.4330  147.6010 C   0  0  0  0  0  3  0  0  0  0  0  0
  188.1420  177.8040  149.4280 F   0  0  0  0  0  0  0  0  0  0  0  0
  185.1070  179.0390  144.3960 N   0  0  0  0  0  0  0  0  0  0  0  0
  188.7820  177.1780  147.2200 C   0  0  0  0  0  3  0  0  0  0  0  0
  191.2280  176.3920  139.7410 F   0  0  0  0  0  0  0  0  0  0  0  0
  188.5280  177.1770  145.8450 C   0  0  0  0  0  3  0  0  0  0  0  0
  190.0940  177.0180  140.1360 C   0  0  0  0  0  0  0  0  0  0  0  0
  187.3800  177.8020  145.3320 C   0  0  0  0  0  0  0  0  0  0  0  0
  185.5540  178.4080  142.1170 N   0  0  0  0  0  0  0  0  0  0  0  0
  187.8930  177.8050  148.0960 C   0  0  0  0  0  0  0  0  0  0  0  0
  186.4900  178.4330  146.2270 C   0  0  0  0  0  0  0  0  0  0  0  0
  187.7210  178.2860  140.9470 C   0  0  0  0  0  0  0  0  0  0  0  0
  187.1190  177.8200  143.9470 C   0  0  0  0  0  0  0  0  0  0  0  0
  189.5320  176.7250  141.3780 C   0  0  0  0  0  3  0  0  0  0  0  0
  185.3550  179.0550  145.7290 C   0  0  0  0  0  3  0  0  0  0  0  0
  189.5140  177.9880  139.3260 C   0  0  0  0  0  3  0  0  0  0  0  0
  188.3320  178.6070  139.7280 C   0  0  0  0  0  3  0  0  0  0  0  0
  188.3700  177.3720  141.8240 C   0  0  0  0  0  0  0  0  0  0  0  0
  181.4810  178.0900  141.0410 N   0  0  0  0  0  0  0  0  0  0  0  0
  184.1580  178.2850  141.7600 C   0  0  0  0  0  0  0  0  0  0  0  0
  183.7760  177.6200  140.5840 C   0  0  0  0  0  3  0  0  0  0  0  0
  182.4260  177.5290  140.2420 C   0  0  0  0  0  3  0  0  0  0  0  0
  181.8160  178.7500  142.1830 C   0  0  0  0  0  3  0  0  0  0  0  0
  183.1560  178.8610  142.5580 C   0  0  0  0  0  3  0  0  0  0  0  0
  1 12  1  0  0  0  0
  2 16  2  0  0  0  0
  2  6  1  0  0  0  0
  3 16  1  0  0  0  0
  4 13  1  0  0  0  0
  6 18  2  0  0  0  0
  7 13  2  0  0  0  0
  8 10  1  0  0  0  0
  9  7  1  0  0  0  0
 10 17  2  0  0  0  0
 11  9  2  0  0  0  0
 11 14  1  0  0  0  0
 12  2  1  0  0  0  0
 13  5  1  0  0  0  0
 14  4  2  0  0  0  0
 15  1  2  0  0  0  0
 15 21  1  0  0  0  0
 16 11  1  0  0  0  0
 17 21  1  0  0  0  0
 18 14  1  0  0  0  0
 19 20  2  0  0  0  0
 19 10  1  0  0  0  0
 20 15  1  0  0  0  0
 21  3  2  0  0  0  0
 22 26  1  0  0  0  0
 23 12  1  0  0  0  0
 23 27  1  0  0  0  0
 24 23  2  0  0  0  0
 25 24  1  0  0  0  0
 25 22  2  0  0  0  0
 26 27  2  0  0  0  0
M  END
>  <MODEL>
1

>  <REMARK>
 VINA RESULT:     -10.2      0.000      0.000
  Name = 
  1 active torsions:
  status: ('A' for Active; 'I' for Inactive)
    1  A    between atoms: C_9  and  N_15
                            x       y       z     vdW  Elec       q    Type
                         _______ _______ _______ _____ _____    ______ ____

>  <TORSDO>
F 1

$$$$
=
 OpenBabel10262420103D

 27 31  0  0  0  0  0  0  0  0999 V2000
  189.9780  178.0410  142.3710 C   0  0  0  0  0  3  0  0  0  0  0  0
  187.5640  178.1570  141.7700 C   0  0  0  0  0  0  0  0  0  0  0  0
  187.6680  177.3820  144.1490 N   0  0  0  0  0  0  0  0  0  0  0  0
  183.5630  179.2600  142.3040 C   0  0  0  0  0  3  0  0  0  0  0  0
  181.6300  179.4050  143.6910 F   0  0  0  0  0  0  0  0  0  0  0  0
  186.8320  178.7260  140.7680 N   0  0  0  0  0  0  0  0  0  0  0  0
  183.6300  178.4720  144.5920 C   0  0  0  0  0  3  0  0  0  0  0  0
  190.7070  176.6390  147.6070 F   0  0  0  0  0  0  0  0  0  0  0  0
  184.9680  178.1030  144.4300 C   0  0  0  0  0  3  0  0  0  0  0  0
  190.4750  177.0490  146.3370 C   0  0  0  0  0  0  0  0  0  0  0  0
  185.6190  178.3070  143.2020 C   0  0  0  0  0  0  0  0  0  0  0  0
  188.9000  177.7270  141.4860 N   0  0  0  0  0  0  0  0  0  0  0  0
  182.9280  179.0490  143.5300 C   0  0  0  0  0  0  0  0  0  0  0  0
  184.9010  178.8920  142.1380 C   0  0  0  0  0  0  0  0  0  0  0  0
  189.9950  177.8650  143.6910 C   0  0  0  0  0  0  0  0  0  0  0  0
  186.9720  177.9520  143.0300 C   0  0  0  0  0  0  0  0  0  0  0  0
  189.2020  176.9160  145.7820 C   0  0  0  0  0  3  0  0  0  0  0  0
  185.5370  179.0980  140.9230 C   0  0  0  0  0  3  0  0  0  0  0  0
  191.4910  177.6480  145.6010 C   0  0  0  0  0  3  0  0  0  0  0  0
  191.2510  178.0410  144.2850 C   0  0  0  0  0  3  0  0  0  0  0  0
  188.9260  177.3510  144.4780 C   0  0  0  0  0  0  0  0  0  0  0  0
  189.8810  176.2310  137.6590 N   0  0  0  0  0  0  0  0  0  0  0  0
  189.2270  177.1990  140.1800 C   0  0  0  0  0  0  0  0  0  0  0  0
  190.5000  176.6650  139.9240 C   0  0  0  0  0  3  0  0  0  0  0  0
  190.8090  176.1800  138.6520 C   0  0  0  0  0  3  0  0  0  0  0  0
  188.6420  176.7500  137.8710 C   0  0  0  0  0  3  0  0  0  0  0  0
  188.2960  177.2450  139.1300 C   0  0  0  0  0  3  0  0  0  0  0  0
  1 15  2  0  0  0  0
  2 16  1  0  0  0  0
  3 21  2  0  0  0  0
  4 13  2  0  0  0  0
  6 18  1  0  0  0  0
  6  2  2  0  0  0  0
  9  7  2  0  0  0  0
 10  8  1  0  0  0  0
 11  9  1  0  0  0  0
 12  2  1  0  0  0  0
 12  1  1  0  0  0  0
 13  5  1  0  0  0  0
 13  7  1  0  0  0  0
 14  4  1  0  0  0  0
 14 11  1  0  0  0  0
 15 20  1  0  0  0  0
 15 21  1  0  0  0  0
 16 11  2  0  0  0  0
 16  3  1  0  0  0  0
 17 10  2  0  0  0  0
 18 14  2  0  0  0  0
 19 10  1  0  0  0  0
 20 19  2  0  0  0  0
 21 17  1  0  0  0  0
 22 26  2  0  0  0  0
 22 25  1  0  0  0  0
 23 12  1  0  0  0  0
 24 23  1  0  0  0  0
 25 24  2  0  0  0  0
 26 27  1  0  0  0  0
 27 23  2  0  0  0  0
M  END
>  <MODEL>
2

>  <REMARK>
 VINA RESULT:      -9.7      2.646      5.693
  Name = 
  1 active torsions:
  status: ('A' for Active; 'I' for Inactive)
    1  A    between atoms: C_9  and  N_15
                            x       y       z     vdW  Elec       q    Type
                         _______ _______ _______ _____ _____    ______ ____

>  <TORSDO>
F 1

$$$$
=
 OpenBabel10262420103D

 27 31  0  0  0  0  0  0  0  0999 V2000
  187.8770  178.6850  141.3440 C   0  0  0  0  0  3  0  0  0  0  0  0
  188.2670  177.8700  143.6650 C   0  0  0  0  0  0  0  0  0  0  0  0
  189.8040  176.5600  142.1840 N   0  0  0  0  0  0  0  0  0  0  0  0
  190.5860  176.8320  146.9900 C   0  0  0  0  0  3  0  0  0  0  0  0
  192.4430  175.6710  147.9280 F   0  0  0  0  0  0  0  0  0  0  0  0
  187.9680  178.3150  144.9210 N   0  0  0  0  0  0  0  0  0  0  0  0
  192.0560  175.5220  145.5810 C   0  0  0  0  0  3  0  0  0  0  0  0
  191.2320  176.2840  137.7540 F   0  0  0  0  0  0  0  0  0  0  0  0
  191.2930  175.8650  144.4610 C   0  0  0  0  0  3  0  0  0  0  0  0
  190.4700  176.9010  138.6890 C   0  0  0  0  0  0  0  0  0  0  0  0
  190.1670  176.6940  144.5920 C   0  0  0  0  0  0  0  0  0  0  0  0
  187.3770  178.1960  142.5910 N   0  0  0  0  0  0  0  0  0  0  0  0
  191.7020  176.0050  146.8440 C   0  0  0  0  0  0  0  0  0  0  0  0
  189.8210  177.1760  145.8710 C   0  0  0  0  0  0  0  0  0  0  0  0
  188.8630  178.1540  140.6240 C   0  0  0  0  0  0  0  0  0  0  0  0
  189.3980  177.0570  143.4680 C   0  0  0  0  0  0  0  0  0  0  0  0
  190.3910  176.3780  139.9790 C   0  0  0  0  0  3  0  0  0  0  0  0
  188.7110  177.9970  146.0090 C   0  0  0  0  0  3  0  0  0  0  0  0
  189.8050  178.0820  138.3790 C   0  0  0  0  0  3  0  0  0  0  0  0
  189.0010  178.6940  139.3380 C   0  0  0  0  0  3  0  0  0  0  0  0
  189.6280  177.0060  140.9740 C   0  0  0  0  0  0  0  0  0  0  0  0
  183.2220  178.5110  143.2840 N   0  0  0  0  0  0  0  0  0  0  0  0
  185.9550  178.2860  142.8320 C   0  0  0  0  0  0  0  0  0  0  0  0
  185.0440  178.2500  141.7640 C   0  0  0  0  0  3  0  0  0  0  0  0
  183.6750  178.3610  142.0110 C   0  0  0  0  0  3  0  0  0  0  0  0
  184.0770  178.5600  144.3410 C   0  0  0  0  0  3  0  0  0  0  0  0
  185.4540  178.4520  144.1340 C   0  0  0  0  0  3  0  0  0  0  0  0
  1 12  1  0  0  0  0
  2  6  1  0  0  0  0
  3 16  1  0  0  0  0
  6 18  2  0  0  0  0
  7 13  2  0  0  0  0
  8 10  1  0  0  0  0
  9 11  2  0  0  0  0
  9  7  1  0  0  0  0
 10 17  2  0  0  0  0
 11 14  1  0  0  0  0
 12 23  1  0  0  0  0
 12  2  1  0  0  0  0
 13  4  1  0  0  0  0
 13  5  1  0  0  0  0
 14 18  1  0  0  0  0
 14  4  2  0  0  0  0
 15 21  1  0  0  0  0
 15  1  2  0  0  0  0
 16  2  2  0  0  0  0
 16 11  1  0  0  0  0
 17 21  1  0  0  0  0
 19 10  1  0  0  0  0
 19 20  2  0  0  0  0
 20 15  1  0  0  0  0
 21  3  2  0  0  0  0
 22 26  1  0  0  0  0
 23 27  1  0  0  0  0
 24 25  1  0  0  0  0
 24 23  2  0  0  0  0
 25 22  2  0  0  0  0
 27 26  2  0  0  0  0
M  END
>  <MODEL>
3

>  <REMARK>
 VINA RESULT:      -9.2      2.013      2.780
  Name = 
  1 active torsions:
  status: ('A' for Active; 'I' for Inactive)
    1  A    between atoms: C_9  and  N_15
                            x       y       z     vdW  Elec       q    Type
                         _______ _______ _______ _____ _____    ______ ____

>  <TORSDO>
F 1

$$$$
=
 OpenBabel10262420103D

 27 31  0  0  0  0  0  0  0  0999 V2000
  189.8420  176.8470  140.7960 C   0  0  0  0  0  3  0  0  0  0  0  0
  187.9350  177.7060  142.1480 C   0  0  0  0  0  0  0  0  0  0  0  0
  187.6010  178.5660  139.8200 N   0  0  0  0  0  0  0  0  0  0  0  0
  183.9040  178.4410  142.9990 C   0  0  0  0  0  3  0  0  0  0  0  0
  181.7650  179.2410  142.3190 F   0  0  0  0  0  0  0  0  0  0  0  0
  187.3890  177.4160  143.3650 N   0  0  0  0  0  0  0  0  0  0  0  0
  183.5720  179.3190  140.7670 C   0  0  0  0  0  3  0  0  0  0  0  0
  189.4000  178.2530  135.5290 F   0  0  0  0  0  0  0  0  0  0  0  0
  184.9160  179.0740  140.4670 C   0  0  0  0  0  3  0  0  0  0  0  0
  189.4310  177.8720  136.8290 C   0  0  0  0  0  0  0  0  0  0  0  0
  185.7700  178.5120  141.4300 C   0  0  0  0  0  0  0  0  0  0  0  0
  189.3410  177.5090  141.9600 N   0  0  0  0  0  0  0  0  0  0  0  0
  183.0680  179.0030  142.0310 C   0  0  0  0  0  0  0  0  0  0  0  0
  185.2480  178.1960  142.7020 C   0  0  0  0  0  0  0  0  0  0  0  0
  189.5140  177.1110  139.5330 C   0  0  0  0  0  0  0  0  0  0  0  0
  187.1220  178.2480  141.1360 C   0  0  0  0  0  0  0  0  0  0  0  0
  188.5830  178.4800  137.7550 C   0  0  0  0  0  3  0  0  0  0  0  0
  186.0840  177.6380  143.6580 C   0  0  0  0  0  3  0  0  0  0  0  0
  190.2710  176.8400  137.2340 C   0  0  0  0  0  3  0  0  0  0  0  0
  190.3160  176.4730  138.5780 C   0  0  0  0  0  3  0  0  0  0  0  0
  188.5770  178.0920  139.1020 C   0  0  0  0  0  0  0  0  0  0  0  0
  192.0550  178.1710  145.1280 N   0  0  0  0  0  0  0  0  0  0  0  0
  190.2560  177.7360  143.0560 C   0  0  0  0  0  0  0  0  0  0  0  0
  190.7800  179.0170  143.2960 C   0  0  0  0  0  3  0  0  0  0  0  0
  191.6800  179.2160  144.3440 C   0  0  0  0  0  3  0  0  0  0  0  0
  191.5750  176.9170  144.9180 C   0  0  0  0  0  3  0  0  0  0  0  0
  190.6720  176.6780  143.8800 C   0  0  0  0  0  3  0  0  0  0  0  0
  1 12  1  0  0  0  0
  2  6  1  0  0  0  0
  3 16  1  0  0  0  0
  6 18  2  0  0  0  0
  7 13  1  0  0  0  0
  8 10  1  0  0  0  0
  9  7  2  0  0  0  0
  9 11  1  0  0  0  0
 10 19  1  0  0  0  0
 10 17  2  0  0  0  0
 11 14  2  0  0  0  0
 12  2  1  0  0  0  0
 12 23  1  0  0  0  0
 13  5  1  0  0  0  0
 13  4  2  0  0  0  0
 14  4  1  0  0  0  0
 14 18  1  0  0  0  0
 15  1  2  0  0  0  0
 16 11  1  0  0  0  0
 16  2  2  0  0  0  0
 17 21  1  0  0  0  0
 19 20  2  0  0  0  0
 20 15  1  0  0  0  0
 21 15  1  0  0  0  0
 21  3  2  0  0  0  0
 23 24  2  0  0  0  0
 23 27  1  0  0  0  0
 24 25  1  0  0  0  0
 25 22  2  0  0  0  0
 26 22  1  0  0  0  0
 27 26  2  0  0  0  0
M  END
>  <MODEL>
4

>  <REMARK>
 VINA RESULT:      -8.9      3.161      6.065
  Name = 
  1 active torsions:
  status: ('A' for Active; 'I' for Inactive)
    1  A    between atoms: C_9  and  N_15
                            x       y       z     vdW  Elec       q    Type
                         _______ _______ _______ _____ _____    ______ ____

>  <TORSDO>
F 1

$$$$
=
 OpenBabel10262420103D

 27 31  0  0  0  0  0  0  0  0999 V2000
  189.6340  176.4760  142.9300 C   0  0  0  0  0  3  0  0  0  0  0  0
  187.6930  177.3560  144.2200 C   0  0  0  0  0  0  0  0  0  0  0  0
  187.6390  178.4930  141.9890 N   0  0  0  0  0  0  0  0  0  0  0  0
  183.6790  178.3640  144.8320 C   0  0  0  0  0  3  0  0  0  0  0  0
  181.6820  179.4300  144.0850 F   0  0  0  0  0  0  0  0  0  0  0  0
  187.0200  176.9850  145.3480 N   0  0  0  0  0  0  0  0  0  0  0  0
  183.6200  179.5090  142.6990 C   0  0  0  0  0  3  0  0  0  0  0  0
  189.7780  178.4860  137.8460 F   0  0  0  0  0  0  0  0  0  0  0  0
  184.9590  179.1750  142.4790 C   0  0  0  0  0  3  0  0  0  0  0  0
  189.6620  177.9630  139.0900 C   0  0  0  0  0  0  0  0  0  0  0  0
  185.6750  178.4330  143.4340 C   0  0  0  0  0  0  0  0  0  0  0  0
  189.0890  177.0500  144.1210 N   0  0  0  0  0  0  0  0  0  0  0  0
  182.9810  179.1040  143.8750 C   0  0  0  0  0  0  0  0  0  0  0  0
  185.0180  178.0290  144.6150 C   0  0  0  0  0  0  0  0  0  0  0  0
  189.4420  176.9070  141.6850 C   0  0  0  0  0  0  0  0  0  0  0  0
  187.0210  178.0790  143.2170 C   0  0  0  0  0  0  0  0  0  0  0  0
  188.7900  178.5430  140.0110 C   0  0  0  0  0  3  0  0  0  0  0  0
  185.7170  177.2950  145.5620 C   0  0  0  0  0  3  0  0  0  0  0  0
  190.3740  176.8200  139.4360 C   0  0  0  0  0  3  0  0  0  0  0  0
  190.2690  176.3050  140.7270 C   0  0  0  0  0  3  0  0  0  0  0  0
  188.6320  178.0110  141.2990 C   0  0  0  0  0  0  0  0  0  0  0  0
  191.4990  177.0580  147.5900 N   0  0  0  0  0  0  0  0  0  0  0  0
  189.9190  177.0700  145.3040 C   0  0  0  0  0  0  0  0  0  0  0  0
  191.1850  176.4630  145.2990 C   0  0  0  0  0  3  0  0  0  0  0  0
  191.9660  176.4710  146.4570 C   0  0  0  0  0  3  0  0  0  0  0  0
  190.2740  177.6470  147.6320 C   0  0  0  0  0  3  0  0  0  0  0  0
  189.4640  177.6600  146.4940 C   0  0  0  0  0  3  0  0  0  0  0  0
  1 12  1  0  0  0  0
  2  6  1  0  0  0  0
  3 16  1  0  0  0  0
  6 18  2  0  0  0  0
  7 13  1  0  0  0  0
  8 10  1  0  0  0  0
  9  7  2  0  0  0  0
  9 11  1  0  0  0  0
 10 19  1  0  0  0  0
 10 17  2  0  0  0  0
 11 14  2  0  0  0  0
 12  2  1  0  0  0  0
 12 23  1  0  0  0  0
 13  5  1  0  0  0  0
 13  4  2  0  0  0  0
 14  4  1  0  0  0  0
 14 18  1  0  0  0  0
 15  1  2  0  0  0  0
 16 11  1  0  0  0  0
 16  2  2  0  0  0  0
 17 21  1  0  0  0  0
 19 20  2  0  0  0  0
 20 15  1  0  0  0  0
 21 15  1  0  0  0  0
 21  3  2  0  0  0  0
 22 26  1  0  0  0  0
 23 27  1  0  0  0  0
 24 23  2  0  0  0  0
 24 25  1  0  0  0  0
 25 22  2  0  0  0  0
 27 26  2  0  0  0  0
M  END
>  <MODEL>
5

>  <REMARK>
 VINA RESULT:      -8.8      2.663      5.708
  Name = 
  1 active torsions:
  status: ('A' for Active; 'I' for Inactive)
    1  A    between atoms: C_9  and  N_15
                            x       y       z     vdW  Elec       q    Type
                         _______ _______ _______ _____ _____    ______ ____

>  <TORSDO>
F 1

$$$$
=
 OpenBabel10262420103D

 27 31  0  0  0  0  0  0  0  0999 V2000
  184.3700  177.8360  141.2360 C   0  0  0  0  0  3  0  0  0  0  0  0
  186.3000  177.8790  142.8090 C   0  0  0  0  0  0  0  0  0  0  0  0
  184.4270  179.0910  143.9480 N   0  0  0  0  0  0  0  0  0  0  0  0
  188.2110  177.3670  146.4970 C   0  0  0  0  0  3  0  0  0  0  0  0
  188.2760  177.7190  148.8530 F   0  0  0  0  0  0  0  0  0  0  0  0
  187.4860  177.2120  142.9220 N   0  0  0  0  0  0  0  0  0  0  0  0
  186.4320  178.5770  147.6090 C   0  0  0  0  0  3  0  0  0  0  0  0
  179.9170  180.1480  143.4120 F   0  0  0  0  0  0  0  0  0  0  0  0
  185.7810  178.7510  146.3850 C   0  0  0  0  0  3  0  0  0  0  0  0
  181.0250  179.5250  142.9420 C   0  0  0  0  0  0  0  0  0  0  0  0
  186.3370  178.2370  145.2020 C   0  0  0  0  0  0  0  0  0  0  0  0
  185.7520  178.0900  141.5040 N   0  0  0  0  0  0  0  0  0  0  0  0
  187.6460  177.8860  147.6650 C   0  0  0  0  0  0  0  0  0  0  0  0
  187.5610  177.5410  145.2720 C   0  0  0  0  0  0  0  0  0  0  0  0
  183.3340  178.2650  141.9530 C   0  0  0  0  0  0  0  0  0  0  0  0
  185.6830  178.3940  143.9640 C   0  0  0  0  0  0  0  0  0  0  0  0
  182.2470  179.6900  143.5930 C   0  0  0  0  0  3  0  0  0  0  0  0
  188.1170  177.0280  144.1080 C   0  0  0  0  0  3  0  0  0  0  0  0
  180.9360  178.6810  141.8410 C   0  0  0  0  0  3  0  0  0  0  0  0
  182.0860  178.0660  141.3470 C   0  0  0  0  0  3  0  0  0  0  0  0
  183.4060  179.0410  143.1430 C   0  0  0  0  0  0  0  0  0  0  0  0
  188.3220  178.6790  138.2030 N   0  0  0  0  0  0  0  0  0  0  0  0
  186.6310  178.3100  140.3770 C   0  0  0  0  0  0  0  0  0  0  0  0
  186.1280  178.3020  139.0660 C   0  0  0  0  0  3  0  0  0  0  0  0
  186.9930  178.4930  137.9870 C   0  0  0  0  0  3  0  0  0  0  0  0
  188.8440  178.6830  139.4590 C   0  0  0  0  0  3  0  0  0  0  0  0
  188.0100  178.4960  140.5640 C   0  0  0  0  0  3  0  0  0  0  0  0
  1 12  1  0  0  0  0
  1 15  2  0  0  0  0
  2  6  2  0  0  0  0
  2 16  1  0  0  0  0
  3 16  1  0  0  0  0
  4 13  2  0  0  0  0
  6 18  1  0  0  0  0
  7 13  1  0  0  0  0
  9  7  2  0  0  0  0
 10  8  1  0  0  0  0
 10 17  2  0  0  0  0
 11 14  1  0  0  0  0
 11  9  1  0  0  0  0
 12  2  1  0  0  0  0
 13  5  1  0  0  0  0
 14  4  1  0  0  0  0
 15 21  1  0  0  0  0
 16 11  2  0  0  0  0
 18 14  2  0  0  0  0
 19 10  1  0  0  0  0
 20 19  2  0  0  0  0
 20 15  1  0  0  0  0
 21 17  1  0  0  0  0
 21  3  2  0  0  0  0
 22 26  1  0  0  0  0
 23 27  1  0  0  0  0
 23 12  1  0  0  0  0
 24 23  2  0  0  0  0
 25 22  2  0  0  0  0
 25 24  1  0  0  0  0
 26 27  2  0  0  0  0
M  END
>  <MODEL>
6

>  <REMARK>
 VINA RESULT:      -8.8      2.424      5.280
  Name = 
  1 active torsions:
  status: ('A' for Active; 'I' for Inactive)
    1  A    between atoms: C_9  and  N_15
                            x       y       z     vdW  Elec       q    Type
                         _______ _______ _______ _____ _____    ______ ____

>  <TORSDO>
F 1

$$$$
=
 OpenBabel10262420103D

 27 31  0  0  0  0  0  0  0  0999 V2000
  189.5930  177.9610  140.2360 C   0  0  0  0  0  3  0  0  0  0  0  0
  187.1600  178.2280  140.6940 C   0  0  0  0  0  0  0  0  0  0  0  0
  188.1280  177.0310  142.6690 N   0  0  0  0  0  0  0  0  0  0  0  0
  183.8140  179.2860  142.9740 C   0  0  0  0  0  3  0  0  0  0  0  0
  182.6110  179.2120  145.0290 F   0  0  0  0  0  0  0  0  0  0  0  0
  186.1450  178.9820  140.1800 N   0  0  0  0  0  0  0  0  0  0  0  0
  184.7120  178.0950  144.8810 C   0  0  0  0  0  3  0  0  0  0  0  0
  192.2080  175.6180  144.4300 F   0  0  0  0  0  0  0  0  0  0  0  0
  185.8370  177.7380  144.1330 C   0  0  0  0  0  3  0  0  0  0  0  0
  191.5300  176.2570  143.4460 C   0  0  0  0  0  0  0  0  0  0  0  0
  185.9640  178.1490  142.7960 C   0  0  0  0  0  0  0  0  0  0  0  0
  188.2290  177.8320  139.8280 N   0  0  0  0  0  0  0  0  0  0  0  0
  183.7010  178.8680  144.3020 C   0  0  0  0  0  0  0  0  0  0  0  0
  184.9380  178.9310  142.2230 C   0  0  0  0  0  0  0  0  0  0  0  0
  190.1160  177.5480  141.3890 C   0  0  0  0  0  0  0  0  0  0  0  0
  187.1000  177.8080  142.0350 C   0  0  0  0  0  0  0  0  0  0  0  0
  190.1350  176.2490  143.4420 C   0  0  0  0  0  3  0  0  0  0  0  0
  185.0560  179.3430  140.9040 C   0  0  0  0  0  3  0  0  0  0  0  0
  192.2200  176.9610  142.4660 C   0  0  0  0  0  3  0  0  0  0  0  0
  191.5150  177.5910  141.4420 C   0  0  0  0  0  3  0  0  0  0  0  0
  189.4050  176.9190  142.4500 C   0  0  0  0  0  0  0  0  0  0  0  0
  187.4080  177.0210  135.7640 N   0  0  0  0  0  0  0  0  0  0  0  0
  187.9630  177.5450  138.4360 C   0  0  0  0  0  0  0  0  0  0  0  0
  188.2720  178.4850  137.4400 C   0  0  0  0  0  3  0  0  0  0  0  0
  187.9890  178.2030  136.1030 C   0  0  0  0  0  3  0  0  0  0  0  0
  187.0870  176.0920  136.7040 C   0  0  0  0  0  3  0  0  0  0  0  0
  187.3550  176.3390  138.0520 C   0  0  0  0  0  3  0  0  0  0  0  0
  1 15  2  0  0  0  0
  2 16  1  0  0  0  0
  4 13  2  0  0  0  0
  6  2  2  0  0  0  0
  6 18  1  0  0  0  0
  9  7  2  0  0  0  0
 10  8  1  0  0  0  0
 11  9  1  0  0  0  0
 12  1  1  0  0  0  0
 12  2  1  0  0  0  0
 13  7  1  0  0  0  0
 13  5  1  0  0  0  0
 14 11  1  0  0  0  0
 14  4  1  0  0  0  0
 15 20  1  0  0  0  0
 15 21  1  0  0  0  0
 16  3  1  0  0  0  0
 16 11  2  0  0  0  0
 17 10  2  0  0  0  0
 18 14  2  0  0  0  0
 19 10  1  0  0  0  0
 20 19  2  0  0  0  0
 21  3  2  0  0  0  0
 21 17  1  0  0  0  0
 22 25  2  0  0  0  0
 22 26  1  0  0  0  0
 23 12  1  0  0  0  0
 24 23  2  0  0  0  0
 25 24  1  0  0  0  0
 26 27  2  0  0  0  0
 27 23  1  0  0  0  0
M  END
>  <MODEL>
7

>  <REMARK>
 VINA RESULT:      -8.7      2.889      4.780
  Name = 
  1 active torsions:
  status: ('A' for Active; 'I' for Inactive)
    1  A    between atoms: C_9  and  N_15
                            x       y       z     vdW  Elec       q    Type
                         _______ _______ _______ _____ _____    ______ ____

>  <TORSDO>
F 1

$$$$
=
 OpenBabel10262420103D

 27 31  0  0  0  0  0  0  0  0999 V2000
  187.3720  177.1280  142.4260 C   0  0  0  0  0  3  0  0  0  0  0  0
  189.6490  176.7620  143.3660 C   0  0  0  0  0  0  0  0  0  0  0  0
  188.3530  178.0120  145.1070 N   0  0  0  0  0  0  0  0  0  0  0  0
  192.4160  175.5800  146.2740 C   0  0  0  0  0  3  0  0  0  0  0  0
  193.1810  175.6180  148.5310 F   0  0  0  0  0  0  0  0  0  0  0  0
  190.7140  175.9620  143.0670 N   0  0  0  0  0  0  0  0  0  0  0  0
  191.2030  176.8210  147.9620 C   0  0  0  0  0  3  0  0  0  0  0  0
  184.0650  179.6070  146.0080 F   0  0  0  0  0  0  0  0  0  0  0  0
  190.2680  177.2200  147.0020 C   0  0  0  0  0  3  0  0  0  0  0  0
  184.9010  178.9340  145.1810 C   0  0  0  0  0  0  0  0  0  0  0  0
  190.3980  176.8050  145.6670 C   0  0  0  0  0  0  0  0  0  0  0  0
  188.7950  177.1960  142.3020 N   0  0  0  0  0  0  0  0  0  0  0  0
  192.2760  176.0030  147.5980 C   0  0  0  0  0  0  0  0  0  0  0  0
  191.4830  175.9770  145.3120 C   0  0  0  0  0  0  0  0  0  0  0  0
  186.6450  177.5710  143.4500 C   0  0  0  0  0  0  0  0  0  0  0  0
  189.4540  177.1890  144.6930 C   0  0  0  0  0  0  0  0  0  0  0  0
  186.2660  178.8830  145.4590 C   0  0  0  0  0  3  0  0  0  0  0  0
  191.6170  175.5610  143.9950 C   0  0  0  0  0  3  0  0  0  0  0  0
  184.3930  178.2530  144.0800 C   0  0  0  0  0  3  0  0  0  0  0  0
  185.2630  177.5860  143.2180 C   0  0  0  0  0  3  0  0  0  0  0  0
  187.1520  178.1760  144.6340 C   0  0  0  0  0  0  0  0  0  0  0  0
  190.3800  177.9380  138.4570 N   0  0  0  0  0  0  0  0  0  0  0  0
  189.3490  177.4630  140.9930 C   0  0  0  0  0  0  0  0  0  0  0  0
  188.6670  178.2860  140.0830 C   0  0  0  0  0  3  0  0  0  0  0  0
  189.2030  178.5160  138.8150 C   0  0  0  0  0  3  0  0  0  0  0  0
  191.0620  177.1270  139.3110 C   0  0  0  0  0  3  0  0  0  0  0  0
  190.5570  176.8740  140.5880 C   0  0  0  0  0  3  0  0  0  0  0  0
  1 15  2  0  0  0  0
  2 16  1  0  0  0  0
  4 13  2  0  0  0  0
  6  2  2  0  0  0  0
  6 18  1  0  0  0  0
  9  7  2  0  0  0  0
 10 17  2  0  0  0  0
 10  8  1  0  0  0  0
 11  9  1  0  0  0  0
 12  1  1  0  0  0  0
 12  2  1  0  0  0  0
 13  7  1  0  0  0  0
 13  5  1  0  0  0  0
 14 11  1  0  0  0  0
 14  4  1  0  0  0  0
 15 21  1  0  0  0  0
 16  3  1  0  0  0  0
 16 11  2  0  0  0  0
 18 14  2  0  0  0  0
 19 10  1  0  0  0  0
 20 15  1  0  0  0  0
 20 19  2  0  0  0  0
 21  3  2  0  0  0  0
 21 17  1  0  0  0  0
 22 25  2  0  0  0  0
 22 26  1  0  0  0  0
 23 12  1  0  0  0  0
 24 23  2  0  0  0  0
 25 24  1  0  0  0  0
 26 27  2  0  0  0  0
 27 23  1  0  0  0  0
M  END
>  <MODEL>
8

>  <REMARK>
 VINA RESULT:      -8.7      3.158      5.825
  Name = 
  1 active torsions:
  status: ('A' for Active; 'I' for Inactive)
    1  A    between atoms: C_9  and  N_15
                            x       y       z     vdW  Elec       q    Type
                         _______ _______ _______ _____ _____    ______ ____

>  <TORSDO>
F 1

$$$$
=
 OpenBabel10262420103D

 27 31  0  0  0  0  0  0  0  0999 V2000
  187.8570  177.0260  143.2190 C   0  0  0  0  0  3  0  0  0  0  0  0
  185.6210  178.0930  142.9570 C   0  0  0  0  0  0  0  0  0  0  0  0
  186.9440  178.7050  140.9210 N   0  0  0  0  0  0  0  0  0  0  0  0
  182.0800  179.0530  140.9450 C   0  0  0  0  0  3  0  0  0  0  0  0
  180.9660  179.8470  138.9950 F   0  0  0  0  0  0  0  0  0  0  0  0
  184.3970  177.9550  143.5450 N   0  0  0  0  0  0  0  0  0  0  0  0
  183.3440  179.6940  138.9830 C   0  0  0  0  0  3  0  0  0  0  0  0
  191.0360  177.8650  138.8490 F   0  0  0  0  0  0  0  0  0  0  0  0
  184.5350  179.3720  139.6410 C   0  0  0  0  0  3  0  0  0  0  0  0
  190.1890  177.6270  139.8790 C   0  0  0  0  0  0  0  0  0  0  0  0
  184.5120  178.8890  140.9600 C   0  0  0  0  0  0  0  0  0  0  0  0
  186.7920  177.8280  143.7380 N   0  0  0  0  0  0  0  0  0  0  0  0
  182.1180  179.5340  139.6350 C   0  0  0  0  0  0  0  0  0  0  0  0
  183.2690  178.7310  141.6060 C   0  0  0  0  0  0  0  0  0  0  0  0
  188.4430  177.1630  142.0310 C   0  0  0  0  0  0  0  0  0  0  0  0
  185.7050  178.5480  141.6290 C   0  0  0  0  0  0  0  0  0  0  0  0
  189.0090  178.3610  139.9950 C   0  0  0  0  0  3  0  0  0  0  0  0
  183.2370  178.2520  142.9080 C   0  0  0  0  0  3  0  0  0  0  0  0
  190.4690  176.6180  140.7930 C   0  0  0  0  0  3  0  0  0  0  0  0
  189.6050  176.3980  141.8650 C   0  0  0  0  0  3  0  0  0  0  0  0
  188.1020  178.1220  141.0370 C   0  0  0  0  0  0  0  0  0  0  0  0
  186.8110  178.6980  147.8710 N   0  0  0  0  0  0  0  0  0  0  0  0
  186.8070  178.1420  145.1490 C   0  0  0  0  0  0  0  0  0  0  0  0
  187.8020  177.6150  145.9880 C   0  0  0  0  0  3  0  0  0  0  0  0
  187.7890  177.9090  147.3530 C   0  0  0  0  0  3  0  0  0  0  0  0
  185.8270  179.2160  147.0890 C   0  0  0  0  0  3  0  0  0  0  0  0
  185.8060  178.9450  145.7190 C   0  0  0  0  0  3  0  0  0  0  0  0
  1 12  1  0  0  0  0
  2  6  1  0  0  0  0
  2 12  1  0  0  0  0
  3 21  2  0  0  0  0
  3 16  1  0  0  0  0
  4 14  1  0  0  0  0
  5 13  1  0  0  0  0
  7 13  1  0  0  0  0
  7  9  2  0  0  0  0
  8 10  1  0  0  0  0
  9 11  1  0  0  0  0
 10 17  2  0  0  0  0
 10 19  1  0  0  0  0
 11 14  2  0  0  0  0
 11 16  1  0  0  0  0
 12 23  1  0  0  0  0
 13  4  2  0  0  0  0
 14 18  1  0  0  0  0
 15  1  2  0  0  0  0
 16  2  2  0  0  0  0
 17 21  1  0  0  0  0
 18  6  2  0  0  0  0
 19 20  2  0  0  0  0
 20 15  1  0  0  0  0
 21 15  1  0  0  0  0
 23 27  2  0  0  0  0
 23 24  1  0  0  0  0
 24 25  2  0  0  0  0
 25 22  1  0  0  0  0
 26 22  2  0  0  0  0
 27 26  1  0  0  0  0
M  END
>  <MODEL>
9

>  <REMARK>
 VINA RESULT:      -8.6      2.537      5.815
  Name = 
  1 active torsions:
  status: ('A' for Active; 'I' for Inactive)
    1  A    between atoms: C_9  and  N_15
                            x       y       z     vdW  Elec       q    Type
                         _______ _______ _______ _____ _____    ______ ____

>  <TORSDO>
F 1

$$$$
