=
 OpenBabel10262421583D

 30 35  0  0  1  0  0  0  0  0999 V2000
  186.9500  178.4770  138.8560 C   0  0  1  0  0  3  0  0  0  0  0  0
  186.8400  177.9100  136.2450 C   0  0  2  0  0  3  0  0  0  0  0  0
  183.4550  177.6100  138.2280 N   0  0  0  0  0  2  0  0  0  0  0  0
  186.0630  178.4260  140.1180 C   0  0  1  0  0  3  0  0  0  0  0  0
  188.2400  177.8200  139.0790 N   0  0  0  0  0  0  0  0  0  0  0  0
  189.1930  178.2680  142.8850 S   0  0  0  0  0  0  0  0  0  0  0  0
  184.7080  179.2910  142.7340 C   0  0  1  0  0  3  0  0  0  0  0  0
  188.1450  178.3730  141.4260 C   0  0  1  0  0  3  0  0  0  0  0  0
  190.0780  177.2750  140.4820 N   0  0  0  0  0  0  0  0  0  0  0  0
  183.6570  178.4830  141.9750 C   0  0  1  0  0  3  0  0  0  0  0  0
  183.3040  177.5520  139.6480 C   0  0  0  0  0  0  0  0  0  0  0  0
  188.8220  177.8780  140.2350 C   0  0  0  0  0  0  0  0  0  0  0  0
  186.8160  178.5760  141.4340 C   0  0  2  0  0  3  0  0  0  0  0  0
  186.6750  176.5790  135.5010 C   0  0  0  0  0  2  0  0  0  0  0  0
  182.3440  178.8260  142.6360 C   0  0  0  0  0  2  0  0  0  0  0  0
  184.1480  179.5190  144.1280 C   0  0  0  0  0  2  0  0  0  0  0  0
  191.3700  176.6810  142.4050 C   0  0  0  0  0  1  0  0  0  0  0  0
  188.3010  178.3260  136.2240 C   0  0  0  0  0  1  0  0  0  0  0  0
  184.2580  176.6340  137.4940 C   0  0  1  0  0  3  0  0  0  0  0  0
  185.2210  176.2180  135.1420 C   0  0  0  0  0  2  0  0  0  0  0  0
  190.3910  177.3890  141.8670 C   0  0  0  0  0  0  0  0  0  0  0  0
  186.1950  177.8720  137.6560 C   0  0  1  0  0  3  0  0  0  0  0  0
  184.9130  179.4170  139.9680 C   0  0  0  0  0  2  0  0  0  0  0  0
  182.9980  176.4610  140.2010 O   0  0  0  0  0  0  0  0  0  0  0  0
  183.6080  178.7860  140.4670 C   0  0  2  0  0  3  0  0  0  0  0  0
  182.6840  179.1090  144.0860 C   0  0  0  0  0  2  0  0  0  0  0  0
  185.9930  177.1900  143.3500 C   0  0  0  0  0  1  0  0  0  0  0  0
  184.1420  176.9080  135.9850 C   0  0  0  0  0  2  0  0  0  0  0  0
  185.5980  176.6270  137.9620 O   0  0  0  0  0  0  0  0  0  0  0  0
  186.0800  178.5980  142.7640 C   0  0  2  0  0  3  0  0  0  0  0  0
  1  5  1  1  0  0  0
  1  4  1  0  0  0  0
  2 18  1  1  0  0  0
  2 22  1  0  0  0  0
  3 11  1  0  0  0  0
  4 23  1  6  0  0  0
  4 13  1  0  0  0  0
  5 12  2  0  0  0  0
  7 30  1  0  0  0  0
  7 16  1  1  0  0  0
  8 12  1  1  0  0  0
  8 13  1  0  0  0  0
  8  6  1  0  0  0  0
  9 21  2  0  0  0  0
 10 15  1  1  0  0  0
 10  7  1  0  0  0  0
 11 24  2  0  0  0  0
 11 25  1  0  0  0  0
 12  9  1  0  0  0  0
 13 30  1  0  0  0  0
 14  2  1  0  0  0  0
 15 26  1  0  0  0  0
 19 29  1  0  0  0  0
 19  3  1  0  0  0  0
 20 14  1  0  0  0  0
 20 28  1  0  0  0  0
 21 17  1  0  0  0  0
 21  6  1  0  0  0  0
 22 29  1  0  0  0  0
 22  1  1  0  0  0  0
 23 25  1  0  0  0  0
 25 10  1  0  0  0  0
 26 16  1  0  0  0  0
 28 19  1  0  0  0  0
 30 27  1  0  0  0  0
M  END
>  <MODEL>
1

>  <REMARK>
 VINA RESULT:      -7.8      0.000      0.000
  Name = 
  0 active torsions:
  status: ('A' for Active; 'I' for Inactive)
                            x       y       z     vdW  Elec       q    Type
                         _______ _______ _______ _____ _____    ______ ____

>  <TORSDO>
F 0

$$$$
=
 OpenBabel10262421583D

 30 35  0  0  1  0  0  0  0  0999 V2000
  188.7300  176.6440  143.5510 C   0  0  1  0  0  3  0  0  0  0  0  0
  190.7470  175.9940  145.1820 C   0  0  2  0  0  3  0  0  0  0  0  0
  187.6310  177.7010  146.8720 N   0  0  0  0  0  2  0  0  0  0  0  0
  187.3840  177.3990  143.5730 C   0  0  1  0  0  3  0  0  0  0  0  0
  189.5880  177.1090  142.4590 N   0  0  0  0  0  0  0  0  0  0  0  0
  187.2600  178.2590  139.4840 S   0  0  0  0  0  0  0  0  0  0  0  0
  184.4170  178.0320  143.0960 C   0  0  1  0  0  3  0  0  0  0  0  0
  187.6480  177.6870  141.1450 C   0  0  1  0  0  3  0  0  0  0  0  0
  189.8770  177.9120  140.2410 N   0  0  0  0  0  2  0  0  0  0  0  0
  184.7350  178.5760  144.4880 C   0  0  1  0  0  3  0  0  0  0  0  0
  186.5850  178.4120  146.2060 C   0  0  0  0  0  0  0  0  0  0  0  0
  189.0790  177.4790  141.3270 C   0  0  0  0  0  0  0  0  0  0  0  0
  186.8150  177.7310  142.1990 C   0  0  2  0  0  3  0  0  0  0  0  0
  191.7820  176.8580  145.9110 C   0  0  0  0  0  2  0  0  0  0  0  0
  183.3910  178.7870  145.1440 C   0  0  0  0  0  2  0  0  0  0  0  0
  183.0330  178.5470  142.7410 C   0  0  0  0  0  2  0  0  0  0  0  0
  189.5240  179.0810  138.1850 C   0  0  0  0  0  2  0  0  0  0  0  0
  191.3780  175.3770  143.9450 C   0  0  0  0  0  1  0  0  0  0  0  0
  189.0330  178.0990  146.7590 C   0  0  1  0  0  3  0  0  0  0  0  0
  191.3940  177.2550  147.3470 C   0  0  0  0  0  2  0  0  0  0  0  0
  189.0330  178.3800  139.1940 C   0  0  0  0  0  0  0  0  0  0  0  0
  189.4240  176.7640  144.9210 C   0  0  1  0  0  3  0  0  0  0  0  0
  186.3990  176.6510  144.4660 C   0  0  0  0  0  2  0  0  0  0  0  0
  186.5300  179.6700  146.2900 O   0  0  0  0  0  0  0  0  0  0  0  0
  185.6190  177.6440  145.3350 C   0  0  2  0  0  3  0  0  0  0  0  0
  182.4400  179.1290  144.0140 C   0  0  0  0  0  2  0  0  0  0  0  0
  185.6610  179.9430  141.9790 C   0  0  0  0  0  1  0  0  0  0  0  0
  189.8940  177.2020  147.6640 C   0  0  0  0  0  2  0  0  0  0  0  0
  189.4520  178.0940  145.4020 O   0  0  0  0  0  0  0  0  0  0  0  0
  185.4720  178.4290  142.0510 C   0  0  2  0  0  3  0  0  0  0  0  0
  1  5  1  6  0  0  0
  1  4  1  0  0  0  0
  1 22  1  0  0  0  0
  2 18  1  6  0  0  0
  2 14  1  0  0  0  0
  4 23  1  6  0  0  0
  7 16  1  6  0  0  0
  7 10  1  0  0  0  0
  8  6  1  1  0  0  0
  8 12  1  0  0  0  0
  8 13  1  0  0  0  0
  9 12  1  0  0  0  0
 10 15  1  1  0  0  0
 10 25  1  0  0  0  0
 11 24  2  0  0  0  0
 11  3  1  0  0  0  0
 12  5  2  0  0  0  0
 13  4  1  0  0  0  0
 14 20  1  0  0  0  0
 16 26  1  0  0  0  0
 17 21  2  0  0  0  0
 19  3  1  0  0  0  0
 19 28  1  0  0  0  0
 20 28  1  0  0  0  0
 21  6  1  0  0  0  0
 21  9  1  0  0  0  0
 22  2  1  0  0  0  0
 22 29  1  0  0  0  0
 23 25  1  0  0  0  0
 25 11  1  0  0  0  0
 26 15  1  0  0  0  0
 27 30  1  0  0  0  0
 29 19  1  0  0  0  0
 30 13  1  0  0  0  0
 30  7  1  0  0  0  0
M  END
>  <MODEL>
2

>  <REMARK>
 VINA RESULT:      -7.6      3.615      6.650
  Name = 
  0 active torsions:
  status: ('A' for Active; 'I' for Inactive)
                            x       y       z     vdW  Elec       q    Type
                         _______ _______ _______ _____ _____    ______ ____

>  <TORSDO>
F 0

$$$$
=
 OpenBabel10262421583D

 30 35  0  0  1  0  0  0  0  0999 V2000
  186.2140  178.8870  141.7070 C   0  0  1  0  0  3  0  0  0  0  0  0
  185.6380  179.1570  144.3050 C   0  0  2  0  0  3  0  0  0  0  0  0
  189.0810  177.4490  143.4600 N   0  0  0  0  0  2  0  0  0  0  0  0
  187.2670  178.2320  140.7890 C   0  0  1  0  0  3  0  0  0  0  0  0
  184.8520  178.5230  141.3080 N   0  0  0  0  0  0  0  0  0  0  0  0
  184.8350  177.9710  137.3980 S   0  0  0  0  0  0  0  0  0  0  0  0
  189.3000  177.8820  138.5140 C   0  0  1  0  0  3  0  0  0  0  0  0
  185.5630  178.2730  139.0160 C   0  0  1  0  0  3  0  0  0  0  0  0
  183.2410  178.0230  139.6340 N   0  0  0  0  0  2  0  0  0  0  0  0
  189.8830  177.1250  139.7060 C   0  0  1  0  0  3  0  0  0  0  0  0
  189.4770  176.9140  142.1950 C   0  0  0  0  0  0  0  0  0  0  0  0
  184.5500  178.3530  140.0600 C   0  0  0  0  0  0  0  0  0  0  0  0
  186.8650  178.1380  139.3220 C   0  0  2  0  0  3  0  0  0  0  0  0
  185.2380  178.1280  145.3690 C   0  0  0  0  0  2  0  0  0  0  0  0
  191.3390  176.9180  139.3660 C   0  0  0  0  0  2  0  0  0  0  0  0
  190.1590  177.5210  137.3150 C   0  0  0  0  0  2  0  0  0  0  0  0
  182.2250  177.1850  137.6380 C   0  0  0  0  0  2  0  0  0  0  0  0
  184.4020  179.8970  143.8220 C   0  0  0  0  0  1  0  0  0  0  0  0
  187.8900  176.9740  144.1630 C   0  0  1  0  0  3  0  0  0  0  0  0
  186.4120  177.5590  146.1880 C   0  0  0  0  0  2  0  0  0  0  0  0
  183.2520  177.7690  138.2330 C   0  0  0  0  0  0  0  0  0  0  0  0
  186.4990  178.5250  143.1780 C   0  0  1  0  0  3  0  0  0  0  0  0
  188.6150  178.9130  141.0000 C   0  0  0  0  0  2  0  0  0  0  0  0
  189.5310  175.6650  142.0320 O   0  0  0  0  0  0  0  0  0  0  0  0
  189.7320  177.8640  141.0470 C   0  0  2  0  0  3  0  0  0  0  0  0
  191.3890  176.8060  137.8550 C   0  0  0  0  0  2  0  0  0  0  0  0
  187.5720  176.0670  138.1060 C   0  0  0  0  0  1  0  0  0  0  0  0
  187.7920  177.6710  145.5310 C   0  0  0  0  0  2  0  0  0  0  0  0
  186.7290  177.1420  143.3630 O   0  0  0  0  0  0  0  0  0  0  0  0
  187.8130  177.5640  138.2810 C   0  0  2  0  0  3  0  0  0  0  0  0
  1  5  1  6  0  0  0
  1 22  1  0  0  0  0
  2 18  1  6  0  0  0
  2 14  1  0  0  0  0
  3 19  1  0  0  0  0
  4 23  1  6  0  0  0
  4  1  1  0  0  0  0
  6 21  1  0  0  0  0
  7 16  1  6  0  0  0
  7 10  1  0  0  0  0
  8  6  1  6  0  0  0
  8 13  1  0  0  0  0
  8 12  1  0  0  0  0
  9 12  1  0  0  0  0
 10 15  1  6  0  0  0
 10 25  1  0  0  0  0
 11  3  1  0  0  0  0
 12  5  2  0  0  0  0
 13  4  1  0  0  0  0
 14 20  1  0  0  0  0
 16 26  1  0  0  0  0
 17 21  2  0  0  0  0
 19 28  1  0  0  0  0
 21  9  1  0  0  0  0
 22 29  1  0  0  0  0
 22  2  1  0  0  0  0
 23 25  1  0  0  0  0
 24 11  2  0  0  0  0
 25 11  1  0  0  0  0
 26 15  1  0  0  0  0
 27 30  1  0  0  0  0
 28 20  1  0  0  0  0
 29 19  1  0  0  0  0
 30  7  1  0  0  0  0
 30 13  1  0  0  0  0
M  END
>  <MODEL>
3

>  <REMARK>
 VINA RESULT:      -7.5      2.658      7.245
  Name = 
  0 active torsions:
  status: ('A' for Active; 'I' for Inactive)
                            x       y       z     vdW  Elec       q    Type
                         _______ _______ _______ _____ _____    ______ ____

>  <TORSDO>
F 0

$$$$
=
 OpenBabel10262421583D

 30 35  0  0  1  0  0  0  0  0999 V2000
  188.1300  177.0470  141.1010 C   0  0  1  0  0  3  0  0  0  0  0  0
  190.3910  176.5500  139.7620 C   0  0  2  0  0  3  0  0  0  0  0  0
  190.7870  177.3620  143.5910 N   0  0  0  0  0  2  0  0  0  0  0  0
  187.6560  177.5220  142.4910 C   0  0  1  0  0  3  0  0  0  0  0  0
  187.5090  177.8250  140.0270 N   0  0  0  0  0  0  0  0  0  0  0  0
  183.9280  178.9520  141.2520 S   0  0  0  0  0  0  0  0  0  0  0  0
  186.0650  177.6470  145.1150 C   0  0  1  0  0  3  0  0  0  0  0  0
  185.5650  178.2190  141.4010 C   0  0  1  0  0  3  0  0  0  0  0  0
  185.6530  178.9950  139.1160 N   0  0  0  0  0  2  0  0  0  0  0  0
  187.4980  178.0250  145.4850 C   0  0  1  0  0  3  0  0  0  0  0  0
  189.8030  177.9550  144.4410 C   0  0  0  0  0  0  0  0  0  0  0  0
  186.2940  178.2600  140.1400 C   0  0  0  0  0  0  0  0  0  0  0  0
  186.1940  177.9450  142.5570 C   0  0  2  0  0  3  0  0  0  0  0  0
  191.5290  177.4740  139.3130 C   0  0  0  0  0  2  0  0  0  0  0  0
  187.5690  177.8760  146.9860 C   0  0  0  0  0  2  0  0  0  0  0  0
  185.2150  177.9390  146.3390 C   0  0  0  0  0  2  0  0  0  0  0  0
  183.7080  180.3740  138.9250 C   0  0  0  0  0  2  0  0  0  0  0  0
  189.4770  176.2590  138.5830 C   0  0  0  0  0  1  0  0  0  0  0  0
  191.2740  178.0300  142.3860 C   0  0  1  0  0  3  0  0  0  0  0  0
  192.7090  177.5690  140.2980 C   0  0  0  0  0  2  0  0  0  0  0  0
  184.3860  179.4480  139.5830 C   0  0  0  0  0  0  0  0  0  0  0  0
  189.6690  177.0880  141.0270 C   0  0  1  0  0  3  0  0  0  0  0  0
  188.0260  176.4740  143.5360 C   0  0  0  0  0  2  0  0  0  0  0  0
  189.9370  179.1520  144.8160 O   0  0  0  0  0  0  0  0  0  0  0  0
  188.5690  177.1590  144.7960 C   0  0  2  0  0  3  0  0  0  0  0  0
  186.1760  178.1990  147.4890 C   0  0  0  0  0  2  0  0  0  0  0  0
  185.6690  179.9050  144.0240 C   0  0  0  0  0  1  0  0  0  0  0  0
  192.3910  177.1860  141.7480 C   0  0  0  0  0  2  0  0  0  0  0  0
  190.2030  178.3100  141.4950 O   0  0  0  0  0  0  0  0  0  0  0  0
  185.5610  178.3900  143.8660 C   0  0  2  0  0  3  0  0  0  0  0  0
  1  5  1  6  0  0  0
  1  4  1  0  0  0  0
  2 18  1  6  0  0  0
  2 22  1  0  0  0  0
  3 11  1  0  0  0  0
  4 13  1  0  0  0  0
  4 23  1  1  0  0  0
  5 12  2  0  0  0  0
  6  8  1  0  0  0  0
  7 10  1  0  0  0  0
  7 16  1  1  0  0  0
  8 12  1  6  0  0  0
  8 13  1  0  0  0  0
  9 21  1  0  0  0  0
  9 12  1  0  0  0  0
 10 15  1  1  0  0  0
 11 25  1  0  0  0  0
 11 24  2  0  0  0  0
 13 30  1  0  0  0  0
 14  2  1  0  0  0  0
 14 20  1  0  0  0  0
 15 26  1  0  0  0  0
 16 26  1  0  0  0  0
 17 21  2  0  0  0  0
 19  3  1  0  0  0  0
 20 28  1  0  0  0  0
 21  6  1  0  0  0  0
 22  1  1  0  0  0  0
 22 29  1  0  0  0  0
 23 25  1  0  0  0  0
 25 10  1  0  0  0  0
 28 19  1  0  0  0  0
 29 19  1  0  0  0  0
 30 27  1  0  0  0  0
 30  7  1  0  0  0  0
M  END
>  <MODEL>
4

>  <REMARK>
 VINA RESULT:      -7.3      3.173      5.907
  Name = 
  0 active torsions:
  status: ('A' for Active; 'I' for Inactive)
                            x       y       z     vdW  Elec       q    Type
                         _______ _______ _______ _____ _____    ______ ____

>  <TORSDO>
F 0

$$$$
=
 OpenBabel10262421583D

 30 35  0  0  1  0  0  0  0  0999 V2000
  182.3360  178.0850  140.1470 C   0  0  1  0  0  3  0  0  0  0  0  0
  181.9290  179.0780  142.5960 C   0  0  2  0  0  3  0  0  0  0  0  0
  185.5960  179.3600  141.1970 N   0  0  0  0  0  2  0  0  0  0  0  0
  183.4880  177.7930  139.1630 C   0  0  1  0  0  3  0  0  0  0  0  0
  181.4820  176.9100  140.3380 N   0  0  0  0  0  0  0  0  0  0  0  0
  181.5030  174.8290  136.9820 S   0  0  0  0  0  0  0  0  0  0  0  0
  185.0960  177.6750  136.5480 C   0  0  1  0  0  3  0  0  0  0  0  0
  182.0050  176.1360  138.1130 C   0  0  1  0  0  3  0  0  0  0  0  0
  180.4200  174.9560  139.5020 N   0  0  0  0  0  2  0  0  0  0  0  0
  186.1190  177.9560  137.6470 C   0  0  1  0  0  3  0  0  0  0  0  0
  186.1370  178.6490  140.0820 C   0  0  0  0  0  0  0  0  0  0  0  0
  181.2560  176.0890  139.3620 C   0  0  0  0  0  0  0  0  0  0  0  0
  183.1190  176.8790  138.0000 C   0  0  2  0  0  3  0  0  0  0  0  0
  182.3550  178.5740  143.9800 C   0  0  0  0  0  2  0  0  0  0  0  0
  187.3460  178.4550  136.9240 C   0  0  0  0  0  2  0  0  0  0  0  0
  185.8910  177.3690  135.2910 C   0  0  0  0  0  2  0  0  0  0  0  0
  180.0030  172.9430  138.2790 C   0  0  0  0  0  2  0  0  0  0  0  0
  180.4700  178.7320  142.3550 C   0  0  0  0  0  1  0  0  0  0  0  0
  185.0330  178.6700  142.3560 C   0  0  1  0  0  3  0  0  0  0  0  0
  183.6850  179.1540  144.4960 C   0  0  0  0  0  2  0  0  0  0  0  0
  180.4760  174.1790  138.3100 C   0  0  0  0  0  0  0  0  0  0  0  0
  182.9020  178.6100  141.4810 C   0  0  1  0  0  3  0  0  0  0  0  0
  184.1160  179.1090  138.7150 C   0  0  0  0  0  2  0  0  0  0  0  0
  186.9550  177.7080  140.2750 O   0  0  0  0  0  0  0  0  0  0  0  0
  185.6440  178.9810  138.6930 C   0  0  2  0  0  3  0  0  0  0  0  0
  187.3340  177.7540  135.5790 C   0  0  0  0  0  2  0  0  0  0  0  0
  184.8740  175.2500  137.2680 C   0  0  0  0  0  1  0  0  0  0  0  0
  184.6280  179.7050  143.4200 C   0  0  0  0  0  2  0  0  0  0  0  0
  183.9660  177.8170  141.9680 O   0  0  0  0  0  0  0  0  0  0  0  0
  184.1300  176.5360  136.9170 C   0  0  2  0  0  3  0  0  0  0  0  0
  1  5  1  1  0  0  0
  1 22  1  0  0  0  0
  2 18  1  6  0  0  0
  2 14  1  0  0  0  0
  3 19  1  0  0  0  0
  4 23  1  6  0  0  0
  4  1  1  0  0  0  0
  6 21  1  0  0  0  0
  7 16  1  6  0  0  0
  7 30  1  0  0  0  0
  7 10  1  0  0  0  0
  8  6  1  1  0  0  0
  8 12  1  0  0  0  0
 10 15  1  6  0  0  0
 10 25  1  0  0  0  0
 11 24  2  0  0  0  0
 11  3  1  0  0  0  0
 12  9  1  0  0  0  0
 12  5  2  0  0  0  0
 13  8  1  0  0  0  0
 13  4  1  0  0  0  0
 14 20  1  0  0  0  0
 16 26  1  0  0  0  0
 17 21  2  0  0  0  0
 19 28  1  0  0  0  0
 21  9  1  0  0  0  0
 22 29  1  0  0  0  0
 22  2  1  0  0  0  0
 25 23  1  0  0  0  0
 25 11  1  0  0  0  0
 26 15  1  0  0  0  0
 28 20  1  0  0  0  0
 29 19  1  0  0  0  0
 30 27  1  0  0  0  0
 30 13  1  0  0  0  0
M  END
>  <MODEL>
5

>  <REMARK>
 VINA RESULT:      -6.8      2.965      7.410
  Name = 
  0 active torsions:
  status: ('A' for Active; 'I' for Inactive)
                            x       y       z     vdW  Elec       q    Type
                         _______ _______ _______ _____ _____    ______ ____

>  <TORSDO>
F 0

$$$$
=
 OpenBabel10262421583D

 30 35  0  0  1  0  0  0  0  0999 V2000
  186.3340  177.9770  137.4010 C   0  0  1  0  0  3  0  0  0  0  0  0
  188.8730  177.8500  136.5710 C   0  0  2  0  0  3  0  0  0  0  0  0
  186.4390  175.1160  135.1280 N   0  0  0  0  0  2  0  0  0  0  0  0
  185.0170  177.1770  137.3120 C   0  0  1  0  0  3  0  0  0  0  0  0
  186.6650  178.3130  138.7870 N   0  0  0  0  0  0  0  0  0  0  0  0
  183.2830  178.7430  140.7780 S   0  0  0  0  0  0  0  0  0  0  0  0
  182.0340  176.5550  136.9260 C   0  0  1  0  0  3  0  0  0  0  0  0
  184.3240  178.3310  139.3700 C   0  0  1  0  0  3  0  0  0  0  0  0
  186.0140  178.9300  140.9880 N   0  0  0  0  0  0  0  0  0  0  0  0
  182.7830  175.3700  136.3180 C   0  0  1  0  0  3  0  0  0  0  0  0
  185.1470  174.7750  135.6350 C   0  0  0  0  0  0  0  0  0  0  0  0
  185.7330  178.5790  139.6460 C   0  0  0  0  0  0  0  0  0  0  0  0
  183.9430  177.6020  138.3060 C   0  0  2  0  0  3  0  0  0  0  0  0
  190.0000  176.8630  136.8980 C   0  0  0  0  0  2  0  0  0  0  0  0
  181.7660  174.6630  135.4540 C   0  0  0  0  0  2  0  0  0  0  0  0
  180.5690  176.1590  136.9680 C   0  0  0  0  0  2  0  0  0  0  0  0
  184.7910  179.0770  143.0370 C   0  0  0  0  0  1  0  0  0  0  0  0
  189.0640  179.1250  137.3740 C   0  0  0  0  0  1  0  0  0  0  0  0
  187.6420  175.0280  135.9530 C   0  0  1  0  0  3  0  0  0  0  0  0
  190.1320  175.6860  135.9140 C   0  0  0  0  0  2  0  0  0  0  0  0
  184.7940  179.0270  141.7150 C   0  0  0  0  0  0  0  0  0  0  0  0
  187.4710  177.1980  136.7090 C   0  0  1  0  0  3  0  0  0  0  0  0
  184.5270  177.1690  135.8670 C   0  0  0  0  0  2  0  0  0  0  0  0
  184.9840  173.6910  136.2590 O   0  0  0  0  0  0  0  0  0  0  0  0
  184.0190  175.7710  135.4930 C   0  0  2  0  0  3  0  0  0  0  0  0
  180.4300  174.8950  136.1330 C   0  0  0  0  0  2  0  0  0  0  0  0
  182.5470  175.7680  139.2850 C   0  0  0  0  0  1  0  0  0  0  0  0
  188.8750  175.3650  135.0960 C   0  0  0  0  0  2  0  0  0  0  0  0
  187.5230  175.8440  137.1100 O   0  0  0  0  0  0  0  0  0  0  0  0
  182.5720  176.9450  138.3130 C   0  0  2  0  0  3  0  0  0  0  0  0
  1  5  1  1  0  0  0
  2 22  1  0  0  0  0
  2 14  1  0  0  0  0
  2 18  1  1  0  0  0
  3 11  1  0  0  0  0
  3 19  1  0  0  0  0
  4 23  1  6  0  0  0
  4  1  1  0  0  0  0
  4 13  1  0  0  0  0
  5 12  2  0  0  0  0
  6 21  1  0  0  0  0
  7 16  1  1  0  0  0
  7 30  1  0  0  0  0
  8 12  1  1  0  0  0
  8  6  1  0  0  0  0
  9 21  2  0  0  0  0
 10 15  1  6  0  0  0
 10  7  1  0  0  0  0
 11 24  2  0  0  0  0
 12  9  1  0  0  0  0
 13 30  1  0  0  0  0
 13  8  1  0  0  0  0
 15 26  1  0  0  0  0
 19 29  1  0  0  0  0
 20 14  1  0  0  0  0
 21 17  1  0  0  0  0
 22 29  1  0  0  0  0
 22  1  1  0  0  0  0
 25 11  1  0  0  0  0
 25 23  1  0  0  0  0
 25 10  1  0  0  0  0
 26 16  1  0  0  0  0
 28 20  1  0  0  0  0
 28 19  1  0  0  0  0
 30 27  1  0  0  0  0
M  END
>  <MODEL>
6

>  <REMARK>
 VINA RESULT:      -6.7      2.702      5.240
  Name = 
  0 active torsions:
  status: ('A' for Active; 'I' for Inactive)
                            x       y       z     vdW  Elec       q    Type
                         _______ _______ _______ _____ _____    ______ ____

>  <TORSDO>
F 0

$$$$
=
 OpenBabel10262421583D

 30 35  0  0  1  0  0  0  0  0999 V2000
  191.1390  177.5550  140.1130 C   0  0  1  0  0  3  0  0  0  0  0  0
  192.9210  176.5810  138.3730 C   0  0  2  0  0  3  0  0  0  0  0  0
  189.1670  176.5760  137.1950 N   0  0  0  0  0  2  0  0  0  0  0  0
  189.6130  177.6990  140.2900 C   0  0  1  0  0  3  0  0  0  0  0  0
  191.7620  176.9510  141.2920 N   0  0  0  0  0  0  0  0  0  0  0  0
  189.6520  178.0020  144.4600 S   0  0  0  0  0  0  0  0  0  0  0  0
  186.8810  178.9580  140.9100 C   0  0  1  0  0  3  0  0  0  0  0  0
  190.0360  177.8680  142.7070 C   0  0  1  0  0  3  0  0  0  0  0  0
  191.8970  176.6470  143.6450 N   0  0  0  0  0  0  0  0  0  0  0  0
  186.6460  178.0320  139.7180 C   0  0  1  0  0  3  0  0  0  0  0  0
  188.0150  176.7430  138.0250 C   0  0  0  0  0  0  0  0  0  0  0  0
  191.3080  177.1940  142.4800 C   0  0  0  0  0  0  0  0  0  0  0  0
  189.1650  178.0610  141.7010 C   0  0  2  0  0  3  0  0  0  0  0  0
  193.2070  175.1480  137.9070 C   0  0  0  0  0  2  0  0  0  0  0  0
  185.3210  178.4670  139.1390 C   0  0  0  0  0  2  0  0  0  0  0  0
  185.5090  179.4000  141.3880 C   0  0  0  0  0  2  0  0  0  0  0  0
  191.2800  176.3740  145.9390 C   0  0  0  0  0  1  0  0  0  0  0  0
  193.9600  176.9990  139.4000 C   0  0  0  0  0  1  0  0  0  0  0  0
  190.1330  175.5020  137.4160 C   0  0  1  0  0  3  0  0  0  0  0  0
  192.4580  174.7250  136.6300 C   0  0  0  0  0  2  0  0  0  0  0  0
  191.1010  176.9810  144.7770 C   0  0  0  0  0  0  0  0  0  0  0  0
  191.4480  176.7620  138.8270 C   0  0  1  0  0  3  0  0  0  0  0  0
  189.0670  178.6450  139.2260 C   0  0  0  0  0  2  0  0  0  0  0  0
  187.2800  175.7510  138.2830 O   0  0  0  0  0  0  0  0  0  0  0  0
  187.7560  178.0920  138.6540 C   0  0  2  0  0  3  0  0  0  0  0  0
  184.5150  178.9790  140.3160 C   0  0  0  0  0  2  0  0  0  0  0  0
  187.0500  176.9890  142.5050 C   0  0  0  0  0  1  0  0  0  0  0  0
  191.1960  175.5330  136.3050 C   0  0  0  0  0  2  0  0  0  0  0  0
  190.6830  175.5780  138.7230 O   0  0  0  0  0  0  0  0  0  0  0  0
  187.6980  178.2870  142.0280 C   0  0  2  0  0  3  0  0  0  0  0  0
  1  4  1  0  0  0  0
  1  5  1  1  0  0  0
  2 22  1  0  0  0  0
  2 18  1  1  0  0  0
  3 19  1  0  0  0  0
  3 11  1  0  0  0  0
  4 23  1  6  0  0  0
  4 13  1  0  0  0  0
  5 12  2  0  0  0  0
  6 21  1  0  0  0  0
  7 16  1  1  0  0  0
  7 30  1  0  0  0  0
  8 12  1  1  0  0  0
  8  6  1  0  0  0  0
  9 21  2  0  0  0  0
 10 15  1  6  0  0  0
 10  7  1  0  0  0  0
 11 24  2  0  0  0  0
 11 25  1  0  0  0  0
 12  9  1  0  0  0  0
 13 30  1  0  0  0  0
 13  8  1  0  0  0  0
 14  2  1  0  0  0  0
 15 26  1  0  0  0  0
 19 29  1  0  0  0  0
 20 14  1  0  0  0  0
 21 17  1  0  0  0  0
 22  1  1  0  0  0  0
 25 23  1  0  0  0  0
 25 10  1  0  0  0  0
 26 16  1  0  0  0  0
 28 20  1  0  0  0  0
 28 19  1  0  0  0  0
 29 22  1  0  0  0  0
 30 27  1  0  0  0  0
M  END
>  <MODEL>
7

>  <REMARK>
 VINA RESULT:      -6.7      2.754      4.655
  Name = 
  0 active torsions:
  status: ('A' for Active; 'I' for Inactive)
                            x       y       z     vdW  Elec       q    Type
                         _______ _______ _______ _____ _____    ______ ____

>  <TORSDO>
F 0

$$$$
=
 OpenBabel10262421583D

 30 35  0  0  1  0  0  0  0  0999 V2000
  187.0670  178.6580  140.8960 C   0  0  1  0  0  3  0  0  0  0  0  0
  184.5180  179.3790  140.5330 C   0  0  2  0  0  3  0  0  0  0  0  0
  185.5530  178.4620  144.2170 N   0  0  0  0  0  2  0  0  0  0  0  0
  187.9950  178.0980  141.9940 C   0  0  1  0  0  3  0  0  0  0  0  0
  187.1590  177.8730  139.6630 N   0  0  0  0  0  0  0  0  0  0  0  0
  190.8240  176.4260  139.4090 S   0  0  0  0  0  0  0  0  0  0  0  0
  190.4550  177.7540  143.8010 C   0  0  1  0  0  3  0  0  0  0  0  0
  189.4400  177.2790  140.1800 C   0  0  1  0  0  3  0  0  0  0  0  0
  188.4150  176.5950  138.1020 N   0  0  0  0  0  2  0  0  0  0  0  0
  189.2460  177.4760  144.6940 C   0  0  1  0  0  3  0  0  0  0  0  0
  186.7330  177.7640  144.6190 C   0  0  0  0  0  0  0  0  0  0  0  0
  188.2820  177.3410  139.2980 C   0  0  0  0  0  0  0  0  0  0  0  0
  189.3290  177.5590  141.4900 C   0  0  2  0  0  3  0  0  0  0  0  0
  183.2190  178.5640  140.5540 C   0  0  0  0  0  2  0  0  0  0  0  0
  189.7700  177.5750  146.1070 C   0  0  0  0  0  2  0  0  0  0  0  0
  191.6800  177.3510  144.6030 C   0  0  0  0  0  2  0  0  0  0  0  0
  190.0110  175.0760  137.1720 C   0  0  0  0  0  2  0  0  0  0  0  0
  184.9310  179.6400  139.0940 C   0  0  0  0  0  1  0  0  0  0  0  0
  184.5850  177.8780  143.2900 C   0  0  1  0  0  3  0  0  0  0  0  0
  182.5040  178.5260  141.9180 C   0  0  0  0  0  2  0  0  0  0  0  0
  189.7200  176.0280  138.0440 C   0  0  0  0  0  0  0  0  0  0  0  0
  185.6200  178.7410  141.4200 C   0  0  1  0  0  3  0  0  0  0  0  0
  188.1470  179.1320  143.1050 C   0  0  0  0  0  2  0  0  0  0  0  0
  186.6500  176.5680  145.0130 O   0  0  0  0  0  0  0  0  0  0  0  0
  188.0730  178.4470  144.4740 C   0  0  2  0  0  3  0  0  0  0  0  0
  191.2160  177.1260  146.0330 C   0  0  0  0  0  2  0  0  0  0  0  0
  190.2050  175.5120  142.6340 C   0  0  0  0  0  1  0  0  0  0  0  0
  183.3870  178.8300  143.1350 C   0  0  0  0  0  2  0  0  0  0  0  0
  185.2030  177.5480  142.0540 O   0  0  0  0  0  0  0  0  0  0  0  0
  190.3740  177.0190  142.4530 C   0  0  2  0  0  3  0  0  0  0  0  0
  1  5  1  6  0  0  0
  1 22  1  0  0  0  0
  1  4  1  0  0  0  0
  2 18  1  6  0  0  0
  2 14  1  0  0  0  0
  2 22  1  0  0  0  0
  3 11  1  0  0  0  0
  4 23  1  1  0  0  0
  6  8  1  0  0  0  0
  7 16  1  1  0  0  0
  7 10  1  0  0  0  0
  8 12  1  1  0  0  0
  8 13  1  0  0  0  0
  9 12  1  0  0  0  0
 10 15  1  1  0  0  0
 11 24  2  0  0  0  0
 12  5  2  0  0  0  0
 13  4  1  0  0  0  0
 13 30  1  0  0  0  0
 14 20  1  0  0  0  0
 16 26  1  0  0  0  0
 17 21  2  0  0  0  0
 19  3  1  0  0  0  0
 20 28  1  0  0  0  0
 21  9  1  0  0  0  0
 21  6  1  0  0  0  0
 22 29  1  0  0  0  0
 23 25  1  0  0  0  0
 25 11  1  0  0  0  0
 25 10  1  0  0  0  0
 26 15  1  0  0  0  0
 28 19  1  0  0  0  0
 29 19  1  0  0  0  0
 30 27  1  0  0  0  0
 30  7  1  0  0  0  0
M  END
>  <MODEL>
8

>  <REMARK>
 VINA RESULT:      -6.6      2.596      5.394
  Name = 
  0 active torsions:
  status: ('A' for Active; 'I' for Inactive)
                            x       y       z     vdW  Elec       q    Type
                         _______ _______ _______ _____ _____    ______ ____

>  <TORSDO>
F 0

$$$$
=
 OpenBabel10262421583D

 30 35  0  0  1  0  0  0  0  0999 V2000
  187.9980  178.0810  139.6010 C   0  0  1  0  0  3  0  0  0  0  0  0
  190.2610  177.0770  138.5900 C   0  0  2  0  0  3  0  0  0  0  0  0
  187.0150  176.5580  136.4270 N   0  0  0  0  0  2  0  0  0  0  0  0
  186.4800  178.0950  139.3240 C   0  0  1  0  0  3  0  0  0  0  0  0
  188.2880  177.6920  140.9830 N   0  0  0  0  0  0  0  0  0  0  0  0
  185.2940  178.9180  143.2470 S   0  0  0  0  0  0  0  0  0  0  0  0
  183.6170  179.1490  138.9660 C   0  0  1  0  0  3  0  0  0  0  0  0
  186.1750  178.6050  141.7110 C   0  0  1  0  0  3  0  0  0  0  0  0
  187.7540  177.6990  143.2990 N   0  0  0  0  0  0  0  0  0  0  0  0
  183.7910  178.0630  137.9060 C   0  0  1  0  0  3  0  0  0  0  0  0
  185.6650  176.7130  136.8700 C   0  0  0  0  0  0  0  0  0  0  0  0
  187.4960  178.0360  141.9490 C   0  0  0  0  0  0  0  0  0  0  0  0
  185.6230  178.5850  140.4850 C   0  0  2  0  0  3  0  0  0  0  0  0
  190.7520  175.6330  138.4380 C   0  0  0  0  0  2  0  0  0  0  0  0
  182.6680  178.2900  136.9230 C   0  0  0  0  0  2  0  0  0  0  0  0
  182.1420  179.5090  138.9720 C   0  0  0  0  0  2  0  0  0  0  0  0
  186.5150  177.6540  145.3440 C   0  0  0  0  0  1  0  0  0  0  0  0
  190.9320  177.7200  139.7930 C   0  0  0  0  0  1  0  0  0  0  0  0
  187.9360  175.6190  137.0640 C   0  0  1  0  0  3  0  0  0  0  0  0
  190.4310  174.9820  137.0800 C   0  0  0  0  0  2  0  0  0  0  0  0
  186.6450  178.0910  144.1020 C   0  0  0  0  0  0  0  0  0  0  0  0
  188.7110  177.1690  138.5840 C   0  0  1  0  0  3  0  0  0  0  0  0
  186.2110  178.8440  138.0220 C   0  0  0  0  0  2  0  0  0  0  0  0
  184.9460  175.6940  137.0560 O   0  0  0  0  0  0  0  0  0  0  0  0
  185.1570  178.0980  137.1960 C   0  0  2  0  0  3  0  0  0  0  0  0
  181.5270  178.8630  137.7400 C   0  0  0  0  0  2  0  0  0  0  0  0
  183.4320  177.4200  140.8170 C   0  0  0  0  0  1  0  0  0  0  0  0
  189.2720  175.6160  136.3010 C   0  0  0  0  0  2  0  0  0  0  0  0
  188.0800  175.9110  138.4470 O   0  0  0  0  0  0  0  0  0  0  0  0
  184.1130  178.7050  140.3530 C   0  0  2  0  0  3  0  0  0  0  0  0
  1  5  1  1  0  0  0
  2 18  1  1  0  0  0
  3 11  1  0  0  0  0
  3 19  1  0  0  0  0
  4 23  1  6  0  0  0
  4  1  1  0  0  0  0
  4 13  1  0  0  0  0
  5 12  2  0  0  0  0
  6 21  1  0  0  0  0
  7 16  1  1  0  0  0
  7 30  1  0  0  0  0
  8 12  1  1  0  0  0
  8  6  1  0  0  0  0
  9 21  2  0  0  0  0
 10 15  1  6  0  0  0
 10  7  1  0  0  0  0
 11 24  2  0  0  0  0
 11 25  1  0  0  0  0
 12  9  1  0  0  0  0
 13  8  1  0  0  0  0
 14  2  1  0  0  0  0
 15 26  1  0  0  0  0
 19 29  1  0  0  0  0
 20 14  1  0  0  0  0
 21 17  1  0  0  0  0
 22  2  1  0  0  0  0
 22  1  1  0  0  0  0
 25 10  1  0  0  0  0
 25 23  1  0  0  0  0
 26 16  1  0  0  0  0
 28 19  1  0  0  0  0
 28 20  1  0  0  0  0
 29 22  1  0  0  0  0
 30 13  1  0  0  0  0
 30 27  1  0  0  0  0
M  END
>  <MODEL>
9

>  <REMARK>
 VINA RESULT:      -6.4      2.208      3.992
  Name = 
  0 active torsions:
  status: ('A' for Active; 'I' for Inactive)
                            x       y       z     vdW  Elec       q    Type
                         _______ _______ _______ _____ _____    ______ ____

>  <TORSDO>
F 0

$$$$
