=
 OpenBabel10262420533D

 28 31  0  0  1  0  0  0  0  0999 V2000
  185.2460  178.3900  142.9210 C   0  0  0  0  0  3  0  0  0  0  0  0
  189.5980  177.8270  147.1560 C   0  0  0  0  0  2  0  0  0  0  0  0
  184.8600  178.4050  145.3130 C   0  0  0  0  0  0  0  0  0  0  0  0
  187.0430  177.4940  144.4670 C   0  0  1  0  0  3  0  0  0  0  0  0
  183.1520  179.2240  143.8060 C   0  0  0  0  0  0  0  0  0  0  0  0
  185.7000  178.1320  144.2230 C   0  0  0  0  0  0  0  0  0  0  0  0
  186.7820  178.3900  146.8790 C   0  0  0  0  0  2  0  0  0  0  0  0
  183.5880  178.9460  145.1040 C   0  0  0  0  0  3  0  0  0  0  0  0
  189.9200  177.5730  144.7480 C   0  0  1  0  0  3  0  0  0  0  0  0
  187.9300  177.7990  143.4170 O   0  0  0  0  0  0  0  0  0  0  0  0
  185.3050  178.0510  146.6910 C   0  0  0  0  0  2  0  0  0  0  0  0
  189.0400  177.7500  145.9500 C   0  0  0  0  0  0  0  0  0  0  0  0
  181.9230  179.7550  143.6040 F   0  0  0  0  0  0  0  0  0  0  0  0
  183.9780  178.9420  142.7140 C   0  0  0  0  0  3  0  0  0  0  0  0
  187.6180  177.9050  145.7680 N   0  0  0  0  0  0  0  0  0  0  0  0
  189.0580  176.9850  143.6180 C   0  0  1  0  0  3  0  0  0  0  0  0
  189.8280  176.7750  142.3130 C   0  0  1  0  0  3  0  0  0  0  0  0
  190.0910  175.4170  142.1220 O   0  0  0  0  0  1  0  0  0  0  0  0
  189.0640  177.3110  141.1390 C   0  0  0  0  0  0  0  0  0  0  0  0
  189.6820  177.4420  139.8570 N   0  0  0  0  0  2  0  0  0  0  0  0
  187.8620  177.6590  141.2830 O   0  0  0  0  0  0  0  0  0  0  0  0
  191.4770  177.0060  138.1290 C   0  0  2  0  0  3  0  0  0  0  0  0
  192.1440  177.5750  140.5510 C   0  0  0  0  0  1  0  0  0  0  0  0
  191.0750  177.0920  139.5900 C   0  0  1  0  0  0  0  0  0  0  0  0
  190.3730  177.1770  137.2910 O   0  0  0  0  0  1  0  0  0  0  0  0
  191.2880  175.7380  138.9610 C   0  0  0  0  0  2  0  0  0  0  0  0
  191.6850  179.0020  144.0650 O   0  0  0  0  0  0  0  0  0  0  0  0
  190.5080  178.9050  144.3700 C   0  0  0  0  0  3  0  0  0  0  0  0
  1  6  1  0  0  0  0
  3 11  1  0  0  0  0
  4 10  1  6  0  0  0
  4 15  1  0  0  0  0
  5  8  2  0  0  0  0
  6  4  1  0  0  0  0
  6  3  2  0  0  0  0
  8  3  1  0  0  0  0
  9 28  1  6  0  0  0
  9 12  1  0  0  0  0
 10 16  1  0  0  0  0
 11  7  1  0  0  0  0
 12  2  2  0  0  0  0
 13  5  1  0  0  0  0
 14  1  2  0  0  0  0
 14  5  1  0  0  0  0
 15 12  1  0  0  0  0
 15  7  1  0  0  0  0
 16 17  1  6  0  0  0
 16  9  1  0  0  0  0
 17 18  1  6  0  0  0
 19 21  2  0  0  0  0
 19 17  1  0  0  0  0
 20 19  1  0  0  0  0
 22 25  1  6  0  0  0
 22 26  1  0  0  0  0
 22 24  1  0  0  0  0
 24 20  1  0  0  0  0
 24 23  1  1  0  0  0
 26 24  1  0  0  0  0
 27 28  2  0  0  0  0
M  END
>  <MODEL>
1

>  <REMARK>
 VINA RESULT:      -9.1      0.000      0.000
  Name = 
  4 active torsions:
  status: ('A' for Active; 'I' for Inactive)
    1  A    between atoms: C_1  and  C_2
    2  A    between atoms: C_1  and  C_27
    3  A    between atoms: N_3  and  C_11
    4  A    between atoms: C_16  and  C_21
                            x       y       z     vdW  Elec       q    Type
                         _______ _______ _______ _____ _____    ______ ____

>  <TORSDO>
F 4

$$$$
=
 OpenBabel10262420533D

 28 31  0  0  1  0  0  0  0  0999 V2000
  186.7710  177.7850  142.7680 C   0  0  0  0  0  3  0  0  0  0  0  0
  180.8570  179.1560  143.3510 C   0  0  0  0  0  2  0  0  0  0  0  0
  185.6640  178.2770  144.8660 C   0  0  0  0  0  0  0  0  0  0  0  0
  184.5240  178.9580  142.7340 C   0  0  1  0  0  3  0  0  0  0  0  0
  187.8250  177.1870  144.8640 C   0  0  0  0  0  0  0  0  0  0  0  0
  185.6680  178.3030  143.4630 C   0  0  0  0  0  0  0  0  0  0  0  0
  183.2050  178.5900  144.9280 C   0  0  0  0  0  2  0  0  0  0  0  0
  186.7420  177.7240  145.5650 C   0  0  0  0  0  3  0  0  0  0  0  0
  182.0510  178.8950  141.2360 C   0  0  1  0  0  3  0  0  0  0  0  0
  184.4010  178.4260  141.4360 O   0  0  0  0  0  0  0  0  0  0  0  0
  184.5340  178.9050  145.6100 C   0  0  0  0  0  2  0  0  0  0  0  0
  182.0230  178.9870  142.7330 C   0  0  0  0  0  0  0  0  0  0  0  0
  188.8660  176.6440  145.5390 F   0  0  0  0  0  0  0  0  0  0  0  0
  187.8430  177.2220  143.4660 C   0  0  0  0  0  3  0  0  0  0  0  0
  183.2490  178.8190  143.4740 N   0  0  0  0  0  0  0  0  0  0  0  0
  183.4740  179.2470  140.7710 C   0  0  1  0  0  3  0  0  0  0  0  0
  183.6540  179.1670  139.2540 C   0  0  1  0  0  3  0  0  0  0  0  0
  183.6130  180.4470  138.6960 O   0  0  0  0  0  1  0  0  0  0  0  0
  184.9490  178.5020  138.8940 C   0  0  0  0  0  0  0  0  0  0  0  0
  184.9720  177.3330  138.0720 N   0  0  0  0  0  2  0  0  0  0  0  0
  186.0340  178.9720  139.3290 O   0  0  0  0  0  0  0  0  0  0  0  0
  183.7220  176.5090  136.0330 C   0  0  2  0  0  3  0  0  0  0  0  0
  183.0880  175.6250  138.3680 C   0  0  0  0  0  1  0  0  0  0  0  0
  183.7720  176.6940  137.5390 C   0  0  1  0  0  0  0  0  0  0  0  0
  184.8240  177.1050  135.4150 O   0  0  0  0  0  1  0  0  0  0  0  0
  182.8800  177.5880  136.7140 C   0  0  0  0  0  2  0  0  0  0  0  0
  180.5540  177.2900  140.3380 O   0  0  0  0  0  0  0  0  0  0  0  0
  181.6530  177.5050  140.8230 C   0  0  0  0  0  3  0  0  0  0  0  0
  1  6  2  0  0  0  0
  1 14  1  0  0  0  0
  3  8  2  0  0  0  0
  3 11  1  0  0  0  0
  4 10  1  6  0  0  0
  4  6  1  0  0  0  0
  4 15  1  0  0  0  0
  5 13  1  0  0  0  0
  5  8  1  0  0  0  0
  6  3  1  0  0  0  0
  7 11  1  0  0  0  0
  9 28  1  1  0  0  0
  9 12  1  0  0  0  0
 12  2  2  0  0  0  0
 12 15  1  0  0  0  0
 14  5  2  0  0  0  0
 15  7  1  0  0  0  0
 16 17  1  6  0  0  0
 16  9  1  0  0  0  0
 16 10  1  0  0  0  0
 17 18  1  1  0  0  0
 19 17  1  0  0  0  0
 19 21  2  0  0  0  0
 20 19  1  0  0  0  0
 22 25  1  6  0  0  0
 22 26  1  0  0  0  0
 22 24  1  0  0  0  0
 24 20  1  0  0  0  0
 24 23  1  1  0  0  0
 26 24  1  0  0  0  0
 27 28  2  0  0  0  0
M  END
>  <MODEL>
2

>  <REMARK>
 VINA RESULT:      -8.9      4.108      6.601
  Name = 
  4 active torsions:
  status: ('A' for Active; 'I' for Inactive)
    1  A    between atoms: C_1  and  C_2
    2  A    between atoms: C_1  and  C_27
    3  A    between atoms: N_3  and  C_11
    4  A    between atoms: C_16  and  C_21
                            x       y       z     vdW  Elec       q    Type
                         _______ _______ _______ _____ _____    ______ ____

>  <TORSDO>
F 4

$$$$
=
 OpenBabel10262420533D

 28 31  0  0  1  0  0  0  0  0999 V2000
  187.3680  177.6030  143.4680 C   0  0  0  0  0  3  0  0  0  0  0  0
  181.5180  178.9820  142.4340 C   0  0  0  0  0  2  0  0  0  0  0  0
  185.7880  178.3000  145.1670 C   0  0  0  0  0  0  0  0  0  0  0  0
  185.2210  178.7500  142.7630 C   0  0  1  0  0  3  0  0  0  0  0  0
  187.8640  177.2310  145.8080 C   0  0  0  0  0  0  0  0  0  0  0  0
  186.1380  178.1820  143.8140 C   0  0  0  0  0  0  0  0  0  0  0  0
  183.3960  178.5990  144.5890 C   0  0  0  0  0  2  0  0  0  0  0  0
  186.6510  177.8290  146.1620 C   0  0  0  0  0  3  0  0  0  0  0  0
  183.1900  178.5150  140.7160 C   0  0  1  0  0  3  0  0  0  0  0  0
  185.4100  178.0870  141.5350 O   0  0  0  0  0  0  0  0  0  0  0  0
  184.5220  178.9920  145.5430 C   0  0  0  0  0  2  0  0  0  0  0  0
  182.7970  178.7600  142.1430 C   0  0  0  0  0  0  0  0  0  0  0  0
  188.6960  176.7690  146.7710 F   0  0  0  0  0  0  0  0  0  0  0  0
  188.2250  177.1230  144.4620 C   0  0  0  0  0  3  0  0  0  0  0  0
  183.8000  178.6780  143.1760 N   0  0  0  0  0  0  0  0  0  0  0  0
  184.6900  178.8280  140.5820 C   0  0  1  0  0  3  0  0  0  0  0  0
  185.2360  178.5950  139.1730 C   0  0  1  0  0  3  0  0  0  0  0  0
  185.0030  179.7160  138.3740 O   0  0  0  0  0  1  0  0  0  0  0  0
  186.7050  178.2930  139.2020 C   0  0  0  0  0  0  0  0  0  0  0  0
  187.3150  177.5100  138.1740 N   0  0  0  0  0  2  0  0  0  0  0  0
  187.4130  178.7280  140.1480 O   0  0  0  0  0  0  0  0  0  0  0  0
  187.4150  176.4970  135.8580 C   0  0  2  0  0  3  0  0  0  0  0  0
  185.3350  176.1220  137.3310 C   0  0  0  0  0  1  0  0  0  0  0  0
  186.5820  176.9370  137.0480 C   0  0  1  0  0  0  0  0  0  0  0  0
  188.7590  176.8350  136.0300 O   0  0  0  0  0  1  0  0  0  0  0  0
  186.5770  177.7730  135.7930 C   0  0  0  0  0  2  0  0  0  0  0  0
  182.0420  176.8240  139.5150 O   0  0  0  0  0  0  0  0  0  0  0  0
  182.8810  177.0870  140.3600 C   0  0  0  0  0  3  0  0  0  0  0  0
  1  6  2  0  0  0  0
  1 14  1  0  0  0  0
  3 11  1  0  0  0  0
  3  8  2  0  0  0  0
  4 10  1  6  0  0  0
  4 15  1  0  0  0  0
  4  6  1  0  0  0  0
  5  8  1  0  0  0  0
  5 13  1  0  0  0  0
  6  3  1  0  0  0  0
  7 11  1  0  0  0  0
  9 28  1  1  0  0  0
  9 12  1  0  0  0  0
 12  2  2  0  0  0  0
 12 15  1  0  0  0  0
 14  5  2  0  0  0  0
 15  7  1  0  0  0  0
 16 17  1  6  0  0  0
 16  9  1  0  0  0  0
 16 10  1  0  0  0  0
 17 18  1  6  0  0  0
 17 19  1  0  0  0  0
 19 21  2  0  0  0  0
 20 19  1  0  0  0  0
 22 25  1  1  0  0  0
 22 24  1  0  0  0  0
 24 23  1  1  0  0  0
 24 20  1  0  0  0  0
 26 22  1  0  0  0  0
 26 24  1  0  0  0  0
 27 28  2  0  0  0  0
M  END
>  <MODEL>
3

>  <REMARK>
 VINA RESULT:      -8.9      3.433      5.647
  Name = 
  4 active torsions:
  status: ('A' for Active; 'I' for Inactive)
    1  A    between atoms: C_1  and  C_2
    2  A    between atoms: C_1  and  C_27
    3  A    between atoms: N_3  and  C_11
    4  A    between atoms: C_16  and  C_21
                            x       y       z     vdW  Elec       q    Type
                         _______ _______ _______ _____ _____    ______ ____

>  <TORSDO>
F 4

$$$$
=
 OpenBabel10262420533D

 28 31  0  0  1  0  0  0  0  0999 V2000
  186.2470  178.7760  142.1560 C   0  0  0  0  0  3  0  0  0  0  0  0
  191.1290  176.4380  144.9650 C   0  0  0  0  0  2  0  0  0  0  0  0
  186.2310  177.7890  144.3680 C   0  0  0  0  0  0  0  0  0  0  0  0
  188.1770  177.2930  142.8610 C   0  0  1  0  0  3  0  0  0  0  0  0
  184.3870  179.1850  143.6510 C   0  0  0  0  0  0  0  0  0  0  0  0
  186.8710  177.9900  143.1360 C   0  0  0  0  0  0  0  0  0  0  0  0
  188.3600  177.0970  145.4330 C   0  0  0  0  0  2  0  0  0  0  0  0
  184.9900  178.3830  144.6240 C   0  0  0  0  0  3  0  0  0  0  0  0
  191.0610  177.2150  142.6500 C   0  0  1  0  0  3  0  0  0  0  0  0
  188.9180  178.0010  141.8940 O   0  0  0  0  0  0  0  0  0  0  0  0
  186.8490  176.8850  145.3800 C   0  0  0  0  0  2  0  0  0  0  0  0
  190.3910  176.8810  143.9500 C   0  0  0  0  0  0  0  0  0  0  0  0
  183.1890  179.7650  143.9000 F   0  0  0  0  0  0  0  0  0  0  0  0
  185.0120  179.3770  142.4150 C   0  0  0  0  0  3  0  0  0  0  0  0
  188.9750  177.1140  144.0960 N   0  0  0  0  0  0  0  0  0  0  0  0
  189.9920  177.1650  141.5450 C   0  0  1  0  0  3  0  0  0  0  0  0
  190.5350  177.5130  140.1580 C   0  0  1  0  0  3  0  0  0  0  0  0
  191.9160  177.7130  140.2180 O   0  0  0  0  0  1  0  0  0  0  0  0
  190.2250  176.4330  139.1660 C   0  0  0  0  0  0  0  0  0  0  0  0
  189.1760  176.5930  138.2080 N   0  0  0  0  0  2  0  0  0  0  0  0
  190.8900  175.3630  139.1790 O   0  0  0  0  0  0  0  0  0  0  0  0
  188.1850  178.4050  136.7490 C   0  0  2  0  0  3  0  0  0  0  0  0
  187.1220  177.8780  139.0350 C   0  0  0  0  0  1  0  0  0  0  0  0
  188.3300  177.7800  138.1240 C   0  0  1  0  0  0  0  0  0  0  0  0
  189.0040  177.7670  135.8150 O   0  0  0  0  0  1  0  0  0  0  0  0
  189.0560  179.0660  137.8170 C   0  0  0  0  0  2  0  0  0  0  0  0
  191.3070  179.3770  143.5940 O   0  0  0  0  0  0  0  0  0  0  0  0
  191.6920  178.5750  142.7590 C   0  0  0  0  0  3  0  0  0  0  0  0
  1 14  2  0  0  0  0
  1  6  1  0  0  0  0
  3  8  1  0  0  0  0
  3 11  1  0  0  0  0
  4 10  1  6  0  0  0
  4  6  1  0  0  0  0
  4 15  1  0  0  0  0
  5 13  1  0  0  0  0
  5  8  2  0  0  0  0
  6  3  2  0  0  0  0
  9 28  1  1  0  0  0
  9 12  1  0  0  0  0
 11  7  1  0  0  0  0
 12 15  1  0  0  0  0
 12  2  2  0  0  0  0
 14  5  1  0  0  0  0
 15  7  1  0  0  0  0
 16 17  1  6  0  0  0
 16 10  1  0  0  0  0
 16  9  1  0  0  0  0
 17 18  1  1  0  0  0
 19 21  2  0  0  0  0
 19 17  1  0  0  0  0
 20 19  1  0  0  0  0
 22 25  1  6  0  0  0
 22 26  1  0  0  0  0
 22 24  1  0  0  0  0
 24 20  1  0  0  0  0
 24 23  1  1  0  0  0
 26 24  1  0  0  0  0
 28 27  2  0  0  0  0
M  END
>  <MODEL>
4

>  <REMARK>
 VINA RESULT:      -8.8      1.915      2.610
  Name = 
  4 active torsions:
  status: ('A' for Active; 'I' for Inactive)
    1  A    between atoms: C_1  and  C_2
    2  A    between atoms: C_1  and  C_27
    3  A    between atoms: N_3  and  C_11
    4  A    between atoms: C_16  and  C_21
                            x       y       z     vdW  Elec       q    Type
                         _______ _______ _______ _____ _____    ______ ____

>  <TORSDO>
F 4

$$$$
=
 OpenBabel10262420533D

 28 31  0  0  1  0  0  0  0  0999 V2000
  186.0240  177.7800  142.6100 C   0  0  0  0  0  3  0  0  0  0  0  0
  180.0360  178.8020  142.0620 C   0  0  0  0  0  2  0  0  0  0  0  0
  184.6060  178.6770  144.3580 C   0  0  0  0  0  0  0  0  0  0  0  0
  183.7600  178.7390  141.9950 C   0  0  1  0  0  3  0  0  0  0  0  0
  186.7880  177.7840  144.9080 C   0  0  0  0  0  0  0  0  0  0  0  0
  184.8120  178.3660  143.0060 C   0  0  0  0  0  0  0  0  0  0  0  0
  182.1540  178.8100  144.0210 C   0  0  0  0  0  2  0  0  0  0  0  0
  185.5940  178.3900  145.3060 C   0  0  0  0  0  3  0  0  0  0  0  0
  181.5330  178.1320  140.2520 C   0  0  1  0  0  3  0  0  0  0  0  0
  183.8460  177.9030  140.8640 O   0  0  0  0  0  0  0  0  0  0  0  0
  183.3560  179.3780  144.7710 C   0  0  0  0  0  2  0  0  0  0  0  0
  181.2860  178.5790  141.6630 C   0  0  0  0  0  0  0  0  0  0  0  0
  187.7420  177.4990  145.8260 F   0  0  0  0  0  0  0  0  0  0  0  0
  187.0060  177.4840  143.5590 C   0  0  0  0  0  3  0  0  0  0  0  0
  182.3980  178.6860  142.5750 N   0  0  0  0  0  0  0  0  0  0  0  0
  182.9920  178.4680  139.9020 C   0  0  1  0  0  3  0  0  0  0  0  0
  183.3930  178.0410  138.4890 C   0  0  1  0  0  3  0  0  0  0  0  0
  182.5950  178.6900  137.5450 O   0  0  0  0  0  1  0  0  0  0  0  0
  184.8370  178.3390  138.2190 C   0  0  0  0  0  0  0  0  0  0  0  0
  185.5940  177.5450  137.3030 N   0  0  0  0  0  2  0  0  0  0  0  0
  185.3980  179.2980  138.8130 O   0  0  0  0  0  0  0  0  0  0  0  0
  185.7450  176.0260  135.2870 C   0  0  2  0  0  3  0  0  0  0  0  0
  184.4620  175.2500  137.3820 C   0  0  0  0  0  1  0  0  0  0  0  0
  185.0480  176.3980  136.5830 C   0  0  1  0  0  0  0  0  0  0  0  0
  186.7400  176.9500  134.9650 O   0  0  0  0  0  1  0  0  0  0  0  0
  184.3840  176.7210  135.2680 C   0  0  0  0  0  2  0  0  0  0  0  0
  180.4140  176.2350  139.3730 O   0  0  0  0  0  0  0  0  0  0  0  0
  181.2560  176.6580  140.1480 C   0  0  0  0  0  3  0  0  0  0  0  0
  1  6  2  0  0  0  0
  1 14  1  0  0  0  0
  3 11  1  0  0  0  0
  3  8  2  0  0  0  0
  4 10  1  6  0  0  0
  4 15  1  0  0  0  0
  4  6  1  0  0  0  0
  5  8  1  0  0  0  0
  5 13  1  0  0  0  0
  6  3  1  0  0  0  0
  7 11  1  0  0  0  0
  9 28  1  1  0  0  0
  9 12  1  0  0  0  0
 12  2  2  0  0  0  0
 12 15  1  0  0  0  0
 14  5  2  0  0  0  0
 15  7  1  0  0  0  0
 16 17  1  6  0  0  0
 16  9  1  0  0  0  0
 16 10  1  0  0  0  0
 17 18  1  6  0  0  0
 19 17  1  0  0  0  0
 19 21  2  0  0  0  0
 20 19  1  0  0  0  0
 22 25  1  6  0  0  0
 22 24  1  0  0  0  0
 24 20  1  0  0  0  0
 24 23  1  1  0  0  0
 26 22  1  0  0  0  0
 26 24  1  0  0  0  0
 27 28  2  0  0  0  0
M  END
>  <MODEL>
5

>  <REMARK>
 VINA RESULT:      -8.5      4.407      6.710
  Name = 
  4 active torsions:
  status: ('A' for Active; 'I' for Inactive)
    1  A    between atoms: C_1  and  C_2
    2  A    between atoms: C_1  and  C_27
    3  A    between atoms: N_3  and  C_11
    4  A    between atoms: C_16  and  C_21
                            x       y       z     vdW  Elec       q    Type
                         _______ _______ _______ _____ _____    ______ ____

>  <TORSDO>
F 4

$$$$
=
 OpenBabel10262420533D

 28 31  0  0  1  0  0  0  0  0999 V2000
  187.0960  177.6860  142.9850 C   0  0  0  0  0  3  0  0  0  0  0  0
  181.9290  179.1030  140.0720 C   0  0  0  0  0  2  0  0  0  0  0  0
  185.1200  178.6080  144.0400 C   0  0  0  0  0  0  0  0  0  0  0  0
  185.3360  178.8070  141.5460 C   0  0  1  0  0  3  0  0  0  0  0  0
  186.8350  177.5600  145.3880 C   0  0  0  0  0  0  0  0  0  0  0  0
  185.8560  178.3330  142.8780 C   0  0  0  0  0  0  0  0  0  0  0  0
  183.0380  178.9070  142.7270 C   0  0  0  0  0  2  0  0  0  0  0  0
  185.6100  178.2260  145.2930 C   0  0  0  0  0  3  0  0  0  0  0  0
  184.0130  178.4040  139.0060 C   0  0  1  0  0  3  0  0  0  0  0  0
  185.8500  178.0080  140.5050 O   0  0  0  0  0  0  0  0  0  0  0  0
  183.8430  179.3710  143.9390 C   0  0  0  0  0  2  0  0  0  0  0  0
  183.2200  178.8150  140.2110 C   0  0  0  0  0  0  0  0  0  0  0  0
  187.3070  177.1830  146.6000 F   0  0  0  0  0  0  0  0  0  0  0  0
  187.5810  177.2940  144.2360 C   0  0  0  0  0  3  0  0  0  0  0  0
  183.8560  178.8190  141.5060 N   0  0  0  0  0  0  0  0  0  0  0  0
  185.4980  178.6600  139.3110 C   0  0  1  0  0  3  0  0  0  0  0  0
  186.4320  178.2580  138.1670 C   0  0  1  0  0  3  0  0  0  0  0  0
  186.5030  179.2830  137.2220 O   0  0  0  0  0  1  0  0  0  0  0  0
  187.8070  177.9430  138.6730 C   0  0  0  0  0  0  0  0  0  0  0  0
  188.5800  176.8880  138.0960 N   0  0  0  0  0  2  0  0  0  0  0  0
  188.2900  178.6100  139.6270 O   0  0  0  0  0  0  0  0  0  0  0  0
  189.1730  175.4220  136.1220 C   0  0  2  0  0  3  0  0  0  0  0  0
  186.8530  175.2100  137.2220 C   0  0  0  0  0  1  0  0  0  0  0  0
  188.1050  176.0390  137.0070 C   0  0  1  0  0  0  0  0  0  0  0  0
  190.4440  175.8880  136.4650 O   0  0  0  0  0  1  0  0  0  0  0  0
  188.3240  176.5900  135.6200 C   0  0  0  0  0  2  0  0  0  0  0  0
  183.2170  176.6210  137.6610 O   0  0  0  0  0  0  0  0  0  0  0  0
  183.7410  176.9550  138.7100 C   0  0  0  0  0  3  0  0  0  0  0  0
  1 14  1  0  0  0  0
  2 12  2  0  0  0  0
  3  8  2  0  0  0  0
  4 10  1  6  0  0  0
  4  6  1  0  0  0  0
  5 13  1  0  0  0  0
  6  1  2  0  0  0  0
  6  3  1  0  0  0  0
  7 11  1  0  0  0  0
  8  5  1  0  0  0  0
  9 28  1  1  0  0  0
  9 16  1  0  0  0  0
  9 12  1  0  0  0  0
 11  3  1  0  0  0  0
 12 15  1  0  0  0  0
 14  5  2  0  0  0  0
 15  4  1  0  0  0  0
 15  7  1  0  0  0  0
 16 17  1  6  0  0  0
 16 10  1  0  0  0  0
 17 18  1  6  0  0  0
 17 19  1  0  0  0  0
 19 21  2  0  0  0  0
 20 19  1  0  0  0  0
 22 25  1  1  0  0  0
 22 24  1  0  0  0  0
 24 23  1  1  0  0  0
 24 20  1  0  0  0  0
 26 22  1  0  0  0  0
 26 24  1  0  0  0  0
 27 28  2  0  0  0  0
M  END
>  <MODEL>
6

>  <REMARK>
 VINA RESULT:      -8.4      3.337      5.582
  Name = 
  4 active torsions:
  status: ('A' for Active; 'I' for Inactive)
    1  A    between atoms: C_1  and  C_2
    2  A    between atoms: C_1  and  C_27
    3  A    between atoms: N_3  and  C_11
    4  A    between atoms: C_16  and  C_21
                            x       y       z     vdW  Elec       q    Type
                         _______ _______ _______ _____ _____    ______ ____

>  <TORSDO>
F 4

$$$$
=
 OpenBabel10262420533D

 28 31  0  0  1  0  0  0  0  0999 V2000
  187.6160  177.5050  142.7190 C   0  0  0  0  0  3  0  0  0  0  0  0
  183.0390  179.1090  139.0220 C   0  0  0  0  0  2  0  0  0  0  0  0
  185.5650  178.5750  143.4380 C   0  0  0  0  0  0  0  0  0  0  0  0
  186.1630  178.6720  141.0010 C   0  0  1  0  0  3  0  0  0  0  0  0
  186.9920  177.4790  145.0580 C   0  0  0  0  0  0  0  0  0  0  0  0
  186.4480  178.2170  142.4090 C   0  0  0  0  0  0  0  0  0  0  0  0
  183.7250  178.9450  141.8190 C   0  0  0  0  0  2  0  0  0  0  0  0
  185.8390  178.2100  144.7610 C   0  0  0  0  0  3  0  0  0  0  0  0
  185.2110  178.2550  138.3020 C   0  0  1  0  0  3  0  0  0  0  0  0
  186.7760  177.8090  140.0720 O   0  0  0  0  0  0  0  0  0  0  0  0
  184.3670  179.4060  143.1250 C   0  0  0  0  0  2  0  0  0  0  0  0
  184.2750  178.7530  139.3630 C   0  0  0  0  0  0  0  0  0  0  0  0
  187.2540  177.1200  146.3370 F   0  0  0  0  0  0  0  0  0  0  0  0
  187.8830  177.1310  144.0390 C   0  0  0  0  0  3  0  0  0  0  0  0
  184.7090  178.7680  140.7380 N   0  0  0  0  0  0  0  0  0  0  0  0
  186.6470  178.4360  138.8220 C   0  0  1  0  0  3  0  0  0  0  0  0
  187.7140  177.9420  137.8430 C   0  0  1  0  0  3  0  0  0  0  0  0
  187.2280  177.9890  136.5350 O   0  0  0  0  0  1  0  0  0  0  0  0
  188.9660  178.7610  137.9450 C   0  0  0  0  0  0  0  0  0  0  0  0
  190.1680  178.2030  138.4820 N   0  0  0  0  0  2  0  0  0  0  0  0
  188.9610  179.9600  137.5610 O   0  0  0  0  0  0  0  0  0  0  0  0
  191.3010  175.9500  138.2950 C   0  0  2  0  0  3  0  0  0  0  0  0
  190.0470  176.5760  140.4560 C   0  0  0  0  0  1  0  0  0  0  0  0
  190.2740  176.8340  138.9790 C   0  0  1  0  0  0  0  0  0  0  0  0
  191.8900  176.6060  137.2120 O   0  0  0  0  0  1  0  0  0  0  0  0
  189.8080  175.7660  138.0220 C   0  0  0  0  0  2  0  0  0  0  0  0
  184.3230  176.4990  136.9790 O   0  0  0  0  0  0  0  0  0  0  0  0
  184.8980  176.8150  138.0080 C   0  0  0  0  0  3  0  0  0  0  0  0
  1 14  1  0  0  0  0
  2 12  2  0  0  0  0
  3  8  2  0  0  0  0
  4 10  1  6  0  0  0
  4  6  1  0  0  0  0
  5 13  1  0  0  0  0
  6  1  2  0  0  0  0
  6  3  1  0  0  0  0
  7 11  1  0  0  0  0
  8  5  1  0  0  0  0
  9 28  1  1  0  0  0
  9 16  1  0  0  0  0
  9 12  1  0  0  0  0
 11  3  1  0  0  0  0
 12 15  1  0  0  0  0
 14  5  2  0  0  0  0
 15  4  1  0  0  0  0
 15  7  1  0  0  0  0
 16 17  1  6  0  0  0
 16 10  1  0  0  0  0
 17 18  1  6  0  0  0
 17 19  1  0  0  0  0
 19 20  1  0  0  0  0
 20 24  1  0  0  0  0
 21 19  2  0  0  0  0
 22 25  1  6  0  0  0
 22 24  1  0  0  0  0
 24 23  1  1  0  0  0
 26 22  1  0  0  0  0
 26 24  1  0  0  0  0
 27 28  2  0  0  0  0
M  END
>  <MODEL>
7

>  <REMARK>
 VINA RESULT:      -8.1      3.047      5.329
  Name = 
  4 active torsions:
  status: ('A' for Active; 'I' for Inactive)
    1  A    between atoms: C_1  and  C_2
    2  A    between atoms: C_1  and  C_27
    3  A    between atoms: N_3  and  C_11
    4  A    between atoms: C_16  and  C_21
                            x       y       z     vdW  Elec       q    Type
                         _______ _______ _______ _____ _____    ______ ____

>  <TORSDO>
F 4

$$$$
=
 OpenBabel10262420533D

 28 31  0  0  1  0  0  0  0  0999 V2000
  190.5840  176.4720  142.3120 C   0  0  0  0  0  3  0  0  0  0  0  0
  187.7150  177.8460  137.1090 C   0  0  0  0  0  2  0  0  0  0  0  0
  188.5930  177.8420  142.1490 C   0  0  0  0  0  0  0  0  0  0  0  0
  189.9440  177.4590  140.0670 C   0  0  1  0  0  3  0  0  0  0  0  0
  189.2500  176.9100  144.2850 C   0  0  0  0  0  0  0  0  0  0  0  0
  189.6950  177.2280  141.5350 C   0  0  0  0  0  0  0  0  0  0  0  0
  187.4410  178.1020  139.9690 C   0  0  0  0  0  2  0  0  0  0  0  0
  188.3730  177.6860  143.5220 C   0  0  0  0  0  3  0  0  0  0  0  0
  189.8530  176.6770  137.2850 C   0  0  1  0  0  3  0  0  0  0  0  0
  190.6870  176.3940  139.5220 O   0  0  0  0  0  0  0  0  0  0  0  0
  187.6940  178.7170  141.3440 C   0  0  0  0  0  2  0  0  0  0  0  0
  188.7110  177.4380  137.8910 C   0  0  0  0  0  0  0  0  0  0  0  0
  189.0340  176.7530  145.6120 F   0  0  0  0  0  0  0  0  0  0  0  0
  190.3580  176.3070  143.6820 C   0  0  0  0  0  3  0  0  0  0  0  0
  188.6810  177.6470  139.3180 N   0  0  0  0  0  0  0  0  0  0  0  0
  191.0580  176.8060  138.2310 C   0  0  1  0  0  3  0  0  0  0  0  0
  192.2960  176.0500  137.7440 C   0  0  1  0  0  3  0  0  0  0  0  0
  192.5690  176.3780  136.4150 O   0  0  0  0  0  1  0  0  0  0  0  0
  193.4910  176.3600  138.5950 C   0  0  0  0  0  0  0  0  0  0  0  0
  194.6910  175.5910  138.4860 N   0  0  0  0  0  2  0  0  0  0  0  0
  193.4380  177.3050  139.4260 O   0  0  0  0  0  0  0  0  0  0  0  0
  196.2730  174.0250  137.2840 C   0  0  2  0  0  3  0  0  0  0  0  0
  193.8040  173.3610  137.5930 C   0  0  0  0  0  1  0  0  0  0  0  0
  194.8480  174.4600  137.5760 C   0  0  1  0  0  0  0  0  0  0  0  0
  197.1960  174.8900  137.8780 O   0  0  0  0  0  1  0  0  0  0  0  0
  195.4630  174.7910  136.2390 C   0  0  0  0  0  2  0  0  0  0  0  0
  189.4380  174.7390  135.9820 O   0  0  0  0  0  0  0  0  0  0  0  0
  189.4400  175.2430  137.0930 C   0  0  0  0  0  3  0  0  0  0  0  0
  1 14  1  0  0  0  0
  2 12  2  0  0  0  0
  3  8  2  0  0  0  0
  4 10  1  6  0  0  0
  4  6  1  0  0  0  0
  5 13  1  0  0  0  0
  6  3  1  0  0  0  0
  6  1  2  0  0  0  0
  7 11  1  0  0  0  0
  8  5  1  0  0  0  0
  9 28  1  1  0  0  0
  9 12  1  0  0  0  0
  9 16  1  0  0  0  0
 11  3  1  0  0  0  0
 12 15  1  0  0  0  0
 14  5  2  0  0  0  0
 15  7  1  0  0  0  0
 15  4  1  0  0  0  0
 16 17  1  6  0  0  0
 16 10  1  0  0  0  0
 17 18  1  6  0  0  0
 17 19  1  0  0  0  0
 19 21  2  0  0  0  0
 20 19  1  0  0  0  0
 22 24  1  0  0  0  0
 22 25  1  1  0  0  0
 24 23  1  1  0  0  0
 24 20  1  0  0  0  0
 26 22  1  0  0  0  0
 26 24  1  0  0  0  0
 27 28  2  0  0  0  0
M  END
>  <MODEL>
8

>  <REMARK>
 VINA RESULT:      -8.1      3.560      6.493
  Name = 
  4 active torsions:
  status: ('A' for Active; 'I' for Inactive)
    1  A    between atoms: C_1  and  C_2
    2  A    between atoms: C_1  and  C_27
    3  A    between atoms: N_3  and  C_11
    4  A    between atoms: C_16  and  C_21
                            x       y       z     vdW  Elec       q    Type
                         _______ _______ _______ _____ _____    ______ ____

>  <TORSDO>
F 4

$$$$
=
 OpenBabel10262420533D

 28 31  0  0  1  0  0  0  0  0999 V2000
  185.9490  178.2030  143.8970 C   0  0  0  0  0  3  0  0  0  0  0  0
  188.5290  178.2580  138.3720 C   0  0  0  0  0  2  0  0  0  0  0  0
  184.8410  178.8990  141.8580 C   0  0  0  0  0  0  0  0  0  0  0  0
  187.3500  178.7810  141.8660 C   0  0  1  0  0  3  0  0  0  0  0  0
  183.5350  178.3720  143.8270 C   0  0  0  0  0  0  0  0  0  0  0  0
  186.0220  178.5980  142.5530 C   0  0  0  0  0  0  0  0  0  0  0  0
  185.9840  178.6370  139.6740 C   0  0  0  0  0  2  0  0  0  0  0  0
  183.6010  178.7900  142.4950 C   0  0  0  0  0  3  0  0  0  0  0  0
  189.6860  177.7970  140.4730 C   0  0  1  0  0  3  0  0  0  0  0  0
  188.3240  177.9470  142.4490 O   0  0  0  0  0  0  0  0  0  0  0  0
  184.9190  179.4020  140.4570 C   0  0  0  0  0  2  0  0  0  0  0  0
  188.4740  178.2260  139.7010 C   0  0  0  0  0  0  0  0  0  0  0  0
  182.3340  178.2590  144.4420 F   0  0  0  0  0  0  0  0  0  0  0  0
  184.7090  178.0840  144.5300 C   0  0  0  0  0  3  0  0  0  0  0  0
  187.2540  178.5250  140.4100 N   0  0  0  0  0  0  0  0  0  0  0  0
  189.5530  178.3520  141.9010 C   0  0  1  0  0  3  0  0  0  0  0  0
  190.7180  177.9660  142.8140 C   0  0  1  0  0  3  0  0  0  0  0  0
  191.9020  177.8880  142.0780 O   0  0  0  0  0  1  0  0  0  0  0  0
  190.8830  178.9520  143.9320 C   0  0  0  0  0  0  0  0  0  0  0  0
  190.8990  178.5230  145.2960 N   0  0  0  0  0  2  0  0  0  0  0  0
  191.0010  180.1780  143.6700 O   0  0  0  0  0  0  0  0  0  0  0  0
  189.3390  176.6930  146.0790 C   0  0  2  0  0  3  0  0  0  0  0  0
  191.6250  176.0780  145.0630 C   0  0  0  0  0  1  0  0  0  0  0  0
  190.7440  177.1300  145.7080 C   0  0  1  0  0  0  0  0  0  0  0  0
  188.4520  177.7720  146.0580 O   0  0  0  0  0  1  0  0  0  0  0  0
  190.3930  176.9260  147.1610 C   0  0  0  0  0  2  0  0  0  0  0  0
  190.5100  175.7200  139.6790 O   0  0  0  0  0  0  0  0  0  0  0  0
  189.7710  176.2960  140.4600 C   0  0  0  0  0  3  0  0  0  0  0  0
  1 14  1  0  0  0  0
  2 12  2  0  0  0  0
  3  8  2  0  0  0  0
  3  6  1  0  0  0  0
  4 10  1  1  0  0  0
  4  6  1  0  0  0  0
  5 13  1  0  0  0  0
  5 14  2  0  0  0  0
  6  1  2  0  0  0  0
  7 15  1  0  0  0  0
  7 11  1  0  0  0  0
  8  5  1  0  0  0  0
  9 28  1  1  0  0  0
  9 16  1  0  0  0  0
 11  3  1  0  0  0  0
 12 15  1  0  0  0  0
 12  9  1  0  0  0  0
 15  4  1  0  0  0  0
 16 10  1  0  0  0  0
 16 17  1  1  0  0  0
 17 18  1  6  0  0  0
 17 19  1  0  0  0  0
 19 20  1  0  0  0  0
 20 24  1  0  0  0  0
 21 19  2  0  0  0  0
 22 25  1  1  0  0  0
 22 26  1  0  0  0  0
 24 23  1  6  0  0  0
 24 22  1  0  0  0  0
 24 26  1  0  0  0  0
 27 28  2  0  0  0  0
M  END
>  <MODEL>
9

>  <REMARK>
 VINA RESULT:      -8.1      1.894      5.065
  Name = 
  4 active torsions:
  status: ('A' for Active; 'I' for Inactive)
    1  A    between atoms: C_1  and  C_2
    2  A    between atoms: C_1  and  C_27
    3  A    between atoms: N_3  and  C_11
    4  A    between atoms: C_16  and  C_21
                            x       y       z     vdW  Elec       q    Type
                         _______ _______ _______ _____ _____    ______ ____

>  <TORSDO>
F 4

$$$$
