=
 OpenBabel10262419533D

 25 28  0  0  1  0  0  0  0  0999 V2000
  187.1640  177.8520  145.3930 C   0  0  0  0  0  0  0  0  0  0  0  0
  188.4490  177.4100  145.0120 C   0  0  0  0  0  0  0  0  0  0  0  0
  187.8020  177.7880  147.7490 C   0  0  0  0  0  3  0  0  0  0  0  0
  186.0620  178.1610  144.5720 C   0  0  0  0  0  0  0  0  0  0  0  0
  183.6800  178.8600  143.2850 C   0  0  0  0  0  3  0  0  0  0  0  0
  189.0790  177.3510  147.3800 C   0  0  0  0  0  3  0  0  0  0  0  0
  184.9450  178.5700  145.3000 C   0  0  0  0  0  0  0  0  0  0  0  0
  183.7470  178.9230  144.6840 C   0  0  0  0  0  3  0  0  0  0  0  0
  190.6960  176.7220  145.6510 C   0  0  0  0  0  0  0  0  0  0  0  0
  191.9440  176.3980  146.8470 Cl  0  0  0  0  0  0  0  0  0  0  0  0
  188.8010  177.2130  143.6730 C   0  0  0  0  0  3  0  0  0  0  0  0
  184.7970  178.4500  142.5350 C   0  0  0  0  0  3  0  0  0  0  0  0
  186.8690  178.0300  146.7460 C   0  0  0  0  0  0  0  0  0  0  0  0
  185.2820  178.5600  146.9490 S   0  0  0  0  0  0  0  0  0  0  0  0
  190.9940  176.5450  144.3360 N   0  0  0  0  0  0  0  0  0  0  0  0
  185.9950  178.0980  143.1760 C   0  0  0  0  0  3  0  0  0  0  0  0
  190.0830  176.7710  143.3520 C   0  0  0  0  0  0  0  0  0  0  0  0
  189.4130  177.1590  146.0250 C   0  0  0  0  0  0  0  0  0  0  0  0
  190.4680  176.5880  141.9270 C   0  0  0  0  0  2  0  0  0  0  0  0
  189.3270  176.8670  141.0730 N   0  0  0  0  0  2  0  0  0  0  0  0
  189.8240  177.5950  139.9160 C   0  0  1  0  0  3  0  0  0  0  0  0
  190.3150  176.6180  138.8610 C   0  0  0  0  0  1  0  0  0  0  0  0
  188.7470  178.4610  139.3540 C   0  0  0  0  0  0  0  0  0  0  0  0
  187.6430  178.5800  139.9490 O   0  0  0  0  0  0  0  0  0  0  0  0
  188.9660  179.1490  138.1270 N   0  0  0  0  0  1  0  0  0  0  0  0
  1 13  1  0  0  0  0
  2  1  2  0  0  0  0
  2 18  1  0  0  0  0
  4  7  1  0  0  0  0
  4  1  1  0  0  0  0
  5  8  1  0  0  0  0
  6  3  1  0  0  0  0
  7 14  1  0  0  0  0
  8  7  2  0  0  0  0
  9 18  1  0  0  0  0
  9 10  1  0  0  0  0
 11  2  1  0  0  0  0
 12 16  1  0  0  0  0
 12  5  2  0  0  0  0
 13 14  1  0  0  0  0
 13  3  2  0  0  0  0
 15  9  2  0  0  0  0
 16  4  2  0  0  0  0
 17 11  2  0  0  0  0
 17 15  1  0  0  0  0
 18  6  2  0  0  0  0
 19 17  1  0  0  0  0
 20 19  1  0  0  0  0
 21 22  1  6  0  0  0
 21 20  1  0  0  0  0
 23 21  1  0  0  0  0
 23 24  2  0  0  0  0
 25 23  1  0  0  0  0
M  END
>  <MODEL>
1

>  <REMARK>
 VINA RESULT:     -10.5      0.000      0.000
  Name = 
  4 active torsions:
  status: ('A' for Active; 'I' for Inactive)
    1  A    between atoms: C_2  and  C_21
    2  A    between atoms: C_6  and  N_15
    3  A    between atoms: C_6  and  C_23
    4  A    between atoms: N_15  and  C_21
                            x       y       z     vdW  Elec       q    Type
                         _______ _______ _______ _____ _____    ______ ____

>  <TORSDO>
F 4

$$$$
=
 OpenBabel10262419533D

 25 28  0  0  1  0  0  0  0  0999 V2000
  187.6530  177.7920  145.6790 C   0  0  0  0  0  0  0  0  0  0  0  0
  186.8630  178.1070  144.5540 C   0  0  0  0  0  0  0  0  0  0  0  0
  185.7790  178.2620  147.1720 C   0  0  0  0  0  3  0  0  0  0  0  0
  189.0000  177.3800  145.7200 C   0  0  0  0  0  0  0  0  0  0  0  0
  191.6250  176.5470  146.2000 C   0  0  0  0  0  3  0  0  0  0  0  0
  184.9880  178.5760  146.0620 C   0  0  0  0  0  3  0  0  0  0  0  0
  189.4560  177.1540  147.0180 C   0  0  0  0  0  0  0  0  0  0  0  0
  190.7580  176.7400  147.2840 C   0  0  0  0  0  3  0  0  0  0  0  0
  184.7200  178.8150  143.6380 C   0  0  0  0  0  0  0  0  0  0  0  0
  183.0400  179.3050  143.8090 Cl  0  0  0  0  0  0  0  0  0  0  0  0
  187.3650  178.0420  143.2500 C   0  0  0  0  0  3  0  0  0  0  0  0
  191.1820  176.7700  144.8830 C   0  0  0  0  0  3  0  0  0  0  0  0
  187.0980  177.8760  146.9570 C   0  0  0  0  0  0  0  0  0  0  0  0
  188.2300  177.4530  148.1320 S   0  0  0  0  0  0  0  0  0  0  0  0
  185.2500  178.7370  142.3880 N   0  0  0  0  0  0  0  0  0  0  0  0
  189.8650  177.1880  144.6370 C   0  0  0  0  0  3  0  0  0  0  0  0
  186.5420  178.3690  142.1730 C   0  0  0  0  0  0  0  0  0  0  0  0
  185.5130  178.5030  144.7560 C   0  0  0  0  0  0  0  0  0  0  0  0
  187.0660  178.2730  140.7850 C   0  0  0  0  0  2  0  0  0  0  0  0
  188.5180  178.3120  140.8070 N   0  0  0  0  0  2  0  0  0  0  0  0
  188.9850  177.5620  139.6530 C   0  0  1  0  0  3  0  0  0  0  0  0
  189.1630  178.4930  138.4660 C   0  0  0  0  0  1  0  0  0  0  0  0
  190.2740  176.8810  139.9720 C   0  0  0  0  0  0  0  0  0  0  0  0
  190.6870  175.9240  139.2630 O   0  0  0  0  0  0  0  0  0  0  0  0
  191.0380  177.3110  141.0930 N   0  0  0  0  0  1  0  0  0  0  0  0
  1  4  1  0  0  0  0
  1 13  2  0  0  0  0
  2 18  1  0  0  0  0
  2  1  1  0  0  0  0
  4  7  1  0  0  0  0
  5  8  1  0  0  0  0
  6  3  2  0  0  0  0
  7  8  2  0  0  0  0
  7 14  1  0  0  0  0
  9 10  1  0  0  0  0
  9 18  2  0  0  0  0
 11  2  2  0  0  0  0
 12  5  2  0  0  0  0
 13  3  1  0  0  0  0
 13 14  1  0  0  0  0
 15  9  1  0  0  0  0
 16 12  1  0  0  0  0
 16  4  2  0  0  0  0
 17 15  2  0  0  0  0
 17 11  1  0  0  0  0
 18  6  1  0  0  0  0
 19 20  1  0  0  0  0
 19 17  1  0  0  0  0
 21 22  1  6  0  0  0
 21 23  1  0  0  0  0
 21 20  1  0  0  0  0
 23 25  1  0  0  0  0
 24 23  2  0  0  0  0
M  END
>  <MODEL>
2

>  <REMARK>
 VINA RESULT:     -10.0      2.649      4.748
  Name = 
  4 active torsions:
  status: ('A' for Active; 'I' for Inactive)
    1  A    between atoms: C_2  and  C_21
    2  A    between atoms: C_6  and  N_15
    3  A    between atoms: C_6  and  C_23
    4  A    between atoms: N_15  and  C_21
                            x       y       z     vdW  Elec       q    Type
                         _______ _______ _______ _____ _____    ______ ____

>  <TORSDO>
F 4

$$$$
=
 OpenBabel10262419533D

 25 28  0  0  1  0  0  0  0  0999 V2000
  186.8180  177.9200  144.8750 C   0  0  0  0  0  0  0  0  0  0  0  0
  188.0220  177.5550  144.2360 C   0  0  0  0  0  0  0  0  0  0  0  0
  187.8490  177.6220  147.0680 C   0  0  0  0  0  3  0  0  0  0  0  0
  185.5890  178.2860  144.2910 C   0  0  0  0  0  0  0  0  0  0  0  0
  183.0170  179.0560  143.5100 C   0  0  0  0  0  3  0  0  0  0  0  0
  189.0480  177.2600  146.4430 C   0  0  0  0  0  3  0  0  0  0  0  0
  184.6100  178.5850  145.2380 C   0  0  0  0  0  0  0  0  0  0  0  0
  183.3220  178.9700  144.8750 C   0  0  0  0  0  3  0  0  0  0  0  0
  190.3500  176.8620  144.4060 C   0  0  0  0  0  0  0  0  0  0  0  0
  191.7870  176.4440  145.3310 Cl  0  0  0  0  0  0  0  0  0  0  0  0
  188.1410  177.5110  142.8430 C   0  0  0  0  0  3  0  0  0  0  0  0
  183.9930  178.7570  142.5410 C   0  0  0  0  0  3  0  0  0  0  0  0
  186.7580  177.9450  146.2690 C   0  0  0  0  0  0  0  0  0  0  0  0
  185.2240  178.4080  146.7950 S   0  0  0  0  0  0  0  0  0  0  0  0
  190.4210  176.8340  143.0480 N   0  0  0  0  0  0  0  0  0  0  0  0
  185.2850  178.3700  142.9280 C   0  0  0  0  0  3  0  0  0  0  0  0
  189.3540  177.1390  142.2630 C   0  0  0  0  0  0  0  0  0  0  0  0
  189.1470  177.2220  145.0380 C   0  0  0  0  0  0  0  0  0  0  0  0
  189.4910  177.1200  140.7820 C   0  0  0  0  0  2  0  0  0  0  0  0
  188.6100  178.1160  140.1970 N   0  0  0  0  0  2  0  0  0  0  0  0
  188.2440  177.6400  138.8730 C   0  0  1  0  0  3  0  0  0  0  0  0
  186.8000  178.0030  138.5710 C   0  0  0  0  0  1  0  0  0  0  0  0
  189.1500  178.2350  137.8460 C   0  0  0  0  0  0  0  0  0  0  0  0
  190.0780  177.5520  137.3360 O   0  0  0  0  0  0  0  0  0  0  0  0
  188.9690  179.5900  137.4500 N   0  0  0  0  0  1  0  0  0  0  0  0
  1 13  1  0  0  0  0
  2  1  2  0  0  0  0
  2 18  1  0  0  0  0
  4  1  1  0  0  0  0
  4  7  1  0  0  0  0
  5  8  1  0  0  0  0
  6  3  1  0  0  0  0
  7 14  1  0  0  0  0
  8  7  2  0  0  0  0
  9 18  1  0  0  0  0
  9 10  1  0  0  0  0
 11  2  1  0  0  0  0
 12 16  1  0  0  0  0
 12  5  2  0  0  0  0
 13 14  1  0  0  0  0
 13  3  2  0  0  0  0
 15  9  2  0  0  0  0
 16  4  2  0  0  0  0
 17 11  2  0  0  0  0
 17 15  1  0  0  0  0
 18  6  2  0  0  0  0
 19 17  1  0  0  0  0
 20 19  1  0  0  0  0
 21 22  1  6  0  0  0
 21 20  1  0  0  0  0
 23 21  1  0  0  0  0
 24 23  2  0  0  0  0
 25 23  1  0  0  0  0
M  END
>  <MODEL>
3

>  <REMARK>
 VINA RESULT:      -9.9      1.268      1.496
  Name = 
  4 active torsions:
  status: ('A' for Active; 'I' for Inactive)
    1  A    between atoms: C_2  and  C_21
    2  A    between atoms: C_6  and  N_15
    3  A    between atoms: C_6  and  C_23
    4  A    between atoms: N_15  and  C_21
                            x       y       z     vdW  Elec       q    Type
                         _______ _______ _______ _____ _____    ______ ____

>  <TORSDO>
F 4

$$$$
=
 OpenBabel10262419533D

 25 28  0  0  1  0  0  0  0  0999 V2000
  187.0150  177.9450  145.0660 C   0  0  0  0  0  0  0  0  0  0  0  0
  186.1050  178.2550  144.0350 C   0  0  0  0  0  0  0  0  0  0  0  0
  185.2820  178.2910  146.7500 C   0  0  0  0  0  3  0  0  0  0  0  0
  188.3750  177.5920  144.9620 C   0  0  0  0  0  0  0  0  0  0  0  0
  191.0680  176.8640  145.1550 C   0  0  0  0  0  3  0  0  0  0  0  0
  184.3710  178.5990  145.7340 C   0  0  0  0  0  3  0  0  0  0  0  0
  188.9670  177.3520  146.2010 C   0  0  0  0  0  0  0  0  0  0  0  0
  190.3060  176.9890  146.3250 C   0  0  0  0  0  3  0  0  0  0  0  0
  183.8540  178.8920  143.3570 C   0  0  0  0  0  0  0  0  0  0  0  0
  182.1800  179.3020  143.7070 Cl  0  0  0  0  0  0  0  0  0  0  0  0
  186.4770  178.2470  142.6870 C   0  0  0  0  0  3  0  0  0  0  0  0
  190.4870  177.1030  143.8960 C   0  0  0  0  0  3  0  0  0  0  0  0
  186.5870  177.9700  146.3950 C   0  0  0  0  0  0  0  0  0  0  0  0
  187.8480  177.5670  147.4390 S   0  0  0  0  0  0  0  0  0  0  0  0
  184.2600  178.8700  142.0590 N   0  0  0  0  0  0  0  0  0  0  0  0
  189.1360  177.4680  143.7930 C   0  0  0  0  0  3  0  0  0  0  0  0
  185.5370  178.5660  141.7070 C   0  0  0  0  0  0  0  0  0  0  0  0
  184.7670  178.5850  144.3810 C   0  0  0  0  0  0  0  0  0  0  0  0
  185.9240  178.5300  140.2710 C   0  0  0  0  0  2  0  0  0  0  0  0
  187.3720  178.5370  140.1550 N   0  0  0  0  0  2  0  0  0  0  0  0
  187.7030  177.9050  138.8880 C   0  0  1  0  0  3  0  0  0  0  0  0
  186.5770  178.1190  137.8910 C   0  0  0  0  0  1  0  0  0  0  0  0
  188.9790  178.4660  138.3530 C   0  0  0  0  0  0  0  0  0  0  0  0
  190.0900  178.0090  138.7330 O   0  0  0  0  0  0  0  0  0  0  0  0
  188.9370  179.5340  137.4140 N   0  0  0  0  0  1  0  0  0  0  0  0
  1 13  2  0  0  0  0
  2 18  1  0  0  0  0
  2  1  1  0  0  0  0
  4  1  1  0  0  0  0
  4  7  1  0  0  0  0
  5  8  1  0  0  0  0
  6  3  2  0  0  0  0
  7  8  2  0  0  0  0
  7 14  1  0  0  0  0
  9 10  1  0  0  0  0
  9 18  2  0  0  0  0
 11  2  2  0  0  0  0
 12  5  2  0  0  0  0
 13  3  1  0  0  0  0
 13 14  1  0  0  0  0
 15  9  1  0  0  0  0
 16 12  1  0  0  0  0
 16  4  2  0  0  0  0
 17 15  2  0  0  0  0
 17 11  1  0  0  0  0
 18  6  1  0  0  0  0
 19 17  1  0  0  0  0
 20 19  1  0  0  0  0
 21 22  1  6  0  0  0
 21 20  1  0  0  0  0
 23 24  2  0  0  0  0
 23 21  1  0  0  0  0
 25 23  1  0  0  0  0
M  END
>  <MODEL>
4

>  <REMARK>
 VINA RESULT:      -9.7      2.806      4.839
  Name = 
  4 active torsions:
  status: ('A' for Active; 'I' for Inactive)
    1  A    between atoms: C_2  and  C_21
    2  A    between atoms: C_6  and  N_15
    3  A    between atoms: C_6  and  C_23
    4  A    between atoms: N_15  and  C_21
                            x       y       z     vdW  Elec       q    Type
                         _______ _______ _______ _____ _____    ______ ____

>  <TORSDO>
F 4

$$$$
=
 OpenBabel10262419533D

 25 28  0  0  1  0  0  0  0  0999 V2000
  188.0950  177.6140  145.6610 C   0  0  0  0  0  0  0  0  0  0  0  0
  187.4640  177.8500  144.4210 C   0  0  0  0  0  0  0  0  0  0  0  0
  186.0520  178.2100  146.8560 C   0  0  0  0  0  3  0  0  0  0  0  0
  189.4180  177.1950  145.9080 C   0  0  0  0  0  0  0  0  0  0  0  0
  191.9440  176.3800  146.7880 C   0  0  0  0  0  3  0  0  0  0  0  0
  185.4170  178.4450  145.6320 C   0  0  0  0  0  3  0  0  0  0  0  0
  189.6970  177.0640  147.2680 C   0  0  0  0  0  0  0  0  0  0  0  0
  190.9460  176.6610  147.7320 C   0  0  0  0  0  3  0  0  0  0  0  0
  185.4720  178.5040  143.1830 C   0  0  0  0  0  0  0  0  0  0  0  0
  183.7920  179.0190  143.0960 Cl  0  0  0  0  0  0  0  0  0  0  0  0
  188.1310  177.6830  143.2030 C   0  0  0  0  0  3  0  0  0  0  0  0
  191.6800  176.5070  145.4120 C   0  0  0  0  0  3  0  0  0  0  0  0
  187.3800  177.7980  146.8450 C   0  0  0  0  0  0  0  0  0  0  0  0
  188.3430  177.4560  148.1870 S   0  0  0  0  0  0  0  0  0  0  0  0
  186.1590  178.3280  142.0230 N   0  0  0  0  0  0  0  0  0  0  0  0
  190.4130  176.9160  144.9650 C   0  0  0  0  0  3  0  0  0  0  0  0
  187.4600  177.9350  142.0070 C   0  0  0  0  0  0  0  0  0  0  0  0
  186.1070  178.2710  144.4160 C   0  0  0  0  0  0  0  0  0  0  0  0
  188.1590  177.7300  140.7100 C   0  0  0  0  0  2  0  0  0  0  0  0
  187.6030  178.6240  139.7090 N   0  0  0  0  0  2  0  0  0  0  0  0
  187.7300  177.9600  138.4220 C   0  0  1  0  0  3  0  0  0  0  0  0
  186.5070  178.2460  137.5680 C   0  0  0  0  0  1  0  0  0  0  0  0
  188.9650  178.4240  137.7250 C   0  0  0  0  0  0  0  0  0  0  0  0
  189.0470  179.5990  137.2780 O   0  0  0  0  0  0  0  0  0  0  0  0
  190.0560  177.5260  137.5550 N   0  0  0  0  0  1  0  0  0  0  0  0
  1  4  1  0  0  0  0
  1 13  2  0  0  0  0
  2  1  1  0  0  0  0
  4  7  1  0  0  0  0
  5  8  1  0  0  0  0
  6  3  2  0  0  0  0
  7  8  2  0  0  0  0
  7 14  1  0  0  0  0
  9 18  2  0  0  0  0
 10  9  1  0  0  0  0
 11  2  2  0  0  0  0
 12  5  2  0  0  0  0
 13  3  1  0  0  0  0
 13 14  1  0  0  0  0
 15  9  1  0  0  0  0
 16 12  1  0  0  0  0
 16  4  2  0  0  0  0
 17 15  2  0  0  0  0
 17 11  1  0  0  0  0
 18  2  1  0  0  0  0
 18  6  1  0  0  0  0
 19 17  1  0  0  0  0
 20 19  1  0  0  0  0
 21 22  1  6  0  0  0
 21 20  1  0  0  0  0
 23 21  1  0  0  0  0
 24 23  2  0  0  0  0
 25 23  1  0  0  0  0
M  END
>  <MODEL>
5

>  <REMARK>
 VINA RESULT:      -9.6      2.759      4.716
  Name = 
  4 active torsions:
  status: ('A' for Active; 'I' for Inactive)
    1  A    between atoms: C_2  and  C_21
    2  A    between atoms: C_6  and  N_15
    3  A    between atoms: C_6  and  C_23
    4  A    between atoms: N_15  and  C_21
                            x       y       z     vdW  Elec       q    Type
                         _______ _______ _______ _____ _____    ______ ____

>  <TORSDO>
F 4

$$$$
=
 OpenBabel10262419533D

 25 28  0  0  1  0  0  0  0  0999 V2000
  186.3650  178.2370  144.2900 C   0  0  0  0  0  0  0  0  0  0  0  0
  186.4230  178.3660  142.8860 C   0  0  0  0  0  0  0  0  0  0  0  0
  184.0150  178.8990  144.2900 C   0  0  0  0  0  3  0  0  0  0  0  0
  187.3890  177.8560  145.1810 C   0  0  0  0  0  0  0  0  0  0  0  0
  189.1440  177.1470  147.2380 C   0  0  0  0  0  3  0  0  0  0  0  0
  184.0630  179.0280  142.8980 C   0  0  0  0  0  3  0  0  0  0  0  0
  186.9680  177.8370  146.5100 C   0  0  0  0  0  0  0  0  0  0  0  0
  187.8220  177.4880  147.5520 C   0  0  0  0  0  3  0  0  0  0  0  0
  185.3030  178.8930  140.7890 C   0  0  0  0  0  0  0  0  0  0  0  0
  183.8930  179.3780  139.8560 Cl  0  0  0  0  0  0  0  0  0  0  0  0
  187.5930  178.1110  142.1630 C   0  0  0  0  0  3  0  0  0  0  0  0
  189.5870  177.1610  145.9020 C   0  0  0  0  0  3  0  0  0  0  0  0
  185.1700  178.5050  144.9590 C   0  0  0  0  0  0  0  0  0  0  0  0
  185.3480  178.2830  146.6200 S   0  0  0  0  0  0  0  0  0  0  0  0
  186.4620  178.6340  140.1270 N   0  0  0  0  0  0  0  0  0  0  0  0
  188.7090  177.5160  144.8650 C   0  0  0  0  0  3  0  0  0  0  0  0
  187.5960  178.2580  140.7770 C   0  0  0  0  0  0  0  0  0  0  0  0
  185.2520  178.7670  142.1890 C   0  0  0  0  0  0  0  0  0  0  0  0
  188.8310  177.9610  140.0040 C   0  0  0  0  0  2  0  0  0  0  0  0
  189.0500  179.0000  139.0130 N   0  0  0  0  0  2  0  0  0  0  0  0
  189.4180  178.3390  137.7720 C   0  0  1  0  0  3  0  0  0  0  0  0
  189.7910  176.8920  138.0460 C   0  0  0  0  0  1  0  0  0  0  0  0
  188.2860  178.4040  136.8010 C   0  0  0  0  0  0  0  0  0  0  0  0
  187.4600  179.3540  136.8410 O   0  0  0  0  0  0  0  0  0  0  0  0
  188.1340  177.3760  135.8280 N   0  0  0  0  0  1  0  0  0  0  0  0
  1 13  2  0  0  0  0
  1  4  1  0  0  0  0
  2  1  1  0  0  0  0
  3 13  1  0  0  0  0
  4  7  1  0  0  0  0
  5  8  1  0  0  0  0
  6  3  2  0  0  0  0
  7 14  1  0  0  0  0
  7  8  2  0  0  0  0
  9 18  2  0  0  0  0
 10  9  1  0  0  0  0
 11  2  2  0  0  0  0
 12  5  2  0  0  0  0
 13 14  1  0  0  0  0
 15 17  2  0  0  0  0
 15  9  1  0  0  0  0
 16  4  2  0  0  0  0
 16 12  1  0  0  0  0
 17 11  1  0  0  0  0
 18  2  1  0  0  0  0
 18  6  1  0  0  0  0
 19 17  1  0  0  0  0
 20 19  1  0  0  0  0
 21 22  1  1  0  0  0
 21 20  1  0  0  0  0
 23 24  2  0  0  0  0
 23 21  1  0  0  0  0
 25 23  1  0  0  0  0
M  END
>  <MODEL>
6

>  <REMARK>
 VINA RESULT:      -9.4      2.842      4.691
  Name = 
  4 active torsions:
  status: ('A' for Active; 'I' for Inactive)
    1  A    between atoms: C_2  and  C_21
    2  A    between atoms: C_6  and  N_15
    3  A    between atoms: C_6  and  C_23
    4  A    between atoms: N_15  and  C_21
                            x       y       z     vdW  Elec       q    Type
                         _______ _______ _______ _____ _____    ______ ____

>  <TORSDO>
F 4

$$$$
=
 OpenBabel10262419533D

 25 28  0  0  1  0  0  0  0  0999 V2000
  186.1600  178.3020  144.4670 C   0  0  0  0  0  0  0  0  0  0  0  0
  186.1630  178.4170  143.0610 C   0  0  0  0  0  0  0  0  0  0  0  0
  183.7930  178.8960  144.5480 C   0  0  0  0  0  3  0  0  0  0  0  0
  187.2260  177.9620  145.3240 C   0  0  0  0  0  0  0  0  0  0  0  0
  189.0760  177.3280  147.3220 C   0  0  0  0  0  3  0  0  0  0  0  0
  183.7860  179.0110  143.1530 C   0  0  0  0  0  3  0  0  0  0  0  0
  186.8550  177.9470  146.6680 C   0  0  0  0  0  0  0  0  0  0  0  0
  187.7560  177.6350  147.6820 C   0  0  0  0  0  3  0  0  0  0  0  0
  184.9520  178.8870  141.0020 C   0  0  0  0  0  0  0  0  0  0  0  0
  183.4950  179.3190  140.1160 Cl  0  0  0  0  0  0  0  0  0  0  0  0
  187.3120  178.1870  142.2990 C   0  0  0  0  0  3  0  0  0  0  0  0
  189.4680  177.3390  145.9710 C   0  0  0  0  0  3  0  0  0  0  0  0
  184.9820  178.5440  145.1770 C   0  0  0  0  0  0  0  0  0  0  0  0
  185.2280  178.3470  146.8330 S   0  0  0  0  0  0  0  0  0  0  0  0
  186.0930  178.6540  140.3000 N   0  0  0  0  0  0  0  0  0  0  0  0
  188.5430  177.6570  144.9640 C   0  0  0  0  0  3  0  0  0  0  0  0
  187.2600  178.3190  140.9110 C   0  0  0  0  0  0  0  0  0  0  0  0
  184.9560  178.7760  142.4030 C   0  0  0  0  0  0  0  0  0  0  0  0
  188.4750  178.0480  140.0970 C   0  0  0  0  0  2  0  0  0  0  0  0
  189.2910  177.0430  140.7550 N   0  0  0  0  0  2  0  0  0  0  0  0
  190.4740  176.8450  139.9340 C   0  0  1  0  0  3  0  0  0  0  0  0
  190.3230  177.5920  138.6190 C   0  0  0  0  0  1  0  0  0  0  0  0
  191.6880  177.3220  140.6600 C   0  0  0  0  0  0  0  0  0  0  0  0
  192.7840  177.4620  140.0540 O   0  0  0  0  0  0  0  0  0  0  0  0
  191.6080  177.6100  142.0510 N   0  0  0  0  0  1  0  0  0  0  0  0
  1 13  2  0  0  0  0
  1  4  1  0  0  0  0
  2  1  1  0  0  0  0
  3 13  1  0  0  0  0
  4  7  1  0  0  0  0
  5  8  1  0  0  0  0
  6  3  2  0  0  0  0
  7 14  1  0  0  0  0
  7  8  2  0  0  0  0
  9 18  2  0  0  0  0
 10  9  1  0  0  0  0
 11  2  2  0  0  0  0
 12  5  2  0  0  0  0
 13 14  1  0  0  0  0
 15 17  2  0  0  0  0
 15  9  1  0  0  0  0
 16  4  2  0  0  0  0
 16 12  1  0  0  0  0
 17 11  1  0  0  0  0
 18  2  1  0  0  0  0
 18  6  1  0  0  0  0
 19 20  1  0  0  0  0
 19 17  1  0  0  0  0
 21 22  1  6  0  0  0
 21 23  1  0  0  0  0
 21 20  1  0  0  0  0
 23 25  1  0  0  0  0
 24 23  2  0  0  0  0
M  END
>  <MODEL>
7

>  <REMARK>
 VINA RESULT:      -9.4      2.755      4.832
  Name = 
  4 active torsions:
  status: ('A' for Active; 'I' for Inactive)
    1  A    between atoms: C_2  and  C_21
    2  A    between atoms: C_6  and  N_15
    3  A    between atoms: C_6  and  C_23
    4  A    between atoms: N_15  and  C_21
                            x       y       z     vdW  Elec       q    Type
                         _______ _______ _______ _____ _____    ______ ____

>  <TORSDO>
F 4

$$$$
=
 OpenBabel10262419533D

 25 28  0  0  1  0  0  0  0  0999 V2000
  189.3200  177.5570  143.7350 C   0  0  0  0  0  0  0  0  0  0  0  0
  188.6690  177.8800  142.5250 C   0  0  0  0  0  0  0  0  0  0  0  0
  191.4000  177.1080  142.5390 C   0  0  0  0  0  3  0  0  0  0  0  0
  188.7940  177.5550  145.0420 C   0  0  0  0  0  0  0  0  0  0  0  0
  188.1180  177.4350  147.7530 C   0  0  0  0  0  3  0  0  0  0  0  0
  190.7640  177.4270  141.3350 C   0  0  0  0  0  3  0  0  0  0  0  0
  189.7340  177.1790  146.0010 C   0  0  0  0  0  0  0  0  0  0  0  0
  189.4230  177.1120  147.3570 C   0  0  0  0  0  3  0  0  0  0  0  0
  188.7660  178.1360  140.1060 C   0  0  0  0  0  0  0  0  0  0  0  0
  189.6170  178.0820  138.5670 Cl  0  0  0  0  0  0  0  0  0  0  0  0
  187.3250  178.2630  142.4830 C   0  0  0  0  0  3  0  0  0  0  0  0
  187.1560  177.8160  146.7980 C   0  0  0  0  0  3  0  0  0  0  0  0
  190.6640  177.1790  143.7160 C   0  0  0  0  0  0  0  0  0  0  0  0
  191.2150  176.8440  145.2740 S   0  0  0  0  0  0  0  0  0  0  0  0
  187.4570  178.5050  140.1120 N   0  0  0  0  0  0  0  0  0  0  0  0
  187.4900  177.8780  145.4370 C   0  0  0  0  0  3  0  0  0  0  0  0
  186.7300  178.5670  141.2590 C   0  0  0  0  0  0  0  0  0  0  0  0
  189.4080  177.8110  141.3140 C   0  0  0  0  0  0  0  0  0  0  0  0
  185.3090  179.0030  141.2150 C   0  0  0  0  0  2  0  0  0  0  0  0
  184.5390  178.2600  142.1980 N   0  0  0  0  0  2  0  0  0  0  0  0
  183.3720  179.0620  142.5250 C   0  0  1  0  0  3  0  0  0  0  0  0
  182.1890  178.6280  141.6770 C   0  0  0  0  0  1  0  0  0  0  0  0
  183.0450  178.9240  143.9750 C   0  0  0  0  0  0  0  0  0  0  0  0
  181.8770  178.6250  144.3430 O   0  0  0  0  0  0  0  0  0  0  0  0
  184.0590  179.1420  144.9490 N   0  0  0  0  0  1  0  0  0  0  0  0
  1  4  1  0  0  0  0
  2  1  1  0  0  0  0
  3 13  1  0  0  0  0
  4 16  2  0  0  0  0
  4  7  1  0  0  0  0
  6  3  2  0  0  0  0
  7  8  2  0  0  0  0
  8  5  1  0  0  0  0
  9 15  2  0  0  0  0
  9 18  1  0  0  0  0
 10  9  1  0  0  0  0
 11  2  1  0  0  0  0
 12  5  2  0  0  0  0
 13  1  2  0  0  0  0
 13 14  1  0  0  0  0
 14  7  1  0  0  0  0
 15 17  1  0  0  0  0
 16 12  1  0  0  0  0
 17 11  2  0  0  0  0
 18  6  1  0  0  0  0
 18  2  2  0  0  0  0
 19 17  1  0  0  0  0
 19 20  1  0  0  0  0
 20 21  1  0  0  0  0
 21 22  1  6  0  0  0
 21 23  1  0  0  0  0
 23 24  2  0  0  0  0
 23 25  1  0  0  0  0
M  END
>  <MODEL>
8

>  <REMARK>
 VINA RESULT:      -9.1      3.321      5.889
  Name = 
  4 active torsions:
  status: ('A' for Active; 'I' for Inactive)
    1  A    between atoms: C_2  and  C_21
    2  A    between atoms: C_6  and  N_15
    3  A    between atoms: C_6  and  C_23
    4  A    between atoms: N_15  and  C_21
                            x       y       z     vdW  Elec       q    Type
                         _______ _______ _______ _____ _____    ______ ____

>  <TORSDO>
F 4

$$$$
=
 OpenBabel10262419533D

 25 28  0  0  1  0  0  0  0  0999 V2000
  189.4320  177.5570  143.8760 C   0  0  0  0  0  0  0  0  0  0  0  0
  188.7620  177.8930  142.6810 C   0  0  0  0  0  0  0  0  0  0  0  0
  191.4790  177.0740  142.6360 C   0  0  0  0  0  3  0  0  0  0  0  0
  188.9340  177.5610  145.1940 C   0  0  0  0  0  0  0  0  0  0  0  0
  188.3130  177.4490  147.9180 C   0  0  0  0  0  3  0  0  0  0  0  0
  190.8230  177.4060  141.4460 C   0  0  0  0  0  3  0  0  0  0  0  0
  189.8870  177.1680  146.1320 C   0  0  0  0  0  0  0  0  0  0  0  0
  189.6040  177.1030  147.4940 C   0  0  0  0  0  3  0  0  0  0  0  0
  188.8130  178.1520  140.2600 C   0  0  0  0  0  0  0  0  0  0  0  0
  189.6300  178.0870  138.7040 Cl  0  0  0  0  0  0  0  0  0  0  0  0
  187.4240  178.3000  142.6670 C   0  0  0  0  0  3  0  0  0  0  0  0
  187.3380  177.8480  146.9850 C   0  0  0  0  0  3  0  0  0  0  0  0
  190.7690  177.1560  143.8280 C   0  0  0  0  0  0  0  0  0  0  0  0
  191.3460  176.8080  145.3740 S   0  0  0  0  0  0  0  0  0  0  0  0
  187.5110  178.5440  140.2940 N   0  0  0  0  0  0  0  0  0  0  0  0
  187.6450  177.9060  145.6160 C   0  0  0  0  0  3  0  0  0  0  0  0
  186.8090  178.6170  141.4570 C   0  0  0  0  0  0  0  0  0  0  0  0
  189.4740  177.8140  141.4540 C   0  0  0  0  0  0  0  0  0  0  0  0
  185.3950  179.0780  141.4430 C   0  0  0  0  0  2  0  0  0  0  0  0
  185.0090  179.4310  140.0880 N   0  0  0  0  0  2  0  0  0  0  0  0
  183.8470  178.6260  139.7500 C   0  0  1  0  0  3  0  0  0  0  0  0
  183.1800  178.1180  141.0170 C   0  0  0  0  0  1  0  0  0  0  0  0
  182.8810  179.4320  138.9470 C   0  0  0  0  0  0  0  0  0  0  0  0
  181.8560  178.8950  138.4490 O   0  0  0  0  0  0  0  0  0  0  0  0
  183.1270  180.8170  138.7350 N   0  0  0  0  0  1  0  0  0  0  0  0
  1  4  1  0  0  0  0
  2  1  1  0  0  0  0
  3 13  1  0  0  0  0
  4 16  2  0  0  0  0
  4  7  1  0  0  0  0
  6 18  1  0  0  0  0
  6  3  2  0  0  0  0
  7  8  2  0  0  0  0
  8  5  1  0  0  0  0
  9 15  2  0  0  0  0
  9 18  1  0  0  0  0
 10  9  1  0  0  0  0
 11  2  1  0  0  0  0
 12  5  2  0  0  0  0
 13  1  2  0  0  0  0
 13 14  1  0  0  0  0
 14  7  1  0  0  0  0
 15 17  1  0  0  0  0
 16 12  1  0  0  0  0
 17 11  2  0  0  0  0
 18  2  2  0  0  0  0
 19 17  1  0  0  0  0
 20 19  1  0  0  0  0
 21 20  1  0  0  0  0
 21 22  1  1  0  0  0
 23 21  1  0  0  0  0
 24 23  2  0  0  0  0
 25 23  1  0  0  0  0
M  END
>  <MODEL>
9

>  <REMARK>
 VINA RESULT:      -8.9      3.266      5.538
  Name = 
  4 active torsions:
  status: ('A' for Active; 'I' for Inactive)
    1  A    between atoms: C_2  and  C_21
    2  A    between atoms: C_6  and  N_15
    3  A    between atoms: C_6  and  C_23
    4  A    between atoms: N_15  and  C_21
                            x       y       z     vdW  Elec       q    Type
                         _______ _______ _______ _____ _____    ______ ____

>  <TORSDO>
F 4

$$$$
