=
 OpenBabel10262422003D

 30 32  0  0  1  0  0  0  0  0999 V2000
  187.7470  177.8460  145.1620 C   0  0  0  0  0  0  0  0  0  0  0  0
  184.4790  179.4880  145.3460 O   0  0  0  0  0  0  0  0  0  0  0  0
  183.9980  178.6590  144.3180 C   0  0  2  0  0  3  0  0  0  0  0  0
  186.9650  178.6200  146.1740 C   0  0  1  0  0  3  0  0  0  0  0  0
  188.7980  177.3060  145.4790 O   0  0  0  0  0  0  0  0  0  0  0  0
  184.5450  178.7130  146.5200 C   0  0  0  0  0  2  0  0  0  0  0  0
  185.7400  177.7690  146.4720 C   0  0  2  0  0  3  0  0  0  0  0  0
  187.2350  177.8110  143.7350 C   0  0  2  0  0  3  0  0  0  0  0  0
  185.1140  178.4040  143.2830 C   0  0  1  0  0  3  0  0  0  0  0  0
  182.8990  179.2690  143.7380 F   0  0  0  0  0  0  0  0  0  0  0  0
  186.7900  177.9800  147.5390 C   0  0  0  0  0  2  0  0  0  0  0  0
  185.9150  177.3320  143.7000 O   0  0  0  0  0  0  0  0  0  0  0  0
  188.0910  176.9890  142.8250 C   0  0  0  0  0  0  0  0  0  0  0  0
  188.0990  175.7340  142.9510 O   0  0  0  0  0  0  0  0  0  0  0  0
  188.8890  177.6170  141.8660 O   0  0  0  0  0  0  0  0  0  0  0  0
  190.1130  177.0550  141.4010 C   0  0  2  0  0  3  0  0  0  0  0  0
  191.2980  177.8730  141.9180 C   0  0  1  0  0  3  0  0  0  0  0  0
  191.4550  175.9550  143.6380 C   0  0  0  0  0  1  0  0  0  0  0  0
  191.0090  178.3700  143.3210 C   0  0  0  0  0  2  0  0  0  0  0  0
  192.0300  177.2690  143.1240 C   0  0  2  0  0  3  0  0  0  0  0  0
  190.1390  176.9410  139.8740 C   0  0  0  0  0  2  0  0  0  0  0  0
  187.9420  176.9900  138.6920 O   0  0  0  0  0  0  0  0  0  0  0  0
  189.0560  178.9420  139.1410 O   0  0  0  0  0  1  0  0  0  0  0  0
  189.0230  177.6860  139.2170 C   0  0  0  0  0  0  0  0  0  0  0  0
  184.5500  178.0760  141.9060 C   0  0  0  0  0  2  0  0  0  0  0  0
  185.1800  178.9780  140.8540 C   0  0  0  0  0  2  0  0  0  0  0  0
  184.2940  179.1350  139.6220 C   0  0  0  0  0  0  0  0  0  0  0  0
  184.4120  180.4250  139.1040 O   0  0  0  0  0  1  0  0  0  0  0  0
  184.6750  178.1220  138.5570 C   0  0  0  0  0  1  0  0  0  0  0  0
  182.8540  178.8970  140.0250 C   0  0  0  0  0  1  0  0  0  0  0  0
  1  5  2  0  0  0  0
  1  4  1  0  0  0  0
  2  6  1  0  0  0  0
  3 10  1  6  0  0  0
  3  2  1  0  0  0  0
  4  7  1  0  0  0  0
  4 11  1  1  0  0  0
  7  6  1  1  0  0  0
  7 11  1  0  0  0  0
  8 13  1  6  0  0  0
  8  1  1  0  0  0  0
  9 25  1  6  0  0  0
  9 12  1  0  0  0  0
  9  3  1  0  0  0  0
 12  8  1  0  0  0  0
 13 14  2  0  0  0  0
 15 13  1  0  0  0  0
 16 21  1  6  0  0  0
 16 15  1  0  0  0  0
 17 16  1  1  0  0  0
 17 20  1  0  0  0  0
 17 19  1  0  0  0  0
 20 19  1  0  0  0  0
 20 18  1  1  0  0  0
 22 24  2  0  0  0  0
 23 24  1  0  0  0  0
 24 21  1  0  0  0  0
 26 25  1  0  0  0  0
 27 30  1  0  0  0  0
 27 26  1  0  0  0  0
 28 27  1  0  0  0  0
 29 27  1  0  0  0  0
M  END
>  <MODEL>
1

>  <REMARK>
 VINA RESULT:      -7.6      0.000      0.000
  Name = 
  9 active torsions:
  status: ('A' for Active; 'I' for Inactive)
    1  A    between atoms: C_1  and  O_4
    2  A    between atoms: C_1  and  C_22
    3  A    between atoms: O_4  and  C_12
    4  A    between atoms: C_7  and  C_10
    5  A    between atoms: C_7  and  C_25
    6  A    between atoms: C_8  and  C_12
    7  A    between atoms: C_9  and  C_12
    8  A    between atoms: C_9  and  C_21
    9  A    between atoms: C_23  and  C_25
                            x       y       z     vdW  Elec       q    Type
                         _______ _______ _______ _____ _____    ______ ____

>  <TORSDO>
F 9

$$$$
=
 OpenBabel10262422003D

 30 32  0  0  1  0  0  0  0  0999 V2000
  185.5490  178.7060  142.4940 C   0  0  0  0  0  0  0  0  0  0  0  0
  185.3430  177.4120  145.9140 O   0  0  0  0  0  0  0  0  0  0  0  0
  186.7230  177.6140  146.0800 C   0  0  2  0  0  3  0  0  0  0  0  0
  184.4990  178.5550  143.5470 C   0  0  1  0  0  3  0  0  0  0  0  0
  185.3050  179.3210  141.4660 O   0  0  0  0  0  0  0  0  0  0  0  0
  184.7180  178.6720  145.9810 C   0  0  0  0  0  2  0  0  0  0  0  0
  184.9460  179.4530  144.6910 C   0  0  2  0  0  3  0  0  0  0  0  0
  186.8850  178.0210  142.7120 C   0  0  2  0  0  3  0  0  0  0  0  0
  187.4620  177.3010  144.7610 C   0  0  1  0  0  3  0  0  0  0  0  0
  187.1660  176.8050  147.1130 F   0  0  0  0  0  0  0  0  0  0  0  0
  183.7040  179.7980  143.9020 C   0  0  0  0  0  2  0  0  0  0  0  0
  187.4520  178.4300  143.9290 O   0  0  0  0  0  0  0  0  0  0  0  0
  187.8560  178.2640  141.6000 C   0  0  0  0  0  0  0  0  0  0  0  0
  188.8220  179.0530  141.7860 O   0  0  0  0  0  0  0  0  0  0  0  0
  187.6700  177.6370  140.3650 O   0  0  0  0  0  0  0  0  0  0  0  0
  188.7260  177.4730  139.4240 C   0  0  2  0  0  3  0  0  0  0  0  0
  188.1730  176.9380  138.1010 C   0  0  1  0  0  3  0  0  0  0  0  0
  189.0270  179.2030  137.2020 C   0  0  0  0  0  1  0  0  0  0  0  0
  187.0240  177.8100  137.6320 C   0  0  0  0  0  2  0  0  0  0  0  0
  188.3480  177.8740  136.8960 C   0  0  2  0  0  3  0  0  0  0  0  0
  189.8340  176.5670  139.9700 C   0  0  0  0  0  2  0  0  0  0  0  0
  191.6770  176.7440  138.2970 O   0  0  0  0  0  0  0  0  0  0  0  0
  191.9240  177.6500  140.3870 O   0  0  0  0  0  1  0  0  0  0  0  0
  191.2020  177.0190  139.5720 C   0  0  0  0  0  0  0  0  0  0  0  0
  188.9110  176.8960  145.0040 C   0  0  0  0  0  2  0  0  0  0  0  0
  189.8050  178.1290  145.0110 C   0  0  0  0  0  2  0  0  0  0  0  0
  191.2480  177.7990  144.6450 C   0  0  0  0  0  0  0  0  0  0  0  0
  191.9520  177.3870  145.7780 O   0  0  0  0  0  1  0  0  0  0  0  0
  191.2970  176.7070  143.5910 C   0  0  0  0  0  1  0  0  0  0  0  0
  191.9050  179.0430  144.0840 C   0  0  0  0  0  1  0  0  0  0  0  0
  1  8  1  0  0  0  0
  1  4  1  0  0  0  0
  2  6  1  0  0  0  0
  2  3  1  0  0  0  0
  3 10  1  1  0  0  0
  4 11  1  6  0  0  0
  4  7  1  0  0  0  0
  5  1  2  0  0  0  0
  7 11  1  1  0  0  0
  7  6  1  0  0  0  0
  8 13  1  6  0  0  0
  8 12  1  0  0  0  0
  9 25  1  1  0  0  0
  9  3  1  0  0  0  0
 12  9  1  0  0  0  0
 13 14  2  0  0  0  0
 15 13  1  0  0  0  0
 16 21  1  1  0  0  0
 16 15  1  0  0  0  0
 17 16  1  1  0  0  0
 19 17  1  0  0  0  0
 20 18  1  1  0  0  0
 20 19  1  0  0  0  0
 20 17  1  0  0  0  0
 22 24  2  0  0  0  0
 24 21  1  0  0  0  0
 24 23  1  0  0  0  0
 25 26  1  0  0  0  0
 27 26  1  0  0  0  0
 27 28  1  0  0  0  0
 29 27  1  0  0  0  0
 30 27  1  0  0  0  0
M  END
>  <MODEL>
2

>  <REMARK>
 VINA RESULT:      -7.5      2.132      5.240
  Name = 
  9 active torsions:
  status: ('A' for Active; 'I' for Inactive)
    1  A    between atoms: C_1  and  O_4
    2  A    between atoms: C_1  and  C_22
    3  A    between atoms: O_4  and  C_12
    4  A    between atoms: C_7  and  C_10
    5  A    between atoms: C_7  and  C_25
    6  A    between atoms: C_8  and  C_12
    7  A    between atoms: C_9  and  C_12
    8  A    between atoms: C_9  and  C_21
    9  A    between atoms: C_23  and  C_25
                            x       y       z     vdW  Elec       q    Type
                         _______ _______ _______ _____ _____    ______ ____

>  <TORSDO>
F 9

$$$$
=
 OpenBabel10262422003D

 30 32  0  0  1  0  0  0  0  0999 V2000
  190.4850  176.9960  142.0090 C   0  0  0  0  0  0  0  0  0  0  0  0
  188.2930  177.1870  139.0830 O   0  0  0  0  0  0  0  0  0  0  0  0
  187.6530  178.3120  139.6280 C   0  0  2  0  0  3  0  0  0  0  0  0
  190.5180  176.5450  140.5840 C   0  0  1  0  0  3  0  0  0  0  0  0
  191.4780  176.8770  142.7140 O   0  0  0  0  0  0  0  0  0  0  0  0
  189.5490  177.6030  138.6030 C   0  0  0  0  0  2  0  0  0  0  0  0
  190.5180  177.8230  139.7590 C   0  0  2  0  0  3  0  0  0  0  0  0
  189.1790  177.5330  142.5600 C   0  0  2  0  0  3  0  0  0  0  0  0
  187.5360  178.1600  141.1590 C   0  0  1  0  0  3  0  0  0  0  0  0
  186.4080  178.4420  139.0360 F   0  0  0  0  0  0  0  0  0  0  0  0
  191.7400  176.9330  139.7720 C   0  0  0  0  0  2  0  0  0  0  0  0
  188.7180  178.6010  141.7740 O   0  0  0  0  0  0  0  0  0  0  0  0
  189.2800  177.9700  143.9880 C   0  0  0  0  0  0  0  0  0  0  0  0
  189.9850  178.9740  144.2780 O   0  0  0  0  0  0  0  0  0  0  0  0
  188.6170  177.2490  144.9840 O   0  0  0  0  0  0  0  0  0  0  0  0
  187.7550  177.8710  145.9330 C   0  0  2  0  0  3  0  0  0  0  0  0
  187.6030  176.9800  147.1680 C   0  0  1  0  0  3  0  0  0  0  0  0
  189.0910  178.7890  148.2540 C   0  0  0  0  0  1  0  0  0  0  0  0
  188.9530  176.4140  147.5640 C   0  0  0  0  0  2  0  0  0  0  0  0
  188.3200  177.4860  148.4280 C   0  0  2  0  0  3  0  0  0  0  0  0
  186.3920  178.2110  145.3210 C   0  0  0  0  0  2  0  0  0  0  0  0
  184.1200  178.6660  146.2460 O   0  0  0  0  0  0  0  0  0  0  0  0
  185.9550  179.7290  147.1150 O   0  0  0  0  0  1  0  0  0  0  0  0
  185.4860  178.9150  146.2780 C   0  0  0  0  0  0  0  0  0  0  0  0
  186.3720  178.9640  141.7250 C   0  0  0  0  0  2  0  0  0  0  0  0
  185.1980  178.0430  142.0280 C   0  0  0  0  0  2  0  0  0  0  0  0
  183.9200  178.4830  141.3210 C   0  0  0  0  0  0  0  0  0  0  0  0
  184.1610  179.6220  140.5520 O   0  0  0  0  0  1  0  0  0  0  0  0
  183.3910  177.3720  140.4320 C   0  0  0  0  0  1  0  0  0  0  0  0
  182.8730  178.8070  142.3670 C   0  0  0  0  0  1  0  0  0  0  0  0
  1  8  1  0  0  0  0
  1  5  2  0  0  0  0
  2  3  1  0  0  0  0
  3 10  1  6  0  0  0
  3  9  1  0  0  0  0
  4 11  1  1  0  0  0
  4  1  1  0  0  0  0
  6  2  1  0  0  0  0
  7  6  1  6  0  0  0
  7 11  1  0  0  0  0
  7  4  1  0  0  0  0
  8 13  1  1  0  0  0
  9 25  1  1  0  0  0
  9 12  1  0  0  0  0
 12  8  1  0  0  0  0
 13 14  2  0  0  0  0
 13 15  1  0  0  0  0
 15 16  1  0  0  0  0
 16 21  1  6  0  0  0
 17 16  1  6  0  0  0
 17 19  1  0  0  0  0
 17 20  1  0  0  0  0
 19 20  1  0  0  0  0
 20 18  1  6  0  0  0
 21 24  1  0  0  0  0
 22 24  2  0  0  0  0
 24 23  1  0  0  0  0
 25 26  1  0  0  0  0
 27 26  1  0  0  0  0
 27 30  1  0  0  0  0
 28 27  1  0  0  0  0
 29 27  1  0  0  0  0
M  END
>  <MODEL>
3

>  <REMARK>
 VINA RESULT:      -7.4      1.907      5.672
  Name = 
  9 active torsions:
  status: ('A' for Active; 'I' for Inactive)
    1  A    between atoms: C_1  and  O_4
    2  A    between atoms: C_1  and  C_22
    3  A    between atoms: O_4  and  C_12
    4  A    between atoms: C_7  and  C_10
    5  A    between atoms: C_7  and  C_25
    6  A    between atoms: C_8  and  C_12
    7  A    between atoms: C_9  and  C_12
    8  A    between atoms: C_9  and  C_21
    9  A    between atoms: C_23  and  C_25
                            x       y       z     vdW  Elec       q    Type
                         _______ _______ _______ _____ _____    ______ ____

>  <TORSDO>
F 9

$$$$
=
 OpenBabel10262422003D

 30 32  0  0  1  0  0  0  0  0999 V2000
  190.8340  177.0100  144.9570 C   0  0  0  0  0  0  0  0  0  0  0  0
  188.0240  178.2370  146.9600 O   0  0  0  0  0  0  0  0  0  0  0  0
  187.1290  177.4980  146.1680 C   0  0  2  0  0  3  0  0  0  0  0  0
  190.6240  177.5550  146.3340 C   0  0  1  0  0  3  0  0  0  0  0  0
  191.9230  176.5560  144.6360 O   0  0  0  0  0  0  0  0  0  0  0  0
  188.6870  177.3300  147.8100 C   0  0  0  0  0  2  0  0  0  0  0  0
  189.7360  176.5400  147.0360 C   0  0  2  0  0  3  0  0  0  0  0  0
  189.6870  177.1020  143.9690 C   0  0  2  0  0  3  0  0  0  0  0  0
  187.6000  177.5060  144.6970 C   0  0  1  0  0  3  0  0  0  0  0  0
  185.8660  178.0500  146.2980 F   0  0  0  0  0  0  0  0  0  0  0  0
  191.1660  176.7290  147.4860 C   0  0  0  0  0  2  0  0  0  0  0  0
  188.5400  176.4860  144.4920 O   0  0  0  0  0  0  0  0  0  0  0  0
  190.0130  176.5050  142.6360 C   0  0  0  0  0  0  0  0  0  0  0  0
  189.9540  175.2540  142.4890 O   0  0  0  0  0  0  0  0  0  0  0  0
  190.4030  177.3330  141.5810 O   0  0  0  0  0  0  0  0  0  0  0  0
  189.9350  177.1450  140.2480 C   0  0  2  0  0  3  0  0  0  0  0  0
  190.9610  177.6850  139.2490 C   0  0  1  0  0  3  0  0  0  0  0  0
  190.8780  175.2650  138.3520 C   0  0  0  0  0  1  0  0  0  0  0  0
  192.2900  176.9810  139.4450 C   0  0  0  0  0  2  0  0  0  0  0  0
  191.4620  176.6660  138.2160 C   0  0  2  0  0  3  0  0  0  0  0  0
  188.5610  177.7880  140.0360 C   0  0  0  0  0  2  0  0  0  0  0  0
  187.7570  176.6750  137.9540 O   0  0  0  0  0  0  0  0  0  0  0  0
  188.1760  178.9280  137.9710 O   0  0  0  0  0  1  0  0  0  0  0  0
  188.1580  177.8370  138.5980 C   0  0  0  0  0  0  0  0  0  0  0  0
  186.4430  177.2960  143.7290 C   0  0  0  0  0  2  0  0  0  0  0  0
  186.5800  178.2350  142.5380 C   0  0  0  0  0  2  0  0  0  0  0  0
  185.2620  178.9150  142.1830 C   0  0  0  0  0  0  0  0  0  0  0  0
  185.4540  179.8320  141.1490 O   0  0  0  0  0  1  0  0  0  0  0  0
  184.2250  177.8870  141.7660 C   0  0  0  0  0  1  0  0  0  0  0  0
  184.7500  179.6520  143.4040 C   0  0  0  0  0  1  0  0  0  0  0  0
  1  4  1  0  0  0  0
  2  6  1  0  0  0  0
  3 10  1  6  0  0  0
  3  2  1  0  0  0  0
  4  7  1  0  0  0  0
  4 11  1  1  0  0  0
  5  1  2  0  0  0  0
  7 11  1  1  0  0  0
  7  6  1  0  0  0  0
  8 13  1  6  0  0  0
  8 12  1  0  0  0  0
  8  1  1  0  0  0  0
  9 25  1  6  0  0  0
  9  3  1  0  0  0  0
 12  9  1  0  0  0  0
 14 13  2  0  0  0  0
 15 13  1  0  0  0  0
 16 21  1  1  0  0  0
 16 15  1  0  0  0  0
 17 19  1  0  0  0  0
 17 16  1  1  0  0  0
 20 18  1  1  0  0  0
 20 17  1  0  0  0  0
 20 19  1  0  0  0  0
 22 24  2  0  0  0  0
 23 24  1  0  0  0  0
 24 21  1  0  0  0  0
 26 25  1  0  0  0  0
 27 26  1  0  0  0  0
 27 30  1  0  0  0  0
 28 27  1  0  0  0  0
 29 27  1  0  0  0  0
M  END
>  <MODEL>
4

>  <REMARK>
 VINA RESULT:      -7.3      2.026      3.253
  Name = 
  9 active torsions:
  status: ('A' for Active; 'I' for Inactive)
    1  A    between atoms: C_1  and  O_4
    2  A    between atoms: C_1  and  C_22
    3  A    between atoms: O_4  and  C_12
    4  A    between atoms: C_7  and  C_10
    5  A    between atoms: C_7  and  C_25
    6  A    between atoms: C_8  and  C_12
    7  A    between atoms: C_9  and  C_12
    8  A    between atoms: C_9  and  C_21
    9  A    between atoms: C_23  and  C_25
                            x       y       z     vdW  Elec       q    Type
                         _______ _______ _______ _____ _____    ______ ____

>  <TORSDO>
F 9

$$$$
=
 OpenBabel10262422003D

 30 32  0  0  1  0  0  0  0  0999 V2000
  190.3260  177.8460  142.2560 C   0  0  0  0  0  0  0  0  0  0  0  0
  187.9550  178.1180  145.0330 O   0  0  0  0  0  0  0  0  0  0  0  0
  186.9500  177.5400  144.2400 C   0  0  2  0  0  3  0  0  0  0  0  0
  190.3900  177.9460  143.7460 C   0  0  1  0  0  3  0  0  0  0  0  0
  191.3420  177.6310  141.6100 O   0  0  0  0  0  0  0  0  0  0  0  0
  188.8320  177.0880  145.4250 C   0  0  0  0  0  2  0  0  0  0  0  0
  189.7290  176.6780  144.2630 C   0  0  2  0  0  3  0  0  0  0  0  0
  188.9900  178.0850  141.5790 C   0  0  2  0  0  3  0  0  0  0  0  0
  187.0910  178.0220  142.7800 C   0  0  1  0  0  3  0  0  0  0  0  0
  185.7180  177.8830  144.7700 F   0  0  0  0  0  0  0  0  0  0  0  0
  191.2110  176.8930  144.4670 C   0  0  0  0  0  2  0  0  0  0  0  0
  188.0160  177.2170  142.1000 O   0  0  0  0  0  0  0  0  0  0  0  0
  189.0500  177.9350  140.0920 C   0  0  0  0  0  0  0  0  0  0  0  0
  188.9300  178.9570  139.3630 O   0  0  0  0  0  0  0  0  0  0  0  0
  189.2130  176.6670  139.5270 O   0  0  0  0  0  0  0  0  0  0  0  0
  189.9790  176.4490  138.3460 C   0  0  2  0  0  3  0  0  0  0  0  0
  189.2010  175.5640  137.3700 C   0  0  1  0  0  3  0  0  0  0  0  0
  189.0370  177.7580  136.0190 C   0  0  0  0  0  1  0  0  0  0  0  0
  187.7650  176.0430  137.2740 C   0  0  0  0  0  2  0  0  0  0  0  0
  188.7010  176.2740  136.1050 C   0  0  2  0  0  3  0  0  0  0  0  0
  191.3520  175.8490  138.6670 C   0  0  0  0  0  2  0  0  0  0  0  0
  192.3350  176.2600  136.4110 O   0  0  0  0  0  0  0  0  0  0  0  0
  193.4420  176.9480  138.2960 O   0  0  0  0  0  1  0  0  0  0  0  0
  192.4380  176.3830  137.7900 C   0  0  0  0  0  0  0  0  0  0  0  0
  185.7640  177.9660  142.0320 C   0  0  0  0  0  2  0  0  0  0  0  0
  185.5900  179.2190  141.1840 C   0  0  0  0  0  2  0  0  0  0  0  0
  184.7300  178.9650  139.9490 C   0  0  0  0  0  0  0  0  0  0  0  0
  184.2480  180.1720  139.4400 O   0  0  0  0  0  1  0  0  0  0  0  0
  185.5310  178.2460  138.8790 C   0  0  0  0  0  1  0  0  0  0  0  0
  183.5560  178.0940  140.3440 C   0  0  0  0  0  1  0  0  0  0  0  0
  1  4  1  0  0  0  0
  2  6  1  0  0  0  0
  3 10  1  1  0  0  0
  3  2  1  0  0  0  0
  4  7  1  0  0  0  0
  4 11  1  6  0  0  0
  5  1  2  0  0  0  0
  7 11  1  1  0  0  0
  7  6  1  0  0  0  0
  8 13  1  6  0  0  0
  8 12  1  0  0  0  0
  8  1  1  0  0  0  0
  9 25  1  6  0  0  0
  9  3  1  0  0  0  0
 12  9  1  0  0  0  0
 14 13  2  0  0  0  0
 15 13  1  0  0  0  0
 16 21  1  1  0  0  0
 16 15  1  0  0  0  0
 17 16  1  1  0  0  0
 19 17  1  0  0  0  0
 20 18  1  1  0  0  0
 20 19  1  0  0  0  0
 20 17  1  0  0  0  0
 22 24  2  0  0  0  0
 24 23  1  0  0  0  0
 24 21  1  0  0  0  0
 26 25  1  0  0  0  0
 27 30  1  0  0  0  0
 27 26  1  0  0  0  0
 28 27  1  0  0  0  0
 29 27  1  0  0  0  0
M  END
>  <MODEL>
5

>  <REMARK>
 VINA RESULT:      -7.3      2.190      4.151
  Name = 
  9 active torsions:
  status: ('A' for Active; 'I' for Inactive)
    1  A    between atoms: C_1  and  O_4
    2  A    between atoms: C_1  and  C_22
    3  A    between atoms: O_4  and  C_12
    4  A    between atoms: C_7  and  C_10
    5  A    between atoms: C_7  and  C_25
    6  A    between atoms: C_8  and  C_12
    7  A    between atoms: C_9  and  C_12
    8  A    between atoms: C_9  and  C_21
    9  A    between atoms: C_23  and  C_25
                            x       y       z     vdW  Elec       q    Type
                         _______ _______ _______ _____ _____    ______ ____

>  <TORSDO>
F 9

$$$$
=
 OpenBabel10262422003D

 30 32  0  0  1  0  0  0  0  0999 V2000
  187.8790  177.4190  144.2800 C   0  0  0  0  0  0  0  0  0  0  0  0
  191.3640  176.5490  143.5670 O   0  0  0  0  0  0  0  0  0  0  0  0
  191.3810  177.4640  142.5010 C   0  0  2  0  0  3  0  0  0  0  0  0
  189.0380  176.8390  145.0240 C   0  0  1  0  0  3  0  0  0  0  0  0
  186.8510  177.7100  144.8740 O   0  0  0  0  0  0  0  0  0  0  0  0
  191.4290  177.2890  144.7630 C   0  0  0  0  0  2  0  0  0  0  0  0
  190.0850  177.9430  145.0620 C   0  0  2  0  0  3  0  0  0  0  0  0
  187.9980  177.5680  142.7750 C   0  0  2  0  0  3  0  0  0  0  0  0
  190.0130  177.4640  141.7860 C   0  0  1  0  0  3  0  0  0  0  0  0
  192.4050  177.1150  141.6370 F   0  0  0  0  0  0  0  0  0  0  0  0
  189.4070  177.5020  146.3390 C   0  0  0  0  0  2  0  0  0  0  0  0
  189.1300  178.3300  142.4460 O   0  0  0  0  0  0  0  0  0  0  0  0
  186.7840  178.1790  142.1490 C   0  0  0  0  0  0  0  0  0  0  0  0
  186.9090  179.2130  141.4390 O   0  0  0  0  0  0  0  0  0  0  0  0
  185.5260  177.6150  142.3790 O   0  0  0  0  0  0  0  0  0  0  0  0
  184.3220  178.3740  142.3020 C   0  0  2  0  0  3  0  0  0  0  0  0
  184.1870  179.0060  140.9140 C   0  0  1  0  0  3  0  0  0  0  0  0
  181.7400  178.2180  141.1500 C   0  0  0  0  0  1  0  0  0  0  0  0
  183.8550  177.9370  139.8910 C   0  0  0  0  0  2  0  0  0  0  0  0
  182.7830  178.9290  140.2970 C   0  0  2  0  0  3  0  0  0  0  0  0
  184.2500  179.4330  143.4050 C   0  0  0  0  0  2  0  0  0  0  0  0
  183.9800  179.0030  145.8480 O   0  0  0  0  0  1  0  0  0  0  0  0
  182.2340  178.6350  144.4100 O   0  0  0  0  0  0  0  0  0  0  0  0
  183.4270  179.0000  144.5740 C   0  0  0  0  0  0  0  0  0  0  0  0
  190.1300  177.9100  140.3340 C   0  0  0  0  0  2  0  0  0  0  0  0
  189.1300  177.1520  139.4710 C   0  0  0  0  0  2  0  0  0  0  0  0
  188.6840  177.9600  138.2570 C   0  0  0  0  0  0  0  0  0  0  0  0
  189.0570  179.2970  138.4030 O   0  0  0  0  0  1  0  0  0  0  0  0
  189.2960  177.3970  136.9860 C   0  0  0  0  0  1  0  0  0  0  0  0
  187.1760  177.8790  138.1450 C   0  0  0  0  0  1  0  0  0  0  0  0
  1  5  2  0  0  0  0
  1  4  1  0  0  0  0
  2  6  1  0  0  0  0
  3 10  1  6  0  0  0
  3  2  1  0  0  0  0
  4  7  1  0  0  0  0
  4 11  1  1  0  0  0
  7  6  1  1  0  0  0
  7 11  1  0  0  0  0
  8 13  1  1  0  0  0
  8  1  1  0  0  0  0
  9 25  1  6  0  0  0
  9 12  1  0  0  0  0
  9  3  1  0  0  0  0
 12  8  1  0  0  0  0
 13 15  1  0  0  0  0
 14 13  2  0  0  0  0
 16 15  1  0  0  0  0
 16 21  1  1  0  0  0
 17 16  1  1  0  0  0
 19 20  1  0  0  0  0
 19 17  1  0  0  0  0
 20 17  1  0  0  0  0
 20 18  1  1  0  0  0
 21 24  1  0  0  0  0
 23 24  2  0  0  0  0
 24 22  1  0  0  0  0
 26 25  1  0  0  0  0
 27 28  1  0  0  0  0
 27 26  1  0  0  0  0
 29 27  1  0  0  0  0
 30 27  1  0  0  0  0
M  END
>  <MODEL>
6

>  <REMARK>
 VINA RESULT:      -7.2      2.467      6.188
  Name = 
  9 active torsions:
  status: ('A' for Active; 'I' for Inactive)
    1  A    between atoms: C_1  and  O_4
    2  A    between atoms: C_1  and  C_22
    3  A    between atoms: O_4  and  C_12
    4  A    between atoms: C_7  and  C_10
    5  A    between atoms: C_7  and  C_25
    6  A    between atoms: C_8  and  C_12
    7  A    between atoms: C_9  and  C_12
    8  A    between atoms: C_9  and  C_21
    9  A    between atoms: C_23  and  C_25
                            x       y       z     vdW  Elec       q    Type
                         _______ _______ _______ _____ _____    ______ ____

>  <TORSDO>
F 9

$$$$
=
 OpenBabel10262422003D

 30 32  0  0  1  0  0  0  0  0999 V2000
  188.2640  177.4500  145.2430 C   0  0  0  0  0  0  0  0  0  0  0  0
  185.2870  179.5280  145.7180 O   0  0  0  0  0  0  0  0  0  0  0  0
  184.6030  178.7810  144.7450 C   0  0  2  0  0  3  0  0  0  0  0  0
  187.6950  178.3190  146.3170 C   0  0  1  0  0  3  0  0  0  0  0  0
  189.2550  176.7670  145.4650 O   0  0  0  0  0  0  0  0  0  0  0  0
  185.3540  178.7450  146.8860 C   0  0  0  0  0  2  0  0  0  0  0  0
  186.3970  177.6430  146.7340 C   0  0  2  0  0  3  0  0  0  0  0  0
  187.6220  177.4950  143.8700 C   0  0  2  0  0  3  0  0  0  0  0  0
  185.5720  178.3800  143.6120 C   0  0  1  0  0  3  0  0  0  0  0  0
  183.5500  179.5410  144.2650 F   0  0  0  0  0  0  0  0  0  0  0  0
  187.5600  177.7000  147.6970 C   0  0  0  0  0  2  0  0  0  0  0  0
  186.2520  177.2040  143.9600 O   0  0  0  0  0  0  0  0  0  0  0  0
  188.2680  176.5680  142.8890 C   0  0  0  0  0  0  0  0  0  0  0  0
  188.4670  175.3660  143.2150 O   0  0  0  0  0  0  0  0  0  0  0  0
  188.6650  177.0460  141.6380 O   0  0  0  0  0  0  0  0  0  0  0  0
  189.9820  177.5280  141.3870 C   0  0  2  0  0  3  0  0  0  0  0  0
  190.4910  176.9940  140.0460 C   0  0  1  0  0  3  0  0  0  0  0  0
  189.0580  178.9230  139.1030 C   0  0  0  0  0  1  0  0  0  0  0  0
  189.3290  176.4640  139.2280 C   0  0  0  0  0  2  0  0  0  0  0  0
  189.9970  177.7590  138.8100 C   0  0  2  0  0  3  0  0  0  0  0  0
  190.9410  177.1740  142.5270 C   0  0  0  0  0  2  0  0  0  0  0  0
  192.0580  178.1620  144.5270 O   0  0  0  0  0  1  0  0  0  0  0  0
  190.6680  179.4420  143.2290 O   0  0  0  0  0  0  0  0  0  0  0  0
  191.2080  178.3250  143.4410 C   0  0  0  0  0  0  0  0  0  0  0  0
  184.8420  178.1420  142.2960 C   0  0  0  0  0  2  0  0  0  0  0  0
  185.4900  178.9560  141.1840 C   0  0  0  0  0  2  0  0  0  0  0  0
  184.7160  178.8620  139.8730 C   0  0  0  0  0  0  0  0  0  0  0  0
  184.2900  180.1290  139.4720 O   0  0  0  0  0  1  0  0  0  0  0  0
  185.5790  178.2480  138.7850 C   0  0  0  0  0  1  0  0  0  0  0  0
  183.5040  177.9790  140.0860 C   0  0  0  0  0  1  0  0  0  0  0  0
  1  5  2  0  0  0  0
  1  4  1  0  0  0  0
  2  6  1  0  0  0  0
  3 10  1  6  0  0  0
  3  2  1  0  0  0  0
  4  7  1  0  0  0  0
  4 11  1  1  0  0  0
  7  6  1  1  0  0  0
  7 11  1  0  0  0  0
  8 13  1  6  0  0  0
  8 12  1  0  0  0  0
  8  1  1  0  0  0  0
  9 25  1  6  0  0  0
  9 12  1  0  0  0  0
  9  3  1  0  0  0  0
 13 14  2  0  0  0  0
 15 13  1  0  0  0  0
 16 15  1  0  0  0  0
 16 21  1  1  0  0  0
 17 16  1  1  0  0  0
 19 17  1  0  0  0  0
 20 18  1  1  0  0  0
 20 19  1  0  0  0  0
 20 17  1  0  0  0  0
 21 24  1  0  0  0  0
 23 24  2  0  0  0  0
 24 22  1  0  0  0  0
 26 25  1  0  0  0  0
 27 30  1  0  0  0  0
 27 26  1  0  0  0  0
 28 27  1  0  0  0  0
 29 27  1  0  0  0  0
M  END
>  <MODEL>
7

>  <REMARK>
 VINA RESULT:      -7.2      1.109      2.581
  Name = 
  9 active torsions:
  status: ('A' for Active; 'I' for Inactive)
    1  A    between atoms: C_1  and  O_4
    2  A    between atoms: C_1  and  C_22
    3  A    between atoms: O_4  and  C_12
    4  A    between atoms: C_7  and  C_10
    5  A    between atoms: C_7  and  C_25
    6  A    between atoms: C_8  and  C_12
    7  A    between atoms: C_9  and  C_12
    8  A    between atoms: C_9  and  C_21
    9  A    between atoms: C_23  and  C_25
                            x       y       z     vdW  Elec       q    Type
                         _______ _______ _______ _____ _____    ______ ____

>  <TORSDO>
F 9

$$$$
=
 OpenBabel10262422003D

 30 32  0  0  1  0  0  0  0  0999 V2000
  190.6500  177.2230  144.2790 C   0  0  0  0  0  0  0  0  0  0  0  0
  188.8210  178.2090  147.2950 O   0  0  0  0  0  0  0  0  0  0  0  0
  187.6430  177.6520  146.7700 C   0  0  2  0  0  3  0  0  0  0  0  0
  190.9740  177.5360  145.7040 C   0  0  1  0  0  3  0  0  0  0  0  0
  191.5150  176.7850  143.5340 O   0  0  0  0  0  0  0  0  0  0  0  0
  189.6410  177.1450  147.7180 C   0  0  0  0  0  2  0  0  0  0  0  0
  190.2830  176.4540  146.5200 C   0  0  2  0  0  3  0  0  0  0  0  0
  189.2500  177.5270  143.7800 C   0  0  2  0  0  3  0  0  0  0  0  0
  187.5840  177.8890  145.2450 C   0  0  1  0  0  3  0  0  0  0  0  0
  186.5600  178.2260  147.4130 F   0  0  0  0  0  0  0  0  0  0  0  0
  191.7920  176.5050  146.4610 C   0  0  0  0  0  2  0  0  0  0  0  0
  188.2940  176.8800  144.5790 O   0  0  0  0  0  0  0  0  0  0  0  0
  189.0440  177.1510  142.3470 C   0  0  0  0  0  0  0  0  0  0  0  0
  188.6800  175.9780  142.0630 O   0  0  0  0  0  0  0  0  0  0  0  0
  189.2820  178.0910  141.3410 O   0  0  0  0  0  0  0  0  0  0  0  0
  189.6790  177.7180  140.0240 C   0  0  2  0  0  3  0  0  0  0  0  0
  188.4840  177.1460  139.2570 C   0  0  1  0  0  3  0  0  0  0  0  0
  189.0560  179.0390  137.5980 C   0  0  0  0  0  1  0  0  0  0  0  0
  187.3710  178.1740  139.1940 C   0  0  0  0  0  2  0  0  0  0  0  0
  188.1560  177.8570  137.9370 C   0  0  2  0  0  3  0  0  0  0  0  0
  190.8500  176.7320  140.0450 C   0  0  0  0  0  2  0  0  0  0  0  0
  192.0140  176.7960  137.8390 O   0  0  0  0  0  0  0  0  0  0  0  0
  190.6010  175.0650  138.3500 O   0  0  0  0  0  1  0  0  0  0  0  0
  191.1410  176.1460  138.7010 C   0  0  0  0  0  0  0  0  0  0  0  0
  186.1520  177.8930  144.7250 C   0  0  0  0  0  2  0  0  0  0  0  0
  186.1490  177.8600  143.2020 C   0  0  0  0  0  2  0  0  0  0  0  0
  185.0840  178.7760  142.6070 C   0  0  0  0  0  0  0  0  0  0  0  0
  185.6790  179.7580  141.8140 O   0  0  0  0  0  1  0  0  0  0  0  0
  184.0980  177.9770  141.7730 C   0  0  0  0  0  1  0  0  0  0  0  0
  184.3310  179.4460  143.7370 C   0  0  0  0  0  1  0  0  0  0  0  0
  1  4  1  0  0  0  0
  2  6  1  0  0  0  0
  3  2  1  0  0  0  0
  3 10  1  1  0  0  0
  4 11  1  6  0  0  0
  4  7  1  0  0  0  0
  5  1  2  0  0  0  0
  7 11  1  1  0  0  0
  7  6  1  0  0  0  0
  8 13  1  6  0  0  0
  8  1  1  0  0  0  0
  8 12  1  0  0  0  0
  9 25  1  6  0  0  0
  9  3  1  0  0  0  0
 12  9  1  0  0  0  0
 14 13  2  0  0  0  0
 15 13  1  0  0  0  0
 16 21  1  1  0  0  0
 16 15  1  0  0  0  0
 17 16  1  1  0  0  0
 19 17  1  0  0  0  0
 20 18  1  1  0  0  0
 20 19  1  0  0  0  0
 20 17  1  0  0  0  0
 22 24  2  0  0  0  0
 23 24  1  0  0  0  0
 24 21  1  0  0  0  0
 26 25  1  0  0  0  0
 27 26  1  0  0  0  0
 27 30  1  0  0  0  0
 28 27  1  0  0  0  0
 29 27  1  0  0  0  0
M  END
>  <MODEL>
8

>  <REMARK>
 VINA RESULT:      -7.0      2.178      3.939
  Name = 
  9 active torsions:
  status: ('A' for Active; 'I' for Inactive)
    1  A    between atoms: C_1  and  O_4
    2  A    between atoms: C_1  and  C_22
    3  A    between atoms: O_4  and  C_12
    4  A    between atoms: C_7  and  C_10
    5  A    between atoms: C_7  and  C_25
    6  A    between atoms: C_8  and  C_12
    7  A    between atoms: C_9  and  C_12
    8  A    between atoms: C_9  and  C_21
    9  A    between atoms: C_23  and  C_25
                            x       y       z     vdW  Elec       q    Type
                         _______ _______ _______ _____ _____    ______ ____

>  <TORSDO>
F 9

$$$$
=
 OpenBabel10262422003D

 30 32  0  0  1  0  0  0  0  0999 V2000
  186.8170  177.5720  144.0230 C   0  0  0  0  0  0  0  0  0  0  0  0
  190.0710  176.5080  142.7240 O   0  0  0  0  0  0  0  0  0  0  0  0
  190.0190  177.5170  141.7490 C   0  0  2  0  0  3  0  0  0  0  0  0
  188.0130  176.8350  144.5340 C   0  0  1  0  0  3  0  0  0  0  0  0
  185.9140  177.8830  144.7880 O   0  0  0  0  0  0  0  0  0  0  0  0
  190.3720  177.1210  143.9550 C   0  0  0  0  0  2  0  0  0  0  0  0
  189.1490  177.8450  144.5070 C   0  0  2  0  0  3  0  0  0  0  0  0
  186.7320  177.8560  142.5360 C   0  0  2  0  0  3  0  0  0  0  0  0
  188.5690  177.6920  141.2500 C   0  0  1  0  0  3  0  0  0  0  0  0
  190.8730  177.1760  140.7140 F   0  0  0  0  0  0  0  0  0  0  0  0
  188.6240  177.3370  145.8290 C   0  0  0  0  0  2  0  0  0  0  0  0
  187.8710  178.5560  142.1060 O   0  0  0  0  0  0  0  0  0  0  0  0
  185.5020  178.6170  142.1530 C   0  0  0  0  0  0  0  0  0  0  0  0
  185.5510  179.8740  142.0800 O   0  0  0  0  0  0  0  0  0  0  0  0
  184.3100  177.9310  141.9080 O   0  0  0  0  0  0  0  0  0  0  0  0
  183.4410  178.2680  140.8290 C   0  0  2  0  0  3  0  0  0  0  0  0
  182.0300  177.7470  141.1080 C   0  0  1  0  0  3  0  0  0  0  0  0
  181.3400  179.9890  140.0300 C   0  0  0  0  0  1  0  0  0  0  0  0
  181.3370  178.6470  142.1130 C   0  0  0  0  0  2  0  0  0  0  0  0
  180.8930  178.6770  140.6640 C   0  0  2  0  0  3  0  0  0  0  0  0
  183.9730  177.7460  139.4920 C   0  0  0  0  0  2  0  0  0  0  0  0
  184.5550  180.1280  139.0310 O   0  0  0  0  0  1  0  0  0  0  0  0
  185.4870  178.4480  137.7810 O   0  0  0  0  0  0  0  0  0  0  0  0
  184.7150  178.7850  138.7160 C   0  0  0  0  0  0  0  0  0  0  0  0
  188.5170  178.2670  139.8400 C   0  0  0  0  0  2  0  0  0  0  0  0
  188.4180  177.1400  138.8200 C   0  0  0  0  0  2  0  0  0  0  0  0
  189.1430  177.4730  137.5190 C   0  0  0  0  0  0  0  0  0  0  0  0
  190.4910  177.1280  137.6160 O   0  0  0  0  0  1  0  0  0  0  0  0
  188.5110  176.7360  136.3510 C   0  0  0  0  0  1  0  0  0  0  0  0
  189.0330  178.9630  137.2680 C   0  0  0  0  0  1  0  0  0  0  0  0
  1  4  1  0  0  0  0
  1  5  2  0  0  0  0
  2  6  1  0  0  0  0
  3 10  1  6  0  0  0
  3  2  1  0  0  0  0
  4 11  1  1  0  0  0
  7  6  1  6  0  0  0
  7  4  1  0  0  0  0
  7 11  1  0  0  0  0
  8 13  1  1  0  0  0
  8  1  1  0  0  0  0
  9 25  1  6  0  0  0
  9  3  1  0  0  0  0
  9 12  1  0  0  0  0
 12  8  1  0  0  0  0
 14 13  2  0  0  0  0
 15 13  1  0  0  0  0
 16 21  1  6  0  0  0
 16 15  1  0  0  0  0
 17 16  1  6  0  0  0
 17 19  1  0  0  0  0
 20 18  1  6  0  0  0
 20 17  1  0  0  0  0
 20 19  1  0  0  0  0
 23 24  2  0  0  0  0
 24 22  1  0  0  0  0
 24 21  1  0  0  0  0
 26 25  1  0  0  0  0
 27 28  1  0  0  0  0
 27 26  1  0  0  0  0
 29 27  1  0  0  0  0
 30 27  1  0  0  0  0
M  END
>  <MODEL>
9

>  <REMARK>
 VINA RESULT:      -7.0      2.450      6.072
  Name = 
  9 active torsions:
  status: ('A' for Active; 'I' for Inactive)
    1  A    between atoms: C_1  and  O_4
    2  A    between atoms: C_1  and  C_22
    3  A    between atoms: O_4  and  C_12
    4  A    between atoms: C_7  and  C_10
    5  A    between atoms: C_7  and  C_25
    6  A    between atoms: C_8  and  C_12
    7  A    between atoms: C_9  and  C_12
    8  A    between atoms: C_9  and  C_21
    9  A    between atoms: C_23  and  C_25
                            x       y       z     vdW  Elec       q    Type
                         _______ _______ _______ _____ _____    ______ ____

>  <TORSDO>
F 9

$$$$
