=
 OpenBabel10262421033D

 32 36  0  0  1  0  0  0  0  0999 V2000
  183.5330  177.3100  136.0330 N   0  0  0  0  0  0  0  0  0  0  0  0
  183.2000  176.9560  138.4370 C   0  0  0  0  0  0  0  0  0  0  0  0
  182.8560  177.8740  134.8520 C   0  0  0  0  0  2  0  0  0  0  0  0
  182.7570  176.8550  137.1660 C   0  0  0  0  0  0  0  0  0  0  0  0
  182.3710  176.4820  139.6100 C   0  0  1  0  0  3  0  0  0  0  0  0
  183.6080  179.3720  139.5080 C   0  0  1  0  0  3  0  0  0  0  0  0
  182.1720  179.0380  139.9810 C   0  0  2  0  0  3  0  0  0  0  0  0
  181.3880  176.3720  136.9010 C   0  0  0  0  0  0  0  0  0  0  0  0
  182.0700  177.6300  140.5930 C   0  0  0  0  0  2  0  0  0  0  0  0
  180.6390  175.8610  137.8720 C   0  0  0  0  0  3  0  0  0  0  0  0
  180.8410  176.5140  135.5230 C   0  0  0  0  0  2  0  0  0  0  0  0
  185.6230  177.4880  134.9990 O   0  0  0  0  0  0  0  0  0  0  0  0
  184.9020  176.8990  135.8520 C   0  0  0  0  0  0  0  0  0  0  0  0
  184.6150  177.9720  138.8650 S   0  0  0  0  0  0  0  0  0  0  0  0
  181.1410  175.7880  139.2100 N   0  0  0  0  0  0  0  0  0  0  0  0
  181.3250  177.8410  134.9490 C   0  0  0  0  0  2  0  0  0  0  0  0
  183.6290  180.4320  138.6180 F   0  0  0  0  0  0  0  0  0  0  0  0
  181.1200  179.2610  138.8960 C   0  0  0  0  0  3  0  0  0  0  0  0
  179.7300  179.1430  139.4900 C   0  0  0  0  0  2  0  0  0  0  0  0
  180.3200  180.5090  139.2150 C   0  0  0  0  0  2  0  0  0  0  0  0
  180.3660  175.0800  140.2180 C   0  0  0  0  0  2  0  0  0  0  0  0
  178.9310  175.5730  140.2180 C   0  0  0  0  0  1  0  0  0  0  0  0
  185.4370  175.6980  136.5850 C   0  0  2  0  0  3  0  0  0  0  0  0
  187.4860  176.4180  137.5730 O   0  0  0  0  0  0  0  0  0  0  0  0
  186.9330  175.7010  136.7010 C   0  0  0  0  0  0  0  0  0  0  0  0
  187.7320  174.9110  135.8250 N   0  0  0  0  0  1  0  0  0  0  0  0
  184.9170  174.4150  135.9530 C   0  0  0  0  0  2  0  0  0  0  0  0
  184.5480  173.7510  138.3440 F   0  0  0  0  0  0  0  0  0  0  0  0
  184.1940  172.0540  136.6450 C   0  0  0  0  0  2  0  0  0  0  0  0
  184.2740  173.5170  137.0080 C   0  0  2  0  0  0  0  0  0  0  0  0
  182.3940  173.1530  135.3340 C   0  0  0  0  0  1  0  0  0  0  0  0
  182.9170  172.8830  136.7360 C   0  0  1  0  0  3  0  0  0  0  0  0
  1  4  1  0  0  0  0
  2 14  1  0  0  0  0
  2  5  1  0  0  0  0
  3 16  1  0  0  0  0
  3  1  1  0  0  0  0
  4  2  2  0  0  0  0
  5  9  1  1  0  0  0
  6 17  1  6  0  0  0
  6  7  1  0  0  0  0
  7 18  1  6  0  0  0
  7  9  1  0  0  0  0
  8  4  1  0  0  0  0
  8 10  2  0  0  0  0
 10 15  1  0  0  0  0
 11  8  1  0  0  0  0
 12 13  2  0  0  0  0
 13  1  1  0  0  0  0
 13 23  1  0  0  0  0
 14  6  1  0  0  0  0
 15  5  1  0  0  0  0
 15 21  1  0  0  0  0
 16 11  1  0  0  0  0
 18 20  1  0  0  0  0
 18 19  1  0  0  0  0
 20 19  1  0  0  0  0
 21 22  1  0  0  0  0
 23 27  1  6  0  0  0
 23 25  1  0  0  0  0
 25 24  2  0  0  0  0
 26 25  1  0  0  0  0
 27 30  1  0  0  0  0
 29 32  1  0  0  0  0
 29 30  1  0  0  0  0
 30 28  1  1  0  0  0
 32 31  1  6  0  0  0
 32 30  1  0  0  0  0
M  END
>  <MODEL>
1

>  <REMARK>
 VINA RESULT:      -4.0      0.000      0.000
  Name = 
  6 active torsions:
  status: ('A' for Active; 'I' for Inactive)
    1  A    between atoms: C_9  and  C_12
    2  A    between atoms: C_13  and  N_29
    3  A    between atoms: C_15  and  C_20
    4  A    between atoms: C_16  and  C_20
    5  A    between atoms: C_16  and  C_22
    6  A    between atoms: C_16  and  C_27
                            x       y       z     vdW  Elec       q    Type
                         _______ _______ _______ _____ _____    ______ ____

>  <TORSDO>
F 6

$$$$
=
 OpenBabel10262421033D

 32 36  0  0  1  0  0  0  0  0999 V2000
  186.9230  178.2940  137.0050 N   0  0  0  0  0  0  0  0  0  0  0  0
  185.2000  177.1040  138.2830 C   0  0  0  0  0  0  0  0  0  0  0  0
  187.1280  178.9760  135.7160 C   0  0  0  0  0  2  0  0  0  0  0  0
  185.8920  177.2880  137.1380 C   0  0  0  0  0  0  0  0  0  0  0  0
  184.1210  176.0510  138.4010 C   0  0  1  0  0  3  0  0  0  0  0  0
  183.6130  179.0510  139.1970 C   0  0  1  0  0  3  0  0  0  0  0  0
  182.6250  178.1660  138.3980 C   0  0  2  0  0  3  0  0  0  0  0  0
  185.5270  176.5260  135.9280 C   0  0  0  0  0  0  0  0  0  0  0  0
  182.7560  176.6740  138.7530 C   0  0  0  0  0  2  0  0  0  0  0  0
  184.6500  175.5300  135.9810 C   0  0  0  0  0  3  0  0  0  0  0  0
  186.1290  176.9330  134.6270 C   0  0  0  0  0  2  0  0  0  0  0  0
  188.7390  179.4170  137.9600 O   0  0  0  0  0  0  0  0  0  0  0  0
  187.9940  178.3970  137.9630 C   0  0  0  0  0  0  0  0  0  0  0  0
  185.2420  178.3040  139.6150 S   0  0  0  0  0  0  0  0  0  0  0  0
  184.0200  175.1850  137.2190 N   0  0  0  0  0  0  0  0  0  0  0  0
  186.2200  178.4540  134.5940 C   0  0  0  0  0  2  0  0  0  0  0  0
  183.7850  180.2950  138.6160 F   0  0  0  0  0  0  0  0  0  0  0  0
  182.7040  178.3990  136.8900 C   0  0  0  0  0  3  0  0  0  0  0  0
  181.6080  177.6200  136.1880 C   0  0  0  0  0  2  0  0  0  0  0  0
  181.4480  179.1070  136.4210 C   0  0  0  0  0  2  0  0  0  0  0  0
  183.1900  173.9930  137.2810 C   0  0  0  0  0  2  0  0  0  0  0  0
  184.0590  172.7490  137.3180 C   0  0  0  0  0  1  0  0  0  0  0  0
  188.3050  177.2450  138.8800 C   0  0  2  0  0  3  0  0  0  0  0  0
  188.0680  178.6840  140.7680 O   0  0  0  0  0  0  0  0  0  0  0  0
  188.6430  177.6800  140.2750 C   0  0  0  0  0  0  0  0  0  0  0  0
  189.6180  176.9770  141.0410 N   0  0  0  0  0  1  0  0  0  0  0  0
  189.3920  176.3650  138.2790 C   0  0  0  0  0  2  0  0  0  0  0  0
  187.5740  174.7400  137.6920 F   0  0  0  0  0  0  0  0  0  0  0  0
  189.7710  174.3530  136.7340 C   0  0  0  0  0  2  0  0  0  0  0  0
  188.7840  175.3160  137.3500 C   0  0  2  0  0  0  0  0  0  0  0  0
  190.0470  176.4710  135.4680 C   0  0  0  0  0  1  0  0  0  0  0  0
  189.0620  175.3780  135.8540 C   0  0  1  0  0  3  0  0  0  0  0  0
  1  4  1  0  0  0  0
  1 13  1  0  0  0  0
  2  5  1  0  0  0  0
  2 14  1  0  0  0  0
  3  1  1  0  0  0  0
  4  2  2  0  0  0  0
  5  9  1  6  0  0  0
  6 17  1  6  0  0  0
  6 14  1  0  0  0  0
  7 18  1  6  0  0  0
  7  9  1  0  0  0  0
  7  6  1  0  0  0  0
  8 10  2  0  0  0  0
  8  4  1  0  0  0  0
 10 15  1  0  0  0  0
 11  8  1  0  0  0  0
 12 13  2  0  0  0  0
 13 23  1  0  0  0  0
 15 21  1  0  0  0  0
 15  5  1  0  0  0  0
 16 11  1  0  0  0  0
 16  3  1  0  0  0  0
 19 20  1  0  0  0  0
 19 18  1  0  0  0  0
 20 18  1  0  0  0  0
 21 22  1  0  0  0  0
 23 27  1  6  0  0  0
 23 25  1  0  0  0  0
 25 24  2  0  0  0  0
 25 26  1  0  0  0  0
 29 30  1  0  0  0  0
 30 28  1  1  0  0  0
 30 27  1  0  0  0  0
 32 31  1  1  0  0  0
 32 29  1  0  0  0  0
 32 30  1  0  0  0  0
M  END
>  <MODEL>
2

>  <REMARK>
 VINA RESULT:      -3.3      2.573      4.331
  Name = 
  6 active torsions:
  status: ('A' for Active; 'I' for Inactive)
    1  A    between atoms: C_9  and  C_12
    2  A    between atoms: C_13  and  N_29
    3  A    between atoms: C_15  and  C_20
    4  A    between atoms: C_16  and  C_20
    5  A    between atoms: C_16  and  C_22
    6  A    between atoms: C_16  and  C_27
                            x       y       z     vdW  Elec       q    Type
                         _______ _______ _______ _____ _____    ______ ____

>  <TORSDO>
F 6

$$$$
=
 OpenBabel10262421033D

 32 36  0  0  1  0  0  0  0  0999 V2000
  183.9550  178.3890  140.0300 N   0  0  0  0  0  0  0  0  0  0  0  0
  181.6950  177.9560  140.8790 C   0  0  0  0  0  0  0  0  0  0  0  0
  184.7230  178.4140  138.7730 C   0  0  0  0  0  2  0  0  0  0  0  0
  182.7580  177.5840  140.1330 C   0  0  0  0  0  0  0  0  0  0  0  0
  180.4480  177.1040  140.9680 C   0  0  1  0  0  3  0  0  0  0  0  0
  180.3270  180.1580  140.2270 C   0  0  1  0  0  3  0  0  0  0  0  0
  179.5110  179.0430  139.5280 C   0  0  2  0  0  3  0  0  0  0  0  0
  182.6790  176.3740  139.2920 C   0  0  0  0  0  0  0  0  0  0  0  0
  179.2040  177.8650  140.4690 C   0  0  0  0  0  2  0  0  0  0  0  0
  181.6520  175.5370  139.3860 C   0  0  0  0  0  3  0  0  0  0  0  0
  183.7580  176.1340  138.2930 C   0  0  0  0  0  2  0  0  0  0  0  0
  185.5260  179.7590  141.0910 O   0  0  0  0  0  0  0  0  0  0  0  0
  184.6330  178.8730  141.2050 C   0  0  0  0  0  0  0  0  0  0  0  0
  181.5260  179.6230  141.5160 S   0  0  0  0  0  0  0  0  0  0  0  0
  180.5810  175.8050  140.2970 N   0  0  0  0  0  0  0  0  0  0  0  0
  184.1650  177.4760  137.6940 C   0  0  0  0  0  2  0  0  0  0  0  0
  180.9390  181.0040  139.3170 F   0  0  0  0  0  0  0  0  0  0  0  0
  180.1460  178.5730  138.2200 C   0  0  0  0  0  3  0  0  0  0  0  0
  179.1980  177.6390  137.4910 C   0  0  0  0  0  2  0  0  0  0  0  0
  179.3260  179.0810  137.0490 C   0  0  0  0  0  2  0  0  0  0  0  0
  179.5530  174.7950  140.4960 C   0  0  0  0  0  2  0  0  0  0  0  0
  179.2020  174.1370  139.1740 C   0  0  0  0  0  1  0  0  0  0  0  0
  184.3690  178.2450  142.5470 C   0  0  2  0  0  3  0  0  0  0  0  0
  184.9300  180.3140  143.5940 O   0  0  0  0  0  0  0  0  0  0  0  0
  184.2650  179.2490  143.6560 C   0  0  0  0  0  0  0  0  0  0  0  0
  183.4310  179.0030  144.7850 N   0  0  0  0  0  1  0  0  0  0  0  0
  185.4080  177.1730  142.8450 C   0  0  0  0  0  2  0  0  0  0  0  0
  187.2200  178.8060  142.2600 F   0  0  0  0  0  0  0  0  0  0  0  0
  187.8550  176.8430  143.5400 C   0  0  0  0  0  2  0  0  0  0  0  0
  186.7740  177.8040  143.1030 C   0  0  2  0  0  0  0  0  0  0  0  0
  186.4300  177.1830  145.5450 C   0  0  0  0  0  1  0  0  0  0  0  0
  187.3170  177.8780  144.5240 C   0  0  1  0  0  3  0  0  0  0  0  0
  1  4  1  0  0  0  0
  1 13  1  0  0  0  0
  2  5  1  0  0  0  0
  2 14  1  0  0  0  0
  3  1  1  0  0  0  0
  4  2  2  0  0  0  0
  5  9  1  6  0  0  0
  6 17  1  6  0  0  0
  6 14  1  0  0  0  0
  7 18  1  6  0  0  0
  7  6  1  0  0  0  0
  7  9  1  0  0  0  0
  8 10  2  0  0  0  0
  8  4  1  0  0  0  0
 10 15  1  0  0  0  0
 11  8  1  0  0  0  0
 12 13  2  0  0  0  0
 13 23  1  0  0  0  0
 15 21  1  0  0  0  0
 15  5  1  0  0  0  0
 16 11  1  0  0  0  0
 16  3  1  0  0  0  0
 19 18  1  0  0  0  0
 20 19  1  0  0  0  0
 20 18  1  0  0  0  0
 22 21  1  0  0  0  0
 23 27  1  1  0  0  0
 23 25  1  0  0  0  0
 24 25  2  0  0  0  0
 25 26  1  0  0  0  0
 27 30  1  0  0  0  0
 29 32  1  0  0  0  0
 30 28  1  6  0  0  0
 30 29  1  0  0  0  0
 30 32  1  0  0  0  0
 32 31  1  1  0  0  0
M  END
>  <MODEL>
3

>  <REMARK>
 VINA RESULT:      -2.9      3.690      5.676
  Name = 
  6 active torsions:
  status: ('A' for Active; 'I' for Inactive)
    1  A    between atoms: C_9  and  C_12
    2  A    between atoms: C_13  and  N_29
    3  A    between atoms: C_15  and  C_20
    4  A    between atoms: C_16  and  C_20
    5  A    between atoms: C_16  and  C_22
    6  A    between atoms: C_16  and  C_27
                            x       y       z     vdW  Elec       q    Type
                         _______ _______ _______ _____ _____    ______ ____

>  <TORSDO>
F 6

$$$$
=
 OpenBabel10262421033D

 32 36  0  0  1  0  0  0  0  0999 V2000
  186.2350  176.1950  135.7460 N   0  0  0  0  0  0  0  0  0  0  0  0
  187.8850  175.3700  137.3630 C   0  0  0  0  0  0  0  0  0  0  0  0
  186.1150  177.1040  134.5940 C   0  0  0  0  0  2  0  0  0  0  0  0
  187.2850  176.3950  136.7220 C   0  0  0  0  0  0  0  0  0  0  0  0
  188.9860  175.5980  138.3750 C   0  0  1  0  0  3  0  0  0  0  0  0
  189.3270  173.6010  135.9690 C   0  0  1  0  0  3  0  0  0  0  0  0
  190.4060  174.6010  136.4510 C   0  0  2  0  0  3  0  0  0  0  0  0
  187.7730  177.7730  136.9200 C   0  0  0  0  0  0  0  0  0  0  0  0
  190.2950  174.9020  137.9560 C   0  0  0  0  0  2  0  0  0  0  0  0
  188.6750  178.0560  137.8530 C   0  0  0  0  0  3  0  0  0  0  0  0
  187.2670  178.8410  136.0130 C   0  0  0  0  0  2  0  0  0  0  0  0
  184.3110  175.0290  135.1090 O   0  0  0  0  0  0  0  0  0  0  0  0
  185.0860  175.3780  136.0420 C   0  0  0  0  0  0  0  0  0  0  0  0
  187.6940  173.6720  136.8160 S   0  0  0  0  0  0  0  0  0  0  0  0
  189.2120  177.0170  138.6780 N   0  0  0  0  0  0  0  0  0  0  0  0
  187.1290  178.2560  134.6110 C   0  0  0  0  0  2  0  0  0  0  0  0
  189.1620  173.6350  134.5950 F   0  0  0  0  0  0  0  0  0  0  0  0
  190.4440  175.8820  135.6190 C   0  0  0  0  0  3  0  0  0  0  0  0
  191.5970  176.7580  136.0690 C   0  0  0  0  0  2  0  0  0  0  0  0
  191.7280  175.9240  134.8130 C   0  0  0  0  0  2  0  0  0  0  0  0
  190.0740  177.3750  139.7940 C   0  0  0  0  0  2  0  0  0  0  0  0
  189.2580  177.5000  141.0680 C   0  0  0  0  0  1  0  0  0  0  0  0
  184.7390  175.0450  137.4680 C   0  0  2  0  0  3  0  0  0  0  0  0
  185.4960  172.9540  138.3320 O   0  0  0  0  0  0  0  0  0  0  0  0
  184.5950  173.5710  137.7080 C   0  0  0  0  0  0  0  0  0  0  0  0
  183.4570  172.8630  137.2250 N   0  0  0  0  0  1  0  0  0  0  0  0
  183.5030  175.8170  137.9080 C   0  0  0  0  0  2  0  0  0  0  0  0
  183.8720  177.9990  136.7280 F   0  0  0  0  0  0  0  0  0  0  0  0
  184.7840  177.7710  138.9660 C   0  0  0  0  0  2  0  0  0  0  0  0
  183.7850  177.3180  137.9280 C   0  0  2  0  0  0  0  0  0  0  0  0
  182.6870  177.3390  140.2230 C   0  0  0  0  0  1  0  0  0  0  0  0
  183.3160  178.1600  139.1080 C   0  0  1  0  0  3  0  0  0  0  0  0
  1 13  1  0  0  0  0
  1  4  1  0  0  0  0
  2  5  1  0  0  0  0
  3 16  1  0  0  0  0
  3  1  1  0  0  0  0
  4  8  1  0  0  0  0
  4  2  2  0  0  0  0
  5  9  1  6  0  0  0
  5 15  1  0  0  0  0
  6 17  1  6  0  0  0
  6  7  1  0  0  0  0
  6 14  1  0  0  0  0
  7 18  1  6  0  0  0
  7  9  1  0  0  0  0
  8 10  2  0  0  0  0
 10 15  1  0  0  0  0
 11  8  1  0  0  0  0
 12 13  2  0  0  0  0
 13 23  1  0  0  0  0
 14  2  1  0  0  0  0
 15 21  1  0  0  0  0
 16 11  1  0  0  0  0
 18 19  1  0  0  0  0
 20 18  1  0  0  0  0
 20 19  1  0  0  0  0
 21 22  1  0  0  0  0
 23 25  1  0  0  0  0
 23 27  1  6  0  0  0
 25 24  2  0  0  0  0
 26 25  1  0  0  0  0
 27 30  1  0  0  0  0
 29 32  1  0  0  0  0
 30 28  1  6  0  0  0
 30 29  1  0  0  0  0
 30 32  1  0  0  0  0
 32 31  1  1  0  0  0
M  END
>  <MODEL>
4

>  <REMARK>
 VINA RESULT:      -2.3      3.282      7.134
  Name = 
  6 active torsions:
  status: ('A' for Active; 'I' for Inactive)
    1  A    between atoms: C_9  and  C_12
    2  A    between atoms: C_13  and  N_29
    3  A    between atoms: C_15  and  C_20
    4  A    between atoms: C_16  and  C_20
    5  A    between atoms: C_16  and  C_22
    6  A    between atoms: C_16  and  C_27
                            x       y       z     vdW  Elec       q    Type
                         _______ _______ _______ _____ _____    ______ ____

>  <TORSDO>
F 6

$$$$
=
 OpenBabel10262421033D

 32 36  0  0  1  0  0  0  0  0999 V2000
  191.0360  177.2100  139.9370 N   0  0  0  0  0  0  0  0  0  0  0  0
  188.9380  176.5600  138.8430 C   0  0  0  0  0  0  0  0  0  0  0  0
  192.4500  177.4840  139.6330 C   0  0  0  0  0  2  0  0  0  0  0  0
  190.2560  176.3620  139.0610 C   0  0  0  0  0  0  0  0  0  0  0  0
  188.1420  175.6670  137.9180 C   0  0  1  0  0  3  0  0  0  0  0  0
  188.1180  178.8000  137.6360 C   0  0  1  0  0  3  0  0  0  0  0  0
  188.2160  177.8040  136.4550 C   0  0  2  0  0  3  0  0  0  0  0  0
  190.9780  175.3220  138.3040 C   0  0  0  0  0  0  0  0  0  0  0  0
  187.5180  176.4660  136.7570 C   0  0  0  0  0  2  0  0  0  0  0  0
  190.3290  174.4500  137.5410 C   0  0  0  0  0  3  0  0  0  0  0  0
  192.4660  175.3000  138.3740 C   0  0  0  0  0  2  0  0  0  0  0  0
  191.1650  178.4130  141.9380 O   0  0  0  0  0  0  0  0  0  0  0  0
  190.6010  177.4950  141.2810 C   0  0  0  0  0  0  0  0  0  0  0  0
  188.1180  178.0790  139.3290 S   0  0  0  0  0  0  0  0  0  0  0  0
  188.9040  174.5150  137.4210 N   0  0  0  0  0  0  0  0  0  0  0  0
  192.9680  176.7400  138.3950 C   0  0  0  0  0  2  0  0  0  0  0  0
  189.0560  179.8140  137.5410 F   0  0  0  0  0  0  0  0  0  0  0  0
  189.6500  177.5970  135.9680 C   0  0  0  0  0  3  0  0  0  0  0  0
  189.6540  176.7320  134.7230 C   0  0  0  0  0  2  0  0  0  0  0  0
  189.8160  178.2310  134.6000 C   0  0  0  0  0  2  0  0  0  0  0  0
  188.2050  173.4550  136.7110 C   0  0  0  0  0  2  0  0  0  0  0  0
  188.8250  173.2420  135.3420 C   0  0  0  0  0  1  0  0  0  0  0  0
  189.5660  176.6260  141.9450 C   0  0  2  0  0  3  0  0  0  0  0  0
  188.6200  178.6610  142.7550 O   0  0  0  0  0  0  0  0  0  0  0  0
  188.4950  177.4150  142.6380 C   0  0  0  0  0  0  0  0  0  0  0  0
  187.3470  176.7650  143.1760 N   0  0  0  0  0  1  0  0  0  0  0  0
  190.2330  175.6260  142.8790 C   0  0  0  0  0  2  0  0  0  0  0  0
  192.4700  176.7520  142.7470 F   0  0  0  0  0  0  0  0  0  0  0  0
  191.9530  175.5290  144.7790 C   0  0  0  0  0  2  0  0  0  0  0  0
  191.4600  176.2460  143.5440 C   0  0  2  0  0  0  0  0  0  0  0  0
  189.9360  176.7800  145.5090 C   0  0  0  0  0  1  0  0  0  0  0  0
  191.3260  176.9140  144.9060 C   0  0  1  0  0  3  0  0  0  0  0  0
  1 13  1  0  0  0  0
  2  4  2  0  0  0  0
  2 14  1  0  0  0  0
  3  1  1  0  0  0  0
  4  1  1  0  0  0  0
  5  9  1  6  0  0  0
  5  2  1  0  0  0  0
  6 17  1  1  0  0  0
  6 14  1  0  0  0  0
  7 18  1  1  0  0  0
  7  9  1  0  0  0  0
  7  6  1  0  0  0  0
  8 11  1  0  0  0  0
  8  4  1  0  0  0  0
 10  8  2  0  0  0  0
 11 16  1  0  0  0  0
 13 12  2  0  0  0  0
 13 23  1  0  0  0  0
 15 10  1  0  0  0  0
 15  5  1  0  0  0  0
 16  3  1  0  0  0  0
 19 18  1  0  0  0  0
 20 19  1  0  0  0  0
 20 18  1  0  0  0  0
 21 15  1  0  0  0  0
 22 21  1  0  0  0  0
 23 25  1  0  0  0  0
 23 27  1  1  0  0  0
 25 24  2  0  0  0  0
 25 26  1  0  0  0  0
 27 30  1  0  0  0  0
 29 32  1  0  0  0  0
 30 28  1  6  0  0  0
 30 29  1  0  0  0  0
 30 32  1  0  0  0  0
 32 31  1  1  0  0  0
M  END
>  <MODEL>
5

>  <REMARK>
 VINA RESULT:      -2.1      6.025      9.045
  Name = 
  6 active torsions:
  status: ('A' for Active; 'I' for Inactive)
    1  A    between atoms: C_9  and  C_12
    2  A    between atoms: C_13  and  N_29
    3  A    between atoms: C_15  and  C_20
    4  A    between atoms: C_16  and  C_20
    5  A    between atoms: C_16  and  C_22
    6  A    between atoms: C_16  and  C_27
                            x       y       z     vdW  Elec       q    Type
                         _______ _______ _______ _____ _____    ______ ____

>  <TORSDO>
F 6

$$$$
=
 OpenBabel10262421033D

 32 36  0  0  1  0  0  0  0  0999 V2000
  183.7230  176.7790  137.5290 N   0  0  0  0  0  0  0  0  0  0  0  0
  181.4090  177.2400  138.2010 C   0  0  0  0  0  0  0  0  0  0  0  0
  184.5170  175.8300  136.7310 C   0  0  0  0  0  2  0  0  0  0  0  0
  182.4400  176.3790  138.0670 C   0  0  0  0  0  0  0  0  0  0  0  0
  180.0730  176.8020  138.7590 C   0  0  1  0  0  3  0  0  0  0  0  0
  180.3110  178.3380  136.0240 C   0  0  1  0  0  3  0  0  0  0  0  0
  179.3920  177.1180  136.2800 C   0  0  2  0  0  3  0  0  0  0  0  0
  182.2460  174.9470  138.3660 C   0  0  0  0  0  0  0  0  0  0  0  0
  178.9340  177.0260  137.7460 C   0  0  0  0  0  2  0  0  0  0  0  0
  181.1310  174.5090  138.9380 C   0  0  0  0  0  3  0  0  0  0  0  0
  183.3150  173.9890  137.9660 C   0  0  0  0  0  2  0  0  0  0  0  0
  185.4110  178.3920  137.4100 O   0  0  0  0  0  0  0  0  0  0  0  0
  184.4230  177.9280  138.0430 C   0  0  0  0  0  0  0  0  0  0  0  0
  181.4130  178.8490  137.4080 S   0  0  0  0  0  0  0  0  0  0  0  0
  180.0760  175.4220  139.2590 N   0  0  0  0  0  0  0  0  0  0  0  0
  183.8830  174.4370  136.6240 C   0  0  0  0  0  2  0  0  0  0  0  0
  181.0340  178.2090  134.8510 F   0  0  0  0  0  0  0  0  0  0  0  0
  180.0000  175.8030  135.7930 C   0  0  0  0  0  3  0  0  0  0  0  0
  179.0180  174.6680  136.0080 C   0  0  0  0  0  2  0  0  0  0  0  0
  179.1860  175.2690  134.6300 C   0  0  0  0  0  2  0  0  0  0  0  0
  178.9370  174.9430  140.0270 C   0  0  0  0  0  2  0  0  0  0  0  0
  179.3310  173.7290  140.8480 C   0  0  0  0  0  1  0  0  0  0  0  0
  184.0590  178.5000  139.3870 C   0  0  2  0  0  3  0  0  0  0  0  0
  184.1930  180.7890  138.7260 O   0  0  0  0  0  0  0  0  0  0  0  0
  183.5210  179.8980  139.3040 C   0  0  0  0  0  0  0  0  0  0  0  0
  182.2620  180.2280  139.8870 N   0  0  0  0  0  1  0  0  0  0  0  0
  185.2390  178.4000  140.3440 C   0  0  0  0  0  2  0  0  0  0  0  0
  183.4550  177.8730  142.0260 F   0  0  0  0  0  0  0  0  0  0  0  0
  185.2370  179.3690  142.7180 C   0  0  0  0  0  2  0  0  0  0  0  0
  184.7540  178.2820  141.7870 C   0  0  2  0  0  0  0  0  0  0  0  0
  187.1840  177.8600  142.4080 C   0  0  0  0  0  1  0  0  0  0  0  0
  185.7450  177.9410  142.8930 C   0  0  1  0  0  3  0  0  0  0  0  0
  1 13  1  0  0  0  0
  1  4  1  0  0  0  0
  2  5  1  0  0  0  0
  3  1  1  0  0  0  0
  4  2  2  0  0  0  0
  4  8  1  0  0  0  0
  5  9  1  6  0  0  0
  5 15  1  0  0  0  0
  6 17  1  6  0  0  0
  6  7  1  0  0  0  0
  6 14  1  0  0  0  0
  7 18  1  1  0  0  0
  7  9  1  0  0  0  0
  8 10  2  0  0  0  0
 10 15  1  0  0  0  0
 11  8  1  0  0  0  0
 12 13  2  0  0  0  0
 13 23  1  0  0  0  0
 14  2  1  0  0  0  0
 15 21  1  0  0  0  0
 16  3  1  0  0  0  0
 16 11  1  0  0  0  0
 18 19  1  0  0  0  0
 20 18  1  0  0  0  0
 20 19  1  0  0  0  0
 21 22  1  0  0  0  0
 23 27  1  1  0  0  0
 24 25  2  0  0  0  0
 25 23  1  0  0  0  0
 25 26  1  0  0  0  0
 27 30  1  0  0  0  0
 29 32  1  0  0  0  0
 30 28  1  1  0  0  0
 30 29  1  0  0  0  0
 30 32  1  0  0  0  0
 32 31  1  6  0  0  0
M  END
>  <MODEL>
6

>  <REMARK>
 VINA RESULT:      -1.9      2.675      5.104
  Name = 
  6 active torsions:
  status: ('A' for Active; 'I' for Inactive)
    1  A    between atoms: C_9  and  C_12
    2  A    between atoms: C_13  and  N_29
    3  A    between atoms: C_15  and  C_20
    4  A    between atoms: C_16  and  C_20
    5  A    between atoms: C_16  and  C_22
    6  A    between atoms: C_16  and  C_27
                            x       y       z     vdW  Elec       q    Type
                         _______ _______ _______ _____ _____    ______ ____

>  <TORSDO>
F 6

$$$$
=
 OpenBabel10262421033D

 32 36  0  0  1  0  0  0  0  0999 V2000
  180.5690  179.7400  140.1770 N   0  0  0  0  0  0  0  0  0  0  0  0
  181.7740  177.6570  139.7030 C   0  0  0  0  0  0  0  0  0  0  0  0
  180.1540  180.9970  139.5310 C   0  0  0  0  0  2  0  0  0  0  0  0
  181.7070  179.0050  139.6700 C   0  0  0  0  0  0  0  0  0  0  0  0
  182.9690  176.9050  139.1610 C   0  0  1  0  0  3  0  0  0  0  0  0
  180.0290  176.2100  138.2840 C   0  0  1  0  0  3  0  0  0  0  0  0
  181.2430  176.2970  137.3270 C   0  0  2  0  0  3  0  0  0  0  0  0
  182.7680  179.7770  138.9940 C   0  0  0  0  0  0  0  0  0  0  0  0
  182.5670  175.9430  138.0260 C   0  0  0  0  0  2  0  0  0  0  0  0
  183.8830  179.1910  138.5730 C   0  0  0  0  0  3  0  0  0  0  0  0
  182.5400  181.2290  138.7490 C   0  0  0  0  0  2  0  0  0  0  0  0
  178.9300  179.9740  141.8290 O   0  0  0  0  0  0  0  0  0  0  0  0
  180.0530  179.4980  141.5000 C   0  0  0  0  0  0  0  0  0  0  0  0
  180.3310  176.6480  140.0460 S   0  0  0  0  0  0  0  0  0  0  0  0
  184.0710  177.7830  138.7480 N   0  0  0  0  0  0  0  0  0  0  0  0
  181.0740  181.4300  138.3810 C   0  0  0  0  0  2  0  0  0  0  0  0
  178.9310  176.8960  137.7960 F   0  0  0  0  0  0  0  0  0  0  0  0
  181.3300  177.6370  136.5960 C   0  0  0  0  0  3  0  0  0  0  0  0
  182.4280  177.5860  135.5510 C   0  0  0  0  0  2  0  0  0  0  0  0
  180.9810  177.4390  135.1340 C   0  0  0  0  0  2  0  0  0  0  0  0
  185.3620  177.1970  138.4250 C   0  0  0  0  0  2  0  0  0  0  0  0
  185.9610  177.8820  137.2110 C   0  0  0  0  0  1  0  0  0  0  0  0
  180.8950  178.7880  142.5260 C   0  0  2  0  0  3  0  0  0  0  0  0
  179.9610  176.9960  143.7940 O   0  0  0  0  0  0  0  0  0  0  0  0
  180.0920  178.2400  143.6680 C   0  0  0  0  0  0  0  0  0  0  0  0
  179.4650  179.1150  144.6010 N   0  0  0  0  0  1  0  0  0  0  0  0
  182.0230  179.6910  143.0030 C   0  0  0  0  0  2  0  0  0  0  0  0
  182.3980  178.1850  144.9730 F   0  0  0  0  0  0  0  0  0  0  0  0
  184.2060  179.6790  144.3490 C   0  0  0  0  0  2  0  0  0  0  0  0
  182.9510  178.9380  143.9540 C   0  0  2  0  0  0  0  0  0  0  0  0
  184.6200  178.8800  142.0350 C   0  0  0  0  0  1  0  0  0  0  0  0
  184.3040  178.4450  143.4580 C   0  0  1  0  0  3  0  0  0  0  0  0
  1 13  1  0  0  0  0
  2 14  1  0  0  0  0
  3  1  1  0  0  0  0
  4  2  2  0  0  0  0
  4  1  1  0  0  0  0
  5  9  1  6  0  0  0
  5  2  1  0  0  0  0
  6 17  1  6  0  0  0
  6 14  1  0  0  0  0
  7 18  1  1  0  0  0
  7  9  1  0  0  0  0
  7  6  1  0  0  0  0
  8  4  1  0  0  0  0
 10 15  1  0  0  0  0
 10  8  2  0  0  0  0
 11  8  1  0  0  0  0
 13 12  2  0  0  0  0
 13 23  1  0  0  0  0
 15  5  1  0  0  0  0
 16 11  1  0  0  0  0
 16  3  1  0  0  0  0
 19 18  1  0  0  0  0
 20 19  1  0  0  0  0
 20 18  1  0  0  0  0
 21 15  1  0  0  0  0
 22 21  1  0  0  0  0
 23 27  1  1  0  0  0
 23 25  1  0  0  0  0
 25 24  2  0  0  0  0
 25 26  1  0  0  0  0
 27 30  1  0  0  0  0
 30 29  1  0  0  0  0
 30 28  1  1  0  0  0
 32 31  1  6  0  0  0
 32 30  1  0  0  0  0
 32 29  1  0  0  0  0
M  END
>  <MODEL>
7

>  <REMARK>
 VINA RESULT:      -1.8      3.882      6.983
  Name = 
  6 active torsions:
  status: ('A' for Active; 'I' for Inactive)
    1  A    between atoms: C_9  and  C_12
    2  A    between atoms: C_13  and  N_29
    3  A    between atoms: C_15  and  C_20
    4  A    between atoms: C_16  and  C_20
    5  A    between atoms: C_16  and  C_22
    6  A    between atoms: C_16  and  C_27
                            x       y       z     vdW  Elec       q    Type
                         _______ _______ _______ _____ _____    ______ ____

>  <TORSDO>
F 6

$$$$
=
 OpenBabel10262421033D

 32 36  0  0  1  0  0  0  0  0999 V2000
  180.8290  176.1710  137.4940 N   0  0  0  0  0  0  0  0  0  0  0  0
  182.2280  178.0140  138.3100 C   0  0  0  0  0  0  0  0  0  0  0  0
  179.5740  175.4630  137.7980 C   0  0  0  0  0  2  0  0  0  0  0  0
  181.5360  176.8780  138.5410 C   0  0  0  0  0  0  0  0  0  0  0  0
  182.9540  178.7430  139.4190 C   0  0  1  0  0  3  0  0  0  0  0  0
  180.9350  180.2120  137.5060 C   0  0  1  0  0  3  0  0  0  0  0  0
  181.0130  180.4160  139.0390 C   0  0  2  0  0  3  0  0  0  0  0  0
  181.3820  176.3790  139.9200 C   0  0  0  0  0  0  0  0  0  0  0  0
  182.4300  180.1820  139.5900 C   0  0  0  0  0  2  0  0  0  0  0  0
  182.0590  176.9180  140.9270 C   0  0  0  0  0  3  0  0  0  0  0  0
  180.4070  175.2800  140.1710 C   0  0  0  0  0  2  0  0  0  0  0  0
  180.7920  175.4200  135.2800 O   0  0  0  0  0  0  0  0  0  0  0  0
  181.4820  175.8190  136.2590 C   0  0  0  0  0  0  0  0  0  0  0  0
  182.0470  178.9360  136.7820 S   0  0  0  0  0  0  0  0  0  0  0  0
  182.9440  178.0190  140.6950 N   0  0  0  0  0  0  0  0  0  0  0  0
  179.1880  175.5070  139.2830 C   0  0  0  0  0  2  0  0  0  0  0  0
  179.6340  180.0230  137.0700 F   0  0  0  0  0  0  0  0  0  0  0  0
  179.9680  179.6010  139.8010 C   0  0  0  0  0  3  0  0  0  0  0  0
  180.0170  179.9480  141.2760 C   0  0  0  0  0  2  0  0  0  0  0  0
  178.9340  180.5370  140.3980 C   0  0  0  0  0  2  0  0  0  0  0  0
  183.7920  178.4850  141.7820 C   0  0  0  0  0  2  0  0  0  0  0  0
  182.9860  178.6070  143.0610 C   0  0  0  0  0  1  0  0  0  0  0  0
  182.9850  175.8070  136.1710 C   0  0  2  0  0  3  0  0  0  0  0  0
  184.6580  176.4700  134.6060 O   0  0  0  0  0  0  0  0  0  0  0  0
  183.5160  176.6910  135.0820 C   0  0  0  0  0  0  0  0  0  0  0  0
  182.7460  177.7860  134.5940 N   0  0  0  0  0  1  0  0  0  0  0  0
  183.4980  174.3790  136.0480 C   0  0  0  0  0  2  0  0  0  0  0  0
  183.7620  174.5910  138.5330 F   0  0  0  0  0  0  0  0  0  0  0  0
  185.4990  173.4050  137.3220 C   0  0  0  0  0  2  0  0  0  0  0  0
  184.0730  173.8970  137.3780 C   0  0  2  0  0  0  0  0  0  0  0  0
  184.1380  171.5780  136.3340 C   0  0  0  0  0  1  0  0  0  0  0  0
  184.3670  172.4160  137.5820 C   0  0  1  0  0  3  0  0  0  0  0  0
  1  3  1  0  0  0  0
  1  4  1  0  0  0  0
  2  4  2  0  0  0  0
  2  5  1  0  0  0  0
  3 16  1  0  0  0  0
  4  8  1  0  0  0  0
  5  9  1  1  0  0  0
  5 15  1  0  0  0  0
  6 17  1  1  0  0  0
  6  7  1  0  0  0  0
  7  9  1  0  0  0  0
  7 18  1  1  0  0  0
  8 11  1  0  0  0  0
  8 10  2  0  0  0  0
 12 13  2  0  0  0  0
 13  1  1  0  0  0  0
 14  6  1  0  0  0  0
 14  2  1  0  0  0  0
 15 10  1  0  0  0  0
 15 21  1  0  0  0  0
 16 11  1  0  0  0  0
 18 20  1  0  0  0  0
 18 19  1  0  0  0  0
 20 19  1  0  0  0  0
 21 22  1  0  0  0  0
 23 27  1  6  0  0  0
 23 13  1  0  0  0  0
 24 25  2  0  0  0  0
 25 23  1  0  0  0  0
 26 25  1  0  0  0  0
 27 30  1  0  0  0  0
 29 30  1  0  0  0  0
 29 32  1  0  0  0  0
 30 32  1  0  0  0  0
 30 28  1  1  0  0  0
 32 31  1  6  0  0  0
M  END
>  <MODEL>
8

>  <REMARK>
 VINA RESULT:      -1.6      2.079      3.469
  Name = 
  6 active torsions:
  status: ('A' for Active; 'I' for Inactive)
    1  A    between atoms: C_9  and  C_12
    2  A    between atoms: C_13  and  N_29
    3  A    between atoms: C_15  and  C_20
    4  A    between atoms: C_16  and  C_20
    5  A    between atoms: C_16  and  C_22
    6  A    between atoms: C_16  and  C_27
                            x       y       z     vdW  Elec       q    Type
                         _______ _______ _______ _____ _____    ______ ____

>  <TORSDO>
F 6

$$$$
