=
 OpenBabel10262419353D

 31 35  0  0  1  0  0  0  0  0999 V2000
  187.3580  178.3220  146.6670 C   0  0  0  0  0  0  0  0  0  0  0  0
  186.9090  177.3710  142.9760 C   0  0  1  0  0  3  0  0  0  0  0  0
  188.3490  177.0410  142.6340 C   0  0  0  0  0  0  0  0  0  0  0  0
  190.0520  175.9860  144.0630 C   0  0  0  0  0  3  0  0  0  0  0  0
  186.6770  177.8470  144.3880 C   0  0  0  0  0  0  0  0  0  0  0  0
  186.0580  178.7450  146.9690 C   0  0  0  0  0  3  0  0  0  0  0  0
  188.8890  175.7510  143.1640 C   0  0  0  0  0  2  0  0  0  0  0  0
  184.9290  178.8830  142.3930 N   0  0  0  0  0  0  0  0  0  0  0  0
  188.3160  178.3440  147.6230 F   0  0  0  0  0  0  0  0  0  0  0  0
  188.4430  178.9100  140.9930 C   0  0  0  0  0  2  0  0  0  0  0  0
  191.1860  176.5310  143.6270 C   0  0  0  0  0  3  0  0  0  0  0  0
  184.3710  178.2560  143.6010 C   0  0  0  0  0  2  0  0  0  0  0  0
  186.2250  178.3160  141.9520 C   0  0  1  0  0  3  0  0  0  0  0  0
  187.6690  177.8730  145.3790 C   0  0  0  0  0  3  0  0  0  0  0  0
  191.3840  177.0010  142.2860 N   0  0  0  0  0  0  0  0  0  0  0  0
  185.3840  178.2730  144.6970 C   0  0  0  0  0  0  0  0  0  0  0  0
  185.0680  178.7210  145.9830 C   0  0  0  0  0  3  0  0  0  0  0  0
  187.1730  179.4610  141.6230 C   0  0  0  0  0  2  0  0  0  0  0  0
  189.0870  177.8220  141.8130 C   0  0  0  0  0  0  0  0  0  0  0  0
  190.5070  177.5470  141.4910 C   0  0  0  0  0  3  0  0  0  0  0  0
  183.9840  178.6640  141.3070 C   0  0  0  0  0  2  0  0  0  0  0  0
  184.3450  180.1450  139.4610 O   0  0  0  0  0  1  0  0  0  0  0  0
  184.6630  178.8820  139.9590 C   0  0  2  0  0  3  0  0  0  0  0  0
  183.4820  175.8660  137.1260 C   0  0  0  0  0  0  0  0  0  0  0  0
  183.1330  177.0180  139.2260 C   0  0  0  0  0  3  0  0  0  0  0  0
  186.0760  178.4100  137.5350 F   0  0  0  0  0  0  0  0  0  0  0  0
  183.0030  174.6380  135.9720 Cl  0  0  0  0  0  0  0  0  0  0  0  0
  182.7500  176.0400  138.3040 C   0  0  0  0  0  3  0  0  0  0  0  0
  184.9850  177.6480  137.7930 C   0  0  0  0  0  0  0  0  0  0  0  0
  184.2550  177.8250  138.9780 C   0  0  0  0  0  0  0  0  0  0  0  0
  184.5990  176.6680  136.8710 C   0  0  0  0  0  3  0  0  0  0  0  0
  1  6  1  0  0  0  0
  1  9  1  0  0  0  0
  2  3  1  6  0  0  0
  2  5  1  0  0  0  0
  3  7  1  0  0  0  0
  5 16  2  0  0  0  0
  5 14  1  0  0  0  0
  7  4  1  0  0  0  0
  8 12  1  0  0  0  0
 10 18  1  0  0  0  0
 10 19  1  0  0  0  0
 11  4  2  0  0  0  0
 12 16  1  0  0  0  0
 13 18  1  1  0  0  0
 13  8  1  0  0  0  0
 13  2  1  0  0  0  0
 14  1  2  0  0  0  0
 15 11  1  0  0  0  0
 16 17  1  0  0  0  0
 17  6  2  0  0  0  0
 19  3  2  0  0  0  0
 20 19  1  0  0  0  0
 20 15  2  0  0  0  0
 21  8  1  0  0  0  0
 23 22  1  6  0  0  0
 23 21  1  0  0  0  0
 24 28  1  0  0  0  0
 26 29  1  0  0  0  0
 27 24  1  0  0  0  0
 28 25  2  0  0  0  0
 29 30  2  0  0  0  0
 30 25  1  0  0  0  0
 30 23  1  0  0  0  0
 31 24  2  0  0  0  0
 31 29  1  0  0  0  0
M  END
>  <MODEL>
1

>  <REMARK>
 VINA RESULT:      -9.0      0.000      0.000
  Name = 
  3 active torsions:
  status: ('A' for Active; 'I' for Inactive)
    1  A    between atoms: C_9  and  C_22
    2  A    between atoms: C_9  and  C_23
    3  A    between atoms: N_15  and  C_23
                            x       y       z     vdW  Elec       q    Type
                         _______ _______ _______ _____ _____    ______ ____

>  <TORSDO>
F 3

$$$$
=
 OpenBabel10262419353D

 31 35  0  0  1  0  0  0  0  0999 V2000
  193.0850  176.7490  137.9400 C   0  0  0  0  0  0  0  0  0  0  0  0
  189.4410  176.3440  139.0750 C   0  0  1  0  0  3  0  0  0  0  0  0
  188.7990  176.0650  137.7300 C   0  0  0  0  0  0  0  0  0  0  0  0
  189.7270  174.8130  135.8260 C   0  0  0  0  0  3  0  0  0  0  0  0
  190.9250  176.6110  139.0340 C   0  0  0  0  0  0  0  0  0  0  0  0
  193.6760  177.1250  139.1520 C   0  0  0  0  0  3  0  0  0  0  0  0
  189.0320  174.7120  137.1390 C   0  0  0  0  0  2  0  0  0  0  0  0
  189.4510  177.9270  141.0850 N   0  0  0  0  0  0  0  0  0  0  0  0
  193.8440  176.6310  136.8250 F   0  0  0  0  0  0  0  0  0  0  0  0
  187.4510  178.1530  137.8820 C   0  0  0  0  0  2  0  0  0  0  0  0
  189.1740  175.4130  134.7760 C   0  0  0  0  0  3  0  0  0  0  0  0
  190.6390  177.1320  141.4320 C   0  0  0  0  0  2  0  0  0  0  0  0
  188.7040  177.4280  139.9060 C   0  0  1  0  0  3  0  0  0  0  0  0
  191.7110  176.4920  137.8790 C   0  0  0  0  0  3  0  0  0  0  0  0
  187.9000  176.0730  134.8100 N   0  0  0  0  0  0  0  0  0  0  0  0
  191.5220  176.9900  140.2380 C   0  0  0  0  0  0  0  0  0  0  0  0
  192.8950  177.2460  140.3040 C   0  0  0  0  0  3  0  0  0  0  0  0
  188.3750  178.6080  139.0020 C   0  0  0  0  0  2  0  0  0  0  0  0
  187.9760  176.9570  137.1310 C   0  0  0  0  0  0  0  0  0  0  0  0
  187.3640  176.7290  135.8010 C   0  0  0  0  0  3  0  0  0  0  0  0
  188.5360  177.8690  142.2160 C   0  0  0  0  0  2  0  0  0  0  0  0
  188.1080  175.5990  142.8480 O   0  0  0  0  0  1  0  0  0  0  0  0
  188.9010  176.7100  143.1370 C   0  0  2  0  0  3  0  0  0  0  0  0
  188.4310  177.7980  147.2740 C   0  0  0  0  0  0  0  0  0  0  0  0
  187.4720  177.4420  145.0790 C   0  0  0  0  0  3  0  0  0  0  0  0
  191.0790  176.7800  144.9670 F   0  0  0  0  0  0  0  0  0  0  0  0
  188.2410  178.2410  148.9580 Cl  0  0  0  0  0  0  0  0  0  0  0  0
  187.3210  177.7940  146.4240 C   0  0  0  0  0  3  0  0  0  0  0  0
  189.8470  177.1020  145.4330 C   0  0  0  0  0  0  0  0  0  0  0  0
  188.7360  177.0980  144.5750 C   0  0  0  0  0  0  0  0  0  0  0  0
  189.6930  177.4540  146.7790 C   0  0  0  0  0  3  0  0  0  0  0  0
  1  6  1  0  0  0  0
  2  3  1  6  0  0  0
  2 13  1  0  0  0  0
  4  7  1  0  0  0  0
  5  2  1  0  0  0  0
  5 16  2  0  0  0  0
  6 17  2  0  0  0  0
  7  3  1  0  0  0  0
  8 12  1  0  0  0  0
  8 21  1  0  0  0  0
  9  1  1  0  0  0  0
 10 18  1  0  0  0  0
 11 15  1  0  0  0  0
 11  4  2  0  0  0  0
 13 18  1  6  0  0  0
 13  8  1  0  0  0  0
 14  1  2  0  0  0  0
 14  5  1  0  0  0  0
 15 20  2  0  0  0  0
 16 17  1  0  0  0  0
 16 12  1  0  0  0  0
 19  3  2  0  0  0  0
 19 10  1  0  0  0  0
 20 19  1  0  0  0  0
 21 23  1  0  0  0  0
 23 22  1  6  0  0  0
 23 30  1  0  0  0  0
 24 27  1  0  0  0  0
 25 28  1  0  0  0  0
 26 29  1  0  0  0  0
 28 24  2  0  0  0  0
 29 31  2  0  0  0  0
 30 25  2  0  0  0  0
 30 29  1  0  0  0  0
 31 24  1  0  0  0  0
M  END
>  <MODEL>
2

>  <REMARK>
 VINA RESULT:      -8.7      4.524      8.154
  Name = 
  3 active torsions:
  status: ('A' for Active; 'I' for Inactive)
    1  A    between atoms: C_9  and  C_22
    2  A    between atoms: C_9  and  C_23
    3  A    between atoms: N_15  and  C_23
                            x       y       z     vdW  Elec       q    Type
                         _______ _______ _______ _____ _____    ______ ____

>  <TORSDO>
F 3

$$$$
=
 OpenBabel10262419353D

 31 35  0  0  1  0  0  0  0  0999 V2000
  187.0070  178.3540  146.3900 C   0  0  0  0  0  0  0  0  0  0  0  0
  187.2160  177.3110  142.7020 C   0  0  1  0  0  3  0  0  0  0  0  0
  188.6990  177.0080  142.6200 C   0  0  0  0  0  0  0  0  0  0  0  0
  190.1540  176.0270  144.3450 C   0  0  0  0  0  3  0  0  0  0  0  0
  186.7360  177.8130  144.0410 C   0  0  0  0  0  0  0  0  0  0  0  0
  185.6660  178.7520  146.4540 C   0  0  0  0  0  3  0  0  0  0  0  0
  189.1660  175.7440  143.2680 C   0  0  0  0  0  2  0  0  0  0  0  0
  185.3350  178.7620  141.7510 N   0  0  0  0  0  0  0  0  0  0  0  0
  187.7870  178.4200  147.4950 F   0  0  0  0  0  0  0  0  0  0  0  0
  189.0360  178.8430  140.9710 C   0  0  0  0  0  2  0  0  0  0  0  0
  191.3330  176.5890  144.0960 C   0  0  0  0  0  3  0  0  0  0  0  0
  184.5910  178.1480  142.8620 C   0  0  0  0  0  2  0  0  0  0  0  0
  186.6980  178.2160  141.5520 C   0  0  1  0  0  3  0  0  0  0  0  0
  187.5430  177.8840  145.1860 C   0  0  0  0  0  3  0  0  0  0  0  0
  191.7490  177.0340  142.7960 N   0  0  0  0  0  0  0  0  0  0  0  0
  185.4010  178.2140  144.1140 C   0  0  0  0  0  0  0  0  0  0  0  0
  184.8600  178.6820  145.3150 C   0  0  0  0  0  3  0  0  0  0  0  0
  187.6650  179.3760  141.3610 C   0  0  0  0  0  2  0  0  0  0  0  0
  189.5510  177.7890  141.9170 C   0  0  0  0  0  0  0  0  0  0  0  0
  191.0100  177.5410  141.8490 C   0  0  0  0  0  3  0  0  0  0  0  0
  184.5940  178.4960  140.5260 C   0  0  0  0  0  2  0  0  0  0  0  0
  182.9650  176.7780  140.1710 O   0  0  0  0  0  1  0  0  0  0  0  0
  183.1990  177.9740  140.8490 C   0  0  2  0  0  3  0  0  0  0  0  0
  180.1790  180.8540  139.7980 C   0  0  0  0  0  0  0  0  0  0  0  0
  182.2430  179.7000  139.2800 C   0  0  0  0  0  3  0  0  0  0  0  0
  180.9590  178.5330  142.5130 F   0  0  0  0  0  0  0  0  0  0  0  0
  178.9490  182.0260  139.3710 Cl  0  0  0  0  0  0  0  0  0  0  0  0
  181.2600  180.6340  138.9390 C   0  0  0  0  0  3  0  0  0  0  0  0
  181.0640  179.2070  141.3410 C   0  0  0  0  0  0  0  0  0  0  0  0
  182.1530  178.9830  140.4850 C   0  0  0  0  0  0  0  0  0  0  0  0
  180.0810  180.1420  140.9980 C   0  0  0  0  0  3  0  0  0  0  0  0
  1  6  1  0  0  0  0
  1  9  1  0  0  0  0
  2  3  1  1  0  0  0
  2  5  1  0  0  0  0
  3  7  1  0  0  0  0
  5 16  2  0  0  0  0
  5 14  1  0  0  0  0
  7  4  1  0  0  0  0
  8 12  1  0  0  0  0
 10 18  1  0  0  0  0
 10 19  1  0  0  0  0
 11  4  2  0  0  0  0
 12 16  1  0  0  0  0
 13 18  1  1  0  0  0
 13  8  1  0  0  0  0
 13  2  1  0  0  0  0
 14  1  2  0  0  0  0
 15 11  1  0  0  0  0
 16 17  1  0  0  0  0
 17  6  2  0  0  0  0
 19  3  2  0  0  0  0
 20 19  1  0  0  0  0
 20 15  2  0  0  0  0
 21 23  1  0  0  0  0
 21  8  1  0  0  0  0
 23 22  1  6  0  0  0
 24 31  1  0  0  0  0
 25 30  2  0  0  0  0
 27 24  1  0  0  0  0
 28 25  1  0  0  0  0
 28 24  2  0  0  0  0
 29 26  1  0  0  0  0
 30 23  1  0  0  0  0
 30 29  1  0  0  0  0
 31 29  2  0  0  0  0
M  END
>  <MODEL>
3

>  <REMARK>
 VINA RESULT:      -8.4      2.722      3.216
  Name = 
  3 active torsions:
  status: ('A' for Active; 'I' for Inactive)
    1  A    between atoms: C_9  and  C_22
    2  A    between atoms: C_9  and  C_23
    3  A    between atoms: N_15  and  C_23
                            x       y       z     vdW  Elec       q    Type
                         _______ _______ _______ _____ _____    ______ ____

>  <TORSDO>
F 3

$$$$
=
 OpenBabel10262419353D

 31 35  0  0  1  0  0  0  0  0999 V2000
  185.2510  178.3800  139.5640 C   0  0  0  0  0  0  0  0  0  0  0  0
  189.0880  178.4370  139.5090 C   0  0  1  0  0  3  0  0  0  0  0  0
  189.3120  178.1470  138.0380 C   0  0  0  0  0  0  0  0  0  0  0  0
  187.9610  178.8760  136.1150 C   0  0  0  0  0  3  0  0  0  0  0  0
  187.6450  178.4540  139.9470 C   0  0  0  0  0  0  0  0  0  0  0  0
  185.0260  178.5290  140.9380 C   0  0  0  0  0  3  0  0  0  0  0  0
  189.0290  179.2600  137.0800 C   0  0  0  0  0  2  0  0  0  0  0  0
  189.5520  177.6110  141.8850 N   0  0  0  0  0  0  0  0  0  0  0  0
  184.2020  178.2760  138.7140 F   0  0  0  0  0  0  0  0  0  0  0  0
  190.4570  176.0040  138.5820 C   0  0  0  0  0  2  0  0  0  0  0  0
  188.1150  177.8790  135.2470 C   0  0  0  0  0  3  0  0  0  0  0  0
  188.6000  178.6820  142.2130 C   0  0  0  0  0  2  0  0  0  0  0  0
  189.9460  177.5580  140.4570 C   0  0  1  0  0  3  0  0  0  0  0  0
  186.5580  178.3430  139.0670 C   0  0  0  0  0  3  0  0  0  0  0  0
  189.2770  177.0390  135.1910 N   0  0  0  0  0  0  0  0  0  0  0  0
  187.4110  178.5990  141.3150 C   0  0  0  0  0  0  0  0  0  0  0  0
  186.1070  178.6390  141.8170 C   0  0  0  0  0  3  0  0  0  0  0  0
  189.8820  176.1120  139.9860 C   0  0  0  0  0  2  0  0  0  0  0  0
  189.8340  176.9740  137.6110 C   0  0  0  0  0  0  0  0  0  0  0  0
  190.0300  176.6460  136.1800 C   0  0  0  0  0  3  0  0  0  0  0  0
  190.7700  177.8550  142.6460 C   0  0  0  0  0  2  0  0  0  0  0  0
  190.5440  175.5200  143.1250 O   0  0  0  0  0  1  0  0  0  0  0  0
  191.0080  176.7280  143.6460 C   0  0  2  0  0  3  0  0  0  0  0  0
  189.0640  177.5390  147.3980 C   0  0  0  0  0  0  0  0  0  0  0  0
  189.0030  177.4730  144.9790 C   0  0  0  0  0  3  0  0  0  0  0  0
  192.3070  176.3930  146.1550 F   0  0  0  0  0  0  0  0  0  0  0  0
  188.2740  177.8680  148.9260 Cl  0  0  0  0  0  0  0  0  0  0  0  0
  188.3730  177.7330  146.1990 C   0  0  0  0  0  3  0  0  0  0  0  0
  191.0210  176.8230  146.1580 C   0  0  0  0  0  0  0  0  0  0  0  0
  190.3320  177.0190  144.9510 C   0  0  0  0  0  0  0  0  0  0  0  0
  190.3870  177.0850  147.3770 C   0  0  0  0  0  3  0  0  0  0  0  0
  1  6  1  0  0  0  0
  2  3  1  6  0  0  0
  2  5  1  0  0  0  0
  2 13  1  0  0  0  0
  4  7  1  0  0  0  0
  5 16  2  0  0  0  0
  6 17  2  0  0  0  0
  7  3  1  0  0  0  0
  8 12  1  0  0  0  0
  8 21  1  0  0  0  0
  9  1  1  0  0  0  0
 10 18  1  0  0  0  0
 11  4  2  0  0  0  0
 13 18  1  6  0  0  0
 13  8  1  0  0  0  0
 14  1  2  0  0  0  0
 14  5  1  0  0  0  0
 15 11  1  0  0  0  0
 15 20  2  0  0  0  0
 16 17  1  0  0  0  0
 16 12  1  0  0  0  0
 19  3  2  0  0  0  0
 19 10  1  0  0  0  0
 20 19  1  0  0  0  0
 21 23  1  0  0  0  0
 23 22  1  6  0  0  0
 23 30  1  0  0  0  0
 24 27  1  0  0  0  0
 25 28  1  0  0  0  0
 26 29  1  0  0  0  0
 28 24  2  0  0  0  0
 29 31  2  0  0  0  0
 30 25  2  0  0  0  0
 30 29  1  0  0  0  0
 31 24  1  0  0  0  0
M  END
>  <MODEL>
4

>  <REMARK>
 VINA RESULT:      -8.4      4.110      7.761
  Name = 
  3 active torsions:
  status: ('A' for Active; 'I' for Inactive)
    1  A    between atoms: C_9  and  C_22
    2  A    between atoms: C_9  and  C_23
    3  A    between atoms: N_15  and  C_23
                            x       y       z     vdW  Elec       q    Type
                         _______ _______ _______ _____ _____    ______ ____

>  <TORSDO>
F 3

$$$$
=
 OpenBabel10262419353D

 31 35  0  0  1  0  0  0  0  0999 V2000
  188.3260  178.2320  146.7740 C   0  0  0  0  0  0  0  0  0  0  0  0
  187.3540  177.0750  143.2460 C   0  0  1  0  0  3  0  0  0  0  0  0
  188.7410  176.8990  142.6590 C   0  0  0  0  0  0  0  0  0  0  0  0
  190.7840  176.1120  143.7820 C   0  0  0  0  0  3  0  0  0  0  0  0
  187.3180  177.5830  144.6650 C   0  0  0  0  0  0  0  0  0  0  0  0
  187.0570  178.5150  147.2950 C   0  0  0  0  0  3  0  0  0  0  0  0
  189.5180  175.7040  143.1120 C   0  0  0  0  0  2  0  0  0  0  0  0
  185.1340  178.3220  142.9940 N   0  0  0  0  0  0  0  0  0  0  0  0
  189.4270  178.4060  147.5420 F   0  0  0  0  0  0  0  0  0  0  0  0
  188.3180  178.6930  140.9860 C   0  0  0  0  0  2  0  0  0  0  0  0
  191.7490  176.7640  143.1380 C   0  0  0  0  0  3  0  0  0  0  0  0
  184.8770  177.6880  144.2970 C   0  0  0  0  0  2  0  0  0  0  0  0
  186.3910  177.8890  142.3400 C   0  0  1  0  0  3  0  0  0  0  0  0
  188.4580  177.7660  145.4610 C   0  0  0  0  0  3  0  0  0  0  0  0
  191.6500  177.1950  141.7730 N   0  0  0  0  0  0  0  0  0  0  0  0
  186.0570  177.8700  145.1920 C   0  0  0  0  0  0  0  0  0  0  0  0
  185.9190  178.3330  146.5030 C   0  0  0  0  0  3  0  0  0  0  0  0
  187.1210  179.1200  141.8210 C   0  0  0  0  0  2  0  0  0  0  0  0
  189.2230  177.7230  141.7010 C   0  0  0  0  0  0  0  0  0  0  0  0
  190.5870  177.6000  141.1360 C   0  0  0  0  0  3  0  0  0  0  0  0
  184.0470  177.9470  142.1000 C   0  0  0  0  0  2  0  0  0  0  0  0
  182.1380  179.0880  142.9880 O   0  0  0  0  0  1  0  0  0  0  0  0
  183.0630  179.1020  141.9450 C   0  0  2  0  0  3  0  0  0  0  0  0
  181.0230  178.9110  138.1610 C   0  0  0  0  0  0  0  0  0  0  0  0
  181.0140  178.6100  140.5630 C   0  0  0  0  0  3  0  0  0  0  0  0
  184.3170  179.7880  139.4840 F   0  0  0  0  0  0  0  0  0  0  0  0
  180.1940  178.8330  136.6200 Cl  0  0  0  0  0  0  0  0  0  0  0  0
  180.3520  178.5510  139.3330 C   0  0  0  0  0  3  0  0  0  0  0  0
  183.0220  179.3900  139.4480 C   0  0  0  0  0  0  0  0  0  0  0  0
  182.3540  179.0270  140.6280 C   0  0  0  0  0  0  0  0  0  0  0  0
  182.3570  179.3290  138.2180 C   0  0  0  0  0  3  0  0  0  0  0  0
  1  6  1  0  0  0  0
  1  9  1  0  0  0  0
  2  3  1  6  0  0  0
  2  5  1  0  0  0  0
  3  7  1  0  0  0  0
  5 16  2  0  0  0  0
  5 14  1  0  0  0  0
  7  4  1  0  0  0  0
  8 12  1  0  0  0  0
 10 19  1  0  0  0  0
 10 18  1  0  0  0  0
 11  4  2  0  0  0  0
 12 16  1  0  0  0  0
 13 18  1  1  0  0  0
 13  8  1  0  0  0  0
 13  2  1  0  0  0  0
 14  1  2  0  0  0  0
 15 11  1  0  0  0  0
 16 17  1  0  0  0  0
 17  6  2  0  0  0  0
 19  3  2  0  0  0  0
 20 19  1  0  0  0  0
 20 15  2  0  0  0  0
 21  8  1  0  0  0  0
 23 21  1  0  0  0  0
 23 22  1  1  0  0  0
 24 31  2  0  0  0  0
 24 28  1  0  0  0  0
 25 30  1  0  0  0  0
 27 24  1  0  0  0  0
 28 25  2  0  0  0  0
 29 26  1  0  0  0  0
 29 30  2  0  0  0  0
 30 23  1  0  0  0  0
 31 29  1  0  0  0  0
M  END
>  <MODEL>
5

>  <REMARK>
 VINA RESULT:      -8.4      2.020      2.141
  Name = 
  3 active torsions:
  status: ('A' for Active; 'I' for Inactive)
    1  A    between atoms: C_9  and  C_22
    2  A    between atoms: C_9  and  C_23
    3  A    between atoms: N_15  and  C_23
                            x       y       z     vdW  Elec       q    Type
                         _______ _______ _______ _____ _____    ______ ____

>  <TORSDO>
F 3

$$$$
=
 OpenBabel10262419353D

 31 35  0  0  1  0  0  0  0  0999 V2000
  190.7810  176.7980  139.9910 C   0  0  0  0  0  0  0  0  0  0  0  0
  188.4690  178.5630  142.4960 C   0  0  1  0  0  3  0  0  0  0  0  0
  189.2420  178.2900  143.7710 C   0  0  0  0  0  0  0  0  0  0  0  0
  191.6810  178.1860  144.0850 C   0  0  0  0  0  3  0  0  0  0  0  0
  189.0640  177.9650  141.2450 C   0  0  0  0  0  0  0  0  0  0  0  0
  190.0230  176.9350  138.8220 C   0  0  0  0  0  3  0  0  0  0  0  0
  190.4950  179.0800  143.9820 C   0  0  0  0  0  2  0  0  0  0  0  0
  186.2280  178.2180  141.3090 N   0  0  0  0  0  0  0  0  0  0  0  0
  191.9800  176.1690  139.9500 F   0  0  0  0  0  0  0  0  0  0  0  0
  187.3630  176.9360  144.6830 C   0  0  0  0  0  2  0  0  0  0  0  0
  191.8180  177.3000  145.0670 C   0  0  0  0  0  3  0  0  0  0  0  0
  186.9870  178.7710  140.1770 C   0  0  0  0  0  2  0  0  0  0  0  0
  186.9560  178.2370  142.6010 C   0  0  1  0  0  3  0  0  0  0  0  0
  190.3040  177.3120  141.2020 C   0  0  0  0  0  3  0  0  0  0  0  0
  190.8270  177.0670  146.0790 N   0  0  0  0  0  0  0  0  0  0  0  0
  188.3130  178.0950  140.0750 C   0  0  0  0  0  0  0  0  0  0  0  0
  188.7860  177.5860  138.8630 C   0  0  0  0  0  3  0  0  0  0  0  0
  186.7850  176.8830  143.2770 C   0  0  0  0  0  2  0  0  0  0  0  0
  188.7800  177.4460  144.7220 C   0  0  0  0  0  0  0  0  0  0  0  0
  189.5300  177.1300  145.9600 C   0  0  0  0  0  3  0  0  0  0  0  0
  185.0390  179.0390  141.4870 C   0  0  0  0  0  2  0  0  0  0  0  0
  183.5780  178.6560  139.6290 O   0  0  0  0  0  1  0  0  0  0  0  0
  183.8060  178.3120  140.9610 C   0  0  2  0  0  3  0  0  0  0  0  0
  180.3410  179.2200  143.3450 C   0  0  0  0  0  0  0  0  0  0  0  0
  181.3740  178.9350  141.1740 C   0  0  0  0  0  3  0  0  0  0  0  0
  183.8620  178.3510  143.8060 F   0  0  0  0  0  0  0  0  0  0  0  0
  178.9310  179.5900  144.3160 Cl  0  0  0  0  0  0  0  0  0  0  0  0
  180.2480  179.2280  141.9500 C   0  0  0  0  0  3  0  0  0  0  0  0
  182.6870  178.6280  143.1900 C   0  0  0  0  0  0  0  0  0  0  0  0
  182.6000  178.6370  141.7890 C   0  0  0  0  0  0  0  0  0  0  0  0
  181.5590  178.9220  143.9640 C   0  0  0  0  0  3  0  0  0  0  0  0
  1 14  1  0  0  0  0
  2  5  1  6  0  0  0
  2 13  1  0  0  0  0
  2  3  1  0  0  0  0
  3  7  1  0  0  0  0
  3 19  2  0  0  0  0
  4 11  2  0  0  0  0
  6 17  1  0  0  0  0
  6  1  2  0  0  0  0
  7  4  1  0  0  0  0
  8 21  1  0  0  0  0
  8 13  1  0  0  0  0
  9  1  1  0  0  0  0
 10 19  1  0  0  0  0
 11 15  1  0  0  0  0
 12  8  1  0  0  0  0
 13 18  1  6  0  0  0
 14  5  2  0  0  0  0
 16 12  1  0  0  0  0
 16  5  1  0  0  0  0
 17 16  2  0  0  0  0
 18 10  1  0  0  0  0
 19 20  1  0  0  0  0
 20 15  2  0  0  0  0
 23 22  1  6  0  0  0
 23 21  1  0  0  0  0
 23 30  1  0  0  0  0
 24 31  1  0  0  0  0
 24 27  1  0  0  0  0
 25 30  2  0  0  0  0
 25 28  1  0  0  0  0
 28 24  2  0  0  0  0
 29 26  1  0  0  0  0
 29 31  2  0  0  0  0
 30 29  1  0  0  0  0
M  END
>  <MODEL>
6

>  <REMARK>
 VINA RESULT:      -8.2      3.339      5.261
  Name = 
  3 active torsions:
  status: ('A' for Active; 'I' for Inactive)
    1  A    between atoms: C_9  and  C_22
    2  A    between atoms: C_9  and  C_23
    3  A    between atoms: N_15  and  C_23
                            x       y       z     vdW  Elec       q    Type
                         _______ _______ _______ _____ _____    ______ ____

>  <TORSDO>
F 3

$$$$
=
 OpenBabel10262419353D

 31 35  0  0  1  0  0  0  0  0999 V2000
  187.6180  177.7030  136.4090 C   0  0  0  0  0  0  0  0  0  0  0  0
  184.7540  177.7270  138.9650 C   0  0  1  0  0  3  0  0  0  0  0  0
  183.5980  177.4160  138.0340 C   0  0  0  0  0  0  0  0  0  0  0  0
  183.5810  175.9490  136.0590 C   0  0  0  0  0  3  0  0  0  0  0  0
  186.1010  177.8490  138.2960 C   0  0  0  0  0  0  0  0  0  0  0  0
  188.6790  178.1060  137.2290 C   0  0  0  0  0  3  0  0  0  0  0  0
  183.4880  176.0080  137.5440 C   0  0  0  0  0  2  0  0  0  0  0  0
  185.6870  179.4410  140.6200 N   0  0  0  0  0  0  0  0  0  0  0  0
  187.8390  177.4350  135.1010 F   0  0  0  0  0  0  0  0  0  0  0  0
  182.5570  179.6280  138.5040 C   0  0  0  0  0  2  0  0  0  0  0  0
  182.6780  176.5240  135.2680 C   0  0  0  0  0  3  0  0  0  0  0  0
  186.8650  178.5630  140.5340 C   0  0  0  0  0  2  0  0  0  0  0  0
  184.4920  178.9320  139.9060 C   0  0  1  0  0  3  0  0  0  0  0  0
  186.3300  177.5730  136.9400 C   0  0  0  0  0  3  0  0  0  0  0  0
  181.5730  177.3020  135.7500 N   0  0  0  0  0  0  0  0  0  0  0  0
  187.1640  178.2530  139.1060 C   0  0  0  0  0  0  0  0  0  0  0  0
  188.4530  178.3820  138.5810 C   0  0  0  0  0  3  0  0  0  0  0  0
  183.8860  180.0710  139.0970 C   0  0  0  0  0  2  0  0  0  0  0  0
  182.6540  178.3370  137.7340 C   0  0  0  0  0  0  0  0  0  0  0  0
  181.5340  178.0750  136.7990 C   0  0  0  0  0  3  0  0  0  0  0  0
  185.3210  179.5500  142.0250 C   0  0  0  0  0  2  0  0  0  0  0  0
  183.7850  177.8780  142.7870 O   0  0  0  0  0  1  0  0  0  0  0  0
  185.1420  178.1650  142.6380 C   0  0  2  0  0  3  0  0  0  0  0  0
  187.1230  177.8780  146.4480 C   0  0  0  0  0  0  0  0  0  0  0  0
  185.3010  178.7190  145.0920 C   0  0  0  0  0  3  0  0  0  0  0  0
  187.5530  176.7010  143.0130 F   0  0  0  0  0  0  0  0  0  0  0  0
  187.9300  177.7610  147.9980 Cl  0  0  0  0  0  0  0  0  0  0  0  0
  185.9450  178.6220  146.3290 C   0  0  0  0  0  3  0  0  0  0  0  0
  187.0160  177.3260  144.0890 C   0  0  0  0  0  0  0  0  0  0  0  0
  185.8350  178.0740  143.9640 C   0  0  0  0  0  0  0  0  0  0  0  0
  187.6580  177.2310  145.3290 C   0  0  0  0  0  3  0  0  0  0  0  0
  1 14  2  0  0  0  0
  1  6  1  0  0  0  0
  2  3  1  6  0  0  0
  2 13  1  0  0  0  0
  4  7  1  0  0  0  0
  5  2  1  0  0  0  0
  5 16  2  0  0  0  0
  6 17  2  0  0  0  0
  7  3  1  0  0  0  0
  8 21  1  0  0  0  0
  9  1  1  0  0  0  0
 10 18  1  0  0  0  0
 11 15  1  0  0  0  0
 11  4  2  0  0  0  0
 12  8  1  0  0  0  0
 13 18  1  6  0  0  0
 13  8  1  0  0  0  0
 14  5  1  0  0  0  0
 15 20  2  0  0  0  0
 16 12  1  0  0  0  0
 17 16  1  0  0  0  0
 19  3  2  0  0  0  0
 19 10  1  0  0  0  0
 20 19  1  0  0  0  0
 21 23  1  0  0  0  0
 23 22  1  1  0  0  0
 23 30  1  0  0  0  0
 24 27  1  0  0  0  0
 25 28  2  0  0  0  0
 26 29  1  0  0  0  0
 28 24  1  0  0  0  0
 29 31  1  0  0  0  0
 30 29  2  0  0  0  0
 30 25  1  0  0  0  0
 31 24  2  0  0  0  0
M  END
>  <MODEL>
7

>  <REMARK>
 VINA RESULT:      -8.1      3.446      7.948
  Name = 
  3 active torsions:
  status: ('A' for Active; 'I' for Inactive)
    1  A    between atoms: C_9  and  C_22
    2  A    between atoms: C_9  and  C_23
    3  A    between atoms: N_15  and  C_23
                            x       y       z     vdW  Elec       q    Type
                         _______ _______ _______ _____ _____    ______ ____

>  <TORSDO>
F 3

$$$$
=
 OpenBabel10262419353D

 31 35  0  0  1  0  0  0  0  0999 V2000
  189.4720  177.8780  147.0310 C   0  0  0  0  0  0  0  0  0  0  0  0
  187.0600  177.0970  144.1500 C   0  0  1  0  0  3  0  0  0  0  0  0
  188.0720  176.8530  143.0480 C   0  0  0  0  0  0  0  0  0  0  0  0
  190.2930  175.8090  143.2190 C   0  0  0  0  0  3  0  0  0  0  0  0
  187.6460  177.4890  145.4830 C   0  0  0  0  0  0  0  0  0  0  0  0
  188.5530  178.2230  148.0300 C   0  0  0  0  0  3  0  0  0  0  0  0
  188.8290  175.5640  143.1010 C   0  0  0  0  0  2  0  0  0  0  0  0
  185.0730  178.5410  144.8660 N   0  0  0  0  0  0  0  0  0  0  0  0
  190.7990  177.8970  147.2970 F   0  0  0  0  0  0  0  0  0  0  0  0
  187.2190  178.8060  141.7610 C   0  0  0  0  0  2  0  0  0  0  0  0
  190.9880  176.4280  142.2680 C   0  0  0  0  0  3  0  0  0  0  0  0
  185.2870  177.8280  146.1340 C   0  0  0  0  0  2  0  0  0  0  0  0
  185.9120  178.0590  143.7430 C   0  0  1  0  0  3  0  0  0  0  0  0
  189.0210  177.5110  145.7590 C   0  0  0  0  0  3  0  0  0  0  0  0
  190.4030  176.9750  141.0770 N   0  0  0  0  0  0  0  0  0  0  0  0
  186.7370  177.8370  146.4840 C   0  0  0  0  0  0  0  0  0  0  0  0
  187.1830  178.2030  147.7580 C   0  0  0  0  0  3  0  0  0  0  0  0
  186.5060  179.2630  143.0250 C   0  0  0  0  0  2  0  0  0  0  0  0
  188.2210  177.7090  142.0110 C   0  0  0  0  0  0  0  0  0  0  0  0
  189.2270  177.5180  140.9400 C   0  0  0  0  0  3  0  0  0  0  0  0
  183.6870  178.3330  144.4710 C   0  0  0  0  0  2  0  0  0  0  0  0
  182.8090  180.5030  143.9690 O   0  0  0  0  0  1  0  0  0  0  0  0
  183.2860  179.3280  143.3880 C   0  0  2  0  0  3  0  0  0  0  0  0
  180.2960  177.6270  140.8020 C   0  0  0  0  0  0  0  0  0  0  0  0
  182.5840  178.3230  141.1860 C   0  0  0  0  0  3  0  0  0  0  0  0
  180.5720  179.0030  144.1790 F   0  0  0  0  0  0  0  0  0  0  0  0
  179.0790  176.9350  139.7510 Cl  0  0  0  0  0  0  0  0  0  0  0  0
  181.6110  177.7680  140.3490 C   0  0  0  0  0  3  0  0  0  0  0  0
  180.9240  178.5970  142.9340 C   0  0  0  0  0  0  0  0  0  0  0  0
  182.2450  178.7440  142.4830 C   0  0  0  0  0  0  0  0  0  0  0  0
  179.9530  178.0420  142.0930 C   0  0  0  0  0  3  0  0  0  0  0  0
  1  9  1  0  0  0  0
  1  6  1  0  0  0  0
  2  3  1  6  0  0  0
  2  5  1  0  0  0  0
  3  7  1  0  0  0  0
  5 14  1  0  0  0  0
  5 16  2  0  0  0  0
  7  4  1  0  0  0  0
  8 12  1  0  0  0  0
 10 19  1  0  0  0  0
 10 18  1  0  0  0  0
 11  4  2  0  0  0  0
 12 16  1  0  0  0  0
 13 18  1  1  0  0  0
 13  2  1  0  0  0  0
 13  8  1  0  0  0  0
 14  1  2  0  0  0  0
 15 11  1  0  0  0  0
 16 17  1  0  0  0  0
 17  6  2  0  0  0  0
 19  3  2  0  0  0  0
 20 15  2  0  0  0  0
 20 19  1  0  0  0  0
 21  8  1  0  0  0  0
 23 22  1  1  0  0  0
 23 21  1  0  0  0  0
 24 31  1  0  0  0  0
 25 30  2  0  0  0  0
 27 24  1  0  0  0  0
 28 24  2  0  0  0  0
 28 25  1  0  0  0  0
 29 26  1  0  0  0  0
 30 29  1  0  0  0  0
 30 23  1  0  0  0  0
 31 29  2  0  0  0  0
M  END
>  <MODEL>
8

>  <REMARK>
 VINA RESULT:      -8.1      2.846      3.488
  Name = 
  3 active torsions:
  status: ('A' for Active; 'I' for Inactive)
    1  A    between atoms: C_9  and  C_22
    2  A    between atoms: C_9  and  C_23
    3  A    between atoms: N_15  and  C_23
                            x       y       z     vdW  Elec       q    Type
                         _______ _______ _______ _____ _____    ______ ____

>  <TORSDO>
F 3

$$$$
=
 OpenBabel10262419353D

 31 35  0  0  1  0  0  0  0  0999 V2000
  185.2260  179.0370  144.7330 C   0  0  0  0  0  0  0  0  0  0  0  0
  188.5210  177.0780  144.5420 C   0  0  1  0  0  3  0  0  0  0  0  0
  188.9630  177.2080  145.9870 C   0  0  0  0  0  0  0  0  0  0  0  0
  187.5670  177.2340  148.0130 C   0  0  0  0  0  3  0  0  0  0  0  0
  187.2340  177.7840  144.1990 C   0  0  0  0  0  0  0  0  0  0  0  0
  184.8610  179.0290  143.3810 C   0  0  0  0  0  3  0  0  0  0  0  0
  188.2320  176.3770  146.9930 C   0  0  0  0  0  2  0  0  0  0  0  0
  189.1660  177.5810  142.1180 N   0  0  0  0  0  0  0  0  0  0  0  0
  184.4310  179.6430  145.6450 F   0  0  0  0  0  0  0  0  0  0  0  0
  190.9790  178.5020  145.3080 C   0  0  0  0  0  2  0  0  0  0  0  0
  188.2560  178.0160  148.8400 C   0  0  0  0  0  3  0  0  0  0  0  0
  187.7870  177.1280  141.8830 C   0  0  0  0  0  2  0  0  0  0  0  0
  189.6330  177.4210  143.5160 C   0  0  1  0  0  3  0  0  0  0  0  0
  186.4100  178.4150  145.1430 C   0  0  0  0  0  3  0  0  0  0  0  0
  189.6830  178.1670  148.7970 N   0  0  0  0  0  0  0  0  0  0  0  0
  186.8630  177.7850  142.8530 C   0  0  0  0  0  0  0  0  0  0  0  0
  185.6800  178.4020  142.4380 C   0  0  0  0  0  3  0  0  0  0  0  0
  190.3290  178.7040  143.9480 C   0  0  0  0  0  2  0  0  0  0  0  0
  190.0270  177.9630  146.3450 C   0  0  0  0  0  0  0  0  0  0  0  0
  190.4600  178.1410  147.7510 C   0  0  0  0  0  3  0  0  0  0  0  0
  190.0450  176.7690  141.2880 C   0  0  0  0  0  2  0  0  0  0  0  0
  189.4960  178.2320  139.4730 O   0  0  0  0  0  1  0  0  0  0  0  0
  190.5570  177.5800  140.1020 C   0  0  2  0  0  3  0  0  0  0  0  0
  192.6190  175.0770  137.2740 C   0  0  0  0  0  0  0  0  0  0  0  0
  190.5530  175.8420  138.2780 C   0  0  0  0  0  3  0  0  0  0  0  0
  193.3900  177.5620  139.8430 F   0  0  0  0  0  0  0  0  0  0  0  0
  193.4600  174.0590  136.1230 Cl  0  0  0  0  0  0  0  0  0  0  0  0
  191.2240  175.0310  137.3580 C   0  0  0  0  0  3  0  0  0  0  0  0
  192.6730  176.7460  139.0320 C   0  0  0  0  0  0  0  0  0  0  0  0
  191.2730  176.7010  139.1230 C   0  0  0  0  0  0  0  0  0  0  0  0
  193.3430  175.9330  138.1110 C   0  0  0  0  0  3  0  0  0  0  0  0
  1 14  1  0  0  0  0
  1  9  1  0  0  0  0
  2  5  1  1  0  0  0
  2  3  1  0  0  0  0
  3 19  2  0  0  0  0
  3  7  1  0  0  0  0
  4 11  2  0  0  0  0
  5 14  2  0  0  0  0
  6  1  2  0  0  0  0
  7  4  1  0  0  0  0
  8 13  1  0  0  0  0
 10 19  1  0  0  0  0
 12  8  1  0  0  0  0
 12 16  1  0  0  0  0
 13 18  1  1  0  0  0
 13  2  1  0  0  0  0
 15 11  1  0  0  0  0
 16  5  1  0  0  0  0
 17 16  2  0  0  0  0
 17  6  1  0  0  0  0
 18 10  1  0  0  0  0
 19 20  1  0  0  0  0
 20 15  2  0  0  0  0
 21  8  1  0  0  0  0
 23 22  1  6  0  0  0
 23 21  1  0  0  0  0
 24 28  2  0  0  0  0
 24 31  1  0  0  0  0
 25 30  2  0  0  0  0
 27 24  1  0  0  0  0
 28 25  1  0  0  0  0
 29 30  1  0  0  0  0
 29 26  1  0  0  0  0
 30 23  1  0  0  0  0
 31 29  2  0  0  0  0
M  END
>  <MODEL>
9

>  <REMARK>
 VINA RESULT:      -8.0      3.820      5.791
  Name = 
  3 active torsions:
  status: ('A' for Active; 'I' for Inactive)
    1  A    between atoms: C_9  and  C_22
    2  A    between atoms: C_9  and  C_23
    3  A    between atoms: N_15  and  C_23
                            x       y       z     vdW  Elec       q    Type
                         _______ _______ _______ _____ _____    ______ ____

>  <TORSDO>
F 3

$$$$
