=
 OpenBabel10262421003D

 32 38  0  0  1  0  0  0  0  0999 V2000
  187.1650  177.4520  145.5970 C   0  0  2  0  0  0  0  0  0  0  0  0
  185.6870  178.0050  143.6270 C   0  0  0  0  0  0  0  0  0  0  0  0
  187.3380  177.1560  147.0710 C   0  0  0  0  0  2  0  0  0  0  0  0
  185.7310  177.4920  145.0550 C   0  0  2  0  0  3  0  0  0  0  0  0
  184.4740  178.4860  143.1170 C   0  0  0  0  0  0  0  0  0  0  0  0
  187.6000  178.5620  139.1130 C   0  0  0  0  0  2  0  0  0  0  0  0
  186.7900  177.8860  142.7740 C   0  0  0  0  0  0  0  0  0  0  0  0
  185.1860  178.9470  139.4830 C   0  0  0  0  0  2  0  0  0  0  0  0
  185.3690  178.5310  140.9100 C   0  0  0  0  0  0  0  0  0  0  0  0
  184.9070  178.3410  146.0380 C   0  0  2  0  0  3  0  0  0  0  0  0
  184.3490  178.7560  141.7880 N   0  0  0  0  0  0  0  0  0  0  0  0
  183.8320  179.2330  145.3990 C   0  0  0  0  0  2  0  0  0  0  0  0
  185.9090  179.2010  146.7910 C   0  0  0  0  0  2  0  0  0  0  0  0
  188.0910  177.4510  143.3120 C   0  0  0  0  0  3  0  0  0  0  0  0
  188.3320  177.2370  144.6210 C   0  0  0  0  0  0  0  0  0  0  0  0
  186.6350  178.1260  141.3960 C   0  0  0  0  0  0  0  0  0  0  0  0
  183.3210  178.6740  144.0620 C   0  0  1  0  0  3  0  0  0  0  0  0
  187.2990  178.5980  146.5870 C   0  0  2  0  0  3  0  0  0  0  0  0
  186.2090  178.3000  138.5620 C   0  0  0  0  0  2  0  0  0  0  0  0
  187.7480  177.7970  140.4230 C   0  0  0  0  0  2  0  0  0  0  0  0
  191.9670  177.7710  142.0090 C   0  0  0  0  0  1  0  0  0  0  0  0
  192.2320  179.8130  144.0210 O   0  0  0  0  0  1  0  0  0  0  0  0
  191.6590  175.2100  144.3000 C   0  0  0  0  0  1  0  0  0  0  0  0
  191.0060  178.6440  145.6920 C   0  0  0  0  0  2  0  0  0  0  0  0
  189.7050  176.6050  144.8890 C   0  0  2  0  0  3  0  0  0  0  0  0
  191.6720  177.5330  143.4880 C   0  0  2  0  0  3  0  0  0  0  0  0
  190.4040  177.2860  146.0710 C   0  0  0  0  0  2  0  0  0  0  0  0
  190.7460  176.3070  143.7740 C   0  0  0  0  0  0  0  0  0  0  0  0
  190.0780  175.7060  142.5430 C   0  0  0  0  0  1  0  0  0  0  0  0
  191.2440  178.8390  144.1910 C   0  0  2  0  0  3  0  0  0  0  0  0
  182.2560  179.4310  143.5150 O   0  0  0  0  0  0  0  0  0  0  0  0
  181.0400  178.7430  143.6660 C   0  0  0  0  0  1  0  0  0  0  0  0
  1 18  1  0  0  0  0
  1  3  1  1  0  0  0
  4  2  1  6  0  0  0
  4  1  1  0  0  0  0
  4 10  1  0  0  0  0
  5  2  1  0  0  0  0
  5 17  1  0  0  0  0
  6 20  1  0  0  0  0
  7 14  1  0  0  0  0
  7  2  2  0  0  0  0
  8  9  1  0  0  0  0
  9 16  2  0  0  0  0
  9 11  1  0  0  0  0
 10 12  1  6  0  0  0
 10 13  1  0  0  0  0
 11  5  2  0  0  0  0
 14 15  2  0  0  0  0
 15  1  1  0  0  0  0
 16  7  1  0  0  0  0
 17 31  1  6  0  0  0
 17 12  1  0  0  0  0
 18 13  1  1  0  0  0
 18  3  1  0  0  0  0
 19  6  1  0  0  0  0
 19  8  1  0  0  0  0
 20 16  1  0  0  0  0
 24 27  1  0  0  0  0
 25 15  1  6  0  0  0
 25 27  1  0  0  0  0
 26 21  1  6  0  0  0
 26 28  1  0  0  0  0
 26 30  1  0  0  0  0
 28 23  1  0  0  0  0
 28 25  1  0  0  0  0
 29 28  1  0  0  0  0
 30 22  1  1  0  0  0
 30 24  1  0  0  0  0
 31 32  1  0  0  0  0
M  END
>  <MODEL>
1

>  <REMARK>
 VINA RESULT:      -9.1      0.000      0.000
  Name = 
  2 active torsions:
  status: ('A' for Active; 'I' for Inactive)
    1  A    between atoms: O_13  and  C_29
    2  A    between atoms: C_16  and  C_27
                            x       y       z     vdW  Elec       q    Type
                         _______ _______ _______ _____ _____    ______ ____

>  <TORSDO>
F 2

$$$$
=
 OpenBabel10262421003D

 32 38  0  0  1  0  0  0  0  0999 V2000
  185.5220  178.7880  140.2890 C   0  0  2  0  0  0  0  0  0  0  0  0
  186.5480  178.3510  142.5530 C   0  0  0  0  0  0  0  0  0  0  0  0
  184.4110  179.3610  139.4350 C   0  0  0  0  0  2  0  0  0  0  0  0
  185.5190  179.1540  141.7780 C   0  0  2  0  0  3  0  0  0  0  0  0
  186.4190  178.2480  143.9450 C   0  0  0  0  0  0  0  0  0  0  0  0
  190.8620  175.9900  142.9580 C   0  0  0  0  0  2  0  0  0  0  0  0
  187.6850  177.8250  141.9300 C   0  0  0  0  0  0  0  0  0  0  0  0
  189.6220  176.6480  144.9940 C   0  0  0  0  0  2  0  0  0  0  0  0
  188.6020  177.3110  144.1220 C   0  0  0  0  0  0  0  0  0  0  0  0
  184.0790  178.9560  142.2820 C   0  0  2  0  0  3  0  0  0  0  0  0
  187.4290  177.7170  144.6890 N   0  0  0  0  0  0  0  0  0  0  0  0
  183.9500  178.4030  143.7090 C   0  0  0  0  0  2  0  0  0  0  0  0
  183.4180  178.0030  141.2990 C   0  0  0  0  0  2  0  0  0  0  0  0
  187.8000  177.8610  140.4610 C   0  0  0  0  0  3  0  0  0  0  0  0
  186.8230  178.2930  139.6390 C   0  0  0  0  0  0  0  0  0  0  0  0
  188.7390  177.3210  142.7130 C   0  0  0  0  0  0  0  0  0  0  0  0
  185.1600  178.7540  144.5900 C   0  0  1  0  0  3  0  0  0  0  0  0
  184.2690  177.9670  140.0290 C   0  0  2  0  0  3  0  0  0  0  0  0
  190.9950  176.6060  144.3390 C   0  0  0  0  0  2  0  0  0  0  0  0
  190.0640  176.9480  142.0810 C   0  0  0  0  0  2  0  0  0  0  0  0
  189.8080  175.5730  137.6350 C   0  0  0  0  0  1  0  0  0  0  0  0
  187.2520  174.3950  137.0270 O   0  0  0  0  0  1  0  0  0  0  0  0
  188.9520  178.6710  136.3820 C   0  0  0  0  0  1  0  0  0  0  0  0
  186.0280  176.4320  137.1530 C   0  0  0  0  0  2  0  0  0  0  0  0
  187.2710  178.4090  138.1750 C   0  0  2  0  0  3  0  0  0  0  0  0
  188.5840  176.3900  137.2300 C   0  0  2  0  0  3  0  0  0  0  0  0
  186.1580  177.9580  137.2220 C   0  0  0  0  0  2  0  0  0  0  0  0
  188.6410  177.8940  137.6520 C   0  0  0  0  0  0  0  0  0  0  0  0
  189.7660  178.2470  138.6160 C   0  0  0  0  0  1  0  0  0  0  0  0
  187.2740  175.6650  137.6090 C   0  0  2  0  0  3  0  0  0  0  0  0
  185.0050  178.3400  145.9360 O   0  0  0  0  0  0  0  0  0  0  0  0
  185.6220  179.2590  146.8020 C   0  0  0  0  0  1  0  0  0  0  0  0
  1  3  1  6  0  0  0
  1  4  1  0  0  0  0
  2  5  1  0  0  0  0
  4 10  1  0  0  0  0
  4  2  1  1  0  0  0
  5 17  1  0  0  0  0
  5 11  2  0  0  0  0
  6 19  1  0  0  0  0
  7  2  2  0  0  0  0
  7 16  1  0  0  0  0
  9 11  1  0  0  0  0
  9  8  1  0  0  0  0
 10 13  1  6  0  0  0
 10 12  1  0  0  0  0
 12 17  1  0  0  0  0
 14  7  1  0  0  0  0
 15  1  1  0  0  0  0
 15 14  2  0  0  0  0
 16  9  2  0  0  0  0
 17 31  1  1  0  0  0
 18  3  1  6  0  0  0
 18  1  1  0  0  0  0
 18 13  1  0  0  0  0
 19  8  1  0  0  0  0
 20 16  1  0  0  0  0
 20  6  1  0  0  0  0
 23 28  1  0  0  0  0
 24 27  1  0  0  0  0
 24 30  1  0  0  0  0
 25 15  1  1  0  0  0
 26 30  1  0  0  0  0
 26 21  1  1  0  0  0
 26 28  1  0  0  0  0
 27 25  1  0  0  0  0
 28 25  1  0  0  0  0
 28 29  1  0  0  0  0
 30 22  1  6  0  0  0
 31 32  1  0  0  0  0
M  END
>  <MODEL>
2

>  <REMARK>
 VINA RESULT:      -8.4      2.540      6.066
  Name = 
  2 active torsions:
  status: ('A' for Active; 'I' for Inactive)
    1  A    between atoms: O_13  and  C_29
    2  A    between atoms: C_16  and  C_27
                            x       y       z     vdW  Elec       q    Type
                         _______ _______ _______ _____ _____    ______ ____

>  <TORSDO>
F 2

$$$$
=
 OpenBabel10262421003D

 32 38  0  0  1  0  0  0  0  0999 V2000
  190.5880  177.1590  140.8400 C   0  0  2  0  0  0  0  0  0  0  0  0
  188.7230  177.2990  142.5350 C   0  0  0  0  0  0  0  0  0  0  0  0
  191.9910  176.7380  140.4570 C   0  0  0  0  0  2  0  0  0  0  0  0
  190.0410  176.6370  142.1730 C   0  0  2  0  0  3  0  0  0  0  0  0
  188.2870  177.2590  143.8660 C   0  0  0  0  0  0  0  0  0  0  0  0
  184.4030  179.3780  141.3700 C   0  0  0  0  0  2  0  0  0  0  0  0
  187.8790  177.8280  141.5530 C   0  0  0  0  0  0  0  0  0  0  0  0
  184.8000  178.5710  143.6730 C   0  0  0  0  0  2  0  0  0  0  0  0
  186.1350  178.0580  143.2310 C   0  0  0  0  0  0  0  0  0  0  0  0
  191.1450  176.8540  143.2230 C   0  0  2  0  0  3  0  0  0  0  0  0
  187.0240  177.6550  144.1850 N   0  0  0  0  0  0  0  0  0  0  0  0
  190.6550  177.2570  144.6220 C   0  0  0  0  0  2  0  0  0  0  0  0
  192.0500  177.9380  142.6620 C   0  0  0  0  0  2  0  0  0  0  0  0
  188.3510  177.9440  140.1620 C   0  0  0  0  0  3  0  0  0  0  0  0
  189.6070  177.6520  139.7650 C   0  0  0  0  0  0  0  0  0  0  0  0
  186.5610  178.1920  141.8880 C   0  0  0  0  0  0  0  0  0  0  0  0
  189.2340  176.7530  144.9180 C   0  0  1  0  0  3  0  0  0  0  0  0
  191.7640  178.0660  141.1650 C   0  0  2  0  0  3  0  0  0  0  0  0
  183.7950  178.6120  142.5320 C   0  0  0  0  0  2  0  0  0  0  0  0
  185.5620  178.5610  140.8120 C   0  0  0  0  0  2  0  0  0  0  0  0
  187.6330  174.7720  136.9140 C   0  0  0  0  0  1  0  0  0  0  0  0
  185.8470  177.0300  136.9930 O   0  0  0  0  0  1  0  0  0  0  0  0
  190.3860  176.6680  136.0640 C   0  0  0  0  0  1  0  0  0  0  0  0
  187.5280  178.6280  137.5280 C   0  0  0  0  0  2  0  0  0  0  0  0
  189.7800  177.6710  138.2410 C   0  0  2  0  0  3  0  0  0  0  0  0
  188.1130  176.2210  136.8940 C   0  0  2  0  0  3  0  0  0  0  0  0
  189.0400  178.8600  137.6160 C   0  0  0  0  0  2  0  0  0  0  0  0
  189.5980  176.4170  137.3400 C   0  0  0  0  0  0  0  0  0  0  0  0
  190.2460  175.1890  137.9680 C   0  0  0  0  0  1  0  0  0  0  0  0
  187.1040  177.1570  137.5940 C   0  0  2  0  0  3  0  0  0  0  0  0
  188.8120  177.0280  146.2410 O   0  0  0  0  0  0  0  0  0  0  0  0
  189.9230  177.1260  147.0970 C   0  0  0  0  0  1  0  0  0  0  0  0
  1  3  1  6  0  0  0
  1 18  1  0  0  0  0
  1  4  1  0  0  0  0
  2  5  1  0  0  0  0
  4  2  1  1  0  0  0
  4 10  1  0  0  0  0
  5 11  2  0  0  0  0
  5 17  1  0  0  0  0
  6 19  1  0  0  0  0
  7 16  1  0  0  0  0
  7  2  2  0  0  0  0
  9  8  1  0  0  0  0
  9 11  1  0  0  0  0
 10 13  1  6  0  0  0
 10 12  1  0  0  0  0
 12 17  1  0  0  0  0
 14  7  1  0  0  0  0
 15 14  2  0  0  0  0
 15  1  1  0  0  0  0
 16  9  2  0  0  0  0
 17 31  1  1  0  0  0
 18  3  1  6  0  0  0
 18 13  1  0  0  0  0
 19  8  1  0  0  0  0
 20  6  1  0  0  0  0
 20 16  1  0  0  0  0
 23 28  1  0  0  0  0
 24 30  1  0  0  0  0
 24 27  1  0  0  0  0
 25 15  1  1  0  0  0
 26 21  1  1  0  0  0
 26 28  1  0  0  0  0
 26 30  1  0  0  0  0
 27 25  1  0  0  0  0
 28 29  1  0  0  0  0
 28 25  1  0  0  0  0
 30 22  1  6  0  0  0
 31 32  1  0  0  0  0
M  END
>  <MODEL>
3

>  <REMARK>
 VINA RESULT:      -8.3      2.618      6.321
  Name = 
  2 active torsions:
  status: ('A' for Active; 'I' for Inactive)
    1  A    between atoms: O_13  and  C_29
    2  A    between atoms: C_16  and  C_27
                            x       y       z     vdW  Elec       q    Type
                         _______ _______ _______ _____ _____    ______ ____

>  <TORSDO>
F 2

$$$$
=
 OpenBabel10262421003D

 32 38  0  0  1  0  0  0  0  0999 V2000
  184.4080  178.7390  139.1000 C   0  0  2  0  0  0  0  0  0  0  0  0
  184.5710  178.6480  141.6160 C   0  0  0  0  0  0  0  0  0  0  0  0
  183.6300  179.0560  137.8400 C   0  0  0  0  0  2  0  0  0  0  0  0
  183.8090  179.2100  140.4290 C   0  0  2  0  0  3  0  0  0  0  0  0
  183.9520  178.6310  142.8730 C   0  0  0  0  0  0  0  0  0  0  0  0
  188.6900  177.0640  143.8240 C   0  0  0  0  0  2  0  0  0  0  0  0
  185.9140  178.2710  141.5100 C   0  0  0  0  0  0  0  0  0  0  0  0
  186.7140  177.6610  145.1860 C   0  0  0  0  0  2  0  0  0  0  0  0
  186.0140  178.0810  143.9310 C   0  0  0  0  0  0  0  0  0  0  0  0
  182.3220  178.8170  140.4120 C   0  0  2  0  0  3  0  0  0  0  0  0
  184.6730  178.3300  143.9890 N   0  0  0  0  0  0  0  0  0  0  0  0
  181.7460  178.3600  141.7600 C   0  0  0  0  0  2  0  0  0  0  0  0
  182.1960  177.6980  139.3920 C   0  0  0  0  0  2  0  0  0  0  0  0
  186.5590  178.2140  140.1850 C   0  0  0  0  0  3  0  0  0  0  0  0
  185.9090  178.4170  139.0220 C   0  0  0  0  0  0  0  0  0  0  0  0
  186.6590  178.0060  142.6740 C   0  0  0  0  0  0  0  0  0  0  0  0
  182.4900  178.9690  142.9590 C   0  0  1  0  0  3  0  0  0  0  0  0
  183.4530  177.7070  138.5220 C   0  0  2  0  0  3  0  0  0  0  0  0
  188.2240  177.7960  145.0710 C   0  0  0  0  0  2  0  0  0  0  0  0
  188.1590  177.8100  142.6060 C   0  0  0  0  0  2  0  0  0  0  0  0
  189.6850  176.0040  138.5290 C   0  0  0  0  0  1  0  0  0  0  0  0
  187.6660  174.4480  137.1890 O   0  0  0  0  0  1  0  0  0  0  0  0
  189.0320  178.8640  136.7140 C   0  0  0  0  0  1  0  0  0  0  0  0
  186.2780  176.3010  136.6420 C   0  0  0  0  0  2  0  0  0  0  0  0
  186.8470  178.4950  137.8100 C   0  0  2  0  0  3  0  0  0  0  0  0
  188.6170  176.6170  137.6260 C   0  0  2  0  0  3  0  0  0  0  0  0
  186.2140  177.8320  136.5800 C   0  0  0  0  0  2  0  0  0  0  0  0
  188.3590  178.1390  137.8690 C   0  0  0  0  0  0  0  0  0  0  0  0
  189.0090  178.7070  139.1240 C   0  0  0  0  0  1  0  0  0  0  0  0
  187.3420  175.7460  137.5940 C   0  0  2  0  0  3  0  0  0  0  0  0
  181.9020  178.6380  144.2040 O   0  0  0  0  0  0  0  0  0  0  0  0
  180.5120  178.4880  144.0620 C   0  0  0  0  0  1  0  0  0  0  0  0
  1  3  1  6  0  0  0
  1  4  1  0  0  0  0
  2  5  1  0  0  0  0
  4  2  1  1  0  0  0
  5 17  1  0  0  0  0
  5 11  2  0  0  0  0
  6 19  1  0  0  0  0
  7  2  2  0  0  0  0
  7 16  1  0  0  0  0
  9 11  1  0  0  0  0
  9  8  1  0  0  0  0
 10 13  1  6  0  0  0
 10  4  1  0  0  0  0
 10 12  1  0  0  0  0
 12 17  1  0  0  0  0
 14  7  1  0  0  0  0
 15  1  1  0  0  0  0
 15 14  2  0  0  0  0
 16  9  2  0  0  0  0
 17 31  1  1  0  0  0
 18  3  1  6  0  0  0
 18  1  1  0  0  0  0
 18 13  1  0  0  0  0
 19  8  1  0  0  0  0
 20 16  1  0  0  0  0
 20  6  1  0  0  0  0
 23 28  1  0  0  0  0
 24 30  1  0  0  0  0
 25 28  1  0  0  0  0
 25 15  1  1  0  0  0
 26 28  1  0  0  0  0
 26 21  1  1  0  0  0
 27 24  1  0  0  0  0
 27 25  1  0  0  0  0
 28 29  1  0  0  0  0
 30 22  1  6  0  0  0
 30 26  1  0  0  0  0
 32 31  1  0  0  0  0
M  END
>  <MODEL>
4

>  <REMARK>
 VINA RESULT:      -7.8      2.573      6.217
  Name = 
  2 active torsions:
  status: ('A' for Active; 'I' for Inactive)
    1  A    between atoms: O_13  and  C_29
    2  A    between atoms: C_16  and  C_27
                            x       y       z     vdW  Elec       q    Type
                         _______ _______ _______ _____ _____    ______ ____

>  <TORSDO>
F 2

$$$$
=
 OpenBabel10262421003D

 32 38  0  0  1  0  0  0  0  0999 V2000
  189.1840  177.1160  140.0970 C   0  0  2  0  0  0  0  0  0  0  0  0
  188.4300  177.2190  142.5030 C   0  0  0  0  0  0  0  0  0  0  0  0
  190.1520  176.6280  139.0400 C   0  0  0  0  0  2  0  0  0  0  0  0
  189.3050  176.4970  141.4950 C   0  0  2  0  0  3  0  0  0  0  0  0
  188.7040  177.0690  143.8690 C   0  0  0  0  0  0  0  0  0  0  0  0
  184.3910  179.7520  143.7760 C   0  0  0  0  0  2  0  0  0  0  0  0
  187.2840  177.9190  142.1080 C   0  0  0  0  0  0  0  0  0  0  0  0
  185.7670  178.6700  145.5230 C   0  0  0  0  0  2  0  0  0  0  0  0
  186.6360  178.1030  144.4430 C   0  0  0  0  0  0  0  0  0  0  0  0
  190.7990  176.5090  141.8600 C   0  0  2  0  0  3  0  0  0  0  0  0
  187.8220  177.5280  144.8000 N   0  0  0  0  0  0  0  0  0  0  0  0
  191.1160  176.7960  143.3350 C   0  0  0  0  0  2  0  0  0  0  0  0
  191.4370  177.5720  140.9810 C   0  0  0  0  0  2  0  0  0  0  0  0
  187.0200  178.1470  140.6750 C   0  0  0  0  0  3  0  0  0  0  0  0
  187.8710  177.8010  139.6880 C   0  0  0  0  0  0  0  0  0  0  0  0
  186.3590  178.3480  143.0770 C   0  0  0  0  0  0  0  0  0  0  0  0
  189.9750  176.3780  144.2760 C   0  0  1  0  0  3  0  0  0  0  0  0
  190.4700  177.8850  139.8380 C   0  0  2  0  0  3  0  0  0  0  0  0
  184.3450  178.9160  145.0430 C   0  0  0  0  0  2  0  0  0  0  0  0
  185.0140  178.9110  142.6690 C   0  0  0  0  0  2  0  0  0  0  0  0
  190.1100  177.1290  135.8340 C   0  0  0  0  0  1  0  0  0  0  0  0
  188.8200  174.6080  136.3550 O   0  0  0  0  0  1  0  0  0  0  0  0
  187.1810  178.9430  136.0150 C   0  0  0  0  0  1  0  0  0  0  0  0
  187.0100  175.5320  137.5940 C   0  0  0  0  0  2  0  0  0  0  0  0
  187.2720  177.9710  138.2860 C   0  0  2  0  0  3  0  0  0  0  0  0
  188.6720  177.0110  136.3330 C   0  0  2  0  0  3  0  0  0  0  0  0
  186.2940  176.8350  137.9630 C   0  0  0  0  0  2  0  0  0  0  0  0
  188.1190  178.2990  137.0240 C   0  0  0  0  0  0  0  0  0  0  0  0
  189.1650  179.3650  137.3250 C   0  0  0  0  0  1  0  0  0  0  0  0
  188.4620  175.7100  137.1380 C   0  0  2  0  0  3  0  0  0  0  0  0
  190.2970  176.5400  145.6450 O   0  0  0  0  0  0  0  0  0  0  0  0
  191.6800  176.7320  145.8020 C   0  0  0  0  0  1  0  0  0  0  0  0
  1  3  1  6  0  0  0
  1  4  1  0  0  0  0
  2  5  1  0  0  0  0
  4 10  1  0  0  0  0
  4  2  1  1  0  0  0
  5 17  1  0  0  0  0
  5 11  2  0  0  0  0
  6 19  1  0  0  0  0
  7  2  2  0  0  0  0
  7 16  1  0  0  0  0
  9 11  1  0  0  0  0
  9  8  1  0  0  0  0
 10 13  1  6  0  0  0
 10 12  1  0  0  0  0
 12 17  1  0  0  0  0
 14  7  1  0  0  0  0
 15  1  1  0  0  0  0
 15 14  2  0  0  0  0
 16  9  2  0  0  0  0
 17 31  1  1  0  0  0
 18  3  1  6  0  0  0
 18  1  1  0  0  0  0
 18 13  1  0  0  0  0
 19  8  1  0  0  0  0
 20 16  1  0  0  0  0
 20  6  1  0  0  0  0
 23 28  1  0  0  0  0
 24 27  1  0  0  0  0
 25 15  1  1  0  0  0
 26 21  1  1  0  0  0
 26 28  1  0  0  0  0
 26 30  1  0  0  0  0
 27 25  1  0  0  0  0
 28 29  1  0  0  0  0
 28 25  1  0  0  0  0
 30 22  1  6  0  0  0
 30 24  1  0  0  0  0
 31 32  1  0  0  0  0
M  END
>  <MODEL>
5

>  <REMARK>
 VINA RESULT:      -7.4      2.790      6.963
  Name = 
  2 active torsions:
  status: ('A' for Active; 'I' for Inactive)
    1  A    between atoms: O_13  and  C_29
    2  A    between atoms: C_16  and  C_27
                            x       y       z     vdW  Elec       q    Type
                         _______ _______ _______ _____ _____    ______ ____

>  <TORSDO>
F 2

$$$$
=
 OpenBabel10262421003D

 32 38  0  0  1  0  0  0  0  0999 V2000
  187.4590  177.8420  138.8620 C   0  0  2  0  0  0  0  0  0  0  0  0
  188.0070  177.5600  141.3090 C   0  0  0  0  0  0  0  0  0  0  0  0
  187.8080  177.6420  137.4020 C   0  0  0  0  0  2  0  0  0  0  0  0
  188.3240  177.1100  139.8940 C   0  0  2  0  0  3  0  0  0  0  0  0
  188.9430  177.3170  142.3230 C   0  0  0  0  0  0  0  0  0  0  0  0
  184.9270  179.2110  144.7930 C   0  0  0  0  0  2  0  0  0  0  0  0
  186.7560  178.0890  141.6440 C   0  0  0  0  0  0  0  0  0  0  0  0
  187.0920  178.2050  145.4390 C   0  0  0  0  0  2  0  0  0  0  0  0
  187.3520  177.9120  143.9940 C   0  0  0  0  0  0  0  0  0  0  0  0
  189.7900  177.3420  139.4910 C   0  0  2  0  0  3  0  0  0  0  0  0
  188.6060  177.5170  143.6280 N   0  0  0  0  0  0  0  0  0  0  0  0
  190.7740  177.5220  140.6560 C   0  0  0  0  0  2  0  0  0  0  0  0
  189.7930  178.5850  138.6170 C   0  0  0  0  0  2  0  0  0  0  0  0
  185.7880  178.4170  140.5820 C   0  0  0  0  0  3  0  0  0  0  0  0
  186.0570  178.3290  139.2640 C   0  0  0  0  0  0  0  0  0  0  0  0
  186.4050  178.2480  142.9980 C   0  0  0  0  0  0  0  0  0  0  0  0
  190.3060  176.8170  141.9390 C   0  0  1  0  0  3  0  0  0  0  0  0
  188.3590  178.8440  138.1560 C   0  0  2  0  0  3  0  0  0  0  0  0
  185.6040  178.2500  145.7550 C   0  0  0  0  0  2  0  0  0  0  0  0
  184.9890  178.6110  143.3940 C   0  0  0  0  0  2  0  0  0  0  0  0
  182.3760  175.7270  139.3160 C   0  0  0  0  0  1  0  0  0  0  0  0
  181.7550  177.8740  141.1310 O   0  0  0  0  0  1  0  0  0  0  0  0
  183.1500  177.8370  136.6980 C   0  0  0  0  0  1  0  0  0  0  0  0
  183.1780  179.4710  140.0870 C   0  0  0  0  0  2  0  0  0  0  0  0
  184.8220  178.5390  138.3770 C   0  0  2  0  0  3  0  0  0  0  0  0
  182.7150  177.1880  139.0320 C   0  0  2  0  0  3  0  0  0  0  0  0
  184.0160  179.7600  138.8370 C   0  0  0  0  0  2  0  0  0  0  0  0
  183.8480  177.3970  137.9760 C   0  0  0  0  0  0  0  0  0  0  0  0
  184.6090  176.1330  137.5940 C   0  0  0  0  0  1  0  0  0  0  0  0
  182.9030  177.9850  140.3410 C   0  0  2  0  0  3  0  0  0  0  0  0
  191.2550  176.8870  142.9880 O   0  0  0  0  0  0  0  0  0  0  0  0
  191.4070  175.6280  143.5940 C   0  0  0  0  0  1  0  0  0  0  0  0
  1  3  1  6  0  0  0
  1 15  1  0  0  0  0
  1  4  1  0  0  0  0
  2  7  2  0  0  0  0
  2  5  1  0  0  0  0
  4  2  1  1  0  0  0
  5 11  2  0  0  0  0
  6 19  1  0  0  0  0
  7 16  1  0  0  0  0
  8 19  1  0  0  0  0
  9  8  1  0  0  0  0
 10 13  1  6  0  0  0
 10  4  1  0  0  0  0
 10 12  1  0  0  0  0
 11  9  1  0  0  0  0
 12 17  1  0  0  0  0
 14  7  1  0  0  0  0
 15 14  2  0  0  0  0
 16 20  1  0  0  0  0
 16  9  2  0  0  0  0
 17  5  1  0  0  0  0
 17 31  1  1  0  0  0
 18  3  1  6  0  0  0
 18 13  1  0  0  0  0
 18  1  1  0  0  0  0
 20  6  1  0  0  0  0
 23 28  1  0  0  0  0
 24 30  1  0  0  0  0
 25 27  1  0  0  0  0
 25 15  1  1  0  0  0
 26 21  1  1  0  0  0
 26 30  1  0  0  0  0
 27 24  1  0  0  0  0
 28 25  1  0  0  0  0
 28 26  1  0  0  0  0
 29 28  1  0  0  0  0
 30 22  1  1  0  0  0
 31 32  1  0  0  0  0
M  END
>  <MODEL>
6

>  <REMARK>
 VINA RESULT:      -7.3      2.121      7.804
  Name = 
  2 active torsions:
  status: ('A' for Active; 'I' for Inactive)
    1  A    between atoms: O_13  and  C_29
    2  A    between atoms: C_16  and  C_27
                            x       y       z     vdW  Elec       q    Type
                         _______ _______ _______ _____ _____    ______ ____

>  <TORSDO>
F 2

$$$$
=
 OpenBabel10262421003D

 32 38  0  0  1  0  0  0  0  0999 V2000
  184.9260  178.8520  141.4740 C   0  0  2  0  0  0  0  0  0  0  0  0
  186.6630  178.2660  139.7400 C   0  0  0  0  0  0  0  0  0  0  0  0
  184.5600  179.3600  142.8530 C   0  0  0  0  0  2  0  0  0  0  0  0
  186.3880  179.0010  141.0400 C   0  0  2  0  0  3  0  0  0  0  0  0
  187.9870  177.9520  139.4050 C   0  0  0  0  0  0  0  0  0  0  0  0
  185.3290  176.5670  135.3040 C   0  0  0  0  0  2  0  0  0  0  0  0
  185.6450  178.0150  138.8130 C   0  0  0  0  0  0  0  0  0  0  0  0
  187.7260  176.7350  135.8880 C   0  0  0  0  0  2  0  0  0  0  0  0
  187.3320  177.3480  137.1960 C   0  0  0  0  0  0  0  0  0  0  0  0
  187.2540  178.5150  142.2140 C   0  0  2  0  0  3  0  0  0  0  0  0
  188.2870  177.4850  138.1620 N   0  0  0  0  0  0  0  0  0  0  0  0
  188.5300  177.7550  141.8230 C   0  0  0  0  0  2  0  0  0  0  0  0
  186.3580  177.6190  143.0530 C   0  0  0  0  0  2  0  0  0  0  0  0
  184.2400  178.2730  139.1780 C   0  0  0  0  0  3  0  0  0  0  0  0
  183.8380  178.6600  140.4050 C   0  0  0  0  0  0  0  0  0  0  0  0
  185.9730  177.5750  137.5180 C   0  0  0  0  0  0  0  0  0  0  0  0
  189.0580  178.1620  140.4380 C   0  0  1  0  0  3  0  0  0  0  0  0
  184.9070  177.8920  142.6530 C   0  0  2  0  0  3  0  0  0  0  0  0
  186.6960  176.9970  134.8000 C   0  0  0  0  0  2  0  0  0  0  0  0
  184.9180  177.5030  136.4340 C   0  0  0  0  0  2  0  0  0  0  0  0
  181.1770  179.2090  136.8080 C   0  0  0  0  0  1  0  0  0  0  0  0
  180.7570  176.4700  137.5920 O   0  0  0  0  0  1  0  0  0  0  0  0
  180.4100  180.4740  139.9250 C   0  0  0  0  0  1  0  0  0  0  0  0
  181.2700  176.8110  139.8910 C   0  0  0  0  0  2  0  0  0  0  0  0
  182.3550  179.0460  140.4640 C   0  0  2  0  0  3  0  0  0  0  0  0
  181.0250  178.7670  138.2620 C   0  0  2  0  0  3  0  0  0  0  0  0
  181.5000  177.8770  140.9680 C   0  0  0  0  0  2  0  0  0  0  0  0
  181.6090  179.7710  139.3080 C   0  0  0  0  0  0  0  0  0  0  0  0
  182.4610  180.8880  138.7180 C   0  0  0  0  0  1  0  0  0  0  0  0
  181.4760  177.3030  138.4540 C   0  0  2  0  0  3  0  0  0  0  0  0
  190.2910  177.5460  140.1110 O   0  0  0  0  0  0  0  0  0  0  0  0
  190.9520  177.1280  141.2790 C   0  0  0  0  0  1  0  0  0  0  0  0
  1 18  1  0  0  0  0
  1  3  1  1  0  0  0
  4  2  1  6  0  0  0
  4  1  1  0  0  0  0
  4 10  1  0  0  0  0
  5  2  1  0  0  0  0
  5 17  1  0  0  0  0
  6 20  1  0  0  0  0
  7 14  1  0  0  0  0
  7  2  2  0  0  0  0
  8  9  1  0  0  0  0
  9 16  2  0  0  0  0
  9 11  1  0  0  0  0
 10 12  1  6  0  0  0
 10 13  1  0  0  0  0
 11  5  2  0  0  0  0
 14 15  2  0  0  0  0
 15  1  1  0  0  0  0
 16  7  1  0  0  0  0
 17 31  1  6  0  0  0
 17 12  1  0  0  0  0
 18  3  1  1  0  0  0
 18 13  1  0  0  0  0
 19  6  1  0  0  0  0
 19  8  1  0  0  0  0
 20 16  1  0  0  0  0
 24 27  1  0  0  0  0
 25 15  1  6  0  0  0
 25 27  1  0  0  0  0
 26 21  1  6  0  0  0
 26 30  1  0  0  0  0
 26 28  1  0  0  0  0
 28 23  1  0  0  0  0
 28 25  1  0  0  0  0
 29 28  1  0  0  0  0
 30 22  1  6  0  0  0
 30 24  1  0  0  0  0
 31 32  1  0  0  0  0
M  END
>  <MODEL>
7

>  <REMARK>
 VINA RESULT:      -7.3      3.114      7.895
  Name = 
  2 active torsions:
  status: ('A' for Active; 'I' for Inactive)
    1  A    between atoms: O_13  and  C_29
    2  A    between atoms: C_16  and  C_27
                            x       y       z     vdW  Elec       q    Type
                         _______ _______ _______ _____ _____    ______ ____

>  <TORSDO>
F 2

$$$$
=
 OpenBabel10262421003D

 32 38  0  0  1  0  0  0  0  0999 V2000
  186.1640  178.6410  142.6850 C   0  0  2  0  0  0  0  0  0  0  0  0
  188.4680  177.8900  141.9790 C   0  0  0  0  0  0  0  0  0  0  0  0
  185.2100  179.1410  143.7490 C   0  0  0  0  0  2  0  0  0  0  0  0
  187.6540  178.6040  143.0440 C   0  0  2  0  0  3  0  0  0  0  0  0
  189.7420  177.4090  142.3090 C   0  0  0  0  0  0  0  0  0  0  0  0
  189.3720  176.5650  137.3130 C   0  0  0  0  0  2  0  0  0  0  0  0
  188.0310  177.8180  140.6520 C   0  0  0  0  0  0  0  0  0  0  0  0
  191.1570  176.3780  139.0140 C   0  0  0  0  0  2  0  0  0  0  0  0
  190.2250  176.9880  140.0150 C   0  0  0  0  0  0  0  0  0  0  0  0
  187.7620  177.9580  144.4350 C   0  0  2  0  0  3  0  0  0  0  0  0
  190.5760  176.9540  141.3330 N   0  0  0  0  0  0  0  0  0  0  0  0
  188.9790  177.0450  144.6460 C   0  0  0  0  0  2  0  0  0  0  0  0
  186.4810  177.1620  144.6280 C   0  0  0  0  0  2  0  0  0  0  0  0
  186.6670  178.2530  140.3030 C   0  0  0  0  0  3  0  0  0  0  0  0
  185.7460  178.6430  141.2060 C   0  0  0  0  0  0  0  0  0  0  0  0
  188.9180  177.3880  139.6480 C   0  0  0  0  0  0  0  0  0  0  0  0
  190.1670  177.4290  143.7500 C   0  0  1  0  0  3  0  0  0  0  0  0
  185.4620  177.6480  143.5970 C   0  0  2  0  0  3  0  0  0  0  0  0
  190.8430  176.8220  137.5940 C   0  0  0  0  0  2  0  0  0  0  0  0
  188.5470  177.5040  138.1840 C   0  0  0  0  0  2  0  0  0  0  0  0
  183.8350  177.1210  137.4180 C   0  0  0  0  0  1  0  0  0  0  0  0
  182.4400  175.7380  139.5230 O   0  0  0  0  0  1  0  0  0  0  0  0
  183.1960  180.2520  138.7180 C   0  0  0  0  0  1  0  0  0  0  0  0
  182.7810  177.4250  141.1670 C   0  0  0  0  0  2  0  0  0  0  0  0
  184.4790  179.2280  140.5670 C   0  0  2  0  0  3  0  0  0  0  0  0
  183.3840  177.7980  138.7100 C   0  0  2  0  0  3  0  0  0  0  0  0
  183.2330  178.8730  141.3870 C   0  0  0  0  0  2  0  0  0  0  0  0
  184.1510  179.1160  139.0520 C   0  0  0  0  0  0  0  0  0  0  0  0
  185.3870  179.3780  138.2000 C   0  0  0  0  0  1  0  0  0  0  0  0
  183.2960  176.7860  139.8730 C   0  0  2  0  0  3  0  0  0  0  0  0
  191.3290  176.6610  144.0110 O   0  0  0  0  0  0  0  0  0  0  0  0
  191.6720  176.7420  145.3710 C   0  0  0  0  0  1  0  0  0  0  0  0
  1  4  1  0  0  0  0
  1 18  1  0  0  0  0
  1  3  1  1  0  0  0
  2  5  1  0  0  0  0
  4  2  1  6  0  0  0
  4 10  1  0  0  0  0
  5 17  1  0  0  0  0
  6 19  1  0  0  0  0
  6 20  1  0  0  0  0
  7  2  2  0  0  0  0
  8  9  1  0  0  0  0
  9 11  1  0  0  0  0
 10 13  1  6  0  0  0
 10 12  1  0  0  0  0
 11  5  2  0  0  0  0
 14  7  1  0  0  0  0
 14 15  2  0  0  0  0
 15  1  1  0  0  0  0
 16  9  2  0  0  0  0
 16  7  1  0  0  0  0
 17 31  1  6  0  0  0
 17 12  1  0  0  0  0
 18  3  1  1  0  0  0
 18 13  1  0  0  0  0
 19  8  1  0  0  0  0
 20 16  1  0  0  0  0
 23 28  1  0  0  0  0
 24 27  1  0  0  0  0
 25 15  1  1  0  0  0
 25 27  1  0  0  0  0
 26 21  1  6  0  0  0
 26 28  1  0  0  0  0
 26 30  1  0  0  0  0
 28 25  1  0  0  0  0
 29 28  1  0  0  0  0
 30 22  1  6  0  0  0
 30 24  1  0  0  0  0
 31 32  1  0  0  0  0
M  END
>  <MODEL>
8

>  <REMARK>
 VINA RESULT:      -7.1      2.464      6.789
  Name = 
  2 active torsions:
  status: ('A' for Active; 'I' for Inactive)
    1  A    between atoms: O_13  and  C_29
    2  A    between atoms: C_16  and  C_27
                            x       y       z     vdW  Elec       q    Type
                         _______ _______ _______ _____ _____    ______ ____

>  <TORSDO>
F 2

$$$$
=
 OpenBabel10262421003D

 32 38  0  0  1  0  0  0  0  0999 V2000
  184.4950  179.1180  143.5390 C   0  0  2  0  0  0  0  0  0  0  0  0
  186.9180  178.4240  143.6790 C   0  0  0  0  0  0  0  0  0  0  0  0
  183.2450  179.6770  144.1860 C   0  0  0  0  0  2  0  0  0  0  0  0
  185.7970  179.2030  144.3440 C   0  0  2  0  0  3  0  0  0  0  0  0
  188.0320  178.0540  144.4430 C   0  0  0  0  0  0  0  0  0  0  0  0
  189.2700  176.6540  139.7190 C   0  0  0  0  0  2  0  0  0  0  0  0
  186.9230  178.1850  142.3010 C   0  0  0  0  0  0  0  0  0  0  0  0
  190.4320  176.7520  141.9000 C   0  0  0  0  0  2  0  0  0  0  0  0
  189.2210  177.4140  142.4810 C   0  0  0  0  0  0  0  0  0  0  0  0
  185.4730  178.7180  145.7670 C   0  0  2  0  0  3  0  0  0  0  0  0
  189.1390  177.5420  143.8370 N   0  0  0  0  0  0  0  0  0  0  0  0
  186.5790  177.9030  146.4540 C   0  0  0  0  0  2  0  0  0  0  0  0
  184.2130  177.8780  145.6470 C   0  0  0  0  0  2  0  0  0  0  0  0
  185.7300  178.5030  141.4950 C   0  0  0  0  0  3  0  0  0  0  0  0
  184.5640  178.9370  142.0150 C   0  0  0  0  0  0  0  0  0  0  0  0
  188.0890  177.6980  141.6810 C   0  0  0  0  0  0  0  0  0  0  0  0
  187.9810  178.2530  145.9320 C   0  0  1  0  0  3  0  0  0  0  0  0
  183.5600  178.1920  144.3000 C   0  0  2  0  0  3  0  0  0  0  0  0
  190.5720  177.0220  140.4100 C   0  0  0  0  0  2  0  0  0  0  0  0
  188.1950  177.6350  140.1720 C   0  0  0  0  0  2  0  0  0  0  0  0
  184.0350  176.9640  137.9960 C   0  0  0  0  0  1  0  0  0  0  0  0
  182.0830  175.6810  139.6800 O   0  0  0  0  0  1  0  0  0  0  0  0
  182.9000  180.1480  138.6910 C   0  0  0  0  0  1  0  0  0  0  0  0
  181.8150  177.5240  141.1610 C   0  0  0  0  0  2  0  0  0  0  0  0
  183.5520  179.3780  140.9480 C   0  0  2  0  0  3  0  0  0  0  0  0
  183.1670  177.7210  138.9990 C   0  0  2  0  0  3  0  0  0  0  0  0
  182.1210  179.0130  141.3610 C   0  0  0  0  0  2  0  0  0  0  0  0
  183.7360  179.1120  139.4280 C   0  0  0  0  0  0  0  0  0  0  0  0
  185.1710  179.3800  138.9910 C   0  0  0  0  0  1  0  0  0  0  0  0
  182.7430  176.8100  140.1730 C   0  0  2  0  0  3  0  0  0  0  0  0
  189.0160  177.5840  146.6310 O   0  0  0  0  0  0  0  0  0  0  0  0
  188.9500  177.8820  148.0030 C   0  0  0  0  0  1  0  0  0  0  0  0
  1  3  1  1  0  0  0
  1 18  1  0  0  0  0
  1  4  1  0  0  0  0
  2  5  1  0  0  0  0
  4  2  1  6  0  0  0
  4 10  1  0  0  0  0
  5 17  1  0  0  0  0
  6 20  1  0  0  0  0
  6 19  1  0  0  0  0
  7  2  2  0  0  0  0
  8  9  1  0  0  0  0
  9 11  1  0  0  0  0
 10 13  1  6  0  0  0
 10 12  1  0  0  0  0
 11  5  2  0  0  0  0
 14 15  2  0  0  0  0
 14  7  1  0  0  0  0
 15  1  1  0  0  0  0
 16  7  1  0  0  0  0
 16  9  2  0  0  0  0
 17 12  1  0  0  0  0
 17 31  1  1  0  0  0
 18  3  1  1  0  0  0
 18 13  1  0  0  0  0
 19  8  1  0  0  0  0
 20 16  1  0  0  0  0
 23 28  1  0  0  0  0
 24 27  1  0  0  0  0
 25 27  1  0  0  0  0
 25 15  1  1  0  0  0
 26 21  1  1  0  0  0
 26 28  1  0  0  0  0
 26 30  1  0  0  0  0
 28 25  1  0  0  0  0
 29 28  1  0  0  0  0
 30 22  1  6  0  0  0
 30 24  1  0  0  0  0
 31 32  1  0  0  0  0
M  END
>  <MODEL>
9

>  <REMARK>
 VINA RESULT:      -7.1      2.248      6.482
  Name = 
  2 active torsions:
  status: ('A' for Active; 'I' for Inactive)
    1  A    between atoms: O_13  and  C_29
    2  A    between atoms: C_16  and  C_27
                            x       y       z     vdW  Elec       q    Type
                         _______ _______ _______ _____ _____    ______ ____

>  <TORSDO>
F 2

$$$$
