=
 OpenBabel10262420413D

 55 60  0  0  1  0  0  0  0  0999 V2000
  187.0020  178.3500  141.1800 C   0  0  2  0  0  0  0  0  0  0  0  0
  187.4420  179.6950  141.7200 C   0  0  0  0  0  1  0  0  0  0  0  0
  185.9840  177.9250  139.0270 O   0  0  0  0  0  0  0  0  0  0  0  0
  186.0130  178.6350  140.0700 C   0  0  0  0  0  0  0  0  0  0  0  0
  185.1800  179.7470  140.1530 O   0  0  0  0  0  1  0  0  0  0  0  0
  186.4080  177.6210  142.2440 O   0  0  0  0  0  0  0  0  0  0  0  0
  185.8990  178.5060  143.2160 C   0  0  0  0  0  2  0  0  0  0  0  0
  184.4450  178.1820  143.4950 C   0  0  0  0  0  2  0  0  0  0  0  0
  183.5440  179.0940  142.6840 C   0  0  0  0  0  2  0  0  0  0  0  0
  182.1820  178.4540  142.4970 C   0  0  1  0  0  3  0  0  0  0  0  0
  181.4630  178.5840  143.6720 F   0  0  0  0  0  0  0  0  0  0  0  0
  181.5000  179.1100  141.4550 O   0  0  0  0  0  0  0  0  0  0  0  0
  182.7410  178.6330  138.0120 C   0  0  0  0  0  2  0  0  0  0  0  0
  180.9460  178.1650  140.5500 C   0  0  1  0  0  0  0  0  0  0  0  0
  182.1450  180.7760  139.0680 O   0  0  0  0  0  0  0  0  0  0  0  0
  179.5490  179.9360  139.6400 O   0  0  0  0  0  1  0  0  0  0  0  0
  180.4740  178.9480  139.2920 C   0  0  1  0  0  0  0  0  0  0  0  0
  180.8640  176.9870  137.6970 C   0  0  0  0  0  2  0  0  0  0  0  0
  181.4820  180.7200  137.8930 O   0  0  0  0  0  0  0  0  0  0  0  0
  182.2790  177.1900  138.2600 C   0  0  2  0  0  0  0  0  0  0  0  0
  181.6950  179.5630  138.6030 C   0  0  0  0  0  0  0  0  0  0  0  0
  182.2350  176.8920  140.0750 S   0  0  0  0  0  0  0  0  0  0  0  0
  179.8380  177.9800  138.2840 C   0  0  0  0  0  2  0  0  0  0  0  0
  178.9310  178.2020  141.9870 O   0  0  0  0  0  0  0  0  0  0  0  0
  179.7840  177.5000  141.1640 N   0  0  0  0  0  0  0  0  0  0  0  0
  179.6710  176.2590  141.1070 O   0  0  0  0  0  0  0  0  0  0  0  0
  183.2120  176.2190  137.5940 C   0  0  0  0  0  0  0  0  0  0  0  0
  183.3580  174.9270  138.0940 O   0  0  0  0  0  1  0  0  0  0  0  0
  183.9390  176.5910  136.6300 O   0  0  0  0  0  0  0  0  0  0  0  0
  188.2440  177.6200  140.6360 C   0  0  0  0  0  2  0  0  0  0  0  0
  188.8480  178.3260  139.5840 O   0  0  0  0  0  0  0  0  0  0  0  0
  190.0280  177.6370  139.2660 C   0  0  2  0  0  3  0  0  0  0  0  0
  189.8050  176.6440  138.0970 C   0  0  1  0  0  3  0  0  0  0  0  0
  188.3560  176.0540  136.0570 C   0  0  0  0  0  2  0  0  0  0  0  0
  188.2120  174.9250  137.0570 C   0  0  1  0  0  3  0  0  0  0  0  0
  188.3890  176.3560  137.5380 C   0  0  1  0  0  3  0  0  0  0  0  0
  186.7440  174.5390  137.1150 C   0  0  1  0  0  3  0  0  0  0  0  0
  186.4390  173.7200  136.0110 O   0  0  0  0  0  0  0  0  0  0  0  0
  186.5890  173.0710  137.2460 C   0  0  0  0  0  2  0  0  0  0  0  0
  190.8290  176.8160  136.9650 C   0  0  0  0  0  2  0  0  0  0  0  0
  193.4630  176.9820  138.3300 O   0  0  0  0  0  0  0  0  0  0  0  0
  192.9930  173.7040  136.9750 C   0  0  0  0  0  3  0  0  0  0  0  0
  191.8940  175.8180  137.0150 N   0  0  0  0  0  0  0  0  0  0  0  0
  191.6980  174.4440  136.6100 C   0  0  0  0  0  3  0  0  0  0  0  0
  193.8650  174.6710  137.7810 C   0  0  0  0  0  2  0  0  0  0  0  0
  193.0950  175.9260  137.7510 C   0  0  0  0  0  0  0  0  0  0  0  0
  190.5220  176.8720  140.5050 C   0  0  0  0  0  2  0  0  0  0  0  0
  191.6270  177.5220  141.0620 O   0  0  0  0  0  0  0  0  0  0  0  0
  191.6140  177.1560  142.4080 C   0  0  0  0  0  2  0  0  0  0  0  0
  191.2280  178.3590  143.2440 C   0  0  0  0  0  2  0  0  0  0  0  0
  190.6400  177.9100  144.5320 C   0  0  0  0  0  0  0  0  0  0  0  0
  191.3910  177.4770  145.4410 O   0  0  0  0  0  0  0  0  0  0  0  0
  189.2530  177.9430  144.6980 O   0  0  0  0  0  0  0  0  0  0  0  0
  188.5760  177.0950  145.6140 C   0  0  0  0  0  2  0  0  0  0  0  0
  187.6210  177.9080  146.4710 C   0  0  0  0  0  1  0  0  0  0  0  0
  1  2  1  1  0  0  0
  1  6  1  0  0  0  0
  3  4  2  0  0  0  0
  4  5  1  0  0  0  0
  4  1  1  0  0  0  0
  6  7  1  0  0  0  0
  7  8  1  0  0  0  0
  9  8  1  0  0  0  0
 10  9  1  0  0  0  0
 10 11  1  1  0  0  0
 12 10  1  0  0  0  0
 13 20  1  0  0  0  0
 13 21  1  0  0  0  0
 14 25  1  0  0  0  0
 14 12  1  1  0  0  0
 17 16  1  1  0  0  0
 17 14  1  0  0  0  0
 18 20  1  0  0  0  0
 18 23  1  0  0  0  0
 19 21  1  0  0  0  0
 19 15  1  0  0  0  0
 20 27  1  6  0  0  0
 20 22  1  0  0  0  0
 21 15  1  0  0  0  0
 21 17  1  0  0  0  0
 22 14  1  0  0  0  0
 23 17  1  0  0  0  0
 25 24  2  0  0  0  0
 26 25  2  0  0  0  0
 27 28  1  0  0  0  0
 29 27  2  0  0  0  0
 30  1  1  0  0  0  0
 31 30  1  0  0  0  0
 32 31  1  0  0  0  0
 32 47  1  1  0  0  0
 33 40  1  6  0  0  0
 33 32  1  0  0  0  0
 34 36  1  0  0  0  0
 35 34  1  6  0  0  0
 35 37  1  0  0  0  0
 35 36  1  0  0  0  0
 36 33  1  1  0  0  0
 37 39  1  1  0  0  0
 38 37  1  0  0  0  0
 38 39  1  0  0  0  0
 40 43  1  0  0  0  0
 42 45  1  0  0  0  0
 43 46  1  0  0  0  0
 44 42  2  0  0  0  0
 44 43  1  0  0  0  0
 46 45  1  0  0  0  0
 46 41  2  0  0  0  0
 47 48  1  0  0  0  0
 48 49  1  0  0  0  0
 49 50  1  0  0  0  0
 50 51  1  0  0  0  0
 51 53  1  0  0  0  0
 51 52  2  0  0  0  0
 53 54  1  0  0  0  0
 54 55  1  0  0  0  0
M  END
>  <MODEL>
1

>  <REMARK>
 VINA RESULT:      -5.3      0.000      0.000
  Name = 
  25 active torsions:
  status: ('A' for Active; 'I' for Inactive)
    1  A    between atoms: C_1  and  C_29
    2  A    between atoms: C_2  and  O_28
    3  A    between atoms: C_2  and  C_31
    4  A    between atoms: C_4  and  C_40
    5  A    between atoms: C_6  and  N_20
    6  A    between atoms: C_6  and  O_22
    7  A    between atoms: C_8  and  O_22
    8  A    between atoms: C_8  and  C_35
    9  A    between atoms: C_10  and  O_32
   10  A    between atoms: C_13  and  C_48
   11  A    between atoms: C_13  and  O_52
   12  A    between atoms: N_16  and  C_36
   13  A    between atoms: O_27  and  C_31
   14  A    between atoms: O_27  and  C_54
   15  A    between atoms: O_28  and  C_33
   16  A    between atoms: C_31  and  C_41
   17  A    between atoms: O_32  and  C_39
   18  A    between atoms: C_33  and  C_34
   19  A    between atoms: C_33  and  C_49
   20  A    between atoms: C_34  and  O_52
   21  A    between atoms: C_35  and  C_51
   22  A    between atoms: C_36  and  C_49
   23  A    between atoms: C_39  and  C_48
   24  A    between atoms: C_45  and  C_49
   25  A    between atoms: C_51  and  C_54
                            x       y       z     vdW  Elec       q    Type
                         _______ _______ _______ _____ _____    ______ ____

>  <TORSDO>
F 25

$$$$
=
 OpenBabel10262420413D

 55 60  0  0  1  0  0  0  0  0999 V2000
  187.1160  178.4090  141.2250 C   0  0  2  0  0  0  0  0  0  0  0  0
  187.6770  179.6930  141.8030 C   0  0  0  0  0  1  0  0  0  0  0  0
  185.1940  179.5610  140.3130 O   0  0  0  0  0  1  0  0  0  0  0  0
  186.1880  178.8140  140.1000 C   0  0  0  0  0  0  0  0  0  0  0  0
  186.3760  178.2890  138.8230 O   0  0  0  0  0  0  0  0  0  0  0  0
  186.4250  177.7240  142.2600 O   0  0  0  0  0  0  0  0  0  0  0  0
  185.7990  178.6480  143.1210 C   0  0  0  0  0  2  0  0  0  0  0  0
  184.3940  178.1800  143.4430 C   0  0  0  0  0  2  0  0  0  0  0  0
  183.3860  179.2360  143.0320 C   0  0  0  0  0  2  0  0  0  0  0  0
  182.0170  178.6110  142.8500 C   0  0  1  0  0  3  0  0  0  0  0  0
  181.3180  178.7130  144.0410 F   0  0  0  0  0  0  0  0  0  0  0  0
  181.3220  179.3000  141.8380 O   0  0  0  0  0  0  0  0  0  0  0  0
  182.2910  179.4440  138.2810 C   0  0  0  0  0  2  0  0  0  0  0  0
  180.8350  178.3920  140.8610 C   0  0  1  0  0  0  0  0  0  0  0  0
  181.4780  181.3200  139.6510 O   0  0  0  0  0  0  0  0  0  0  0  0
  179.1050  180.0060  140.2990 O   0  0  0  0  0  1  0  0  0  0  0  0
  180.1330  179.2300  139.7550 C   0  0  1  0  0  0  0  0  0  0  0  0
  180.6650  177.5620  137.8910 C   0  0  0  0  0  2  0  0  0  0  0  0
  180.7220  181.2960  138.5320 O   0  0  0  0  0  0  0  0  0  0  0  0
  182.0800  177.9250  138.3690 C   0  0  2  0  0  0  0  0  0  0  0  0
  181.1760  180.1140  139.0650 C   0  0  0  0  0  0  0  0  0  0  0  0
  182.2530  177.4110  140.1280 S   0  0  0  0  0  0  0  0  0  0  0  0
  179.5600  178.2970  138.6790 C   0  0  0  0  0  2  0  0  0  0  0  0
  179.8000  176.1550  141.0870 O   0  0  0  0  0  0  0  0  0  0  0  0
  179.8510  177.4780  141.4660 N   0  0  0  0  0  0  0  0  0  0  0  0
  178.9310  177.9320  142.1770 O   0  0  0  0  0  0  0  0  0  0  0  0
  183.0830  177.2050  137.5130 C   0  0  0  0  0  0  0  0  0  0  0  0
  183.1120  177.4140  136.1360 O   0  0  0  0  0  0  0  0  0  0  0  0
  183.8470  176.3370  138.0200 O   0  0  0  0  0  1  0  0  0  0  0  0
  188.2900  177.5680  140.6930 C   0  0  0  0  0  2  0  0  0  0  0  0
  189.0010  178.2370  139.6850 O   0  0  0  0  0  0  0  0  0  0  0  0
  190.3120  177.7390  139.7240 C   0  0  2  0  0  3  0  0  0  0  0  0
  190.6180  176.8560  138.4860 C   0  0  1  0  0  3  0  0  0  0  0  0
  191.9850  174.8870  137.5600 C   0  0  0  0  0  2  0  0  0  0  0  0
  192.4130  176.1310  136.8060 C   0  0  1  0  0  3  0  0  0  0  0  0
  192.0140  176.2220  138.2700 C   0  0  1  0  0  3  0  0  0  0  0  0
  193.9270  176.1030  136.6850 C   0  0  1  0  0  3  0  0  0  0  0  0
  194.2990  175.0830  135.7880 O   0  0  0  0  0  0  0  0  0  0  0  0
  194.3500  176.3950  135.2940 C   0  0  0  0  0  2  0  0  0  0  0  0
  189.4940  175.8580  138.1730 C   0  0  0  0  0  2  0  0  0  0  0  0
  186.7920  174.9090  137.3800 O   0  0  0  0  0  0  0  0  0  0  0  0
  187.8220  177.5900  135.2450 C   0  0  0  0  0  3  0  0  0  0  0  0
  188.6860  176.2620  137.0260 N   0  0  0  0  0  0  0  0  0  0  0  0
  188.9920  177.4270  136.2260 C   0  0  0  0  0  3  0  0  0  0  0  0
  186.7410  176.5810  135.6470 C   0  0  0  0  0  2  0  0  0  0  0  0
  187.3710  175.8310  136.7470 C   0  0  0  0  0  0  0  0  0  0  0  0
  190.5080  176.9150  141.0060 C   0  0  0  0  0  2  0  0  0  0  0  0
  191.4930  177.4990  141.8080 O   0  0  0  0  0  0  0  0  0  0  0  0
  191.3570  176.8780  143.0490 C   0  0  0  0  0  2  0  0  0  0  0  0
  191.4180  177.9280  144.1390 C   0  0  0  0  0  2  0  0  0  0  0  0
  191.0460  177.3240  145.4440 C   0  0  0  0  0  0  0  0  0  0  0  0
  191.9270  176.7630  146.1430 O   0  0  0  0  0  0  0  0  0  0  0  0
  189.7120  177.3580  145.8570 O   0  0  0  0  0  0  0  0  0  0  0  0
  189.2970  176.8850  147.1310 C   0  0  0  0  0  2  0  0  0  0  0  0
  189.2490  178.0330  148.1240 C   0  0  0  0  0  1  0  0  0  0  0  0
  1  2  1  1  0  0  0
  1  6  1  0  0  0  0
  4  3  1  0  0  0  0
  4  1  1  0  0  0  0
  5  4  2  0  0  0  0
  6  7  1  0  0  0  0
  7  8  1  0  0  0  0
  9  8  1  0  0  0  0
 10  9  1  0  0  0  0
 10 11  1  1  0  0  0
 12 10  1  0  0  0  0
 13 20  1  0  0  0  0
 13 21  1  0  0  0  0
 14 25  1  0  0  0  0
 14 12  1  1  0  0  0
 17 16  1  1  0  0  0
 17 14  1  0  0  0  0
 18 20  1  0  0  0  0
 18 23  1  0  0  0  0
 19 21  1  0  0  0  0
 19 15  1  0  0  0  0
 20 27  1  6  0  0  0
 20 22  1  0  0  0  0
 21 15  1  0  0  0  0
 21 17  1  0  0  0  0
 22 14  1  0  0  0  0
 23 17  1  0  0  0  0
 24 25  2  0  0  0  0
 25 26  2  0  0  0  0
 27 29  1  0  0  0  0
 28 27  2  0  0  0  0
 30  1  1  0  0  0  0
 31 32  1  0  0  0  0
 31 30  1  0  0  0  0
 32 47  1  1  0  0  0
 33 40  1  1  0  0  0
 33 32  1  0  0  0  0
 34 36  1  0  0  0  0
 35 34  1  1  0  0  0
 35 36  1  0  0  0  0
 36 33  1  6  0  0  0
 37 39  1  6  0  0  0
 37 35  1  0  0  0  0
 38 37  1  0  0  0  0
 39 38  1  0  0  0  0
 42 45  1  0  0  0  0
 42 44  2  0  0  0  0
 43 40  1  0  0  0  0
 44 43  1  0  0  0  0
 45 46  1  0  0  0  0
 46 43  1  0  0  0  0
 46 41  2  0  0  0  0
 47 48  1  0  0  0  0
 48 49  1  0  0  0  0
 49 50  1  0  0  0  0
 50 51  1  0  0  0  0
 51 53  1  0  0  0  0
 51 52  2  0  0  0  0
 53 54  1  0  0  0  0
 54 55  1  0  0  0  0
M  END
>  <MODEL>
2

>  <REMARK>
 VINA RESULT:      -5.1      1.197      3.072
  Name = 
  25 active torsions:
  status: ('A' for Active; 'I' for Inactive)
    1  A    between atoms: C_1  and  C_29
    2  A    between atoms: C_2  and  O_28
    3  A    between atoms: C_2  and  C_31
    4  A    between atoms: C_4  and  C_40
    5  A    between atoms: C_6  and  N_20
    6  A    between atoms: C_6  and  O_22
    7  A    between atoms: C_8  and  O_22
    8  A    between atoms: C_8  and  C_35
    9  A    between atoms: C_10  and  O_32
   10  A    between atoms: C_13  and  C_48
   11  A    between atoms: C_13  and  O_52
   12  A    between atoms: N_16  and  C_36
   13  A    between atoms: O_27  and  C_31
   14  A    between atoms: O_27  and  C_54
   15  A    between atoms: O_28  and  C_33
   16  A    between atoms: C_31  and  C_41
   17  A    between atoms: O_32  and  C_39
   18  A    between atoms: C_33  and  C_34
   19  A    between atoms: C_33  and  C_49
   20  A    between atoms: C_34  and  O_52
   21  A    between atoms: C_35  and  C_51
   22  A    between atoms: C_36  and  C_49
   23  A    between atoms: C_39  and  C_48
   24  A    between atoms: C_45  and  C_49
   25  A    between atoms: C_51  and  C_54
                            x       y       z     vdW  Elec       q    Type
                         _______ _______ _______ _____ _____    ______ ____

>  <TORSDO>
F 25

$$$$
=
 OpenBabel10262420413D

 55 60  0  0  1  0  0  0  0  0999 V2000
  185.3170  178.5130  141.5550 C   0  0  2  0  0  0  0  0  0  0  0  0
  185.2510  179.7140  142.4770 C   0  0  0  0  0  1  0  0  0  0  0  0
  184.6840  179.9860  139.7440 O   0  0  0  0  0  1  0  0  0  0  0  0
  185.4360  179.0570  140.1480 C   0  0  0  0  0  0  0  0  0  0  0  0
  186.3250  178.4700  139.2500 O   0  0  0  0  0  0  0  0  0  0  0  0
  184.1280  177.7560  141.7310 O   0  0  0  0  0  0  0  0  0  0  0  0
  183.0860  178.5880  142.1890 C   0  0  0  0  0  2  0  0  0  0  0  0
  181.8650  178.4140  141.3080 C   0  0  0  0  0  2  0  0  0  0  0  0
  182.1340  177.3640  140.2480 C   0  0  0  0  0  2  0  0  0  0  0  0
  181.2470  177.5980  139.0410 C   0  0  1  0  0  3  0  0  0  0  0  0
  180.5090  178.7510  139.2460 F   0  0  0  0  0  0  0  0  0  0  0  0
  182.0510  177.7550  137.8960 O   0  0  0  0  0  0  0  0  0  0  0  0
  182.5980  174.1580  137.2770 C   0  0  0  0  0  2  0  0  0  0  0  0
  181.4890  177.0590  136.7930 C   0  0  1  0  0  0  0  0  0  0  0  0
  184.3340  175.8440  137.7300 O   0  0  0  0  0  0  0  0  0  0  0  0
  183.5600  177.4290  135.5720 O   0  0  0  0  0  1  0  0  0  0  0  0
  182.6650  176.4390  135.9860 C   0  0  1  0  0  0  0  0  0  0  0  0
  181.2880  174.4520  135.1500 C   0  0  0  0  0  2  0  0  0  0  0  0
  184.7060  175.1900  136.6080 O   0  0  0  0  0  0  0  0  0  0  0  0
  181.1910  174.2540  136.6700 C   0  0  2  0  0  0  0  0  0  0  0  0
  183.3700  175.3970  136.8580 C   0  0  0  0  0  0  0  0  0  0  0  0
  180.3370  175.7120  137.3980 S   0  0  0  0  0  0  0  0  0  0  0  0
  182.1190  175.6940  134.7590 C   0  0  0  0  0  2  0  0  0  0  0  0
  181.1470  179.3140  135.8320 O   0  0  0  0  0  0  0  0  0  0  0  0
  180.7550  177.9970  135.9260 N   0  0  0  0  0  0  0  0  0  0  0  0
  179.6620  177.6620  135.4250 O   0  0  0  0  0  0  0  0  0  0  0  0
  180.4130  172.9990  136.9480 C   0  0  0  0  0  0  0  0  0  0  0  0
  181.0660  171.8450  137.3750 O   0  0  0  0  0  1  0  0  0  0  0  0
  179.1730  172.9530  136.7120 O   0  0  0  0  0  0  0  0  0  0  0  0
  186.5590  177.6860  141.9310 C   0  0  0  0  0  2  0  0  0  0  0  0
  187.7480  178.4070  141.7390 O   0  0  0  0  0  0  0  0  0  0  0  0
  188.7910  177.5870  142.1950 C   0  0  2  0  0  3  0  0  0  0  0  0
  189.2610  178.0050  143.6120 C   0  0  1  0  0  3  0  0  0  0  0  0
  188.8540  178.2300  146.1400 C   0  0  0  0  0  2  0  0  0  0  0  0
  187.5040  178.3010  145.4550 C   0  0  1  0  0  3  0  0  0  0  0  0
  188.6050  177.4200  144.8870 C   0  0  1  0  0  3  0  0  0  0  0  0
  186.5310  177.4550  146.2580 C   0  0  1  0  0  3  0  0  0  0  0  0
  186.3200  178.0610  147.5120 O   0  0  0  0  0  0  0  0  0  0  0  0
  185.2970  178.2170  146.5650 C   0  0  0  0  0  2  0  0  0  0  0  0
  190.7900  178.0580  143.7420 C   0  0  0  0  0  2  0  0  0  0  0  0
  191.8420  177.4200  146.4470 O   0  0  0  0  0  0  0  0  0  0  0  0
  191.8060  174.4700  144.4230 C   0  0  0  0  0  3  0  0  0  0  0  0
  191.3550  176.8020  144.2280 N   0  0  0  0  0  0  0  0  0  0  0  0
  191.2340  175.5570  143.5020 C   0  0  0  0  0  3  0  0  0  0  0  0
  192.0840  175.1170  145.7830 C   0  0  0  0  0  2  0  0  0  0  0  0
  191.7660  176.5370  145.5530 C   0  0  0  0  0  0  0  0  0  0  0  0
  189.9720  177.6700  141.2140 C   0  0  0  0  0  2  0  0  0  0  0  0
  189.5040  177.8770  139.9140 O   0  0  0  0  0  0  0  0  0  0  0  0
  190.6030  177.6220  139.0940 C   0  0  0  0  0  2  0  0  0  0  0  0
  190.8470  176.1280  139.0430 C   0  0  0  0  0  2  0  0  0  0  0  0
  190.1800  175.5490  137.8480 C   0  0  0  0  0  0  0  0  0  0  0  0
  190.2520  174.3120  137.6350 O   0  0  0  0  0  0  0  0  0  0  0  0
  189.5140  176.3960  136.9600 O   0  0  0  0  0  0  0  0  0  0  0  0
  188.1100  176.3280  136.7510 C   0  0  0  0  0  2  0  0  0  0  0  0
  187.6130  177.6170  136.1190 C   0  0  0  0  0  1  0  0  0  0  0  0
  1  6  1  0  0  0  0
  1 30  1  0  0  0  0
  1  2  1  1  0  0  0
  3  4  1  0  0  0  0
  4  1  1  0  0  0  0
  5  4  2  0  0  0  0
  6  7  1  0  0  0  0
  8  7  1  0  0  0  0
  9  8  1  0  0  0  0
 10 11  1  1  0  0  0
 10  9  1  0  0  0  0
 12 10  1  0  0  0  0
 14 22  1  0  0  0  0
 14 12  1  1  0  0  0
 17 16  1  6  0  0  0
 17 14  1  0  0  0  0
 17 21  1  0  0  0  0
 18 20  1  0  0  0  0
 19 21  1  0  0  0  0
 19 15  1  0  0  0  0
 20 27  1  1  0  0  0
 20 13  1  0  0  0  0
 20 22  1  0  0  0  0
 21 13  1  0  0  0  0
 21 15  1  0  0  0  0
 23 18  1  0  0  0  0
 23 17  1  0  0  0  0
 24 25  2  0  0  0  0
 25 14  1  0  0  0  0
 26 25  2  0  0  0  0
 27 28  1  0  0  0  0
 29 27  2  0  0  0  0
 31 30  1  0  0  0  0
 31 32  1  0  0  0  0
 32 47  1  6  0  0  0
 32 33  1  0  0  0  0
 33 40  1  6  0  0  0
 35 34  1  1  0  0  0
 35 37  1  0  0  0  0
 36 33  1  6  0  0  0
 36 35  1  0  0  0  0
 36 34  1  0  0  0  0
 37 39  1  6  0  0  0
 37 38  1  0  0  0  0
 39 38  1  0  0  0  0
 40 43  1  0  0  0  0
 42 45  1  0  0  0  0
 43 46  1  0  0  0  0
 44 43  1  0  0  0  0
 44 42  2  0  0  0  0
 46 45  1  0  0  0  0
 46 41  2  0  0  0  0
 48 47  1  0  0  0  0
 49 48  1  0  0  0  0
 50 49  1  0  0  0  0
 51 50  1  0  0  0  0
 52 51  2  0  0  0  0
 53 51  1  0  0  0  0
 54 53  1  0  0  0  0
 55 54  1  0  0  0  0
M  END
>  <MODEL>
3

>  <REMARK>
 VINA RESULT:      -5.0      2.609      6.048
  Name = 
  25 active torsions:
  status: ('A' for Active; 'I' for Inactive)
    1  A    between atoms: C_1  and  C_29
    2  A    between atoms: C_2  and  O_28
    3  A    between atoms: C_2  and  C_31
    4  A    between atoms: C_4  and  C_40
    5  A    between atoms: C_6  and  N_20
    6  A    between atoms: C_6  and  O_22
    7  A    between atoms: C_8  and  O_22
    8  A    between atoms: C_8  and  C_35
    9  A    between atoms: C_10  and  O_32
   10  A    between atoms: C_13  and  C_48
   11  A    between atoms: C_13  and  O_52
   12  A    between atoms: N_16  and  C_36
   13  A    between atoms: O_27  and  C_31
   14  A    between atoms: O_27  and  C_54
   15  A    between atoms: O_28  and  C_33
   16  A    between atoms: C_31  and  C_41
   17  A    between atoms: O_32  and  C_39
   18  A    between atoms: C_33  and  C_34
   19  A    between atoms: C_33  and  C_49
   20  A    between atoms: C_34  and  O_52
   21  A    between atoms: C_35  and  C_51
   22  A    between atoms: C_36  and  C_49
   23  A    between atoms: C_39  and  C_48
   24  A    between atoms: C_45  and  C_49
   25  A    between atoms: C_51  and  C_54
                            x       y       z     vdW  Elec       q    Type
                         _______ _______ _______ _____ _____    ______ ____

>  <TORSDO>
F 25

$$$$
=
 OpenBabel10262420413D

 55 60  0  0  1  0  0  0  0  0999 V2000
  187.2410  177.5480  143.8400 C   0  0  2  0  0  0  0  0  0  0  0  0
  186.3320  176.3630  144.0960 C   0  0  0  0  0  1  0  0  0  0  0  0
  188.9240  178.5760  145.2410 O   0  0  0  0  0  0  0  0  0  0  0  0
  187.8480  177.9200  145.1760 C   0  0  0  0  0  0  0  0  0  0  0  0
  187.2650  177.4620  146.3540 O   0  0  0  0  0  1  0  0  0  0  0  0
  186.4510  178.6010  143.3060 O   0  0  0  0  0  0  0  0  0  0  0  0
  185.1990  178.6460  143.9510 C   0  0  0  0  0  2  0  0  0  0  0  0
  184.1490  179.1850  143.0000 C   0  0  0  0  0  2  0  0  0  0  0  0
  182.7630  178.9540  143.5700 C   0  0  0  0  0  2  0  0  0  0  0  0
  181.7760  178.6820  142.4520 C   0  0  1  0  0  3  0  0  0  0  0  0
  180.4910  178.7720  142.9600 F   0  0  0  0  0  0  0  0  0  0  0  0
  181.9460  179.6420  141.4360 O   0  0  0  0  0  0  0  0  0  0  0  0
  183.8890  177.7170  138.9590 C   0  0  0  0  0  2  0  0  0  0  0  0
  181.4010  179.1740  140.2120 C   0  0  1  0  0  0  0  0  0  0  0  0
  184.5580  179.8390  140.0130 O   0  0  0  0  0  0  0  0  0  0  0  0
  182.2740  181.1670  139.1230 O   0  0  0  0  0  1  0  0  0  0  0  0
  182.2620  179.7700  139.0620 C   0  0  1  0  0  0  0  0  0  0  0  0
  181.8520  177.8000  137.4830 C   0  0  0  0  0  2  0  0  0  0  0  0
  184.6930  180.0040  138.6790 O   0  0  0  0  0  0  0  0  0  0  0  0
  182.5180  177.0880  138.6710 C   0  0  2  0  0  0  0  0  0  0  0  0
  183.6820  179.2080  139.1620 C   0  0  0  0  0  0  0  0  0  0  0  0
  181.4520  177.3030  140.1550 S   0  0  0  0  0  0  0  0  0  0  0  0
  181.7010  179.3200  137.7040 C   0  0  0  0  0  2  0  0  0  0  0  0
  179.6670  180.9260  140.4320 O   0  0  0  0  0  0  0  0  0  0  0  0
  180.0130  179.6450  140.0640 N   0  0  0  0  0  0  0  0  0  0  0  0
  179.1030  178.8350  139.7950 O   0  0  0  0  0  0  0  0  0  0  0  0
  182.6690  175.6300  138.3420 C   0  0  0  0  0  0  0  0  0  0  0  0
  183.9120  175.1130  137.9840 O   0  0  0  0  0  0  0  0  0  0  0  0
  181.6540  174.8780  138.2990 O   0  0  0  0  0  1  0  0  0  0  0  0
  188.3300  177.1140  142.8430 C   0  0  0  0  0  2  0  0  0  0  0  0
  188.6750  178.1480  141.9590 O   0  0  0  0  0  0  0  0  0  0  0  0
  189.0060  177.5380  140.7400 C   0  0  2  0  0  3  0  0  0  0  0  0
  190.3350  176.7480  140.8470 C   0  0  1  0  0  3  0  0  0  0  0  0
  190.1650  176.1350  138.3560 C   0  0  0  0  0  2  0  0  0  0  0  0
  191.5620  176.6740  138.5970 C   0  0  1  0  0  3  0  0  0  0  0  0
  190.8530  175.8730  139.6770 C   0  0  1  0  0  3  0  0  0  0  0  0
  192.5390  175.7800  137.8520 C   0  0  1  0  0  3  0  0  0  0  0  0
  192.3910  175.9900  136.4670 O   0  0  0  0  0  0  0  0  0  0  0  0
  193.5050  176.5900  137.0730 C   0  0  0  0  0  2  0  0  0  0  0  0
  191.4690  177.5700  141.4760 C   0  0  0  0  0  2  0  0  0  0  0  0
  191.7270  179.3840  143.8160 O   0  0  0  0  0  0  0  0  0  0  0  0
  191.7320  175.9760  144.9060 C   0  0  0  0  0  3  0  0  0  0  0  0
  191.7030  177.2250  142.8760 N   0  0  0  0  0  0  0  0  0  0  0  0
  191.5720  175.8760  143.3810 C   0  0  0  0  0  3  0  0  0  0  0  0
  191.7680  177.4630  145.2690 C   0  0  0  0  0  2  0  0  0  0  0  0
  191.7350  178.1320  143.9570 C   0  0  0  0  0  0  0  0  0  0  0  0
  189.1300  178.6130  139.6480 C   0  0  0  0  0  2  0  0  0  0  0  0
  187.9000  178.7970  139.0120 O   0  0  0  0  0  0  0  0  0  0  0  0
  188.1570  178.5560  137.6620 C   0  0  0  0  0  2  0  0  0  0  0  0
  186.8680  178.1540  136.9760 C   0  0  0  0  0  2  0  0  0  0  0  0
  187.1660  177.5790  135.6390 C   0  0  0  0  0  0  0  0  0  0  0  0
  186.9260  178.2510  134.6060 O   0  0  0  0  0  0  0  0  0  0  0  0
  187.6760  176.2810  135.5520 O   0  0  0  0  0  0  0  0  0  0  0  0
  186.8520  175.1300  135.6700 C   0  0  0  0  0  2  0  0  0  0  0  0
  187.1960  174.3690  136.9380 C   0  0  0  0  0  1  0  0  0  0  0  0
  1  2  1  1  0  0  0
  1  4  1  0  0  0  0
  4  3  2  0  0  0  0
  4  5  1  0  0  0  0
  6  1  1  0  0  0  0
  6  7  1  0  0  0  0
  8  9  1  0  0  0  0
  8  7  1  0  0  0  0
 10 11  1  1  0  0  0
 10  9  1  0  0  0  0
 12 10  1  0  0  0  0
 13 21  1  0  0  0  0
 14 12  1  1  0  0  0
 17 16  1  1  0  0  0
 17 21  1  0  0  0  0
 17 14  1  0  0  0  0
 18 23  1  0  0  0  0
 18 20  1  0  0  0  0
 19 21  1  0  0  0  0
 19 15  1  0  0  0  0
 20 27  1  6  0  0  0
 20 13  1  0  0  0  0
 20 22  1  0  0  0  0
 21 15  1  0  0  0  0
 22 14  1  0  0  0  0
 23 17  1  0  0  0  0
 25 14  1  0  0  0  0
 25 24  2  0  0  0  0
 26 25  2  0  0  0  0
 28 27  2  0  0  0  0
 29 27  1  0  0  0  0
 30  1  1  0  0  0  0
 31 30  1  0  0  0  0
 32 47  1  6  0  0  0
 32 33  1  0  0  0  0
 32 31  1  0  0  0  0
 33 40  1  6  0  0  0
 34 36  1  0  0  0  0
 35 34  1  6  0  0  0
 35 36  1  0  0  0  0
 36 33  1  1  0  0  0
 37 39  1  1  0  0  0
 37 35  1  0  0  0  0
 38 39  1  0  0  0  0
 38 37  1  0  0  0  0
 40 43  1  0  0  0  0
 41 46  2  0  0  0  0
 42 45  1  0  0  0  0
 43 44  1  0  0  0  0
 43 46  1  0  0  0  0
 44 42  2  0  0  0  0
 46 45  1  0  0  0  0
 48 47  1  0  0  0  0
 49 48  1  0  0  0  0
 50 49  1  0  0  0  0
 51 50  1  0  0  0  0
 52 51  2  0  0  0  0
 53 51  1  0  0  0  0
 53 54  1  0  0  0  0
 54 55  1  0  0  0  0
M  END
>  <MODEL>
4

>  <REMARK>
 VINA RESULT:      -4.7      1.800      5.074
  Name = 
  25 active torsions:
  status: ('A' for Active; 'I' for Inactive)
    1  A    between atoms: C_1  and  C_29
    2  A    between atoms: C_2  and  O_28
    3  A    between atoms: C_2  and  C_31
    4  A    between atoms: C_4  and  C_40
    5  A    between atoms: C_6  and  N_20
    6  A    between atoms: C_6  and  O_22
    7  A    between atoms: C_8  and  O_22
    8  A    between atoms: C_8  and  C_35
    9  A    between atoms: C_10  and  O_32
   10  A    between atoms: C_13  and  C_48
   11  A    between atoms: C_13  and  O_52
   12  A    between atoms: N_16  and  C_36
   13  A    between atoms: O_27  and  C_31
   14  A    between atoms: O_27  and  C_54
   15  A    between atoms: O_28  and  C_33
   16  A    between atoms: C_31  and  C_41
   17  A    between atoms: O_32  and  C_39
   18  A    between atoms: C_33  and  C_34
   19  A    between atoms: C_33  and  C_49
   20  A    between atoms: C_34  and  O_52
   21  A    between atoms: C_35  and  C_51
   22  A    between atoms: C_36  and  C_49
   23  A    between atoms: C_39  and  C_48
   24  A    between atoms: C_45  and  C_49
   25  A    between atoms: C_51  and  C_54
                            x       y       z     vdW  Elec       q    Type
                         _______ _______ _______ _____ _____    ______ ____

>  <TORSDO>
F 25

$$$$
=
 OpenBabel10262420413D

 55 60  0  0  1  0  0  0  0  0999 V2000
  187.2620  177.4000  144.2170 C   0  0  2  0  0  0  0  0  0  0  0  0
  186.1350  176.4270  144.5020 C   0  0  0  0  0  1  0  0  0  0  0  0
  188.8100  178.5560  145.6730 O   0  0  0  0  0  0  0  0  0  0  0  0
  187.9940  177.6050  145.5260 C   0  0  0  0  0  0  0  0  0  0  0  0
  187.8380  176.6840  146.5590 O   0  0  0  0  0  1  0  0  0  0  0  0
  186.6900  178.6070  143.7360 O   0  0  0  0  0  0  0  0  0  0  0  0
  185.3750  178.7510  144.2230 C   0  0  0  0  0  2  0  0  0  0  0  0
  184.5460  179.5510  143.2380 C   0  0  0  0  0  2  0  0  0  0  0  0
  183.4120  178.7000  142.7000 C   0  0  0  0  0  2  0  0  0  0  0  0
  183.4730  178.6420  141.1860 C   0  0  1  0  0  3  0  0  0  0  0  0
  184.7960  178.5190  140.7960 F   0  0  0  0  0  0  0  0  0  0  0  0
  182.7450  177.5250  140.7330 O   0  0  0  0  0  0  0  0  0  0  0  0
  179.6560  179.5440  140.7460 C   0  0  0  0  0  2  0  0  0  0  0  0
  182.0200  177.8470  139.5560 C   0  0  1  0  0  0  0  0  0  0  0  0
  180.1330  177.5920  142.1680 O   0  0  0  0  0  0  0  0  0  0  0  0
  180.5870  175.9270  139.9780 O   0  0  0  0  0  1  0  0  0  0  0  0
  180.5740  177.3040  139.7380 C   0  0  1  0  0  0  0  0  0  0  0  0
  179.5110  179.1110  138.2720 C   0  0  0  0  0  2  0  0  0  0  0  0
  178.9340  177.3700  141.5870 O   0  0  0  0  0  0  0  0  0  0  0  0
  180.1680  179.9700  139.3630 C   0  0  2  0  0  0  0  0  0  0  0  0
  179.9040  178.0520  140.8940 C   0  0  0  0  0  0  0  0  0  0  0  0
  181.9870  179.7030  139.3030 S   0  0  0  0  0  0  0  0  0  0  0  0
  179.7440  177.5990  138.4790 C   0  0  0  0  0  2  0  0  0  0  0  0
  183.3100  176.0000  138.5330 O   0  0  0  0  0  0  0  0  0  0  0  0
  182.6340  177.1900  138.3890 N   0  0  0  0  0  0  0  0  0  0  0  0
  182.7200  177.7980  137.3020 O   0  0  0  0  0  0  0  0  0  0  0  0
  179.8430  181.4150  139.1050 C   0  0  0  0  0  0  0  0  0  0  0  0
  179.1760  182.1690  140.0680 O   0  0  0  0  0  1  0  0  0  0  0  0
  180.0920  181.9330  137.9810 O   0  0  0  0  0  0  0  0  0  0  0  0
  188.1870  176.7680  143.1620 C   0  0  0  0  0  2  0  0  0  0  0  0
  188.8430  177.7400  142.3910 O   0  0  0  0  0  0  0  0  0  0  0  0
  188.8510  177.2640  141.0710 C   0  0  2  0  0  3  0  0  0  0  0  0
  190.2530  176.7410  140.6670 C   0  0  1  0  0  3  0  0  0  0  0  0
  191.5560  177.3430  138.5340 C   0  0  0  0  0  2  0  0  0  0  0  0
  192.0440  175.9830  138.9960 C   0  0  1  0  0  3  0  0  0  0  0  0
  190.5920  176.3850  139.1980 C   0  0  1  0  0  3  0  0  0  0  0  0
  192.1660  175.0930  137.7720 C   0  0  1  0  0  3  0  0  0  0  0  0
  193.3030  175.4770  137.0350 O   0  0  0  0  0  0  0  0  0  0  0  0
  193.4270  174.3140  137.8100 C   0  0  0  0  0  2  0  0  0  0  0  0
  191.3960  177.5220  141.3320 C   0  0  0  0  0  2  0  0  0  0  0  0
  191.6740  179.1880  143.7770 O   0  0  0  0  0  0  0  0  0  0  0  0
  191.7020  175.7190  144.6520 C   0  0  0  0  0  3  0  0  0  0  0  0
  191.6460  177.0920  142.7050 N   0  0  0  0  0  0  0  0  0  0  0  0
  191.5250  175.7140  143.1270 C   0  0  0  0  0  3  0  0  0  0  0  0
  191.7380  177.1810  145.1070 C   0  0  0  0  0  2  0  0  0  0  0  0
  191.6880  177.9310  143.8400 C   0  0  0  0  0  0  0  0  0  0  0  0
  188.4280  178.3940  140.1180 C   0  0  0  0  0  2  0  0  0  0  0  0
  187.2560  178.0400  139.4420 O   0  0  0  0  0  0  0  0  0  0  0  0
  187.5030  178.3640  138.1090 C   0  0  0  0  0  2  0  0  0  0  0  0
  186.3230  177.9250  137.2650 C   0  0  0  0  0  2  0  0  0  0  0  0
  186.6590  176.6730  136.5410 C   0  0  0  0  0  0  0  0  0  0  0  0
  185.7600  176.0590  135.9130 O   0  0  0  0  0  0  0  0  0  0  0  0
  187.9640  176.1780  136.5990 O   0  0  0  0  0  0  0  0  0  0  0  0
  188.2500  174.8220  136.9090 C   0  0  0  0  0  2  0  0  0  0  0  0
  189.1200  174.2110  135.8250 C   0  0  0  0  0  1  0  0  0  0  0  0
  1  2  1  1  0  0  0
  1  4  1  0  0  0  0
  4  3  2  0  0  0  0
  4  5  1  0  0  0  0
  6  1  1  0  0  0  0
  6  7  1  0  0  0  0
  8  7  1  0  0  0  0
  9  8  1  0  0  0  0
 10 11  1  1  0  0  0
 10  9  1  0  0  0  0
 12 10  1  0  0  0  0
 13 21  1  0  0  0  0
 14 17  1  0  0  0  0
 14 12  1  1  0  0  0
 17 16  1  1  0  0  0
 17 21  1  0  0  0  0
 18 23  1  0  0  0  0
 18 20  1  0  0  0  0
 19 15  1  0  0  0  0
 20 27  1  6  0  0  0
 20 13  1  0  0  0  0
 21 19  1  0  0  0  0
 21 15  1  0  0  0  0
 22 20  1  0  0  0  0
 22 14  1  0  0  0  0
 23 17  1  0  0  0  0
 25 24  2  0  0  0  0
 25 14  1  0  0  0  0
 26 25  2  0  0  0  0
 27 28  1  0  0  0  0
 29 27  2  0  0  0  0
 30  1  1  0  0  0  0
 31 30  1  0  0  0  0
 32 47  1  6  0  0  0
 32 31  1  0  0  0  0
 33 32  1  0  0  0  0
 33 40  1  6  0  0  0
 34 36  1  0  0  0  0
 35 34  1  6  0  0  0
 35 36  1  0  0  0  0
 36 33  1  1  0  0  0
 37 39  1  1  0  0  0
 37 35  1  0  0  0  0
 38 37  1  0  0  0  0
 38 39  1  0  0  0  0
 40 43  1  0  0  0  0
 41 46  2  0  0  0  0
 42 45  1  0  0  0  0
 43 44  1  0  0  0  0
 43 46  1  0  0  0  0
 44 42  2  0  0  0  0
 46 45  1  0  0  0  0
 48 47  1  0  0  0  0
 49 48  1  0  0  0  0
 50 49  1  0  0  0  0
 51 53  1  0  0  0  0
 51 50  1  0  0  0  0
 52 51  2  0  0  0  0
 53 54  1  0  0  0  0
 55 54  1  0  0  0  0
M  END
>  <MODEL>
5

>  <REMARK>
 VINA RESULT:      -4.4      2.019      5.566
  Name = 
  25 active torsions:
  status: ('A' for Active; 'I' for Inactive)
    1  A    between atoms: C_1  and  C_29
    2  A    between atoms: C_2  and  O_28
    3  A    between atoms: C_2  and  C_31
    4  A    between atoms: C_4  and  C_40
    5  A    between atoms: C_6  and  N_20
    6  A    between atoms: C_6  and  O_22
    7  A    between atoms: C_8  and  O_22
    8  A    between atoms: C_8  and  C_35
    9  A    between atoms: C_10  and  O_32
   10  A    between atoms: C_13  and  C_48
   11  A    between atoms: C_13  and  O_52
   12  A    between atoms: N_16  and  C_36
   13  A    between atoms: O_27  and  C_31
   14  A    between atoms: O_27  and  C_54
   15  A    between atoms: O_28  and  C_33
   16  A    between atoms: C_31  and  C_41
   17  A    between atoms: O_32  and  C_39
   18  A    between atoms: C_33  and  C_34
   19  A    between atoms: C_33  and  C_49
   20  A    between atoms: C_34  and  O_52
   21  A    between atoms: C_35  and  C_51
   22  A    between atoms: C_36  and  C_49
   23  A    between atoms: C_39  and  C_48
   24  A    between atoms: C_45  and  C_49
   25  A    between atoms: C_51  and  C_54
                            x       y       z     vdW  Elec       q    Type
                         _______ _______ _______ _____ _____    ______ ____

>  <TORSDO>
F 25

$$$$
=
 OpenBabel10262420413D

 55 60  0  0  1  0  0  0  0  0999 V2000
  185.2550  178.4190  142.5740 C   0  0  2  0  0  0  0  0  0  0  0  0
  185.7410  179.7290  141.9880 C   0  0  0  0  0  1  0  0  0  0  0  0
  184.1210  179.8090  144.1970 O   0  0  0  0  0  0  0  0  0  0  0  0
  184.7380  178.7340  143.9610 C   0  0  0  0  0  0  0  0  0  0  0  0
  185.0190  177.8710  145.0180 O   0  0  0  0  0  1  0  0  0  0  0  0
  186.3530  177.5190  142.6100 O   0  0  0  0  0  0  0  0  0  0  0  0
  187.4510  178.1160  143.2620 C   0  0  0  0  0  2  0  0  0  0  0  0
  188.6580  178.1130  142.3450 C   0  0  0  0  0  2  0  0  0  0  0  0
  188.4410  177.1390  141.2030 C   0  0  0  0  0  2  0  0  0  0  0  0
  188.3690  177.8850  139.8850 C   0  0  1  0  0  3  0  0  0  0  0  0
  188.7140  179.2080  140.1010 F   0  0  0  0  0  0  0  0  0  0  0  0
  189.2730  177.3080  138.9730 O   0  0  0  0  0  0  0  0  0  0  0  0
  188.7390  174.0640  137.2960 C   0  0  0  0  0  2  0  0  0  0  0  0
  188.6770  177.1830  137.6910 C   0  0  1  0  0  0  0  0  0  0  0  0
  190.8390  174.8590  138.3070 O   0  0  0  0  0  0  0  0  0  0  0  0
  190.9050  177.1480  136.7170 O   0  0  0  0  0  1  0  0  0  0  0  0
  189.6960  176.4490  136.7730 C   0  0  1  0  0  0  0  0  0  0  0  0
  187.8920  175.3690  135.3180 C   0  0  0  0  0  2  0  0  0  0  0  0
  191.1350  174.4580  137.0520 O   0  0  0  0  0  0  0  0  0  0  0  0
  187.5310  174.8000  136.6990 C   0  0  2  0  0  0  0  0  0  0  0  0
  189.9120  175.0300  137.3060 C   0  0  0  0  0  0  0  0  0  0  0  0
  187.0880  176.1980  137.8100 S   0  0  0  0  0  0  0  0  0  0  0  0
  189.1170  176.3080  135.3580 C   0  0  0  0  0  2  0  0  0  0  0  0
  187.2560  178.7450  136.4010 O   0  0  0  0  0  0  0  0  0  0  0  0
  188.4020  178.5160  137.1300 N   0  0  0  0  0  0  0  0  0  0  0  0
  189.2890  179.3940  137.1380 O   0  0  0  0  0  0  0  0  0  0  0  0
  186.3670  173.8620  136.5490 C   0  0  0  0  0  0  0  0  0  0  0  0
  186.1500  173.1950  135.3450 O   0  0  0  0  0  0  0  0  0  0  0  0
  185.5240  173.7380  137.4820 O   0  0  0  0  0  1  0  0  0  0  0  0
  184.1280  177.8790  141.6760 C   0  0  0  0  0  2  0  0  0  0  0  0
  183.2330  178.8900  141.2920 O   0  0  0  0  0  0  0  0  0  0  0  0
  182.9440  178.6740  139.9360 C   0  0  2  0  0  3  0  0  0  0  0  0
  181.7070  179.4920  139.4850 C   0  0  1  0  0  3  0  0  0  0  0  0
  179.2040  179.4230  140.0670 C   0  0  0  0  0  2  0  0  0  0  0  0
  179.9450  178.6800  141.1600 C   0  0  1  0  0  3  0  0  0  0  0  0
  180.5860  179.8790  140.4810 C   0  0  1  0  0  3  0  0  0  0  0  0
  179.3500  179.1000  142.4930 C   0  0  1  0  0  3  0  0  0  0  0  0
  179.2720  177.9750  143.3380 O   0  0  0  0  0  0  0  0  0  0  0  0
  180.3160  178.8770  143.5960 C   0  0  0  0  0  2  0  0  0  0  0  0
  182.0720  180.6690  138.5680 C   0  0  0  0  0  2  0  0  0  0  0  0
  181.6210  178.7630  136.3330 O   0  0  0  0  0  0  0  0  0  0  0  0
  179.3030  181.4790  136.1090 C   0  0  0  0  0  3  0  0  0  0  0  0
  181.1650  180.7960  137.4300 N   0  0  0  0  0  0  0  0  0  0  0  0
  180.1200  181.7930  137.3710 C   0  0  0  0  0  3  0  0  0  0  0  0
  179.8090  180.1440  135.5530 C   0  0  0  0  0  2  0  0  0  0  0  0
  180.9370  179.8150  136.4400 C   0  0  0  0  0  0  0  0  0  0  0  0
  182.6870  177.1770  139.7010 C   0  0  0  0  0  2  0  0  0  0  0  0
  183.3800  176.7420  138.5680 O   0  0  0  0  0  0  0  0  0  0  0  0
  182.7630  175.5430  138.2120 C   0  0  0  0  0  2  0  0  0  0  0  0
  181.2600  175.7340  138.2290 C   0  0  0  0  0  2  0  0  0  0  0  0
  180.5830  174.4390  137.9650 C   0  0  0  0  0  0  0  0  0  0  0  0
  180.4350  174.0460  136.7800 O   0  0  0  0  0  0  0  0  0  0  0  0
  180.0880  173.6950  139.0380 O   0  0  0  0  0  0  0  0  0  0  0  0
  178.9310  174.0830  139.7650 C   0  0  0  0  0  2  0  0  0  0  0  0
  179.3290  174.8820  140.9930 C   0  0  0  0  0  1  0  0  0  0  0  0
  1  2  1  6  0  0  0
  1  6  1  0  0  0  0
  1  4  1  0  0  0  0
  4  3  2  0  0  0  0
  4  5  1  0  0  0  0
  6  7  1  0  0  0  0
  8  7  1  0  0  0  0
  9  8  1  0  0  0  0
 10 11  1  1  0  0  0
 10  9  1  0  0  0  0
 12 10  1  0  0  0  0
 13 21  1  0  0  0  0
 14 22  1  0  0  0  0
 14 12  1  1  0  0  0
 17 16  1  6  0  0  0
 17 21  1  0  0  0  0
 17 14  1  0  0  0  0
 18 23  1  0  0  0  0
 18 20  1  0  0  0  0
 19 21  1  0  0  0  0
 19 15  1  0  0  0  0
 20 27  1  6  0  0  0
 20 13  1  0  0  0  0
 20 22  1  0  0  0  0
 21 15  1  0  0  0  0
 23 17  1  0  0  0  0
 24 25  2  0  0  0  0
 25 26  2  0  0  0  0
 25 14  1  0  0  0  0
 27 29  1  0  0  0  0
 28 27  2  0  0  0  0
 30  1  1  0  0  0  0
 31 30  1  0  0  0  0
 32 47  1  1  0  0  0
 32 31  1  0  0  0  0
 33 40  1  1  0  0  0
 33 32  1  0  0  0  0
 34 36  1  0  0  0  0
 35 34  1  6  0  0  0
 35 37  1  0  0  0  0
 36 33  1  6  0  0  0
 36 35  1  0  0  0  0
 37 38  1  0  0  0  0
 37 39  1  1  0  0  0
 38 39  1  0  0  0  0
 41 46  2  0  0  0  0
 42 44  2  0  0  0  0
 43 40  1  0  0  0  0
 44 43  1  0  0  0  0
 45 42  1  0  0  0  0
 45 46  1  0  0  0  0
 46 43  1  0  0  0  0
 48 47  1  0  0  0  0
 49 50  1  0  0  0  0
 49 48  1  0  0  0  0
 51 50  1  0  0  0  0
 51 53  1  0  0  0  0
 52 51  2  0  0  0  0
 53 54  1  0  0  0  0
 54 55  1  0  0  0  0
M  END
>  <MODEL>
6

>  <REMARK>
 VINA RESULT:      -4.3      2.761      9.280
  Name = 
  25 active torsions:
  status: ('A' for Active; 'I' for Inactive)
    1  A    between atoms: C_1  and  C_29
    2  A    between atoms: C_2  and  O_28
    3  A    between atoms: C_2  and  C_31
    4  A    between atoms: C_4  and  C_40
    5  A    between atoms: C_6  and  N_20
    6  A    between atoms: C_6  and  O_22
    7  A    between atoms: C_8  and  O_22
    8  A    between atoms: C_8  and  C_35
    9  A    between atoms: C_10  and  O_32
   10  A    between atoms: C_13  and  C_48
   11  A    between atoms: C_13  and  O_52
   12  A    between atoms: N_16  and  C_36
   13  A    between atoms: O_27  and  C_31
   14  A    between atoms: O_27  and  C_54
   15  A    between atoms: O_28  and  C_33
   16  A    between atoms: C_31  and  C_41
   17  A    between atoms: O_32  and  C_39
   18  A    between atoms: C_33  and  C_34
   19  A    between atoms: C_33  and  C_49
   20  A    between atoms: C_34  and  O_52
   21  A    between atoms: C_35  and  C_51
   22  A    between atoms: C_36  and  C_49
   23  A    between atoms: C_39  and  C_48
   24  A    between atoms: C_45  and  C_49
   25  A    between atoms: C_51  and  C_54
                            x       y       z     vdW  Elec       q    Type
                         _______ _______ _______ _____ _____    ______ ____

>  <TORSDO>
F 25

$$$$
=
 OpenBabel10262420413D

 55 60  0  0  1  0  0  0  0  0999 V2000
  186.7440  177.4840  137.0750 C   0  0  2  0  0  0  0  0  0  0  0  0
  187.2480  176.1330  137.5380 C   0  0  0  0  0  1  0  0  0  0  0  0
  187.1140  178.7870  135.0700 O   0  0  0  0  0  0  0  0  0  0  0  0
  187.3690  177.7350  135.7200 C   0  0  0  0  0  0  0  0  0  0  0  0
  188.1690  176.7570  135.1330 O   0  0  0  0  0  1  0  0  0  0  0  0
  187.1460  178.4550  138.0310 O   0  0  0  0  0  0  0  0  0  0  0  0
  188.5470  178.4370  138.1840 C   0  0  0  0  0  2  0  0  0  0  0  0
  188.9070  178.6290  139.6440 C   0  0  0  0  0  2  0  0  0  0  0  0
  187.6900  178.3890  140.5160 C   0  0  0  0  0  2  0  0  0  0  0  0
  188.0850  178.3920  141.9800 C   0  0  1  0  0  3  0  0  0  0  0  0
  187.4970  177.3050  142.6030 F   0  0  0  0  0  0  0  0  0  0  0  0
  189.4850  178.2910  142.0840 O   0  0  0  0  0  0  0  0  0  0  0  0
  190.1480  178.9100  145.6610 C   0  0  0  0  0  2  0  0  0  0  0  0
  189.8440  177.2660  142.9990 C   0  0  1  0  0  0  0  0  0  0  0  0
  191.1190  180.1380  143.7600 O   0  0  0  0  0  0  0  0  0  0  0  0
  192.1820  177.8240  142.6250 O   0  0  0  0  0  1  0  0  0  0  0  0
  191.2150  177.6560  143.6210 C   0  0  1  0  0  0  0  0  0  0  0  0
  190.7550  176.4750  145.8420 C   0  0  0  0  0  2  0  0  0  0  0  0
  192.1490  179.7510  144.5450 O   0  0  0  0  0  0  0  0  0  0  0  0
  189.5980  177.4840  145.8040 C   0  0  2  0  0  0  0  0  0  0  0  0
  191.0430  178.9420  144.4340 C   0  0  0  0  0  0  0  0  0  0  0  0
  188.5460  177.1130  144.3400 S   0  0  0  0  0  0  0  0  0  0  0  0
  191.6710  176.5670  144.6020 C   0  0  0  0  0  2  0  0  0  0  0  0
  189.8880  174.7920  142.9720 O   0  0  0  0  0  0  0  0  0  0  0  0
  189.9880  175.9840  142.2890 N   0  0  0  0  0  0  0  0  0  0  0  0
  190.3960  175.9640  141.1100 O   0  0  0  0  0  0  0  0  0  0  0  0
  188.7970  177.3540  147.0690 C   0  0  0  0  0  0  0  0  0  0  0  0
  188.9570  178.2760  148.1010 O   0  0  0  0  0  1  0  0  0  0  0  0
  188.0400  176.3590  147.2450 O   0  0  0  0  0  0  0  0  0  0  0  0
  185.2100  177.4150  136.9700 C   0  0  0  0  0  2  0  0  0  0  0  0
  184.5810  177.9940  138.0830 O   0  0  0  0  0  0  0  0  0  0  0  0
  183.2040  177.7830  137.9180 C   0  0  2  0  0  3  0  0  0  0  0  0
  182.3830  178.5530  138.9840 C   0  0  1  0  0  3  0  0  0  0  0  0
  180.9260  180.6350  139.3730 C   0  0  0  0  0  2  0  0  0  0  0  0
  181.4000  180.6750  137.9330 C   0  0  1  0  0  3  0  0  0  0  0  0
  181.1060  179.3440  138.6060 C   0  0  1  0  0  3  0  0  0  0  0  0
  180.2210  181.0860  137.0670 C   0  0  1  0  0  3  0  0  0  0  0  0
  180.4640  182.3680  136.5380 O   0  0  0  0  0  0  0  0  0  0  0  0
  180.6450  181.2880  135.6610 C   0  0  0  0  0  2  0  0  0  0  0  0
  182.1820  177.7500  140.2770 C   0  0  0  0  0  2  0  0  0  0  0  0
  180.8890  179.0440  142.6190 O   0  0  0  0  0  0  0  0  0  0  0  0
  184.4300  178.8950  143.1070 C   0  0  0  0  0  3  0  0  0  0  0  0
  182.8130  178.3810  141.4340 N   0  0  0  0  0  0  0  0  0  0  0  0
  184.2160  178.2230  141.7430 C   0  0  0  0  0  3  0  0  0  0  0  0
  183.0510  179.2760  143.6540 C   0  0  0  0  0  2  0  0  0  0  0  0
  182.1390  178.9090  142.5570 C   0  0  0  0  0  0  0  0  0  0  0  0
  182.9010  176.2800  138.0210 C   0  0  0  0  0  2  0  0  0  0  0  0
  181.5640  176.0350  137.6940 O   0  0  0  0  0  0  0  0  0  0  0  0
  181.6030  174.9390  136.8330 C   0  0  0  0  0  2  0  0  0  0  0  0
  182.8760  174.9970  136.0130 C   0  0  0  0  0  2  0  0  0  0  0  0
  183.6860  173.7760  136.2510 C   0  0  0  0  0  0  0  0  0  0  0  0
  183.1950  172.8220  136.9060 O   0  0  0  0  0  0  0  0  0  0  0  0
  184.9970  173.7220  135.7730 O   0  0  0  0  0  0  0  0  0  0  0  0
  185.7640  172.5260  135.7870 C   0  0  0  0  0  2  0  0  0  0  0  0
  186.9830  172.6980  136.6760 C   0  0  0  0  0  1  0  0  0  0  0  0
  1  2  1  1  0  0  0
  1  6  1  0  0  0  0
  3  4  2  0  0  0  0
  4  1  1  0  0  0  0
  5  4  1  0  0  0  0
  6  7  1  0  0  0  0
  7  8  1  0  0  0  0
  8  9  1  0  0  0  0
  9 10  1  0  0  0  0
 10 12  1  0  0  0  0
 10 11  1  1  0  0  0
 13 20  1  0  0  0  0
 14 12  1  6  0  0  0
 14 17  1  0  0  0  0
 14 22  1  0  0  0  0
 15 21  1  0  0  0  0
 15 19  1  0  0  0  0
 17 16  1  6  0  0  0
 17 21  1  0  0  0  0
 17 23  1  0  0  0  0
 20 18  1  0  0  0  0
 20 27  1  1  0  0  0
 21 19  1  0  0  0  0
 21 13  1  0  0  0  0
 22 20  1  0  0  0  0
 23 18  1  0  0  0  0
 25 24  2  0  0  0  0
 25 14  1  0  0  0  0
 26 25  2  0  0  0  0
 27 29  2  0  0  0  0
 27 28  1  0  0  0  0
 30  1  1  0  0  0  0
 30 31  1  0  0  0  0
 32 47  1  1  0  0  0
 32 31  1  0  0  0  0
 32 33  1  0  0  0  0
 33 40  1  1  0  0  0
 35 36  1  0  0  0  0
 35 34  1  1  0  0  0
 36 33  1  1  0  0  0
 36 34  1  0  0  0  0
 37 39  1  6  0  0  0
 37 35  1  0  0  0  0
 38 37  1  0  0  0  0
 39 38  1  0  0  0  0
 40 43  1  0  0  0  0
 42 45  1  0  0  0  0
 43 44  1  0  0  0  0
 43 46  1  0  0  0  0
 44 42  2  0  0  0  0
 46 41  2  0  0  0  0
 46 45  1  0  0  0  0
 48 47  1  0  0  0  0
 49 48  1  0  0  0  0
 50 51  1  0  0  0  0
 50 49  1  0  0  0  0
 51 52  2  0  0  0  0
 53 54  1  0  0  0  0
 53 51  1  0  0  0  0
 54 55  1  0  0  0  0
M  END
>  <MODEL>
7

>  <REMARK>
 VINA RESULT:      -4.3      2.873      9.781
  Name = 
  25 active torsions:
  status: ('A' for Active; 'I' for Inactive)
    1  A    between atoms: C_1  and  C_29
    2  A    between atoms: C_2  and  O_28
    3  A    between atoms: C_2  and  C_31
    4  A    between atoms: C_4  and  C_40
    5  A    between atoms: C_6  and  N_20
    6  A    between atoms: C_6  and  O_22
    7  A    between atoms: C_8  and  O_22
    8  A    between atoms: C_8  and  C_35
    9  A    between atoms: C_10  and  O_32
   10  A    between atoms: C_13  and  C_48
   11  A    between atoms: C_13  and  O_52
   12  A    between atoms: N_16  and  C_36
   13  A    between atoms: O_27  and  C_31
   14  A    between atoms: O_27  and  C_54
   15  A    between atoms: O_28  and  C_33
   16  A    between atoms: C_31  and  C_41
   17  A    between atoms: O_32  and  C_39
   18  A    between atoms: C_33  and  C_34
   19  A    between atoms: C_33  and  C_49
   20  A    between atoms: C_34  and  O_52
   21  A    between atoms: C_35  and  C_51
   22  A    between atoms: C_36  and  C_49
   23  A    between atoms: C_39  and  C_48
   24  A    between atoms: C_45  and  C_49
   25  A    between atoms: C_51  and  C_54
                            x       y       z     vdW  Elec       q    Type
                         _______ _______ _______ _____ _____    ______ ____

>  <TORSDO>
F 25

$$$$
=
 OpenBabel10262420413D

 55 60  0  0  1  0  0  0  0  0999 V2000
  186.6450  178.1110  143.0620 C   0  0  2  0  0  0  0  0  0  0  0  0
  187.0100  178.3990  144.5040 C   0  0  0  0  0  1  0  0  0  0  0  0
  185.8700  180.4020  143.0880 O   0  0  0  0  0  1  0  0  0  0  0  0
  186.3520  179.4480  142.4170 C   0  0  0  0  0  0  0  0  0  0  0  0
  186.5310  179.6110  141.0460 O   0  0  0  0  0  0  0  0  0  0  0  0
  185.5080  177.2600  143.0560 O   0  0  0  0  0  0  0  0  0  0  0  0
  184.3580  177.9820  143.4330 C   0  0  0  0  0  2  0  0  0  0  0  0
  183.4170  178.1050  142.2510 C   0  0  0  0  0  2  0  0  0  0  0  0
  182.0920  178.6880  142.6990 C   0  0  0  0  0  2  0  0  0  0  0  0
  181.0540  178.5360  141.6030 C   0  0  1  0  0  3  0  0  0  0  0  0
  179.7930  178.6280  142.1660 F   0  0  0  0  0  0  0  0  0  0  0  0
  181.2220  179.5640  140.6570 O   0  0  0  0  0  0  0  0  0  0  0  0
  183.7170  177.7060  138.6730 C   0  0  0  0  0  2  0  0  0  0  0  0
  180.9710  179.0810  139.3460 C   0  0  1  0  0  0  0  0  0  0  0  0
  184.0740  179.8470  139.8350 O   0  0  0  0  0  0  0  0  0  0  0  0
  181.9970  181.1020  138.4620 O   0  0  0  0  0  1  0  0  0  0  0  0
  182.0420  179.7060  138.4070 C   0  0  1  0  0  0  0  0  0  0  0  0
  182.0490  177.7260  136.7890 C   0  0  0  0  0  2  0  0  0  0  0  0
  184.4900  180.0180  138.5610 O   0  0  0  0  0  0  0  0  0  0  0  0
  182.4630  177.0340  138.0970 C   0  0  2  0  0  0  0  0  0  0  0  0
  183.4240  179.1900  138.8180 C   0  0  0  0  0  0  0  0  0  0  0  0
  181.0920  177.2120  139.3110 S   0  0  0  0  0  0  0  0  0  0  0  0
  181.8050  179.2400  136.9630 C   0  0  0  0  0  2  0  0  0  0  0  0
  179.0470  178.9230  137.7970 O   0  0  0  0  0  0  0  0  0  0  0  0
  179.6340  179.5070  138.8970 N   0  0  0  0  0  0  0  0  0  0  0  0
  179.1080  180.5300  139.3830 O   0  0  0  0  0  0  0  0  0  0  0  0
  182.7270  175.5820  137.8170 C   0  0  0  0  0  0  0  0  0  0  0  0
  181.7060  174.7580  137.3470 O   0  0  0  0  0  0  0  0  0  0  0  0
  183.8510  175.0740  138.0890 O   0  0  0  0  0  1  0  0  0  0  0  0
  187.8490  177.4280  142.3890 C   0  0  0  0  0  2  0  0  0  0  0  0
  188.5860  178.3240  141.5990 O   0  0  0  0  0  0  0  0  0  0  0  0
  189.6890  177.6100  141.1080 C   0  0  2  0  0  3  0  0  0  0  0  0
  189.4550  177.1410  139.6490 C   0  0  1  0  0  3  0  0  0  0  0  0
  188.0070  178.3810  137.9240 C   0  0  0  0  0  2  0  0  0  0  0  0
  188.0930  176.9320  137.4870 C   0  0  1  0  0  3  0  0  0  0  0  0
  188.0720  177.2850  138.9650 C   0  0  1  0  0  3  0  0  0  0  0  0
  186.7070  176.4980  137.0420 C   0  0  1  0  0  3  0  0  0  0  0  0
  186.6320  176.5660  135.6370 O   0  0  0  0  0  0  0  0  0  0  0  0
  186.7820  175.2860  136.1910 C   0  0  0  0  0  2  0  0  0  0  0  0
  190.5930  177.5470  138.7020 C   0  0  0  0  0  2  0  0  0  0  0  0
  190.3050  174.8350  137.5210 O   0  0  0  0  0  0  0  0  0  0  0  0
  193.7330  175.4530  138.3400 C   0  0  0  0  0  3  0  0  0  0  0  0
  191.6040  176.5030  138.5590 N   0  0  0  0  0  0  0  0  0  0  0  0
  193.0170  176.7510  138.7420 C   0  0  0  0  0  3  0  0  0  0  0  0
  192.6830  174.5160  137.7370 C   0  0  0  0  0  2  0  0  0  0  0  0
  191.4240  175.2600  137.9140 C   0  0  0  0  0  0  0  0  0  0  0  0
  189.9490  176.3900  142.0060 C   0  0  0  0  0  2  0  0  0  0  0  0
  191.2430  176.4450  142.5310 O   0  0  0  0  0  0  0  0  0  0  0  0
  191.0850  176.2050  143.8960 C   0  0  0  0  0  2  0  0  0  0  0  0
  191.0360  177.5290  144.6300 C   0  0  0  0  0  2  0  0  0  0  0  0
  190.8410  177.2930  146.0830 C   0  0  0  0  0  0  0  0  0  0  0  0
  191.8400  177.1160  146.8240 O   0  0  0  0  0  0  0  0  0  0  0  0
  189.5430  177.2370  146.5980 O   0  0  0  0  0  0  0  0  0  0  0  0
  189.0980  178.0990  147.6350 C   0  0  0  0  0  2  0  0  0  0  0  0
  187.9920  177.4300  148.4330 C   0  0  0  0  0  1  0  0  0  0  0  0
  1  2  1  1  0  0  0
  4  1  1  0  0  0  0
  4  3  1  0  0  0  0
  5  4  2  0  0  0  0
  6  1  1  0  0  0  0
  6  7  1  0  0  0  0
  8  9  1  0  0  0  0
  8  7  1  0  0  0  0
 10 11  1  1  0  0  0
 10  9  1  0  0  0  0
 12 10  1  0  0  0  0
 13 21  1  0  0  0  0
 14 12  1  1  0  0  0
 17 16  1  1  0  0  0
 17 21  1  0  0  0  0
 17 14  1  0  0  0  0
 18 23  1  0  0  0  0
 18 20  1  0  0  0  0
 19 21  1  0  0  0  0
 19 15  1  0  0  0  0
 20 27  1  6  0  0  0
 20 13  1  0  0  0  0
 20 22  1  0  0  0  0
 21 15  1  0  0  0  0
 22 14  1  0  0  0  0
 23 17  1  0  0  0  0
 24 25  2  0  0  0  0
 25 14  1  0  0  0  0
 25 26  2  0  0  0  0
 27 29  1  0  0  0  0
 28 27  2  0  0  0  0
 30  1  1  0  0  0  0
 31 30  1  0  0  0  0
 32 31  1  0  0  0  0
 32 47  1  1  0  0  0
 33 40  1  6  0  0  0
 33 32  1  0  0  0  0
 34 36  1  0  0  0  0
 35 34  1  6  0  0  0
 35 36  1  0  0  0  0
 36 33  1  1  0  0  0
 37 39  1  6  0  0  0
 37 35  1  0  0  0  0
 38 39  1  0  0  0  0
 38 37  1  0  0  0  0
 41 46  2  0  0  0  0
 42 44  2  0  0  0  0
 43 40  1  0  0  0  0
 43 44  1  0  0  0  0
 45 46  1  0  0  0  0
 45 42  1  0  0  0  0
 46 43  1  0  0  0  0
 47 48  1  0  0  0  0
 48 49  1  0  0  0  0
 49 50  1  0  0  0  0
 50 51  1  0  0  0  0
 51 53  1  0  0  0  0
 51 52  2  0  0  0  0
 53 54  1  0  0  0  0
 54 55  1  0  0  0  0
M  END
>  <MODEL>
8

>  <REMARK>
 VINA RESULT:      -3.9      1.728      2.295
  Name = 
  25 active torsions:
  status: ('A' for Active; 'I' for Inactive)
    1  A    between atoms: C_1  and  C_29
    2  A    between atoms: C_2  and  O_28
    3  A    between atoms: C_2  and  C_31
    4  A    between atoms: C_4  and  C_40
    5  A    between atoms: C_6  and  N_20
    6  A    between atoms: C_6  and  O_22
    7  A    between atoms: C_8  and  O_22
    8  A    between atoms: C_8  and  C_35
    9  A    between atoms: C_10  and  O_32
   10  A    between atoms: C_13  and  C_48
   11  A    between atoms: C_13  and  O_52
   12  A    between atoms: N_16  and  C_36
   13  A    between atoms: O_27  and  C_31
   14  A    between atoms: O_27  and  C_54
   15  A    between atoms: O_28  and  C_33
   16  A    between atoms: C_31  and  C_41
   17  A    between atoms: O_32  and  C_39
   18  A    between atoms: C_33  and  C_34
   19  A    between atoms: C_33  and  C_49
   20  A    between atoms: C_34  and  O_52
   21  A    between atoms: C_35  and  C_51
   22  A    between atoms: C_36  and  C_49
   23  A    between atoms: C_39  and  C_48
   24  A    between atoms: C_45  and  C_49
   25  A    between atoms: C_51  and  C_54
                            x       y       z     vdW  Elec       q    Type
                         _______ _______ _______ _____ _____    ______ ____

>  <TORSDO>
F 25

$$$$
=
 OpenBabel10262420413D

 55 60  0  0  1  0  0  0  0  0999 V2000
  187.6800  177.2000  136.8030 C   0  0  2  0  0  0  0  0  0  0  0  0
  188.6540  178.1880  137.4120 C   0  0  0  0  0  1  0  0  0  0  0  0
  188.2930  178.1140  134.6480 O   0  0  0  0  0  0  0  0  0  0  0  0
  187.3730  177.7030  135.4090 C   0  0  0  0  0  0  0  0  0  0  0  0
  186.0510  177.8010  134.9820 O   0  0  0  0  0  1  0  0  0  0  0  0
  186.5190  177.1650  137.6200 O   0  0  0  0  0  0  0  0  0  0  0  0
  186.1570  178.4710  138.0070 C   0  0  0  0  0  2  0  0  0  0  0  0
  184.7210  178.4840  138.4940 C   0  0  0  0  0  2  0  0  0  0  0  0
  184.6430  179.1250  139.8660 C   0  0  0  0  0  2  0  0  0  0  0  0
  183.4780  178.5500  140.6480 C   0  0  1  0  0  3  0  0  0  0  0  0
  183.9070  178.2430  141.9280 F   0  0  0  0  0  0  0  0  0  0  0  0
  182.4460  179.5050  140.7160 O   0  0  0  0  0  0  0  0  0  0  0  0
  181.0860  178.3010  137.5040 C   0  0  0  0  0  2  0  0  0  0  0  0
  181.1780  178.8780  140.5930 C   0  0  1  0  0  0  0  0  0  0  0  0
  182.0300  180.5310  137.9480 O   0  0  0  0  0  0  0  0  0  0  0  0
  180.2260  181.0400  140.0120 O   0  0  0  0  0  1  0  0  0  0  0  0
  180.3420  179.7150  139.5830 C   0  0  1  0  0  0  0  0  0  0  0  0
  178.9860  177.7090  138.7580 C   0  0  0  0  0  2  0  0  0  0  0  0
  180.8210  180.7230  137.3770 O   0  0  0  0  0  0  0  0  0  0  0  0
  180.4130  177.2590  138.4090 C   0  0  2  0  0  0  0  0  0  0  0  0
  181.0110  179.6450  138.2070 C   0  0  0  0  0  0  0  0  0  0  0  0
  181.3820  177.1240  139.9680 S   0  0  0  0  0  0  0  0  0  0  0  0
  178.9440  179.1000  139.4280 C   0  0  0  0  0  2  0  0  0  0  0  0
  180.7990  179.8110  142.8530 O   0  0  0  0  0  0  0  0  0  0  0  0
  180.4890  178.8720  141.8950 N   0  0  0  0  0  0  0  0  0  0  0  0
  179.7680  177.9060  142.2160 O   0  0  0  0  0  0  0  0  0  0  0  0
  180.3480  175.9270  137.7180 C   0  0  0  0  0  0  0  0  0  0  0  0
  179.7250  174.8440  138.3340 O   0  0  0  0  0  1  0  0  0  0  0  0
  180.9350  175.7520  136.6130 O   0  0  0  0  0  0  0  0  0  0  0  0
  188.3610  175.8210  136.7520 C   0  0  0  0  0  2  0  0  0  0  0  0
  189.7520  175.9290  136.5970 O   0  0  0  0  0  0  0  0  0  0  0  0
  190.3160  174.8360  137.2730 C   0  0  2  0  0  3  0  0  0  0  0  0
  191.8180  175.0720  137.5740 C   0  0  1  0  0  3  0  0  0  0  0  0
  194.2630  175.2320  136.7970 C   0  0  0  0  0  2  0  0  0  0  0  0
  194.0540  173.8370  137.3520 C   0  0  1  0  0  3  0  0  0  0  0  0
  192.9250  174.5490  136.6250 C   0  0  1  0  0  3  0  0  0  0  0  0
  194.7340  172.8560  136.4130 C   0  0  1  0  0  3  0  0  0  0  0  0
  196.1110  172.8180  136.7070 O   0  0  0  0  0  0  0  0  0  0  0  0
  195.3450  171.7380  137.1710 C   0  0  0  0  0  2  0  0  0  0  0  0
  192.1150  176.5030  138.0450 C   0  0  0  0  0  2  0  0  0  0  0  0
  193.9120  177.5760  140.1550 O   0  0  0  0  0  0  0  0  0  0  0  0
  190.6360  177.0490  141.4920 C   0  0  0  0  0  3  0  0  0  0  0  0
  191.8390  176.6940  139.4670 N   0  0  0  0  0  0  0  0  0  0  0  0
  190.5050  176.6310  140.0210 C   0  0  0  0  0  3  0  0  0  0  0  0
  192.0710  177.5390  141.7070 C   0  0  0  0  0  2  0  0  0  0  0  0
  192.7120  177.2860  140.4060 C   0  0  0  0  0  0  0  0  0  0  0  0
  190.1530  173.5680  136.4190 C   0  0  0  0  0  2  0  0  0  0  0  0
  188.9390  173.6070  135.7260 O   0  0  0  0  0  0  0  0  0  0  0  0
  188.4740  172.2920  135.7490 C   0  0  0  0  0  2  0  0  0  0  0  0
  187.2200  172.2240  136.5960 C   0  0  0  0  0  2  0  0  0  0  0  0
  186.0200  172.2130  135.7210 C   0  0  0  0  0  0  0  0  0  0  0  0
  186.0670  172.7680  134.5940 O   0  0  0  0  0  0  0  0  0  0  0  0
  184.8450  171.6150  136.1810 O   0  0  0  0  0  0  0  0  0  0  0  0
  184.0700  172.1710  137.2340 C   0  0  0  0  0  2  0  0  0  0  0  0
  182.6950  171.5270  137.2670 C   0  0  0  0  0  1  0  0  0  0  0  0
  1  2  1  1  0  0  0
  1  6  1  0  0  0  0
  3  4  2  0  0  0  0
  4  1  1  0  0  0  0
  5  4  1  0  0  0  0
  6  7  1  0  0  0  0
  7  8  1  0  0  0  0
  8  9  1  0  0  0  0
  9 10  1  0  0  0  0
 10 12  1  0  0  0  0
 10 11  1  1  0  0  0
 13 21  1  0  0  0  0
 13 20  1  0  0  0  0
 14 12  1  1  0  0  0
 14 25  1  0  0  0  0
 15 21  1  0  0  0  0
 17 16  1  1  0  0  0
 17 14  1  0  0  0  0
 18 23  1  0  0  0  0
 19 15  1  0  0  0  0
 19 21  1  0  0  0  0
 20 27  1  6  0  0  0
 20 18  1  0  0  0  0
 20 22  1  0  0  0  0
 21 17  1  0  0  0  0
 22 14  1  0  0  0  0
 23 17  1  0  0  0  0
 25 26  2  0  0  0  0
 25 24  2  0  0  0  0
 27 28  1  0  0  0  0
 29 27  2  0  0  0  0
 30  1  1  0  0  0  0
 31 30  1  0  0  0  0
 31 32  1  0  0  0  0
 32 47  1  6  0  0  0
 32 33  1  0  0  0  0
 33 40  1  6  0  0  0
 35 34  1  6  0  0  0
 36 34  1  0  0  0  0
 36 35  1  0  0  0  0
 36 33  1  1  0  0  0
 37 38  1  0  0  0  0
 37 39  1  1  0  0  0
 37 35  1  0  0  0  0
 38 39  1  0  0  0  0
 40 43  1  0  0  0  0
 41 46  2  0  0  0  0
 42 45  1  0  0  0  0
 43 44  1  0  0  0  0
 43 46  1  0  0  0  0
 44 42  2  0  0  0  0
 46 45  1  0  0  0  0
 48 49  1  0  0  0  0
 48 47  1  0  0  0  0
 49 50  1  0  0  0  0
 51 53  1  0  0  0  0
 51 50  1  0  0  0  0
 52 51  2  0  0  0  0
 53 54  1  0  0  0  0
 54 55  1  0  0  0  0
M  END
>  <MODEL>
9

>  <REMARK>
 VINA RESULT:      -3.9      2.517      5.614
  Name = 
  25 active torsions:
  status: ('A' for Active; 'I' for Inactive)
    1  A    between atoms: C_1  and  C_29
    2  A    between atoms: C_2  and  O_28
    3  A    between atoms: C_2  and  C_31
    4  A    between atoms: C_4  and  C_40
    5  A    between atoms: C_6  and  N_20
    6  A    between atoms: C_6  and  O_22
    7  A    between atoms: C_8  and  O_22
    8  A    between atoms: C_8  and  C_35
    9  A    between atoms: C_10  and  O_32
   10  A    between atoms: C_13  and  C_48
   11  A    between atoms: C_13  and  O_52
   12  A    between atoms: N_16  and  C_36
   13  A    between atoms: O_27  and  C_31
   14  A    between atoms: O_27  and  C_54
   15  A    between atoms: O_28  and  C_33
   16  A    between atoms: C_31  and  C_41
   17  A    between atoms: O_32  and  C_39
   18  A    between atoms: C_33  and  C_34
   19  A    between atoms: C_33  and  C_49
   20  A    between atoms: C_34  and  O_52
   21  A    between atoms: C_35  and  C_51
   22  A    between atoms: C_36  and  C_49
   23  A    between atoms: C_39  and  C_48
   24  A    between atoms: C_45  and  C_49
   25  A    between atoms: C_51  and  C_54
                            x       y       z     vdW  Elec       q    Type
                         _______ _______ _______ _____ _____    ______ ____

>  <TORSDO>
F 25

$$$$
