=
 OpenBabel10262421543D

 30 33  0  0  1  0  0  0  0  0999 V2000
  187.9960  178.6170  141.5850 C   0  0  0  0  0  2  0  0  0  0  0  0
  189.6330  177.1090  142.7720 C   0  0  2  0  0  3  0  0  0  0  0  0
  188.8670  176.6930  137.4350 S   0  0  0  0  0  0  0  0  0  0  0  0
  186.9900  178.7420  140.4270 C   0  0  1  0  0  3  0  0  0  0  0  0
  187.4530  177.6620  136.7900 C   0  0  1  0  0  3  0  0  0  0  0  0
  190.9960  177.7530  142.5010 C   0  0  0  0  0  2  0  0  0  0  0  0
  189.8040  175.6440  143.1300 C   0  0  0  0  0  1  0  0  0  0  0  0
  188.5130  177.2910  139.0790 C   0  0  2  0  0  3  0  0  0  0  0  0
  191.4780  177.3940  141.0960 C   0  0  0  0  0  2  0  0  0  0  0  0
  188.6850  177.2520  141.5770 C   0  0  2  0  0  3  0  0  0  0  0  0
  187.4820  178.1210  139.1440 C   0  0  0  0  0  0  0  0  0  0  0  0
  186.4900  176.7670  136.1760 N   0  0  0  0  0  1  0  0  0  0  0  0
  186.8300  178.3520  137.9070 N   0  0  0  0  0  0  0  0  0  0  0  0
  190.5530  177.8590  140.1480 O   0  0  0  0  0  0  0  0  0  0  0  0
  189.4240  177.0220  140.2410 C   0  0  2  0  0  3  0  0  0  0  0  0
  185.5730  178.2600  140.7750 C   0  0  2  0  0  3  0  0  0  0  0  0
  183.0630  176.8130  140.0290 C   0  0  0  0  0  2  0  0  0  0  0  0
  184.6300  180.1010  139.5690 O   0  0  0  0  0  0  0  0  0  0  0  0
  184.4930  178.9090  139.9550 C   0  0  0  0  0  0  0  0  0  0  0  0
  182.2190  178.7510  138.8520 C   0  0  0  0  0  2  0  0  0  0  0  0
  183.3030  178.1830  139.6250 N   0  0  0  0  0  0  0  0  0  0  0  0
  181.7600  176.4150  139.3620 C   0  0  0  0  0  2  0  0  0  0  0  0
  181.1260  177.7010  138.8490 C   0  0  0  0  0  2  0  0  0  0  0  0
  185.2620  178.1680  142.2450 C   0  0  0  0  0  2  0  0  0  0  0  0
  184.4470  179.3110  143.0460 S   0  0  0  0  0  0  0  0  0  0  0  0
  184.5460  178.7760  144.7610 C   0  0  0  0  0  2  0  0  0  0  0  0
  185.8790  178.0950  145.0060 C   0  0  0  0  0  2  0  0  0  0  0  0
  185.6990  179.3500  147.1500 O   0  0  0  0  0  1  0  0  0  0  0  0
  186.3600  178.4030  146.3790 C   0  0  0  0  0  0  0  0  0  0  0  0
  187.3480  177.7850  146.8540 O   0  0  0  0  0  0  0  0  0  0  0  0
  2  7  1  6  0  0  0
  4 16  1  1  0  0  0
  4  1  1  0  0  0  0
  5 12  1  1  0  0  0
  5  3  1  0  0  0  0
  5 13  1  0  0  0  0
  6  2  1  0  0  0  0
  8  3  1  6  0  0  0
  8 11  1  0  0  0  0
  8 15  1  0  0  0  0
  9  6  1  0  0  0  0
 10  1  1  6  0  0  0
 10  2  1  0  0  0  0
 11  4  1  0  0  0  0
 13 11  2  0  0  0  0
 14  9  1  0  0  0  0
 15 14  1  6  0  0  0
 15 10  1  0  0  0  0
 16 24  1  1  0  0  0
 18 19  2  0  0  0  0
 19 16  1  0  0  0  0
 20 21  1  0  0  0  0
 21 19  1  0  0  0  0
 21 17  1  0  0  0  0
 22 17  1  0  0  0  0
 23 20  1  0  0  0  0
 23 22  1  0  0  0  0
 24 25  1  0  0  0  0
 25 26  1  0  0  0  0
 26 27  1  0  0  0  0
 27 29  1  0  0  0  0
 29 30  2  0  0  0  0
 29 28  1  0  0  0  0
M  END
>  <MODEL>
1

>  <REMARK>
 VINA RESULT:      -7.2      0.000      0.000
  Name = 
  6 active torsions:
  status: ('A' for Active; 'I' for Inactive)
    1  A    between atoms: C_4  and  C_13
    2  A    between atoms: C_7  and  C_15
    3  A    between atoms: C_7  and  C_16
    4  A    between atoms: C_8  and  C_13
    5  A    between atoms: C_13  and  C_27
    6  A    between atoms: C_16  and  S_30
                            x       y       z     vdW  Elec       q    Type
                         _______ _______ _______ _____ _____    ______ ____

>  <TORSDO>
F 6

$$$$
=
 OpenBabel10262421543D

 30 33  0  0  1  0  0  0  0  0999 V2000
  188.7470  178.6300  140.6770 C   0  0  0  0  0  2  0  0  0  0  0  0
  189.2260  177.5720  142.9160 C   0  0  2  0  0  3  0  0  0  0  0  0
  191.6240  175.7390  138.4300 S   0  0  0  0  0  0  0  0  0  0  0  0
  188.6100  178.3940  139.1630 C   0  0  1  0  0  3  0  0  0  0  0  0
  190.9550  176.4290  136.8710 C   0  0  1  0  0  3  0  0  0  0  0  0
  190.5580  178.1940  143.3450 C   0  0  0  0  0  2  0  0  0  0  0  0
  188.9970  176.2630  143.6490 C   0  0  0  0  0  1  0  0  0  0  0  0
  190.4590  176.7240  139.3550 C   0  0  0  0  0  0  0  0  0  0  0  0
  191.7170  177.5080  142.6230 C   0  0  0  0  0  2  0  0  0  0  0  0
  189.1590  177.3480  141.4020 C   0  0  2  0  0  3  0  0  0  0  0  0
  189.6770  177.4860  138.6040 C   0  0  0  0  0  0  0  0  0  0  0  0
  190.4280  175.3540  136.0510 N   0  0  0  0  0  1  0  0  0  0  0  0
  189.8850  177.3530  137.2080 N   0  0  0  0  0  2  0  0  0  0  0  0
  191.5620  177.6590  141.2360 O   0  0  0  0  0  0  0  0  0  0  0  0
  190.5010  176.8170  140.8530 C   0  0  2  0  0  3  0  0  0  0  0  0
  187.2080  177.9450  138.7230 C   0  0  2  0  0  3  0  0  0  0  0  0
  186.0250  175.8870  136.9030 C   0  0  0  0  0  2  0  0  0  0  0  0
  187.1350  179.3850  136.8110 O   0  0  0  0  0  0  0  0  0  0  0  0
  186.9000  178.2390  137.2820 C   0  0  0  0  0  0  0  0  0  0  0  0
  185.9950  177.4460  135.0540 C   0  0  0  0  0  2  0  0  0  0  0  0
  186.3280  177.2270  136.4450 N   0  0  0  0  0  0  0  0  0  0  0  0
  185.5620  175.1310  135.6710 C   0  0  0  0  0  2  0  0  0  0  0  0
  185.3070  176.1750  134.5940 C   0  0  0  0  0  2  0  0  0  0  0  0
  186.0910  178.2840  139.6750 C   0  0  0  0  0  2  0  0  0  0  0  0
  184.5890  178.6250  139.1850 S   0  0  0  0  0  0  0  0  0  0  0  0
  183.7580  179.1330  140.6970 C   0  0  0  0  0  2  0  0  0  0  0  0
  184.2110  178.2550  141.8480 C   0  0  0  0  0  2  0  0  0  0  0  0
  182.8950  178.6990  143.9150 O   0  0  0  0  0  1  0  0  0  0  0  0
  184.0130  178.9680  143.1370 C   0  0  0  0  0  0  0  0  0  0  0  0
  184.8740  179.7940  143.5390 O   0  0  0  0  0  0  0  0  0  0  0  0
  2  6  1  0  0  0  0
  2  7  1  1  0  0  0
  3  8  1  0  0  0  0
  4 16  1  1  0  0  0
  4  1  1  0  0  0  0
  5 12  1  6  0  0  0
  5 13  1  0  0  0  0
  5  3  1  0  0  0  0
  9  6  1  0  0  0  0
 10  1  1  6  0  0  0
 10  2  1  0  0  0  0
 11  4  1  0  0  0  0
 11  8  2  0  0  0  0
 13 11  1  0  0  0  0
 14  9  1  0  0  0  0
 15  8  1  6  0  0  0
 15 14  1  0  0  0  0
 15 10  1  0  0  0  0
 16 24  1  1  0  0  0
 18 19  2  0  0  0  0
 19 16  1  0  0  0  0
 20 21  1  0  0  0  0
 21 17  1  0  0  0  0
 21 19  1  0  0  0  0
 22 17  1  0  0  0  0
 23 20  1  0  0  0  0
 23 22  1  0  0  0  0
 25 24  1  0  0  0  0
 25 26  1  0  0  0  0
 26 27  1  0  0  0  0
 27 29  1  0  0  0  0
 29 30  2  0  0  0  0
 29 28  1  0  0  0  0
M  END
>  <MODEL>
2

>  <REMARK>
 VINA RESULT:      -6.6      2.451      3.453
  Name = 
  6 active torsions:
  status: ('A' for Active; 'I' for Inactive)
    1  A    between atoms: C_4  and  C_13
    2  A    between atoms: C_7  and  C_15
    3  A    between atoms: C_7  and  C_16
    4  A    between atoms: C_8  and  C_13
    5  A    between atoms: C_13  and  C_27
    6  A    between atoms: C_16  and  S_30
                            x       y       z     vdW  Elec       q    Type
                         _______ _______ _______ _____ _____    ______ ____

>  <TORSDO>
F 6

$$$$
=
 OpenBabel10262421543D

 30 33  0  0  1  0  0  0  0  0999 V2000
  186.1850  178.6420  138.0980 C   0  0  0  0  0  2  0  0  0  0  0  0
  188.5940  178.2870  138.7560 C   0  0  2  0  0  3  0  0  0  0  0  0
  185.8630  174.4460  136.1040 S   0  0  0  0  0  0  0  0  0  0  0  0
  184.8170  177.9750  137.8720 C   0  0  1  0  0  3  0  0  0  0  0  0
  184.0640  174.7540  135.9560 C   0  0  1  0  0  3  0  0  0  0  0  0
  189.3780  178.5810  137.4720 C   0  0  0  0  0  2  0  0  0  0  0  0
  189.4220  177.4260  139.6920 C   0  0  0  0  0  1  0  0  0  0  0  0
  186.0440  175.9840  136.9900 C   0  0  2  0  0  3  0  0  0  0  0  0
  189.3180  177.3790  136.5310 C   0  0  0  0  0  2  0  0  0  0  0  0
  187.2520  177.6090  138.4640 C   0  0  2  0  0  3  0  0  0  0  0  0
  184.9120  176.6560  137.1460 C   0  0  0  0  0  0  0  0  0  0  0  0
  183.3330  173.6820  136.6080 N   0  0  0  0  0  1  0  0  0  0  0  0
  183.7650  176.0150  136.6150 N   0  0  0  0  0  0  0  0  0  0  0  0
  187.9810  177.1050  136.2030 O   0  0  0  0  0  0  0  0  0  0  0  0
  187.3880  176.5470  137.3510 C   0  0  2  0  0  3  0  0  0  0  0  0
  183.9620  177.8530  139.1430 C   0  0  2  0  0  3  0  0  0  0  0  0
  181.7240  175.9120  139.5620 C   0  0  0  0  0  2  0  0  0  0  0  0
  182.2330  179.4190  138.6030 O   0  0  0  0  0  0  0  0  0  0  0  0
  182.5240  178.2410  138.9470 C   0  0  0  0  0  0  0  0  0  0  0  0
  180.0770  177.5940  139.0070 C   0  0  0  0  0  2  0  0  0  0  0  0
  181.4820  177.2840  139.1640 N   0  0  0  0  0  0  0  0  0  0  0  0
  180.3650  175.2380  139.5490 C   0  0  0  0  0  2  0  0  0  0  0  0
  179.3310  176.3510  139.4530 C   0  0  0  0  0  2  0  0  0  0  0  0
  184.5850  178.4040  140.3980 C   0  0  0  0  0  2  0  0  0  0  0  0
  183.8690  178.3270  141.8450 S   0  0  0  0  0  0  0  0  0  0  0  0
  184.9540  179.2940  142.9050 C   0  0  0  0  0  2  0  0  0  0  0  0
  185.3670  178.4640  144.1050 C   0  0  0  0  0  2  0  0  0  0  0  0
  185.5330  179.3870  146.4120 O   0  0  0  0  0  1  0  0  0  0  0  0
  184.7390  179.0090  145.3380 C   0  0  0  0  0  0  0  0  0  0  0  0
  183.4900  179.1560  145.3960 O   0  0  0  0  0  0  0  0  0  0  0  0
  2  7  1  1  0  0  0
  4  1  1  0  0  0  0
  4 16  1  1  0  0  0
  5  3  1  0  0  0  0
  5 12  1  1  0  0  0
  5 13  1  0  0  0  0
  6  2  1  0  0  0  0
  8  3  1  6  0  0  0
  8 11  1  0  0  0  0
  8 15  1  0  0  0  0
  9  6  1  0  0  0  0
 10  1  1  6  0  0  0
 10  2  1  0  0  0  0
 11  4  1  0  0  0  0
 13 11  2  0  0  0  0
 14  9  1  0  0  0  0
 15 14  1  6  0  0  0
 15 10  1  0  0  0  0
 16 24  1  1  0  0  0
 18 19  2  0  0  0  0
 19 16  1  0  0  0  0
 19 21  1  0  0  0  0
 20 21  1  0  0  0  0
 20 23  1  0  0  0  0
 21 17  1  0  0  0  0
 22 17  1  0  0  0  0
 23 22  1  0  0  0  0
 24 25  1  0  0  0  0
 25 26  1  0  0  0  0
 26 27  1  0  0  0  0
 27 29  1  0  0  0  0
 29 30  2  0  0  0  0
 29 28  1  0  0  0  0
M  END
>  <MODEL>
3

>  <REMARK>
 VINA RESULT:      -6.0      2.305      3.342
  Name = 
  6 active torsions:
  status: ('A' for Active; 'I' for Inactive)
    1  A    between atoms: C_4  and  C_13
    2  A    between atoms: C_7  and  C_15
    3  A    between atoms: C_7  and  C_16
    4  A    between atoms: C_8  and  C_13
    5  A    between atoms: C_13  and  C_27
    6  A    between atoms: C_16  and  S_30
                            x       y       z     vdW  Elec       q    Type
                         _______ _______ _______ _____ _____    ______ ____

>  <TORSDO>
F 6

$$$$
=
 OpenBabel10262421543D

 30 33  0  0  1  0  0  0  0  0999 V2000
  188.9580  176.5830  143.2990 C   0  0  0  0  0  2  0  0  0  0  0  0
  191.2270  177.5120  143.8910 C   0  0  2  0  0  3  0  0  0  0  0  0
  186.9470  178.4560  147.0580 S   0  0  0  0  0  0  0  0  0  0  0  0
  187.4370  176.8090  143.3540 C   0  0  1  0  0  3  0  0  0  0  0  0
  185.3400  177.9500  146.3390 C   0  0  1  0  0  3  0  0  0  0  0  0
  191.7630  176.5410  144.9470 C   0  0  0  0  0  2  0  0  0  0  0  0
  191.9360  178.8500  143.9980 C   0  0  0  0  0  1  0  0  0  0  0  0
  187.7750  177.8750  145.5890 C   0  0  2  0  0  3  0  0  0  0  0  0
  191.1360  176.8420  146.3070 C   0  0  0  0  0  2  0  0  0  0  0  0
  189.7120  177.7080  144.0090 C   0  0  2  0  0  3  0  0  0  0  0  0
  186.9640  177.3540  144.6790 C   0  0  0  0  0  0  0  0  0  0  0  0
  184.4770  179.1110  146.2130 N   0  0  0  0  0  1  0  0  0  0  0  0
  185.5900  177.3860  145.0230 N   0  0  0  0  0  0  0  0  0  0  0  0
  189.7410  176.7070  146.2230 O   0  0  0  0  0  0  0  0  0  0  0  0
  189.2720  177.8110  145.4860 C   0  0  2  0  0  3  0  0  0  0  0  0
  186.8840  177.6350  142.1820 C   0  0  2  0  0  3  0  0  0  0  0  0
  187.6190  177.1050  139.3300 C   0  0  0  0  0  2  0  0  0  0  0  0
  188.5140  179.3850  142.0650 O   0  0  0  0  0  0  0  0  0  0  0  0
  187.9270  178.4450  141.4640 C   0  0  0  0  0  0  0  0  0  0  0  0
  189.2280  178.9120  139.3430 C   0  0  0  0  0  2  0  0  0  0  0  0
  188.2450  178.1630  140.0970 N   0  0  0  0  0  0  0  0  0  0  0  0
  188.3410  177.0870  137.9960 C   0  0  0  0  0  2  0  0  0  0  0  0
  189.1550  178.3720  137.9280 C   0  0  0  0  0  2  0  0  0  0  0  0
  185.6060  178.3820  142.4600 C   0  0  0  0  0  2  0  0  0  0  0  0
  184.2270  178.0950  141.6670 S   0  0  0  0  0  0  0  0  0  0  0  0
  183.1220  179.3840  142.2630 C   0  0  0  0  0  2  0  0  0  0  0  0
  182.3870  178.8950  143.4960 C   0  0  0  0  0  2  0  0  0  0  0  0
  180.0120  178.2130  143.8090 O   0  0  0  0  0  1  0  0  0  0  0  0
  180.9300  179.1500  143.3510 C   0  0  0  0  0  0  0  0  0  0  0  0
  180.5270  180.2280  142.8430 O   0  0  0  0  0  0  0  0  0  0  0  0
  1  4  1  0  0  0  0
  2  7  1  1  0  0  0
  2 10  1  0  0  0  0
  2  6  1  0  0  0  0
  4 16  1  6  0  0  0
  4 11  1  0  0  0  0
  5 12  1  6  0  0  0
  5  3  1  0  0  0  0
  6  9  1  0  0  0  0
  8 11  1  1  0  0  0
  8  3  1  0  0  0  0
 10  1  1  1  0  0  0
 10 15  1  0  0  0  0
 11 13  2  0  0  0  0
 13  5  1  0  0  0  0
 14  9  1  0  0  0  0
 15  8  1  0  0  0  0
 15 14  1  1  0  0  0
 16 24  1  1  0  0  0
 17 21  1  0  0  0  0
 19 18  2  0  0  0  0
 19 16  1  0  0  0  0
 20 21  1  0  0  0  0
 21 19  1  0  0  0  0
 22 17  1  0  0  0  0
 23 22  1  0  0  0  0
 23 20  1  0  0  0  0
 25 26  1  0  0  0  0
 25 24  1  0  0  0  0
 26 27  1  0  0  0  0
 29 27  1  0  0  0  0
 29 28  1  0  0  0  0
 30 29  2  0  0  0  0
M  END
>  <MODEL>
4

>  <REMARK>
 VINA RESULT:      -5.8      3.108      5.803
  Name = 
  6 active torsions:
  status: ('A' for Active; 'I' for Inactive)
    1  A    between atoms: C_4  and  C_13
    2  A    between atoms: C_7  and  C_15
    3  A    between atoms: C_7  and  C_16
    4  A    between atoms: C_8  and  C_13
    5  A    between atoms: C_13  and  C_27
    6  A    between atoms: C_16  and  S_30
                            x       y       z     vdW  Elec       q    Type
                         _______ _______ _______ _____ _____    ______ ____

>  <TORSDO>
F 6

$$$$
=
 OpenBabel10262421543D

 30 33  0  0  1  0  0  0  0  0999 V2000
  182.1540  176.3610  139.0810 C   0  0  0  0  0  2  0  0  0  0  0  0
  180.6160  175.5140  137.2700 C   0  0  2  0  0  3  0  0  0  0  0  0
  185.6540  177.0920  136.0980 S   0  0  0  0  0  0  0  0  0  0  0  0
  183.3020  177.3260  139.4270 C   0  0  1  0  0  3  0  0  0  0  0  0
  186.5280  177.9330  137.4700 C   0  0  1  0  0  3  0  0  0  0  0  0
  181.0500  174.0600  137.0630 C   0  0  0  0  0  2  0  0  0  0  0  0
  179.8850  176.0260  136.0420 C   0  0  0  0  0  1  0  0  0  0  0  0
  184.2240  176.8890  137.1460 C   0  0  0  0  0  0  0  0  0  0  0  0
  182.3120  174.0040  136.2040 C   0  0  0  0  0  2  0  0  0  0  0  0
  181.8040  176.4260  137.5940 C   0  0  2  0  0  3  0  0  0  0  0  0
  184.3770  177.3720  138.3710 C   0  0  0  0  0  0  0  0  0  0  0  0
  186.8820  179.2820  137.0650 N   0  0  0  0  0  1  0  0  0  0  0  0
  185.6300  177.9900  138.6110 N   0  0  0  0  0  2  0  0  0  0  0  0
  183.3460  174.7070  136.8410 O   0  0  0  0  0  0  0  0  0  0  0  0
  183.0340  176.0750  136.7290 C   0  0  2  0  0  3  0  0  0  0  0  0
  182.8360  178.7380  139.8140 C   0  0  2  0  0  3  0  0  0  0  0  0
  184.3730  178.7250  142.3810 C   0  0  0  0  0  2  0  0  0  0  0  0
  180.8970  178.8840  141.2110 O   0  0  0  0  0  0  0  0  0  0  0  0
  182.1550  178.8090  141.1510 C   0  0  0  0  0  0  0  0  0  0  0  0
  182.3360  178.8850  143.6760 C   0  0  0  0  0  2  0  0  0  0  0  0
  182.9270  178.8060  142.3570 N   0  0  0  0  0  0  0  0  0  0  0  0
  184.7510  178.6240  143.8470 C   0  0  0  0  0  2  0  0  0  0  0  0
  183.5020  178.9810  144.6410 C   0  0  0  0  0  2  0  0  0  0  0  0
  182.1420  179.5130  138.7250 C   0  0  0  0  0  2  0  0  0  0  0  0
  182.0920  181.1280  138.6870 S   0  0  0  0  0  0  0  0  0  0  0  0
  180.9910  181.4830  137.3090 C   0  0  0  0  0  2  0  0  0  0  0  0
  180.3910  182.8650  137.4790 C   0  0  0  0  0  2  0  0  0  0  0  0
  182.2130  184.5630  137.4540 O   0  0  0  0  0  1  0  0  0  0  0  0
  181.2240  183.8700  136.7680 C   0  0  0  0  0  0  0  0  0  0  0  0
  181.0550  184.0700  135.5370 O   0  0  0  0  0  0  0  0  0  0  0  0
  1  4  1  0  0  0  0
  2  7  1  6  0  0  0
  2 10  1  0  0  0  0
  3  8  1  0  0  0  0
  3  5  1  0  0  0  0
  4 16  1  6  0  0  0
  5 12  1  6  0  0  0
  5 13  1  0  0  0  0
  6  2  1  0  0  0  0
  8 11  2  0  0  0  0
  9 14  1  0  0  0  0
  9  6  1  0  0  0  0
 10  1  1  1  0  0  0
 11 13  1  0  0  0  0
 11  4  1  0  0  0  0
 15 14  1  1  0  0  0
 15  8  1  0  0  0  0
 15 10  1  0  0  0  0
 16 24  1  6  0  0  0
 16 19  1  0  0  0  0
 17 22  1  0  0  0  0
 19 18  2  0  0  0  0
 19 21  1  0  0  0  0
 20 23  1  0  0  0  0
 21 17  1  0  0  0  0
 21 20  1  0  0  0  0
 22 23  1  0  0  0  0
 25 24  1  0  0  0  0
 26 27  1  0  0  0  0
 26 25  1  0  0  0  0
 29 28  1  0  0  0  0
 29 27  1  0  0  0  0
 30 29  2  0  0  0  0
M  END
>  <MODEL>
5

>  <REMARK>
 VINA RESULT:      -5.8      4.165      7.550
  Name = 
  6 active torsions:
  status: ('A' for Active; 'I' for Inactive)
    1  A    between atoms: C_4  and  C_13
    2  A    between atoms: C_7  and  C_15
    3  A    between atoms: C_7  and  C_16
    4  A    between atoms: C_8  and  C_13
    5  A    between atoms: C_13  and  C_27
    6  A    between atoms: C_16  and  S_30
                            x       y       z     vdW  Elec       q    Type
                         _______ _______ _______ _____ _____    ______ ____

>  <TORSDO>
F 6

$$$$
=
 OpenBabel10262421543D

 30 33  0  0  1  0  0  0  0  0999 V2000
  188.3210  178.6240  140.4780 C   0  0  0  0  0  2  0  0  0  0  0  0
  188.5680  177.5740  142.7580 C   0  0  2  0  0  3  0  0  0  0  0  0
  191.6080  175.9070  138.6080 S   0  0  0  0  0  0  0  0  0  0  0  0
  188.3900  178.3950  138.9580 C   0  0  1  0  0  3  0  0  0  0  0  0
  191.1060  176.5750  136.9780 C   0  0  1  0  0  3  0  0  0  0  0  0
  189.8020  178.2610  143.3530 C   0  0  0  0  0  2  0  0  0  0  0  0
  188.3180  176.2480  143.4530 C   0  0  0  0  0  1  0  0  0  0  0  0
  190.2850  176.8220  139.3800 C   0  0  2  0  0  3  0  0  0  0  0  0
  191.0770  177.6420  142.7820 C   0  0  0  0  0  2  0  0  0  0  0  0
  188.7060  177.3590  141.2470 C   0  0  2  0  0  3  0  0  0  0  0  0
  189.5650  177.5490  138.5370 C   0  0  0  0  0  0  0  0  0  0  0  0
  190.7440  175.4820  136.0950 N   0  0  0  0  0  1  0  0  0  0  0  0
  189.9540  177.4380  137.1790 N   0  0  0  0  0  0  0  0  0  0  0  0
  191.0900  177.7970  141.3870 O   0  0  0  0  0  0  0  0  0  0  0  0
  190.1320  176.9040  140.8710 C   0  0  2  0  0  3  0  0  0  0  0  0
  187.0800  177.8770  138.3430 C   0  0  2  0  0  3  0  0  0  0  0  0
  187.0500  175.1870  137.0340 C   0  0  0  0  0  2  0  0  0  0  0  0
  187.1810  178.7380  136.1120 O   0  0  0  0  0  0  0  0  0  0  0  0
  187.1310  177.7170  136.8500 C   0  0  0  0  0  0  0  0  0  0  0  0
  187.1410  176.1860  134.8330 C   0  0  0  0  0  2  0  0  0  0  0  0
  187.1080  176.4120  136.2630 N   0  0  0  0  0  0  0  0  0  0  0  0
  187.1740  174.0630  136.0240 C   0  0  0  0  0  2  0  0  0  0  0  0
  186.9730  174.6910  134.6520 C   0  0  0  0  0  2  0  0  0  0  0  0
  185.8220  178.5310  138.8520 C   0  0  0  0  0  2  0  0  0  0  0  0
  184.3440  178.0970  138.3640 S   0  0  0  0  0  0  0  0  0  0  0  0
  183.2700  179.3200  139.1320 C   0  0  0  0  0  2  0  0  0  0  0  0
  181.9250  179.3270  138.4330 C   0  0  0  0  0  2  0  0  0  0  0  0
  180.7640  180.9300  136.9210 O   0  0  0  0  0  0  0  0  0  0  0  0
  181.5710  180.7140  138.0300 C   0  0  0  0  0  0  0  0  0  0  0  0
  181.9760  181.6910  138.7130 O   0  0  0  0  0  1  0  0  0  0  0  0
  2  6  1  0  0  0  0
  2  7  1  1  0  0  0
  3  8  1  0  0  0  0
  4 16  1  1  0  0  0
  4  1  1  0  0  0  0
  5 12  1  6  0  0  0
  5 13  1  0  0  0  0
  5  3  1  0  0  0  0
  8 11  1  1  0  0  0
  8 15  1  0  0  0  0
  9  6  1  0  0  0  0
 10  1  1  6  0  0  0
 10  2  1  0  0  0  0
 11  4  1  0  0  0  0
 13 11  2  0  0  0  0
 14  9  1  0  0  0  0
 15 10  1  0  0  0  0
 15 14  1  6  0  0  0
 16 24  1  6  0  0  0
 18 19  2  0  0  0  0
 19 16  1  0  0  0  0
 20 21  1  0  0  0  0
 21 19  1  0  0  0  0
 21 17  1  0  0  0  0
 22 17  1  0  0  0  0
 23 20  1  0  0  0  0
 23 22  1  0  0  0  0
 25 24  1  0  0  0  0
 25 26  1  0  0  0  0
 27 26  1  0  0  0  0
 28 29  2  0  0  0  0
 29 27  1  0  0  0  0
 29 30  1  0  0  0  0
M  END
>  <MODEL>
6

>  <REMARK>
 VINA RESULT:      -5.8      3.114      5.188
  Name = 
  6 active torsions:
  status: ('A' for Active; 'I' for Inactive)
    1  A    between atoms: C_4  and  C_13
    2  A    between atoms: C_7  and  C_15
    3  A    between atoms: C_7  and  C_16
    4  A    between atoms: C_8  and  C_13
    5  A    between atoms: C_13  and  C_27
    6  A    between atoms: C_16  and  S_30
                            x       y       z     vdW  Elec       q    Type
                         _______ _______ _______ _____ _____    ______ ____

>  <TORSDO>
F 6

$$$$
=
 OpenBabel10262421543D

 30 33  0  0  1  0  0  0  0  0999 V2000
  189.2470  177.0180  141.0620 C   0  0  0  0  0  2  0  0  0  0  0  0
  190.1850  177.7650  143.2810 C   0  0  2  0  0  3  0  0  0  0  0  0
  185.2410  179.2970  141.7200 S   0  0  0  0  0  0  0  0  0  0  0  0
  188.3430  177.3890  139.8740 C   0  0  1  0  0  3  0  0  0  0  0  0
  184.8340  178.9010  139.9780 C   0  0  1  0  0  3  0  0  0  0  0  0
  189.5430  176.8140  144.2960 C   0  0  0  0  0  2  0  0  0  0  0  0
  190.6510  179.0340  143.9710 C   0  0  0  0  0  1  0  0  0  0  0  0
  186.8470  178.5520  141.5030 C   0  0  2  0  0  3  0  0  0  0  0  0
  188.1130  177.2550  144.6000 C   0  0  0  0  0  2  0  0  0  0  0  0
  189.2300  178.1090  142.1340 C   0  0  2  0  0  3  0  0  0  0  0  0
  187.0560  178.0550  140.2920 C   0  0  0  0  0  0  0  0  0  0  0  0
  184.5560  180.1280  139.2530 N   0  0  0  0  0  1  0  0  0  0  0  0
  185.9830  178.2370  139.3850 N   0  0  0  0  0  0  0  0  0  0  0  0
  187.3560  177.2470  143.4170 O   0  0  0  0  0  0  0  0  0  0  0  0
  187.7930  178.3430  142.6500 C   0  0  2  0  0  3  0  0  0  0  0  0
  189.0540  178.1900  138.7720 C   0  0  2  0  0  3  0  0  0  0  0  0
  187.9280  175.7490  137.4580 C   0  0  0  0  0  2  0  0  0  0  0  0
  188.0950  179.3780  136.9270 O   0  0  0  0  0  0  0  0  0  0  0  0
  188.2860  178.2620  137.4820 C   0  0  0  0  0  0  0  0  0  0  0  0
  186.9990  177.0690  135.6570 C   0  0  0  0  0  2  0  0  0  0  0  0
  187.7580  177.0700  136.8890 N   0  0  0  0  0  0  0  0  0  0  0  0
  187.3270  174.7900  136.4470 C   0  0  0  0  0  2  0  0  0  0  0  0
  186.5330  175.6390  135.4650 C   0  0  0  0  0  2  0  0  0  0  0  0
  190.5220  177.8970  138.6020 C   0  0  0  0  0  2  0  0  0  0  0  0
  191.0800  176.4810  138.0590 S   0  0  0  0  0  0  0  0  0  0  0  0
  192.8630  176.6310  138.2490 C   0  0  0  0  0  2  0  0  0  0  0  0
  193.5570  175.5990  137.3810 C   0  0  0  0  0  2  0  0  0  0  0  0
  193.1870  175.9940  134.9500 O   0  0  0  0  0  0  0  0  0  0  0  0
  193.9550  176.2120  136.0860 C   0  0  0  0  0  0  0  0  0  0  0  0
  194.9700  176.9520  136.0260 O   0  0  0  0  0  1  0  0  0  0  0  0
  2  7  1  1  0  0  0
  2  6  1  0  0  0  0
  4 16  1  6  0  0  0
  4 11  1  0  0  0  0
  4  1  1  0  0  0  0
  5 12  1  6  0  0  0
  5  3  1  0  0  0  0
  6  9  1  0  0  0  0
  8 11  1  1  0  0  0
  8  3  1  0  0  0  0
  8 15  1  0  0  0  0
 10  1  1  6  0  0  0
 10 15  1  0  0  0  0
 10  2  1  0  0  0  0
 13  5  1  0  0  0  0
 13 11  2  0  0  0  0
 14  9  1  0  0  0  0
 15 14  1  6  0  0  0
 16 24  1  6  0  0  0
 18 19  2  0  0  0  0
 19 16  1  0  0  0  0
 20 21  1  0  0  0  0
 21 17  1  0  0  0  0
 21 19  1  0  0  0  0
 22 17  1  0  0  0  0
 23 20  1  0  0  0  0
 23 22  1  0  0  0  0
 25 26  1  0  0  0  0
 25 24  1  0  0  0  0
 27 26  1  0  0  0  0
 28 29  2  0  0  0  0
 29 27  1  0  0  0  0
 30 29  1  0  0  0  0
M  END
>  <MODEL>
7

>  <REMARK>
 VINA RESULT:      -5.7      2.804      6.680
  Name = 
  6 active torsions:
  status: ('A' for Active; 'I' for Inactive)
    1  A    between atoms: C_4  and  C_13
    2  A    between atoms: C_7  and  C_15
    3  A    between atoms: C_7  and  C_16
    4  A    between atoms: C_8  and  C_13
    5  A    between atoms: C_13  and  C_27
    6  A    between atoms: C_16  and  S_30
                            x       y       z     vdW  Elec       q    Type
                         _______ _______ _______ _____ _____    ______ ____

>  <TORSDO>
F 6

$$$$
=
 OpenBabel10262421543D

 30 33  0  0  1  0  0  0  0  0999 V2000
  187.7760  178.8220  141.3550 C   0  0  0  0  0  2  0  0  0  0  0  0
  189.1860  177.2990  142.7880 C   0  0  2  0  0  3  0  0  0  0  0  0
  189.0240  176.6680  137.4200 S   0  0  0  0  0  0  0  0  0  0  0  0
  186.9180  178.9370  140.0820 C   0  0  1  0  0  3  0  0  0  0  0  0
  187.7450  177.6680  136.5730 C   0  0  1  0  0  3  0  0  0  0  0  0
  190.6030  177.8680  142.6530 C   0  0  0  0  0  2  0  0  0  0  0  0
  189.2420  175.8470  143.2240 C   0  0  0  0  0  1  0  0  0  0  0  0
  188.5130  177.3570  138.9840 C   0  0  2  0  0  3  0  0  0  0  0  0
  191.2260  177.4230  141.3310 C   0  0  0  0  0  2  0  0  0  0  0  0
  188.3910  177.4280  141.4840 C   0  0  2  0  0  3  0  0  0  0  0  0
  187.5230  178.2340  138.8920 C   0  0  0  0  0  0  0  0  0  0  0  0
  186.8150  176.7880  135.8870 N   0  0  0  0  0  1  0  0  0  0  0  0
  187.0320  178.4370  137.5790 N   0  0  0  0  0  0  0  0  0  0  0  0
  190.4410  177.8830  140.2620 O   0  0  0  0  0  0  0  0  0  0  0  0
  189.2690  177.1030  140.2560 C   0  0  2  0  0  3  0  0  0  0  0  0
  185.4480  178.5360  140.2800 C   0  0  2  0  0  3  0  0  0  0  0  0
  183.7710  176.6040  138.7280 C   0  0  0  0  0  2  0  0  0  0  0  0
  184.4690  180.2050  138.8700 O   0  0  0  0  0  0  0  0  0  0  0  0
  184.5420  178.9820  139.1670 C   0  0  0  0  0  0  0  0  0  0  0  0
  182.8480  178.3880  137.3810 C   0  0  0  0  0  2  0  0  0  0  0  0
  183.7510  178.0260  138.4530 N   0  0  0  0  0  0  0  0  0  0  0  0
  182.8940  175.9700  137.6650 C   0  0  0  0  0  2  0  0  0  0  0  0
  182.1310  177.1080  137.0010 C   0  0  0  0  0  2  0  0  0  0  0  0
  184.8920  178.7690  141.6600 C   0  0  0  0  0  2  0  0  0  0  0  0
  183.3270  178.5890  142.0220 S   0  0  0  0  0  0  0  0  0  0  0  0
  183.2160  179.1780  143.7180 C   0  0  0  0  0  2  0  0  0  0  0  0
  181.9660  178.6220  144.3700 C   0  0  0  0  0  2  0  0  0  0  0  0
  180.6910  180.3200  143.0680 O   0  0  0  0  0  0  0  0  0  0  0  0
  180.7650  179.0390  143.6000 C   0  0  0  0  0  0  0  0  0  0  0  0
  179.8280  178.2220  143.4030 O   0  0  0  0  0  1  0  0  0  0  0  0
  2  7  1  6  0  0  0
  4 16  1  1  0  0  0
  4  1  1  0  0  0  0
  5 12  1  1  0  0  0
  5  3  1  0  0  0  0
  5 13  1  0  0  0  0
  6  2  1  0  0  0  0
  8  3  1  6  0  0  0
  8 15  1  0  0  0  0
  9  6  1  0  0  0  0
 10  1  1  6  0  0  0
 10  2  1  0  0  0  0
 11  8  1  0  0  0  0
 11  4  1  0  0  0  0
 13 11  2  0  0  0  0
 14  9  1  0  0  0  0
 15 14  1  6  0  0  0
 15 10  1  0  0  0  0
 16 24  1  1  0  0  0
 18 19  2  0  0  0  0
 19 16  1  0  0  0  0
 20 21  1  0  0  0  0
 21 17  1  0  0  0  0
 21 19  1  0  0  0  0
 22 17  1  0  0  0  0
 23 20  1  0  0  0  0
 23 22  1  0  0  0  0
 24 25  1  0  0  0  0
 25 26  1  0  0  0  0
 26 27  1  0  0  0  0
 28 29  2  0  0  0  0
 29 27  1  0  0  0  0
 30 29  1  0  0  0  0
M  END
>  <MODEL>
8

>  <REMARK>
 VINA RESULT:      -5.7      2.229      2.534
  Name = 
  6 active torsions:
  status: ('A' for Active; 'I' for Inactive)
    1  A    between atoms: C_4  and  C_13
    2  A    between atoms: C_7  and  C_15
    3  A    between atoms: C_7  and  C_16
    4  A    between atoms: C_8  and  C_13
    5  A    between atoms: C_13  and  C_27
    6  A    between atoms: C_16  and  S_30
                            x       y       z     vdW  Elec       q    Type
                         _______ _______ _______ _____ _____    ______ ____

>  <TORSDO>
F 6

$$$$
=
 OpenBabel10262421543D

 30 33  0  0  1  0  0  0  0  0999 V2000
  182.0250  178.7940  141.2860 C   0  0  0  0  0  2  0  0  0  0  0  0
  180.1490  180.1570  142.2780 C   0  0  2  0  0  3  0  0  0  0  0  0
  179.1230  175.5120  139.7070 S   0  0  0  0  0  0  0  0  0  0  0  0
  182.4450  177.8460  140.1490 C   0  0  1  0  0  3  0  0  0  0  0  0
  180.5560  174.8030  138.8130 C   0  0  1  0  0  3  0  0  0  0  0  0
  179.8450  179.4600  143.6080 C   0  0  0  0  0  2  0  0  0  0  0  0
  178.9540  180.9780  141.8300 C   0  0  0  0  0  1  0  0  0  0  0  0
  180.1450  176.8720  140.2460 C   0  0  2  0  0  3  0  0  0  0  0  0
  178.9930  178.2150  143.3670 C   0  0  0  0  0  2  0  0  0  0  0  0
  180.5430  179.1590  141.1850 C   0  0  2  0  0  3  0  0  0  0  0  0
  181.4020  176.8040  139.8280 C   0  0  0  0  0  0  0  0  0  0  0  0
  180.2470  174.7100  137.3980 N   0  0  0  0  0  1  0  0  0  0  0  0
  181.6920  175.6880  139.0050 N   0  0  0  0  0  0  0  0  0  0  0  0
  179.6840  177.3270  142.5280 O   0  0  0  0  0  0  0  0  0  0  0  0
  179.6650  177.8900  141.2380 C   0  0  2  0  0  3  0  0  0  0  0  0
  182.9250  178.5650  138.8790 C   0  0  2  0  0  3  0  0  0  0  0  0
  184.7560  176.8510  137.2490 C   0  0  0  0  0  2  0  0  0  0  0  0
  184.9120  179.7480  139.4970 O   0  0  0  0  0  0  0  0  0  0  0  0
  184.4080  178.7990  138.8370 C   0  0  0  0  0  0  0  0  0  0  0  0
  186.6830  178.1380  137.9430 C   0  0  0  0  0  2  0  0  0  0  0  0
  185.2500  177.9600  138.0390 N   0  0  0  0  0  0  0  0  0  0  0  0
  185.9900  176.1750  136.6810 C   0  0  0  0  0  2  0  0  0  0  0  0
  187.1520  177.1310  136.9100 C   0  0  0  0  0  2  0  0  0  0  0  0
  182.0990  179.7520  138.4550 C   0  0  0  0  0  2  0  0  0  0  0  0
  180.8760  179.6440  137.4040 S   0  0  0  0  0  0  0  0  0  0  0  0
  180.4020  181.3580  137.1320 C   0  0  0  0  0  2  0  0  0  0  0  0
  181.3060  182.2710  137.9380 C   0  0  0  0  0  2  0  0  0  0  0  0
  182.3000  184.5260  137.5810 O   0  0  0  0  0  1  0  0  0  0  0  0
  181.2320  183.6560  137.4040 C   0  0  0  0  0  0  0  0  0  0  0  0
  180.2150  184.0320  136.7660 O   0  0  0  0  0  0  0  0  0  0  0  0
  2  7  1  6  0  0  0
  2  6  1  0  0  0  0
  4 16  1  6  0  0  0
  4  1  1  0  0  0  0
  5 12  1  6  0  0  0
  5 13  1  0  0  0  0
  5  3  1  0  0  0  0
  8  3  1  1  0  0  0
  8 15  1  0  0  0  0
  9  6  1  0  0  0  0
 10 15  1  0  0  0  0
 10  1  1  1  0  0  0
 10  2  1  0  0  0  0
 11  4  1  0  0  0  0
 11  8  1  0  0  0  0
 13 11  2  0  0  0  0
 14  9  1  0  0  0  0
 15 14  1  1  0  0  0
 16 24  1  1  0  0  0
 17 21  1  0  0  0  0
 19 16  1  0  0  0  0
 19 18  2  0  0  0  0
 20 21  1  0  0  0  0
 21 19  1  0  0  0  0
 22 23  1  0  0  0  0
 22 17  1  0  0  0  0
 23 20  1  0  0  0  0
 25 24  1  0  0  0  0
 26 25  1  0  0  0  0
 26 27  1  0  0  0  0
 29 28  1  0  0  0  0
 29 27  1  0  0  0  0
 30 29  2  0  0  0  0
M  END
>  <MODEL>
9

>  <REMARK>
 VINA RESULT:      -5.6      4.539      8.269
  Name = 
  6 active torsions:
  status: ('A' for Active; 'I' for Inactive)
    1  A    between atoms: C_4  and  C_13
    2  A    between atoms: C_7  and  C_15
    3  A    between atoms: C_7  and  C_16
    4  A    between atoms: C_8  and  C_13
    5  A    between atoms: C_13  and  C_27
    6  A    between atoms: C_16  and  S_30
                            x       y       z     vdW  Elec       q    Type
                         _______ _______ _______ _____ _____    ______ ____

>  <TORSDO>
F 6

$$$$
