=
 OpenBabel10252414493D

 34 40  0  0  1  0  0  0  0  0999 V2000
  190.2190  176.9510  146.5620 N   0  0  1  0  0  0  0  0  0  0  0  0
  191.1900  175.4210  144.9920 C   0  0  1  0  0  3  0  0  0  0  0  0
  189.6260  177.2870  144.1510 C   0  0  0  0  0  0  0  0  0  0  0  0
  188.9490  177.8040  141.8760 C   0  0  0  0  0  0  0  0  0  0  0  0
  192.2170  175.7580  147.2430 C   0  0  0  0  0  3  0  0  0  0  0  0
  192.1490  175.0500  146.1010 C   0  0  0  0  0  3  0  0  0  0  0  0
  191.5910  177.4300  142.1000 S   0  0  0  0  0  0  0  0  0  0  0  0
  190.6950  176.8730  145.1680 C   0  0  1  0  0  3  0  0  0  0  0  0
  189.4200  177.8980  140.1610 S   0  0  0  0  0  0  0  0  0  0  0  0
  191.3920  177.0080  147.4270 C   0  0  0  0  0  2  0  0  0  0  0  0
  188.3230  177.6520  144.5930 C   0  0  0  0  0  0  0  0  0  0  0  0
  189.3890  178.1200  146.7830 C   0  0  0  0  0  2  0  0  0  0  0  0
  191.7950  175.1860  143.7760 F   0  0  0  0  0  0  0  0  0  0  0  0
  187.6340  177.9870  142.2870 C   0  0  0  0  0  3  0  0  0  0  0  0
  187.3000  177.9290  143.6470 C   0  0  0  0  0  0  0  0  0  0  0  0
  190.8820  176.8710  140.5200 C   0  0  1  0  0  3  0  0  0  0  0  0
  189.9420  177.4910  142.7890 C   0  0  0  0  0  0  0  0  0  0  0  0
  188.0750  177.8710  146.0630 C   0  0  0  0  0  2  0  0  0  0  0  0
  183.5550  178.5360  143.4330 C   0  0  0  0  0  0  0  0  0  0  0  0
  183.2350  178.7420  144.7770 C   0  0  0  0  0  3  0  0  0  0  0  0
  185.8890  178.1850  144.0330 C   0  0  0  0  0  0  0  0  0  0  0  0
  184.2340  178.6780  145.7500 C   0  0  0  0  0  3  0  0  0  0  0  0
  184.8760  178.2650  143.0630 C   0  0  0  0  0  3  0  0  0  0  0  0
  185.5540  178.4050  145.3800 C   0  0  0  0  0  3  0  0  0  0  0  0
  182.5870  178.6030  142.4880 F   0  0  0  0  0  0  0  0  0  0  0  0
  191.8670  177.0250  139.4650 N   0  0  0  0  0  2  0  0  0  0  0  0
  191.2370  176.5910  138.2280 C   0  0  0  0  0  2  0  0  0  0  0  0
  193.5090  176.0100  137.1220 C   0  0  0  0  0  2  0  0  0  0  0  0
  192.1170  175.6130  137.5230 C   0  0  0  0  0  0  0  0  0  0  0  0
  194.5140  174.8920  137.4460 C   0  0  1  0  0  3  0  0  0  0  0  0
  194.0320  173.4980  137.1450 C   0  0  1  0  0  3  0  0  0  0  0  0
  192.6120  173.4150  136.5630 C   0  0  0  0  0  2  0  0  0  0  0  0
  191.6900  174.3740  137.2570 C   0  0  0  0  0  3  0  0  0  0  0  0
  194.8560  174.2170  136.2590 O   0  0  0  0  0  0  0  0  0  0  0  0
  1 12  1  6  0  0  0
  1 10  1  0  0  0  0
  2 13  1  6  0  0  0
  2  8  1  0  0  0  0
  2  6  1  0  0  0  0
  3 11  1  0  0  0  0
  4 14  2  0  0  0  0
  4 17  1  0  0  0  0
  5 10  1  0  0  0  0
  6  5  2  0  0  0  0
  7 17  1  0  0  0  0
  8  3  1  6  0  0  0
  8  1  1  0  0  0  0
  9 16  1  0  0  0  0
  9  4  1  0  0  0  0
 11 18  1  0  0  0  0
 14 15  1  0  0  0  0
 15 21  1  0  0  0  0
 15 11  2  0  0  0  0
 16 26  1  6  0  0  0
 16  7  1  0  0  0  0
 17  3  2  0  0  0  0
 18 12  1  0  0  0  0
 19 20  1  0  0  0  0
 20 22  2  0  0  0  0
 21 24  2  0  0  0  0
 23 19  2  0  0  0  0
 23 21  1  0  0  0  0
 24 22  1  0  0  0  0
 25 19  1  0  0  0  0
 27 26  1  0  0  0  0
 28 29  1  0  0  0  0
 29 27  1  0  0  0  0
 30 28  1  6  0  0  0
 31 32  1  6  0  0  0
 31 30  1  0  0  0  0
 32 33  1  0  0  0  0
 33 29  2  0  0  0  0
 34 31  1  0  0  0  0
 34 30  1  0  0  0  0
M  END
>  <MODEL>
1

>  <REMARK>
 VINA RESULT:     -10.3      0.000      0.000
  Name = 
  4 active torsions:
  status: ('A' for Active; 'I' for Inactive)
    1  A    between atoms: C_3  and  C_13
    2  A    between atoms: C_3  and  N_17
    3  A    between atoms: C_12  and  C_28
    4  A    between atoms: N_17  and  C_29
                            x       y       z     vdW  Elec       q    Type
                         _______ _______ _______ _____ _____    ______ ____

>  <TORSDO>
F 4

$$$$
=
 OpenBabel10252414493D

 34 40  0  0  1  0  0  0  0  0999 V2000
  190.3100  176.8580  146.4570 N   0  0  1  0  0  0  0  0  0  0  0  0
  191.1670  175.3300  144.8200 C   0  0  1  0  0  3  0  0  0  0  0  0
  189.5870  177.2270  144.0870 C   0  0  0  0  0  0  0  0  0  0  0  0
  188.7890  177.7770  141.8590 C   0  0  0  0  0  0  0  0  0  0  0  0
  192.3250  175.6290  147.0120 C   0  0  0  0  0  3  0  0  0  0  0  0
  192.1810  174.9340  145.8700 C   0  0  0  0  0  3  0  0  0  0  0  0
  191.4330  177.3610  141.9280 S   0  0  0  0  0  0  0  0  0  0  0  0
  190.7050  176.7870  145.0370 C   0  0  1  0  0  3  0  0  0  0  0  0
  189.1630  177.8810  140.1200 S   0  0  0  0  0  0  0  0  0  0  0  0
  191.5310  176.8890  147.2540 C   0  0  0  0  0  2  0  0  0  0  0  0
  188.3170  177.6070  144.6050 C   0  0  0  0  0  0  0  0  0  0  0  0
  189.5130  178.0380  146.7360 C   0  0  0  0  0  2  0  0  0  0  0  0
  191.6970  175.0970  143.5700 F   0  0  0  0  0  0  0  0  0  0  0  0
  187.5030  177.9760  142.3460 C   0  0  0  0  0  3  0  0  0  0  0  0
  187.2460  177.9090  143.7220 C   0  0  0  0  0  0  0  0  0  0  0  0
  190.6280  176.8280  140.3870 C   0  0  1  0  0  3  0  0  0  0  0  0
  189.8280  177.4400  142.7110 C   0  0  0  0  0  0  0  0  0  0  0  0
  188.1560  177.8160  146.0890 C   0  0  0  0  0  2  0  0  0  0  0  0
  183.5150  178.6280  143.7260 C   0  0  0  0  0  0  0  0  0  0  0  0
  183.2650  178.7710  145.0930 C   0  0  0  0  0  3  0  0  0  0  0  0
  185.8630  178.1820  144.1900 C   0  0  0  0  0  0  0  0  0  0  0  0
  184.3080  178.6290  146.0100 C   0  0  0  0  0  3  0  0  0  0  0  0
  184.8070  178.3410  143.2770 C   0  0  0  0  0  3  0  0  0  0  0  0
  185.6000  178.3400  145.5610 C   0  0  0  0  0  3  0  0  0  0  0  0
  182.5050  178.7700  142.8340 F   0  0  0  0  0  0  0  0  0  0  0  0
  191.5530  176.9780  139.2780 N   0  0  0  0  0  2  0  0  0  0  0  0
  191.4470  175.7750  138.4690 C   0  0  0  0  0  2  0  0  0  0  0  0
  189.3240  174.9380  137.2380 C   0  0  0  0  0  2  0  0  0  0  0  0
  190.4100  175.9600  137.4110 C   0  0  0  0  0  0  0  0  0  0  0  0
  187.9580  175.6150  137.0430 C   0  0  1  0  0  3  0  0  0  0  0  0
  187.9730  176.8290  136.1530 C   0  0  1  0  0  3  0  0  0  0  0  0
  189.3510  177.1990  135.5820 C   0  0  0  0  0  2  0  0  0  0  0  0
  190.4220  177.0400  136.6220 C   0  0  0  0  0  3  0  0  0  0  0  0
  187.6010  175.5550  135.6820 O   0  0  0  0  0  0  0  0  0  0  0  0
  1 12  1  6  0  0  0
  1 10  1  0  0  0  0
  2 13  1  6  0  0  0
  2  8  1  0  0  0  0
  2  6  1  0  0  0  0
  3 11  1  0  0  0  0
  4 14  2  0  0  0  0
  4 17  1  0  0  0  0
  5 10  1  0  0  0  0
  6  5  2  0  0  0  0
  7 17  1  0  0  0  0
  8  3  1  6  0  0  0
  8  1  1  0  0  0  0
  9 16  1  0  0  0  0
  9  4  1  0  0  0  0
 11 18  1  0  0  0  0
 14 15  1  0  0  0  0
 15 21  1  0  0  0  0
 15 11  2  0  0  0  0
 16 26  1  6  0  0  0
 16  7  1  0  0  0  0
 17  3  2  0  0  0  0
 18 12  1  0  0  0  0
 19 20  1  0  0  0  0
 20 22  2  0  0  0  0
 21 24  2  0  0  0  0
 23 19  2  0  0  0  0
 23 21  1  0  0  0  0
 24 22  1  0  0  0  0
 25 19  1  0  0  0  0
 27 26  1  0  0  0  0
 28 29  1  0  0  0  0
 29 27  1  0  0  0  0
 30 28  1  6  0  0  0
 31 32  1  6  0  0  0
 31 30  1  0  0  0  0
 32 33  1  0  0  0  0
 33 29  2  0  0  0  0
 34 31  1  0  0  0  0
 34 30  1  0  0  0  0
M  END
>  <MODEL>
2

>  <REMARK>
 VINA RESULT:     -10.0      1.775      2.462
  Name = 
  4 active torsions:
  status: ('A' for Active; 'I' for Inactive)
    1  A    between atoms: C_3  and  C_13
    2  A    between atoms: C_3  and  N_17
    3  A    between atoms: C_12  and  C_28
    4  A    between atoms: N_17  and  C_29
                            x       y       z     vdW  Elec       q    Type
                         _______ _______ _______ _____ _____    ______ ____

>  <TORSDO>
F 4

$$$$
=
 OpenBabel10252414493D

 34 40  0  0  1  0  0  0  0  0999 V2000
  186.8190  178.3280  146.9260 N   0  0  1  0  0  0  0  0  0  0  0  0
  188.3700  176.7040  146.0860 C   0  0  1  0  0  3  0  0  0  0  0  0
  187.0500  178.1760  144.4360 C   0  0  0  0  0  0  0  0  0  0  0  0
  187.1420  178.2120  142.0090 C   0  0  0  0  0  0  0  0  0  0  0  0
  188.5520  177.5450  148.4310 C   0  0  0  0  0  3  0  0  0  0  0  0
  188.9240  176.6550  147.4930 C   0  0  0  0  0  3  0  0  0  0  0  0
  189.5740  178.2400  143.1280 S   0  0  0  0  0  0  0  0  0  0  0  0
  187.7410  178.0840  145.8000 C   0  0  1  0  0  3  0  0  0  0  0  0
  188.1560  178.0820  140.5490 S   0  0  0  0  0  0  0  0  0  0  0  0
  187.6240  178.6850  148.0880 C   0  0  0  0  0  2  0  0  0  0  0  0
  185.6510  178.4290  144.3590 C   0  0  0  0  0  0  0  0  0  0  0  0
  185.8810  179.3950  146.6330 C   0  0  0  0  0  2  0  0  0  0  0  0
  189.3640  176.3530  145.1990 F   0  0  0  0  0  0  0  0  0  0  0  0
  185.7560  178.2810  141.9360 C   0  0  0  0  0  3  0  0  0  0  0  0
  184.9890  178.4050  143.1020 C   0  0  0  0  0  0  0  0  0  0  0  0
  189.4820  177.3350  141.5530 C   0  0  1  0  0  3  0  0  0  0  0  0
  187.7900  178.1910  143.2330 C   0  0  0  0  0  0  0  0  0  0  0  0
  184.9080  178.8540  145.5990 C   0  0  0  0  0  2  0  0  0  0  0  0
  181.5240  178.6990  141.5710 C   0  0  0  0  0  0  0  0  0  0  0  0
  180.7310  178.8350  142.7130 C   0  0  0  0  0  3  0  0  0  0  0  0
  183.5160  178.5280  142.9610 C   0  0  0  0  0  0  0  0  0  0  0  0
  181.3230  178.8270  143.9780 C   0  0  0  0  0  3  0  0  0  0  0  0
  182.9090  178.5520  141.6950 C   0  0  0  0  0  3  0  0  0  0  0  0
  182.7080  178.6780  144.1010 C   0  0  0  0  0  3  0  0  0  0  0  0
  180.9520  178.7110  140.3440 F   0  0  0  0  0  0  0  0  0  0  0  0
  190.7500  177.4440  140.8550 N   0  0  0  0  0  2  0  0  0  0  0  0
  190.4490  177.5380  139.4350 C   0  0  0  0  0  2  0  0  0  0  0  0
  190.6610  175.4690  137.8870 C   0  0  0  0  0  2  0  0  0  0  0  0
  191.3000  176.5810  138.6690 C   0  0  0  0  0  0  0  0  0  0  0  0
  191.3080  175.3290  136.5000 C   0  0  1  0  0  3  0  0  0  0  0  0
  192.8060  175.4730  136.4810 C   0  0  1  0  0  3  0  0  0  0  0  0
  193.4500  175.7370  137.8520 C   0  0  0  0  0  2  0  0  0  0  0  0
  192.6310  176.7090  138.6510 C   0  0  0  0  0  3  0  0  0  0  0  0
  192.1710  174.2160  136.5010 O   0  0  0  0  0  0  0  0  0  0  0  0
  1 12  1  6  0  0  0
  1 10  1  0  0  0  0
  2 13  1  6  0  0  0
  2  6  1  0  0  0  0
  4 17  1  0  0  0  0
  6  5  2  0  0  0  0
  7 17  1  0  0  0  0
  8  3  1  6  0  0  0
  8  2  1  0  0  0  0
  8  1  1  0  0  0  0
  9 16  1  0  0  0  0
  9  4  1  0  0  0  0
 10  5  1  0  0  0  0
 11  3  1  0  0  0  0
 11 18  1  0  0  0  0
 14  4  2  0  0  0  0
 14 15  1  0  0  0  0
 15 11  2  0  0  0  0
 16 26  1  6  0  0  0
 16  7  1  0  0  0  0
 17  3  2  0  0  0  0
 18 12  1  0  0  0  0
 19 23  2  0  0  0  0
 19 20  1  0  0  0  0
 20 22  2  0  0  0  0
 21 15  1  0  0  0  0
 21 24  2  0  0  0  0
 22 24  1  0  0  0  0
 23 21  1  0  0  0  0
 25 19  1  0  0  0  0
 27 26  1  0  0  0  0
 28 29  1  0  0  0  0
 29 27  1  0  0  0  0
 30 34  1  0  0  0  0
 30 28  1  1  0  0  0
 31 30  1  0  0  0  0
 31 34  1  0  0  0  0
 31 32  1  1  0  0  0
 32 33  1  0  0  0  0
 33 29  2  0  0  0  0
M  END
>  <MODEL>
3

>  <REMARK>
 VINA RESULT:      -9.7      1.970      2.883
  Name = 
  4 active torsions:
  status: ('A' for Active; 'I' for Inactive)
    1  A    between atoms: C_3  and  C_13
    2  A    between atoms: C_3  and  N_17
    3  A    between atoms: C_12  and  C_28
    4  A    between atoms: N_17  and  C_29
                            x       y       z     vdW  Elec       q    Type
                         _______ _______ _______ _____ _____    ______ ____

>  <TORSDO>
F 4

$$$$
=
 OpenBabel10252414493D

 34 40  0  0  1  0  0  0  0  0999 V2000
  184.5560  178.6900  144.7690 N   0  0  1  0  0  0  0  0  0  0  0  0
  186.4010  177.2090  144.3850 C   0  0  1  0  0  3  0  0  0  0  0  0
  185.3300  178.4500  142.3980 C   0  0  0  0  0  0  0  0  0  0  0  0
  185.9370  178.3840  140.0480 C   0  0  0  0  0  0  0  0  0  0  0  0
  185.9920  178.1720  146.6530 C   0  0  0  0  0  3  0  0  0  0  0  0
  186.6410  177.2850  145.8760 C   0  0  0  0  0  3  0  0  0  0  0  0
  188.0580  178.7290  141.6450 S   0  0  0  0  0  0  0  0  0  0  0  0
  185.7170  178.4970  143.8800 C   0  0  1  0  0  3  0  0  0  0  0  0
  187.2480  178.2990  138.8440 S   0  0  0  0  0  0  0  0  0  0  0  0
  185.0540  179.1870  146.0470 C   0  0  0  0  0  2  0  0  0  0  0  0
  183.9620  178.5460  142.0140 C   0  0  0  0  0  0  0  0  0  0  0  0
  183.6030  179.6340  144.2140 C   0  0  0  0  0  2  0  0  0  0  0  0
  187.5910  176.9280  143.7500 F   0  0  0  0  0  0  0  0  0  0  0  0
  184.5990  178.2980  139.6820 C   0  0  0  0  0  3  0  0  0  0  0  0
  183.5910  178.3910  140.6510 C   0  0  0  0  0  0  0  0  0  0  0  0
  188.3940  177.7480  140.1510 C   0  0  1  0  0  3  0  0  0  0  0  0
  186.3060  178.4900  141.3780 C   0  0  0  0  0  0  0  0  0  0  0  0
  182.9320  178.9440  143.0390 C   0  0  0  0  0  2  0  0  0  0  0  0
  180.1450  177.1000  139.7070 C   0  0  0  0  0  0  0  0  0  0  0  0
  179.5250  178.2710  139.2670 C   0  0  0  0  0  3  0  0  0  0  0  0
  182.1780  178.3470  140.1980 C   0  0  0  0  0  0  0  0  0  0  0  0
  180.2260  179.4790  139.2820 C   0  0  0  0  0  3  0  0  0  0  0  0
  181.4650  177.1370  140.1640 C   0  0  0  0  0  3  0  0  0  0  0  0
  181.5450  179.5160  139.7410 C   0  0  0  0  0  3  0  0  0  0  0  0
  179.4680  175.9260  139.6880 F   0  0  0  0  0  0  0  0  0  0  0  0
  189.7660  177.9620  139.7280 N   0  0  0  0  0  2  0  0  0  0  0  0
  190.5190  176.7780  140.1100 C   0  0  0  0  0  2  0  0  0  0  0  0
  191.7720  177.9660  142.0440 C   0  0  0  0  0  2  0  0  0  0  0  0
  190.8910  176.8530  141.5530 C   0  0  0  0  0  0  0  0  0  0  0  0
  191.2380  178.5490  143.3620 C   0  0  1  0  0  3  0  0  0  0  0  0
  190.7240  177.5310  144.3450 C   0  0  1  0  0  3  0  0  0  0  0  0
  190.8150  176.0710  143.8730 C   0  0  0  0  0  2  0  0  0  0  0  0
  190.4330  175.9500  142.4270 C   0  0  0  0  0  3  0  0  0  0  0  0
  192.0210  178.0730  144.4310 O   0  0  0  0  0  0  0  0  0  0  0  0
  1 12  1  6  0  0  0
  1 10  1  0  0  0  0
  2 13  1  6  0  0  0
  2  6  1  0  0  0  0
  4 17  1  0  0  0  0
  6  5  2  0  0  0  0
  8  3  1  6  0  0  0
  8  2  1  0  0  0  0
  8  1  1  0  0  0  0
  9  4  1  0  0  0  0
  9 16  1  0  0  0  0
 10  5  1  0  0  0  0
 11  3  1  0  0  0  0
 11 18  1  0  0  0  0
 14  4  2  0  0  0  0
 14 15  1  0  0  0  0
 15 11  2  0  0  0  0
 16 26  1  6  0  0  0
 16  7  1  0  0  0  0
 17  7  1  0  0  0  0
 17  3  2  0  0  0  0
 18 12  1  0  0  0  0
 19 23  1  0  0  0  0
 20 22  1  0  0  0  0
 20 19  2  0  0  0  0
 21 15  1  0  0  0  0
 22 24  2  0  0  0  0
 23 21  2  0  0  0  0
 24 21  1  0  0  0  0
 25 19  1  0  0  0  0
 26 27  1  0  0  0  0
 27 29  1  0  0  0  0
 29 28  1  0  0  0  0
 29 33  2  0  0  0  0
 30 28  1  6  0  0  0
 30 31  1  0  0  0  0
 30 34  1  0  0  0  0
 31 32  1  6  0  0  0
 31 34  1  0  0  0  0
 33 32  1  0  0  0  0
M  END
>  <MODEL>
4

>  <REMARK>
 VINA RESULT:      -9.4      3.427      5.695
  Name = 
  4 active torsions:
  status: ('A' for Active; 'I' for Inactive)
    1  A    between atoms: C_3  and  C_13
    2  A    between atoms: C_3  and  N_17
    3  A    between atoms: C_12  and  C_28
    4  A    between atoms: N_17  and  C_29
                            x       y       z     vdW  Elec       q    Type
                         _______ _______ _______ _____ _____    ______ ____

>  <TORSDO>
F 4

$$$$
=
 OpenBabel10252414493D

 34 40  0  0  1  0  0  0  0  0999 V2000
  191.7530  175.1280  137.3790 N   0  0  1  0  0  0  0  0  0  0  0  0
  192.7660  176.7580  138.8160 C   0  0  1  0  0  3  0  0  0  0  0  0
  190.2110  176.4340  138.8590 C   0  0  0  0  0  0  0  0  0  0  0  0
  188.5500  177.5630  140.2250 C   0  0  0  0  0  0  0  0  0  0  0  0
  194.1130  174.8750  137.8790 C   0  0  0  0  0  3  0  0  0  0  0  0
  194.0730  176.0560  138.5220 C   0  0  0  0  0  3  0  0  0  0  0  0
  190.6460  176.7100  141.6550 S   0  0  0  0  0  0  0  0  0  0  0  0
  191.5830  175.7730  138.6940 C   0  0  1  0  0  3  0  0  0  0  0  0
  188.1430  178.2600  141.8130 S   0  0  0  0  0  0  0  0  0  0  0  0
  192.8390  174.1610  137.4970 C   0  0  0  0  0  2  0  0  0  0  0  0
  189.2760  176.4160  137.7850 C   0  0  0  0  0  0  0  0  0  0  0  0
  190.5420  174.4540  136.9480 C   0  0  0  0  0  2  0  0  0  0  0  0
  192.8510  177.3730  140.0460 F   0  0  0  0  0  0  0  0  0  0  0  0
  187.7100  177.7020  139.1260 C   0  0  0  0  0  3  0  0  0  0  0  0
  188.0490  177.1220  137.8960 C   0  0  0  0  0  0  0  0  0  0  0  0
  189.9140  178.2670  142.2480 C   0  0  1  0  0  3  0  0  0  0  0  0
  189.7680  176.9140  140.1110 C   0  0  0  0  0  0  0  0  0  0  0  0
  189.5400  175.5370  136.5900 C   0  0  0  0  0  2  0  0  0  0  0  0
  185.0270  176.6080  135.6490 C   0  0  0  0  0  0  0  0  0  0  0  0
  185.3200  177.4760  134.5950 C   0  0  0  0  0  3  0  0  0  0  0  0
  187.0890  177.2580  136.7700 C   0  0  0  0  0  0  0  0  0  0  0  0
  186.4950  178.2300  134.6180 C   0  0  0  0  0  3  0  0  0  0  0  0
  185.9100  176.4960  136.7280 C   0  0  0  0  0  3  0  0  0  0  0  0
  187.3760  178.1190  135.6970 C   0  0  0  0  0  3  0  0  0  0  0  0
  183.8900  175.8720  135.6260 F   0  0  0  0  0  0  0  0  0  0  0  0
  190.0690  178.3590  143.6880 N   0  0  0  0  0  2  0  0  0  0  0  0
  189.8000  177.0370  144.2310 C   0  0  0  0  0  2  0  0  0  0  0  0
  189.4380  176.8160  146.7890 C   0  0  0  0  0  2  0  0  0  0  0  0
  188.9090  177.1460  145.4230 C   0  0  0  0  0  0  0  0  0  0  0  0
  188.9860  177.8610  147.8210 C   0  0  1  0  0  3  0  0  0  0  0  0
  187.5590  178.3190  147.6780 C   0  0  1  0  0  3  0  0  0  0  0  0
  186.7830  177.6690  146.5220 C   0  0  0  0  0  2  0  0  0  0  0  0
  187.6420  177.5550  145.2960 C   0  0  0  0  0  3  0  0  0  0  0  0
  187.9420  177.3240  148.5980 O   0  0  0  0  0  0  0  0  0  0  0  0
  1 12  1  1  0  0  0
  1 10  1  0  0  0  0
  1  8  1  0  0  0  0
  2 13  1  1  0  0  0
  3 17  1  0  0  0  0
  4  9  1  0  0  0  0
  5  6  2  0  0  0  0
  6  2  1  0  0  0  0
  7 16  1  0  0  0  0
  8  2  1  0  0  0  0
  8  3  1  6  0  0  0
  9 16  1  0  0  0  0
 10  5  1  0  0  0  0
 11 15  1  0  0  0  0
 11  3  2  0  0  0  0
 14  4  1  0  0  0  0
 15 14  2  0  0  0  0
 16 26  1  1  0  0  0
 17  4  2  0  0  0  0
 17  7  1  0  0  0  0
 18 12  1  0  0  0  0
 18 11  1  0  0  0  0
 19 23  1  0  0  0  0
 20 22  1  0  0  0  0
 20 19  2  0  0  0  0
 21 15  1  0  0  0  0
 22 24  2  0  0  0  0
 23 21  2  0  0  0  0
 24 21  1  0  0  0  0
 25 19  1  0  0  0  0
 26 27  1  0  0  0  0
 27 29  1  0  0  0  0
 29 28  1  0  0  0  0
 30 28  1  6  0  0  0
 30 34  1  0  0  0  0
 31 32  1  6  0  0  0
 31 30  1  0  0  0  0
 31 34  1  0  0  0  0
 33 29  2  0  0  0  0
 33 32  1  0  0  0  0
M  END
>  <MODEL>
5

>  <REMARK>
 VINA RESULT:      -9.1      4.105      8.389
  Name = 
  4 active torsions:
  status: ('A' for Active; 'I' for Inactive)
    1  A    between atoms: C_3  and  C_13
    2  A    between atoms: C_3  and  N_17
    3  A    between atoms: C_12  and  C_28
    4  A    between atoms: N_17  and  C_29
                            x       y       z     vdW  Elec       q    Type
                         _______ _______ _______ _____ _____    ______ ____

>  <TORSDO>
F 4

$$$$
=
 OpenBabel10252414493D

 34 40  0  0  1  0  0  0  0  0999 V2000
  184.9650  178.6320  144.6770 N   0  0  1  0  0  0  0  0  0  0  0  0
  186.7850  177.1690  144.1330 C   0  0  1  0  0  3  0  0  0  0  0  0
  185.5440  178.4120  142.2490 C   0  0  0  0  0  0  0  0  0  0  0  0
  185.9590  178.3650  139.8560 C   0  0  0  0  0  0  0  0  0  0  0  0
  186.5550  178.1150  146.4330 C   0  0  0  0  0  3  0  0  0  0  0  0
  187.1450  177.2390  145.6000 C   0  0  0  0  0  3  0  0  0  0  0  0
  188.1990  178.7190  141.2780 S   0  0  0  0  0  0  0  0  0  0  0  0
  186.0510  178.4540  143.6940 C   0  0  1  0  0  3  0  0  0  0  0  0
  187.1670  178.2980  138.5490 S   0  0  0  0  0  0  0  0  0  0  0  0
  185.5620  179.1260  145.9120 C   0  0  0  0  0  2  0  0  0  0  0  0
  184.1500  178.4990  141.9780 C   0  0  0  0  0  0  0  0  0  0  0  0
  183.9630  179.5710  144.2070 C   0  0  0  0  0  2  0  0  0  0  0  0
  187.9220  176.9020  143.4020 F   0  0  0  0  0  0  0  0  0  0  0  0
  184.5960  178.2700  139.6010 C   0  0  0  0  0  3  0  0  0  0  0  0
  183.6700  178.3490  140.6500 C   0  0  0  0  0  0  0  0  0  0  0  0
  188.4200  177.7500  139.7540 C   0  0  1  0  0  3  0  0  0  0  0  0
  186.4340  178.4670  141.1530 C   0  0  0  0  0  0  0  0  0  0  0  0
  183.2030  178.8810  143.0870 C   0  0  0  0  0  2  0  0  0  0  0  0
  180.1380  177.0560  140.1080 C   0  0  0  0  0  0  0  0  0  0  0  0
  179.5050  178.1930  139.6010 C   0  0  0  0  0  3  0  0  0  0  0  0
  182.2240  178.2940  140.3130 C   0  0  0  0  0  0  0  0  0  0  0  0
  180.2260  179.3780  139.4400 C   0  0  0  0  0  3  0  0  0  0  0  0
  181.4910  177.1050  140.4560 C   0  0  0  0  0  3  0  0  0  0  0  0
  181.5780  179.4280  139.7900 C   0  0  0  0  0  3  0  0  0  0  0  0
  179.4410  175.9040  140.2600 F   0  0  0  0  0  0  0  0  0  0  0  0
  189.7510  177.9780  139.2220 N   0  0  0  0  0  2  0  0  0  0  0  0
  190.5780  176.8590  139.6470 C   0  0  0  0  0  2  0  0  0  0  0  0
  192.5490  176.3730  138.0350 C   0  0  0  0  0  2  0  0  0  0  0  0
  191.1250  176.1470  138.4560 C   0  0  0  0  0  0  0  0  0  0  0  0
  193.2350  175.0450  137.6780 C   0  0  1  0  0  3  0  0  0  0  0  0
  192.3820  174.0810  136.8960 C   0  0  1  0  0  3  0  0  0  0  0  0
  190.9620  174.5790  136.5810 C   0  0  0  0  0  2  0  0  0  0  0  0
  190.3690  175.2890  137.7630 C   0  0  0  0  0  3  0  0  0  0  0  0
  193.3200  174.9290  136.2770 O   0  0  0  0  0  0  0  0  0  0  0  0
  1 12  1  6  0  0  0
  1 10  1  0  0  0  0
  2 13  1  6  0  0  0
  2  6  1  0  0  0  0
  4 17  1  0  0  0  0
  6  5  2  0  0  0  0
  8  3  1  6  0  0  0
  8  2  1  0  0  0  0
  8  1  1  0  0  0  0
  9 16  1  0  0  0  0
  9  4  1  0  0  0  0
 10  5  1  0  0  0  0
 11  3  1  0  0  0  0
 11 18  1  0  0  0  0
 14  4  2  0  0  0  0
 14 15  1  0  0  0  0
 15 11  2  0  0  0  0
 16 26  1  6  0  0  0
 16  7  1  0  0  0  0
 17  7  1  0  0  0  0
 17  3  2  0  0  0  0
 18 12  1  0  0  0  0
 19 25  1  0  0  0  0
 19 23  1  0  0  0  0
 20 19  2  0  0  0  0
 21 23  2  0  0  0  0
 21 15  1  0  0  0  0
 22 20  1  0  0  0  0
 22 24  2  0  0  0  0
 24 21  1  0  0  0  0
 26 27  1  0  0  0  0
 28 29  1  0  0  0  0
 29 27  1  0  0  0  0
 30 28  1  6  0  0  0
 31 32  1  6  0  0  0
 31 30  1  0  0  0  0
 32 33  1  0  0  0  0
 33 29  2  0  0  0  0
 34 31  1  0  0  0  0
 34 30  1  0  0  0  0
M  END
>  <MODEL>
6

>  <REMARK>
 VINA RESULT:      -9.0      2.853      4.512
  Name = 
  4 active torsions:
  status: ('A' for Active; 'I' for Inactive)
    1  A    between atoms: C_3  and  C_13
    2  A    between atoms: C_3  and  N_17
    3  A    between atoms: C_12  and  C_28
    4  A    between atoms: N_17  and  C_29
                            x       y       z     vdW  Elec       q    Type
                         _______ _______ _______ _____ _____    ______ ____

>  <TORSDO>
F 4

$$$$
=
 OpenBabel10252414493D

 34 40  0  0  1  0  0  0  0  0999 V2000
  188.1570  178.0530  137.5850 N   0  0  1  0  0  0  0  0  0  0  0  0
  185.9550  177.1040  137.5810 C   0  0  1  0  0  3  0  0  0  0  0  0
  186.8440  178.2500  139.7090 C   0  0  0  0  0  0  0  0  0  0  0  0
  185.7370  178.5730  141.8470 C   0  0  0  0  0  0  0  0  0  0  0  0
  187.0870  177.7040  135.4360 C   0  0  0  0  0  3  0  0  0  0  0  0
  186.0780  177.0830  136.0740 C   0  0  0  0  0  3  0  0  0  0  0  0
  184.1830  179.2500  139.7750 S   0  0  0  0  0  0  0  0  0  0  0  0
  186.8190  178.2360  138.1780 C   0  0  1  0  0  3  0  0  0  0  0  0
  184.2170  178.9280  142.7050 S   0  0  0  0  0  0  0  0  0  0  0  0
  188.0970  178.5210  136.2050 C   0  0  0  0  0  2  0  0  0  0  0  0
  188.0710  178.0550  140.4050 C   0  0  0  0  0  0  0  0  0  0  0  0
  189.1730  178.7940  138.3090 C   0  0  0  0  0  2  0  0  0  0  0  0
  184.6230  177.1840  137.9240 F   0  0  0  0  0  0  0  0  0  0  0  0
  186.8940  178.2070  142.5250 C   0  0  0  0  0  3  0  0  0  0  0  0
  188.0800  177.9560  141.8220 C   0  0  0  0  0  0  0  0  0  0  0  0
  183.2850  178.5370  141.1880 C   0  0  1  0  0  3  0  0  0  0  0  0
  185.7110  178.6270  140.4640 C   0  0  0  0  0  0  0  0  0  0  0  0
  189.3690  178.0870  139.6400 C   0  0  0  0  0  2  0  0  0  0  0  0
  191.2840  178.3040  143.8350 C   0  0  0  0  0  0  0  0  0  0  0  0
  191.6410  176.9660  144.0150 C   0  0  0  0  0  3  0  0  0  0  0  0
  189.2990  177.6210  142.6030 C   0  0  0  0  0  0  0  0  0  0  0  0
  190.8380  175.9540  143.4860 C   0  0  0  0  0  3  0  0  0  0  0  0
  190.1230  178.6300  143.1280 C   0  0  0  0  0  3  0  0  0  0  0  0
  189.6760  176.2790  142.7810 C   0  0  0  0  0  3  0  0  0  0  0  0
  192.0650  179.2880  144.3430 F   0  0  0  0  0  0  0  0  0  0  0  0
  181.9560  179.1150  141.2600 N   0  0  0  0  0  2  0  0  0  0  0  0
  181.1290  178.4050  140.2970 C   0  0  0  0  0  2  0  0  0  0  0  0
  180.5900  180.8150  139.5070 C   0  0  0  0  0  2  0  0  0  0  0  0
  180.6710  179.3410  139.2290 C   0  0  0  0  0  0  0  0  0  0  0  0
  181.1660  181.6280  138.3370 C   0  0  1  0  0  3  0  0  0  0  0  0
  180.8000  181.1170  136.9680 C   0  0  1  0  0  3  0  0  0  0  0  0
  179.9090  179.8650  136.9610 C   0  0  0  0  0  2  0  0  0  0  0  0
  180.3470  178.8880  138.0140 C   0  0  0  0  0  3  0  0  0  0  0  0
  180.1070  182.1760  137.5880 O   0  0  0  0  0  0  0  0  0  0  0  0
  1 10  1  6  0  0  0
  1  8  1  0  0  0  0
  1 12  1  0  0  0  0
  2 13  1  6  0  0  0
  2  8  1  0  0  0  0
  3 11  2  0  0  0  0
  3 17  1  0  0  0  0
  4 14  1  0  0  0  0
  4  9  1  0  0  0  0
  5  6  2  0  0  0  0
  5 10  1  0  0  0  0
  6  2  1  0  0  0  0
  7 17  1  0  0  0  0
  7 16  1  0  0  0  0
  8  3  1  1  0  0  0
 11 15  1  0  0  0  0
 12 18  1  0  0  0  0
 15 14  2  0  0  0  0
 15 21  1  0  0  0  0
 16 26  1  1  0  0  0
 16  9  1  0  0  0  0
 17  4  2  0  0  0  0
 18 11  1  0  0  0  0
 19 20  1  0  0  0  0
 19 25  1  0  0  0  0
 21 24  2  0  0  0  0
 21 23  1  0  0  0  0
 22 20  2  0  0  0  0
 23 19  2  0  0  0  0
 24 22  1  0  0  0  0
 27 26  1  0  0  0  0
 29 28  1  0  0  0  0
 29 27  1  0  0  0  0
 30 28  1  1  0  0  0
 31 32  1  1  0  0  0
 31 34  1  0  0  0  0
 31 30  1  0  0  0  0
 32 33  1  0  0  0  0
 33 29  2  0  0  0  0
 34 30  1  0  0  0  0
M  END
>  <MODEL>
7

>  <REMARK>
 VINA RESULT:      -9.0      5.277      9.615
  Name = 
  4 active torsions:
  status: ('A' for Active; 'I' for Inactive)
    1  A    between atoms: C_3  and  C_13
    2  A    between atoms: C_3  and  N_17
    3  A    between atoms: C_12  and  C_28
    4  A    between atoms: N_17  and  C_29
                            x       y       z     vdW  Elec       q    Type
                         _______ _______ _______ _____ _____    ______ ____

>  <TORSDO>
F 4

$$$$
=
 OpenBabel10252414493D

 34 40  0  0  1  0  0  0  0  0999 V2000
  192.0160  176.7760  139.9040 N   0  0  1  0  0  0  0  0  0  0  0  0
  190.1930  175.9330  138.5950 C   0  0  1  0  0  3  0  0  0  0  0  0
  189.7140  177.4760  140.6010 C   0  0  0  0  0  0  0  0  0  0  0  0
  187.5800  178.2950  141.4240 C   0  0  0  0  0  0  0  0  0  0  0  0
  192.5060  176.0120  137.6550 C   0  0  0  0  0  3  0  0  0  0  0  0
  191.2350  175.5830  137.5560 C   0  0  0  0  0  3  0  0  0  0  0  0
  187.8290  178.5670  138.7720 S   0  0  0  0  0  0  0  0  0  0  0  0
  190.6600  177.1330  139.4460 C   0  0  1  0  0  3  0  0  0  0  0  0
  185.9480  178.8840  141.0200 S   0  0  0  0  0  0  0  0  0  0  0  0
  192.9220  176.9370  138.7730 C   0  0  0  0  0  2  0  0  0  0  0  0
  190.1680  177.3890  141.9470 C   0  0  0  0  0  0  0  0  0  0  0  0
  192.4510  177.6160  141.0050 C   0  0  0  0  0  2  0  0  0  0  0  0
  188.9820  176.1350  137.9690 F   0  0  0  0  0  0  0  0  0  0  0  0
  187.9640  178.0400  142.7350 C   0  0  0  0  0  3  0  0  0  0  0  0
  189.2630  177.5980  143.0220 C   0  0  0  0  0  0  0  0  0  0  0  0
  186.1360  178.2100  139.3360 C   0  0  1  0  0  3  0  0  0  0  0  0
  188.4440  178.0500  140.3700 C   0  0  0  0  0  0  0  0  0  0  0  0
  191.6390  177.2060  142.2210 C   0  0  0  0  0  2  0  0  0  0  0  0
  191.2140  176.6420  146.1390 C   0  0  0  0  0  0  0  0  0  0  0  0
  190.2910  176.9440  147.1420 C   0  0  0  0  0  3  0  0  0  0  0  0
  189.6340  177.3930  144.4450 C   0  0  0  0  0  0  0  0  0  0  0  0
  189.0390  177.4620  146.8050 C   0  0  0  0  0  3  0  0  0  0  0  0
  190.8850  176.8600  144.7980 C   0  0  0  0  0  3  0  0  0  0  0  0
  188.7110  177.6810  145.4640 C   0  0  0  0  0  3  0  0  0  0  0  0
  192.4270  176.1350  146.4640 F   0  0  0  0  0  0  0  0  0  0  0  0
  185.1830  178.8410  138.4410 N   0  0  0  0  0  2  0  0  0  0  0  0
  184.0350  179.2280  139.2460 C   0  0  0  0  0  2  0  0  0  0  0  0
  182.7960  177.4360  137.8390 C   0  0  0  0  0  2  0  0  0  0  0  0
  182.9550  178.2050  139.1200 C   0  0  0  0  0  0  0  0  0  0  0  0
  182.5590  175.9440  138.1200 C   0  0  1  0  0  3  0  0  0  0  0  0
  181.6320  175.6540  139.2710 C   0  0  1  0  0  3  0  0  0  0  0  0
  181.0730  176.8970  139.9820 C   0  0  0  0  0  2  0  0  0  0  0  0
  182.1340  177.9460  140.1420 C   0  0  0  0  0  3  0  0  0  0  0  0
  181.1950  175.6480  137.9320 O   0  0  0  0  0  0  0  0  0  0  0  0
  1 10  1  6  0  0  0
  1 12  1  0  0  0  0
  2 13  1  6  0  0  0
  2  8  1  0  0  0  0
  3 11  1  0  0  0  0
  4 14  2  0  0  0  0
  5 10  1  0  0  0  0
  6  5  2  0  0  0  0
  6  2  1  0  0  0  0
  7 16  1  0  0  0  0
  7 17  1  0  0  0  0
  8  1  1  0  0  0  0
  8  3  1  1  0  0  0
  9  4  1  0  0  0  0
 11 18  1  0  0  0  0
 11 15  2  0  0  0  0
 12 18  1  0  0  0  0
 14 15  1  0  0  0  0
 15 21  1  0  0  0  0
 16 26  1  6  0  0  0
 16  9  1  0  0  0  0
 17  3  2  0  0  0  0
 17  4  1  0  0  0  0
 19 25  1  0  0  0  0
 19 20  1  0  0  0  0
 21 23  1  0  0  0  0
 21 24  2  0  0  0  0
 22 20  2  0  0  0  0
 23 19  2  0  0  0  0
 24 22  1  0  0  0  0
 26 27  1  0  0  0  0
 28 29  1  0  0  0  0
 29 27  1  0  0  0  0
 29 33  2  0  0  0  0
 30 28  1  1  0  0  0
 30 31  1  0  0  0  0
 31 32  1  1  0  0  0
 32 33  1  0  0  0  0
 34 30  1  0  0  0  0
 34 31  1  0  0  0  0
M  END
>  <MODEL>
8

>  <REMARK>
 VINA RESULT:      -8.9      3.882      7.690
  Name = 
  4 active torsions:
  status: ('A' for Active; 'I' for Inactive)
    1  A    between atoms: C_3  and  C_13
    2  A    between atoms: C_3  and  N_17
    3  A    between atoms: C_12  and  C_28
    4  A    between atoms: N_17  and  C_29
                            x       y       z     vdW  Elec       q    Type
                         _______ _______ _______ _____ _____    ______ ____

>  <TORSDO>
F 4

$$$$
=
 OpenBabel10252414493D

 34 40  0  0  1  0  0  0  0  0999 V2000
  186.5240  177.2760  136.0930 N   0  0  1  0  0  0  0  0  0  0  0  0
  188.4940  178.4000  136.8700 C   0  0  1  0  0  3  0  0  0  0  0  0
  186.5410  177.9820  138.4960 C   0  0  0  0  0  0  0  0  0  0  0  0
  186.3640  178.5520  140.8510 C   0  0  0  0  0  0  0  0  0  0  0  0
  188.5690  176.9670  134.8260 C   0  0  0  0  0  3  0  0  0  0  0  0
  189.1620  177.8790  135.6180 C   0  0  0  0  0  3  0  0  0  0  0  0
  188.6900  177.3690  140.2550 S   0  0  0  0  0  0  0  0  0  0  0  0
  187.3480  177.4620  137.3030 C   0  0  1  0  0  3  0  0  0  0  0  0
  187.1920  178.6900  142.4230 S   0  0  0  0  0  0  0  0  0  0  0  0
  187.2380  176.3640  135.2060 C   0  0  0  0  0  2  0  0  0  0  0  0
  185.1550  178.2730  138.3500 C   0  0  0  0  0  0  0  0  0  0  0  0
  185.2180  176.7300  136.4090 C   0  0  0  0  0  2  0  0  0  0  0  0
  189.4500  178.5930  137.8440 F   0  0  0  0  0  0  0  0  0  0  0  0
  185.0620  179.0030  140.6660 C   0  0  0  0  0  3  0  0  0  0  0  0
  184.4320  178.8590  139.4220 C   0  0  0  0  0  0  0  0  0  0  0  0
  188.8000  178.6250  141.5650 C   0  0  1  0  0  3  0  0  0  0  0  0
  187.0890  178.0200  139.7980 C   0  0  0  0  0  0  0  0  0  0  0  0
  184.4350  177.8320  137.1020 C   0  0  0  0  0  2  0  0  0  0  0  0
  181.3790  180.9800  138.6330 C   0  0  0  0  0  0  0  0  0  0  0  0
  180.3520  180.1780  139.1340 C   0  0  0  0  0  3  0  0  0  0  0  0
  183.0220  179.3100  139.2970 C   0  0  0  0  0  0  0  0  0  0  0  0
  180.6520  178.9480  139.7220 C   0  0  0  0  0  3  0  0  0  0  0  0
  182.7070  180.5510  138.7190 C   0  0  0  0  0  3  0  0  0  0  0  0
  181.9790  178.5180  139.8070 C   0  0  0  0  0  3  0  0  0  0  0  0
  181.0900  182.1760  138.0650 F   0  0  0  0  0  0  0  0  0  0  0  0
  189.8460  178.2590  142.5030 N   0  0  0  0  0  2  0  0  0  0  0  0
  189.3370  177.1520  143.2970 C   0  0  0  0  0  2  0  0  0  0  0  0
  189.1240  177.8010  145.7980 C   0  0  0  0  0  2  0  0  0  0  0  0
  189.9160  177.2010  144.6720 C   0  0  0  0  0  0  0  0  0  0  0  0
  189.2180  176.9300  147.0610 C   0  0  1  0  0  3  0  0  0  0  0  0
  190.5850  176.3660  147.3430 C   0  0  1  0  0  3  0  0  0  0  0  0
  191.6680  176.7510  146.3230 C   0  0  0  0  0  2  0  0  0  0  0  0
  191.1290  176.6990  144.9230 C   0  0  0  0  0  3  0  0  0  0  0  0
  190.1060  177.5310  147.9740 O   0  0  0  0  0  0  0  0  0  0  0  0
  1 10  1  6  0  0  0
  1 12  1  0  0  0  0
  1  8  1  0  0  0  0
  2  8  1  0  0  0  0
  2 13  1  1  0  0  0
  3 17  1  0  0  0  0
  4  9  1  0  0  0  0
  5 10  1  0  0  0  0
  5  6  2  0  0  0  0
  6  2  1  0  0  0  0
  7 16  1  0  0  0  0
  8  3  1  1  0  0  0
 11  3  2  0  0  0  0
 11 15  1  0  0  0  0
 12 18  1  0  0  0  0
 14  4  1  0  0  0  0
 15 14  2  0  0  0  0
 16  9  1  0  0  0  0
 16 26  1  1  0  0  0
 17  7  1  0  0  0  0
 17  4  2  0  0  0  0
 18 11  1  0  0  0  0
 19 23  2  0  0  0  0
 19 20  1  0  0  0  0
 20 22  2  0  0  0  0
 21 15  1  0  0  0  0
 21 24  2  0  0  0  0
 22 24  1  0  0  0  0
 23 21  1  0  0  0  0
 25 19  1  0  0  0  0
 26 27  1  0  0  0  0
 27 29  1  0  0  0  0
 29 33  2  0  0  0  0
 29 28  1  0  0  0  0
 30 28  1  6  0  0  0
 30 31  1  0  0  0  0
 30 34  1  0  0  0  0
 31 32  1  6  0  0  0
 31 34  1  0  0  0  0
 33 32  1  0  0  0  0
M  END
>  <MODEL>
9

>  <REMARK>
 VINA RESULT:      -8.6      4.567      8.146
  Name = 
  4 active torsions:
  status: ('A' for Active; 'I' for Inactive)
    1  A    between atoms: C_3  and  C_13
    2  A    between atoms: C_3  and  N_17
    3  A    between atoms: C_12  and  C_28
    4  A    between atoms: N_17  and  C_29
                            x       y       z     vdW  Elec       q    Type
                         _______ _______ _______ _____ _____    ______ ____

>  <TORSDO>
F 4

$$$$
