=
 OpenBabel10262419573D

 25 25  0  0  1  0  0  0  0  0999 V2000
  188.3790  177.5660  144.2670 C   0  0  1  0  0  3  0  0  0  0  0  0
  190.5730  176.3500  144.5630 C   0  0  0  0  0  2  0  0  0  0  0  0
  189.3670  177.2360  146.5630 C   0  0  0  0  0  2  0  0  0  0  0  0
  192.7120  175.9330  147.6860 O   0  0  0  0  0  1  0  0  0  0  0  0
  191.6760  176.3160  146.8450 C   0  0  0  0  0  0  0  0  0  0  0  0
  190.5650  176.8320  147.3800 C   0  0  0  0  0  3  0  0  0  0  0  0
  189.6930  177.5020  145.0840 C   0  0  2  0  0  0  0  0  0  0  0  0
  191.8750  176.2100  145.3580 C   0  0  0  0  0  2  0  0  0  0  0  0
  190.4350  178.8470  144.9740 C   0  0  0  0  0  2  0  0  0  0  0  0
  191.2260  178.9850  143.6810 C   0  0  0  0  0  1  0  0  0  0  0  0
  188.0690  175.4790  143.1500 O   0  0  0  0  0  0  0  0  0  0  0  0
  188.3840  176.6950  143.0430 C   0  0  0  0  0  0  0  0  0  0  0  0
  188.7280  177.2350  141.8020 O   0  0  0  0  0  0  0  0  0  0  0  0
  188.3840  178.5650  141.4420 C   0  0  0  0  0  1  0  0  0  0  0  0
  187.2680  177.2640  145.0650 O   0  0  0  0  0  0  0  0  0  0  0  0
  186.4320  178.3800  144.9610 C   0  0  0  0  0  2  0  0  0  0  0  0
  185.3160  178.2900  145.9840 C   0  0  0  0  0  2  0  0  0  0  0  0
  184.0390  178.8900  145.4230 C   0  0  0  0  0  2  0  0  0  0  0  0
  184.2900  179.4910  144.0480 C   0  0  0  0  0  2  0  0  0  0  0  0
  183.3860  178.8660  142.9970 C   0  0  0  0  0  2  0  0  0  0  0  0
  184.0820  177.8970  142.2740 O   0  0  0  0  0  0  0  0  0  0  0  0
  183.8490  178.2210  140.9350 C   0  0  0  0  0  2  0  0  0  0  0  0
  184.9510  179.1330  140.4280 C   0  0  0  0  0  2  0  0  0  0  0  0
  184.4680  179.9230  139.3830 O   0  0  0  0  0  0  0  0  0  0  0  0
  183.6070  179.0820  138.6800 C   0  0  0  0  0  1  0  0  0  0  0  0
  1 12  1  6  0  0  0
  1 15  1  0  0  0  0
  1  7  1  0  0  0  0
  2  7  1  0  0  0  0
  2  8  1  0  0  0  0
  3  6  1  0  0  0  0
  5  6  2  0  0  0  0
  5  4  1  0  0  0  0
  7  9  1  6  0  0  0
  7  3  1  0  0  0  0
  8  5  1  0  0  0  0
 10  9  1  0  0  0  0
 12 11  2  0  0  0  0
 13 12  1  0  0  0  0
 14 13  1  0  0  0  0
 16 15  1  0  0  0  0
 16 17  1  0  0  0  0
 18 17  1  0  0  0  0
 19 18  1  0  0  0  0
 20 19  1  0  0  0  0
 21 20  1  0  0  0  0
 22 21  1  0  0  0  0
 23 22  1  0  0  0  0
 24 23  1  0  0  0  0
 25 24  1  0  0  0  0
M  END
>  <MODEL>
1

>  <REMARK>
 VINA RESULT:      -6.4      0.000      0.000
  Name = 
  14 active torsions:
  status: ('A' for Active; 'I' for Inactive)
    1  A    between atoms: C_1  and  O_3
    2  A    between atoms: C_1  and  C_18
    3  A    between atoms: C_1  and  C_24
    4  A    between atoms: C_2  and  O_7
    5  A    between atoms: C_2  and  C_25
    6  A    between atoms: O_3  and  C_16
    7  A    between atoms: C_6  and  C_15
    8  A    between atoms: C_6  and  O_21
    9  A    between atoms: O_13  and  C_24
   10  A    between atoms: C_15  and  C_20
   11  A    between atoms: C_16  and  C_23
   12  A    between atoms: C_17  and  C_18
   13  A    between atoms: C_20  and  C_23
   14  A    between atoms: O_21  and  C_25
                            x       y       z     vdW  Elec       q    Type
                         _______ _______ _______ _____ _____    ______ ____

>  <TORSDO>
F 14

$$$$
=
 OpenBabel10262419573D

 25 25  0  0  1  0  0  0  0  0999 V2000
  188.9560  177.3810  142.8240 C   0  0  1  0  0  3  0  0  0  0  0  0
  190.7330  175.8250  143.7170 C   0  0  0  0  0  2  0  0  0  0  0  0
  189.7440  177.5660  145.2110 C   0  0  0  0  0  2  0  0  0  0  0  0
  192.5790  175.9110  147.0470 O   0  0  0  0  0  1  0  0  0  0  0  0
  191.7120  176.2480  146.0170 C   0  0  0  0  0  0  0  0  0  0  0  0
  190.7620  177.1620  146.2440 C   0  0  0  0  0  3  0  0  0  0  0  0
  190.1770  177.2600  143.7680 C   0  0  2  0  0  0  0  0  0  0  0  0
  191.9230  175.6310  144.6620 C   0  0  0  0  0  2  0  0  0  0  0  0
  191.2550  178.2770  143.3490 C   0  0  0  0  0  2  0  0  0  0  0  0
  191.0790  179.6370  144.0100 C   0  0  0  0  0  1  0  0  0  0  0  0
  188.8750  178.5750  140.7580 O   0  0  0  0  0  0  0  0  0  0  0  0
  189.3230  177.5740  141.3800 C   0  0  0  0  0  0  0  0  0  0  0  0
  190.1570  176.6540  140.7410 O   0  0  0  0  0  0  0  0  0  0  0  0
  191.0210  177.0360  139.6810 C   0  0  0  0  0  1  0  0  0  0  0  0
  188.0990  176.2800  142.9560 O   0  0  0  0  0  0  0  0  0  0  0  0
  187.0440  176.7360  143.7520 C   0  0  0  0  0  2  0  0  0  0  0  0
  186.6080  178.1160  143.2940 C   0  0  0  0  0  2  0  0  0  0  0  0
  185.2120  178.0560  142.7000 C   0  0  0  0  0  2  0  0  0  0  0  0
  184.1740  178.4660  143.7330 C   0  0  0  0  0  2  0  0  0  0  0  0
  184.7880  179.3280  144.8240 C   0  0  0  0  0  2  0  0  0  0  0  0
  184.1130  179.1370  146.0300 O   0  0  0  0  0  0  0  0  0  0  0  0
  184.8870  178.2010  146.7230 C   0  0  0  0  0  2  0  0  0  0  0  0
  186.2860  178.7480  146.9330 C   0  0  0  0  0  2  0  0  0  0  0  0
  187.1350  177.7250  147.3580 O   0  0  0  0  0  0  0  0  0  0  0  0
  187.8630  178.2900  148.4040 C   0  0  0  0  0  1  0  0  0  0  0  0
  1 12  1  6  0  0  0
  1 15  1  0  0  0  0
  1  7  1  0  0  0  0
  2  7  1  0  0  0  0
  2  8  1  0  0  0  0
  3  6  1  0  0  0  0
  5  6  2  0  0  0  0
  5  4  1  0  0  0  0
  7  9  1  6  0  0  0
  7  3  1  0  0  0  0
  8  5  1  0  0  0  0
  9 10  1  0  0  0  0
 11 12  2  0  0  0  0
 13 12  1  0  0  0  0
 14 13  1  0  0  0  0
 15 16  1  0  0  0  0
 17 16  1  0  0  0  0
 18 17  1  0  0  0  0
 18 19  1  0  0  0  0
 19 20  1  0  0  0  0
 20 21  1  0  0  0  0
 21 22  1  0  0  0  0
 22 23  1  0  0  0  0
 23 24  1  0  0  0  0
 24 25  1  0  0  0  0
M  END
>  <MODEL>
2

>  <REMARK>
 VINA RESULT:      -6.1      1.995      3.850
  Name = 
  14 active torsions:
  status: ('A' for Active; 'I' for Inactive)
    1  A    between atoms: C_1  and  O_3
    2  A    between atoms: C_1  and  C_18
    3  A    between atoms: C_1  and  C_24
    4  A    between atoms: C_2  and  O_7
    5  A    between atoms: C_2  and  C_25
    6  A    between atoms: O_3  and  C_16
    7  A    between atoms: C_6  and  C_15
    8  A    between atoms: C_6  and  O_21
    9  A    between atoms: O_13  and  C_24
   10  A    between atoms: C_15  and  C_20
   11  A    between atoms: C_16  and  C_23
   12  A    between atoms: C_17  and  C_18
   13  A    between atoms: C_20  and  C_23
   14  A    between atoms: O_21  and  C_25
                            x       y       z     vdW  Elec       q    Type
                         _______ _______ _______ _____ _____    ______ ____

>  <TORSDO>
F 14

$$$$
=
 OpenBabel10262419573D

 25 25  0  0  1  0  0  0  0  0999 V2000
  189.1470  177.1090  146.0340 C   0  0  1  0  0  3  0  0  0  0  0  0
  188.4290  176.9760  143.6160 C   0  0  0  0  0  2  0  0  0  0  0  0
  190.7550  176.3280  144.2560 C   0  0  0  0  0  2  0  0  0  0  0  0
  190.5120  176.2860  140.5040 O   0  0  0  0  0  1  0  0  0  0  0  0
  190.1620  176.4870  141.8320 C   0  0  0  0  0  0  0  0  0  0  0  0
  191.0490  176.1910  142.7870 C   0  0  0  0  0  3  0  0  0  0  0  0
  189.6000  177.2940  144.5650 C   0  0  2  0  0  0  0  0  0  0  0  0
  188.8260  177.1040  142.1420 C   0  0  0  0  0  2  0  0  0  0  0  0
  190.0920  178.7380  144.3550 C   0  0  0  0  0  2  0  0  0  0  0  0
  191.6100  178.8560  144.3640 C   0  0  0  0  0  1  0  0  0  0  0  0
  190.5730  177.8480  147.8000 O   0  0  0  0  0  0  0  0  0  0  0  0
  190.2830  176.9190  146.9990 C   0  0  0  0  0  0  0  0  0  0  0  0
  191.0020  175.7220  147.0060 O   0  0  0  0  0  0  0  0  0  0  0  0
  192.3570  175.6650  147.4230 C   0  0  0  0  0  1  0  0  0  0  0  0
  188.3350  178.1710  146.4540 O   0  0  0  0  0  0  0  0  0  0  0  0
  187.2440  177.5650  147.0840 C   0  0  0  0  0  2  0  0  0  0  0  0
  186.0500  177.5450  146.1480 C   0  0  0  0  0  2  0  0  0  0  0  0
  185.6080  178.9620  145.8300 C   0  0  0  0  0  2  0  0  0  0  0  0
  184.1520  178.9820  145.3900 C   0  0  0  0  0  2  0  0  0  0  0  0
  184.0230  179.3190  143.9130 C   0  0  0  0  0  2  0  0  0  0  0  0
  183.9250  178.1510  143.1570 O   0  0  0  0  0  0  0  0  0  0  0  0
  183.9650  178.5860  141.8290 C   0  0  0  0  0  2  0  0  0  0  0  0
  185.3530  179.1010  141.4990 C   0  0  0  0  0  2  0  0  0  0  0  0
  185.4090  179.4900  140.1590 O   0  0  0  0  0  0  0  0  0  0  0  0
  184.1110  179.2960  139.6880 C   0  0  0  0  0  1  0  0  0  0  0  0
  1 15  1  1  0  0  0
  1 12  1  0  0  0  0
  2  7  1  0  0  0  0
  3  7  1  0  0  0  0
  4  5  1  0  0  0  0
  5  8  1  0  0  0  0
  5  6  2  0  0  0  0
  6  3  1  0  0  0  0
  7  9  1  6  0  0  0
  7  1  1  0  0  0  0
  8  2  1  0  0  0  0
  9 10  1  0  0  0  0
 12 13  1  0  0  0  0
 12 11  2  0  0  0  0
 13 14  1  0  0  0  0
 15 16  1  0  0  0  0
 17 16  1  0  0  0  0
 18 17  1  0  0  0  0
 19 18  1  0  0  0  0
 20 19  1  0  0  0  0
 21 20  1  0  0  0  0
 22 21  1  0  0  0  0
 23 22  1  0  0  0  0
 24 23  1  0  0  0  0
 25 24  1  0  0  0  0
M  END
>  <MODEL>
3

>  <REMARK>
 VINA RESULT:      -6.1      1.374      3.555
  Name = 
  14 active torsions:
  status: ('A' for Active; 'I' for Inactive)
    1  A    between atoms: C_1  and  O_3
    2  A    between atoms: C_1  and  C_18
    3  A    between atoms: C_1  and  C_24
    4  A    between atoms: C_2  and  O_7
    5  A    between atoms: C_2  and  C_25
    6  A    between atoms: O_3  and  C_16
    7  A    between atoms: C_6  and  C_15
    8  A    between atoms: C_6  and  O_21
    9  A    between atoms: O_13  and  C_24
   10  A    between atoms: C_15  and  C_20
   11  A    between atoms: C_16  and  C_23
   12  A    between atoms: C_17  and  C_18
   13  A    between atoms: C_20  and  C_23
   14  A    between atoms: O_21  and  C_25
                            x       y       z     vdW  Elec       q    Type
                         _______ _______ _______ _____ _____    ______ ____

>  <TORSDO>
F 14

$$$$
=
 OpenBabel10262419573D

 25 25  0  0  1  0  0  0  0  0999 V2000
  188.9760  177.6230  143.4080 C   0  0  1  0  0  3  0  0  0  0  0  0
  190.6840  175.8750  144.0470 C   0  0  0  0  0  2  0  0  0  0  0  0
  189.9780  177.5890  145.7220 C   0  0  0  0  0  2  0  0  0  0  0  0
  192.8070  175.5980  147.1960 O   0  0  0  0  0  1  0  0  0  0  0  0
  191.8870  176.0690  146.2700 C   0  0  0  0  0  0  0  0  0  0  0  0
  191.0420  177.0390  146.6330 C   0  0  0  0  0  3  0  0  0  0  0  0
  190.2580  177.3440  144.2300 C   0  0  2  0  0  0  0  0  0  0  0  0
  191.9290  175.5260  144.8670 C   0  0  0  0  0  2  0  0  0  0  0  0
  191.3800  178.2970  143.7750 C   0  0  0  0  0  2  0  0  0  0  0  0
  191.1200  179.7460  144.1590 C   0  0  0  0  0  1  0  0  0  0  0  0
  188.8310  178.7370  141.3010 O   0  0  0  0  0  0  0  0  0  0  0  0
  189.2130  177.7110  141.9270 C   0  0  0  0  0  0  0  0  0  0  0  0
  189.8560  176.6680  141.2590 O   0  0  0  0  0  0  0  0  0  0  0  0
  190.6110  176.8880  140.0760 C   0  0  0  0  0  1  0  0  0  0  0  0
  187.9820  176.6730  143.6780 O   0  0  0  0  0  0  0  0  0  0  0  0
  186.8000  177.4110  143.7990 C   0  0  0  0  0  2  0  0  0  0  0  0
  186.3690  177.4640  145.2520 C   0  0  0  0  0  2  0  0  0  0  0  0
  185.5960  178.7430  145.5240 C   0  0  0  0  0  2  0  0  0  0  0  0
  184.9400  179.2520  144.2500 C   0  0  0  0  0  2  0  0  0  0  0  0
  183.4510  178.9450  144.2320 C   0  0  0  0  0  2  0  0  0  0  0  0
  183.0180  178.7270  142.9240 O   0  0  0  0  0  0  0  0  0  0  0  0
  184.1700  178.8630  142.1440 C   0  0  0  0  0  2  0  0  0  0  0  0
  183.7950  178.8760  140.6740 C   0  0  0  0  0  2  0  0  0  0  0  0
  184.7820  179.5340  139.9380 O   0  0  0  0  0  0  0  0  0  0  0  0
  184.8560  178.8220  138.7420 C   0  0  0  0  0  1  0  0  0  0  0  0
  1 12  1  6  0  0  0
  1 15  1  0  0  0  0
  1  7  1  0  0  0  0
  2  7  1  0  0  0  0
  2  8  1  0  0  0  0
  3  6  1  0  0  0  0
  5  6  2  0  0  0  0
  5  4  1  0  0  0  0
  7  9  1  6  0  0  0
  7  3  1  0  0  0  0
  8  5  1  0  0  0  0
  9 10  1  0  0  0  0
 11 12  2  0  0  0  0
 13 12  1  0  0  0  0
 14 13  1  0  0  0  0
 15 16  1  0  0  0  0
 16 17  1  0  0  0  0
 17 18  1  0  0  0  0
 19 18  1  0  0  0  0
 20 19  1  0  0  0  0
 21 20  1  0  0  0  0
 22 21  1  0  0  0  0
 23 22  1  0  0  0  0
 24 23  1  0  0  0  0
 25 24  1  0  0  0  0
M  END
>  <MODEL>
4

>  <REMARK>
 VINA RESULT:      -6.0      1.199      1.532
  Name = 
  14 active torsions:
  status: ('A' for Active; 'I' for Inactive)
    1  A    between atoms: C_1  and  O_3
    2  A    between atoms: C_1  and  C_18
    3  A    between atoms: C_1  and  C_24
    4  A    between atoms: C_2  and  O_7
    5  A    between atoms: C_2  and  C_25
    6  A    between atoms: O_3  and  C_16
    7  A    between atoms: C_6  and  C_15
    8  A    between atoms: C_6  and  O_21
    9  A    between atoms: O_13  and  C_24
   10  A    between atoms: C_15  and  C_20
   11  A    between atoms: C_16  and  C_23
   12  A    between atoms: C_17  and  C_18
   13  A    between atoms: C_20  and  C_23
   14  A    between atoms: O_21  and  C_25
                            x       y       z     vdW  Elec       q    Type
                         _______ _______ _______ _____ _____    ______ ____

>  <TORSDO>
F 14

$$$$
=
 OpenBabel10262419573D

 25 25  0  0  1  0  0  0  0  0999 V2000
  188.3880  177.5550  144.1690 C   0  0  1  0  0  3  0  0  0  0  0  0
  190.5730  176.4000  144.6890 C   0  0  0  0  0  2  0  0  0  0  0  0
  189.2080  177.3650  146.5450 C   0  0  0  0  0  2  0  0  0  0  0  0
  192.4810  176.1880  147.9780 O   0  0  0  0  0  1  0  0  0  0  0  0
  191.5040  176.5070  147.0440 C   0  0  0  0  0  0  0  0  0  0  0  0
  190.3480  177.0280  147.4680 C   0  0  0  0  0  3  0  0  0  0  0  0
  189.6380  177.5590  145.0820 C   0  0  2  0  0  0  0  0  0  0  0  0
  191.8140  176.3270  145.5830 C   0  0  0  0  0  2  0  0  0  0  0  0
  190.3650  178.9110  144.9550 C   0  0  0  0  0  2  0  0  0  0  0  0
  191.3380  178.9550  143.7850 C   0  0  0  0  0  1  0  0  0  0  0  0
  188.4260  175.6180  142.7740 O   0  0  0  0  0  0  0  0  0  0  0  0
  188.6020  176.8640  142.8520 C   0  0  0  0  0  0  0  0  0  0  0  0
  188.9840  177.6000  141.7300 O   0  0  0  0  0  0  0  0  0  0  0  0
  189.7420  177.0230  140.6770 C   0  0  0  0  0  1  0  0  0  0  0  0
  187.2800  177.0020  144.8250 O   0  0  0  0  0  0  0  0  0  0  0  0
  186.2100  177.8400  144.4960 C   0  0  0  0  0  2  0  0  0  0  0  0
  185.7320  178.5800  145.7320 C   0  0  0  0  0  2  0  0  0  0  0  0
  184.2480  178.8850  145.6200 C   0  0  0  0  0  2  0  0  0  0  0  0
  183.8370  179.0110  144.1620 C   0  0  0  0  0  2  0  0  0  0  0  0
  182.3510  178.7460  143.9800 C   0  0  0  0  0  2  0  0  0  0  0  0
  181.7840  179.7160  143.1530 O   0  0  0  0  0  0  0  0  0  0  0  0
  180.8430  179.0220  142.3880 C   0  0  0  0  0  2  0  0  0  0  0  0
  181.4180  178.7230  141.0160 C   0  0  0  0  0  2  0  0  0  0  0  0
  180.8900  177.5240  140.5320 O   0  0  0  0  0  0  0  0  0  0  0  0
  179.6890  177.3700  141.2230 C   0  0  0  0  0  1  0  0  0  0  0  0
  1 12  1  6  0  0  0
  1 15  1  0  0  0  0
  1  7  1  0  0  0  0
  2  7  1  0  0  0  0
  2  8  1  0  0  0  0
  3  6  1  0  0  0  0
  5  6  2  0  0  0  0
  5  4  1  0  0  0  0
  7  9  1  6  0  0  0
  7  3  1  0  0  0  0
  8  5  1  0  0  0  0
 10  9  1  0  0  0  0
 11 12  2  0  0  0  0
 13 12  1  0  0  0  0
 14 13  1  0  0  0  0
 16 15  1  0  0  0  0
 16 17  1  0  0  0  0
 18 17  1  0  0  0  0
 19 18  1  0  0  0  0
 20 19  1  0  0  0  0
 21 20  1  0  0  0  0
 22 21  1  0  0  0  0
 23 22  1  0  0  0  0
 24 23  1  0  0  0  0
 24 25  1  0  0  0  0
M  END
>  <MODEL>
5

>  <REMARK>
 VINA RESULT:      -5.9      1.648      1.880
  Name = 
  14 active torsions:
  status: ('A' for Active; 'I' for Inactive)
    1  A    between atoms: C_1  and  O_3
    2  A    between atoms: C_1  and  C_18
    3  A    between atoms: C_1  and  C_24
    4  A    between atoms: C_2  and  O_7
    5  A    between atoms: C_2  and  C_25
    6  A    between atoms: O_3  and  C_16
    7  A    between atoms: C_6  and  C_15
    8  A    between atoms: C_6  and  O_21
    9  A    between atoms: O_13  and  C_24
   10  A    between atoms: C_15  and  C_20
   11  A    between atoms: C_16  and  C_23
   12  A    between atoms: C_17  and  C_18
   13  A    between atoms: C_20  and  C_23
   14  A    between atoms: O_21  and  C_25
                            x       y       z     vdW  Elec       q    Type
                         _______ _______ _______ _____ _____    ______ ____

>  <TORSDO>
F 14

$$$$
=
 OpenBabel10262419573D

 25 25  0  0  1  0  0  0  0  0999 V2000
  189.7520  177.6060  141.5620 C   0  0  1  0  0  3  0  0  0  0  0  0
  190.1370  178.3570  143.9420 C   0  0  0  0  0  2  0  0  0  0  0  0
  191.2690  176.2980  143.0930 C   0  0  0  0  0  2  0  0  0  0  0  0
  191.9520  176.5820  146.7810 O   0  0  0  0  0  1  0  0  0  0  0  0
  191.4150  176.8480  145.5290 C   0  0  0  0  0  0  0  0  0  0  0  0
  191.7580  176.0690  144.4980 C   0  0  0  0  0  3  0  0  0  0  0  0
  189.9810  177.1340  143.0190 C   0  0  2  0  0  0  0  0  0  0  0  0
  190.4050  177.9550  145.3960 C   0  0  0  0  0  2  0  0  0  0  0  0
  188.7960  176.2600  143.4690 C   0  0  0  0  0  2  0  0  0  0  0  0
  187.8050  177.0100  144.3480 C   0  0  0  0  0  1  0  0  0  0  0  0
  191.9230  177.7920  140.5850 O   0  0  0  0  0  0  0  0  0  0  0  0
  190.8280  177.1680  140.6070 C   0  0  0  0  0  0  0  0  0  0  0  0
  190.6110  176.0780  139.7620 O   0  0  0  0  0  0  0  0  0  0  0  0
  190.6270  176.2110  138.3490 C   0  0  0  0  0  1  0  0  0  0  0  0
  188.4980  177.2010  141.0870 O   0  0  0  0  0  0  0  0  0  0  0  0
  187.9710  178.3290  140.4500 C   0  0  0  0  0  2  0  0  0  0  0  0
  187.0130  179.0490  141.3810 C   0  0  0  0  0  2  0  0  0  0  0  0
  185.8380  178.1510  141.7230 C   0  0  0  0  0  2  0  0  0  0  0  0
  184.5320  178.9260  141.6410 C   0  0  0  0  0  2  0  0  0  0  0  0
  183.6070  178.5790  142.7980 C   0  0  0  0  0  2  0  0  0  0  0  0
  183.5630  179.6300  143.7130 O   0  0  0  0  0  0  0  0  0  0  0  0
  183.5540  179.0080  144.9650 C   0  0  0  0  0  2  0  0  0  0  0  0
  184.9430  179.0620  145.5740 C   0  0  0  0  0  2  0  0  0  0  0  0
  184.9050  178.5810  146.8840 O   0  0  0  0  0  0  0  0  0  0  0  0
  186.2360  178.6010  147.3000 C   0  0  0  0  0  1  0  0  0  0  0  0
  1 12  1  6  0  0  0
  1  7  1  0  0  0  0
  2  8  1  0  0  0  0
  3  6  1  0  0  0  0
  5  4  1  0  0  0  0
  6  5  2  0  0  0  0
  7  3  1  0  0  0  0
  7  9  1  1  0  0  0
  7  2  1  0  0  0  0
  8  5  1  0  0  0  0
  9 10  1  0  0  0  0
 11 12  2  0  0  0  0
 13 12  1  0  0  0  0
 14 13  1  0  0  0  0
 15  1  1  0  0  0  0
 16 15  1  0  0  0  0
 16 17  1  0  0  0  0
 17 18  1  0  0  0  0
 19 18  1  0  0  0  0
 19 20  1  0  0  0  0
 20 21  1  0  0  0  0
 21 22  1  0  0  0  0
 22 23  1  0  0  0  0
 23 24  1  0  0  0  0
 24 25  1  0  0  0  0
M  END
>  <MODEL>
6

>  <REMARK>
 VINA RESULT:      -5.9      1.934      4.133
  Name = 
  14 active torsions:
  status: ('A' for Active; 'I' for Inactive)
    1  A    between atoms: C_1  and  O_3
    2  A    between atoms: C_1  and  C_18
    3  A    between atoms: C_1  and  C_24
    4  A    between atoms: C_2  and  O_7
    5  A    between atoms: C_2  and  C_25
    6  A    between atoms: O_3  and  C_16
    7  A    between atoms: C_6  and  C_15
    8  A    between atoms: C_6  and  O_21
    9  A    between atoms: O_13  and  C_24
   10  A    between atoms: C_15  and  C_20
   11  A    between atoms: C_16  and  C_23
   12  A    between atoms: C_17  and  C_18
   13  A    between atoms: C_20  and  C_23
   14  A    between atoms: O_21  and  C_25
                            x       y       z     vdW  Elec       q    Type
                         _______ _______ _______ _____ _____    ______ ____

>  <TORSDO>
F 14

$$$$
=
 OpenBabel10262419573D

 25 25  0  0  1  0  0  0  0  0999 V2000
  189.5440  177.7540  141.1600 C   0  0  1  0  0  3  0  0  0  0  0  0
  187.9320  177.4160  143.0750 C   0  0  0  0  0  2  0  0  0  0  0  0
  190.2060  178.3500  143.5190 C   0  0  0  0  0  2  0  0  0  0  0  0
  188.5210  177.7350  146.8240 O   0  0  0  0  0  1  0  0  0  0  0  0
  188.7470  177.7340  145.4550 C   0  0  0  0  0  0  0  0  0  0  0  0
  189.8840  178.2590  144.9860 C   0  0  0  0  0  3  0  0  0  0  0  0
  189.4120  177.3600  142.6520 C   0  0  2  0  0  0  0  0  0  0  0  0
  187.7390  177.0720  144.5550 C   0  0  0  0  0  2  0  0  0  0  0  0
  189.9850  175.9460  142.8640 C   0  0  0  0  0  2  0  0  0  0  0  0
  191.3200  175.9490  143.5940 C   0  0  0  0  0  1  0  0  0  0  0  0
  191.8700  177.6260  140.6390 O   0  0  0  0  0  0  0  0  0  0  0  0
  190.7240  177.1300  140.4710 C   0  0  0  0  0  0  0  0  0  0  0  0
  190.5460  176.0080  139.6590 O   0  0  0  0  0  0  0  0  0  0  0  0
  191.1930  175.8840  138.4010 C   0  0  0  0  0  1  0  0  0  0  0  0
  188.3690  177.4670  140.4520 O   0  0  0  0  0  0  0  0  0  0  0  0
  188.4160  178.2930  139.3250 C   0  0  0  0  0  2  0  0  0  0  0  0
  187.7140  177.6210  138.1600 C   0  0  0  0  0  2  0  0  0  0  0  0
  186.5160  178.4450  137.7220 C   0  0  0  0  0  2  0  0  0  0  0  0
  185.2380  177.9000  138.3390 C   0  0  0  0  0  2  0  0  0  0  0  0
  184.5050  178.9700  139.1340 C   0  0  0  0  0  2  0  0  0  0  0  0
  185.3080  179.4340  140.1750 O   0  0  0  0  0  0  0  0  0  0  0  0
  184.9680  178.6320  141.2680 C   0  0  0  0  0  2  0  0  0  0  0  0
  183.4600  178.4870  141.3490 C   0  0  0  0  0  2  0  0  0  0  0  0
  183.0230  178.7980  142.6370 O   0  0  0  0  0  0  0  0  0  0  0  0
  184.1520  178.6290  143.4370 C   0  0  0  0  0  1  0  0  0  0  0  0
  1 15  1  6  0  0  0
  1  7  1  0  0  0  0
  2  8  1  0  0  0  0
  3  6  1  0  0  0  0
  5  4  1  0  0  0  0
  6  5  2  0  0  0  0
  7  9  1  1  0  0  0
  7  2  1  0  0  0  0
  7  3  1  0  0  0  0
  8  5  1  0  0  0  0
  9 10  1  0  0  0  0
 12 11  2  0  0  0  0
 12  1  1  0  0  0  0
 13 12  1  0  0  0  0
 14 13  1  0  0  0  0
 16 15  1  0  0  0  0
 17 16  1  0  0  0  0
 18 17  1  0  0  0  0
 18 19  1  0  0  0  0
 19 20  1  0  0  0  0
 20 21  1  0  0  0  0
 21 22  1  0  0  0  0
 22 23  1  0  0  0  0
 23 24  1  0  0  0  0
 24 25  1  0  0  0  0
M  END
>  <MODEL>
7

>  <REMARK>
 VINA RESULT:      -5.7      2.108      4.413
  Name = 
  14 active torsions:
  status: ('A' for Active; 'I' for Inactive)
    1  A    between atoms: C_1  and  O_3
    2  A    between atoms: C_1  and  C_18
    3  A    between atoms: C_1  and  C_24
    4  A    between atoms: C_2  and  O_7
    5  A    between atoms: C_2  and  C_25
    6  A    between atoms: O_3  and  C_16
    7  A    between atoms: C_6  and  C_15
    8  A    between atoms: C_6  and  O_21
    9  A    between atoms: O_13  and  C_24
   10  A    between atoms: C_15  and  C_20
   11  A    between atoms: C_16  and  C_23
   12  A    between atoms: C_17  and  C_18
   13  A    between atoms: C_20  and  C_23
   14  A    between atoms: O_21  and  C_25
                            x       y       z     vdW  Elec       q    Type
                         _______ _______ _______ _____ _____    ______ ____

>  <TORSDO>
F 14

$$$$
=
 OpenBabel10262419573D

 25 25  0  0  1  0  0  0  0  0999 V2000
  187.4140  177.8880  141.9720 C   0  0  1  0  0  3  0  0  0  0  0  0
  187.0360  177.6800  144.4610 C   0  0  0  0  0  2  0  0  0  0  0  0
  189.2830  178.3510  143.6000 C   0  0  0  0  0  2  0  0  0  0  0  0
  189.5510  177.8410  147.3160 O   0  0  0  0  0  1  0  0  0  0  0  0
  189.0150  177.8500  146.0360 C   0  0  0  0  0  0  0  0  0  0  0  0
  189.7790  178.2590  145.0180 C   0  0  0  0  0  3  0  0  0  0  0  0
  188.0510  177.4740  143.3210 C   0  0  2  0  0  0  0  0  0  0  0  0
  187.6220  177.3220  145.8310 C   0  0  0  0  0  2  0  0  0  0  0  0
  188.4980  176.0010  143.2500 C   0  0  0  0  0  2  0  0  0  0  0  0
  189.9150  175.8350  142.7200 C   0  0  0  0  0  1  0  0  0  0  0  0
  186.0900  179.8690  142.1230 O   0  0  0  0  0  0  0  0  0  0  0  0
  186.1030  178.6080  142.1180 C   0  0  0  0  0  0  0  0  0  0  0  0
  184.9160  177.8830  142.2380 O   0  0  0  0  0  0  0  0  0  0  0  0
  183.8610  178.0110  141.2970 C   0  0  0  0  0  1  0  0  0  0  0  0
  188.3000  178.6560  141.2050 O   0  0  0  0  0  0  0  0  0  0  0  0
  188.1720  178.1620  139.9030 C   0  0  0  0  0  2  0  0  0  0  0  0
  189.4530  178.4080  139.1280 C   0  0  0  0  0  2  0  0  0  0  0  0
  190.4370  177.2760  139.3680 C   0  0  0  0  0  2  0  0  0  0  0  0
  190.9800  176.7520  138.0480 C   0  0  0  0  0  2  0  0  0  0  0  0
  190.4920  175.3380  137.7700 C   0  0  0  0  0  2  0  0  0  0  0  0
  191.5270  174.4230  137.9630 O   0  0  0  0  0  0  0  0  0  0  0  0
  192.5850  174.9210  137.1980 C   0  0  0  0  0  2  0  0  0  0  0  0
  193.8880  174.2890  137.6520 C   0  0  0  0  0  2  0  0  0  0  0  0
  194.6940  175.2520  138.2620 O   0  0  0  0  0  0  0  0  0  0  0  0
  195.5250  174.5210  139.1110 C   0  0  0  0  0  1  0  0  0  0  0  0
  1 15  1  1  0  0  0
  1 12  1  0  0  0  0
  1  7  1  0  0  0  0
  2  8  1  0  0  0  0
  3  6  1  0  0  0  0
  5  4  1  0  0  0  0
  6  5  2  0  0  0  0
  7  9  1  6  0  0  0
  7  3  1  0  0  0  0
  7  2  1  0  0  0  0
  8  5  1  0  0  0  0
 10  9  1  0  0  0  0
 12 11  2  0  0  0  0
 12 13  1  0  0  0  0
 14 13  1  0  0  0  0
 16 15  1  0  0  0  0
 17 18  1  0  0  0  0
 17 16  1  0  0  0  0
 19 18  1  0  0  0  0
 20 21  1  0  0  0  0
 20 19  1  0  0  0  0
 22 23  1  0  0  0  0
 22 21  1  0  0  0  0
 23 24  1  0  0  0  0
 24 25  1  0  0  0  0
M  END
>  <MODEL>
8

>  <REMARK>
 VINA RESULT:      -5.6      3.789      6.764
  Name = 
  14 active torsions:
  status: ('A' for Active; 'I' for Inactive)
    1  A    between atoms: C_1  and  O_3
    2  A    between atoms: C_1  and  C_18
    3  A    between atoms: C_1  and  C_24
    4  A    between atoms: C_2  and  O_7
    5  A    between atoms: C_2  and  C_25
    6  A    between atoms: O_3  and  C_16
    7  A    between atoms: C_6  and  C_15
    8  A    between atoms: C_6  and  O_21
    9  A    between atoms: O_13  and  C_24
   10  A    between atoms: C_15  and  C_20
   11  A    between atoms: C_16  and  C_23
   12  A    between atoms: C_17  and  C_18
   13  A    between atoms: C_20  and  C_23
   14  A    between atoms: O_21  and  C_25
                            x       y       z     vdW  Elec       q    Type
                         _______ _______ _______ _____ _____    ______ ____

>  <TORSDO>
F 14

$$$$
=
 OpenBabel10262419573D

 25 25  0  0  1  0  0  0  0  0999 V2000
  188.2080  178.4380  141.5360 C   0  0  1  0  0  3  0  0  0  0  0  0
  188.6260  177.1640  143.6770 C   0  0  0  0  0  2  0  0  0  0  0  0
  190.2590  178.9000  142.9270 C   0  0  0  0  0  2  0  0  0  0  0  0
  191.7040  177.1410  145.9200 O   0  0  0  0  0  1  0  0  0  0  0  0
  190.8450  177.4410  144.8720 C   0  0  0  0  0  0  0  0  0  0  0  0
  191.1430  178.4630  144.0630 C   0  0  0  0  0  3  0  0  0  0  0  0
  189.2910  177.8080  142.4450 C   0  0  2  0  0  0  0  0  0  0  0  0
  189.6520  176.5550  144.6370 C   0  0  0  0  0  2  0  0  0  0  0  0
  190.0870  176.7580  141.6460 C   0  0  0  0  0  2  0  0  0  0  0  0
  191.4590  177.2560  141.2140 C   0  0  0  0  0  1  0  0  0  0  0  0
  189.0250  179.1750  139.4180 O   0  0  0  0  0  0  0  0  0  0  0  0
  188.4650  178.2520  140.0680 C   0  0  0  0  0  0  0  0  0  0  0  0
  188.0910  177.0630  139.4370 O   0  0  0  0  0  0  0  0  0  0  0  0
  188.0830  176.9350  138.0240 C   0  0  0  0  0  1  0  0  0  0  0  0
  186.9300  177.9630  141.8620 O   0  0  0  0  0  0  0  0  0  0  0  0
  186.0550  178.9820  141.4740 C   0  0  0  0  0  2  0  0  0  0  0  0
  184.6930  178.7640  142.1060 C   0  0  0  0  0  2  0  0  0  0  0  0
  184.5860  179.5440  143.4050 C   0  0  0  0  0  2  0  0  0  0  0  0
  183.7920  178.7580  144.4360 C   0  0  0  0  0  2  0  0  0  0  0  0
  184.5580  178.6260  145.7430 C   0  0  0  0  0  2  0  0  0  0  0  0
  185.9260  178.5150  145.4920 O   0  0  0  0  0  0  0  0  0  0  0  0
  186.3890  177.6130  146.4540 C   0  0  0  0  0  2  0  0  0  0  0  0
  187.1870  178.3550  147.5110 C   0  0  0  0  0  2  0  0  0  0  0  0
  187.9240  177.4460  148.2730 O   0  0  0  0  0  0  0  0  0  0  0  0
  189.2130  177.9760  148.2940 C   0  0  0  0  0  1  0  0  0  0  0  0
  1 12  1  6  0  0  0
  1 15  1  0  0  0  0
  1  7  1  0  0  0  0
  2  8  1  0  0  0  0
  3  6  1  0  0  0  0
  5  4  1  0  0  0  0
  6  5  2  0  0  0  0
  7  9  1  6  0  0  0
  7  3  1  0  0  0  0
  7  2  1  0  0  0  0
  8  5  1  0  0  0  0
 10  9  1  0  0  0  0
 11 12  2  0  0  0  0
 13 12  1  0  0  0  0
 14 13  1  0  0  0  0
 16 15  1  0  0  0  0
 16 17  1  0  0  0  0
 17 18  1  0  0  0  0
 18 19  1  0  0  0  0
 19 20  1  0  0  0  0
 21 20  1  0  0  0  0
 21 22  1  0  0  0  0
 22 23  1  0  0  0  0
 23 24  1  0  0  0  0
 24 25  1  0  0  0  0
M  END
>  <MODEL>
9

>  <REMARK>
 VINA RESULT:      -5.5      1.946      4.633
  Name = 
  14 active torsions:
  status: ('A' for Active; 'I' for Inactive)
    1  A    between atoms: C_1  and  O_3
    2  A    between atoms: C_1  and  C_18
    3  A    between atoms: C_1  and  C_24
    4  A    between atoms: C_2  and  O_7
    5  A    between atoms: C_2  and  C_25
    6  A    between atoms: O_3  and  C_16
    7  A    between atoms: C_6  and  C_15
    8  A    between atoms: C_6  and  O_21
    9  A    between atoms: O_13  and  C_24
   10  A    between atoms: C_15  and  C_20
   11  A    between atoms: C_16  and  C_23
   12  A    between atoms: C_17  and  C_18
   13  A    between atoms: C_20  and  C_23
   14  A    between atoms: O_21  and  C_25
                            x       y       z     vdW  Elec       q    Type
                         _______ _______ _______ _____ _____    ______ ____

>  <TORSDO>
F 14

$$$$
