=
 OpenBabel10262423153D

 34 37  0  0  1  0  0  0  0  0999 V2000
  189.5960  176.0970  142.2710 C   0  0  1  0  0  3  0  0  0  0  0  0
  190.8420  176.1090  139.4010 N   0  0  0  0  0  1  0  0  0  0  0  0
  187.5900  178.3490  142.3660 C   0  0  0  0  0  2  0  0  0  0  0  0
  188.4660  176.1610  143.3060 C   0  0  0  0  0  2  0  0  0  0  0  0
  188.4520  178.0600  141.2240 N   0  0  0  0  0  0  0  0  0  0  0  0
  188.4580  178.7140  140.0460 C   0  0  0  0  0  3  0  0  0  0  0  0
  188.0850  177.6150  143.6200 C   0  0  2  0  0  3  0  0  0  0  0  0
  189.8730  177.0320  139.8850 C   0  0  0  0  0  0  0  0  0  0  0  0
  189.2920  177.0180  141.1260 C   0  0  0  0  0  0  0  0  0  0  0  0
  189.3520  178.0980  139.1730 C   0  0  0  0  0  3  0  0  0  0  0  0
  187.0800  177.7080  144.7710 C   0  0  0  0  0  2  0  0  0  0  0  0
  183.5520  179.1160  144.8480 C   0  0  0  0  0  3  0  0  0  0  0  0
  185.3020  177.9170  143.0130 C   0  0  0  0  0  3  0  0  0  0  0  0
  181.4560  179.0790  141.8550 C   0  0  0  0  0  0  0  0  0  0  0  0
  181.8940  179.2730  143.1330 N   0  0  0  0  0  0  0  0  0  0  0  0
  183.1400  178.9040  143.5290 C   0  0  0  0  0  0  0  0  0  0  0  0
  183.6000  178.0980  141.2960 C   0  0  0  0  0  3  0  0  0  0  0  0
  184.0220  178.3020  142.6080 C   0  0  0  0  0  0  0  0  0  0  0  0
  182.3150  178.4870  140.9150 C   0  0  0  0  0  3  0  0  0  0  0  0
  185.7110  178.1310  144.3350 C   0  0  0  0  0  0  0  0  0  0  0  0
  184.8350  178.7290  145.2500 C   0  0  0  0  0  3  0  0  0  0  0  0
  180.1260  179.4790  141.4820 N   0  0  0  0  0  0  0  0  0  0  0  0
  179.4200  180.5310  142.1990 C   0  0  0  0  0  1  0  0  0  0  0  0
  179.4390  178.8260  140.3790 C   0  0  0  0  0  1  0  0  0  0  0  0
  190.8030  176.4710  142.8690 O   0  0  0  0  0  0  0  0  0  0  0  0
  191.2220  175.3410  143.5710 C   0  0  0  0  0  2  0  0  0  0  0  0
  192.0300  175.7690  144.7820 C   0  0  0  0  0  2  0  0  0  0  0  0
  191.4530  177.0410  145.3850 C   0  0  0  0  0  2  0  0  0  0  0  0
  191.2850  176.9110  146.8930 C   0  0  2  0  0  3  0  0  0  0  0  0
  192.0670  175.7260  147.4340 C   0  0  0  0  0  1  0  0  0  0  0  0
  189.8110  176.7820  147.2600 C   0  0  0  0  0  2  0  0  0  0  0  0
  189.2480  178.0350  147.5250 O   0  0  0  0  0  0  0  0  0  0  0  0
  187.0540  178.6120  148.2280 C   0  0  0  0  0  1  0  0  0  0  0  0
  188.2950  177.7930  148.5140 C   0  0  0  0  0  2  0  0  0  0  0  0
  1 25  1  1  0  0  0
  1  4  1  0  0  0  0
  2  8  1  0  0  0  0
  3  7  1  0  0  0  0
  4  7  1  0  0  0  0
  5  3  1  0  0  0  0
  6  5  1  0  0  0  0
  7 11  1  1  0  0  0
  8  9  2  0  0  0  0
  9  5  1  0  0  0  0
  9  1  1  0  0  0  0
 10  8  1  0  0  0  0
 10  6  2  0  0  0  0
 12 21  1  0  0  0  0
 13 20  1  0  0  0  0
 14 15  2  0  0  0  0
 15 16  1  0  0  0  0
 16 12  2  0  0  0  0
 17 18  1  0  0  0  0
 18 13  2  0  0  0  0
 18 16  1  0  0  0  0
 19 17  2  0  0  0  0
 19 14  1  0  0  0  0
 20 11  1  0  0  0  0
 20 21  2  0  0  0  0
 22 14  1  0  0  0  0
 22 23  1  0  0  0  0
 24 22  1  0  0  0  0
 25 26  1  0  0  0  0
 26 27  1  0  0  0  0
 27 28  1  0  0  0  0
 28 29  1  0  0  0  0
 29 31  1  0  0  0  0
 29 30  1  6  0  0  0
 31 32  1  0  0  0  0
 32 34  1  0  0  0  0
 33 34  1  0  0  0  0
M  END
>  <MODEL>
1

>  <REMARK>
 VINA RESULT:      -8.6      0.000      0.000
  Name = 
  11 active torsions:
  status: ('A' for Active; 'I' for Inactive)
    1  A    between atoms: C_1  and  O_34
    2  A    between atoms: C_2  and  C_23
    3  A    between atoms: C_2  and  C_32
    4  A    between atoms: O_3  and  C_24
    5  A    between atoms: O_3  and  C_27
    6  A    between atoms: C_7  and  N_11
    7  A    between atoms: C_17  and  C_18
    8  A    between atoms: C_18  and  C_30
    9  A    between atoms: C_23  and  C_25
   10  A    between atoms: C_25  and  C_27
   11  A    between atoms: C_32  and  O_34
                            x       y       z     vdW  Elec       q    Type
                         _______ _______ _______ _____ _____    ______ ____

>  <TORSDO>
F 11

$$$$
=
 OpenBabel10262423153D

 34 37  0  0  1  0  0  0  0  0999 V2000
  183.2040  178.4470  140.7970 C   0  0  1  0  0  3  0  0  0  0  0  0
  181.4400  178.7310  138.2290 N   0  0  0  0  0  1  0  0  0  0  0  0
  181.5030  179.3240  143.1310 C   0  0  0  0  0  2  0  0  0  0  0  0
  183.5120  178.0500  142.2460 C   0  0  0  0  0  2  0  0  0  0  0  0
  181.0790  179.3780  141.7340 N   0  0  0  0  0  0  0  0  0  0  0  0
  179.8750  179.7810  141.2840 C   0  0  0  0  0  3  0  0  0  0  0  0
  183.0220  179.1220  143.2300 C   0  0  2  0  0  3  0  0  0  0  0  0
  181.0360  179.0720  139.5500 C   0  0  0  0  0  0  0  0  0  0  0  0
  181.7840  178.9200  140.6890 C   0  0  0  0  0  0  0  0  0  0  0  0
  179.8120  179.6100  139.9030 C   0  0  0  0  0  3  0  0  0  0  0  0
  183.4670  178.8300  144.6650 C   0  0  0  0  0  2  0  0  0  0  0  0
  186.9860  177.7500  143.7220 C   0  0  0  0  0  3  0  0  0  0  0  0
  185.5150  178.3530  146.0330 C   0  0  0  0  0  3  0  0  0  0  0  0
  189.5270  177.2030  146.2910 C   0  0  0  0  0  0  0  0  0  0  0  0
  188.8990  177.2960  145.0830 N   0  0  0  0  0  0  0  0  0  0  0  0
  187.5960  177.6700  144.9770 C   0  0  0  0  0  0  0  0  0  0  0  0
  187.4760  177.8920  147.3820 C   0  0  0  0  0  3  0  0  0  0  0  0
  186.8550  177.9740  146.1380 C   0  0  0  0  0  0  0  0  0  0  0  0
  188.8150  177.5070  147.4630 C   0  0  0  0  0  3  0  0  0  0  0  0
  184.9060  178.4330  144.7740 C   0  0  0  0  0  0  0  0  0  0  0  0
  185.6430  178.1310  143.6220 C   0  0  0  0  0  3  0  0  0  0  0  0
  190.9050  176.7970  146.3560 N   0  0  0  0  0  0  0  0  0  0  0  0
  191.5790  176.5950  147.6300 C   0  0  0  0  0  1  0  0  0  0  0  0
  191.6730  176.5920  145.1380 C   0  0  0  0  0  1  0  0  0  0  0  0
  184.0720  179.4660  140.3950 O   0  0  0  0  0  0  0  0  0  0  0  0
  185.1870  178.8070  139.8780 C   0  0  0  0  0  2  0  0  0  0  0  0
  184.9820  178.5500  138.3970 C   0  0  0  0  0  2  0  0  0  0  0  0
  186.0880  177.6600  137.8520 C   0  0  0  0  0  2  0  0  0  0  0  0
  187.0380  178.4430  136.9550 C   0  0  2  0  0  3  0  0  0  0  0  0
  186.8890  178.0280  135.5010 C   0  0  0  0  0  1  0  0  0  0  0  0
  188.4810  178.2610  137.4110 C   0  0  0  0  0  2  0  0  0  0  0  0
  188.7540  179.0410  138.5380 O   0  0  0  0  0  0  0  0  0  0  0  0
  188.7100  177.6390  140.4550 C   0  0  0  0  0  1  0  0  0  0  0  0
  189.5530  178.2310  139.3450 C   0  0  0  0  0  2  0  0  0  0  0  0
  1 25  1  1  0  0  0
  1  4  1  0  0  0  0
  2  8  1  0  0  0  0
  3  7  1  0  0  0  0
  4  7  1  0  0  0  0
  5  3  1  0  0  0  0
  6  5  1  0  0  0  0
  7 11  1  1  0  0  0
  8 10  1  0  0  0  0
  8  9  2  0  0  0  0
  9  1  1  0  0  0  0
  9  5  1  0  0  0  0
 10  6  2  0  0  0  0
 11 20  1  0  0  0  0
 12 16  1  0  0  0  0
 13 18  1  0  0  0  0
 14 22  1  0  0  0  0
 14 19  1  0  0  0  0
 15 14  2  0  0  0  0
 16 15  1  0  0  0  0
 16 18  2  0  0  0  0
 17 19  2  0  0  0  0
 18 17  1  0  0  0  0
 20 13  2  0  0  0  0
 21 12  2  0  0  0  0
 21 20  1  0  0  0  0
 22 23  1  0  0  0  0
 24 22  1  0  0  0  0
 26 25  1  0  0  0  0
 27 26  1  0  0  0  0
 28 27  1  0  0  0  0
 29 30  1  6  0  0  0
 29 31  1  0  0  0  0
 29 28  1  0  0  0  0
 31 32  1  0  0  0  0
 32 34  1  0  0  0  0
 34 33  1  0  0  0  0
M  END
>  <MODEL>
2

>  <REMARK>
 VINA RESULT:      -8.5      2.632      8.456
  Name = 
  11 active torsions:
  status: ('A' for Active; 'I' for Inactive)
    1  A    between atoms: C_1  and  O_34
    2  A    between atoms: C_2  and  C_23
    3  A    between atoms: C_2  and  C_32
    4  A    between atoms: O_3  and  C_24
    5  A    between atoms: O_3  and  C_27
    6  A    between atoms: C_7  and  N_11
    7  A    between atoms: C_17  and  C_18
    8  A    between atoms: C_18  and  C_30
    9  A    between atoms: C_23  and  C_25
   10  A    between atoms: C_25  and  C_27
   11  A    between atoms: C_32  and  O_34
                            x       y       z     vdW  Elec       q    Type
                         _______ _______ _______ _____ _____    ______ ____

>  <TORSDO>
F 11

$$$$
=
 OpenBabel10262423153D

 34 37  0  0  1  0  0  0  0  0999 V2000
  189.0050  177.5040  144.3560 C   0  0  1  0  0  3  0  0  0  0  0  0
  191.9700  176.5050  144.4140 N   0  0  0  0  0  1  0  0  0  0  0  0
  188.0840  177.6820  147.2250 C   0  0  0  0  0  2  0  0  0  0  0  0
  187.8080  178.3560  144.7940 C   0  0  0  0  0  2  0  0  0  0  0  0
  189.3900  177.1790  146.8070 N   0  0  0  0  0  0  0  0  0  0  0  0
  190.3790  176.7640  147.6220 C   0  0  0  0  0  3  0  0  0  0  0  0
  187.1220  177.7560  146.0290 C   0  0  2  0  0  3  0  0  0  0  0  0
  191.1400  176.6950  145.5550 C   0  0  0  0  0  0  0  0  0  0  0  0
  189.8530  177.1660  145.5480 C   0  0  0  0  0  0  0  0  0  0  0  0
  191.5030  176.4400  146.8650 C   0  0  0  0  0  3  0  0  0  0  0  0
  185.8280  178.4910  146.3820 C   0  0  0  0  0  2  0  0  0  0  0  0
  182.6130  178.9360  144.4060 C   0  0  0  0  0  3  0  0  0  0  0  0
  185.3290  178.4290  143.9230 C   0  0  0  0  0  3  0  0  0  0  0  0
  182.6080  178.6910  140.7600 C   0  0  0  0  0  0  0  0  0  0  0  0
  182.2010  178.8500  142.0520 N   0  0  0  0  0  0  0  0  0  0  0  0
  183.0690  178.7710  143.0940 C   0  0  0  0  0  0  0  0  0  0  0  0
  184.8770  178.3550  141.5430 C   0  0  0  0  0  3  0  0  0  0  0  0
  184.4350  178.5170  142.8550 C   0  0  0  0  0  0  0  0  0  0  0  0
  183.9640  178.4430  140.4910 C   0  0  0  0  0  3  0  0  0  0  0  0
  184.8700  178.5960  145.2360 C   0  0  0  0  0  0  0  0  0  0  0  0
  183.5130  178.8480  145.4740 C   0  0  0  0  0  3  0  0  0  0  0  0
  181.6520  178.7760  139.6880 N   0  0  0  0  0  0  0  0  0  0  0  0
  181.8300  178.0310  138.4500 C   0  0  0  0  0  1  0  0  0  0  0  0
  180.4810  179.6290  139.8090 C   0  0  0  0  0  1  0  0  0  0  0  0
  188.5510  176.3290  143.7530 O   0  0  0  0  0  0  0  0  0  0  0  0
  188.1250  176.7170  142.4820 C   0  0  0  0  0  2  0  0  0  0  0  0
  189.2950  177.3060  141.7150 C   0  0  0  0  0  2  0  0  0  0  0  0
  188.8320  177.8520  140.3740 C   0  0  0  0  0  2  0  0  0  0  0  0
  189.5810  177.1980  139.2210 C   0  0  2  0  0  3  0  0  0  0  0  0
  191.0460  176.9850  139.5670 C   0  0  0  0  0  1  0  0  0  0  0  0
  189.4550  178.0340  137.9540 C   0  0  0  0  0  2  0  0  0  0  0  0
  188.3600  178.9010  138.0310 O   0  0  0  0  0  0  0  0  0  0  0  0
  186.1910  178.0690  137.5360 C   0  0  0  0  0  1  0  0  0  0  0  0
  187.5270  178.5160  136.9810 C   0  0  0  0  0  2  0  0  0  0  0  0
  1 25  1  1  0  0  0
  1  4  1  0  0  0  0
  1  9  1  0  0  0  0
  2  8  1  0  0  0  0
  4  7  1  0  0  0  0
  5  3  1  0  0  0  0
  5  6  1  0  0  0  0
  7 11  1  1  0  0  0
  7  3  1  0  0  0  0
  8 10  1  0  0  0  0
  9  8  2  0  0  0  0
  9  5  1  0  0  0  0
 10  6  2  0  0  0  0
 12 21  1  0  0  0  0
 13 20  1  0  0  0  0
 14 15  2  0  0  0  0
 15 16  1  0  0  0  0
 16 12  2  0  0  0  0
 17 18  1  0  0  0  0
 18 16  1  0  0  0  0
 18 13  2  0  0  0  0
 19 14  1  0  0  0  0
 19 17  2  0  0  0  0
 20 21  2  0  0  0  0
 20 11  1  0  0  0  0
 22 24  1  0  0  0  0
 22 14  1  0  0  0  0
 23 22  1  0  0  0  0
 26 25  1  0  0  0  0
 27 26  1  0  0  0  0
 28 27  1  0  0  0  0
 29 30  1  1  0  0  0
 29 28  1  0  0  0  0
 31 32  1  0  0  0  0
 31 29  1  0  0  0  0
 34 33  1  0  0  0  0
 34 32  1  0  0  0  0
M  END
>  <MODEL>
3

>  <REMARK>
 VINA RESULT:      -8.5      2.156      5.341
  Name = 
  11 active torsions:
  status: ('A' for Active; 'I' for Inactive)
    1  A    between atoms: C_1  and  O_34
    2  A    between atoms: C_2  and  C_23
    3  A    between atoms: C_2  and  C_32
    4  A    between atoms: O_3  and  C_24
    5  A    between atoms: O_3  and  C_27
    6  A    between atoms: C_7  and  N_11
    7  A    between atoms: C_17  and  C_18
    8  A    between atoms: C_18  and  C_30
    9  A    between atoms: C_23  and  C_25
   10  A    between atoms: C_25  and  C_27
   11  A    between atoms: C_32  and  O_34
                            x       y       z     vdW  Elec       q    Type
                         _______ _______ _______ _____ _____    ______ ____

>  <TORSDO>
F 11

$$$$
=
 OpenBabel10262423153D

 34 37  0  0  1  0  0  0  0  0999 V2000
  185.3010  178.9310  142.8480 C   0  0  1  0  0  3  0  0  0  0  0  0
  183.7590  179.0210  145.5690 N   0  0  0  0  0  1  0  0  0  0  0  0
  183.2210  178.7780  140.6660 C   0  0  0  0  0  2  0  0  0  0  0  0
  185.5920  179.3150  141.3920 C   0  0  0  0  0  2  0  0  0  0  0  0
  182.9210  178.7590  142.0950 N   0  0  0  0  0  0  0  0  0  0  0  0
  181.6930  178.7110  142.6490 C   0  0  0  0  0  3  0  0  0  0  0  0
  184.7140  178.5140  140.4210 C   0  0  2  0  0  3  0  0  0  0  0  0
  183.1590  178.9110  144.2830 C   0  0  0  0  0  0  0  0  0  0  0  0
  183.8180  178.9070  143.0810 C   0  0  0  0  0  0  0  0  0  0  0  0
  181.8030  178.7970  144.0350 C   0  0  0  0  0  3  0  0  0  0  0  0
  185.1050  178.7560  138.9620 C   0  0  0  0  0  2  0  0  0  0  0  0
  187.4950  176.5580  136.9890 C   0  0  0  0  0  3  0  0  0  0  0  0
  187.4970  178.0960  139.3340 C   0  0  0  0  0  3  0  0  0  0  0  0
  190.9140  175.9980  138.1500 C   0  0  0  0  0  0  0  0  0  0  0  0
  189.7700  175.9540  137.4080 N   0  0  0  0  0  0  0  0  0  0  0  0
  188.6490  176.6300  137.7740 C   0  0  0  0  0  0  0  0  0  0  0  0
  189.8060  177.4690  139.7250 C   0  0  0  0  0  3  0  0  0  0  0  0
  188.6480  177.4050  138.9520 C   0  0  0  0  0  0  0  0  0  0  0  0
  190.9430  176.7660  139.3250 C   0  0  0  0  0  3  0  0  0  0  0  0
  186.3410  178.0220  138.5450 C   0  0  0  0  0  0  0  0  0  0  0  0
  186.3430  177.2520  137.3750 C   0  0  0  0  0  3  0  0  0  0  0  0
  192.0740  175.2610  137.7280 N   0  0  0  0  0  0  0  0  0  0  0  0
  191.9560  173.9540  137.0970 C   0  0  0  0  0  1  0  0  0  0  0  0
  193.4090  175.7990  137.9360 C   0  0  0  0  0  1  0  0  0  0  0  0
  185.8410  177.6710  143.1190 O   0  0  0  0  0  0  0  0  0  0  0  0
  187.2220  177.8470  143.0410 C   0  0  0  0  0  2  0  0  0  0  0  0
  187.9150  176.5130  143.2470 C   0  0  0  0  0  2  0  0  0  0  0  0
  189.4190  176.7040  143.3540 C   0  0  0  0  0  2  0  0  0  0  0  0
  189.7690  177.8090  144.3420 C   0  0  2  0  0  3  0  0  0  0  0  0
  190.8990  178.6780  143.8160 C   0  0  0  0  0  1  0  0  0  0  0  0
  190.1430  177.2210  145.6970 C   0  0  0  0  0  2  0  0  0  0  0  0
  189.0170  177.0960  146.5180 O   0  0  0  0  0  0  0  0  0  0  0  0
  188.3130  178.1560  148.5230 C   0  0  0  0  0  1  0  0  0  0  0  0
  189.4550  177.4930  147.7810 C   0  0  0  0  0  2  0  0  0  0  0  0
  1  9  1  0  0  0  0
  1 25  1  6  0  0  0
  3  5  1  0  0  0  0
  4  1  1  0  0  0  0
  5  6  1  0  0  0  0
  5  9  1  0  0  0  0
  6 10  2  0  0  0  0
  7 11  1  6  0  0  0
  7  3  1  0  0  0  0
  7  4  1  0  0  0  0
  8  2  1  0  0  0  0
  9  8  2  0  0  0  0
 10  8  1  0  0  0  0
 12 21  2  0  0  0  0
 12 16  1  0  0  0  0
 14 19  1  0  0  0  0
 15 16  1  0  0  0  0
 15 14  2  0  0  0  0
 16 18  2  0  0  0  0
 18 13  1  0  0  0  0
 18 17  1  0  0  0  0
 19 17  2  0  0  0  0
 20 11  1  0  0  0  0
 20 13  2  0  0  0  0
 21 20  1  0  0  0  0
 22 24  1  0  0  0  0
 22 14  1  0  0  0  0
 23 22  1  0  0  0  0
 26 25  1  0  0  0  0
 26 27  1  0  0  0  0
 27 28  1  0  0  0  0
 28 29  1  0  0  0  0
 29 30  1  6  0  0  0
 29 31  1  0  0  0  0
 31 32  1  0  0  0  0
 32 34  1  0  0  0  0
 34 33  1  0  0  0  0
M  END
>  <MODEL>
4

>  <REMARK>
 VINA RESULT:      -8.5      2.236      7.428
  Name = 
  11 active torsions:
  status: ('A' for Active; 'I' for Inactive)
    1  A    between atoms: C_1  and  O_34
    2  A    between atoms: C_2  and  C_23
    3  A    between atoms: C_2  and  C_32
    4  A    between atoms: O_3  and  C_24
    5  A    between atoms: O_3  and  C_27
    6  A    between atoms: C_7  and  N_11
    7  A    between atoms: C_17  and  C_18
    8  A    between atoms: C_18  and  C_30
    9  A    between atoms: C_23  and  C_25
   10  A    between atoms: C_25  and  C_27
   11  A    between atoms: C_32  and  O_34
                            x       y       z     vdW  Elec       q    Type
                         _______ _______ _______ _____ _____    ______ ____

>  <TORSDO>
F 11

$$$$
=
 OpenBabel10262423153D

 34 37  0  0  1  0  0  0  0  0999 V2000
  184.0980  178.2770  141.3250 C   0  0  1  0  0  3  0  0  0  0  0  0
  182.9020  178.2230  138.4340 N   0  0  0  0  0  1  0  0  0  0  0  0
  181.8960  179.2090  143.1670 C   0  0  0  0  0  2  0  0  0  0  0  0
  184.1140  178.0220  142.8370 C   0  0  0  0  0  2  0  0  0  0  0  0
  181.7750  179.1200  141.7150 N   0  0  0  0  0  0  0  0  0  0  0  0
  180.6720  179.3950  140.9910 C   0  0  0  0  0  3  0  0  0  0  0  0
  183.3690  179.1300  143.5950 C   0  0  2  0  0  3  0  0  0  0  0  0
  182.2100  178.6380  139.6070 C   0  0  0  0  0  0  0  0  0  0  0  0
  182.7080  178.6330  140.8840 C   0  0  0  0  0  0  0  0  0  0  0  0
  180.9110  179.1100  139.6480 C   0  0  0  0  0  3  0  0  0  0  0  0
  183.5170  178.9870  145.1110 C   0  0  0  0  0  2  0  0  0  0  0  0
  186.5520  178.3010  147.2910 C   0  0  0  0  0  3  0  0  0  0  0  0
  185.8130  178.1180  144.5920 C   0  0  0  0  0  3  0  0  0  0  0  0
  189.6540  177.0310  145.8360 C   0  0  0  0  0  0  0  0  0  0  0  0
  188.7270  177.4830  146.7300 N   0  0  0  0  0  0  0  0  0  0  0  0
  187.4730  177.8400  146.3470 C   0  0  0  0  0  0  0  0  0  0  0  0
  188.0260  177.2850  144.0590 C   0  0  0  0  0  3  0  0  0  0  0  0
  187.0990  177.7480  144.9900 C   0  0  0  0  0  0  0  0  0  0  0  0
  189.3070  176.9240  144.4790 C   0  0  0  0  0  3  0  0  0  0  0  0
  184.8920  178.5800  145.5410 C   0  0  0  0  0  0  0  0  0  0  0  0
  185.2640  178.6710  146.8890 C   0  0  0  0  0  3  0  0  0  0  0  0
  190.9720  176.6720  146.2860 N   0  0  0  0  0  0  0  0  0  0  0  0
  191.3960  176.9060  147.6590 C   0  0  0  0  0  1  0  0  0  0  0  0
  191.9300  176.0740  145.3690 C   0  0  0  0  0  1  0  0  0  0  0  0
  184.9720  179.3230  141.0150 O   0  0  0  0  0  0  0  0  0  0  0  0
  185.9930  178.7290  140.2710 C   0  0  0  0  0  2  0  0  0  0  0  0
  187.2480  178.6390  141.1180 C   0  0  0  0  0  2  0  0  0  0  0  0
  188.4840  178.5670  140.2340 C   0  0  0  0  0  2  0  0  0  0  0  0
  188.9900  177.1370  140.1030 C   0  0  2  0  0  3  0  0  0  0  0  0
  190.2460  176.9210  140.9320 C   0  0  0  0  0  1  0  0  0  0  0  0
  189.2550  176.7910  138.6430 C   0  0  0  0  0  2  0  0  0  0  0  0
  188.0680  176.7860  137.9050 O   0  0  0  0  0  0  0  0  0  0  0  0
  187.2960  178.6090  136.5920 C   0  0  0  0  0  1  0  0  0  0  0  0
  188.3550  177.5400  136.7670 C   0  0  0  0  0  2  0  0  0  0  0  0
  1 25  1  1  0  0  0
  1  4  1  0  0  0  0
  2  8  1  0  0  0  0
  3  7  1  0  0  0  0
  4  7  1  0  0  0  0
  5  3  1  0  0  0  0
  6  5  1  0  0  0  0
  7 11  1  1  0  0  0
  8 10  1  0  0  0  0
  8  9  2  0  0  0  0
  9  1  1  0  0  0  0
  9  5  1  0  0  0  0
 10  6  2  0  0  0  0
 11 20  1  0  0  0  0
 13 18  2  0  0  0  0
 13 20  1  0  0  0  0
 14 22  1  0  0  0  0
 14 15  2  0  0  0  0
 16 15  1  0  0  0  0
 16 12  2  0  0  0  0
 17 19  2  0  0  0  0
 17 18  1  0  0  0  0
 18 16  1  0  0  0  0
 19 14  1  0  0  0  0
 20 21  2  0  0  0  0
 21 12  1  0  0  0  0
 22 23  1  0  0  0  0
 24 22  1  0  0  0  0
 26 25  1  0  0  0  0
 26 27  1  0  0  0  0
 28 27  1  0  0  0  0
 29 28  1  0  0  0  0
 29 30  1  1  0  0  0
 31 29  1  0  0  0  0
 32 31  1  0  0  0  0
 33 34  1  0  0  0  0
 34 32  1  0  0  0  0
M  END
>  <MODEL>
5

>  <REMARK>
 VINA RESULT:      -8.5      2.519      7.745
  Name = 
  11 active torsions:
  status: ('A' for Active; 'I' for Inactive)
    1  A    between atoms: C_1  and  O_34
    2  A    between atoms: C_2  and  C_23
    3  A    between atoms: C_2  and  C_32
    4  A    between atoms: O_3  and  C_24
    5  A    between atoms: O_3  and  C_27
    6  A    between atoms: C_7  and  N_11
    7  A    between atoms: C_17  and  C_18
    8  A    between atoms: C_18  and  C_30
    9  A    between atoms: C_23  and  C_25
   10  A    between atoms: C_25  and  C_27
   11  A    between atoms: C_32  and  O_34
                            x       y       z     vdW  Elec       q    Type
                         _______ _______ _______ _____ _____    ______ ____

>  <TORSDO>
F 11

$$$$
=
 OpenBabel10262423153D

 34 37  0  0  1  0  0  0  0  0999 V2000
  183.2170  178.4080  141.0880 C   0  0  1  0  0  3  0  0  0  0  0  0
  181.5630  178.5640  138.4370 N   0  0  0  0  0  1  0  0  0  0  0  0
  181.4070  179.3610  143.3080 C   0  0  0  0  0  2  0  0  0  0  0  0
  183.4650  178.0760  142.5650 C   0  0  0  0  0  2  0  0  0  0  0  0
  181.0440  179.3520  141.8940 N   0  0  0  0  0  0  0  0  0  0  0  0
  179.8560  179.7210  141.3750 C   0  0  0  0  0  3  0  0  0  0  0  0
  182.9220  179.1820  143.4810 C   0  0  2  0  0  3  0  0  0  0  0  0
  181.0980  178.9550  139.7240 C   0  0  0  0  0  0  0  0  0  0  0  0
  181.7980  178.8590  140.8990 C   0  0  0  0  0  0  0  0  0  0  0  0
  179.8540  179.4920  140.0010 C   0  0  0  0  0  3  0  0  0  0  0  0
  183.3070  178.9540  144.9440 C   0  0  0  0  0  2  0  0  0  0  0  0
  186.6350  178.1230  146.5790 C   0  0  0  0  0  3  0  0  0  0  0  0
  185.4960  178.1520  144.0160 C   0  0  0  0  0  3  0  0  0  0  0  0
  189.4780  177.0030  144.5740 C   0  0  0  0  0  0  0  0  0  0  0  0
  188.6980  177.3730  145.6310 N   0  0  0  0  0  0  0  0  0  0  0  0
  187.4020  177.7470  145.4720 C   0  0  0  0  0  0  0  0  0  0  0  0
  187.6010  177.3840  143.0890 C   0  0  0  0  0  3  0  0  0  0  0  0
  186.8260  177.7620  144.1840 C   0  0  0  0  0  0  0  0  0  0  0  0
  188.9290  177.0020  143.2810 C   0  0  0  0  0  3  0  0  0  0  0  0
  184.7310  178.5270  145.1270 C   0  0  0  0  0  0  0  0  0  0  0  0
  185.3020  178.5130  146.4060 C   0  0  0  0  0  3  0  0  0  0  0  0
  190.8470  176.6210  144.7890 N   0  0  0  0  0  0  0  0  0  0  0  0
  191.6330  175.9880  143.7400 C   0  0  0  0  0  1  0  0  0  0  0  0
  191.4830  176.8430  146.0780 C   0  0  0  0  0  1  0  0  0  0  0  0
  184.0900  179.4200  140.6810 O   0  0  0  0  0  0  0  0  0  0  0  0
  185.1350  178.7560  140.0370 C   0  0  0  0  0  2  0  0  0  0  0  0
  184.9800  178.9080  138.5350 C   0  0  0  0  0  2  0  0  0  0  0  0
  185.4950  177.6690  137.8190 C   0  0  0  0  0  2  0  0  0  0  0  0
  186.7230  177.9860  136.9760 C   0  0  2  0  0  3  0  0  0  0  0  0
  186.7110  177.2060  135.6720 C   0  0  0  0  0  1  0  0  0  0  0  0
  188.0000  177.6920  137.7540 C   0  0  0  0  0  2  0  0  0  0  0  0
  188.4910  178.8490  138.3690 O   0  0  0  0  0  0  0  0  0  0  0  0
  189.7300  177.2410  139.6010 C   0  0  0  0  0  1  0  0  0  0  0  0
  188.8200  178.4500  139.6640 C   0  0  0  0  0  2  0  0  0  0  0  0
  1 25  1  1  0  0  0
  1  4  1  0  0  0  0
  2  8  1  0  0  0  0
  3  7  1  0  0  0  0
  4  7  1  0  0  0  0
  5  3  1  0  0  0  0
  6  5  1  0  0  0  0
  7 11  1  1  0  0  0
  8 10  1  0  0  0  0
  8  9  2  0  0  0  0
  9  1  1  0  0  0  0
  9  5  1  0  0  0  0
 10  6  2  0  0  0  0
 11 20  1  0  0  0  0
 13 18  2  0  0  0  0
 13 20  1  0  0  0  0
 14 22  1  0  0  0  0
 14 15  2  0  0  0  0
 16 15  1  0  0  0  0
 16 12  2  0  0  0  0
 17 19  2  0  0  0  0
 17 18  1  0  0  0  0
 18 16  1  0  0  0  0
 19 14  1  0  0  0  0
 20 21  2  0  0  0  0
 21 12  1  0  0  0  0
 22 24  1  0  0  0  0
 23 22  1  0  0  0  0
 26 25  1  0  0  0  0
 27 26  1  0  0  0  0
 28 27  1  0  0  0  0
 29 30  1  6  0  0  0
 29 31  1  0  0  0  0
 29 28  1  0  0  0  0
 31 32  1  0  0  0  0
 32 34  1  0  0  0  0
 33 34  1  0  0  0  0
M  END
>  <MODEL>
6

>  <REMARK>
 VINA RESULT:      -8.2      2.600      8.239
  Name = 
  11 active torsions:
  status: ('A' for Active; 'I' for Inactive)
    1  A    between atoms: C_1  and  O_34
    2  A    between atoms: C_2  and  C_23
    3  A    between atoms: C_2  and  C_32
    4  A    between atoms: O_3  and  C_24
    5  A    between atoms: O_3  and  C_27
    6  A    between atoms: C_7  and  N_11
    7  A    between atoms: C_17  and  C_18
    8  A    between atoms: C_18  and  C_30
    9  A    between atoms: C_23  and  C_25
   10  A    between atoms: C_25  and  C_27
   11  A    between atoms: C_32  and  O_34
                            x       y       z     vdW  Elec       q    Type
                         _______ _______ _______ _____ _____    ______ ____

>  <TORSDO>
F 11

$$$$
=
 OpenBabel10262423153D

 34 37  0  0  1  0  0  0  0  0999 V2000
  185.8030  178.1810  137.9930 C   0  0  1  0  0  3  0  0  0  0  0  0
  183.3290  177.2420  136.3250 N   0  0  0  0  0  1  0  0  0  0  0  0
  188.0530  176.2650  137.3800 C   0  0  0  0  0  2  0  0  0  0  0  0
  187.2780  178.5240  138.2350 C   0  0  0  0  0  2  0  0  0  0  0  0
  186.6930  176.1340  136.8630 N   0  0  0  0  0  0  0  0  0  0  0  0
  186.2520  175.1810  136.0190 C   0  0  0  0  0  3  0  0  0  0  0  0
  188.0970  177.2640  138.5450 C   0  0  2  0  0  3  0  0  0  0  0  0
  184.5960  176.5950  136.3580 C   0  0  0  0  0  0  0  0  0  0  0  0
  185.6990  177.0140  137.0550 C   0  0  0  0  0  0  0  0  0  0  0  0
  184.9240  175.4340  135.6820 C   0  0  0  0  0  3  0  0  0  0  0  0
  189.5330  177.5990  138.9560 C   0  0  0  0  0  2  0  0  0  0  0  0
  191.2920  177.3520  142.3140 C   0  0  0  0  0  3  0  0  0  0  0  0
  188.6770  177.4980  141.3120 C   0  0  0  0  0  3  0  0  0  0  0  0
  189.3790  177.2230  145.4250 C   0  0  0  0  0  0  0  0  0  0  0  0
  190.4130  177.2450  144.5350 N   0  0  0  0  0  0  0  0  0  0  0  0
  190.2070  177.3350  143.1950 C   0  0  0  0  0  0  0  0  0  0  0  0
  187.8200  177.3940  143.5780 C   0  0  0  0  0  3  0  0  0  0  0  0
  188.8930  177.4100  142.6890 C   0  0  0  0  0  0  0  0  0  0  0  0
  188.0590  177.3020  144.9490 C   0  0  0  0  0  3  0  0  0  0  0  0
  189.7660  177.5140  140.4320 C   0  0  0  0  0  0  0  0  0  0  0  0
  191.0720  177.4400  140.9350 C   0  0  0  0  0  3  0  0  0  0  0  0
  189.6440  177.1180  146.8340 N   0  0  0  0  0  0  0  0  0  0  0  0
  190.9620  176.7520  147.3340 C   0  0  0  0  0  1  0  0  0  0  0  0
  188.5900  177.3630  147.8060 C   0  0  0  0  0  1  0  0  0  0  0  0
  185.1890  177.8650  139.2080 O   0  0  0  0  0  0  0  0  0  0  0  0
  184.9570  179.0940  139.8250 C   0  0  0  0  0  2  0  0  0  0  0  0
  185.2290  178.9720  141.3120 C   0  0  0  0  0  2  0  0  0  0  0  0
  184.0410  178.3420  142.0220 C   0  0  0  0  0  2  0  0  0  0  0  0
  183.6650  179.1220  143.2740 C   0  0  2  0  0  3  0  0  0  0  0  0
  184.5420  178.7270  144.4510 C   0  0  0  0  0  1  0  0  0  0  0  0
  182.1950  178.9120  143.6180 C   0  0  0  0  0  2  0  0  0  0  0  0
  181.3680  179.3720  142.5880 O   0  0  0  0  0  0  0  0  0  0  0  0
  179.9720  178.2940  144.1790 C   0  0  0  0  0  1  0  0  0  0  0  0
  180.1940  178.6310  142.7200 C   0  0  0  0  0  2  0  0  0  0  0  0
  1  4  1  0  0  0  0
  1 25  1  1  0  0  0
  2  8  1  0  0  0  0
  3  7  1  0  0  0  0
  4  7  1  0  0  0  0
  5  9  1  0  0  0  0
  5  3  1  0  0  0  0
  6  5  1  0  0  0  0
  7 11  1  6  0  0  0
  8  9  2  0  0  0  0
  9  1  1  0  0  0  0
 10  6  2  0  0  0  0
 10  8  1  0  0  0  0
 11 20  1  0  0  0  0
 12 16  1  0  0  0  0
 13 18  1  0  0  0  0
 14 22  1  0  0  0  0
 15 14  2  0  0  0  0
 16 15  1  0  0  0  0
 17 19  2  0  0  0  0
 18 16  2  0  0  0  0
 18 17  1  0  0  0  0
 19 14  1  0  0  0  0
 20 21  1  0  0  0  0
 20 13  2  0  0  0  0
 21 12  2  0  0  0  0
 22 23  1  0  0  0  0
 22 24  1  0  0  0  0
 25 26  1  0  0  0  0
 26 27  1  0  0  0  0
 27 28  1  0  0  0  0
 28 29  1  0  0  0  0
 29 31  1  0  0  0  0
 29 30  1  1  0  0  0
 32 34  1  0  0  0  0
 32 31  1  0  0  0  0
 34 33  1  0  0  0  0
M  END
>  <MODEL>
7

>  <REMARK>
 VINA RESULT:      -8.2      3.562      7.776
  Name = 
  11 active torsions:
  status: ('A' for Active; 'I' for Inactive)
    1  A    between atoms: C_1  and  O_34
    2  A    between atoms: C_2  and  C_23
    3  A    between atoms: C_2  and  C_32
    4  A    between atoms: O_3  and  C_24
    5  A    between atoms: O_3  and  C_27
    6  A    between atoms: C_7  and  N_11
    7  A    between atoms: C_17  and  C_18
    8  A    between atoms: C_18  and  C_30
    9  A    between atoms: C_23  and  C_25
   10  A    between atoms: C_25  and  C_27
   11  A    between atoms: C_32  and  O_34
                            x       y       z     vdW  Elec       q    Type
                         _______ _______ _______ _____ _____    ______ ____

>  <TORSDO>
F 11

$$$$
=
 OpenBabel10262423153D

 34 37  0  0  1  0  0  0  0  0999 V2000
  188.5810  177.8530  137.6390 C   0  0  1  0  0  3  0  0  0  0  0  0
  187.3040  177.1790  134.8630 N   0  0  0  0  0  1  0  0  0  0  0  0
  190.9830  176.0530  137.9580 C   0  0  0  0  0  2  0  0  0  0  0  0
  189.7230  178.1550  138.6160 C   0  0  0  0  0  2  0  0  0  0  0  0
  190.0580  176.0030  136.8290 N   0  0  0  0  0  0  0  0  0  0  0  0
  190.1540  175.1900  135.7580 C   0  0  0  0  0  3  0  0  0  0  0  0
  190.3810  176.8620  139.1170 C   0  0  2  0  0  3  0  0  0  0  0  0
  188.4410  176.5360  135.4270 C   0  0  0  0  0  0  0  0  0  0  0  0
  189.0330  176.8430  136.6240 C   0  0  0  0  0  0  0  0  0  0  0  0
  189.1410  175.4910  134.8510 C   0  0  0  0  0  3  0  0  0  0  0  0
  191.4080  177.1310  140.2190 C   0  0  0  0  0  2  0  0  0  0  0  0
  191.0090  178.0180  143.8920 C   0  0  0  0  0  3  0  0  0  0  0  0
  189.4310  177.0960  141.7640 C   0  0  0  0  0  3  0  0  0  0  0  0
  187.7680  177.7040  145.5520 C   0  0  0  0  0  0  0  0  0  0  0  0
  189.0900  177.9480  145.3170 N   0  0  0  0  0  0  0  0  0  0  0  0
  189.6490  177.7590  144.0930 C   0  0  0  0  0  0  0  0  0  0  0  0
  187.5050  177.0440  143.2350 C   0  0  0  0  0  3  0  0  0  0  0  0
  188.8580  177.2970  143.0210 C   0  0  0  0  0  0  0  0  0  0  0  0
  186.9550  177.2480  144.5010 C   0  0  0  0  0  3  0  0  0  0  0  0
  190.7930  177.3560  141.5660 C   0  0  0  0  0  0  0  0  0  0  0  0
  191.5790  177.8150  142.6300 C   0  0  0  0  0  3  0  0  0  0  0  0
  187.2200  177.9120  146.8650 N   0  0  0  0  0  0  0  0  0  0  0  0
  185.8870  178.4660  147.0530 C   0  0  0  0  0  1  0  0  0  0  0  0
  187.9970  177.5850  148.0510 C   0  0  0  0  0  1  0  0  0  0  0  0
  187.4800  177.3540  138.3410 O   0  0  0  0  0  0  0  0  0  0  0  0
  187.0110  178.4340  139.0890 C   0  0  0  0  0  2  0  0  0  0  0  0
  185.4940  178.4400  139.0730 C   0  0  0  0  0  2  0  0  0  0  0  0
  184.9490  179.0190  140.3690 C   0  0  0  0  0  2  0  0  0  0  0  0
  184.0490  178.0220  141.0860 C   0  0  2  0  0  3  0  0  0  0  0  0
  182.7320  177.8410  140.3480 C   0  0  0  0  0  1  0  0  0  0  0  0
  183.7930  178.4640  142.5210 C   0  0  0  0  0  2  0  0  0  0  0  0
  184.6460  179.5100  142.8840 O   0  0  0  0  0  0  0  0  0  0  0  0
  183.1830  178.8910  144.6490 C   0  0  0  0  0  1  0  0  0  0  0  0
  184.3020  179.8070  144.2030 C   0  0  0  0  0  2  0  0  0  0  0  0
  1 25  1  1  0  0  0
  1  4  1  0  0  0  0
  2  8  1  0  0  0  0
  3  7  1  0  0  0  0
  4  7  1  0  0  0  0
  5  3  1  0  0  0  0
  6  5  1  0  0  0  0
  7 11  1  1  0  0  0
  8  9  2  0  0  0  0
  9  5  1  0  0  0  0
  9  1  1  0  0  0  0
 10  8  1  0  0  0  0
 10  6  2  0  0  0  0
 11 20  1  0  0  0  0
 12 16  1  0  0  0  0
 13 18  1  0  0  0  0
 14 22  1  0  0  0  0
 15 14  1  0  0  0  0
 16 15  2  0  0  0  0
 17 19  1  0  0  0  0
 18 17  2  0  0  0  0
 18 16  1  0  0  0  0
 19 14  2  0  0  0  0
 20 13  2  0  0  0  0
 20 21  1  0  0  0  0
 21 12  2  0  0  0  0
 22 23  1  0  0  0  0
 22 24  1  0  0  0  0
 25 26  1  0  0  0  0
 27 26  1  0  0  0  0
 27 28  1  0  0  0  0
 28 29  1  0  0  0  0
 29 30  1  6  0  0  0
 29 31  1  0  0  0  0
 31 32  1  0  0  0  0
 32 34  1  0  0  0  0
 34 33  1  0  0  0  0
M  END
>  <MODEL>
8

>  <REMARK>
 VINA RESULT:      -8.2      3.170      6.946
  Name = 
  11 active torsions:
  status: ('A' for Active; 'I' for Inactive)
    1  A    between atoms: C_1  and  O_34
    2  A    between atoms: C_2  and  C_23
    3  A    between atoms: C_2  and  C_32
    4  A    between atoms: O_3  and  C_24
    5  A    between atoms: O_3  and  C_27
    6  A    between atoms: C_7  and  N_11
    7  A    between atoms: C_17  and  C_18
    8  A    between atoms: C_18  and  C_30
    9  A    between atoms: C_23  and  C_25
   10  A    between atoms: C_25  and  C_27
   11  A    between atoms: C_32  and  O_34
                            x       y       z     vdW  Elec       q    Type
                         _______ _______ _______ _____ _____    ______ ____

>  <TORSDO>
F 11

$$$$
=
 OpenBabel10262423153D

 34 37  0  0  1  0  0  0  0  0999 V2000
  185.2640  177.8810  137.7550 C   0  0  1  0  0  3  0  0  0  0  0  0
  182.8580  176.4430  136.3640 N   0  0  0  0  0  1  0  0  0  0  0  0
  187.7060  176.1760  137.2640 C   0  0  0  0  0  2  0  0  0  0  0  0
  186.6940  178.4240  137.8670 C   0  0  0  0  0  2  0  0  0  0  0  0
  186.3530  175.8190  136.8470 N   0  0  0  0  0  0  0  0  0  0  0  0
  185.9980  174.7170  136.1580 C   0  0  0  0  0  3  0  0  0  0  0  0
  187.6740  177.3210  138.2880 C   0  0  2  0  0  3  0  0  0  0  0  0
  184.1960  175.9600  136.4080 C   0  0  0  0  0  0  0  0  0  0  0  0
  185.2660  176.5950  136.9810 C   0  0  0  0  0  0  0  0  0  0  0  0
  184.6370  174.7650  135.8680 C   0  0  0  0  0  3  0  0  0  0  0  0
  189.0730  177.8740  138.5700 C   0  0  0  0  0  2  0  0  0  0  0  0
  191.2910  177.2810  141.5970 C   0  0  0  0  0  3  0  0  0  0  0  0
  188.5760  177.6840  141.0220 C   0  0  0  0  0  3  0  0  0  0  0  0
  189.8630  177.0920  144.9560 C   0  0  0  0  0  0  0  0  0  0  0  0
  190.7500  177.0950  143.9190 N   0  0  0  0  0  0  0  0  0  0  0  0
  190.3530  177.2870  142.6340 C   0  0  0  0  0  0  0  0  0  0  0  0
  188.0640  177.4970  143.3850 C   0  0  0  0  0  3  0  0  0  0  0  0
  188.9880  177.4910  142.3420 C   0  0  0  0  0  0  0  0  0  0  0  0
  188.4990  177.2980  144.6960 C   0  0  0  0  0  3  0  0  0  0  0  0
  189.5180  177.6770  139.9860 C   0  0  0  0  0  0  0  0  0  0  0  0
  190.8740  177.4750  140.2760 C   0  0  0  0  0  3  0  0  0  0  0  0
  190.3290  176.8770  146.3000 N   0  0  0  0  0  0  0  0  0  0  0  0
  189.4750  177.1380  147.4500 C   0  0  0  0  0  1  0  0  0  0  0  0
  191.6820  176.4040  146.5470 C   0  0  0  0  0  1  0  0  0  0  0  0
  184.7430  177.6600  139.0330 O   0  0  0  0  0  0  0  0  0  0  0  0
  184.6020  178.9320  139.5880 C   0  0  0  0  0  2  0  0  0  0  0  0
  183.6730  178.8600  140.7860 C   0  0  0  0  0  2  0  0  0  0  0  0
  184.4600  178.5770  142.0550 C   0  0  0  0  0  2  0  0  0  0  0  0
  183.5570  178.5900  143.2810 C   0  0  2  0  0  3  0  0  0  0  0  0
  182.1410  179.0040  142.9170 C   0  0  0  0  0  1  0  0  0  0  0  0
  184.1180  179.5160  144.3530 C   0  0  0  0  0  2  0  0  0  0  0  0
  185.2870  178.9890  144.9100 O   0  0  0  0  0  0  0  0  0  0  0  0
  186.1140  178.8350  147.1310 C   0  0  0  0  0  1  0  0  0  0  0  0
  184.9310  178.6290  146.2100 C   0  0  0  0  0  2  0  0  0  0  0  0
  1  4  1  0  0  0  0
  1 25  1  1  0  0  0
  2  8  1  0  0  0  0
  3  7  1  0  0  0  0
  4  7  1  0  0  0  0
  5  9  1  0  0  0  0
  5  3  1  0  0  0  0
  6  5  1  0  0  0  0
  7 11  1  6  0  0  0
  8  9  2  0  0  0  0
  9  1  1  0  0  0  0
 10  6  2  0  0  0  0
 10  8  1  0  0  0  0
 11 20  1  0  0  0  0
 12 16  1  0  0  0  0
 13 18  1  0  0  0  0
 14 22  1  0  0  0  0
 15 14  2  0  0  0  0
 16 15  1  0  0  0  0
 17 19  2  0  0  0  0
 18 16  2  0  0  0  0
 18 17  1  0  0  0  0
 19 14  1  0  0  0  0
 20 21  1  0  0  0  0
 20 13  2  0  0  0  0
 21 12  2  0  0  0  0
 22 24  1  0  0  0  0
 22 23  1  0  0  0  0
 25 26  1  0  0  0  0
 26 27  1  0  0  0  0
 27 28  1  0  0  0  0
 28 29  1  0  0  0  0
 29 30  1  6  0  0  0
 29 31  1  0  0  0  0
 31 32  1  0  0  0  0
 32 34  1  0  0  0  0
 34 33  1  0  0  0  0
M  END
>  <MODEL>
9

>  <REMARK>
 VINA RESULT:      -8.1      3.350      7.678
  Name = 
  11 active torsions:
  status: ('A' for Active; 'I' for Inactive)
    1  A    between atoms: C_1  and  O_34
    2  A    between atoms: C_2  and  C_23
    3  A    between atoms: C_2  and  C_32
    4  A    between atoms: O_3  and  C_24
    5  A    between atoms: O_3  and  C_27
    6  A    between atoms: C_7  and  N_11
    7  A    between atoms: C_17  and  C_18
    8  A    between atoms: C_18  and  C_30
    9  A    between atoms: C_23  and  C_25
   10  A    between atoms: C_25  and  C_27
   11  A    between atoms: C_32  and  O_34
                            x       y       z     vdW  Elec       q    Type
                         _______ _______ _______ _____ _____    ______ ____

>  <TORSDO>
F 11

$$$$
