=
 OpenBabel10262421433D

 30 35  0  0  1  0  0  0  0  0999 V2000
  188.2140  179.0330  138.5380 C   0  0  0  0  0  2  0  0  0  0  0  0
  186.8330  177.3540  143.7510 N   0  0  0  0  0  2  0  0  0  0  0  0
  188.2250  177.8750  139.4500 N   0  0  0  0  0  0  0  0  0  0  0  0
  189.0070  178.7640  137.2600 C   0  0  0  0  0  2  0  0  0  0  0  0
  189.4370  175.1480  137.0430 C   0  0  0  0  0  2  0  0  0  0  0  0
  190.7300  177.6980  140.5400 C   0  0  1  0  0  3  0  0  0  0  0  0
  188.5690  176.2600  137.6330 C   0  0  2  0  0  3  0  0  0  0  0  0
  189.4860  177.0720  135.5680 N   0  0  0  0  0  2  0  0  0  0  0  0
  190.0220  177.1040  141.7470 C   0  0  1  0  0  3  0  0  0  0  0  0
  187.8500  176.7700  142.9510 C   0  0  0  0  0  0  0  0  0  0  0  0
  188.5730  177.4420  136.6310 C   0  0  2  0  0  3  0  0  0  0  0  0
  188.9480  176.6560  139.0770 C   0  0  1  0  0  3  0  0  0  0  0  0
  191.0790  177.4440  143.1520 S   0  0  0  0  0  0  0  0  0  0  0  0
  192.1140  177.8520  140.7570 O   0  0  0  0  0  0  0  0  0  0  0  0
  190.8240  175.1920  135.0440 N   0  0  0  0  0  2  0  0  0  0  0  0
  186.4850  178.7410  143.5100 C   0  0  2  0  0  3  0  0  0  0  0  0
  185.5020  179.2040  144.5630 C   0  0  0  0  0  1  0  0  0  0  0  0
  189.9260  175.7470  135.7860 C   0  0  0  0  0  0  0  0  0  0  0  0
  187.7190  178.0310  140.7960 C   0  0  0  0  0  0  0  0  0  0  0  0
  188.0700  175.5320  143.0180 O   0  0  0  0  0  0  0  0  0  0  0  0
  188.5990  177.6480  141.9900 C   0  0  2  0  0  3  0  0  0  0  0  0
  192.4350  177.2370  141.9780 C   0  0  0  0  0  2  0  0  0  0  0  0
  191.0920  175.6120  139.4080 O   0  0  0  0  0  1  0  0  0  0  0  0
  185.8910  178.8670  142.2210 O   0  0  0  0  0  0  0  0  0  0  0  0
  186.4740  178.5650  140.9700 C   0  0  0  0  0  0  0  0  0  0  0  0
  190.4610  176.8540  139.2910 C   0  0  2  0  0  3  0  0  0  0  0  0
  185.6730  178.8180  139.8110 N   0  0  0  0  0  2  0  0  0  0  0  0
  183.7910  178.4050  138.3470 C   0  0  0  0  0  2  0  0  0  0  0  0
  184.2450  178.5490  139.7840 C   0  0  0  0  0  3  0  0  0  0  0  0
  183.5380  179.6960  139.0940 C   0  0  0  0  0  2  0  0  0  0  0  0
  1  3  1  0  0  0  0
  3 19  1  0  0  0  0
  4  1  1  0  0  0  0
  6 14  1  1  0  0  0
  6  9  1  0  0  0  0
  7  5  1  6  0  0  0
  7 12  1  0  0  0  0
  8 18  1  0  0  0  0
  8 11  1  0  0  0  0
  9 21  1  0  0  0  0
  9 13  1  1  0  0  0
 10 20  2  0  0  0  0
 10  2  1  0  0  0  0
 11  4  1  1  0  0  0
 11  7  1  0  0  0  0
 12 26  1  0  0  0  0
 12  3  1  6  0  0  0
 14 22  1  0  0  0  0
 15 18  2  0  0  0  0
 16  2  1  0  0  0  0
 16 17  1  1  0  0  0
 18  5  1  0  0  0  0
 19 25  2  0  0  0  0
 21 19  1  6  0  0  0
 21 10  1  0  0  0  0
 22 13  1  0  0  0  0
 24 16  1  0  0  0  0
 25 24  1  0  0  0  0
 26 23  1  1  0  0  0
 26  6  1  0  0  0  0
 27 25  1  0  0  0  0
 28 30  1  0  0  0  0
 28 29  1  0  0  0  0
 29 27  1  0  0  0  0
 30 29  1  0  0  0  0
M  END
>  <MODEL>
1

>  <REMARK>
 VINA RESULT:      -6.3      0.000      0.000
  Name = 
  2 active torsions:
  status: ('A' for Active; 'I' for Inactive)
    1  A    between atoms: C_14  and  N_22
    2  A    between atoms: N_22  and  C_29
                            x       y       z     vdW  Elec       q    Type
                         _______ _______ _______ _____ _____    ______ ____

>  <TORSDO>
F 2

$$$$
=
 OpenBabel10262421433D

 30 35  0  0  1  0  0  0  0  0999 V2000
  181.1930  179.6640  139.7970 C   0  0  0  0  0  2  0  0  0  0  0  0
  179.1010  174.4210  139.6170 N   0  0  0  0  0  2  0  0  0  0  0  0
  180.4870  178.7010  138.9340 N   0  0  0  0  0  0  0  0  0  0  0  0
  181.6380  180.9070  139.0280 C   0  0  0  0  0  2  0  0  0  0  0  0
  179.7240  180.9490  135.9230 C   0  0  0  0  0  2  0  0  0  0  0  0
  182.3450  177.5360  137.2950 C   0  0  1  0  0  3  0  0  0  0  0  0
  179.7400  180.4330  137.3620 C   0  0  2  0  0  3  0  0  0  0  0  0
  180.9500  182.5070  137.3190 N   0  0  0  0  0  2  0  0  0  0  0  0
  181.4290  176.3240  137.3340 C   0  0  1  0  0  3  0  0  0  0  0  0
  179.5290  175.1660  138.4860 C   0  0  0  0  0  0  0  0  0  0  0  0
  180.4720  181.4870  138.2320 C   0  0  2  0  0  3  0  0  0  0  0  0
  180.2920  178.9990  137.5120 C   0  0  1  0  0  3  0  0  0  0  0  0
  182.4780  174.9060  137.0160 S   0  0  0  0  0  0  0  0  0  0  0  0
  183.5250  177.2880  136.5670 O   0  0  0  0  0  0  0  0  0  0  0  0
  180.8240  182.9090  134.9910 N   0  0  0  0  0  2  0  0  0  0  0  0
  179.6900  174.7340  140.9040 C   0  0  2  0  0  3  0  0  0  0  0  0
  179.2150  173.7300  141.9330 C   0  0  0  0  0  1  0  0  0  0  0  0
  180.4710  182.2180  136.0220 C   0  0  0  0  0  0  0  0  0  0  0  0
  180.1970  177.3780  139.4400 C   0  0  0  0  0  0  0  0  0  0  0  0
  178.9310  175.0370  137.3850 O   0  0  0  0  0  0  0  0  0  0  0  0
  180.6550  176.1440  138.6570 C   0  0  2  0  0  3  0  0  0  0  0  0
  183.4020  176.0320  135.9500 C   0  0  0  0  0  2  0  0  0  0  0  0
  181.3230  178.5630  135.3810 O   0  0  0  0  0  1  0  0  0  0  0  0
  179.2950  176.0430  141.3050 O   0  0  0  0  0  0  0  0  0  0  0  0
  179.5560  177.2630  140.6410 C   0  0  0  0  0  0  0  0  0  0  0  0
  181.6010  178.7530  136.7370 C   0  0  2  0  0  3  0  0  0  0  0  0
  179.0780  178.4530  141.2760 N   0  0  0  0  0  2  0  0  0  0  0  0
  179.6010  179.9580  143.0970 C   0  0  0  0  0  2  0  0  0  0  0  0
  179.0470  178.6000  142.7210 C   0  0  0  0  0  3  0  0  0  0  0  0
  180.4640  178.7230  143.2390 C   0  0  0  0  0  2  0  0  0  0  0  0
  2 16  1  0  0  0  0
  3 19  1  0  0  0  0
  3  1  1  0  0  0  0
  4  1  1  0  0  0  0
  5 18  1  0  0  0  0
  6 14  1  6  0  0  0
  6  9  1  0  0  0  0
  7  5  1  6  0  0  0
  7 12  1  0  0  0  0
  7 11  1  0  0  0  0
  8 11  1  0  0  0  0
  9 13  1  1  0  0  0
  9 21  1  0  0  0  0
 10  2  1  0  0  0  0
 11  4  1  6  0  0  0
 12  3  1  1  0  0  0
 15 18  2  0  0  0  0
 16 24  1  0  0  0  0
 16 17  1  1  0  0  0
 18  8  1  0  0  0  0
 19 25  2  0  0  0  0
 20 10  2  0  0  0  0
 21 10  1  6  0  0  0
 21 19  1  0  0  0  0
 22 14  1  0  0  0  0
 22 13  1  0  0  0  0
 25 27  1  0  0  0  0
 25 24  1  0  0  0  0
 26 23  1  6  0  0  0
 26  6  1  0  0  0  0
 26 12  1  0  0  0  0
 27 29  1  0  0  0  0
 28 30  1  0  0  0  0
 29 28  1  0  0  0  0
 29 30  1  0  0  0  0
M  END
>  <MODEL>
2

>  <REMARK>
 VINA RESULT:      -5.2      7.389      9.133
  Name = 
  2 active torsions:
  status: ('A' for Active; 'I' for Inactive)
    1  A    between atoms: C_14  and  N_22
    2  A    between atoms: N_22  and  C_29
                            x       y       z     vdW  Elec       q    Type
                         _______ _______ _______ _____ _____    ______ ____

>  <TORSDO>
F 2

$$$$
=
 OpenBabel10262421433D

 30 35  0  0  1  0  0  0  0  0999 V2000
  189.6980  173.3480  136.7700 C   0  0  0  0  0  2  0  0  0  0  0  0
  195.0070  175.0840  137.6020 N   0  0  0  0  0  2  0  0  0  0  0  0
  190.6060  174.4970  136.6080 N   0  0  1  0  0  0  0  0  0  0  0  0
  188.2430  173.7220  136.4920 C   0  0  0  0  0  2  0  0  0  0  0  0
  188.3110  176.8870  134.6790 C   0  0  0  0  0  2  0  0  0  0  0  0
  190.1970  176.1860  138.7230 C   0  0  1  0  0  3  0  0  0  0  0  0
  189.1210  175.6350  135.0180 C   0  0  2  0  0  3  0  0  0  0  0  0
  186.8000  175.0200  135.0140 N   0  0  0  0  0  2  0  0  0  0  0  0
  191.6610  176.5530  138.5460 C   0  0  1  0  0  3  0  0  0  0  0  0
  193.8730  175.9350  137.5440 C   0  0  0  0  0  0  0  0  0  0  0  0
  188.1260  174.4540  135.1570 C   0  0  2  0  0  3  0  0  0  0  0  0
  190.0690  175.8060  136.2250 C   0  0  1  0  0  3  0  0  0  0  0  0
  192.2210  177.1190  140.1510 S   0  0  0  0  0  0  0  0  0  0  0  0
  189.6160  176.8310  139.8320 O   0  0  0  0  0  0  0  0  0  0  0  0
  185.8950  177.1660  134.5960 N   0  0  0  0  0  2  0  0  0  0  0  0
  194.8090  173.7070  138.0110 C   0  0  2  0  0  3  0  0  0  0  0  0
  196.1520  173.0250  138.1540 C   0  0  0  0  0  1  0  0  0  0  0  0
  186.9210  176.3890  134.6880 C   0  0  0  0  0  0  0  0  0  0  0  0
  191.9790  174.3810  137.0480 C   0  0  1  0  0  3  0  0  0  0  0  0
  193.9750  177.0860  137.0430 O   0  0  0  0  0  0  0  0  0  0  0  0
  192.5540  175.4060  138.0290 C   0  0  2  0  0  3  0  0  0  0  0  0
  190.5440  177.7600  140.3320 C   0  0  0  0  0  2  0  0  0  0  0  0
  189.3350  177.8630  137.2370 O   0  0  0  0  0  1  0  0  0  0  0  0
  194.0360  173.0230  137.0290 O   0  0  0  0  0  0  0  0  0  0  0  0
  192.7200  173.3200  136.6070 C   0  0  0  0  0  0  0  0  0  0  0  0
  189.4110  176.4820  137.4420 C   0  0  2  0  0  3  0  0  0  0  0  0
  192.1490  172.4510  135.6240 N   0  0  0  0  0  0  0  0  0  0  0  0
  192.1200  170.2620  134.5940 C   0  0  0  0  0  2  0  0  0  0  0  0
  192.9500  171.4960  134.8780 C   0  0  0  0  0  3  0  0  0  0  0  0
  193.1390  170.2480  135.7120 C   0  0  0  0  0  2  0  0  0  0  0  0
  2 16  1  0  0  0  0
  3  1  1  1  0  0  0
  3 19  1  0  0  0  0
  4  1  1  0  0  0  0
  5 18  1  0  0  0  0
  6 14  1  1  0  0  0
  7  5  1  1  0  0  0
  7 11  1  0  0  0  0
  7 12  1  0  0  0  0
  8 11  1  0  0  0  0
  9  6  1  0  0  0  0
  9 13  1  1  0  0  0
 10  2  1  0  0  0  0
 10 21  1  0  0  0  0
 11  4  1  1  0  0  0
 12  3  1  0  0  0  0
 12 26  1  0  0  0  0
 13 22  1  0  0  0  0
 14 22  1  0  0  0  0
 15 18  2  0  0  0  0
 16 17  1  0  0  0  0
 18  8  1  0  0  0  0
 19 21  1  0  0  0  0
 20 10  2  0  0  0  0
 21  9  1  0  0  0  0
 23 26  1  0  0  0  0
 24 16  1  0  0  0  0
 25 24  1  0  0  0  0
 25 19  1  0  0  0  0
 26  6  1  0  0  0  0
 27 25  2  0  0  0  0
 28 29  1  0  0  0  0
 28 30  1  0  0  0  0
 29 27  1  0  0  0  0
 29 30  1  0  0  0  0
M  END
>  <MODEL>
3

>  <REMARK>
 VINA RESULT:      -5.2      3.908      7.515
  Name = 
  2 active torsions:
  status: ('A' for Active; 'I' for Inactive)
    1  A    between atoms: C_14  and  N_22
    2  A    between atoms: N_22  and  C_29
                            x       y       z     vdW  Elec       q    Type
                         _______ _______ _______ _____ _____    ______ ____

>  <TORSDO>
F 2

$$$$
=
 OpenBabel10262421433D

 30 35  0  0  1  0  0  0  0  0999 V2000
  184.5890  178.3600  138.6030 C   0  0  0  0  0  2  0  0  0  0  0  0
  180.6770  174.5220  137.2380 N   0  0  0  0  0  2  0  0  0  0  0  0
  183.5100  177.5220  139.1560 N   0  0  0  0  0  0  0  0  0  0  0  0
  185.1030  179.3780  139.6200 C   0  0  0  0  0  2  0  0  0  0  0  0
  183.9550  178.2510  142.8940 C   0  0  0  0  0  2  0  0  0  0  0  0
  181.2680  179.0790  139.3590 C   0  0  1  0  0  3  0  0  0  0  0  0
  184.2820  177.7970  141.4710 C   0  0  2  0  0  3  0  0  0  0  0  0
  185.6800  179.6830  141.9700 N   0  0  0  0  0  2  0  0  0  0  0  0
  180.5060  177.7840  139.1290 C   0  0  1  0  0  3  0  0  0  0  0  0
  180.5970  175.4060  138.3450 C   0  0  0  0  0  0  0  0  0  0  0  0
  185.4320  178.6920  140.9430 C   0  0  2  0  0  3  0  0  0  0  0  0
  183.0550  177.7280  140.5340 C   0  0  1  0  0  3  0  0  0  0  0  0
  178.9340  178.2620  138.4130 S   0  0  0  0  0  0  0  0  0  0  0  0
  180.4110  180.1950  139.4400 O   0  0  0  0  0  0  0  0  0  0  0  0
  184.8210  180.1640  144.1230 N   0  0  0  0  0  2  0  0  0  0  0  0
  181.4710  174.9290  136.0940 C   0  0  2  0  0  3  0  0  0  0  0  0
  181.2950  173.9240  134.9770 C   0  0  0  0  0  1  0  0  0  0  0  0
  184.8750  179.3880  143.0940 C   0  0  0  0  0  0  0  0  0  0  0  0
  182.7570  176.6640  138.2690 C   0  0  0  0  0  0  0  0  0  0  0  0
  180.0540  175.0250  139.4160 O   0  0  0  0  0  0  0  0  0  0  0  0
  181.2290  176.7630  138.2270 C   0  0  2  0  0  3  0  0  0  0  0  0
  179.0860  179.7270  139.4550 C   0  0  0  0  0  2  0  0  0  0  0  0
  181.3450  178.9050  141.7520 O   0  0  0  0  0  1  0  0  0  0  0  0
  182.8450  174.9880  136.4640 O   0  0  0  0  0  0  0  0  0  0  0  0
  183.4390  175.8100  137.4480 C   0  0  0  0  0  0  0  0  0  0  0  0
  182.1460  178.9700  140.6090 C   0  0  2  0  0  3  0  0  0  0  0  0
  184.8580  175.7050  137.6020 N   0  0  0  0  0  2  0  0  0  0  0  0
  186.9990  176.2630  136.6230 C   0  0  0  0  0  2  0  0  0  0  0  0
  185.7400  175.4340  136.4800 C   0  0  0  0  0  3  0  0  0  0  0  0
  185.9100  176.6990  135.6660 C   0  0  0  0  0  2  0  0  0  0  0  0
  1  3  1  0  0  0  0
  1  4  1  0  0  0  0
  2 10  1  0  0  0  0
  5 18  1  0  0  0  0
  6 14  1  1  0  0  0
  6 26  1  0  0  0  0
  7  5  1  1  0  0  0
  8 18  1  0  0  0  0
  9 13  1  6  0  0  0
  9  6  1  0  0  0  0
 10 20  2  0  0  0  0
 11  4  1  6  0  0  0
 11  7  1  0  0  0  0
 11  8  1  0  0  0  0
 12  3  1  6  0  0  0
 12 26  1  0  0  0  0
 12  7  1  0  0  0  0
 13 22  1  0  0  0  0
 14 22  1  0  0  0  0
 16 17  1  6  0  0  0
 16 24  1  0  0  0  0
 16  2  1  0  0  0  0
 18 15  2  0  0  0  0
 19  3  1  0  0  0  0
 21 19  1  1  0  0  0
 21 10  1  0  0  0  0
 21  9  1  0  0  0  0
 24 25  1  0  0  0  0
 25 27  1  0  0  0  0
 25 19  2  0  0  0  0
 26 23  1  1  0  0  0
 29 28  1  0  0  0  0
 29 27  1  0  0  0  0
 30 29  1  0  0  0  0
 30 28  1  0  0  0  0
M  END
>  <MODEL>
4

>  <REMARK>
 VINA RESULT:      -5.0      5.050      8.485
  Name = 
  2 active torsions:
  status: ('A' for Active; 'I' for Inactive)
    1  A    between atoms: C_14  and  N_22
    2  A    between atoms: N_22  and  C_29
                            x       y       z     vdW  Elec       q    Type
                         _______ _______ _______ _____ _____    ______ ____

>  <TORSDO>
F 2

$$$$
=
 OpenBabel10262421433D

 30 35  0  0  1  0  0  0  0  0999 V2000
  183.0950  175.9040  138.6030 C   0  0  0  0  0  2  0  0  0  0  0  0
  187.8100  176.4000  135.5340 N   0  0  0  0  0  2  0  0  0  0  0  0
  183.9630  176.8780  137.9190 N   0  0  0  0  0  0  0  0  0  0  0  0
  182.0330  176.5880  139.4630 C   0  0  0  0  0  2  0  0  0  0  0  0
  181.8610  180.0560  138.3440 C   0  0  0  0  0  2  0  0  0  0  0  0
  185.6070  177.9950  139.8020 C   0  0  1  0  0  3  0  0  0  0  0  0
  182.2510  178.6370  137.9280 C   0  0  2  0  0  3  0  0  0  0  0  0
  180.4720  178.4620  139.5310 N   0  0  0  0  0  2  0  0  0  0  0  0
  186.6040  178.1320  138.6630 C   0  0  1  0  0  3  0  0  0  0  0  0
  187.2600  177.4210  136.3520 C   0  0  0  0  0  0  0  0  0  0  0  0
  181.2980  177.6540  138.6550 C   0  0  2  0  0  3  0  0  0  0  0  0
  183.7500  178.3150  138.1130 C   0  0  1  0  0  3  0  0  0  0  0  0
  188.2230  178.1480  139.4290 S   0  0  0  0  0  0  0  0  0  0  0  0
  186.1440  178.4160  141.0340 O   0  0  0  0  0  0  0  0  0  0  0  0
  180.2440  180.7670  140.0170 N   0  0  0  0  0  2  0  0  0  0  0  0
  187.5170  175.0210  135.8730 C   0  0  2  0  0  3  0  0  0  0  0  0
  188.3180  174.1010  134.9780 C   0  0  0  0  0  1  0  0  0  0  0  0
  180.7640  179.8260  139.3040 C   0  0  0  0  0  0  0  0  0  0  0  0
  185.1560  176.4110  137.2470 C   0  0  0  0  0  0  0  0  0  0  0  0
  187.3560  178.6280  136.0010 O   0  0  0  0  0  0  0  0  0  0  0  0
  186.5160  177.0230  137.5940 C   0  0  2  0  0  3  0  0  0  0  0  0
  187.3960  179.0030  140.7860 C   0  0  0  0  0  2  0  0  0  0  0  0
  184.5550  180.1280  139.4760 O   0  0  0  0  0  1  0  0  0  0  0  0
  186.1280  174.7670  135.6880 O   0  0  0  0  0  0  0  0  0  0  0  0
  185.0430  175.3910  136.3440 C   0  0  0  0  0  0  0  0  0  0  0  0
  184.3150  178.7510  139.4790 C   0  0  2  0  0  3  0  0  0  0  0  0
  183.7330  174.9260  136.0030 N   0  0  0  0  0  2  0  0  0  0  0  0
  182.2070  173.0690  136.2860 C   0  0  0  0  0  2  0  0  0  0  0  0
  183.4780  173.5490  135.6160 C   0  0  0  0  0  3  0  0  0  0  0  0
  183.5550  172.6660  136.8440 C   0  0  0  0  0  2  0  0  0  0  0  0
  1  4  1  0  0  0  0
  2 16  1  0  0  0  0
  2 10  1  0  0  0  0
  3  1  1  0  0  0  0
  5 18  1  0  0  0  0
  6 14  1  1  0  0  0
  7 12  1  0  0  0  0
  7  5  1  1  0  0  0
  7 11  1  0  0  0  0
  9 13  1  1  0  0  0
  9  6  1  0  0  0  0
 11  4  1  1  0  0  0
 11  8  1  0  0  0  0
 12  3  1  1  0  0  0
 12 26  1  0  0  0  0
 13 22  1  0  0  0  0
 16 17  1  6  0  0  0
 18  8  1  0  0  0  0
 18 15  2  0  0  0  0
 19 21  1  0  0  0  0
 19  3  1  0  0  0  0
 20 10  2  0  0  0  0
 21 10  1  6  0  0  0
 21  9  1  0  0  0  0
 22 14  1  0  0  0  0
 24 16  1  0  0  0  0
 24 25  1  0  0  0  0
 25 19  2  0  0  0  0
 26 23  1  6  0  0  0
 26  6  1  0  0  0  0
 27 25  1  0  0  0  0
 28 30  1  0  0  0  0
 29 27  1  0  0  0  0
 29 28  1  0  0  0  0
 29 30  1  0  0  0  0
M  END
>  <MODEL>
5

>  <REMARK>
 VINA RESULT:      -4.9      3.649      7.374
  Name = 
  2 active torsions:
  status: ('A' for Active; 'I' for Inactive)
    1  A    between atoms: C_14  and  N_22
    2  A    between atoms: N_22  and  C_29
                            x       y       z     vdW  Elec       q    Type
                         _______ _______ _______ _____ _____    ______ ____

>  <TORSDO>
F 2

$$$$
=
 OpenBabel10262421433D

 30 35  0  0  1  0  0  0  0  0999 V2000
  184.5150  179.3370  138.6340 C   0  0  0  0  0  2  0  0  0  0  0  0
  187.9850  175.2260  136.9140 N   0  0  0  0  0  2  0  0  0  0  0  0
  184.6710  177.8740  138.5610 N   0  0  0  0  0  0  0  0  0  0  0  0
  183.1100  179.7440  139.0760 C   0  0  0  0  0  2  0  0  0  0  0  0
  181.5870  176.7800  140.5590 C   0  0  0  0  0  2  0  0  0  0  0  0
  183.2750  176.9970  136.3750 C   0  0  1  0  0  3  0  0  0  0  0  0
  182.9180  177.4560  140.2290 C   0  0  2  0  0  3  0  0  0  0  0  0
  181.2990  179.1870  140.6130 N   0  0  0  0  0  2  0  0  0  0  0  0
  184.3200  175.8950  136.3120 C   0  0  1  0  0  3  0  0  0  0  0  0
  186.5780  175.1000  137.0490 C   0  0  0  0  0  0  0  0  0  0  0  0
  182.7090  178.9880  140.3390 C   0  0  2  0  0  3  0  0  0  0  0  0
  183.5410  177.0000  138.8910 C   0  0  1  0  0  3  0  0  0  0  0  0
  184.3770  175.3730  134.5990 S   0  0  0  0  0  0  0  0  0  0  0  0
  182.3650  176.9310  135.3020 O   0  0  0  0  0  0  0  0  0  0  0  0
  179.4120  177.8000  140.9500 N   0  0  0  0  0  2  0  0  0  0  0  0
  188.5320  176.5470  136.6670 C   0  0  2  0  0  3  0  0  0  0  0  0
  190.0180  176.4350  136.4020 C   0  0  0  0  0  1  0  0  0  0  0  0
  180.6860  177.9270  140.7900 C   0  0  0  0  0  0  0  0  0  0  0  0
  185.8570  177.3190  137.9470 C   0  0  0  0  0  0  0  0  0  0  0  0
  186.0780  174.0050  137.4220 O   0  0  0  0  0  0  0  0  0  0  0  0
  185.7220  176.3090  136.8040 C   0  0  2  0  0  3  0  0  0  0  0  0
  182.6110  175.7430  134.5940 C   0  0  0  0  0  2  0  0  0  0  0  0
  181.7490  175.8170  137.8040 O   0  0  0  0  0  1  0  0  0  0  0  0
  188.3170  177.3740  137.8060 O   0  0  0  0  0  0  0  0  0  0  0  0
  187.0800  177.7510  138.3770 C   0  0  0  0  0  0  0  0  0  0  0  0
  182.5420  176.9650  137.7200 C   0  0  2  0  0  3  0  0  0  0  0  0
  187.1350  178.6270  139.5060 N   0  0  0  0  0  2  0  0  0  0  0  0
  188.5130  178.8860  141.4780 C   0  0  0  0  0  2  0  0  0  0  0  0
  187.3540  178.1370  140.8560 C   0  0  0  0  0  3  0  0  0  0  0  0
  188.7200  177.4900  140.9330 C   0  0  0  0  0  2  0  0  0  0  0  0
  1  4  1  0  0  0  0
  2 10  1  0  0  0  0
  3  1  1  0  0  0  0
  5 18  1  0  0  0  0
  6 14  1  6  0  0  0
  6 26  1  0  0  0  0
  7 11  1  0  0  0  0
  7  5  1  6  0  0  0
  8 18  1  0  0  0  0
  9 13  1  6  0  0  0
  9  6  1  0  0  0  0
  9 21  1  0  0  0  0
 10 20  2  0  0  0  0
 11  4  1  6  0  0  0
 11  8  1  0  0  0  0
 12  3  1  6  0  0  0
 12  7  1  0  0  0  0
 16 17  1  1  0  0  0
 16  2  1  0  0  0  0
 16 24  1  0  0  0  0
 18 15  2  0  0  0  0
 19 25  2  0  0  0  0
 19  3  1  0  0  0  0
 21 10  1  1  0  0  0
 21 19  1  0  0  0  0
 22 13  1  0  0  0  0
 22 14  1  0  0  0  0
 24 25  1  0  0  0  0
 25 27  1  0  0  0  0
 26 23  1  6  0  0  0
 26 12  1  0  0  0  0
 27 29  1  0  0  0  0
 29 30  1  0  0  0  0
 29 28  1  0  0  0  0
 30 28  1  0  0  0  0
M  END
>  <MODEL>
6

>  <REMARK>
 VINA RESULT:      -4.8      3.905      7.714
  Name = 
  2 active torsions:
  status: ('A' for Active; 'I' for Inactive)
    1  A    between atoms: C_14  and  N_22
    2  A    between atoms: N_22  and  C_29
                            x       y       z     vdW  Elec       q    Type
                         _______ _______ _______ _____ _____    ______ ____

>  <TORSDO>
F 2

$$$$
=
 OpenBabel10262421433D

 30 35  0  0  1  0  0  0  0  0999 V2000
  183.9340  175.6780  135.0190 C   0  0  0  0  0  2  0  0  0  0  0  0
  180.0170  173.6610  138.5530 N   0  0  0  0  0  2  0  0  0  0  0  0
  183.4870  175.6940  136.4230 N   0  0  0  0  0  0  0  0  0  0  0  0
  185.0270  176.7110  134.7530 C   0  0  0  0  0  2  0  0  0  0  0  0
  186.3560  177.6820  138.0090 C   0  0  0  0  0  2  0  0  0  0  0  0
  182.0130  177.9690  136.8010 C   0  0  1  0  0  3  0  0  0  0  0  0
  185.6240  176.5750  137.2480 C   0  0  2  0  0  3  0  0  0  0  0  0
  187.0470  177.7140  135.6840 N   0  0  0  0  0  2  0  0  0  0  0  0
  181.2580  177.1530  137.8380 C   0  0  1  0  0  3  0  0  0  0  0  0
  180.7300  174.8740  138.7360 C   0  0  0  0  0  0  0  0  0  0  0  0
  186.1420  176.5860  135.7870 C   0  0  2  0  0  3  0  0  0  0  0  0
  184.0860  176.6360  137.3720 C   0  0  1  0  0  3  0  0  0  0  0  0
  179.6290  177.8900  137.9510 S   0  0  0  0  0  0  0  0  0  0  0  0
  181.4660  179.2580  136.6370 O   0  0  0  0  0  0  0  0  0  0  0  0
  187.8770  179.3760  137.1500 N   0  0  0  0  0  2  0  0  0  0  0  0
  179.8440  173.1670  137.2010 C   0  0  2  0  0  3  0  0  0  0  0  0
  178.9320  171.9590  137.2180 C   0  0  0  0  0  1  0  0  0  0  0  0
  187.2010  178.2930  136.9640 C   0  0  0  0  0  0  0  0  0  0  0  0
  182.3080  174.9440  136.7980 C   0  0  0  0  0  0  0  0  0  0  0  0
  181.0400  175.2530  139.8970 O   0  0  0  0  0  0  0  0  0  0  0  0
  181.1550  175.6470  137.5200 C   0  0  2  0  0  3  0  0  0  0  0  0
  180.4860  179.4450  137.6240 C   0  0  0  0  0  2  0  0  0  0  0  0
  183.6780  178.8160  138.3090 O   0  0  0  0  0  1  0  0  0  0  0  0
  181.1090  172.7950  136.6620 O   0  0  0  0  0  0  0  0  0  0  0  0
  182.2340  173.6240  136.4520 C   0  0  0  0  0  0  0  0  0  0  0  0
  183.5000  178.0450  137.1560 C   0  0  2  0  0  3  0  0  0  0  0  0
  183.3820  173.0100  135.8580 N   0  0  0  0  0  2  0  0  0  0  0  0
  185.3980  172.7830  137.1770 C   0  0  0  0  0  2  0  0  0  0  0  0
  184.2100  172.0590  136.5780 C   0  0  0  0  0  3  0  0  0  0  0  0
  185.5660  171.9740  135.9100 C   0  0  0  0  0  2  0  0  0  0  0  0
  1  3  1  0  0  0  0
  2 10  1  0  0  0  0
  3 19  1  0  0  0  0
  4  1  1  0  0  0  0
  6 14  1  1  0  0  0
  6 26  1  0  0  0  0
  6  9  1  0  0  0  0
  7 12  1  0  0  0  0
  7  5  1  1  0  0  0
  8 11  1  0  0  0  0
  8 18  1  0  0  0  0
  9 13  1  6  0  0  0
 10 20  2  0  0  0  0
 11  4  1  6  0  0  0
 11  7  1  0  0  0  0
 12  3  1  6  0  0  0
 14 22  1  0  0  0  0
 16 17  1  1  0  0  0
 16  2  1  0  0  0  0
 18 15  2  0  0  0  0
 18  5  1  0  0  0  0
 21 19  1  1  0  0  0
 21  9  1  0  0  0  0
 21 10  1  0  0  0  0
 22 13  1  0  0  0  0
 24 16  1  0  0  0  0
 25 24  1  0  0  0  0
 25 19  2  0  0  0  0
 26 12  1  0  0  0  0
 26 23  1  1  0  0  0
 27 25  1  0  0  0  0
 27 29  1  0  0  0  0
 29 28  1  0  0  0  0
 30 29  1  0  0  0  0
 30 28  1  0  0  0  0
M  END
>  <MODEL>
7

>  <REMARK>
 VINA RESULT:      -4.8      5.431      8.091
  Name = 
  2 active torsions:
  status: ('A' for Active; 'I' for Inactive)
    1  A    between atoms: C_14  and  N_22
    2  A    between atoms: N_22  and  C_29
                            x       y       z     vdW  Elec       q    Type
                         _______ _______ _______ _____ _____    ______ ____

>  <TORSDO>
F 2

$$$$
=
 OpenBabel10262421433D

 30 35  0  0  1  0  0  0  0  0999 V2000
  183.7390  177.4930  139.5290 C   0  0  0  0  0  2  0  0  0  0  0  0
  185.0400  179.3660  144.6950 N   0  0  0  0  0  2  0  0  0  0  0  0
  183.5300  178.6070  140.4700 N   0  0  0  0  0  0  0  0  0  0  0  0
  182.8280  177.5970  138.3060 C   0  0  0  0  0  2  0  0  0  0  0  0
  181.5970  181.0290  138.2130 C   0  0  0  0  0  2  0  0  0  0  0  0
  181.1220  178.2090  141.7090 C   0  0  1  0  0  3  0  0  0  0  0  0
  182.7250  180.1300  138.7210 C   0  0  2  0  0  3  0  0  0  0  0  0
  181.8820  179.1620  136.6920 N   0  0  0  0  0  2  0  0  0  0  0  0
  181.7560  178.9290  142.8880 C   0  0  1  0  0  3  0  0  0  0  0  0
  183.8710  179.7200  143.9720 C   0  0  0  0  0  0  0  0  0  0  0  0
  182.9190  178.9890  137.6890 C   0  0  2  0  0  3  0  0  0  0  0  0
  182.5340  179.6400  140.1730 C   0  0  1  0  0  3  0  0  0  0  0  0
  180.8900  178.3430  144.3430 S   0  0  0  0  0  0  0  0  0  0  0  0
  179.8220  177.7490  142.0020 O   0  0  0  0  0  0  0  0  0  0  0  0
  180.1320  180.7050  136.2980 N   0  0  0  0  0  2  0  0  0  0  0  0
  185.6700  178.0940  144.3970 C   0  0  2  0  0  3  0  0  0  0  0  0
  186.7960  177.8470  145.3780 C   0  0  0  0  0  1  0  0  0  0  0  0
  181.1740  180.3530  136.9700 C   0  0  0  0  0  0  0  0  0  0  0  0
  184.1410  178.5490  141.7800 C   0  0  0  0  0  0  0  0  0  0  0  0
  183.3880  180.8780  144.0860 O   0  0  0  0  0  0  0  0  0  0  0  0
  183.2760  178.7110  143.0330 C   0  0  2  0  0  3  0  0  0  0  0  0
  179.4510  178.2600  143.2560 C   0  0  0  0  0  2  0  0  0  0  0  0
  180.2380  180.1770  140.6570 O   0  0  0  0  0  1  0  0  0  0  0  0
  186.1950  178.1200  143.0730 O   0  0  0  0  0  0  0  0  0  0  0  0
  185.4830  178.3020  141.8660 C   0  0  0  0  0  0  0  0  0  0  0  0
  181.1190  179.1080  140.4690 C   0  0  2  0  0  3  0  0  0  0  0  0
  186.2450  178.2490  140.6560 N   0  0  0  0  0  2  0  0  0  0  0  0
  188.2670  178.1640  139.3300 C   0  0  0  0  0  2  0  0  0  0  0  0
  187.6240  178.7030  140.5900 C   0  0  0  0  0  3  0  0  0  0  0  0
  188.5440  177.5030  140.6630 C   0  0  0  0  0  2  0  0  0  0  0  0
  1  3  1  0  0  0  0
  3 19  1  0  0  0  0
  4  1  1  0  0  0  0
  6 14  1  1  0  0  0
  6  9  1  0  0  0  0
  7  5  1  6  0  0  0
  7 12  1  0  0  0  0
  8 18  1  0  0  0  0
  8 11  1  0  0  0  0
  9 21  1  0  0  0  0
  9 13  1  1  0  0  0
 10 20  2  0  0  0  0
 10  2  1  0  0  0  0
 11  4  1  1  0  0  0
 11  7  1  0  0  0  0
 12 26  1  0  0  0  0
 12  3  1  6  0  0  0
 14 22  1  0  0  0  0
 15 18  2  0  0  0  0
 16  2  1  0  0  0  0
 16 17  1  1  0  0  0
 18  5  1  0  0  0  0
 19 25  2  0  0  0  0
 21 19  1  6  0  0  0
 21 10  1  0  0  0  0
 22 13  1  0  0  0  0
 24 16  1  0  0  0  0
 25 24  1  0  0  0  0
 26 23  1  1  0  0  0
 26  6  1  0  0  0  0
 27 25  1  0  0  0  0
 28 29  1  0  0  0  0
 28 30  1  0  0  0  0
 29 27  1  0  0  0  0
 29 30  1  0  0  0  0
M  END
>  <MODEL>
8

>  <REMARK>
 VINA RESULT:      -4.7      3.766      7.456
  Name = 
  2 active torsions:
  status: ('A' for Active; 'I' for Inactive)
    1  A    between atoms: C_14  and  N_22
    2  A    between atoms: N_22  and  C_29
                            x       y       z     vdW  Elec       q    Type
                         _______ _______ _______ _____ _____    ______ ____

>  <TORSDO>
F 2

$$$$
=
 OpenBabel10262421433D

 30 35  0  0  1  0  0  0  0  0999 V2000
  182.6780  176.1880  139.0690 C   0  0  0  0  0  2  0  0  0  0  0  0
  180.2610  181.2770  139.4660 N   0  0  0  0  0  2  0  0  0  0  0  0
  182.6130  177.5180  138.4400 N   0  0  0  0  0  0  0  0  0  0  0  0
  183.4480  175.1850  138.2110 C   0  0  0  0  0  2  0  0  0  0  0  0
  185.3600  177.1350  135.7930 C   0  0  0  0  0  2  0  0  0  0  0  0
  180.8800  177.3560  136.3260 C   0  0  1  0  0  3  0  0  0  0  0  0
  184.6820  177.1800  137.1630 C   0  0  2  0  0  3  0  0  0  0  0  0
  185.4110  174.9230  136.7860 N   0  0  0  0  0  2  0  0  0  0  0  0
  180.5880  178.8180  136.6200 C   0  0  1  0  0  3  0  0  0  0  0  0
  180.7530  180.7010  138.2650 C   0  0  0  0  0  0  0  0  0  0  0  0
  184.7950  175.7670  137.7910 C   0  0  2  0  0  3  0  0  0  0  0  0
  183.2450  177.7450  137.1370 C   0  0  1  0  0  3  0  0  0  0  0  0
  178.9340  179.1210  136.0030 S   0  0  0  0  0  0  0  0  0  0  0  0
  180.0750  176.8510  135.2860 O   0  0  0  0  0  0  0  0  0  0  0  0
  186.2580  175.2160  134.5960 N   0  0  0  0  0  2  0  0  0  0  0  0
  179.8430  180.3850  140.5300 C   0  0  2  0  0  3  0  0  0  0  0  0
  179.2140  181.1920  141.6450 C   0  0  0  0  0  1  0  0  0  0  0  0
  185.7760  175.7230  135.6800 C   0  0  0  0  0  0  0  0  0  0  0  0
  181.7360  178.5230  139.0000 C   0  0  0  0  0  0  0  0  0  0  0  0
  181.2740  181.4350  137.3830 O   0  0  0  0  0  0  0  0  0  0  0  0
  180.6950  179.2090  138.1090 C   0  0  2  0  0  3  0  0  0  0  0  0
  179.3650  177.9240  134.7230 C   0  0  0  0  0  2  0  0  0  0  0  0
  182.6850  177.7630  134.7960 O   0  0  0  0  0  1  0  0  0  0  0  0
  180.9740  179.6820  141.0370 O   0  0  0  0  0  0  0  0  0  0  0  0
  181.8270  178.8020  140.3340 C   0  0  0  0  0  0  0  0  0  0  0  0
  182.3670  177.1580  136.0150 C   0  0  2  0  0  3  0  0  0  0  0  0
  182.8790  178.1900  141.0870 N   0  0  0  0  0  2  0  0  0  0  0  0
  184.8660  178.0340  142.4590 C   0  0  0  0  0  2  0  0  0  0  0  0
  183.8740  178.9700  141.8020 C   0  0  0  0  0  3  0  0  0  0  0  0
  183.7700  178.6730  143.2820 C   0  0  0  0  0  2  0  0  0  0  0  0
  2 16  1  0  0  0  0
  3 19  1  0  0  0  0
  3  1  1  0  0  0  0
  4  1  1  0  0  0  0
  6 14  1  6  0  0  0
  6  9  1  0  0  0  0
  7  5  1  6  0  0  0
  7 11  1  0  0  0  0
  8 11  1  0  0  0  0
  9 13  1  1  0  0  0
  9 21  1  0  0  0  0
 10  2  1  0  0  0  0
 11  4  1  6  0  0  0
 12  7  1  0  0  0  0
 12  3  1  1  0  0  0
 15 18  2  0  0  0  0
 16 24  1  0  0  0  0
 16 17  1  1  0  0  0
 18  5  1  0  0  0  0
 18  8  1  0  0  0  0
 19 25  2  0  0  0  0
 20 10  2  0  0  0  0
 21 10  1  6  0  0  0
 21 19  1  0  0  0  0
 22 14  1  0  0  0  0
 22 13  1  0  0  0  0
 25 24  1  0  0  0  0
 25 27  1  0  0  0  0
 26 23  1  6  0  0  0
 26  6  1  0  0  0  0
 26 12  1  0  0  0  0
 27 29  1  0  0  0  0
 28 30  1  0  0  0  0
 29 28  1  0  0  0  0
 29 30  1  0  0  0  0
M  END
>  <MODEL>
9

>  <REMARK>
 VINA RESULT:      -4.6      5.615      7.921
  Name = 
  2 active torsions:
  status: ('A' for Active; 'I' for Inactive)
    1  A    between atoms: C_14  and  N_22
    2  A    between atoms: N_22  and  C_29
                            x       y       z     vdW  Elec       q    Type
                         _______ _______ _______ _____ _____    ______ ____

>  <TORSDO>
F 2

$$$$
