=
 OpenBabel10262419163D

 34 37  0  0  1  0  0  0  0  0999 V2000
  191.5020  176.5550  145.8990 C   0  0  2  0  0  3  0  0  0  0  0  0
  189.4050  176.7160  144.4060 C   0  0  2  0  0  3  0  0  0  0  0  0
  187.5890  177.3470  142.7500 C   0  0  1  0  0  3  0  0  0  0  0  0
  187.0700  177.2400  145.2190 C   0  0  0  0  0  2  0  0  0  0  0  0
  190.0570  177.0640  145.7730 C   0  0  2  0  0  3  0  0  0  0  0  0
  185.6300  177.4740  144.7450 C   0  0  0  0  0  2  0  0  0  0  0  0
  186.4110  178.2850  142.4640 C   0  0  0  0  0  2  0  0  0  0  0  0
  190.4230  176.8190  143.3350 N   0  0  2  0  0  0  0  0  0  0  0  0
  191.7440  175.3770  144.9680 C   0  0  0  0  0  2  0  0  0  0  0  0
  188.6820  177.6000  141.7410 C   0  0  0  0  0  2  0  0  0  0  0  0
  189.8340  176.6350  141.9920 C   0  0  1  0  0  3  0  0  0  0  0  0
  185.5610  178.5940  143.7080 C   0  0  1  0  0  3  0  0  0  0  0  0
  188.1390  177.5610  144.1590 C   0  0  1  0  0  3  0  0  0  0  0  0
  191.4200  175.7390  143.5090 C   0  0  0  0  0  2  0  0  0  0  0  0
  191.4970  176.6030  138.5810 C   0  0  0  0  0  0  0  0  0  0  0  0
  192.7320  177.1970  138.8580 C   0  0  0  0  0  3  0  0  0  0  0  0
  190.8570  176.8330  140.9080 C   0  0  0  0  0  0  0  0  0  0  0  0
  193.0310  177.6140  140.1590 C   0  0  0  0  0  3  0  0  0  0  0  0
  190.5610  176.4220  139.6030 C   0  0  0  0  0  3  0  0  0  0  0  0
  192.0960  177.4340  141.1830 C   0  0  0  0  0  3  0  0  0  0  0  0
  191.2060  176.2050  137.3190 F   0  0  0  0  0  0  0  0  0  0  0  0
  183.2590  179.3300  144.3150 O   0  0  0  0  0  1  0  0  0  0  0  0
  183.7290  178.7890  142.1000 C   0  0  0  0  0  0  0  0  0  0  0  0
  183.3240  178.6670  140.8670 C   0  0  0  0  0  0  0  0  0  0  0  0
  184.1450  178.9080  143.3330 C   0  0  0  0  0  0  0  0  0  0  0  0
  182.1280  177.8240  140.5660 C   0  0  0  0  0  2  0  0  0  0  0  0
  180.9150  178.3300  141.3260 C   0  0  0  0  0  1  0  0  0  0  0  0
  184.0820  179.3500  139.7770 C   0  0  0  0  0  2  0  0  0  0  0  0
  184.7750  178.3300  138.8930 C   0  0  0  0  0  1  0  0  0  0  0  0
  191.8120  176.1850  147.3130 C   0  0  0  0  0  0  0  0  0  0  0  0
  192.2220  177.1670  148.2040 O   0  0  0  0  0  1  0  0  0  0  0  0
  191.7060  174.9920  147.7010 O   0  0  0  0  0  0  0  0  0  0  0  0
  189.9170  178.4160  146.1690 O   0  0  0  0  0  0  0  0  0  0  0  0
  189.2490  178.4690  147.4040 C   0  0  0  0  0  1  0  0  0  0  0  0
  1 30  1  1  0  0  0
  2  5  1  0  0  0  0
  3 13  1  0  0  0  0
  5  1  1  0  0  0  0
  5 33  1  0  0  0  0
  6  4  1  0  0  0  0
  7  3  1  0  0  0  0
  7 12  1  0  0  0  0
  8 14  1  0  0  0  0
  8  2  1  0  0  0  0
  9  1  1  0  0  0  0
 10 11  1  0  0  0  0
 10  3  1  0  0  0  0
 11  8  1  0  0  0  0
 12  6  1  0  0  0  0
 13  2  1  0  0  0  0
 13  4  1  0  0  0  0
 14  9  1  0  0  0  0
 15 16  2  0  0  0  0
 15 19  1  0  0  0  0
 16 18  1  0  0  0  0
 17 20  1  0  0  0  0
 17 11  1  0  0  0  0
 18 20  2  0  0  0  0
 19 17  2  0  0  0  0
 21 15  1  0  0  0  0
 23 25  2  0  0  0  0
 24 23  2  0  0  0  0
 25 12  1  0  0  0  0
 25 22  1  0  0  0  0
 26 24  1  0  0  0  0
 26 27  1  0  0  0  0
 28 24  1  0  0  0  0
 29 28  1  0  0  0  0
 30 32  2  0  0  0  0
 30 31  1  0  0  0  0
 33 34  1  0  0  0  0
M  END
>  <MODEL>
1

>  <REMARK>
 VINA RESULT:      -8.5      0.000      0.000
  Name = 
  6 active torsions:
  status: ('A' for Active; 'I' for Inactive)
    1  A    between atoms: C_1  and  C_6
    2  A    between atoms: O_2  and  C_15
    3  A    between atoms: C_11  and  C_20
    4  A    between atoms: C_12  and  C_28
    5  A    between atoms: C_14  and  C_20
    6  A    between atoms: C_29  and  C_33
                            x       y       z     vdW  Elec       q    Type
                         _______ _______ _______ _____ _____    ______ ____

>  <TORSDO>
F 6

$$$$
=
 OpenBabel10262419163D

 34 37  0  0  1  0  0  0  0  0999 V2000
  186.8320  177.5840  145.4490 C   0  0  2  0  0  3  0  0  0  0  0  0
  186.5720  178.4130  143.0200 C   0  0  2  0  0  3  0  0  0  0  0  0
  185.9900  178.7700  140.5770 C   0  0  1  0  0  3  0  0  0  0  0  0
  188.3890  178.3860  141.2650 C   0  0  0  0  0  2  0  0  0  0  0  0
  187.3970  177.5570  144.0200 C   0  0  2  0  0  3  0  0  0  0  0  0
  188.6750  178.7010  139.7910 C   0  0  0  0  0  2  0  0  0  0  0  0
  186.2480  178.3120  139.1370 C   0  0  0  0  0  2  0  0  0  0  0  0
  185.1310  178.3020  143.3510 N   0  0  2  0  0  0  0  0  0  0  0  0
  186.0090  178.8410  145.6810 C   0  0  0  0  0  2  0  0  0  0  0  0
  184.5540  178.4830  140.9390 C   0  0  0  0  0  2  0  0  0  0  0  0
  184.2800  178.9830  142.3530 C   0  0  1  0  0  3  0  0  0  0  0  0
  187.7180  177.9500  138.8660 C   0  0  1  0  0  3  0  0  0  0  0  0
  186.9150  178.0560  141.5610 C   0  0  1  0  0  3  0  0  0  0  0  0
  184.8780  178.9720  144.6470 C   0  0  0  0  0  2  0  0  0  0  0  0
  180.5670  178.3860  141.8390 C   0  0  0  0  0  0  0  0  0  0  0  0
  180.0910  178.4010  143.1530 C   0  0  0  0  0  3  0  0  0  0  0  0
  182.8190  178.7860  142.6460 C   0  0  0  0  0  0  0  0  0  0  0  0
  180.9760  178.6050  144.2170 C   0  0  0  0  0  3  0  0  0  0  0  0
  181.9290  178.5770  141.5860 C   0  0  0  0  0  3  0  0  0  0  0  0
  182.3380  178.7950  143.9650 C   0  0  0  0  0  3  0  0  0  0  0  0
  179.7100  178.1830  140.8100 F   0  0  0  0  0  0  0  0  0  0  0  0
  187.4770  179.2000  136.7240 O   0  0  0  0  0  1  0  0  0  0  0  0
  188.9220  177.3770  136.8170 C   0  0  0  0  0  0  0  0  0  0  0  0
  189.7740  176.5910  136.2190 C   0  0  0  0  0  0  0  0  0  0  0  0
  188.0700  178.1590  137.4250 C   0  0  0  0  0  0  0  0  0  0  0  0
  189.3770  175.9040  134.9530 C   0  0  0  0  0  2  0  0  0  0  0  0
  188.0840  175.1340  135.1490 C   0  0  0  0  0  1  0  0  0  0  0  0
  191.1190  176.3710  136.8290 C   0  0  0  0  0  2  0  0  0  0  0  0
  190.9810  175.9640  138.2850 C   0  0  0  0  0  1  0  0  0  0  0  0
  187.9300  177.4760  146.4560 C   0  0  0  0  0  0  0  0  0  0  0  0
  189.1930  177.9630  146.1480 O   0  0  0  0  0  0  0  0  0  0  0  0
  187.7200  176.9480  147.5800 O   0  0  0  0  0  1  0  0  0  0  0  0
  187.6930  176.2460  143.5730 O   0  0  0  0  0  0  0  0  0  0  0  0
  189.0830  176.1180  143.4070 C   0  0  0  0  0  1  0  0  0  0  0  0
  1  9  1  0  0  0  0
  1 30  1  1  0  0  0
  2  8  1  0  0  0  0
  2  5  1  0  0  0  0
  3 10  1  0  0  0  0
  3 13  1  0  0  0  0
  4 13  1  0  0  0  0
  5  1  1  0  0  0  0
  6  4  1  0  0  0  0
  7  3  1  0  0  0  0
  8 14  1  0  0  0  0
 10 11  1  0  0  0  0
 11 17  1  0  0  0  0
 11  8  1  0  0  0  0
 12  7  1  0  0  0  0
 12  6  1  0  0  0  0
 13  2  1  0  0  0  0
 14  9  1  0  0  0  0
 15 16  1  0  0  0  0
 16 18  2  0  0  0  0
 17 20  2  0  0  0  0
 19 15  2  0  0  0  0
 19 17  1  0  0  0  0
 20 18  1  0  0  0  0
 21 15  1  0  0  0  0
 22 25  1  0  0  0  0
 23 25  2  0  0  0  0
 24 23  2  0  0  0  0
 24 28  1  0  0  0  0
 25 12  1  0  0  0  0
 26 27  1  0  0  0  0
 26 24  1  0  0  0  0
 28 29  1  0  0  0  0
 30 32  1  0  0  0  0
 31 30  2  0  0  0  0
 33  5  1  0  0  0  0
 34 33  1  0  0  0  0
M  END
>  <MODEL>
2

>  <REMARK>
 VINA RESULT:      -8.0      3.480      7.406
  Name = 
  6 active torsions:
  status: ('A' for Active; 'I' for Inactive)
    1  A    between atoms: C_1  and  C_6
    2  A    between atoms: O_2  and  C_15
    3  A    between atoms: C_11  and  C_20
    4  A    between atoms: C_12  and  C_28
    5  A    between atoms: C_14  and  C_20
    6  A    between atoms: C_29  and  C_33
                            x       y       z     vdW  Elec       q    Type
                         _______ _______ _______ _____ _____    ______ ____

>  <TORSDO>
F 6

$$$$
=
 OpenBabel10262419163D

 34 37  0  0  1  0  0  0  0  0999 V2000
  192.4570  176.0370  138.5440 C   0  0  2  0  0  3  0  0  0  0  0  0
  190.3810  177.4140  139.2150 C   0  0  2  0  0  3  0  0  0  0  0  0
  188.2110  178.3090  140.1780 C   0  0  1  0  0  3  0  0  0  0  0  0
  188.4540  177.9910  137.6840 C   0  0  0  0  0  2  0  0  0  0  0  0
  191.0080  176.4180  138.2000 C   0  0  2  0  0  3  0  0  0  0  0  0
  187.0880  178.6860  137.6420 C   0  0  0  0  0  2  0  0  0  0  0  0
  186.6810  178.2460  140.1150 C   0  0  0  0  0  2  0  0  0  0  0  0
  190.8590  177.0910  140.5800 N   0  0  2  0  0  0  0  0  0  0  0  0
  193.1120  177.1160  139.3920 C   0  0  0  0  0  2  0  0  0  0  0  0
  188.6730  177.8090  141.5240 C   0  0  0  0  0  2  0  0  0  0  0  0
  190.1910  177.9150  141.6090 C   0  0  1  0  0  3  0  0  0  0  0  0
  186.1350  178.1020  138.6850 C   0  0  1  0  0  3  0  0  0  0  0  0
  188.8460  177.4620  139.0760 C   0  0  1  0  0  3  0  0  0  0  0  0
  192.3050  177.3930  140.6720 C   0  0  0  0  0  2  0  0  0  0  0  0
  191.6930  175.9200  144.4660 C   0  0  0  0  0  0  0  0  0  0  0  0
  191.4290  176.7460  145.5630 C   0  0  0  0  0  3  0  0  0  0  0  0
  190.6130  177.5170  142.9960 C   0  0  0  0  0  0  0  0  0  0  0  0
  190.7600  177.9600  145.3790 C   0  0  0  0  0  3  0  0  0  0  0  0
  191.2870  176.3050  143.1850 C   0  0  0  0  0  3  0  0  0  0  0  0
  190.3540  178.3470  144.0980 C   0  0  0  0  0  3  0  0  0  0  0  0
  192.3470  174.7470  144.6450 F   0  0  0  0  0  0  0  0  0  0  0  0
  184.5210  179.9590  139.0780 O   0  0  0  0  0  1  0  0  0  0  0  0
  183.7900  178.0340  137.9930 C   0  0  0  0  0  0  0  0  0  0  0  0
  182.8260  177.3700  137.4180 C   0  0  0  0  0  0  0  0  0  0  0  0
  184.7630  178.6920  138.5660 C   0  0  0  0  0  0  0  0  0  0  0  0
  181.5450  177.1500  138.1540 C   0  0  0  0  0  2  0  0  0  0  0  0
  181.7530  176.1880  139.3090 C   0  0  0  0  0  1  0  0  0  0  0  0
  183.0350  176.8160  136.0480 C   0  0  0  0  0  2  0  0  0  0  0  0
  184.4230  176.2140  135.9240 C   0  0  0  0  0  1  0  0  0  0  0  0
  193.2480  175.7860  137.3020 C   0  0  0  0  0  0  0  0  0  0  0  0
  193.3270  174.5000  136.7870 O   0  0  0  0  0  1  0  0  0  0  0  0
  193.8440  176.7310  136.7200 O   0  0  0  0  0  0  0  0  0  0  0  0
  190.2030  175.2910  137.9020 O   0  0  0  0  0  0  0  0  0  0  0  0
  190.0300  175.2030  136.5100 C   0  0  0  0  0  1  0  0  0  0  0  0
  1 30  1  6  0  0  0
  1  9  1  0  0  0  0
  2  8  1  0  0  0  0
  3 10  1  0  0  0  0
  4 13  1  0  0  0  0
  5  1  1  0  0  0  0
  5  2  1  0  0  0  0
  6  4  1  0  0  0  0
  6 12  1  0  0  0  0
  7  3  1  0  0  0  0
  8 14  1  0  0  0  0
  8 11  1  0  0  0  0
  9 14  1  0  0  0  0
 10 11  1  0  0  0  0
 11 17  1  0  0  0  0
 12  7  1  0  0  0  0
 13  2  1  0  0  0  0
 13  3  1  0  0  0  0
 15 21  1  0  0  0  0
 15 16  1  0  0  0  0
 17 19  1  0  0  0  0
 17 20  2  0  0  0  0
 18 16  2  0  0  0  0
 19 15  2  0  0  0  0
 20 18  1  0  0  0  0
 23 25  2  0  0  0  0
 24 23  2  0  0  0  0
 24 26  1  0  0  0  0
 25 12  1  0  0  0  0
 25 22  1  0  0  0  0
 26 27  1  0  0  0  0
 28 24  1  0  0  0  0
 29 28  1  0  0  0  0
 31 30  1  0  0  0  0
 32 30  2  0  0  0  0
 33  5  1  0  0  0  0
 34 33  1  0  0  0  0
M  END
>  <MODEL>
3

>  <REMARK>
 VINA RESULT:      -7.6      3.924      6.167
  Name = 
  6 active torsions:
  status: ('A' for Active; 'I' for Inactive)
    1  A    between atoms: C_1  and  C_6
    2  A    between atoms: O_2  and  C_15
    3  A    between atoms: C_11  and  C_20
    4  A    between atoms: C_12  and  C_28
    5  A    between atoms: C_14  and  C_20
    6  A    between atoms: C_29  and  C_33
                            x       y       z     vdW  Elec       q    Type
                         _______ _______ _______ _____ _____    ______ ____

>  <TORSDO>
F 6

$$$$
=
 OpenBabel10262419163D

 34 37  0  0  1  0  0  0  0  0999 V2000
  187.9760  177.2920  136.4010 C   0  0  2  0  0  3  0  0  0  0  0  0
  187.9290  177.3290  138.9800 C   0  0  2  0  0  3  0  0  0  0  0  0
  187.7610  177.9120  141.4440 C   0  0  1  0  0  3  0  0  0  0  0  0
  189.9500  177.1010  140.4810 C   0  0  0  0  0  2  0  0  0  0  0  0
  188.7880  177.4770  137.6940 C   0  0  2  0  0  3  0  0  0  0  0  0
  190.3930  177.1100  141.9490 C   0  0  0  0  0  2  0  0  0  0  0  0
  188.4470  178.6000  142.6280 C   0  0  0  0  0  2  0  0  0  0  0  0
  186.5880  177.9140  138.7460 N   0  0  2  0  0  0  0  0  0  0  0  0
  186.7310  176.4580  136.6600 C   0  0  0  0  0  2  0  0  0  0  0  0
  186.4790  178.6400  141.1210 C   0  0  0  0  0  2  0  0  0  0  0  0
  185.7680  177.9300  139.9760 C   0  0  1  0  0  3  0  0  0  0  0  0
  189.9720  178.4010  142.6500 C   0  0  1  0  0  3  0  0  0  0  0  0
  188.6620  177.9000  140.2100 C   0  0  1  0  0  3  0  0  0  0  0  0
  185.8590  177.0770  137.7650 C   0  0  0  0  0  2  0  0  0  0  0  0
  182.0610  178.7170  140.1750 C   0  0  0  0  0  0  0  0  0  0  0  0
  181.9660  179.8520  139.3640 C   0  0  0  0  0  3  0  0  0  0  0  0
  184.4460  178.6080  139.7500 C   0  0  0  0  0  0  0  0  0  0  0  0
  183.1090  180.3690  138.7470 C   0  0  0  0  0  3  0  0  0  0  0  0
  183.3000  178.0980  140.3690 C   0  0  0  0  0  3  0  0  0  0  0  0
  184.3470  179.7500  138.9400 C   0  0  0  0  0  3  0  0  0  0  0  0
  180.9540  178.2210  140.7770 F   0  0  0  0  0  0  0  0  0  0  0  0
  191.7380  179.0690  144.2740 O   0  0  0  0  0  1  0  0  0  0  0  0
  189.8410  177.9680  145.0530 C   0  0  0  0  0  0  0  0  0  0  0  0
  189.1670  177.4660  146.0500 C   0  0  0  0  0  0  0  0  0  0  0  0
  190.5080  178.4680  144.0470 C   0  0  0  0  0  0  0  0  0  0  0  0
  189.8200  176.4680  146.9500 C   0  0  0  0  0  2  0  0  0  0  0  0
  191.3060  176.7510  147.0690 C   0  0  0  0  0  1  0  0  0  0  0  0
  187.7460  177.8780  146.2540 C   0  0  0  0  0  2  0  0  0  0  0  0
  187.4770  178.1480  147.7230 C   0  0  0  0  0  1  0  0  0  0  0  0
  188.8160  176.6730  135.3320 C   0  0  0  0  0  0  0  0  0  0  0  0
  188.7850  175.2980  135.1460 O   0  0  0  0  0  1  0  0  0  0  0  0
  189.5500  177.3880  134.5990 O   0  0  0  0  0  0  0  0  0  0  0  0
  189.6140  178.6260  137.6610 O   0  0  0  0  0  0  0  0  0  0  0  0
  188.8580  179.7250  137.2180 C   0  0  0  0  0  1  0  0  0  0  0  0
  1 30  1  6  0  0  0
  1  9  1  0  0  0  0
  1  5  1  0  0  0  0
  2 13  1  0  0  0  0
  3  7  1  0  0  0  0
  4  6  1  0  0  0  0
  5  2  1  0  0  0  0
  6 12  1  0  0  0  0
  7 12  1  0  0  0  0
  8  2  1  0  0  0  0
  8 11  1  0  0  0  0
  9 14  1  0  0  0  0
 10  3  1  0  0  0  0
 11 10  1  0  0  0  0
 12 25  1  0  0  0  0
 13  4  1  0  0  0  0
 13  3  1  0  0  0  0
 14  8  1  0  0  0  0
 15 19  1  0  0  0  0
 15 21  1  0  0  0  0
 16 15  2  0  0  0  0
 17 11  1  0  0  0  0
 17 19  2  0  0  0  0
 18 20  2  0  0  0  0
 18 16  1  0  0  0  0
 20 17  1  0  0  0  0
 23 24  2  0  0  0  0
 24 28  1  0  0  0  0
 24 26  1  0  0  0  0
 25 22  1  0  0  0  0
 25 23  2  0  0  0  0
 26 27  1  0  0  0  0
 28 29  1  0  0  0  0
 31 30  1  0  0  0  0
 32 30  2  0  0  0  0
 33  5  1  0  0  0  0
 34 33  1  0  0  0  0
M  END
>  <MODEL>
4

>  <REMARK>
 VINA RESULT:      -7.3      4.305      8.511
  Name = 
  6 active torsions:
  status: ('A' for Active; 'I' for Inactive)
    1  A    between atoms: C_1  and  C_6
    2  A    between atoms: O_2  and  C_15
    3  A    between atoms: C_11  and  C_20
    4  A    between atoms: C_12  and  C_28
    5  A    between atoms: C_14  and  C_20
    6  A    between atoms: C_29  and  C_33
                            x       y       z     vdW  Elec       q    Type
                         _______ _______ _______ _____ _____    ______ ____

>  <TORSDO>
F 6

$$$$
=
 OpenBabel10262419163D

 34 37  0  0  1  0  0  0  0  0999 V2000
  192.9860  175.9100  138.4210 C   0  0  2  0  0  3  0  0  0  0  0  0
  190.7110  177.0910  138.7080 C   0  0  2  0  0  3  0  0  0  0  0  0
  188.3600  177.8150  139.3280 C   0  0  1  0  0  3  0  0  0  0  0  0
  188.9300  177.2830  136.9260 C   0  0  0  0  0  2  0  0  0  0  0  0
  191.5560  176.0810  137.8840 C   0  0  2  0  0  3  0  0  0  0  0  0
  187.5120  177.8040  136.6610 C   0  0  0  0  0  2  0  0  0  0  0  0
  186.8630  177.5660  139.1090 C   0  0  0  0  0  2  0  0  0  0  0  0
  191.0550  176.9640  140.1440 N   0  0  2  0  0  0  0  0  0  0  0  0
  193.4180  177.1370  139.2090 C   0  0  0  0  0  2  0  0  0  0  0  0
  188.7090  177.5090  140.7630 C   0  0  0  0  0  2  0  0  0  0  0  0
  190.1860  177.8020  140.9970 C   0  0  1  0  0  3  0  0  0  0  0  0
  186.5090  177.2170  137.6540 C   0  0  1  0  0  3  0  0  0  0  0  0
  189.2080  176.9440  138.4020 C   0  0  1  0  0  3  0  0  0  0  0  0
  192.4400  177.4430  140.3560 C   0  0  0  0  0  2  0  0  0  0  0  0
  191.4680  176.2450  144.2120 C   0  0  0  0  0  0  0  0  0  0  0  0
  191.0610  177.1820  145.1670 C   0  0  0  0  0  3  0  0  0  0  0  0
  190.4810  177.5950  142.4570 C   0  0  0  0  0  0  0  0  0  0  0  0
  190.3670  178.3290  144.7690 C   0  0  0  0  0  3  0  0  0  0  0  0
  191.1800  176.4520  142.8600 C   0  0  0  0  0  3  0  0  0  0  0  0
  190.0780  178.5370  143.4170 C   0  0  0  0  0  3  0  0  0  0  0  0
  192.1450  175.1370  144.5980 F   0  0  0  0  0  0  0  0  0  0  0  0
  184.6250  177.4260  136.0380 O   0  0  0  0  0  1  0  0  0  0  0  0
  184.3310  178.1720  138.2230 C   0  0  0  0  0  0  0  0  0  0  0  0
  183.5650  178.7150  139.1280 C   0  0  0  0  0  0  0  0  0  0  0  0
  185.1060  177.6270  137.3240 C   0  0  0  0  0  0  0  0  0  0  0  0
  182.9160  180.0320  138.8480 C   0  0  0  0  0  2  0  0  0  0  0  0
  181.4270  179.9620  139.1320 C   0  0  0  0  0  1  0  0  0  0  0  0
  183.3760  178.0230  140.4370 C   0  0  0  0  0  2  0  0  0  0  0  0
  184.2960  178.6160  141.4890 C   0  0  0  0  0  1  0  0  0  0  0  0
  193.9420  175.6330  137.3070 C   0  0  0  0  0  0  0  0  0  0  0  0
  194.4400  174.3490  137.1350 O   0  0  0  0  0  1  0  0  0  0  0  0
  194.2980  176.5530  136.5240 O   0  0  0  0  0  0  0  0  0  0  0  0
  190.9170  174.8430  137.6300 O   0  0  0  0  0  0  0  0  0  0  0  0
  191.0040  174.5530  136.2570 C   0  0  0  0  0  1  0  0  0  0  0  0
  1 30  1  6  0  0  0
  1  9  1  0  0  0  0
  2  8  1  0  0  0  0
  3 10  1  0  0  0  0
  4 13  1  0  0  0  0
  5  1  1  0  0  0  0
  5  2  1  0  0  0  0
  6  4  1  0  0  0  0
  6 12  1  0  0  0  0
  7  3  1  0  0  0  0
  8 14  1  0  0  0  0
  8 11  1  0  0  0  0
  9 14  1  0  0  0  0
 10 11  1  0  0  0  0
 11 17  1  0  0  0  0
 12  7  1  0  0  0  0
 13  2  1  0  0  0  0
 13  3  1  0  0  0  0
 15 21  1  0  0  0  0
 15 16  1  0  0  0  0
 17 19  1  0  0  0  0
 17 20  2  0  0  0  0
 18 16  2  0  0  0  0
 19 15  2  0  0  0  0
 20 18  1  0  0  0  0
 22 25  1  0  0  0  0
 23 24  2  0  0  0  0
 24 28  1  0  0  0  0
 25 12  1  0  0  0  0
 25 23  2  0  0  0  0
 26 24  1  0  0  0  0
 26 27  1  0  0  0  0
 28 29  1  0  0  0  0
 31 30  1  0  0  0  0
 32 30  2  0  0  0  0
 33  5  1  0  0  0  0
 34 33  1  0  0  0  0
M  END
>  <MODEL>
5

>  <REMARK>
 VINA RESULT:      -7.3      4.038      6.438
  Name = 
  6 active torsions:
  status: ('A' for Active; 'I' for Inactive)
    1  A    between atoms: C_1  and  C_6
    2  A    between atoms: O_2  and  C_15
    3  A    between atoms: C_11  and  C_20
    4  A    between atoms: C_12  and  C_28
    5  A    between atoms: C_14  and  C_20
    6  A    between atoms: C_29  and  C_33
                            x       y       z     vdW  Elec       q    Type
                         _______ _______ _______ _____ _____    ______ ____

>  <TORSDO>
F 6

$$$$
=
 OpenBabel10262419163D

 34 37  0  0  1  0  0  0  0  0999 V2000
  181.1640  179.6500  140.0050 C   0  0  2  0  0  3  0  0  0  0  0  0
  183.5410  179.3770  140.9690 C   0  0  2  0  0  3  0  0  0  0  0  0
  185.8230  178.5760  141.7350 C   0  0  1  0  0  3  0  0  0  0  0  0
  184.1290  179.3780  143.4270 C   0  0  0  0  0  2  0  0  0  0  0  0
  182.0120  179.3120  141.2410 C   0  0  2  0  0  3  0  0  0  0  0  0
  185.2960  179.2130  144.4080 C   0  0  0  0  0  2  0  0  0  0  0  0
  186.5880  177.7520  142.7760 C   0  0  0  0  0  2  0  0  0  0  0  0
  183.8180  178.8750  139.6030 N   0  0  2  0  0  0  0  0  0  0  0  0
  181.9510  180.5100  139.0280 C   0  0  0  0  0  2  0  0  0  0  0  0
  185.9870  177.9360  140.3780 C   0  0  0  0  0  2  0  0  0  0  0  0
  185.2680  178.7800  139.3320 C   0  0  1  0  0  3  0  0  0  0  0  0
  186.0160  177.8820  144.1970 C   0  0  1  0  0  3  0  0  0  0  0  0
  184.3370  178.6630  142.0790 C   0  0  1  0  0  3  0  0  0  0  0  0
  183.2670  179.8290  138.6140 C   0  0  0  0  0  2  0  0  0  0  0  0
  187.0070  177.9480  136.0630 C   0  0  0  0  0  0  0  0  0  0  0  0
  186.0890  177.0810  135.4630 C   0  0  0  0  0  3  0  0  0  0  0  0
  185.5400  178.1840  137.9790 C   0  0  0  0  0  0  0  0  0  0  0  0
  184.8970  176.7610  136.1200 C   0  0  0  0  0  3  0  0  0  0  0  0
  186.7340  178.4970  137.3190 C   0  0  0  0  0  3  0  0  0  0  0  0
  184.6220  177.3090  137.3760 C   0  0  0  0  0  3  0  0  0  0  0  0
  188.1640  178.2530  135.4280 F   0  0  0  0  0  0  0  0  0  0  0  0
  186.7320  177.6840  146.5760 O   0  0  0  0  0  1  0  0  0  0  0  0
  188.3230  177.4570  144.8910 C   0  0  0  0  0  0  0  0  0  0  0  0
  189.5620  177.2510  144.5410 C   0  0  0  0  0  0  0  0  0  0  0  0
  187.0780  177.6630  145.2310 C   0  0  0  0  0  0  0  0  0  0  0  0
  190.6390  178.1160  145.1080 C   0  0  0  0  0  2  0  0  0  0  0  0
  190.9360  179.2760  144.1750 C   0  0  0  0  0  1  0  0  0  0  0  0
  189.8740  176.1730  143.5560 C   0  0  0  0  0  2  0  0  0  0  0  0
  191.3430  175.7960  143.6290 C   0  0  0  0  0  1  0  0  0  0  0  0
  179.8940  180.3290  140.4030 C   0  0  0  0  0  0  0  0  0  0  0  0
  179.7760  180.8720  141.6740 O   0  0  0  0  0  1  0  0  0  0  0  0
  178.9310  180.4110  139.5950 O   0  0  0  0  0  0  0  0  0  0  0  0
  181.5770  178.1360  141.8980 O   0  0  0  0  0  0  0  0  0  0  0  0
  180.9130  177.3100  140.9740 C   0  0  0  0  0  1  0  0  0  0  0  0
  1 30  1  1  0  0  0
  1  5  1  0  0  0  0
  2  5  1  0  0  0  0
  2 13  1  0  0  0  0
  3 13  1  0  0  0  0
  3  7  1  0  0  0  0
  4  6  1  0  0  0  0
  5 33  1  0  0  0  0
  7 12  1  0  0  0  0
  8  2  1  0  0  0  0
  9  1  1  0  0  0  0
 10  3  1  0  0  0  0
 11  8  1  0  0  0  0
 11 10  1  0  0  0  0
 12  6  1  0  0  0  0
 12 25  1  0  0  0  0
 13  4  1  0  0  0  0
 14  9  1  0  0  0  0
 14  8  1  0  0  0  0
 15 19  1  0  0  0  0
 16 15  2  0  0  0  0
 16 18  1  0  0  0  0
 17 11  1  0  0  0  0
 18 20  2  0  0  0  0
 19 17  2  0  0  0  0
 20 17  1  0  0  0  0
 21 15  1  0  0  0  0
 23 25  2  0  0  0  0
 24 23  2  0  0  0  0
 24 26  1  0  0  0  0
 25 22  1  0  0  0  0
 27 26  1  0  0  0  0
 28 29  1  0  0  0  0
 28 24  1  0  0  0  0
 30 31  1  0  0  0  0
 32 30  2  0  0  0  0
 34 33  1  0  0  0  0
M  END
>  <MODEL>
6

>  <REMARK>
 VINA RESULT:      -7.2      3.043      8.322
  Name = 
  6 active torsions:
  status: ('A' for Active; 'I' for Inactive)
    1  A    between atoms: C_1  and  C_6
    2  A    between atoms: O_2  and  C_15
    3  A    between atoms: C_11  and  C_20
    4  A    between atoms: C_12  and  C_28
    5  A    between atoms: C_14  and  C_20
    6  A    between atoms: C_29  and  C_33
                            x       y       z     vdW  Elec       q    Type
                         _______ _______ _______ _____ _____    ______ ____

>  <TORSDO>
F 6

$$$$
=
 OpenBabel10262419163D

 34 37  0  0  1  0  0  0  0  0999 V2000
  190.3330  176.6460  146.4570 C   0  0  2  0  0  3  0  0  0  0  0  0
  189.8880  177.5170  144.0700 C   0  0  2  0  0  3  0  0  0  0  0  0
  189.0560  177.9690  141.7160 C   0  0  1  0  0  3  0  0  0  0  0  0
  191.4390  177.2250  142.0960 C   0  0  0  0  0  2  0  0  0  0  0  0
  190.6990  176.5420  144.9670 C   0  0  2  0  0  3  0  0  0  0  0  0
  191.5760  177.5000  140.5930 C   0  0  0  0  0  2  0  0  0  0  0  0
  189.0540  177.4830  140.2620 C   0  0  0  0  0  2  0  0  0  0  0  0
  188.5020  177.6220  144.5840 N   0  0  2  0  0  0  0  0  0  0  0  0
  189.7450  178.0120  146.7740 C   0  0  0  0  0  2  0  0  0  0  0  0
  187.6520  177.8990  142.2640 C   0  0  0  0  0  2  0  0  0  0  0  0
  187.6410  178.4280  143.6940 C   0  0  1  0  0  3  0  0  0  0  0  0
  190.4060  176.9060  139.8100 C   0  0  1  0  0  3  0  0  0  0  0  0
  189.9830  177.1190  142.5830 C   0  0  1  0  0  3  0  0  0  0  0  0
  188.5220  178.3170  145.8920 C   0  0  0  0  0  2  0  0  0  0  0  0
  184.6380  178.3540  146.0120 C   0  0  0  0  0  0  0  0  0  0  0  0
  183.5780  178.5050  145.1140 C   0  0  0  0  0  3  0  0  0  0  0  0
  186.2170  178.4510  144.1750 C   0  0  0  0  0  0  0  0  0  0  0  0
  183.8340  178.6320  143.7450 C   0  0  0  0  0  3  0  0  0  0  0  0
  185.9550  178.3290  145.5440 C   0  0  0  0  0  3  0  0  0  0  0  0
  185.1510  178.6080  143.2750 C   0  0  0  0  0  3  0  0  0  0  0  0
  184.3890  178.2360  147.3390 F   0  0  0  0  0  0  0  0  0  0  0  0
  189.7950  177.9600  137.6360 O   0  0  0  0  0  1  0  0  0  0  0  0
  191.5000  176.3760  137.6880 C   0  0  0  0  0  0  0  0  0  0  0  0
  192.4050  175.6840  137.0550 C   0  0  0  0  0  0  0  0  0  0  0  0
  190.5960  177.0660  138.3330 C   0  0  0  0  0  0  0  0  0  0  0  0
  192.0080  174.8630  135.8710 C   0  0  0  0  0  2  0  0  0  0  0  0
  190.8990  173.8960  136.2440 C   0  0  0  0  0  1  0  0  0  0  0  0
  193.8160  175.7030  137.5440 C   0  0  0  0  0  2  0  0  0  0  0  0
  194.3460  174.2880  137.6900 C   0  0  0  0  0  1  0  0  0  0  0  0
  191.5240  176.3700  147.3160 C   0  0  0  0  0  0  0  0  0  0  0  0
  192.0430  177.3810  148.1130 O   0  0  0  0  0  1  0  0  0  0  0  0
  192.0600  175.2300  147.3220 O   0  0  0  0  0  0  0  0  0  0  0  0
  190.7350  175.2040  144.5060 O   0  0  0  0  0  0  0  0  0  0  0  0
  192.0730  174.8080  144.3420 C   0  0  0  0  0  1  0  0  0  0  0  0
  1  9  1  0  0  0  0
  1 30  1  1  0  0  0
  2  8  1  0  0  0  0
  2  5  1  0  0  0  0
  3 10  1  0  0  0  0
  3 13  1  0  0  0  0
  4 13  1  0  0  0  0
  5  1  1  0  0  0  0
  6  4  1  0  0  0  0
  7  3  1  0  0  0  0
  8 14  1  0  0  0  0
 10 11  1  0  0  0  0
 11 17  1  0  0  0  0
 11  8  1  0  0  0  0
 12  7  1  0  0  0  0
 12  6  1  0  0  0  0
 13  2  1  0  0  0  0
 14  9  1  0  0  0  0
 15 21  1  0  0  0  0
 16 15  2  0  0  0  0
 17 19  2  0  0  0  0
 18 16  1  0  0  0  0
 19 15  1  0  0  0  0
 20 18  2  0  0  0  0
 20 17  1  0  0  0  0
 22 25  1  0  0  0  0
 23 25  2  0  0  0  0
 24 28  1  0  0  0  0
 24 23  2  0  0  0  0
 25 12  1  0  0  0  0
 26 27  1  0  0  0  0
 26 24  1  0  0  0  0
 28 29  1  0  0  0  0
 30 32  2  0  0  0  0
 30 31  1  0  0  0  0
 33  5  1  0  0  0  0
 34 33  1  0  0  0  0
M  END
>  <MODEL>
7

>  <REMARK>
 VINA RESULT:      -7.2      3.149      7.118
  Name = 
  6 active torsions:
  status: ('A' for Active; 'I' for Inactive)
    1  A    between atoms: C_1  and  C_6
    2  A    between atoms: O_2  and  C_15
    3  A    between atoms: C_11  and  C_20
    4  A    between atoms: C_12  and  C_28
    5  A    between atoms: C_14  and  C_20
    6  A    between atoms: C_29  and  C_33
                            x       y       z     vdW  Elec       q    Type
                         _______ _______ _______ _____ _____    ______ ____

>  <TORSDO>
F 6

$$$$
=
 OpenBabel10262419163D

 34 37  0  0  1  0  0  0  0  0999 V2000
  188.2760  178.0300  146.6800 C   0  0  2  0  0  3  0  0  0  0  0  0
  186.4270  177.8260  144.8930 C   0  0  2  0  0  3  0  0  0  0  0  0
  184.8570  178.0830  142.9170 C   0  0  1  0  0  3  0  0  0  0  0  0
  183.9720  178.2880  145.2730 C   0  0  0  0  0  2  0  0  0  0  0  0
  186.8440  178.4090  146.2720 C   0  0  2  0  0  3  0  0  0  0  0  0
  182.6120  178.3470  144.5660 C   0  0  0  0  0  2  0  0  0  0  0  0
  183.6910  178.8830  142.3260 C   0  0  0  0  0  2  0  0  0  0  0  0
  187.5910  177.8500  143.9770 N   0  0  2  0  0  0  0  0  0  0  0  0
  188.7170  176.7530  145.9820 C   0  0  0  0  0  2  0  0  0  0  0  0
  186.0770  178.2690  142.0490 C   0  0  0  0  0  2  0  0  0  0  0  0
  187.2250  177.4360  142.6060 C   0  0  1  0  0  3  0  0  0  0  0  0
  182.6460  179.3020  143.3730 C   0  0  1  0  0  3  0  0  0  0  0  0
  185.1730  178.5330  144.3420 C   0  0  1  0  0  3  0  0  0  0  0  0
  188.6040  176.8800  144.4530 C   0  0  0  0  0  2  0  0  0  0  0  0
  189.3000  178.3550  139.5640 C   0  0  0  0  0  0  0  0  0  0  0  0
  190.5430  177.8030  139.8880 C   0  0  0  0  0  3  0  0  0  0  0  0
  188.3910  177.5520  141.6640 C   0  0  0  0  0  0  0  0  0  0  0  0
  190.7140  177.1270  141.1000 C   0  0  0  0  0  3  0  0  0  0  0  0
  188.2260  178.2310  140.4510 C   0  0  0  0  0  3  0  0  0  0  0  0
  189.6420  177.0030  141.9880 C   0  0  0  0  0  3  0  0  0  0  0  0
  189.1370  179.0140  138.3920 F   0  0  0  0  0  0  0  0  0  0  0  0
  180.4420  180.4540  143.2170 O   0  0  0  0  0  1  0  0  0  0  0  0
  180.8910  178.6680  141.7930 C   0  0  0  0  0  0  0  0  0  0  0  0
  180.5030  177.8770  140.8320 C   0  0  0  0  0  0  0  0  0  0  0  0
  181.2900  179.4570  142.7550 C   0  0  0  0  0  0  0  0  0  0  0  0
  179.2170  177.1280  140.9710 C   0  0  0  0  0  2  0  0  0  0  0  0
  179.3990  175.6790  140.5590 C   0  0  0  0  0  1  0  0  0  0  0  0
  181.3660  177.7120  139.6250 C   0  0  0  0  0  2  0  0  0  0  0  0
  181.7920  179.0660  139.0880 C   0  0  0  0  0  1  0  0  0  0  0  0
  188.3840  177.8860  148.1630 C   0  0  0  0  0  0  0  0  0  0  0  0
  189.3760  178.5750  148.8480 O   0  0  0  0  0  1  0  0  0  0  0  0
  187.5840  177.1470  148.7960 O   0  0  0  0  0  0  0  0  0  0  0  0
  186.5770  179.7900  146.4350 O   0  0  0  0  0  0  0  0  0  0  0  0
  186.0560  180.0100  147.7220 C   0  0  0  0  0  1  0  0  0  0  0  0
  1 30  1  1  0  0  0
  2  5  1  0  0  0  0
  3 13  1  0  0  0  0
  5 33  1  0  0  0  0
  5  1  1  0  0  0  0
  6  4  1  0  0  0  0
  7  3  1  0  0  0  0
  7 12  1  0  0  0  0
  8 14  1  0  0  0  0
  8  2  1  0  0  0  0
  9  1  1  0  0  0  0
 10 11  1  0  0  0  0
 10  3  1  0  0  0  0
 11  8  1  0  0  0  0
 12  6  1  0  0  0  0
 13  2  1  0  0  0  0
 13  4  1  0  0  0  0
 14  9  1  0  0  0  0
 15 16  2  0  0  0  0
 15 19  1  0  0  0  0
 16 18  1  0  0  0  0
 17 20  1  0  0  0  0
 17 11  1  0  0  0  0
 18 20  2  0  0  0  0
 19 17  2  0  0  0  0
 21 15  1  0  0  0  0
 23 25  2  0  0  0  0
 24 26  1  0  0  0  0
 24 23  2  0  0  0  0
 25 22  1  0  0  0  0
 25 12  1  0  0  0  0
 27 26  1  0  0  0  0
 28 24  1  0  0  0  0
 29 28  1  0  0  0  0
 30 32  2  0  0  0  0
 30 31  1  0  0  0  0
 33 34  1  0  0  0  0
M  END
>  <MODEL>
8

>  <REMARK>
 VINA RESULT:      -7.2      2.161      3.187
  Name = 
  6 active torsions:
  status: ('A' for Active; 'I' for Inactive)
    1  A    between atoms: C_1  and  C_6
    2  A    between atoms: O_2  and  C_15
    3  A    between atoms: C_11  and  C_20
    4  A    between atoms: C_12  and  C_28
    5  A    between atoms: C_14  and  C_20
    6  A    between atoms: C_29  and  C_33
                            x       y       z     vdW  Elec       q    Type
                         _______ _______ _______ _____ _____    ______ ____

>  <TORSDO>
F 6

$$$$
=
 OpenBabel10262419163D

 34 37  0  0  1  0  0  0  0  0999 V2000
  193.0260  175.8240  138.7420 C   0  0  2  0  0  3  0  0  0  0  0  0
  190.7220  176.9740  138.5900 C   0  0  2  0  0  3  0  0  0  0  0  0
  188.2980  177.6950  138.7950 C   0  0  1  0  0  3  0  0  0  0  0  0
  189.2190  176.9700  136.5580 C   0  0  0  0  0  2  0  0  0  0  0  0
  191.6880  175.9150  137.9910 C   0  0  2  0  0  3  0  0  0  0  0  0
  187.8510  177.4340  136.0450 C   0  0  0  0  0  2  0  0  0  0  0  0
  186.8520  177.3940  138.3840 C   0  0  0  0  0  2  0  0  0  0  0  0
  190.8520  176.9780  140.0670 N   0  0  2  0  0  0  0  0  0  0  0  0
  193.3260  177.1240  139.4720 C   0  0  0  0  0  2  0  0  0  0  0  0
  188.4360  177.5210  140.2880 C   0  0  0  0  0  2  0  0  0  0  0  0
  189.8600  177.8670  140.7070 C   0  0  1  0  0  3  0  0  0  0  0  0
  186.7190  176.9130  136.9300 C   0  0  1  0  0  3  0  0  0  0  0  0
  189.2810  176.7670  138.0830 C   0  0  1  0  0  3  0  0  0  0  0  0
  192.1870  177.5040  140.4330 C   0  0  0  0  0  2  0  0  0  0  0  0
  188.9000  177.2260  144.3220 C   0  0  0  0  0  0  0  0  0  0  0  0
  190.0540  177.6290  145.0010 C   0  0  0  0  0  3  0  0  0  0  0  0
  189.9390  177.7940  142.2060 C   0  0  0  0  0  0  0  0  0  0  0  0
  191.1540  178.1120  144.2850 C   0  0  0  0  0  3  0  0  0  0  0  0
  188.8430  177.3070  142.9270 C   0  0  0  0  0  3  0  0  0  0  0  0
  191.0990  178.1930  142.8900 C   0  0  0  0  0  3  0  0  0  0  0  0
  187.8370  176.7530  145.0160 F   0  0  0  0  0  0  0  0  0  0  0  0
  185.2540  177.5060  135.0040 O   0  0  0  0  0  1  0  0  0  0  0  0
  184.3190  177.3410  137.1300 C   0  0  0  0  0  0  0  0  0  0  0  0
  183.2710  177.4180  137.9010 C   0  0  0  0  0  0  0  0  0  0  0  0
  185.3760  177.2610  136.3650 C   0  0  0  0  0  0  0  0  0  0  0  0
  182.4470  178.6650  137.9000 C   0  0  0  0  0  2  0  0  0  0  0  0
  183.0540  179.7040  138.8230 C   0  0  0  0  0  1  0  0  0  0  0  0
  182.9340  176.2700  138.7930 C   0  0  0  0  0  2  0  0  0  0  0  0
  183.1060  174.9550  138.0540 C   0  0  0  0  0  1  0  0  0  0  0  0
  194.1370  175.4730  137.8080 C   0  0  0  0  0  0  0  0  0  0  0  0
  194.4370  176.3210  136.7500 O   0  0  0  0  0  0  0  0  0  0  0  0
  194.8020  174.4160  137.9710 O   0  0  0  0  0  1  0  0  0  0  0  0
  191.1050  174.6460  137.7560 O   0  0  0  0  0  0  0  0  0  0  0  0
  191.4510  174.2110  136.4660 C   0  0  0  0  0  1  0  0  0  0  0  0
  1 30  1  6  0  0  0
  1  9  1  0  0  0  0
  2  8  1  0  0  0  0
  3 10  1  0  0  0  0
  4 13  1  0  0  0  0
  5  2  1  0  0  0  0
  5  1  1  0  0  0  0
  6  4  1  0  0  0  0
  6 12  1  0  0  0  0
  7  3  1  0  0  0  0
  8 14  1  0  0  0  0
  8 11  1  0  0  0  0
  9 14  1  0  0  0  0
 10 11  1  0  0  0  0
 11 17  1  0  0  0  0
 12  7  1  0  0  0  0
 13  2  1  0  0  0  0
 13  3  1  0  0  0  0
 15 16  1  0  0  0  0
 15 21  1  0  0  0  0
 17 20  2  0  0  0  0
 17 19  1  0  0  0  0
 18 16  2  0  0  0  0
 19 15  2  0  0  0  0
 20 18  1  0  0  0  0
 22 25  1  0  0  0  0
 23 24  2  0  0  0  0
 24 28  1  0  0  0  0
 25 12  1  0  0  0  0
 25 23  2  0  0  0  0
 26 24  1  0  0  0  0
 26 27  1  0  0  0  0
 29 28  1  0  0  0  0
 30 32  1  0  0  0  0
 31 30  2  0  0  0  0
 33  5  1  0  0  0  0
 34 33  1  0  0  0  0
M  END
>  <MODEL>
9

>  <REMARK>
 VINA RESULT:      -6.9      4.295      6.643
  Name = 
  6 active torsions:
  status: ('A' for Active; 'I' for Inactive)
    1  A    between atoms: C_1  and  C_6
    2  A    between atoms: O_2  and  C_15
    3  A    between atoms: C_11  and  C_20
    4  A    between atoms: C_12  and  C_28
    5  A    between atoms: C_14  and  C_20
    6  A    between atoms: C_29  and  C_33
                            x       y       z     vdW  Elec       q    Type
                         _______ _______ _______ _____ _____    ______ ____

>  <TORSDO>
F 6

$$$$
