=
 OpenBabel10262421153D

 32 37  0  0  1  0  0  0  0  0999 V2000
  185.9230  178.2540  143.7520 C   0  0  1  0  0  3  0  0  0  0  0  0
  185.7490  178.2350  141.2710 C   0  0  1  0  0  3  0  0  0  0  0  0
  185.3630  178.8780  145.0290 C   0  0  0  0  0  2  0  0  0  0  0  0
  185.2160  178.8740  142.5400 C   0  0  1  0  0  3  0  0  0  0  0  0
  184.9830  178.7720  140.0660 C   0  0  1  0  0  3  0  0  0  0  0  0
  189.4980  177.6870  138.0890 C   0  0  0  0  0  2  0  0  0  0  0  0
  187.2440  178.5080  141.1180 C   0  0  1  0  0  3  0  0  0  0  0  0
  187.3710  177.9130  137.3270 C   0  0  0  0  0  2  0  0  0  0  0  0
  186.8450  178.4710  138.6460 C   0  0  1  0  0  3  0  0  0  0  0  0
  183.7010  178.6240  142.6110 C   0  0  2  0  0  3  0  0  0  0  0  0
  185.4390  178.1110  138.8420 N   0  0  0  0  0  2  0  0  0  0  0  0
  183.0340  179.2050  141.5040 O   0  0  0  0  0  0  0  0  0  0  0  0
  183.1430  179.2100  143.9050 C   0  0  0  0  0  2  0  0  0  0  0  0
  187.9800  177.8830  142.3040 C   0  0  0  0  0  2  0  0  0  0  0  0
  187.4510  178.4440  143.6350 C   0  0  2  0  0  3  0  0  0  0  0  0
  187.7090  177.9120  139.7880 C   0  0  1  0  0  3  0  0  0  0  0  0
  183.4690  178.6080  140.2910 C   0  0  2  0  0  3  0  0  0  0  0  0
  183.8600  178.6170  145.1180 C   0  0  0  0  0  2  0  0  0  0  0  0
  188.6980  178.3440  137.1320 O   0  0  0  0  0  0  0  0  0  0  0  0
  189.1790  178.2030  139.4960 C   0  0  0  0  0  2  0  0  0  0  0  0
  190.3970  176.6690  145.6030 C   0  0  1  0  0  3  0  0  0  0  0  0
  189.4270  178.2460  148.8450 O   0  0  0  0  0  1  0  0  0  0  0  0
  191.6750  176.3520  145.1800 F   0  0  0  0  0  0  0  0  0  0  0  0
  188.0610  176.9680  147.1960 C   0  0  0  0  0  2  0  0  0  0  0  0
  188.2060  177.8290  144.7880 C   0  0  0  0  0  0  0  0  0  0  0  0
  190.4590  177.3830  146.9170 C   0  0  0  0  0  3  0  0  0  0  0  0
  187.5390  177.6250  145.9480 C   0  0  0  0  0  3  0  0  0  0  0  0
  189.6750  177.5090  144.5400 C   0  0  1  0  0  3  0  0  0  0  0  0
  190.4620  178.7710  144.2040 C   0  0  0  0  0  1  0  0  0  0  0  0
  189.3610  177.5490  147.6470 C   0  0  0  0  0  0  0  0  0  0  0  0
  182.9020  177.1980  140.0640 C   0  0  0  0  0  2  0  0  0  0  0  0
  181.5100  177.1820  140.1640 O   0  0  0  0  0  1  0  0  0  0  0  0
  1  3  1  1  0  0  0
  2  4  1  0  0  0  0
  3 18  1  0  0  0  0
  4 10  1  0  0  0  0
  4  1  1  0  0  0  0
  5 17  1  0  0  0  0
  5  2  1  0  0  0  0
  6 20  1  0  0  0  0
  7  2  1  0  0  0  0
  7 14  1  0  0  0  0
  8  9  1  0  0  0  0
  9 11  1  0  0  0  0
  9 16  1  0  0  0  0
 10 13  1  0  0  0  0
 11  5  1  0  0  0  0
 12 10  1  0  0  0  0
 13 18  1  0  0  0  0
 14 15  1  0  0  0  0
 15  1  1  0  0  0  0
 15 25  1  0  0  0  0
 16  7  1  0  0  0  0
 17 12  1  0  0  0  0
 19  8  1  0  0  0  0
 19  6  1  0  0  0  0
 20 16  1  0  0  0  0
 21 26  1  0  0  0  0
 23 21  1  0  0  0  0
 24 30  1  0  0  0  0
 25 27  2  0  0  0  0
 26 30  2  0  0  0  0
 27 24  1  0  0  0  0
 28 25  1  0  0  0  0
 28 21  1  0  0  0  0
 29 28  1  0  0  0  0
 30 22  1  0  0  0  0
 31 32  1  0  0  0  0
 31 17  1  0  0  0  0
M  END
>  <MODEL>
1

>  <REMARK>
 VINA RESULT:     -10.4      0.000      0.000
  Name = 
  2 active torsions:
  status: ('A' for Active; 'I' for Inactive)
    1  A    between atoms: C_13  and  C_29
    2  A    between atoms: C_16  and  C_27
                            x       y       z     vdW  Elec       q    Type
                         _______ _______ _______ _____ _____    ______ ____

>  <TORSDO>
F 2

$$$$
=
 OpenBabel10262421153D

 32 37  0  0  1  0  0  0  0  0999 V2000
  187.4030  178.0030  141.2490 C   0  0  1  0  0  3  0  0  0  0  0  0
  188.3640  177.4380  139.0260 C   0  0  1  0  0  3  0  0  0  0  0  0
  186.4420  178.9370  141.9840 C   0  0  0  0  0  2  0  0  0  0  0  0
  187.4340  178.3840  139.7640 C   0  0  1  0  0  3  0  0  0  0  0  0
  188.3270  177.7440  137.5320 C   0  0  1  0  0  3  0  0  0  0  0  0
  192.9900  175.9170  138.1520 C   0  0  0  0  0  2  0  0  0  0  0  0
  189.7900  177.5610  139.5610 C   0  0  1  0  0  3  0  0  0  0  0  0
  191.5080  176.1200  136.4440 C   0  0  0  0  0  2  0  0  0  0  0  0
  190.5470  176.9970  137.2410 C   0  0  1  0  0  3  0  0  0  0  0  0
  186.0320  178.2670  139.1450 C   0  0  2  0  0  3  0  0  0  0  0  0
  189.1660  176.7940  136.8000 N   0  0  0  0  0  2  0  0  0  0  0  0
  186.0440  178.6310  137.7760 O   0  0  0  0  0  0  0  0  0  0  0  0
  185.0590  179.1690  139.9010 C   0  0  0  0  0  2  0  0  0  0  0  0
  189.7950  177.1670  141.0390 C   0  0  0  0  0  2  0  0  0  0  0  0
  188.8270  178.0500  141.8440 C   0  0  2  0  0  3  0  0  0  0  0  0
  190.6950  176.6480  138.7310 C   0  0  1  0  0  3  0  0  0  0  0  0
  186.8710  177.7470  137.0330 C   0  0  2  0  0  3  0  0  0  0  0  0
  185.0410  178.8130  141.3870 C   0  0  0  0  0  2  0  0  0  0  0  0
  192.8320  176.3980  136.8360 O   0  0  0  0  0  0  0  0  0  0  0  0
  192.1650  176.7580  139.1310 C   0  0  0  0  0  2  0  0  0  0  0  0
  190.3360  177.1040  145.3840 C   0  0  1  0  0  3  0  0  0  0  0  0
  187.3480  178.4000  147.2090 O   0  0  0  0  0  1  0  0  0  0  0  0
  191.6500  177.1240  145.8170 F   0  0  0  0  0  0  0  0  0  0  0  0
  187.5100  176.8030  145.3000 C   0  0  0  0  0  2  0  0  0  0  0  0
  188.8640  177.6570  143.3010 C   0  0  0  0  0  0  0  0  0  0  0  0
  189.4660  177.8190  146.3700 C   0  0  0  0  0  3  0  0  0  0  0  0
  187.7020  177.2960  143.8930 C   0  0  0  0  0  3  0  0  0  0  0  0
  190.2250  177.7240  143.9840 C   0  0  1  0  0  3  0  0  0  0  0  0
  190.7810  179.1440  143.9610 C   0  0  0  0  0  1  0  0  0  0  0  0
  188.1430  177.7020  146.3120 C   0  0  0  0  0  0  0  0  0  0  0  0
  186.2360  176.3670  136.7990 C   0  0  0  0  0  2  0  0  0  0  0  0
  185.9750  176.1440  135.4460 O   0  0  0  0  0  1  0  0  0  0  0  0
  1 15  1  0  0  0  0
  1  3  1  1  0  0  0
  2  7  1  0  0  0  0
  2  4  1  0  0  0  0
  4  1  1  0  0  0  0
  5  2  1  0  0  0  0
  6 20  1  0  0  0  0
  7 14  1  0  0  0  0
  8 19  1  0  0  0  0
  8  9  1  0  0  0  0
  9 16  1  0  0  0  0
 10  4  1  0  0  0  0
 10 13  1  0  0  0  0
 11  9  1  0  0  0  0
 11  5  1  0  0  0  0
 12 10  1  0  0  0  0
 13 18  1  0  0  0  0
 14 15  1  0  0  0  0
 15 25  1  0  0  0  0
 16 20  1  0  0  0  0
 16  7  1  0  0  0  0
 17  5  1  0  0  0  0
 17 12  1  0  0  0  0
 18  3  1  0  0  0  0
 19  6  1  0  0  0  0
 21 23  1  0  0  0  0
 21 26  1  0  0  0  0
 24 30  1  0  0  0  0
 25 27  2  0  0  0  0
 25 28  1  0  0  0  0
 27 24  1  0  0  0  0
 28 21  1  0  0  0  0
 29 28  1  0  0  0  0
 30 26  2  0  0  0  0
 30 22  1  0  0  0  0
 31 17  1  0  0  0  0
 32 31  1  0  0  0  0
M  END
>  <MODEL>
2

>  <REMARK>
 VINA RESULT:     -10.0      2.215      3.495
  Name = 
  2 active torsions:
  status: ('A' for Active; 'I' for Inactive)
    1  A    between atoms: C_13  and  C_29
    2  A    between atoms: C_16  and  C_27
                            x       y       z     vdW  Elec       q    Type
                         _______ _______ _______ _____ _____    ______ ____

>  <TORSDO>
F 2

$$$$
=
 OpenBabel10262421153D

 32 37  0  0  1  0  0  0  0  0999 V2000
  186.9390  177.9590  141.9660 C   0  0  1  0  0  3  0  0  0  0  0  0
  188.5470  177.5530  143.8190 C   0  0  1  0  0  3  0  0  0  0  0  0
  186.7850  178.5480  140.5650 C   0  0  0  0  0  2  0  0  0  0  0  0
  188.3830  178.1640  142.4400 C   0  0  1  0  0  3  0  0  0  0  0  0
  190.0040  177.6630  144.2590 C   0  0  1  0  0  3  0  0  0  0  0  0
  187.5300  177.7510  148.6570 C   0  0  0  0  0  2  0  0  0  0  0  0
  187.6320  178.2460  144.8270 C   0  0  1  0  0  3  0  0  0  0  0  0
  189.6190  177.2130  147.9460 C   0  0  0  0  0  2  0  0  0  0  0  0
  189.3940  177.7560  146.5380 C   0  0  1  0  0  3  0  0  0  0  0  0
  189.3700  177.4760  141.4830 C   0  0  2  0  0  3  0  0  0  0  0  0
  190.1910  177.0150  145.5580 N   0  0  0  0  0  2  0  0  0  0  0  0
  190.7100  177.6710  141.9020 O   0  0  0  0  0  0  0  0  0  0  0  0
  189.1930  178.0330  140.0730 C   0  0  0  0  0  2  0  0  0  0  0  0
  186.1800  178.0420  144.3910 C   0  0  0  0  0  2  0  0  0  0  0  0
  185.9510  178.5880  142.9720 C   0  0  2  0  0  3  0  0  0  0  0  0
  187.8950  177.6460  146.2090 C   0  0  1  0  0  3  0  0  0  0  0  0
  190.9250  177.0780  143.1740 C   0  0  2  0  0  3  0  0  0  0  0  0
  187.7490  177.8560  139.6020 C   0  0  0  0  0  2  0  0  0  0  0  0
  188.9020  177.9980  148.8710 O   0  0  0  0  0  0  0  0  0  0  0  0
  187.0870  178.3300  147.3100 C   0  0  0  0  0  2  0  0  0  0  0  0
  182.0190  178.2710  143.3460 C   0  0  1  0  0  3  0  0  0  0  0  0
  181.4060  179.4800  139.8680 O   0  0  0  0  0  1  0  0  0  0  0  0
  181.2180  178.4800  144.4540 F   0  0  0  0  0  0  0  0  0  0  0  0
  182.9040  177.6740  140.7100 C   0  0  0  0  0  2  0  0  0  0  0  0
  184.5090  178.3940  142.5730 C   0  0  0  0  0  0  0  0  0  0  0  0
  181.4650  179.0150  142.1710 C   0  0  0  0  0  3  0  0  0  0  0  0
  184.2470  177.9970  141.3060 C   0  0  0  0  0  3  0  0  0  0  0  0
  183.4660  178.6880  143.6450 C   0  0  1  0  0  3  0  0  0  0  0  0
  183.5400  180.1420  144.0980 C   0  0  0  0  0  1  0  0  0  0  0  0
  181.9010  178.7560  140.9430 C   0  0  0  0  0  0  0  0  0  0  0  0
  191.0220  175.5450  143.1260 C   0  0  0  0  0  2  0  0  0  0  0  0
  192.0500  175.0700  143.9410 O   0  0  0  0  0  1  0  0  0  0  0  0
  1  3  1  6  0  0  0
  1  4  1  0  0  0  0
  1 15  1  0  0  0  0
  2  5  1  0  0  0  0
  2  7  1  0  0  0  0
  4  2  1  0  0  0  0
  5 11  1  0  0  0  0
  6 19  1  0  0  0  0
  7 16  1  0  0  0  0
  8 19  1  0  0  0  0
  9  8  1  0  0  0  0
 10 12  1  0  0  0  0
 10  4  1  0  0  0  0
 11  9  1  0  0  0  0
 12 17  1  0  0  0  0
 13 10  1  0  0  0  0
 14  7  1  0  0  0  0
 15 14  1  0  0  0  0
 16  9  1  0  0  0  0
 16 20  1  0  0  0  0
 17  5  1  0  0  0  0
 18 13  1  0  0  0  0
 18  3  1  0  0  0  0
 20  6  1  0  0  0  0
 21 28  1  0  0  0  0
 21 23  1  0  0  0  0
 22 30  1  0  0  0  0
 24 30  1  0  0  0  0
 24 27  1  0  0  0  0
 25 15  1  0  0  0  0
 25 28  1  0  0  0  0
 26 21  1  0  0  0  0
 27 25  2  0  0  0  0
 28 29  1  0  0  0  0
 30 26  2  0  0  0  0
 31 17  1  0  0  0  0
 31 32  1  0  0  0  0
M  END
>  <MODEL>
3

>  <REMARK>
 VINA RESULT:      -9.9      3.060      7.834
  Name = 
  2 active torsions:
  status: ('A' for Active; 'I' for Inactive)
    1  A    between atoms: C_13  and  C_29
    2  A    between atoms: C_16  and  C_27
                            x       y       z     vdW  Elec       q    Type
                         _______ _______ _______ _____ _____    ______ ____

>  <TORSDO>
F 2

$$$$
=
 OpenBabel10262421153D

 32 37  0  0  1  0  0  0  0  0999 V2000
  186.9810  177.9680  144.1510 C   0  0  1  0  0  3  0  0  0  0  0  0
  189.1100  177.6810  142.8990 C   0  0  1  0  0  3  0  0  0  0  0  0
  186.2100  177.5440  145.4000 C   0  0  0  0  0  2  0  0  0  0  0  0
  188.3290  177.2380  144.1220 C   0  0  1  0  0  3  0  0  0  0  0  0
  190.4930  177.0370  142.9120 C   0  0  1  0  0  3  0  0  0  0  0  0
  189.6110  177.6160  137.9770 C   0  0  0  0  0  2  0  0  0  0  0  0
  188.3610  177.3100  141.6200 C   0  0  1  0  0  3  0  0  0  0  0  0
  191.4320  177.4090  139.3180 C   0  0  0  0  0  2  0  0  0  0  0  0
  190.6130  177.0530  140.5550 C   0  0  1  0  0  3  0  0  0  0  0  0
  189.1550  177.5760  145.3740 C   0  0  2  0  0  3  0  0  0  0  0  0
  191.2830  177.5100  141.7740 N   0  0  0  0  0  2  0  0  0  0  0  0
  190.3980  176.8960  145.3670 O   0  0  0  0  0  0  0  0  0  0  0  0
  188.3720  177.1910  146.6270 C   0  0  0  0  0  2  0  0  0  0  0  0
  187.0170  178.0400  141.6100 C   0  0  0  0  0  2  0  0  0  0  0  0
  186.1900  177.6840  142.8560 C   0  0  2  0  0  3  0  0  0  0  0  0
  189.2270  177.7060  140.4220 C   0  0  1  0  0  3  0  0  0  0  0  0
  191.1850  177.3080  144.2600 C   0  0  2  0  0  3  0  0  0  0  0  0
  187.0160  177.8940  146.6510 C   0  0  0  0  0  2  0  0  0  0  0  0
  190.8020  176.8860  138.1710 O   0  0  0  0  0  0  0  0  0  0  0  0
  188.6050  177.3020  139.0880 C   0  0  0  0  0  2  0  0  0  0  0  0
  183.0150  179.5050  141.3380 C   0  0  1  0  0  3  0  0  0  0  0  0
  180.8320  178.4680  144.1840 O   0  0  0  0  0  1  0  0  0  0  0  0
  182.6390  179.6690  140.0170 F   0  0  0  0  0  0  0  0  0  0  0  0
  183.0560  179.5960  144.1800 C   0  0  0  0  0  2  0  0  0  0  0  0
  184.8620  178.3980  142.8130 C   0  0  0  0  0  0  0  0  0  0  0  0
  181.8600  178.9790  142.1320 C   0  0  0  0  0  3  0  0  0  0  0  0
  184.3220  178.8090  143.9850 C   0  0  0  0  0  3  0  0  0  0  0  0
  184.2340  178.5770  141.4360 C   0  0  1  0  0  3  0  0  0  0  0  0
  183.9580  177.2280  140.7810 C   0  0  0  0  0  1  0  0  0  0  0  0
  181.8930  178.9940  143.4610 C   0  0  0  0  0  0  0  0  0  0  0  0
  191.7990  178.7060  144.4320 C   0  0  0  0  0  2  0  0  0  0  0  0
  190.9220  179.7080  144.0130 O   0  0  0  0  0  1  0  0  0  0  0  0
  1  3  1  1  0  0  0
  2  5  1  0  0  0  0
  2  4  1  0  0  0  0
  3 18  1  0  0  0  0
  4  1  1  0  0  0  0
  4 10  1  0  0  0  0
  5 17  1  0  0  0  0
  6 19  1  0  0  0  0
  6 20  1  0  0  0  0
  7  2  1  0  0  0  0
  8  9  1  0  0  0  0
  9 11  1  0  0  0  0
 10 13  1  0  0  0  0
 11  5  1  0  0  0  0
 12 10  1  0  0  0  0
 13 18  1  0  0  0  0
 14  7  1  0  0  0  0
 14 15  1  0  0  0  0
 15  1  1  0  0  0  0
 16  9  1  0  0  0  0
 16  7  1  0  0  0  0
 17 31  1  0  0  0  0
 17 12  1  0  0  0  0
 19  8  1  0  0  0  0
 20 16  1  0  0  0  0
 21 28  1  0  0  0  0
 21 26  1  0  0  0  0
 23 21  1  0  0  0  0
 25 15  1  0  0  0  0
 25 27  2  0  0  0  0
 26 30  2  0  0  0  0
 27 24  1  0  0  0  0
 28 25  1  0  0  0  0
 29 28  1  0  0  0  0
 30 24  1  0  0  0  0
 30 22  1  0  0  0  0
 32 31  1  0  0  0  0
M  END
>  <MODEL>
4

>  <REMARK>
 VINA RESULT:      -9.4      2.897      6.296
  Name = 
  2 active torsions:
  status: ('A' for Active; 'I' for Inactive)
    1  A    between atoms: C_13  and  C_29
    2  A    between atoms: C_16  and  C_27
                            x       y       z     vdW  Elec       q    Type
                         _______ _______ _______ _____ _____    ______ ____

>  <TORSDO>
F 2

$$$$
=
 OpenBabel10262421153D

 32 37  0  0  1  0  0  0  0  0999 V2000
  185.9080  178.0950  140.2740 C   0  0  1  0  0  3  0  0  0  0  0  0
  187.0580  177.8820  142.4690 C   0  0  1  0  0  3  0  0  0  0  0  0
  186.0570  178.6040  138.8400 C   0  0  0  0  0  2  0  0  0  0  0  0
  187.1900  178.4140  141.0540 C   0  0  1  0  0  3  0  0  0  0  0  0
  188.3630  178.1050  143.2240 C   0  0  1  0  0  3  0  0  0  0  0  0
  184.9300  178.2530  146.9210 C   0  0  0  0  0  2  0  0  0  0  0  0
  185.8990  178.5650  143.1930 C   0  0  1  0  0  3  0  0  0  0  0  0
  187.1510  177.8130  146.7440 C   0  0  0  0  0  2  0  0  0  0  0  0
  187.2340  178.2710  145.2910 C   0  0  1  0  0  3  0  0  0  0  0  0
  188.4060  177.7430  140.3950 C   0  0  2  0  0  3  0  0  0  0  0  0
  188.2740  177.5340  144.5690 N   0  0  0  0  0  2  0  0  0  0  0  0
  189.5990  178.0420  141.0970 O   0  0  0  0  0  0  0  0  0  0  0  0
  188.5350  178.2180  138.9490 C   0  0  0  0  0  2  0  0  0  0  0  0
  184.6000  178.2490  142.4490 C   0  0  0  0  0  2  0  0  0  0  0  0
  184.6820  178.7090  140.9840 C   0  0  2  0  0  3  0  0  0  0  0  0
  185.8610  178.0510  144.6340 C   0  0  1  0  0  3  0  0  0  0  0  0
  189.5410  177.5270  142.4190 C   0  0  2  0  0  3  0  0  0  0  0  0
  187.2520  177.9280  138.1710 C   0  0  0  0  0  2  0  0  0  0  0  0
  186.2000  178.5950  147.4290 O   0  0  0  0  0  0  0  0  0  0  0  0
  184.7860  178.7360  145.4740 C   0  0  0  0  0  2  0  0  0  0  0  0
  181.1380  179.3340  139.3260 C   0  0  1  0  0  3  0  0  0  0  0  0
  181.5160  176.4450  136.9910 O   0  0  0  0  0  1  0  0  0  0  0  0
  180.4760  180.5240  139.0790 F   0  0  0  0  0  0  0  0  0  0  0  0
  181.7920  176.5700  139.4660 C   0  0  0  0  0  2  0  0  0  0  0  0
  183.3850  178.4060  140.2760 C   0  0  0  0  0  0  0  0  0  0  0  0
  181.1440  178.4900  138.0900 C   0  0  0  0  0  3  0  0  0  0  0  0
  183.0560  177.1080  140.0780 C   0  0  0  0  0  3  0  0  0  0  0  0
  182.5630  179.6080  139.8260 C   0  0  1  0  0  3  0  0  0  0  0  0
  183.3430  180.4640  138.8340 C   0  0  0  0  0  1  0  0  0  0  0  0
  181.4780  177.2060  138.1510 C   0  0  0  0  0  0  0  0  0  0  0  0
  189.7220  176.0030  142.4910 C   0  0  0  0  0  2  0  0  0  0  0  0
  190.8600  175.6540  143.2190 O   0  0  0  0  0  1  0  0  0  0  0  0
  1  3  1  6  0  0  0
  1 15  1  0  0  0  0
  1  4  1  0  0  0  0
  2  7  1  0  0  0  0
  2  5  1  0  0  0  0
  4  2  1  0  0  0  0
  5 11  1  0  0  0  0
  6 19  1  0  0  0  0
  7 16  1  0  0  0  0
  8 19  1  0  0  0  0
  9  8  1  0  0  0  0
 10  4  1  0  0  0  0
 10 12  1  0  0  0  0
 11  9  1  0  0  0  0
 12 17  1  0  0  0  0
 13 10  1  0  0  0  0
 14  7  1  0  0  0  0
 15 14  1  0  0  0  0
 16  9  1  0  0  0  0
 16 20  1  0  0  0  0
 17 31  1  0  0  0  0
 17  5  1  0  0  0  0
 18  3  1  0  0  0  0
 18 13  1  0  0  0  0
 20  6  1  0  0  0  0
 21 28  1  0  0  0  0
 22 30  1  0  0  0  0
 23 21  1  0  0  0  0
 24 27  1  0  0  0  0
 25 15  1  0  0  0  0
 26 30  2  0  0  0  0
 26 21  1  0  0  0  0
 27 25  2  0  0  0  0
 28 25  1  0  0  0  0
 29 28  1  0  0  0  0
 30 24  1  0  0  0  0
 31 32  1  0  0  0  0
M  END
>  <MODEL>
5

>  <REMARK>
 VINA RESULT:      -9.3      3.339      8.216
  Name = 
  2 active torsions:
  status: ('A' for Active; 'I' for Inactive)
    1  A    between atoms: C_13  and  C_29
    2  A    between atoms: C_16  and  C_27
                            x       y       z     vdW  Elec       q    Type
                         _______ _______ _______ _____ _____    ______ ____

>  <TORSDO>
F 2

$$$$
=
 OpenBabel10262421153D

 32 37  0  0  1  0  0  0  0  0999 V2000
  187.8800  178.1220  141.0400 C   0  0  1  0  0  3  0  0  0  0  0  0
  188.6740  177.2350  138.8570 C   0  0  1  0  0  3  0  0  0  0  0  0
  186.9370  179.1260  141.7020 C   0  0  0  0  0  2  0  0  0  0  0  0
  187.7620  178.2530  139.5170 C   0  0  1  0  0  3  0  0  0  0  0  0
  188.4920  177.2890  137.3440 C   0  0  1  0  0  3  0  0  0  0  0  0
  193.2840  175.7730  137.8090 C   0  0  0  0  0  2  0  0  0  0  0  0
  190.1320  177.5010  139.2290 C   0  0  1  0  0  3  0  0  0  0  0  0
  191.6500  175.6330  136.2370 C   0  0  0  0  0  2  0  0  0  0  0  0
  190.7160  176.5910  136.9690 C   0  0  1  0  0  3  0  0  0  0  0  0
  186.3200  177.9810  139.0590 C   0  0  2  0  0  3  0  0  0  0  0  0
  189.3150  176.2640  136.6980 N   0  0  0  0  0  2  0  0  0  0  0  0
  186.1950  178.1130  137.6540 O   0  0  0  0  0  0  0  0  0  0  0  0
  185.3690  178.9560  139.7480 C   0  0  0  0  0  2  0  0  0  0  0  0
  190.2860  177.3570  140.7440 C   0  0  0  0  0  2  0  0  0  0  0  0
  189.3450  178.3220  141.4840 C   0  0  2  0  0  3  0  0  0  0  0  0
  191.0110  176.4990  138.4760 C   0  0  1  0  0  3  0  0  0  0  0  0
  187.0000  177.1510  136.9900 C   0  0  2  0  0  3  0  0  0  0  0  0
  185.4980  178.8500  141.2680 C   0  0  0  0  0  2  0  0  0  0  0  0
  192.9870  176.0230  136.4530 O   0  0  0  0  0  0  0  0  0  0  0  0
  192.5010  176.7310  138.7130 C   0  0  0  0  0  2  0  0  0  0  0  0
  188.4680  177.4850  145.2570 C   0  0  1  0  0  3  0  0  0  0  0  0
  192.0270  176.7520  146.1130 O   0  0  0  0  0  1  0  0  0  0  0  0
  187.3420  176.8830  145.7880 F   0  0  0  0  0  0  0  0  0  0  0  0
  191.0100  178.7320  144.9900 C   0  0  0  0  0  2  0  0  0  0  0  0
  189.5290  178.1780  142.9740 C   0  0  0  0  0  0  0  0  0  0  0  0
  189.6990  176.8250  145.7940 C   0  0  0  0  0  3  0  0  0  0  0  0
  190.6500  178.6940  143.5310 C   0  0  0  0  0  3  0  0  0  0  0  0
  188.4280  177.4350  143.7230 C   0  0  1  0  0  3  0  0  0  0  0  0
  188.2930  176.0030  143.2190 C   0  0  0  0  0  1  0  0  0  0  0  0
  190.8910  177.3930  145.6430 C   0  0  0  0  0  0  0  0  0  0  0  0
  186.4240  175.7280  137.0420 C   0  0  0  0  0  2  0  0  0  0  0  0
  185.0950  175.6960  136.6150 O   0  0  0  0  0  1  0  0  0  0  0  0
  1 15  1  0  0  0  0
  1  3  1  1  0  0  0
  2  7  1  0  0  0  0
  2  4  1  0  0  0  0
  4  1  1  0  0  0  0
  5  2  1  0  0  0  0
  6 20  1  0  0  0  0
  7 14  1  0  0  0  0
  8 19  1  0  0  0  0
  8  9  1  0  0  0  0
  9 16  1  0  0  0  0
 10  4  1  0  0  0  0
 10 13  1  0  0  0  0
 11  9  1  0  0  0  0
 11  5  1  0  0  0  0
 12 10  1  0  0  0  0
 13 18  1  0  0  0  0
 14 15  1  0  0  0  0
 15 25  1  0  0  0  0
 16 20  1  0  0  0  0
 16  7  1  0  0  0  0
 17 31  1  0  0  0  0
 17  5  1  0  0  0  0
 17 12  1  0  0  0  0
 18  3  1  0  0  0  0
 19  6  1  0  0  0  0
 21 23  1  0  0  0  0
 21 26  1  0  0  0  0
 24 30  1  0  0  0  0
 25 27  2  0  0  0  0
 25 28  1  0  0  0  0
 27 24  1  0  0  0  0
 28 21  1  0  0  0  0
 29 28  1  0  0  0  0
 30 26  2  0  0  0  0
 30 22  1  0  0  0  0
 32 31  1  0  0  0  0
M  END
>  <MODEL>
6

>  <REMARK>
 VINA RESULT:      -9.2      2.571      4.003
  Name = 
  2 active torsions:
  status: ('A' for Active; 'I' for Inactive)
    1  A    between atoms: C_13  and  C_29
    2  A    between atoms: C_16  and  C_27
                            x       y       z     vdW  Elec       q    Type
                         _______ _______ _______ _____ _____    ______ ____

>  <TORSDO>
F 2

$$$$
=
 OpenBabel10262421153D

 32 37  0  0  1  0  0  0  0  0999 V2000
  186.0670  178.4880  142.3800 C   0  0  1  0  0  3  0  0  0  0  0  0
  183.7520  178.8840  141.5630 C   0  0  1  0  0  3  0  0  0  0  0  0
  187.4160  177.8610  142.0300 C   0  0  0  0  0  2  0  0  0  0  0  0
  185.0830  178.2350  141.2310 C   0  0  1  0  0  3  0  0  0  0  0  0
  182.7960  178.7230  140.3850 C   0  0  1  0  0  3  0  0  0  0  0  0
  179.6470  178.8890  144.3260 C   0  0  0  0  0  2  0  0  0  0  0  0
  183.1520  178.2650  142.8250 C   0  0  1  0  0  3  0  0  0  0  0  0
  179.5300  179.3110  142.0970 C   0  0  0  0  0  2  0  0  0  0  0  0
  180.9120  178.7320  141.8080 C   0  0  1  0  0  3  0  0  0  0  0  0
  185.6090  178.8470  139.9230 C   0  0  2  0  0  3  0  0  0  0  0  0
  181.5310  179.4050  140.6640 N   0  0  0  0  0  2  0  0  0  0  0  0
  184.7150  178.6070  138.8500 O   0  0  0  0  0  0  0  0  0  0  0  0
  186.9750  178.2530  139.5890 C   0  0  0  0  0  2  0  0  0  0  0  0
  184.1040  178.5190  143.9950 C   0  0  0  0  0  2  0  0  0  0  0  0
  185.4970  177.9370  143.7050 C   0  0  2  0  0  3  0  0  0  0  0  0
  181.7800  178.8970  143.0660 C   0  0  1  0  0  3  0  0  0  0  0  0
  183.4640  179.2310  139.0950 C   0  0  2  0  0  3  0  0  0  0  0  0
  187.9550  178.4780  140.7400 C   0  0  0  0  0  2  0  0  0  0  0  0
  178.9310  178.5900  143.1490 O   0  0  0  0  0  0  0  0  0  0  0  0
  181.0540  178.2870  144.2620 C   0  0  0  0  0  2  0  0  0  0  0  0
  186.7760  179.4090  147.1540 C   0  0  1  0  0  3  0  0  0  0  0  0
  188.9150  176.4280  147.8440 O   0  0  0  0  0  1  0  0  0  0  0  0
  186.1100  180.1890  148.0820 F   0  0  0  0  0  0  0  0  0  0  0  0
  188.7740  177.8840  145.8250 C   0  0  0  0  0  2  0  0  0  0  0  0
  186.4110  178.1810  144.8810 C   0  0  0  0  0  0  0  0  0  0  0  0
  187.4310  178.2520  147.8410 C   0  0  0  0  0  3  0  0  0  0  0  0
  187.6750  177.7020  144.8140 C   0  0  0  0  0  3  0  0  0  0  0  0
  185.8100  178.9390  146.0580 C   0  0  1  0  0  3  0  0  0  0  0  0
  184.6270  178.1810  146.6510 C   0  0  0  0  0  1  0  0  0  0  0  0
  188.3440  177.5210  147.2080 C   0  0  0  0  0  0  0  0  0  0  0  0
  183.4930  180.7560  138.9060 C   0  0  0  0  0  2  0  0  0  0  0  0
  182.3050  181.2270  138.3440 O   0  0  0  0  0  1  0  0  0  0  0  0
  1  3  1  6  0  0  0
  1 15  1  0  0  0  0
  2  7  1  0  0  0  0
  4  2  1  0  0  0  0
  4  1  1  0  0  0  0
  5 11  1  0  0  0  0
  5  2  1  0  0  0  0
  7 16  1  0  0  0  0
  7 14  1  0  0  0  0
  8 19  1  0  0  0  0
  9  8  1  0  0  0  0
  9 16  1  0  0  0  0
 10  4  1  0  0  0  0
 11  9  1  0  0  0  0
 12 17  1  0  0  0  0
 12 10  1  0  0  0  0
 13 10  1  0  0  0  0
 13 18  1  0  0  0  0
 15 14  1  0  0  0  0
 15 25  1  0  0  0  0
 16 20  1  0  0  0  0
 17  5  1  0  0  0  0
 18  3  1  0  0  0  0
 19  6  1  0  0  0  0
 20  6  1  0  0  0  0
 21 26  1  0  0  0  0
 21 23  1  0  0  0  0
 24 30  1  0  0  0  0
 25 28  1  0  0  0  0
 27 25  2  0  0  0  0
 27 24  1  0  0  0  0
 28 29  1  0  0  0  0
 28 21  1  0  0  0  0
 30 26  2  0  0  0  0
 30 22  1  0  0  0  0
 31 17  1  0  0  0  0
 32 31  1  0  0  0  0
M  END
>  <MODEL>
7

>  <REMARK>
 VINA RESULT:      -8.9      2.487      5.348
  Name = 
  2 active torsions:
  status: ('A' for Active; 'I' for Inactive)
    1  A    between atoms: C_13  and  C_29
    2  A    between atoms: C_16  and  C_27
                            x       y       z     vdW  Elec       q    Type
                         _______ _______ _______ _____ _____    ______ ____

>  <TORSDO>
F 2

$$$$
=
 OpenBabel10262421153D

 32 37  0  0  1  0  0  0  0  0999 V2000
  186.6980  178.0340  140.3940 C   0  0  1  0  0  3  0  0  0  0  0  0
  187.6450  177.7290  142.6740 C   0  0  1  0  0  3  0  0  0  0  0  0
  186.9960  178.5480  138.9860 C   0  0  0  0  0  2  0  0  0  0  0  0
  187.9260  178.2660  141.2830 C   0  0  1  0  0  3  0  0  0  0  0  0
  188.8930  177.8650  143.5390 C   0  0  1  0  0  3  0  0  0  0  0  0
  185.1770  178.1830  146.9390 C   0  0  0  0  0  2  0  0  0  0  0  0
  186.4720  178.4740  143.3100 C   0  0  1  0  0  3  0  0  0  0  0  0
  187.3750  177.6110  146.9400 C   0  0  0  0  0  2  0  0  0  0  0  0
  187.6070  178.0780  145.5070 C   0  0  1  0  0  3  0  0  0  0  0  0
  189.1510  177.5300  140.7170 C   0  0  2  0  0  3  0  0  0  0  0  0
  188.6570  177.2870  144.8630 N   0  0  0  0  0  2  0  0  0  0  0  0
  190.2970  177.7480  141.5210 O   0  0  0  0  0  0  0  0  0  0  0  0
  189.4290  178.0100  139.2950 C   0  0  0  0  0  2  0  0  0  0  0  0
  185.2240  178.2440  142.4550 C   0  0  0  0  0  2  0  0  0  0  0  0
  185.4550  178.7140  141.0100 C   0  0  2  0  0  3  0  0  0  0  0  0
  186.2830  177.9490  144.7340 C   0  0  1  0  0  3  0  0  0  0  0  0
  190.0980  177.2240  142.8250 C   0  0  2  0  0  3  0  0  0  0  0  0
  188.2010  177.8070  138.4080 C   0  0  0  0  0  2  0  0  0  0  0  0
  186.4190  178.4420  147.5560 O   0  0  0  0  0  0  0  0  0  0  0  0
  185.1840  178.6880  145.4930 C   0  0  0  0  0  2  0  0  0  0  0  0
  181.7920  177.5100  140.0990 C   0  0  1  0  0  3  0  0  0  0  0  0
  181.3070  180.2590  137.6200 O   0  0  0  0  0  1  0  0  0  0  0  0
  180.8260  176.9360  140.9060 F   0  0  0  0  0  0  0  0  0  0  0  0
  183.1570  178.6040  137.8570 C   0  0  0  0  0  2  0  0  0  0  0  0
  184.2060  178.4970  140.1920 C   0  0  0  0  0  0  0  0  0  0  0  0
  181.1990  178.6490  139.3300 C   0  0  0  0  0  3  0  0  0  0  0  0
  184.2470  178.8020  138.8740 C   0  0  0  0  0  3  0  0  0  0  0  0
  182.9910  177.9660  140.9430 C   0  0  1  0  0  3  0  0  0  0  0  0
  182.5600  178.9310  142.0420 C   0  0  0  0  0  1  0  0  0  0  0  0
  181.8510  179.1790  138.3000 C   0  0  0  0  0  0  0  0  0  0  0  0
  190.1810  175.6910  142.8880 C   0  0  0  0  0  2  0  0  0  0  0  0
  191.2720  175.2670  143.6480 O   0  0  0  0  0  1  0  0  0  0  0  0
  1  3  1  6  0  0  0
  1 15  1  0  0  0  0
  1  4  1  0  0  0  0
  2  7  1  0  0  0  0
  2  5  1  0  0  0  0
  4  2  1  0  0  0  0
  5 11  1  0  0  0  0
  6 19  1  0  0  0  0
  7 16  1  0  0  0  0
  8 19  1  0  0  0  0
  9  8  1  0  0  0  0
 10  4  1  0  0  0  0
 10 12  1  0  0  0  0
 11  9  1  0  0  0  0
 12 17  1  0  0  0  0
 13 10  1  0  0  0  0
 14  7  1  0  0  0  0
 15 14  1  0  0  0  0
 16 20  1  0  0  0  0
 16  9  1  0  0  0  0
 17 31  1  0  0  0  0
 17  5  1  0  0  0  0
 18  3  1  0  0  0  0
 18 13  1  0  0  0  0
 20  6  1  0  0  0  0
 21 23  1  0  0  0  0
 21 28  1  0  0  0  0
 22 30  1  0  0  0  0
 24 30  1  0  0  0  0
 24 27  1  0  0  0  0
 25 28  1  0  0  0  0
 25 15  1  0  0  0  0
 26 21  1  0  0  0  0
 27 25  2  0  0  0  0
 28 29  1  0  0  0  0
 30 26  2  0  0  0  0
 31 32  1  0  0  0  0
M  END
>  <MODEL>
8

>  <REMARK>
 VINA RESULT:      -8.7      3.174      8.113
  Name = 
  2 active torsions:
  status: ('A' for Active; 'I' for Inactive)
    1  A    between atoms: C_13  and  C_29
    2  A    between atoms: C_16  and  C_27
                            x       y       z     vdW  Elec       q    Type
                         _______ _______ _______ _____ _____    ______ ____

>  <TORSDO>
F 2

$$$$
=
 OpenBabel10262421153D

 32 37  0  0  1  0  0  0  0  0999 V2000
  186.1800  178.2530  139.8550 C   0  0  1  0  0  3  0  0  0  0  0  0
  186.8850  177.9440  142.2200 C   0  0  1  0  0  3  0  0  0  0  0  0
  186.6410  178.7180  138.4740 C   0  0  0  0  0  2  0  0  0  0  0  0
  187.3300  178.4340  140.8540 C   0  0  1  0  0  3  0  0  0  0  0  0
  188.0520  178.0270  143.1990 C   0  0  1  0  0  3  0  0  0  0  0  0
  184.0530  178.6280  146.2180 C   0  0  0  0  0  2  0  0  0  0  0  0
  185.7030  178.7670  142.7270 C   0  0  1  0  0  3  0  0  0  0  0  0
  186.2030  177.9320  146.4410 C   0  0  0  0  0  2  0  0  0  0  0  0
  186.5980  178.3550  145.0300 C   0  0  1  0  0  3  0  0  0  0  0  0
  188.5580  177.6170  140.4210 C   0  0  2  0  0  3  0  0  0  0  0  0
  187.6570  177.4920  144.5030 N   0  0  0  0  0  2  0  0  0  0  0  0
  189.6320  177.7880  141.3280 O   0  0  0  0  0  0  0  0  0  0  0  0
  188.9980  178.0500  139.0250 C   0  0  0  0  0  2  0  0  0  0  0  0
  184.5310  178.5900  141.7600 C   0  0  0  0  0  2  0  0  0  0  0  0
  184.9270  179.0150  140.3360 C   0  0  2  0  0  3  0  0  0  0  0  0
  185.3490  178.2840  144.1350 C   0  0  1  0  0  3  0  0  0  0  0  0
  189.2790  177.3040  142.6150 C   0  0  2  0  0  3  0  0  0  0  0  0
  187.8500  177.8980  138.0270 C   0  0  0  0  0  2  0  0  0  0  0  0
  185.2420  178.8300  146.9480 O   0  0  0  0  0  0  0  0  0  0  0  0
  184.2270  179.1010  144.7720 C   0  0  0  0  0  2  0  0  0  0  0  0
  182.3830  177.2520  137.8620 C   0  0  1  0  0  3  0  0  0  0  0  0
  179.5980  179.5600  138.7860 O   0  0  0  0  0  1  0  0  0  0  0  0
  182.2770  175.9190  137.5070 F   0  0  0  0  0  0  0  0  0  0  0  0
  181.9320  180.0530  138.0580 C   0  0  0  0  0  2  0  0  0  0  0  0
  183.7510  178.8520  139.4050 C   0  0  0  0  0  0  0  0  0  0  0  0
  181.0400  177.7790  138.2590 C   0  0  0  0  0  3  0  0  0  0  0  0
  183.0800  179.9650  139.0260 C   0  0  0  0  0  3  0  0  0  0  0  0
  183.4120  177.4250  138.9880 C   0  0  1  0  0  3  0  0  0  0  0  0
  183.0550  176.5710  140.2000 C   0  0  0  0  0  1  0  0  0  0  0  0
  180.8380  179.0880  138.3800 C   0  0  0  0  0  0  0  0  0  0  0  0
  189.2660  175.7700  142.7110 C   0  0  0  0  0  2  0  0  0  0  0  0
  190.5550  175.2530  142.8430 O   0  0  0  0  0  1  0  0  0  0  0  0
  1  3  1  6  0  0  0
  1 15  1  0  0  0  0
  1  4  1  0  0  0  0
  2  7  1  0  0  0  0
  2  5  1  0  0  0  0
  4  2  1  0  0  0  0
  5 11  1  0  0  0  0
  6 19  1  0  0  0  0
  7 16  1  0  0  0  0
  8 19  1  0  0  0  0
  9  8  1  0  0  0  0
 10  4  1  0  0  0  0
 10 12  1  0  0  0  0
 11  9  1  0  0  0  0
 12 17  1  0  0  0  0
 13 10  1  0  0  0  0
 14  7  1  0  0  0  0
 15 14  1  0  0  0  0
 16 20  1  0  0  0  0
 16  9  1  0  0  0  0
 17 31  1  0  0  0  0
 17  5  1  0  0  0  0
 18  3  1  0  0  0  0
 18 13  1  0  0  0  0
 20  6  1  0  0  0  0
 21 26  1  0  0  0  0
 21 28  1  0  0  0  0
 23 21  1  0  0  0  0
 24 30  1  0  0  0  0
 24 27  1  0  0  0  0
 25 15  1  0  0  0  0
 26 30  2  0  0  0  0
 27 25  2  0  0  0  0
 28 25  1  0  0  0  0
 28 29  1  0  0  0  0
 30 22  1  0  0  0  0
 31 32  1  0  0  0  0
M  END
>  <MODEL>
9

>  <REMARK>
 VINA RESULT:      -8.7      3.273      8.197
  Name = 
  2 active torsions:
  status: ('A' for Active; 'I' for Inactive)
    1  A    between atoms: C_13  and  C_29
    2  A    between atoms: C_16  and  C_27
                            x       y       z     vdW  Elec       q    Type
                         _______ _______ _______ _____ _____    ______ ____

>  <TORSDO>
F 2

$$$$
