=
 OpenBabel10262420083D

 27 31  0  0  1  0  0  0  0  0999 V2000
  187.5540  178.6020  141.8810 N   0  0  0  0  0  2  0  0  0  0  0  0
  187.7910  177.3550  144.0500 C   0  0  1  0  0  3  0  0  0  0  0  0
  189.5690  176.5400  142.5410 N   0  0  0  0  0  2  0  0  0  0  0  0
  190.3490  176.8270  147.3340 C   0  0  0  0  0  3  0  0  0  0  0  0
  192.3550  175.8980  148.2980 O   0  0  0  0  0  1  0  0  0  0  0  0
  187.5790  178.2590  145.2650 C   0  0  0  0  0  2  0  0  0  0  0  0
  191.3660  176.3440  144.7720 C   0  0  0  0  0  3  0  0  0  0  0  0
  190.1940  177.1180  138.9240 C   0  0  0  0  0  0  0  0  0  0  0  0
  192.1180  176.0050  145.9000 C   0  0  0  0  0  3  0  0  0  0  0  0
  191.0080  176.6060  137.9230 O   0  0  0  0  0  1  0  0  0  0  0  0
  190.0910  176.9080  144.9190 C   0  0  0  0  0  0  0  0  0  0  0  0
  186.9120  177.7000  142.8320 C   0  0  1  0  0  3  0  0  0  0  0  0
  191.6080  176.2410  147.1790 C   0  0  0  0  0  0  0  0  0  0  0  0
  189.5930  177.1730  146.2100 C   0  0  0  0  0  0  0  0  0  0  0  0
  188.5220  178.1350  140.9340 C   0  0  0  0  0  0  0  0  0  0  0  0
  189.2870  177.3470  143.7220 C   0  0  2  0  0  3  0  0  0  0  0  0
  190.2170  176.5530  140.2010 C   0  0  0  0  0  3  0  0  0  0  0  0
  188.3310  177.7610  146.3740 O   0  0  0  0  0  0  0  0  0  0  0  0
  189.3630  178.2070  138.6580 C   0  0  0  0  0  3  0  0  0  0  0  0
  188.5290  178.7110  139.6590 C   0  0  0  0  0  3  0  0  0  0  0  0
  189.4020  177.0610  141.2170 C   0  0  0  0  0  0  0  0  0  0  0  0
  182.8880  178.9100  143.7560 C   0  0  0  0  0  3  0  0  0  0  0  0
  185.5160  178.1390  143.1690 C   0  0  0  0  0  0  0  0  0  0  0  0
  184.5710  178.2540  142.1430 C   0  0  0  0  0  3  0  0  0  0  0  0
  183.2600  178.6420  142.4360 C   0  0  0  0  0  3  0  0  0  0  0  0
  183.8260  178.7900  144.7850 C   0  0  0  0  0  3  0  0  0  0  0  0
  185.1370  178.4030  144.4940 C   0  0  0  0  0  3  0  0  0  0  0  0
  1 12  1  0  0  0  0
  2  6  1  1  0  0  0
  6 18  1  0  0  0  0
  7 11  2  0  0  0  0
  7  9  1  0  0  0  0
  8 17  1  0  0  0  0
  9 13  2  0  0  0  0
 10  8  1  0  0  0  0
 11 14  1  0  0  0  0
 12 23  1  1  0  0  0
 12  2  1  0  0  0  0
 13  4  1  0  0  0  0
 13  5  1  0  0  0  0
 14 18  1  0  0  0  0
 14  4  2  0  0  0  0
 15 21  1  0  0  0  0
 15  1  1  0  0  0  0
 16  3  1  6  0  0  0
 16  2  1  0  0  0  0
 16 11  1  0  0  0  0
 17 21  2  0  0  0  0
 19  8  2  0  0  0  0
 19 20  1  0  0  0  0
 20 15  2  0  0  0  0
 21  3  1  0  0  0  0
 22 26  1  0  0  0  0
 23 27  1  0  0  0  0
 24 25  1  0  0  0  0
 24 23  2  0  0  0  0
 25 22  2  0  0  0  0
 27 26  2  0  0  0  0
M  END
>  <MODEL>
1

>  <REMARK>
 VINA RESULT:     -11.2      0.000      0.000
  Name = 
  1 active torsions:
  status: ('A' for Active; 'I' for Inactive)
    1  A    between atoms: C_9  and  C_15
                            x       y       z     vdW  Elec       q    Type
                         _______ _______ _______ _____ _____    ______ ____

>  <TORSDO>
F 1

$$$$
=
 OpenBabel10262420083D

 27 31  0  0  1  0  0  0  0  0999 V2000
  189.3190  176.7280  142.7870 N   0  0  0  0  0  2  0  0  0  0  0  0
  187.5630  178.0510  144.0040 C   0  0  1  0  0  3  0  0  0  0  0  0
  187.4120  178.6610  141.6160 N   0  0  0  0  0  2  0  0  0  0  0  0
  183.4110  178.5330  144.3820 C   0  0  0  0  0  3  0  0  0  0  0  0
  181.3120  179.3530  143.5220 O   0  0  0  0  0  1  0  0  0  0  0  0
  186.8470  177.2210  145.0720 C   0  0  0  0  0  2  0  0  0  0  0  0
  184.5540  178.8230  141.8430 C   0  0  0  0  0  3  0  0  0  0  0  0
  189.6080  177.8750  138.7230 C   0  0  0  0  0  0  0  0  0  0  0  0
  183.2120  179.1560  142.0500 C   0  0  0  0  0  3  0  0  0  0  0  0
  189.7600  178.2800  137.4040 O   0  0  0  0  0  1  0  0  0  0  0  0
  185.3380  178.3630  142.9100 C   0  0  0  0  0  0  0  0  0  0  0  0
  189.0570  177.7180  143.8280 C   0  0  1  0  0  3  0  0  0  0  0  0
  182.6430  179.0160  143.3180 C   0  0  0  0  0  0  0  0  0  0  0  0
  184.7530  178.1940  144.1810 C   0  0  0  0  0  0  0  0  0  0  0  0
  189.3270  177.0780  141.3980 C   0  0  0  0  0  0  0  0  0  0  0  0
  186.7670  177.9320  142.7010 C   0  0  2  0  0  3  0  0  0  0  0  0
  188.6580  178.4940  139.5380 C   0  0  0  0  0  3  0  0  0  0  0  0
  185.5160  177.7100  145.2520 O   0  0  0  0  0  0  0  0  0  0  0  0
  190.3940  176.8410  139.2300 C   0  0  0  0  0  3  0  0  0  0  0  0
  190.2550  176.4460  140.5630 C   0  0  0  0  0  3  0  0  0  0  0  0
  188.4940  178.0950  140.8680 C   0  0  0  0  0  0  0  0  0  0  0  0
  191.2020  176.8290  147.4500 C   0  0  0  0  0  3  0  0  0  0  0  0
  189.7850  177.3990  145.1010 C   0  0  0  0  0  0  0  0  0  0  0  0
  191.0290  176.7610  145.0350 C   0  0  0  0  0  3  0  0  0  0  0  0
  191.7350  176.4740  146.2070 C   0  0  0  0  0  3  0  0  0  0  0  0
  189.9630  177.4720  147.5210 C   0  0  0  0  0  3  0  0  0  0  0  0
  189.2560  177.7590  146.3500 C   0  0  0  0  0  3  0  0  0  0  0  0
  1 12  1  0  0  0  0
  2  6  1  1  0  0  0
  6 18  1  0  0  0  0
  7  9  2  0  0  0  0
  7 11  1  0  0  0  0
  8 19  2  0  0  0  0
  8 17  1  0  0  0  0
  9 13  1  0  0  0  0
 10  8  1  0  0  0  0
 11 14  2  0  0  0  0
 12  2  1  0  0  0  0
 12 23  1  1  0  0  0
 13  5  1  0  0  0  0
 13  4  2  0  0  0  0
 14  4  1  0  0  0  0
 14 18  1  0  0  0  0
 15  1  1  0  0  0  0
 16  3  1  6  0  0  0
 16 11  1  0  0  0  0
 16  2  1  0  0  0  0
 17 21  2  0  0  0  0
 19 20  1  0  0  0  0
 20 15  2  0  0  0  0
 21 15  1  0  0  0  0
 21  3  1  0  0  0  0
 22 26  1  0  0  0  0
 23 27  1  0  0  0  0
 24 23  2  0  0  0  0
 24 25  1  0  0  0  0
 25 22  2  0  0  0  0
 27 26  2  0  0  0  0
M  END
>  <MODEL>
2

>  <REMARK>
 VINA RESULT:     -10.7      1.742      5.878
  Name = 
  1 active torsions:
  status: ('A' for Active; 'I' for Inactive)
    1  A    between atoms: C_9  and  C_15
                            x       y       z     vdW  Elec       q    Type
                         _______ _______ _______ _____ _____    ______ ____

>  <TORSDO>
F 1

$$$$
=
 OpenBabel10262420083D

 27 31  0  0  1  0  0  0  0  0999 V2000
  186.7720  178.8350  140.5650 N   0  0  0  0  0  2  0  0  0  0  0  0
  185.9350  178.0020  142.7840 C   0  0  1  0  0  3  0  0  0  0  0  0
  188.1980  177.0680  142.4600 N   0  0  0  0  0  2  0  0  0  0  0  0
  186.6330  178.2350  146.9160 C   0  0  0  0  0  3  0  0  0  0  0  0
  187.9310  177.6320  148.8570 O   0  0  0  0  0  1  0  0  0  0  0  0
  185.1920  179.0850  143.5680 C   0  0  0  0  0  2  0  0  0  0  0  0
  188.7290  177.3900  145.2630 C   0  0  0  0  0  3  0  0  0  0  0  0
  190.4660  177.0550  139.5150 C   0  0  0  0  0  0  0  0  0  0  0  0
  188.8540  177.3050  146.6530 C   0  0  0  0  0  3  0  0  0  0  0  0
  191.6450  176.4370  139.1250 O   0  0  0  0  0  1  0  0  0  0  0  0
  187.5460  177.8780  144.6910 C   0  0  0  0  0  0  0  0  0  0  0  0
  185.7400  178.0670  141.2570 C   0  0  1  0  0  3  0  0  0  0  0  0
  187.8060  177.7220  147.4780 C   0  0  0  0  0  0  0  0  0  0  0  0
  186.5030  178.3260  145.5260 C   0  0  0  0  0  0  0  0  0  0  0  0
  188.0630  178.2820  140.2850 C   0  0  0  0  0  0  0  0  0  0  0  0
  187.4090  178.0450  143.2000 C   0  0  2  0  0  3  0  0  0  0  0  0
  189.8740  176.7230  140.7350 C   0  0  0  0  0  3  0  0  0  0  0  0
  185.3240  178.8420  144.9710 O   0  0  0  0  0  0  0  0  0  0  0  0
  189.8790  178.0200  138.6950 C   0  0  0  0  0  3  0  0  0  0  0  0
  188.6810  178.6280  139.0780 C   0  0  0  0  0  3  0  0  0  0  0  0
  188.6850  177.3390  141.1400 C   0  0  0  0  0  0  0  0  0  0  0  0
  181.8030  179.1780  139.9260 C   0  0  0  0  0  3  0  0  0  0  0  0
  184.3600  178.4580  140.8160 C   0  0  0  0  0  0  0  0  0  0  0  0
  184.2120  179.3780  139.7720 C   0  0  0  0  0  3  0  0  0  0  0  0
  182.9360  179.7400  139.3290 C   0  0  0  0  0  3  0  0  0  0  0  0
  181.9460  178.2530  140.9640 C   0  0  0  0  0  3  0  0  0  0  0  0
  183.2200  177.8910  141.4080 C   0  0  0  0  0  3  0  0  0  0  0  0
  1 12  1  0  0  0  0
  2 16  1  0  0  0  0
  2  6  1  1  0  0  0
  4 13  1  0  0  0  0
  6 18  1  0  0  0  0
  7  9  1  0  0  0  0
  8 17  1  0  0  0  0
  9 13  2  0  0  0  0
 10  8  1  0  0  0  0
 11  7  2  0  0  0  0
 11 14  1  0  0  0  0
 12 23  1  1  0  0  0
 12  2  1  0  0  0  0
 13  5  1  0  0  0  0
 14  4  2  0  0  0  0
 15  1  1  0  0  0  0
 15 21  1  0  0  0  0
 16  3  1  6  0  0  0
 16 11  1  0  0  0  0
 17 21  2  0  0  0  0
 18 14  1  0  0  0  0
 19 20  1  0  0  0  0
 19  8  2  0  0  0  0
 20 15  2  0  0  0  0
 21  3  1  0  0  0  0
 22 26  1  0  0  0  0
 23 27  1  0  0  0  0
 24 23  2  0  0  0  0
 25 24  1  0  0  0  0
 25 22  2  0  0  0  0
 26 27  2  0  0  0  0
M  END
>  <MODEL>
3

>  <REMARK>
 VINA RESULT:     -10.3      1.855      2.807
  Name = 
  1 active torsions:
  status: ('A' for Active; 'I' for Inactive)
    1  A    between atoms: C_9  and  C_15
                            x       y       z     vdW  Elec       q    Type
                         _______ _______ _______ _____ _____    ______ ____

>  <TORSDO>
F 1

$$$$
=
 OpenBabel10262420083D

 27 31  0  0  1  0  0  0  0  0999 V2000
  190.1320  178.0220  142.6830 N   0  0  0  0  0  2  0  0  0  0  0  0
  188.3060  177.5210  141.0320 C   0  0  1  0  0  3  0  0  0  0  0  0
  187.3430  177.2470  143.2890 N   0  0  0  0  0  2  0  0  0  0  0  0
  184.6000  178.9050  139.6290 C   0  0  0  0  0  3  0  0  0  0  0  0
  182.2220  179.1810  139.9200 O   0  0  0  0  0  1  0  0  0  0  0  0
  188.3130  178.4880  139.8460 C   0  0  0  0  0  2  0  0  0  0  0  0
  184.8620  178.3540  142.3620 C   0  0  0  0  0  3  0  0  0  0  0  0
  188.9150  177.2170  146.6570 C   0  0  0  0  0  0  0  0  0  0  0  0
  183.6040  178.6360  141.8210 C   0  0  0  0  0  3  0  0  0  0  0  0
  188.5560  176.9010  147.9590 O   0  0  0  0  0  1  0  0  0  0  0  0
  185.9930  178.3250  141.5350 C   0  0  0  0  0  0  0  0  0  0  0  0
  189.7010  177.1680  141.5800 C   0  0  1  0  0  3  0  0  0  0  0  0
  183.4730  178.9060  140.4560 C   0  0  0  0  0  0  0  0  0  0  0  0
  185.8620  178.6270  140.1650 C   0  0  0  0  0  0  0  0  0  0  0  0
  189.6570  177.8250  144.0210 C   0  0  0  0  0  0  0  0  0  0  0  0
  187.3700  178.0910  142.1020 C   0  0  2  0  0  3  0  0  0  0  0  0
  188.0070  177.0180  145.6140 C   0  0  0  0  0  3  0  0  0  0  0  0
  186.9880  178.6280  139.3300 O   0  0  0  0  0  0  0  0  0  0  0  0
  190.1780  177.7470  146.3900 C   0  0  0  0  0  3  0  0  0  0  0  0
  190.5470  178.0470  145.0770 C   0  0  0  0  0  3  0  0  0  0  0  0
  188.3570  177.3340  144.2980 C   0  0  0  0  0  0  0  0  0  0  0  0
  192.8050  176.7220  138.6350 C   0  0  0  0  0  3  0  0  0  0  0  0
  190.7690  177.0200  140.5360 C   0  0  0  0  0  0  0  0  0  0  0  0
  192.0550  177.5030  140.8010 C   0  0  0  0  0  3  0  0  0  0  0  0
  193.0710  177.3570  139.8520 C   0  0  0  0  0  3  0  0  0  0  0  0
  191.5240  176.2320  138.3680 C   0  0  0  0  0  3  0  0  0  0  0  0
  190.5080  176.3780  139.3160 C   0  0  0  0  0  3  0  0  0  0  0  0
  1 15  1  0  0  0  0
  2  6  1  6  0  0  0
  2 12  1  0  0  0  0
  2 16  1  0  0  0  0
  3 21  1  0  0  0  0
  4 14  2  0  0  0  0
  4 13  1  0  0  0  0
  5 13  1  0  0  0  0
  8 10  1  0  0  0  0
  9  7  1  0  0  0  0
 11  7  2  0  0  0  0
 12 23  1  6  0  0  0
 12  1  1  0  0  0  0
 13  9  2  0  0  0  0
 14 11  1  0  0  0  0
 15 21  2  0  0  0  0
 15 20  1  0  0  0  0
 16 11  1  6  0  0  0
 16  3  1  0  0  0  0
 17  8  2  0  0  0  0
 18  6  1  0  0  0  0
 18 14  1  0  0  0  0
 19  8  1  0  0  0  0
 20 19  2  0  0  0  0
 21 17  1  0  0  0  0
 22 25  1  0  0  0  0
 23 24  1  0  0  0  0
 25 24  2  0  0  0  0
 26 22  2  0  0  0  0
 26 27  1  0  0  0  0
 27 23  2  0  0  0  0
M  END
>  <MODEL>
4

>  <REMARK>
 VINA RESULT:     -10.2      2.469      7.614
  Name = 
  1 active torsions:
  status: ('A' for Active; 'I' for Inactive)
    1  A    between atoms: C_9  and  C_15
                            x       y       z     vdW  Elec       q    Type
                         _______ _______ _______ _____ _____    ______ ____

>  <TORSDO>
F 1

$$$$
=
 OpenBabel10262420083D

 27 31  0  0  1  0  0  0  0  0999 V2000
  188.5250  176.9150  143.7020 N   0  0  0  0  0  2  0  0  0  0  0  0
  186.5660  178.3070  144.4370 C   0  0  1  0  0  3  0  0  0  0  0  0
  186.8130  178.6240  142.0010 N   0  0  0  0  0  2  0  0  0  0  0  0
  182.4030  178.6780  144.0540 C   0  0  0  0  0  3  0  0  0  0  0  0
  180.4680  179.3110  142.7630 O   0  0  0  0  0  1  0  0  0  0  0  0
  185.6930  177.5840  145.4650 C   0  0  0  0  0  2  0  0  0  0  0  0
  183.9560  178.7050  141.7250 C   0  0  0  0  0  3  0  0  0  0  0  0
  189.4810  177.5810  139.6330 C   0  0  0  0  0  0  0  0  0  0  0  0
  182.5940  179.0110  141.6630 C   0  0  0  0  0  3  0  0  0  0  0  0
  189.8490  177.8310  138.3190 O   0  0  0  0  0  1  0  0  0  0  0  0
  184.5550  178.4050  142.9570 C   0  0  0  0  0  0  0  0  0  0  0  0
  188.0730  178.0110  144.5550 C   0  0  1  0  0  3  0  0  0  0  0  0
  181.8190  179.0020  142.8270 C   0  0  0  0  0  0  0  0  0  0  0  0
  183.7650  178.3670  144.1230 C   0  0  0  0  0  0  0  0  0  0  0  0
  188.7630  177.0970  142.3020 C   0  0  0  0  0  0  0  0  0  0  0  0
  186.0060  178.0050  143.0440 C   0  0  2  0  0  3  0  0  0  0  0  0
  188.3960  178.2570  140.1960 C   0  0  0  0  0  3  0  0  0  0  0  0
  184.3430  178.0420  145.3580 O   0  0  0  0  0  0  0  0  0  0  0  0
  190.1870  176.6440  140.3890 C   0  0  0  0  0  3  0  0  0  0  0  0
  189.8300  176.4060  141.7180 C   0  0  0  0  0  3  0  0  0  0  0  0
  188.0160  178.0130  141.5190 C   0  0  0  0  0  0  0  0  0  0  0  0
  189.5860  177.6380  148.5650 C   0  0  0  0  0  3  0  0  0  0  0  0
  188.5800  177.8730  145.9610 C   0  0  0  0  0  0  0  0  0  0  0  0
  189.8200  177.2660  146.1840 C   0  0  0  0  0  3  0  0  0  0  0  0
  190.3220  177.1450  147.4830 C   0  0  0  0  0  3  0  0  0  0  0  0
  188.3490  178.2520  148.3480 C   0  0  0  0  0  3  0  0  0  0  0  0
  187.8470  178.3720  147.0490 C   0  0  0  0  0  3  0  0  0  0  0  0
  1 12  1  0  0  0  0
  2 12  1  0  0  0  0
  2  6  1  1  0  0  0
  4 14  1  0  0  0  0
  5 13  1  0  0  0  0
  7 11  1  0  0  0  0
  8 17  2  0  0  0  0
  8 19  1  0  0  0  0
  9  7  2  0  0  0  0
  9 13  1  0  0  0  0
 10  8  1  0  0  0  0
 11 16  1  0  0  0  0
 11 14  2  0  0  0  0
 12 23  1  1  0  0  0
 13  4  2  0  0  0  0
 14 18  1  0  0  0  0
 15  1  1  0  0  0  0
 16  3  1  6  0  0  0
 16  2  1  0  0  0  0
 17 21  1  0  0  0  0
 18  6  1  0  0  0  0
 19 20  2  0  0  0  0
 20 15  1  0  0  0  0
 21  3  1  0  0  0  0
 21 15  2  0  0  0  0
 23 24  2  0  0  0  0
 23 27  1  0  0  0  0
 24 25  1  0  0  0  0
 25 22  2  0  0  0  0
 26 22  1  0  0  0  0
 27 26  2  0  0  0  0
M  END
>  <MODEL>
5

>  <REMARK>
 VINA RESULT:      -9.8      2.208      6.076
  Name = 
  1 active torsions:
  status: ('A' for Active; 'I' for Inactive)
    1  A    between atoms: C_9  and  C_15
                            x       y       z     vdW  Elec       q    Type
                         _______ _______ _______ _____ _____    ______ ____

>  <TORSDO>
F 1

$$$$
=
 OpenBabel10262420083D

 27 31  0  0  1  0  0  0  0  0999 V2000
  188.5950  178.1300  145.4430 N   0  0  0  0  0  2  0  0  0  0  0  0
  189.6780  176.9600  143.5000 C   0  0  1  0  0  3  0  0  0  0  0  0
  187.3140  177.3410  142.8970 N   0  0  0  0  0  2  0  0  0  0  0  0
  190.7770  177.4780  139.4830 C   0  0  0  0  0  3  0  0  0  0  0  0
  190.1810  177.6150  137.1510 O   0  0  0  0  0  1  0  0  0  0  0  0
  191.0840  177.4920  143.2130 C   0  0  0  0  0  2  0  0  0  0  0  0
  188.0940  177.8620  140.1830 C   0  0  0  0  0  3  0  0  0  0  0  0
  184.4180  178.5390  144.8950 C   0  0  0  0  0  0  0  0  0  0  0  0
  188.4710  177.8390  138.8380 C   0  0  0  0  0  3  0  0  0  0  0  0
  183.0400  178.6280  144.7620 O   0  0  0  0  0  1  0  0  0  0  0  0
  189.0540  177.6700  141.1870 C   0  0  0  0  0  0  0  0  0  0  0  0
  189.2960  176.9310  144.9930 C   0  0  1  0  0  3  0  0  0  0  0  0
  189.8100  177.6420  138.4880 C   0  0  0  0  0  0  0  0  0  0  0  0
  190.4070  177.5030  140.8320 C   0  0  0  0  0  0  0  0  0  0  0  0
  187.2010  178.3320  145.1840 C   0  0  0  0  0  0  0  0  0  0  0  0
  188.6880  177.7580  142.6460 C   0  0  2  0  0  3  0  0  0  0  0  0
  185.1790  177.9340  143.8920 C   0  0  0  0  0  3  0  0  0  0  0  0
  191.3840  177.3370  141.8240 O   0  0  0  0  0  0  0  0  0  0  0  0
  185.0450  179.0670  146.0240 C   0  0  0  0  0  3  0  0  0  0  0  0
  186.4310  178.9610  146.1680 C   0  0  0  0  0  3  0  0  0  0  0  0
  186.5690  177.8400  144.0150 C   0  0  0  0  0  0  0  0  0  0  0  0
  192.4520  175.8370  147.7040 C   0  0  0  0  0  3  0  0  0  0  0  0
  190.4130  176.5530  145.9210 C   0  0  0  0  0  0  0  0  0  0  0  0
  190.4530  177.1090  147.2040 C   0  0  0  0  0  3  0  0  0  0  0  0
  191.4720  176.7540  148.0940 C   0  0  0  0  0  3  0  0  0  0  0  0
  192.4140  175.2740  146.4250 C   0  0  0  0  0  3  0  0  0  0  0  0
  191.3960  175.6280  145.5360 C   0  0  0  0  0  3  0  0  0  0  0  0
  2  6  1  1  0  0  0
  2 12  1  0  0  0  0
  3 21  1  0  0  0  0
  4 14  1  0  0  0  0
  5 13  1  0  0  0  0
  7 11  1  0  0  0  0
  8 19  1  0  0  0  0
  9  7  2  0  0  0  0
 10  8  1  0  0  0  0
 12  1  1  0  0  0  0
 12 23  1  1  0  0  0
 13  9  1  0  0  0  0
 13  4  2  0  0  0  0
 14 11  2  0  0  0  0
 14 18  1  0  0  0  0
 15  1  1  0  0  0  0
 15 20  1  0  0  0  0
 16 11  1  6  0  0  0
 16  3  1  0  0  0  0
 16  2  1  0  0  0  0
 17 21  1  0  0  0  0
 17  8  2  0  0  0  0
 18  6  1  0  0  0  0
 19 20  2  0  0  0  0
 21 15  2  0  0  0  0
 22 25  1  0  0  0  0
 23 24  1  0  0  0  0
 24 25  2  0  0  0  0
 26 22  2  0  0  0  0
 27 23  2  0  0  0  0
 27 26  1  0  0  0  0
M  END
>  <MODEL>
6

>  <REMARK>
 VINA RESULT:      -9.6      2.061      7.044
  Name = 
  1 active torsions:
  status: ('A' for Active; 'I' for Inactive)
    1  A    between atoms: C_9  and  C_15
                            x       y       z     vdW  Elec       q    Type
                         _______ _______ _______ _____ _____    ______ ____

>  <TORSDO>
F 1

$$$$
=
 OpenBabel10262420083D

 27 31  0  0  1  0  0  0  0  0999 V2000
  190.0030  177.9770  142.2930 N   0  0  0  0  0  2  0  0  0  0  0  0
  187.6220  177.5610  141.6050 C   0  0  1  0  0  3  0  0  0  0  0  0
  187.7550  177.1800  144.0420 N   0  0  0  0  0  2  0  0  0  0  0  0
  183.7140  179.0220  142.0570 C   0  0  0  0  0  3  0  0  0  0  0  0
  181.7200  179.2900  143.3850 O   0  0  0  0  0  1  0  0  0  0  0  0
  187.1260  178.5850  140.5830 C   0  0  0  0  0  2  0  0  0  0  0  0
  185.1480  178.3380  144.3620 C   0  0  0  0  0  3  0  0  0  0  0  0
  190.6570  176.9810  146.3550 C   0  0  0  0  0  0  0  0  0  0  0  0
  183.7880  178.6500  144.4480 C   0  0  0  0  0  3  0  0  0  0  0  0
  190.9060  176.6030  147.6660 O   0  0  0  0  0  1  0  0  0  0  0  0
  185.7940  178.3460  143.1180 C   0  0  0  0  0  0  0  0  0  0  0  0
  189.1080  177.1780  141.4610 C   0  0  1  0  0  3  0  0  0  0  0  0
  183.0710  178.9860  143.2970 C   0  0  0  0  0  0  0  0  0  0  0  0
  185.0750  178.7160  141.9630 C   0  0  0  0  0  0  0  0  0  0  0  0
  190.1670  177.7160  143.6920 C   0  0  0  0  0  0  0  0  0  0  0  0
  187.2730  178.0810  143.0030 C   0  0  2  0  0  3  0  0  0  0  0  0
  189.3770  176.8360  145.8170 C   0  0  0  0  0  3  0  0  0  0  0  0
  185.7130  178.7540  140.7150 O   0  0  0  0  0  0  0  0  0  0  0  0
  191.6830  177.5200  145.5780 C   0  0  0  0  0  3  0  0  0  0  0  0
  191.4380  177.8830  144.2510 C   0  0  0  0  0  3  0  0  0  0  0  0
  189.1130  177.2150  144.4970 C   0  0  0  0  0  0  0  0  0  0  0  0
  190.5530  176.8420  137.4230 C   0  0  0  0  0  3  0  0  0  0  0  0
  189.5970  177.0790  140.0460 C   0  0  0  0  0  0  0  0  0  0  0  0
  190.9720  176.9840  139.8040 C   0  0  0  0  0  3  0  0  0  0  0  0
  191.4490  176.8690  138.4950 C   0  0  0  0  0  3  0  0  0  0  0  0
  189.1780  176.9290  137.6590 C   0  0  0  0  0  3  0  0  0  0  0  0
  188.7000  177.0450  138.9670 C   0  0  0  0  0  3  0  0  0  0  0  0
  1 15  1  0  0  0  0
  2  6  1  6  0  0  0
  2 16  1  0  0  0  0
  3 21  1  0  0  0  0
  4 13  1  0  0  0  0
  6 18  1  0  0  0  0
  7  9  1  0  0  0  0
  8 10  1  0  0  0  0
 11  7  2  0  0  0  0
 12 23  1  6  0  0  0
 12  2  1  0  0  0  0
 12  1  1  0  0  0  0
 13  5  1  0  0  0  0
 13  9  2  0  0  0  0
 14  4  2  0  0  0  0
 14 11  1  0  0  0  0
 15 20  2  0  0  0  0
 15 21  1  0  0  0  0
 16 11  1  6  0  0  0
 16  3  1  0  0  0  0
 17  8  1  0  0  0  0
 18 14  1  0  0  0  0
 19  8  2  0  0  0  0
 20 19  1  0  0  0  0
 21 17  2  0  0  0  0
 22 26  2  0  0  0  0
 22 25  1  0  0  0  0
 24 23  1  0  0  0  0
 25 24  2  0  0  0  0
 26 27  1  0  0  0  0
 27 23  2  0  0  0  0
M  END
>  <MODEL>
7

>  <REMARK>
 VINA RESULT:      -9.5      2.195      6.885
  Name = 
  1 active torsions:
  status: ('A' for Active; 'I' for Inactive)
    1  A    between atoms: C_9  and  C_15
                            x       y       z     vdW  Elec       q    Type
                         _______ _______ _______ _____ _____    ______ ____

>  <TORSDO>
F 1

$$$$
=
 OpenBabel10262420083D

 27 31  0  0  1  0  0  0  0  0999 V2000
  185.5470  178.9300  144.0910 N   0  0  0  0  0  2  0  0  0  0  0  0
  187.2650  177.8050  142.6420 C   0  0  1  0  0  3  0  0  0  0  0  0
  185.1380  177.8030  141.3880 N   0  0  0  0  0  2  0  0  0  0  0  0
  189.3780  178.2160  139.0400 C   0  0  0  0  0  3  0  0  0  0  0  0
  189.4500  178.1170  136.6310 O   0  0  0  0  0  1  0  0  0  0  0  0
  188.6200  178.5130  142.6930 C   0  0  0  0  0  2  0  0  0  0  0  0
  186.5810  178.2540  138.9470 C   0  0  0  0  0  3  0  0  0  0  0  0
  181.6750  178.6970  142.3970 C   0  0  0  0  0  0  0  0  0  0  0  0
  187.3210  178.2000  137.7620 C   0  0  0  0  0  3  0  0  0  0  0  0
  180.3890  178.5780  141.8890 O   0  0  0  0  0  1  0  0  0  0  0  0
  187.2350  178.2680  140.1860 C   0  0  0  0  0  0  0  0  0  0  0  0
  186.4850  177.8170  143.9710 C   0  0  1  0  0  3  0  0  0  0  0  0
  188.7170  178.1760  137.8090 C   0  0  0  0  0  0  0  0  0  0  0  0
  188.6440  178.2750  140.2290 C   0  0  0  0  0  0  0  0  0  0  0  0
  184.2670  178.9110  143.4460 C   0  0  0  0  0  0  0  0  0  0  0  0
  186.4660  178.3950  141.4760 C   0  0  2  0  0  3  0  0  0  0  0  0
  182.7540  178.1450  141.7040 C   0  0  0  0  0  3  0  0  0  0  0  0
  189.3140  178.3150  141.4590 O   0  0  0  0  0  0  0  0  0  0  0  0
  181.8910  179.3810  143.5940 C   0  0  0  0  0  3  0  0  0  0  0  0
  183.1820  179.4850  144.1170 C   0  0  0  0  0  3  0  0  0  0  0  0
  184.0540  178.2590  142.2060 C   0  0  0  0  0  0  0  0  0  0  0  0
  188.8630  177.3480  147.5250 C   0  0  0  0  0  3  0  0  0  0  0  0
  187.3330  177.6640  145.2000 C   0  0  0  0  0  0  0  0  0  0  0  0
  186.8070  178.0310  146.4430 C   0  0  0  0  0  3  0  0  0  0  0  0
  187.5710  177.8770  147.6040 C   0  0  0  0  0  3  0  0  0  0  0  0
  189.3900  176.9730  146.2870 C   0  0  0  0  0  3  0  0  0  0  0  0
  188.6280  177.1280  145.1260 C   0  0  0  0  0  3  0  0  0  0  0  0
  2  6  1  1  0  0  0
  2 12  1  0  0  0  0
  3 16  1  0  0  0  0
  3 21  1  0  0  0  0
  4 14  1  0  0  0  0
  5 13  1  0  0  0  0
  7 11  1  0  0  0  0
  8 19  1  0  0  0  0
  9 13  1  0  0  0  0
  9  7  2  0  0  0  0
 10  8  1  0  0  0  0
 11 14  2  0  0  0  0
 12  1  1  0  0  0  0
 12 23  1  1  0  0  0
 13  4  2  0  0  0  0
 14 18  1  0  0  0  0
 15  1  1  0  0  0  0
 15 20  1  0  0  0  0
 16 11  1  6  0  0  0
 16  2  1  0  0  0  0
 17 21  1  0  0  0  0
 17  8  2  0  0  0  0
 18  6  1  0  0  0  0
 19 20  2  0  0  0  0
 21 15  2  0  0  0  0
 22 25  1  0  0  0  0
 23 24  1  0  0  0  0
 24 25  2  0  0  0  0
 26 22  2  0  0  0  0
 27 23  2  0  0  0  0
 27 26  1  0  0  0  0
M  END
>  <MODEL>
8

>  <REMARK>
 VINA RESULT:      -9.5      2.517      6.873
  Name = 
  1 active torsions:
  status: ('A' for Active; 'I' for Inactive)
    1  A    between atoms: C_9  and  C_15
                            x       y       z     vdW  Elec       q    Type
                         _______ _______ _______ _____ _____    ______ ____

>  <TORSDO>
F 1

$$$$
=
 OpenBabel10262420083D

 27 31  0  0  1  0  0  0  0  0999 V2000
  190.8370  177.6730  141.6150 N   0  0  0  0  0  2  0  0  0  0  0  0
  188.7410  177.2940  140.2820 C   0  0  1  0  0  3  0  0  0  0  0  0
  188.1190  177.1820  142.6690 N   0  0  0  0  0  2  0  0  0  0  0  0
  184.9990  178.9750  139.3960 C   0  0  0  0  0  3  0  0  0  0  0  0
  182.7280  179.4820  140.0300 O   0  0  0  0  0  1  0  0  0  0  0  0
  188.6500  178.2190  139.0670 C   0  0  0  0  0  2  0  0  0  0  0  0
  185.6310  178.4880  142.0790 C   0  0  0  0  0  3  0  0  0  0  0  0
  190.1840  177.1090  145.7580 C   0  0  0  0  0  0  0  0  0  0  0  0
  184.3340  178.8690  141.7220 C   0  0  0  0  0  3  0  0  0  0  0  0
  190.0040  176.8680  147.1130 O   0  0  0  0  0  1  0  0  0  0  0  0
  186.6140  178.3260  141.0930 C   0  0  0  0  0  0  0  0  0  0  0  0
  190.1680  176.8290  140.6290 C   0  0  1  0  0  3  0  0  0  0  0  0
  184.0180  179.1080  140.3820 C   0  0  0  0  0  0  0  0  0  0  0  0
  186.2990  178.5970  139.7460 C   0  0  0  0  0  0  0  0  0  0  0  0
  190.5600  177.5630  143.0160 C   0  0  0  0  0  0  0  0  0  0  0  0
  188.0360  177.9830  141.4550 C   0  0  2  0  0  3  0  0  0  0  0  0
  189.1120  176.9640  144.8750 C   0  0  0  0  0  3  0  0  0  0  0  0
  187.2780  178.4670  138.7510 O   0  0  0  0  0  0  0  0  0  0  0  0
  191.4320  177.5090  145.2800 C   0  0  0  0  0  3  0  0  0  0  0  0
  191.6190  177.7320  143.9140 C   0  0  0  0  0  3  0  0  0  0  0  0
  189.2800  177.2040  143.5080 C   0  0  0  0  0  0  0  0  0  0  0  0
  192.6290  176.0470  137.1870 C   0  0  0  0  0  3  0  0  0  0  0  0
  191.0440  176.5490  139.4430 C   0  0  0  0  0  0  0  0  0  0  0  0
  190.5150  175.8490  138.3530 C   0  0  0  0  0  3  0  0  0  0  0  0
  191.3060  175.5960  137.2280 C   0  0  0  0  0  3  0  0  0  0  0  0
  193.1600  176.7540  138.2700 C   0  0  0  0  0  3  0  0  0  0  0  0
  192.3700  177.0070  139.3950 C   0  0  0  0  0  3  0  0  0  0  0  0
  1 15  1  0  0  0  0
  2  6  1  6  0  0  0
  2 12  1  0  0  0  0
  2 16  1  0  0  0  0
  3 21  1  0  0  0  0
  4 14  2  0  0  0  0
  4 13  1  0  0  0  0
  5 13  1  0  0  0  0
  8 10  1  0  0  0  0
  9  7  1  0  0  0  0
 11  7  2  0  0  0  0
 12 23  1  6  0  0  0
 12  1  1  0  0  0  0
 13  9  2  0  0  0  0
 14 11  1  0  0  0  0
 15 21  2  0  0  0  0
 15 20  1  0  0  0  0
 16 11  1  6  0  0  0
 16  3  1  0  0  0  0
 17  8  2  0  0  0  0
 18  6  1  0  0  0  0
 18 14  1  0  0  0  0
 19  8  1  0  0  0  0
 20 19  2  0  0  0  0
 21 17  1  0  0  0  0
 22 25  2  0  0  0  0
 22 26  1  0  0  0  0
 24 23  2  0  0  0  0
 25 24  1  0  0  0  0
 26 27  2  0  0  0  0
 27 23  1  0  0  0  0
M  END
>  <MODEL>
9

>  <REMARK>
 VINA RESULT:      -9.5      2.514      7.599
  Name = 
  1 active torsions:
  status: ('A' for Active; 'I' for Inactive)
    1  A    between atoms: C_9  and  C_15
                            x       y       z     vdW  Elec       q    Type
                         _______ _______ _______ _____ _____    ______ ____

>  <TORSDO>
F 1

$$$$
