=
 OpenBabel10262420473D

 28 31  0  0  1  0  0  0  0  0999 V2000
  187.8370  177.5500  145.2940 C   0  0  0  0  0  0  0  0  0  0  0  0
  191.4910  176.5820  147.3510 C   0  0  0  0  0  1  0  0  0  0  0  0
  190.2090  177.0330  142.3310 C   0  0  2  0  0  3  0  0  0  0  0  0
  190.2410  177.0920  145.2090 C   0  0  0  0  0  0  0  0  0  0  0  0
  188.9970  177.6210  143.0490 C   0  0  0  0  0  2  0  0  0  0  0  0
  189.0640  177.0770  147.3330 C   0  0  0  0  0  3  0  0  0  0  0  0
  191.5110  176.8340  144.4310 C   0  0  0  0  0  2  0  0  0  0  0  0
  190.2440  176.9250  146.6070 C   0  0  0  0  0  0  0  0  0  0  0  0
  191.4880  177.4540  143.0400 C   0  0  0  0  0  2  0  0  0  0  0  0
  187.8720  177.3880  146.6830 C   0  0  0  0  0  3  0  0  0  0  0  0
  189.0240  177.3920  144.5420 C   0  0  0  0  0  0  0  0  0  0  0  0
  189.1370  177.9910  140.3420 C   0  0  0  0  0  3  0  0  0  0  0  0
  191.5410  176.8260  138.8400 C   0  0  0  0  0  3  0  0  0  0  0  0
  189.2710  177.3770  137.9640 C   0  0  0  0  0  0  0  0  0  0  0  0
  190.2250  177.4240  140.8820 C   0  0  0  0  0  0  0  0  0  0  0  0
  192.6480  177.2040  140.8200 F   0  0  0  0  0  0  0  0  0  0  0  0
  190.4110  176.6910  137.9000 C   0  0  0  0  0  3  0  0  0  0  0  0
  191.4820  177.1930  140.1280 C   0  0  0  0  0  0  0  0  0  0  0  0
  188.2140  177.1150  136.9530 C   0  0  0  0  0  1  0  0  0  0  0  0
  189.0710  178.4890  138.9390 C   0  0  0  0  0  2  0  0  0  0  0  0
  186.5520  177.9070  144.6580 C   0  0  0  0  0  0  0  0  0  0  0  0
  186.4110  177.7300  143.2740 C   0  0  0  0  0  3  0  0  0  0  0  0
  184.2790  178.7750  144.7490 C   0  0  0  0  0  0  0  0  0  0  0  0
  185.2180  178.0690  142.6330 C   0  0  0  0  0  3  0  0  0  0  0  0
  185.5870  178.6400  147.1500 Cl  0  0  0  0  0  0  0  0  0  0  0  0
  185.4750  178.4370  145.4030 C   0  0  0  0  0  0  0  0  0  0  0  0
  183.2060  179.2920  145.4640 O   0  0  0  0  0  1  0  0  0  0  0  0
  184.1550  178.5910  143.3700 C   0  0  0  0  0  3  0  0  0  0  0  0
  1 10  1  0  0  0  0
  3 15  1  6  0  0  0
  3  9  1  0  0  0  0
  3  5  1  0  0  0  0
  4  8  2  0  0  0  0
  5 11  1  0  0  0  0
  7  4  1  0  0  0  0
  8  6  1  0  0  0  0
  8  2  1  0  0  0  0
  9  7  1  0  0  0  0
 10  6  2  0  0  0  0
 11  4  1  0  0  0  0
 11  1  2  0  0  0  0
 12 15  2  0  0  0  0
 13 18  2  0  0  0  0
 14 20  1  0  0  0  0
 17 14  2  0  0  0  0
 17 13  1  0  0  0  0
 18 16  1  0  0  0  0
 18 15  1  0  0  0  0
 19 14  1  0  0  0  0
 20 12  1  0  0  0  0
 21  1  1  0  0  0  0
 21 26  1  0  0  0  0
 22 21  2  0  0  0  0
 23 26  2  0  0  0  0
 23 27  1  0  0  0  0
 24 22  1  0  0  0  0
 24 28  2  0  0  0  0
 26 25  1  0  0  0  0
 28 23  1  0  0  0  0
M  END
>  <MODEL>
1

>  <REMARK>
 VINA RESULT:     -12.3      0.000      0.000
  Name = 
  2 active torsions:
  status: ('A' for Active; 'I' for Inactive)
    1  A    between atoms: C_1  and  C_2
    2  A    between atoms: C_10  and  C_13
                            x       y       z     vdW  Elec       q    Type
                         _______ _______ _______ _____ _____    ______ ____

>  <TORSDO>
F 2

$$$$
=
 OpenBabel10262420473D

 28 31  0  0  1  0  0  0  0  0999 V2000
  187.7240  177.6720  145.2810 C   0  0  0  0  0  0  0  0  0  0  0  0
  183.6110  178.9190  145.0770 C   0  0  0  0  0  1  0  0  0  0  0  0
  187.4190  178.5170  141.5570 C   0  0  2  0  0  3  0  0  0  0  0  0
  185.8000  178.3640  143.9330 C   0  0  0  0  0  0  0  0  0  0  0  0
  187.9940  177.7900  142.7700 C   0  0  0  0  0  2  0  0  0  0  0  0
  185.6090  178.1920  146.3480 C   0  0  0  0  0  3  0  0  0  0  0  0
  185.1890  178.7700  142.6120 C   0  0  0  0  0  2  0  0  0  0  0  0
  185.0370  178.4820  145.1110 C   0  0  0  0  0  0  0  0  0  0  0  0
  185.9370  178.1990  141.4150 C   0  0  0  0  0  2  0  0  0  0  0  0
  186.9390  177.7890  146.4330 C   0  0  0  0  0  3  0  0  0  0  0  0
  187.1620  177.9700  144.0180 C   0  0  0  0  0  0  0  0  0  0  0  0
  187.5730  178.2900  139.1190 C   0  0  0  0  0  3  0  0  0  0  0  0
  190.2170  176.8550  139.7100 C   0  0  0  0  0  3  0  0  0  0  0  0
  188.7430  176.6510  137.7060 C   0  0  0  0  0  0  0  0  0  0  0  0
  188.1800  178.1800  140.3090 C   0  0  0  0  0  0  0  0  0  0  0  0
  190.2800  178.2500  141.5380 F   0  0  0  0  0  0  0  0  0  0  0  0
  189.6680  176.1590  138.5290 C   0  0  0  0  0  3  0  0  0  0  0  0
  189.5990  177.7740  140.4650 C   0  0  0  0  0  0  0  0  0  0  0  0
  188.2750  175.8190  136.5680 C   0  0  0  0  0  1  0  0  0  0  0  0
  188.2570  178.0570  137.8150 C   0  0  0  0  0  2  0  0  0  0  0  0
  189.1220  177.2140  145.4240 C   0  0  0  0  0  0  0  0  0  0  0  0
  189.7640  176.6470  144.3130 C   0  0  0  0  0  3  0  0  0  0  0  0
  191.1390  176.8500  146.7390 C   0  0  0  0  0  0  0  0  0  0  0  0
  191.0790  176.1880  144.4120 C   0  0  0  0  0  3  0  0  0  0  0  0
  189.0690  178.0570  148.0630 Cl  0  0  0  0  0  0  0  0  0  0  0  0
  189.8160  177.3150  146.6500 C   0  0  0  0  0  0  0  0  0  0  0  0
  191.8410  176.9460  147.9340 O   0  0  0  0  0  1  0  0  0  0  0  0
  191.7630  176.2900  145.6230 C   0  0  0  0  0  3  0  0  0  0  0  0
  1 21  1  0  0  0  0
  1 10  1  0  0  0  0
  2  8  1  0  0  0  0
  3 15  1  6  0  0  0
  3  5  1  0  0  0  0
  4 11  1  0  0  0  0
  4  8  2  0  0  0  0
  5 11  1  0  0  0  0
  6 10  2  0  0  0  0
  7  4  1  0  0  0  0
  8  6  1  0  0  0  0
  9  3  1  0  0  0  0
  9  7  1  0  0  0  0
 11  1  2  0  0  0  0
 12 15  2  0  0  0  0
 13 18  2  0  0  0  0
 14 20  1  0  0  0  0
 14 17  2  0  0  0  0
 15 18  1  0  0  0  0
 17 13  1  0  0  0  0
 18 16  1  0  0  0  0
 19 14  1  0  0  0  0
 20 12  1  0  0  0  0
 21 26  1  0  0  0  0
 22 24  1  0  0  0  0
 22 21  2  0  0  0  0
 23 27  1  0  0  0  0
 24 28  2  0  0  0  0
 26 23  2  0  0  0  0
 26 25  1  0  0  0  0
 28 23  1  0  0  0  0
M  END
>  <MODEL>
2

>  <REMARK>
 VINA RESULT:     -11.8      2.213      4.531
  Name = 
  2 active torsions:
  status: ('A' for Active; 'I' for Inactive)
    1  A    between atoms: C_1  and  C_2
    2  A    between atoms: C_10  and  C_13
                            x       y       z     vdW  Elec       q    Type
                         _______ _______ _______ _____ _____    ______ ____

>  <TORSDO>
F 2

$$$$
=
 OpenBabel10262420473D

 28 31  0  0  1  0  0  0  0  0999 V2000
  188.4250  177.6520  143.9160 C   0  0  0  0  0  0  0  0  0  0  0  0
  187.7060  177.5500  148.1570 C   0  0  0  0  0  1  0  0  0  0  0  0
  184.8080  178.9050  144.0570 C   0  0  2  0  0  3  0  0  0  0  0  0
  186.8700  177.8930  145.7920 C   0  0  0  0  0  0  0  0  0  0  0  0
  186.0140  178.2240  143.4150 C   0  0  0  0  0  2  0  0  0  0  0  0
  189.1940  177.3100  146.1900 C   0  0  0  0  0  3  0  0  0  0  0  0
  185.5190  178.2790  146.3470 C   0  0  0  0  0  2  0  0  0  0  0  0
  187.9190  177.5870  146.6810 C   0  0  0  0  0  0  0  0  0  0  0  0
  184.4020  178.1600  145.3200 C   0  0  0  0  0  2  0  0  0  0  0  0
  189.4450  177.3410  144.8210 C   0  0  0  0  0  3  0  0  0  0  0  0
  187.1270  177.9430  144.3960 C   0  0  0  0  0  0  0  0  0  0  0  0
  182.4120  179.0710  143.5550 C   0  0  0  0  0  3  0  0  0  0  0  0
  183.2770  178.5580  140.6590 C   0  0  0  0  0  3  0  0  0  0  0  0
  181.0620  178.1330  141.7250 C   0  0  0  0  0  0  0  0  0  0  0  0
  183.6670  179.0170  143.0880 C   0  0  0  0  0  0  0  0  0  0  0  0
  185.2050  179.6360  141.3050 F   0  0  0  0  0  0  0  0  0  0  0  0
  181.9720  177.8800  140.7860 C   0  0  0  0  0  3  0  0  0  0  0  0
  184.0040  179.1030  141.6460 C   0  0  0  0  0  0  0  0  0  0  0  0
  179.7990  177.3500  141.7340 C   0  0  0  0  0  1  0  0  0  0  0  0
  181.2130  179.2610  142.6890 C   0  0  0  0  0  2  0  0  0  0  0  0
  188.7380  177.6440  142.4710 C   0  0  0  0  0  0  0  0  0  0  0  0
  188.1030  178.5750  141.6370 C   0  0  0  0  0  3  0  0  0  0  0  0
  189.8950  176.7360  140.5300 C   0  0  0  0  0  0  0  0  0  0  0  0
  188.3600  178.5890  140.2650 C   0  0  0  0  0  3  0  0  0  0  0  0
  190.4980  175.5510  142.9230 Cl  0  0  0  0  0  0  0  0  0  0  0  0
  189.6420  176.7140  141.9120 C   0  0  0  0  0  0  0  0  0  0  0  0
  190.7850  175.8340  139.9610 O   0  0  0  0  0  1  0  0  0  0  0  0
  189.2540  177.6710  139.7140 C   0  0  0  0  0  3  0  0  0  0  0  0
  1 11  2  0  0  0  0
  1 10  1  0  0  0  0
  3 15  1  6  0  0  0
  3  9  1  0  0  0  0
  4  7  1  0  0  0  0
  4  8  2  0  0  0  0
  5  3  1  0  0  0  0
  5 11  1  0  0  0  0
  6  8  1  0  0  0  0
  8  2  1  0  0  0  0
  9  7  1  0  0  0  0
 10  6  2  0  0  0  0
 11  4  1  0  0  0  0
 13 17  1  0  0  0  0
 13 18  2  0  0  0  0
 14 19  1  0  0  0  0
 14 20  1  0  0  0  0
 15 12  2  0  0  0  0
 16 18  1  0  0  0  0
 17 14  2  0  0  0  0
 18 15  1  0  0  0  0
 20 12  1  0  0  0  0
 21  1  1  0  0  0  0
 22 21  2  0  0  0  0
 23 26  2  0  0  0  0
 24 22  1  0  0  0  0
 26 21  1  0  0  0  0
 26 25  1  0  0  0  0
 27 23  1  0  0  0  0
 28 24  2  0  0  0  0
 28 23  1  0  0  0  0
M  END
>  <MODEL>
3

>  <REMARK>
 VINA RESULT:     -11.8      3.276      6.374
  Name = 
  2 active torsions:
  status: ('A' for Active; 'I' for Inactive)
    1  A    between atoms: C_1  and  C_2
    2  A    between atoms: C_10  and  C_13
                            x       y       z     vdW  Elec       q    Type
                         _______ _______ _______ _____ _____    ______ ____

>  <TORSDO>
F 2

$$$$
=
 OpenBabel10262420473D

 28 31  0  0  1  0  0  0  0  0999 V2000
  186.8780  177.8130  144.7420 C   0  0  0  0  0  0  0  0  0  0  0  0
  190.1860  177.0310  147.3800 C   0  0  0  0  0  1  0  0  0  0  0  0
  189.6880  177.2240  142.2060 C   0  0  2  0  0  3  0  0  0  0  0  0
  189.2740  177.4130  145.0490 C   0  0  0  0  0  0  0  0  0  0  0  0
  188.3690  177.8130  142.7010 C   0  0  0  0  0  2  0  0  0  0  0  0
  187.7820  177.4630  146.9650 C   0  0  0  0  0  3  0  0  0  0  0  0
  190.6530  177.1520  144.4890 C   0  0  0  0  0  2  0  0  0  0  0  0
  189.0630  177.3090  146.4380 C   0  0  0  0  0  0  0  0  0  0  0  0
  190.8340  177.7080  143.0830 C   0  0  0  0  0  2  0  0  0  0  0  0
  186.7000  177.7140  146.1260 C   0  0  0  0  0  3  0  0  0  0  0  0
  188.1690  177.6510  144.1890 C   0  0  0  0  0  0  0  0  0  0  0  0
  188.9460  178.1380  140.0540 C   0  0  0  0  0  3  0  0  0  0  0  0
  191.4730  176.8060  138.9440 C   0  0  0  0  0  3  0  0  0  0  0  0
  189.3730  177.4150  137.7420 C   0  0  0  0  0  0  0  0  0  0  0  0
  189.9210  177.5490  140.7600 C   0  0  0  0  0  0  0  0  0  0  0  0
  192.3160  177.2230  141.0430 F   0  0  0  0  0  0  0  0  0  0  0  0
  190.4770  176.6790  137.8620 C   0  0  0  0  0  3  0  0  0  0  0  0
  191.2560  177.2310  140.1970 C   0  0  0  0  0  0  0  0  0  0  0  0
  188.4530  177.1540  136.6050 C   0  0  0  0  0  1  0  0  0  0  0  0
  189.0970  178.5760  138.6370 C   0  0  0  0  0  2  0  0  0  0  0  0
  185.7000  178.1080  143.8990 C   0  0  0  0  0  0  0  0  0  0  0  0
  185.8240  178.0070  142.5060 C   0  0  0  0  0  3  0  0  0  0  0  0
  183.3800  178.7920  143.6150 C   0  0  0  0  0  0  0  0  0  0  0  0
  184.7390  178.2930  141.6750 C   0  0  0  0  0  3  0  0  0  0  0  0
  184.2460  178.6080  146.2050 Cl  0  0  0  0  0  0  0  0  0  0  0  0
  184.4660  178.5060  144.4590 C   0  0  0  0  0  0  0  0  0  0  0  0
  182.1560  179.1780  144.1460 O   0  0  0  0  0  1  0  0  0  0  0  0
  183.5210  178.6850  142.2300 C   0  0  0  0  0  3  0  0  0  0  0  0
  1 10  1  0  0  0  0
  3 15  1  6  0  0  0
  3  5  1  0  0  0  0
  3  9  1  0  0  0  0
  4  8  2  0  0  0  0
  5 11  1  0  0  0  0
  7  4  1  0  0  0  0
  8  6  1  0  0  0  0
  8  2  1  0  0  0  0
  9  7  1  0  0  0  0
 10  6  2  0  0  0  0
 11  1  2  0  0  0  0
 11  4  1  0  0  0  0
 12 15  2  0  0  0  0
 13 18  2  0  0  0  0
 14 17  2  0  0  0  0
 14 20  1  0  0  0  0
 17 13  1  0  0  0  0
 18 15  1  0  0  0  0
 18 16  1  0  0  0  0
 19 14  1  0  0  0  0
 20 12  1  0  0  0  0
 21 26  1  0  0  0  0
 21  1  1  0  0  0  0
 22 21  2  0  0  0  0
 23 27  1  0  0  0  0
 23 26  2  0  0  0  0
 24 28  2  0  0  0  0
 24 22  1  0  0  0  0
 26 25  1  0  0  0  0
 28 23  1  0  0  0  0
M  END
>  <MODEL>
4

>  <REMARK>
 VINA RESULT:     -11.4      0.817      1.006
  Name = 
  2 active torsions:
  status: ('A' for Active; 'I' for Inactive)
    1  A    between atoms: C_1  and  C_2
    2  A    between atoms: C_10  and  C_13
                            x       y       z     vdW  Elec       q    Type
                         _______ _______ _______ _____ _____    ______ ____

>  <TORSDO>
F 2

$$$$
=
 OpenBabel10262420473D

 28 31  0  0  1  0  0  0  0  0999 V2000
  188.4110  177.8760  143.7440 C   0  0  0  0  0  0  0  0  0  0  0  0
  187.7180  177.9650  147.9900 C   0  0  0  0  0  1  0  0  0  0  0  0
  184.6530  178.6120  143.8380 C   0  0  2  0  0  3  0  0  0  0  0  0
  186.8400  178.0240  145.6160 C   0  0  0  0  0  0  0  0  0  0  0  0
  185.9430  178.0660  143.2310 C   0  0  0  0  0  2  0  0  0  0  0  0
  189.2230  177.8030  146.0290 C   0  0  0  0  0  3  0  0  0  0  0  0
  185.4480  178.2520  146.1590 C   0  0  0  0  0  2  0  0  0  0  0  0
  187.9220  177.9300  146.5130 C   0  0  0  0  0  0  0  0  0  0  0  0
  184.3580  177.9060  145.1540 C   0  0  0  0  0  2  0  0  0  0  0  0
  189.4660  177.7750  144.6580 C   0  0  0  0  0  3  0  0  0  0  0  0
  187.0860  178.0120  144.2180 C   0  0  0  0  0  0  0  0  0  0  0  0
  183.7440  178.1000  141.6180 C   0  0  0  0  0  3  0  0  0  0  0  0
  181.1750  179.3830  142.6920 C   0  0  0  0  0  3  0  0  0  0  0  0
  181.9240  179.1320  140.3250 C   0  0  0  0  0  0  0  0  0  0  0  0
  183.5080  178.4950  142.8770 C   0  0  0  0  0  0  0  0  0  0  0  0
  181.9170  178.5840  144.7180 F   0  0  0  0  0  0  0  0  0  0  0  0
  181.2090  179.7520  141.2640 C   0  0  0  0  0  3  0  0  0  0  0  0
  182.1490  178.7890  143.3970 C   0  0  0  0  0  0  0  0  0  0  0  0
  181.8700  179.6360  138.9280 C   0  0  0  0  0  1  0  0  0  0  0  0
  182.6730  177.8740  140.6050 C   0  0  0  0  0  2  0  0  0  0  0  0
  188.7210  177.8130  142.3000 C   0  0  0  0  0  0  0  0  0  0  0  0
  188.0370  178.6680  141.4250 C   0  0  0  0  0  3  0  0  0  0  0  0
  189.9180  176.8700  140.4010 C   0  0  0  0  0  0  0  0  0  0  0  0
  188.2900  178.6280  140.0520 C   0  0  0  0  0  3  0  0  0  0  0  0
  190.5860  175.8360  142.8460 Cl  0  0  0  0  0  0  0  0  0  0  0  0
  189.6700  176.9030  141.7830 C   0  0  0  0  0  0  0  0  0  0  0  0
  190.8510  175.9880  139.8720 O   0  0  0  0  0  1  0  0  0  0  0  0
  189.2280  177.7300  139.5430 C   0  0  0  0  0  3  0  0  0  0  0  0
  1 11  2  0  0  0  0
  1 10  1  0  0  0  0
  3 15  1  6  0  0  0
  3  9  1  0  0  0  0
  4  7  1  0  0  0  0
  4  8  2  0  0  0  0
  5  3  1  0  0  0  0
  5 11  1  0  0  0  0
  6  8  1  0  0  0  0
  8  2  1  0  0  0  0
  9  7  1  0  0  0  0
 10  6  2  0  0  0  0
 11  4  1  0  0  0  0
 12 15  2  0  0  0  0
 13 18  2  0  0  0  0
 14 20  1  0  0  0  0
 14 17  2  0  0  0  0
 15 18  1  0  0  0  0
 17 13  1  0  0  0  0
 18 16  1  0  0  0  0
 19 14  1  0  0  0  0
 20 12  1  0  0  0  0
 21  1  1  0  0  0  0
 22 21  2  0  0  0  0
 23 26  2  0  0  0  0
 24 22  1  0  0  0  0
 26 21  1  0  0  0  0
 26 25  1  0  0  0  0
 27 23  1  0  0  0  0
 28 24  2  0  0  0  0
 28 23  1  0  0  0  0
M  END
>  <MODEL>
5

>  <REMARK>
 VINA RESULT:     -11.1      3.703      6.583
  Name = 
  2 active torsions:
  status: ('A' for Active; 'I' for Inactive)
    1  A    between atoms: C_1  and  C_2
    2  A    between atoms: C_10  and  C_13
                            x       y       z     vdW  Elec       q    Type
                         _______ _______ _______ _____ _____    ______ ____

>  <TORSDO>
F 2

$$$$
=
 OpenBabel10262420473D

 28 31  0  0  1  0  0  0  0  0999 V2000
  184.9850  178.5110  141.3690 C   0  0  0  0  0  0  0  0  0  0  0  0
  181.3710  178.8920  143.6730 C   0  0  0  0  0  1  0  0  0  0  0  0
  186.3210  177.8740  144.9020 C   0  0  2  0  0  3  0  0  0  0  0  0
  183.8830  178.6000  143.5540 C   0  0  0  0  0  0  0  0  0  0  0  0
  186.4140  178.3230  143.4460 C   0  0  0  0  0  2  0  0  0  0  0  0
  182.5820  178.8090  141.5140 C   0  0  0  0  0  3  0  0  0  0  0  0
  183.9180  178.4630  145.0580 C   0  0  0  0  0  2  0  0  0  0  0  0
  182.6440  178.7650  142.9060 C   0  0  0  0  0  0  0  0  0  0  0  0
  185.2990  178.7240  145.6440 C   0  0  0  0  0  2  0  0  0  0  0  0
  183.7420  178.6860  140.7530 C   0  0  0  0  0  3  0  0  0  0  0  0
  185.0650  178.4560  142.7800 C   0  0  0  0  0  0  0  0  0  0  0  0
  188.7680  178.0370  144.8200 C   0  0  0  0  0  3  0  0  0  0  0  0
  188.6320  177.2330  147.7750 C   0  0  0  0  0  3  0  0  0  0  0  0
  190.5190  176.9540  146.1660 C   0  0  0  0  0  0  0  0  0  0  0  0
  187.6640  177.9140  145.5700 C   0  0  0  0  0  0  0  0  0  0  0  0
  186.6110  178.3310  147.7250 F   0  0  0  0  0  0  0  0  0  0  0  0
  189.8640  176.5960  147.2700 C   0  0  0  0  0  3  0  0  0  0  0  0
  187.6890  177.8560  147.0530 C   0  0  0  0  0  0  0  0  0  0  0  0
  191.7380  176.1990  145.7750 C   0  0  0  0  0  1  0  0  0  0  0  0
  190.1430  178.1650  145.3820 C   0  0  0  0  0  2  0  0  0  0  0  0
  186.1880  178.4130  140.5150 C   0  0  0  0  0  0  0  0  0  0  0  0
  187.4510  178.5470  141.1100 C   0  0  0  0  0  3  0  0  0  0  0  0
  187.2670  178.1390  138.3500 C   0  0  0  0  0  0  0  0  0  0  0  0
  188.6100  178.4760  140.3350 C   0  0  0  0  0  3  0  0  0  0  0  0
  184.5340  177.9930  138.3320 Cl  0  0  0  0  0  0  0  0  0  0  0  0
  186.0950  178.2090  139.1210 C   0  0  0  0  0  0  0  0  0  0  0  0
  187.1980  177.9320  136.9780 O   0  0  0  0  0  1  0  0  0  0  0  0
  188.5170  178.2730  138.9580 C   0  0  0  0  0  3  0  0  0  0  0  0
  1 11  1  0  0  0  0
  3 15  1  1  0  0  0
  3  9  1  0  0  0  0
  4  7  1  0  0  0  0
  5  3  1  0  0  0  0
  6  8  2  0  0  0  0
  7  9  1  0  0  0  0
  8  4  1  0  0  0  0
  8  2  1  0  0  0  0
 10  1  2  0  0  0  0
 10  6  1  0  0  0  0
 11  5  1  0  0  0  0
 11  4  2  0  0  0  0
 12 20  1  0  0  0  0
 12 15  2  0  0  0  0
 14 17  2  0  0  0  0
 15 18  1  0  0  0  0
 17 13  1  0  0  0  0
 18 16  1  0  0  0  0
 18 13  2  0  0  0  0
 19 14  1  0  0  0  0
 20 14  1  0  0  0  0
 21 22  1  0  0  0  0
 21  1  1  0  0  0  0
 23 28  2  0  0  0  0
 23 26  1  0  0  0  0
 24 22  2  0  0  0  0
 25 26  1  0  0  0  0
 26 21  2  0  0  0  0
 27 23  1  0  0  0  0
 28 24  1  0  0  0  0
M  END
>  <MODEL>
6

>  <REMARK>
 VINA RESULT:     -11.1      3.395      7.249
  Name = 
  2 active torsions:
  status: ('A' for Active; 'I' for Inactive)
    1  A    between atoms: C_1  and  C_2
    2  A    between atoms: C_10  and  C_13
                            x       y       z     vdW  Elec       q    Type
                         _______ _______ _______ _____ _____    ______ ____

>  <TORSDO>
F 2

$$$$
=
 OpenBabel10262420473D

 28 31  0  0  1  0  0  0  0  0999 V2000
  182.1080  177.9730  140.6160 C   0  0  0  0  0  0  0  0  0  0  0  0
  179.6310  179.9130  143.5520 C   0  0  0  0  0  1  0  0  0  0  0  0
  184.5520  178.2290  143.5540 C   0  0  2  0  0  3  0  0  0  0  0  0
  181.8840  179.0220  142.8170 C   0  0  0  0  0  0  0  0  0  0  0  0
  184.1600  178.1450  142.0810 C   0  0  0  0  0  2  0  0  0  0  0  0
  179.9650  178.8530  141.3380 C   0  0  0  0  0  3  0  0  0  0  0  0
  182.4440  179.3780  144.1740 C   0  0  0  0  0  2  0  0  0  0  0  0
  180.5200  179.2500  142.5530 C   0  0  0  0  0  0  0  0  0  0  0  0
  183.9630  179.4860  144.1770 C   0  0  0  0  0  2  0  0  0  0  0  0
  180.7520  178.2220  140.3770 C   0  0  0  0  0  3  0  0  0  0  0  0
  182.6840  178.3640  141.8460 C   0  0  0  0  0  0  0  0  0  0  0  0
  186.8240  178.0850  142.6410 C   0  0  0  0  0  3  0  0  0  0  0  0
  187.6520  177.5940  145.5520 C   0  0  0  0  0  3  0  0  0  0  0  0
  188.8390  176.9340  143.4580 C   0  0  0  0  0  0  0  0  0  0  0  0
  186.0410  178.1700  143.7250 C   0  0  0  0  0  0  0  0  0  0  0  0
  185.8330  178.9170  146.0330 F   0  0  0  0  0  0  0  0  0  0  0  0
  188.5780  176.7660  144.7540 C   0  0  0  0  0  3  0  0  0  0  0  0
  186.5710  178.2530  145.1090 C   0  0  0  0  0  0  0  0  0  0  0  0
  189.7830  176.0030  142.7870 C   0  0  0  0  0  1  0  0  0  0  0  0
  188.3140  178.1000  142.6920 C   0  0  0  0  0  2  0  0  0  0  0  0
  182.9030  177.3260  139.5510 C   0  0  0  0  0  0  0  0  0  0  0  0
  182.6890  175.9670  139.2800 C   0  0  0  0  0  3  0  0  0  0  0  0
  184.6230  177.3700  137.8290 C   0  0  0  0  0  0  0  0  0  0  0  0
  183.4300  175.3150  138.2930 C   0  0  0  0  0  3  0  0  0  0  0  0
  184.1610  179.7530  139.0940 Cl  0  0  0  0  0  0  0  0  0  0  0  0
  183.8820  178.0340  138.8190 C   0  0  0  0  0  0  0  0  0  0  0  0
  185.5860  178.0490  137.0930 O   0  0  0  0  0  1  0  0  0  0  0  0
  184.3960  176.0160  137.5700 C   0  0  0  0  0  3  0  0  0  0  0  0
  1 11  1  0  0  0  0
  3 15  1  6  0  0  0
  3  9  1  0  0  0  0
  4  7  1  0  0  0  0
  5  3  1  0  0  0  0
  6  8  2  0  0  0  0
  7  9  1  0  0  0  0
  8  4  1  0  0  0  0
  8  2  1  0  0  0  0
 10  1  2  0  0  0  0
 10  6  1  0  0  0  0
 11  5  1  0  0  0  0
 11  4  2  0  0  0  0
 12 20  1  0  0  0  0
 12 15  2  0  0  0  0
 14 17  2  0  0  0  0
 15 18  1  0  0  0  0
 17 13  1  0  0  0  0
 18 13  2  0  0  0  0
 18 16  1  0  0  0  0
 19 14  1  0  0  0  0
 20 14  1  0  0  0  0
 21  1  1  0  0  0  0
 22 21  1  0  0  0  0
 23 26  1  0  0  0  0
 24 22  2  0  0  0  0
 26 25  1  0  0  0  0
 26 21  2  0  0  0  0
 27 23  1  0  0  0  0
 28 23  2  0  0  0  0
 28 24  1  0  0  0  0
M  END
>  <MODEL>
7

>  <REMARK>
 VINA RESULT:     -11.0      3.995      7.630
  Name = 
  2 active torsions:
  status: ('A' for Active; 'I' for Inactive)
    1  A    between atoms: C_1  and  C_2
    2  A    between atoms: C_10  and  C_13
                            x       y       z     vdW  Elec       q    Type
                         _______ _______ _______ _____ _____    ______ ____

>  <TORSDO>
F 2

$$$$
=
 OpenBabel10262420473D

 28 31  0  0  1  0  0  0  0  0999 V2000
  189.3550  177.5870  145.2700 C   0  0  0  0  0  0  0  0  0  0  0  0
  187.4170  177.5580  149.1120 C   0  0  0  0  0  1  0  0  0  0  0  0
  185.8520  178.8040  144.3110 C   0  0  2  0  0  3  0  0  0  0  0  0
  187.3140  177.8470  146.5990 C   0  0  0  0  0  0  0  0  0  0  0  0
  187.1970  178.1240  144.0680 C   0  0  0  0  0  2  0  0  0  0  0  0
  189.4200  177.2960  147.6770 C   0  0  0  0  0  3  0  0  0  0  0  0
  185.8580  178.2290  146.7230 C   0  0  0  0  0  2  0  0  0  0  0  0
  188.0550  177.5690  147.7640 C   0  0  0  0  0  0  0  0  0  0  0  0
  185.0940  178.0790  145.4140 C   0  0  0  0  0  2  0  0  0  0  0  0
  190.0630  177.3030  146.4430 C   0  0  0  0  0  3  0  0  0  0  0  0
  187.9720  177.8720  145.3400 C   0  0  0  0  0  0  0  0  0  0  0  0
  183.7350  178.6160  143.0850 C   0  0  0  0  0  3  0  0  0  0  0  0
  185.4960  178.8350  140.5860 C   0  0  0  0  0  3  0  0  0  0  0  0
  183.2320  177.8110  140.8160 C   0  0  0  0  0  0  0  0  0  0  0  0
  185.0470  178.8850  143.0480 C   0  0  0  0  0  0  0  0  0  0  0  0
  186.8430  180.1080  141.9490 F   0  0  0  0  0  0  0  0  0  0  0  0
  184.4080  177.9160  140.1980 C   0  0  0  0  0  3  0  0  0  0  0  0
  185.7570  179.3070  141.8140 C   0  0  0  0  0  0  0  0  0  0  0  0
  182.2430  176.8200  140.3180 C   0  0  0  0  0  1  0  0  0  0  0  0
  182.8280  178.7420  141.9090 C   0  0  0  0  0  2  0  0  0  0  0  0
  190.0800  177.5530  143.9830 C   0  0  0  0  0  0  0  0  0  0  0  0
  191.1870  178.3970  143.8090 C   0  0  0  0  0  3  0  0  0  0  0  0
  190.3900  176.7280  141.7130 C   0  0  0  0  0  0  0  0  0  0  0  0
  191.8890  178.4070  142.6030 C   0  0  0  0  0  3  0  0  0  0  0  0
  188.3190  175.6030  143.1050 Cl  0  0  0  0  0  0  0  0  0  0  0  0
  189.6770  176.7120  142.9230 C   0  0  0  0  0  0  0  0  0  0  0  0
  190.0130  175.9040  140.6610 O   0  0  0  0  0  1  0  0  0  0  0  0
  191.4900  177.5740  141.5580 C   0  0  0  0  0  3  0  0  0  0  0  0
  1 11  2  0  0  0  0
  1 10  1  0  0  0  0
  3 15  1  6  0  0  0
  3  9  1  0  0  0  0
  4  7  1  0  0  0  0
  4  8  2  0  0  0  0
  5  3  1  0  0  0  0
  5 11  1  0  0  0  0
  6  8  1  0  0  0  0
  8  2  1  0  0  0  0
  9  7  1  0  0  0  0
 10  6  2  0  0  0  0
 11  4  1  0  0  0  0
 13 18  2  0  0  0  0
 14 20  1  0  0  0  0
 15 12  2  0  0  0  0
 17 13  1  0  0  0  0
 17 14  2  0  0  0  0
 18 16  1  0  0  0  0
 18 15  1  0  0  0  0
 19 14  1  0  0  0  0
 20 12  1  0  0  0  0
 21  1  1  0  0  0  0
 22 21  1  0  0  0  0
 23 26  1  0  0  0  0
 24 22  2  0  0  0  0
 26 25  1  0  0  0  0
 26 21  2  0  0  0  0
 27 23  1  0  0  0  0
 28 23  2  0  0  0  0
 28 24  1  0  0  0  0
M  END
>  <MODEL>
8

>  <REMARK>
 VINA RESULT:     -10.2      3.032      5.592
  Name = 
  2 active torsions:
  status: ('A' for Active; 'I' for Inactive)
    1  A    between atoms: C_1  and  C_2
    2  A    between atoms: C_10  and  C_13
                            x       y       z     vdW  Elec       q    Type
                         _______ _______ _______ _____ _____    ______ ____

>  <TORSDO>
F 2

$$$$
=
 OpenBabel10262420473D

 28 31  0  0  1  0  0  0  0  0999 V2000
  186.2400  178.4410  140.9830 C   0  0  0  0  0  0  0  0  0  0  0  0
  189.4430  177.5950  138.2360 C   0  0  0  0  0  1  0  0  0  0  0  0
  189.0710  177.6020  143.4240 C   0  0  2  0  0  3  0  0  0  0  0  0
  188.5300  177.6640  140.5970 C   0  0  0  0  0  0  0  0  0  0  0  0
  187.6160  177.7130  142.9750 C   0  0  0  0  0  2  0  0  0  0  0  0
  187.1350  178.3470  138.7300 C   0  0  0  0  0  3  0  0  0  0  0  0
  189.8850  177.2350  141.1110 C   0  0  0  0  0  2  0  0  0  0  0  0
  188.3520  177.8710  139.2150 C   0  0  0  0  0  0  0  0  0  0  0  0
  189.8250  176.6430  142.5130 C   0  0  0  0  0  2  0  0  0  0  0  0
  186.0880  178.6280  139.6050 C   0  0  0  0  0  3  0  0  0  0  0  0
  187.4710  177.9660  141.4930 C   0  0  0  0  0  0  0  0  0  0  0  0
  188.0610  177.1900  145.6220 C   0  0  0  0  0  3  0  0  0  0  0  0
  190.9610  176.9910  146.5960 C   0  0  0  0  0  3  0  0  0  0  0  0
  188.9110  177.5600  147.9000 C   0  0  0  0  0  0  0  0  0  0  0  0
  189.1660  177.1890  144.8630 C   0  0  0  0  0  0  0  0  0  0  0  0
  191.3620  176.2150  144.4670 F   0  0  0  0  0  0  0  0  0  0  0  0
  190.2300  177.6100  147.7190 C   0  0  0  0  0  3  0  0  0  0  0  0
  190.4950  176.7540  145.3610 C   0  0  0  0  0  0  0  0  0  0  0  0
  188.3180  178.2530  149.0730 C   0  0  0  0  0  1  0  0  0  0  0  0
  188.0260  176.7250  147.0370 C   0  0  0  0  0  2  0  0  0  0  0  0
  185.0890  178.7280  141.8640 C   0  0  0  0  0  0  0  0  0  0  0  0
  185.3190  179.3800  143.0840 C   0  0  0  0  0  3  0  0  0  0  0  0
  182.7160  178.6280  142.3970 C   0  0  0  0  0  0  0  0  0  0  0  0
  184.2600  179.6550  143.9520 C   0  0  0  0  0  3  0  0  0  0  0  0
  183.4270  177.5620  139.9780 Cl  0  0  0  0  0  0  0  0  0  0  0  0
  183.7740  178.3460  141.5180 C   0  0  0  0  0  0  0  0  0  0  0  0
  181.4140  178.2670  142.0730 O   0  0  0  0  0  1  0  0  0  0  0  0
  182.9620  179.2790  143.6080 C   0  0  0  0  0  3  0  0  0  0  0  0
  1 11  1  0  0  0  0
  1 21  1  0  0  0  0
  2  8  1  0  0  0  0
  3 15  1  1  0  0  0
  4  7  1  0  0  0  0
  4 11  2  0  0  0  0
  5  3  1  0  0  0  0
  6  8  2  0  0  0  0
  6 10  1  0  0  0  0
  7  9  1  0  0  0  0
  8  4  1  0  0  0  0
  9  3  1  0  0  0  0
 10  1  2  0  0  0  0
 11  5  1  0  0  0  0
 12 20  1  0  0  0  0
 13 17  1  0  0  0  0
 14 19  1  0  0  0  0
 15 18  1  0  0  0  0
 15 12  2  0  0  0  0
 16 18  1  0  0  0  0
 17 14  2  0  0  0  0
 18 13  2  0  0  0  0
 20 14  1  0  0  0  0
 21 22  1  0  0  0  0
 22 24  2  0  0  0  0
 23 28  2  0  0  0  0
 25 26  1  0  0  0  0
 26 21  2  0  0  0  0
 26 23  1  0  0  0  0
 27 23  1  0  0  0  0
 28 24  1  0  0  0  0
M  END
>  <MODEL>
9

>  <REMARK>
 VINA RESULT:     -10.2      2.202      6.121
  Name = 
  2 active torsions:
  status: ('A' for Active; 'I' for Inactive)
    1  A    between atoms: C_1  and  C_2
    2  A    between atoms: C_10  and  C_13
                            x       y       z     vdW  Elec       q    Type
                         _______ _______ _______ _____ _____    ______ ____

>  <TORSDO>
F 2

$$$$
