=
 OpenBabel10262419503D

 25 29  0  0  1  0  0  0  0  0999 V2000
  187.3820  177.8980  145.5570 C   0  0  0  0  0  0  0  0  0  0  0  0
  186.5770  178.2140  144.4530 C   0  0  0  0  0  0  0  0  0  0  0  0
  185.5160  178.3260  147.0480 C   0  0  0  0  0  3  0  0  0  0  0  0
  188.7310  177.5070  145.5710 C   0  0  0  0  0  0  0  0  0  0  0  0
  191.3740  176.7120  145.9970 C   0  0  0  0  0  3  0  0  0  0  0  0
  184.7430  178.6300  145.9680 N   0  0  0  0  0  0  0  0  0  0  0  0
  189.2080  177.2730  146.8600 C   0  0  0  0  0  0  0  0  0  0  0  0
  190.5210  176.8760  147.0990 C   0  0  0  0  0  3  0  0  0  0  0  0
  184.4310  178.8990  143.5870 C   0  0  0  0  0  0  0  0  0  0  0  0
  183.0050  179.2990  143.7590 C   0  0  0  0  0  1  0  0  0  0  0  0
  187.0510  178.1720  143.1820 N   0  0  0  0  0  0  0  0  0  0  0  0
  190.9050  176.9450  144.6910 C   0  0  0  0  0  3  0  0  0  0  0  0
  186.8410  177.9590  146.8380 C   0  0  0  0  0  0  0  0  0  0  0  0
  187.9920  177.5390  147.9970 S   0  0  0  0  0  0  0  0  0  0  0  0
  184.9570  178.8400  142.3360 N   0  0  0  0  0  0  0  0  0  0  0  0
  189.5780  177.3450  144.4700 C   0  0  0  0  0  3  0  0  0  0  0  0
  186.2530  178.4810  142.1230 C   0  0  0  0  0  0  0  0  0  0  0  0
  185.2330  178.5840  144.6900 C   0  0  0  0  0  0  0  0  0  0  0  0
  187.0480  177.7930  138.3540 C   0  0  1  0  0  3  0  0  0  0  0  0
  186.7860  178.4320  140.7530 C   0  0  2  0  0  3  0  0  0  0  0  0
  185.7430  178.6230  139.3130 S   0  0  0  0  0  0  0  0  0  0  0  0
  187.0190  178.2280  136.8990 C   0  0  0  0  0  1  0  0  0  0  0  0
  188.0550  178.1560  140.4910 C   0  0  0  0  0  2  0  0  0  0  0  0
  188.3820  178.0810  139.0440 C   0  0  2  0  0  3  0  0  0  0  0  0
  188.9000  179.3150  138.6370 O   0  0  0  0  0  1  0  0  0  0  0  0
  1  4  1  0  0  0  0
  1 13  2  0  0  0  0
  2 18  2  0  0  0  0
  2  1  1  0  0  0  0
  4  7  1  0  0  0  0
  5  8  1  0  0  0  0
  6  3  2  0  0  0  0
  7  8  2  0  0  0  0
  7 14  1  0  0  0  0
  9 10  1  0  0  0  0
  9 18  1  0  0  0  0
 11  2  1  0  0  0  0
 12  5  2  0  0  0  0
 13  3  1  0  0  0  0
 13 14  1  0  0  0  0
 15  9  2  0  0  0  0
 16 12  1  0  0  0  0
 16  4  2  0  0  0  0
 17 15  1  0  0  0  0
 17 11  2  0  0  0  0
 18  6  1  0  0  0  0
 19 22  1  6  0  0  0
 19 24  1  0  0  0  0
 19 21  1  0  0  0  0
 20 17  1  1  0  0  0
 21 20  1  0  0  0  0
 23 20  1  0  0  0  0
 24 25  1  6  0  0  0
 24 23  1  0  0  0  0
M  END
>  <MODEL>
1

>  <REMARK>
 VINA RESULT:     -10.2      0.000      0.000
  Name = 
  1 active torsions:
  status: ('A' for Active; 'I' for Inactive)
    1  A    between atoms: C_6  and  C_23
                            x       y       z     vdW  Elec       q    Type
                         _______ _______ _______ _____ _____    ______ ____

>  <TORSDO>
F 1

$$$$
=
 OpenBabel10262419503D

 25 29  0  0  1  0  0  0  0  0999 V2000
  186.8830  177.9310  144.7670 C   0  0  0  0  0  0  0  0  0  0  0  0
  188.0290  177.5950  144.0310 C   0  0  0  0  0  0  0  0  0  0  0  0
  188.0990  177.5670  146.8350 C   0  0  0  0  0  3  0  0  0  0  0  0
  185.6170  178.3050  144.2890 C   0  0  0  0  0  0  0  0  0  0  0  0
  182.9940  179.0800  143.7240 C   0  0  0  0  0  3  0  0  0  0  0  0
  189.2060  177.2430  146.1100 N   0  0  0  0  0  0  0  0  0  0  0  0
  184.7130  178.5690  145.3160 C   0  0  0  0  0  0  0  0  0  0  0  0
  183.4000  178.9570  145.0610 C   0  0  0  0  0  3  0  0  0  0  0  0
  190.3440  176.9130  144.0050 C   0  0  0  0  0  0  0  0  0  0  0  0
  191.6170  176.5350  144.6830 C   0  0  0  0  0  1  0  0  0  0  0  0
  188.0380  177.5960  142.6730 N   0  0  0  0  0  0  0  0  0  0  0  0
  183.8970  178.8160  142.6770 C   0  0  0  0  0  3  0  0  0  0  0  0
  186.9350  177.9120  146.1570 C   0  0  0  0  0  0  0  0  0  0  0  0
  185.4460  178.3500  146.8180 S   0  0  0  0  0  0  0  0  0  0  0  0
  190.2960  176.9300  142.6470 N   0  0  0  0  0  0  0  0  0  0  0  0
  185.2170  178.4260  142.9540 C   0  0  0  0  0  3  0  0  0  0  0  0
  189.1600  177.2670  141.9770 C   0  0  0  0  0  0  0  0  0  0  0  0
  189.2010  177.2480  144.7410 C   0  0  0  0  0  0  0  0  0  0  0  0
  189.9040  177.6080  138.1500 C   0  0  1  0  0  3  0  0  0  0  0  0
  189.1490  177.2720  140.5060 C   0  0  2  0  0  3  0  0  0  0  0  0
  190.4840  176.5810  139.5360 S   0  0  0  0  0  0  0  0  0  0  0  0
  190.2630  176.9790  136.8150 C   0  0  0  0  0  1  0  0  0  0  0  0
  188.1960  177.8640  139.8020 C   0  0  0  0  0  2  0  0  0  0  0  0
  188.4010  177.8230  138.3320 C   0  0  2  0  0  3  0  0  0  0  0  0
  187.6750  176.7480  137.8080 O   0  0  0  0  0  1  0  0  0  0  0  0
  1 13  2  0  0  0  0
  2 18  2  0  0  0  0
  2  1  1  0  0  0  0
  4  1  1  0  0  0  0
  4  7  1  0  0  0  0
  5  8  1  0  0  0  0
  6  3  2  0  0  0  0
  7 14  1  0  0  0  0
  8  7  2  0  0  0  0
  9 10  1  0  0  0  0
  9 18  1  0  0  0  0
 11  2  1  0  0  0  0
 12 16  1  0  0  0  0
 12  5  2  0  0  0  0
 13 14  1  0  0  0  0
 13  3  1  0  0  0  0
 15  9  2  0  0  0  0
 16  4  2  0  0  0  0
 17 15  1  0  0  0  0
 17 11  2  0  0  0  0
 18  6  1  0  0  0  0
 19 22  1  6  0  0  0
 19 24  1  0  0  0  0
 19 21  1  0  0  0  0
 20 17  1  1  0  0  0
 21 20  1  0  0  0  0
 23 20  1  0  0  0  0
 24 25  1  1  0  0  0
 24 23  1  0  0  0  0
M  END
>  <MODEL>
2

>  <REMARK>
 VINA RESULT:     -10.2      2.078      4.666
  Name = 
  1 active torsions:
  status: ('A' for Active; 'I' for Inactive)
    1  A    between atoms: C_6  and  C_23
                            x       y       z     vdW  Elec       q    Type
                         _______ _______ _______ _____ _____    ______ ____

>  <TORSDO>
F 1

$$$$
=
 OpenBabel10262419503D

 25 29  0  0  1  0  0  0  0  0999 V2000
  186.4180  178.3180  144.4930 C   0  0  0  0  0  0  0  0  0  0  0  0
  186.5360  178.3640  143.0960 C   0  0  0  0  0  0  0  0  0  0  0  0
  184.1450  179.1550  144.3330 C   0  0  0  0  0  3  0  0  0  0  0  0
  187.3730  177.9100  145.4370 C   0  0  0  0  0  0  0  0  0  0  0  0
  188.9950  177.1820  147.5910 C   0  0  0  0  0  3  0  0  0  0  0  0
  184.2720  179.1950  142.9760 N   0  0  0  0  0  0  0  0  0  0  0  0
  186.9040  177.9970  146.7470 C   0  0  0  0  0  0  0  0  0  0  0  0
  187.6920  177.6400  147.8380 C   0  0  0  0  0  3  0  0  0  0  0  0
  185.5460  178.8610  140.9510 C   0  0  0  0  0  0  0  0  0  0  0  0
  184.4190  179.3270  140.0940 C   0  0  0  0  0  1  0  0  0  0  0  0
  187.6750  177.9910  142.4580 N   0  0  0  0  0  0  0  0  0  0  0  0
  189.4810  177.0900  146.2740 C   0  0  0  0  0  3  0  0  0  0  0  0
  185.2250  178.7140  145.0910 C   0  0  0  0  0  0  0  0  0  0  0  0
  185.3190  178.5720  146.7690 S   0  0  0  0  0  0  0  0  0  0  0  0
  186.7100  178.4750  140.3650 N   0  0  0  0  0  0  0  0  0  0  0  0
  188.6710  177.4540  145.1860 C   0  0  0  0  0  3  0  0  0  0  0  0
  187.7700  178.0420  141.1010 C   0  0  0  0  0  0  0  0  0  0  0  0
  185.4260  178.8160  142.3460 C   0  0  0  0  0  0  0  0  0  0  0  0
  190.5560  176.5260  138.8080 C   0  0  1  0  0  3  0  0  0  0  0  0
  189.0140  177.6350  140.4290 C   0  0  2  0  0  3  0  0  0  0  0  0
  189.2310  177.7640  138.6580 S   0  0  0  0  0  0  0  0  0  0  0  0
  191.5800  176.6830  137.6980 C   0  0  0  0  0  1  0  0  0  0  0  0
  190.0200  177.0650  141.0740 C   0  0  0  0  0  2  0  0  0  0  0  0
  191.1560  176.6600  140.2080 C   0  0  2  0  0  3  0  0  0  0  0  0
  192.1270  177.6670  140.2420 O   0  0  0  0  0  1  0  0  0  0  0  0
  1 13  2  0  0  0  0
  1  4  1  0  0  0  0
  2  1  1  0  0  0  0
  3 13  1  0  0  0  0
  4  7  1  0  0  0  0
  5  8  1  0  0  0  0
  6  3  2  0  0  0  0
  7 14  1  0  0  0  0
  7  8  2  0  0  0  0
  9 18  1  0  0  0  0
 10  9  1  0  0  0  0
 11  2  1  0  0  0  0
 12  5  2  0  0  0  0
 13 14  1  0  0  0  0
 15  9  2  0  0  0  0
 15 17  1  0  0  0  0
 16  4  2  0  0  0  0
 16 12  1  0  0  0  0
 17 11  2  0  0  0  0
 18  6  1  0  0  0  0
 18  2  2  0  0  0  0
 19 22  1  6  0  0  0
 19 24  1  0  0  0  0
 20 23  1  0  0  0  0
 20 17  1  6  0  0  0
 21 19  1  0  0  0  0
 21 20  1  0  0  0  0
 24 25  1  6  0  0  0
 24 23  1  0  0  0  0
M  END
>  <MODEL>
3

>  <REMARK>
 VINA RESULT:     -10.0      2.016      2.834
  Name = 
  1 active torsions:
  status: ('A' for Active; 'I' for Inactive)
    1  A    between atoms: C_6  and  C_23
                            x       y       z     vdW  Elec       q    Type
                         _______ _______ _______ _____ _____    ______ ____

>  <TORSDO>
F 1

$$$$
=
 OpenBabel10262419503D

 25 29  0  0  1  0  0  0  0  0999 V2000
  187.9790  177.6810  145.6680 C   0  0  0  0  0  0  0  0  0  0  0  0
  187.2930  177.9330  144.4700 C   0  0  0  0  0  0  0  0  0  0  0  0
  185.9920  178.2640  146.9340 C   0  0  0  0  0  3  0  0  0  0  0  0
  189.3070  177.2590  145.8410 C   0  0  0  0  0  0  0  0  0  0  0  0
  191.8690  176.4320  146.5800 C   0  0  0  0  0  3  0  0  0  0  0  0
  185.3360  178.5060  145.7630 N   0  0  0  0  0  0  0  0  0  0  0  0
  189.6500  177.1090  147.1840 C   0  0  0  0  0  0  0  0  0  0  0  0
  190.9210  176.6980  147.5790 C   0  0  0  0  0  3  0  0  0  0  0  0
  185.2630  178.6050  143.3510 C   0  0  0  0  0  0  0  0  0  0  0  0
  183.8410  179.0520  143.3530 C   0  0  0  0  0  1  0  0  0  0  0  0
  187.8860  177.7860  143.2580 N   0  0  0  0  0  0  0  0  0  0  0  0
  191.5360  176.5790  145.2210 C   0  0  0  0  0  3  0  0  0  0  0  0
  187.3190  177.8500  146.8810 C   0  0  0  0  0  0  0  0  0  0  0  0
  188.3400  177.4890  148.1740 S   0  0  0  0  0  0  0  0  0  0  0  0
  185.9050  178.4410  142.1650 N   0  0  0  0  0  0  0  0  0  0  0  0
  190.2490  176.9940  144.8430 C   0  0  0  0  0  3  0  0  0  0  0  0
  187.2040  178.0350  142.1060 C   0  0  0  0  0  0  0  0  0  0  0  0
  185.9460  178.3530  144.5470 C   0  0  0  0  0  0  0  0  0  0  0  0
  189.6030  177.9950  139.0150 C   0  0  1  0  0  3  0  0  0  0  0  0
  187.8640  177.8710  140.8020 C   0  0  2  0  0  3  0  0  0  0  0  0
  189.5060  177.1820  140.6400 S   0  0  0  0  0  0  0  0  0  0  0  0
  190.5420  177.2480  138.0840 C   0  0  0  0  0  1  0  0  0  0  0  0
  187.3250  178.3020  139.6710 C   0  0  0  0  0  2  0  0  0  0  0  0
  188.1780  178.1100  138.4710 C   0  0  2  0  0  3  0  0  0  0  0  0
  187.7900  176.9290  137.8300 O   0  0  0  0  0  1  0  0  0  0  0  0
  1  4  1  0  0  0  0
  1 13  2  0  0  0  0
  2 18  2  0  0  0  0
  2  1  1  0  0  0  0
  4  7  1  0  0  0  0
  5  8  1  0  0  0  0
  6  3  2  0  0  0  0
  7  8  2  0  0  0  0
  7 14  1  0  0  0  0
  9 10  1  0  0  0  0
  9 18  1  0  0  0  0
 11  2  1  0  0  0  0
 12  5  2  0  0  0  0
 13  3  1  0  0  0  0
 13 14  1  0  0  0  0
 15  9  2  0  0  0  0
 16 12  1  0  0  0  0
 16  4  2  0  0  0  0
 17 15  1  0  0  0  0
 17 11  2  0  0  0  0
 18  6  1  0  0  0  0
 19 22  1  6  0  0  0
 19 21  1  0  0  0  0
 20 17  1  1  0  0  0
 21 20  1  0  0  0  0
 23 20  1  0  0  0  0
 24 25  1  1  0  0  0
 24 19  1  0  0  0  0
 24 23  1  0  0  0  0
M  END
>  <MODEL>
4

>  <REMARK>
 VINA RESULT:      -9.9      1.341      1.566
  Name = 
  1 active torsions:
  status: ('A' for Active; 'I' for Inactive)
    1  A    between atoms: C_6  and  C_23
                            x       y       z     vdW  Elec       q    Type
                         _______ _______ _______ _____ _____    ______ ____

>  <TORSDO>
F 1

$$$$
=
 OpenBabel10262419503D

 25 29  0  0  1  0  0  0  0  0999 V2000
  189.3980  177.5030  144.1990 C   0  0  0  0  0  0  0  0  0  0  0  0
  189.0530  177.6440  142.8460 C   0  0  0  0  0  0  0  0  0  0  0  0
  191.6690  176.9280  143.5650 C   0  0  0  0  0  3  0  0  0  0  0  0
  188.5840  177.6760  145.3300 C   0  0  0  0  0  0  0  0  0  0  0  0
  187.2920  177.9250  147.7930 C   0  0  0  0  0  3  0  0  0  0  0  0
  191.3230  177.0680  142.2550 N   0  0  0  0  0  0  0  0  0  0  0  0
  189.2700  177.4510  146.5230 C   0  0  0  0  0  0  0  0  0  0  0  0
  188.6480  177.5690  147.7630 C   0  0  0  0  0  3  0  0  0  0  0  0
  189.7090  177.5570  140.5250 C   0  0  0  0  0  0  0  0  0  0  0  0
  190.7100  177.3320  139.4440 C   0  0  0  0  0  1  0  0  0  0  0  0
  187.8000  177.9890  142.4560 N   0  0  0  0  0  0  0  0  0  0  0  0
  186.5880  178.1550  146.5960 C   0  0  0  0  0  3  0  0  0  0  0  0
  190.7000  177.1470  144.5380 C   0  0  0  0  0  0  0  0  0  0  0  0
  190.8750  177.0400  146.2130 S   0  0  0  0  0  0  0  0  0  0  0  0
  188.4380  177.9040  140.1910 N   0  0  0  0  0  0  0  0  0  0  0  0
  187.2320  178.0310  145.3540 C   0  0  0  0  0  3  0  0  0  0  0  0
  187.4850  178.1210  141.1380 C   0  0  0  0  0  0  0  0  0  0  0  0
  190.0540  177.4160  141.8740 C   0  0  0  0  0  0  0  0  0  0  0  0
  183.6330  178.4390  140.5260 C   0  0  1  0  0  3  0  0  0  0  0  0
  186.1200  178.4940  140.7350 C   0  0  2  0  0  3  0  0  0  0  0  0
  184.7870  178.6680  141.9150 S   0  0  0  0  0  0  0  0  0  0  0  0
  182.3070  179.1280  140.7980 C   0  0  0  0  0  1  0  0  0  0  0  0
  185.7660  178.6380  139.4670 C   0  0  0  0  0  2  0  0  0  0  0  0
  184.3280  178.9440  139.2610 C   0  0  2  0  0  3  0  0  0  0  0  0
  184.1780  180.3280  139.1250 O   0  0  0  0  0  1  0  0  0  0  0  0
  1 13  2  0  0  0  0
  1  4  1  0  0  0  0
  2  1  1  0  0  0  0
  3 13  1  0  0  0  0
  4 16  2  0  0  0  0
  4  7  1  0  0  0  0
  6  3  2  0  0  0  0
  7  8  2  0  0  0  0
  8  5  1  0  0  0  0
  9 18  1  0  0  0  0
 10  9  1  0  0  0  0
 11  2  1  0  0  0  0
 12  5  2  0  0  0  0
 13 14  1  0  0  0  0
 14  7  1  0  0  0  0
 15  9  2  0  0  0  0
 15 17  1  0  0  0  0
 16 12  1  0  0  0  0
 17 11  2  0  0  0  0
 18  6  1  0  0  0  0
 18  2  2  0  0  0  0
 19 22  1  1  0  0  0
 19 21  1  0  0  0  0
 20 17  1  6  0  0  0
 20 21  1  0  0  0  0
 23 20  1  0  0  0  0
 24 25  1  1  0  0  0
 24 23  1  0  0  0  0
 24 19  1  0  0  0  0
M  END
>  <MODEL>
5

>  <REMARK>
 VINA RESULT:      -9.7      2.282      4.476
  Name = 
  1 active torsions:
  status: ('A' for Active; 'I' for Inactive)
    1  A    between atoms: C_6  and  C_23
                            x       y       z     vdW  Elec       q    Type
                         _______ _______ _______ _____ _____    ______ ____

>  <TORSDO>
F 1

$$$$
=
 OpenBabel10262419503D

 25 29  0  0  1  0  0  0  0  0999 V2000
  187.1540  177.8780  145.4170 C   0  0  0  0  0  0  0  0  0  0  0  0
  188.4530  177.4900  145.0560 C   0  0  0  0  0  0  0  0  0  0  0  0
  187.7230  177.6200  147.7620 C   0  0  0  0  0  3  0  0  0  0  0  0
  186.0860  178.2370  144.5800 C   0  0  0  0  0  0  0  0  0  0  0  0
  183.7520  179.0040  143.2520 C   0  0  0  0  0  3  0  0  0  0  0  0
  188.9820  177.2440  147.3990 N   0  0  0  0  0  0  0  0  0  0  0  0
  184.9340  178.5670  145.2920 C   0  0  0  0  0  0  0  0  0  0  0  0
  183.7580  178.9520  144.6540 C   0  0  0  0  0  3  0  0  0  0  0  0
  190.6620  176.7850  145.7260 C   0  0  0  0  0  0  0  0  0  0  0  0
  191.6790  176.4340  146.7570 C   0  0  0  0  0  1  0  0  0  0  0  0
  188.8470  177.4140  143.7590 N   0  0  0  0  0  0  0  0  0  0  0  0
  184.9070  178.6720  142.5210 C   0  0  0  0  0  3  0  0  0  0  0  0
  186.8080  177.9370  146.7640 C   0  0  0  0  0  0  0  0  0  0  0  0
  185.2040  178.4260  146.9500 S   0  0  0  0  0  0  0  0  0  0  0  0
  191.0020  176.7260  144.4110 N   0  0  0  0  0  0  0  0  0  0  0  0
  186.0840  178.2860  143.1820 C   0  0  0  0  0  3  0  0  0  0  0  0
  190.1120  177.0360  143.4290 C   0  0  0  0  0  0  0  0  0  0  0  0
  189.3660  177.1720  146.0870 C   0  0  0  0  0  0  0  0  0  0  0  0
  191.6650  177.5020  139.8680 C   0  0  1  0  0  3  0  0  0  0  0  0
  190.5190  176.9580  142.0180 C   0  0  2  0  0  3  0  0  0  0  0  0
  192.2350  176.9760  141.5140 S   0  0  0  0  0  0  0  0  0  0  0  0
  192.6390  177.0680  138.7860 C   0  0  0  0  0  1  0  0  0  0  0  0
  189.6450  176.9580  141.0220 C   0  0  0  0  0  2  0  0  0  0  0  0
  190.2540  176.9480  139.6690 C   0  0  2  0  0  3  0  0  0  0  0  0
  190.2960  175.6280  139.2050 O   0  0  0  0  0  1  0  0  0  0  0  0
  1 13  1  0  0  0  0
  2  1  2  0  0  0  0
  2 18  1  0  0  0  0
  4  7  1  0  0  0  0
  4  1  1  0  0  0  0
  5  8  1  0  0  0  0
  6  3  1  0  0  0  0
  7 14  1  0  0  0  0
  8  7  2  0  0  0  0
  9 18  1  0  0  0  0
  9 10  1  0  0  0  0
 11  2  1  0  0  0  0
 12 16  1  0  0  0  0
 12  5  2  0  0  0  0
 13 14  1  0  0  0  0
 13  3  2  0  0  0  0
 15  9  2  0  0  0  0
 16  4  2  0  0  0  0
 17 11  2  0  0  0  0
 17 15  1  0  0  0  0
 18  6  2  0  0  0  0
 19 22  1  6  0  0  0
 19 21  1  0  0  0  0
 20 17  1  1  0  0  0
 21 20  1  0  0  0  0
 23 20  1  0  0  0  0
 24 25  1  1  0  0  0
 24 19  1  0  0  0  0
 24 23  1  0  0  0  0
M  END
>  <MODEL>
6

>  <REMARK>
 VINA RESULT:      -9.6      2.683      5.062
  Name = 
  1 active torsions:
  status: ('A' for Active; 'I' for Inactive)
    1  A    between atoms: C_6  and  C_23
                            x       y       z     vdW  Elec       q    Type
                         _______ _______ _______ _____ _____    ______ ____

>  <TORSDO>
F 1

$$$$
=
 OpenBabel10262419503D

 25 29  0  0  1  0  0  0  0  0999 V2000
  186.2740  178.3270  142.1450 C   0  0  0  0  0  0  0  0  0  0  0  0
  187.6160  177.9720  142.3480 C   0  0  0  0  0  0  0  0  0  0  0  0
  186.6620  178.4430  139.7520 C   0  0  0  0  0  3  0  0  0  0  0  0
  185.2610  178.4960  143.1020 C   0  0  0  0  0  0  0  0  0  0  0  0
  183.0080  178.9200  144.6960 C   0  0  0  0  0  3  0  0  0  0  0  0
  187.9630  178.0970  139.9620 N   0  0  0  0  0  0  0  0  0  0  0  0
  184.0400  178.8530  142.5330 C   0  0  0  0  0  0  0  0  0  0  0  0
  182.9020  179.0710  143.3050 C   0  0  0  0  0  3  0  0  0  0  0  0
  189.7960  177.5080  141.4210 C   0  0  0  0  0  0  0  0  0  0  0  0
  190.7420  177.3730  140.2780 C   0  0  0  0  0  1  0  0  0  0  0  0
  188.1180  177.7360  143.5870 N   0  0  0  0  0  0  0  0  0  0  0  0
  184.2350  178.5600  145.2840 C   0  0  0  0  0  3  0  0  0  0  0  0
  185.8170  178.5580  140.8510 C   0  0  0  0  0  0  0  0  0  0  0  0
  184.1800  178.9670  140.8570 S   0  0  0  0  0  0  0  0  0  0  0  0
  190.2450  177.2830  142.6840 N   0  0  0  0  0  0  0  0  0  0  0  0
  185.3710  178.3460  144.4880 C   0  0  0  0  0  3  0  0  0  0  0  0
  189.4230  177.3920  143.7640 C   0  0  0  0  0  0  0  0  0  0  0  0
  188.4570  177.8620  141.2170 C   0  0  0  0  0  0  0  0  0  0  0  0
  191.1560  176.0400  147.0010 C   0  0  1  0  0  3  0  0  0  0  0  0
  189.9480  177.1430  145.1150 C   0  0  2  0  0  3  0  0  0  0  0  0
  191.6720  176.7760  145.4190 S   0  0  0  0  0  0  0  0  0  0  0  0
  192.2720  176.1140  148.0290 C   0  0  0  0  0  1  0  0  0  0  0  0
  189.1680  177.0850  146.1840 C   0  0  0  0  0  2  0  0  0  0  0  0
  189.8770  176.7500  147.4450 C   0  0  2  0  0  3  0  0  0  0  0  0
  190.1730  177.9380  148.1220 O   0  0  0  0  0  1  0  0  0  0  0  0
  1  2  1  0  0  0  0
  1  4  1  0  0  0  0
  2 11  1  0  0  0  0
  3  6  2  0  0  0  0
  3 13  1  0  0  0  0
  4 16  1  0  0  0  0
  5 12  1  0  0  0  0
  6 18  1  0  0  0  0
  7  4  2  0  0  0  0
  7  8  1  0  0  0  0
  8  5  2  0  0  0  0
  9 15  2  0  0  0  0
 10  9  1  0  0  0  0
 11 17  2  0  0  0  0
 13 14  1  0  0  0  0
 13  1  2  0  0  0  0
 14  7  1  0  0  0  0
 15 17  1  0  0  0  0
 16 12  2  0  0  0  0
 18  9  1  0  0  0  0
 18  2  2  0  0  0  0
 19 24  1  0  0  0  0
 19 22  1  1  0  0  0
 20 17  1  6  0  0  0
 20 21  1  0  0  0  0
 20 23  1  0  0  0  0
 21 19  1  0  0  0  0
 23 24  1  0  0  0  0
 24 25  1  6  0  0  0
M  END
>  <MODEL>
7

>  <REMARK>
 VINA RESULT:      -9.5      2.765      7.076
  Name = 
  1 active torsions:
  status: ('A' for Active; 'I' for Inactive)
    1  A    between atoms: C_6  and  C_23
                            x       y       z     vdW  Elec       q    Type
                         _______ _______ _______ _____ _____    ______ ____

>  <TORSDO>
F 1

$$$$
=
 OpenBabel10262419503D

 25 29  0  0  1  0  0  0  0  0999 V2000
  186.9640  177.9380  144.1550 C   0  0  0  0  0  0  0  0  0  0  0  0
  187.9970  177.6750  143.2430 C   0  0  0  0  0  0  0  0  0  0  0  0
  188.4850  177.5330  146.0020 C   0  0  0  0  0  3  0  0  0  0  0  0
  185.6300  178.2850  143.8870 C   0  0  0  0  0  0  0  0  0  0  0  0
  182.9300  178.9850  143.7520 C   0  0  0  0  0  3  0  0  0  0  0  0
  189.4800  177.2810  145.1070 N   0  0  0  0  0  0  0  0  0  0  0  0
  184.8810  178.4730  145.0480 C   0  0  0  0  0  0  0  0  0  0  0  0
  183.5340  178.8220  145.0080 C   0  0  0  0  0  3  0  0  0  0  0  0
  190.3010  177.0800  142.8440 C   0  0  0  0  0  0  0  0  0  0  0  0
  191.6710  176.7220  143.3090 C   0  0  0  0  0  1  0  0  0  0  0  0
  187.8030  177.7330  141.9010 N   0  0  0  0  0  0  0  0  0  0  0  0
  183.6740  178.7990  142.5730 C   0  0  0  0  0  3  0  0  0  0  0  0
  187.2220  177.8630  145.5200 C   0  0  0  0  0  0  0  0  0  0  0  0
  185.8360  178.2180  146.4130 S   0  0  0  0  0  0  0  0  0  0  0  0
  190.0510  177.1520  141.5100 N   0  0  0  0  0  0  0  0  0  0  0  0
  185.0320  178.4470  142.6330 C   0  0  0  0  0  3  0  0  0  0  0  0
  188.8180  177.4750  141.0310 C   0  0  0  0  0  0  0  0  0  0  0  0
  189.2710  177.3420  143.7550 C   0  0  0  0  0  0  0  0  0  0  0  0
  187.5550  177.1380  137.3430 C   0  0  1  0  0  3  0  0  0  0  0  0
  188.5880  177.5410  139.5800 C   0  0  2  0  0  3  0  0  0  0  0  0
  186.9870  177.9270  138.8810 S   0  0  0  0  0  0  0  0  0  0  0  0
  186.8440  177.7210  136.1340 C   0  0  0  0  0  1  0  0  0  0  0  0
  189.5240  177.2330  138.6950 C   0  0  0  0  0  2  0  0  0  0  0  0
  189.0760  177.2900  137.2810 C   0  0  2  0  0  3  0  0  0  0  0  0
  189.4340  178.5320  136.7460 O   0  0  0  0  0  1  0  0  0  0  0  0
  1 13  2  0  0  0  0
  2 18  2  0  0  0  0
  2  1  1  0  0  0  0
  4  1  1  0  0  0  0
  4  7  1  0  0  0  0
  5  8  1  0  0  0  0
  6  3  2  0  0  0  0
  7 14  1  0  0  0  0
  8  7  2  0  0  0  0
  9 10  1  0  0  0  0
  9 18  1  0  0  0  0
 11  2  1  0  0  0  0
 12 16  1  0  0  0  0
 12  5  2  0  0  0  0
 13  3  1  0  0  0  0
 13 14  1  0  0  0  0
 15  9  2  0  0  0  0
 16  4  2  0  0  0  0
 17 15  1  0  0  0  0
 17 11  2  0  0  0  0
 18  6  1  0  0  0  0
 19 22  1  6  0  0  0
 19 21  1  0  0  0  0
 20 17  1  1  0  0  0
 21 20  1  0  0  0  0
 23 20  1  0  0  0  0
 24 25  1  1  0  0  0
 24 19  1  0  0  0  0
 24 23  1  0  0  0  0
M  END
>  <MODEL>
8

>  <REMARK>
 VINA RESULT:      -9.4      1.886      4.544
  Name = 
  1 active torsions:
  status: ('A' for Active; 'I' for Inactive)
    1  A    between atoms: C_6  and  C_23
                            x       y       z     vdW  Elec       q    Type
                         _______ _______ _______ _____ _____    ______ ____

>  <TORSDO>
F 1

$$$$
=
 OpenBabel10262419503D

 25 29  0  0  1  0  0  0  0  0999 V2000
  189.2180  177.5960  143.8230 C   0  0  0  0  0  0  0  0  0  0  0  0
  188.4390  177.8810  142.6910 C   0  0  0  0  0  0  0  0  0  0  0  0
  191.1970  177.4370  142.4270 C   0  0  0  0  0  3  0  0  0  0  0  0
  188.8070  177.4910  145.1610 C   0  0  0  0  0  0  0  0  0  0  0  0
  188.3750  177.2030  147.9050 C   0  0  0  0  0  3  0  0  0  0  0  0
  190.4300  177.7150  141.3350 N   0  0  0  0  0  0  0  0  0  0  0  0
  189.8610  177.1940  146.0240 C   0  0  0  0  0  0  0  0  0  0  0  0
  189.6730  177.0450  147.3950 C   0  0  0  0  0  3  0  0  0  0  0  0
  188.3040  178.2200  140.3050 C   0  0  0  0  0  0  0  0  0  0  0  0
  188.9120  178.2940  138.9460 C   0  0  0  0  0  1  0  0  0  0  0  0
  187.1020  178.1030  142.7760 N   0  0  0  0  0  0  0  0  0  0  0  0
  187.3020  177.5030  147.0460 C   0  0  0  0  0  3  0  0  0  0  0  0
  190.5840  177.3780  143.6740 C   0  0  0  0  0  0  0  0  0  0  0  0
  191.3050  177.0560  145.1650 S   0  0  0  0  0  0  0  0  0  0  0  0
  186.9700  178.4330  140.4480 N   0  0  0  0  0  0  0  0  0  0  0  0
  187.5120  177.6490  145.6650 C   0  0  0  0  0  3  0  0  0  0  0  0
  186.3640  178.3790  141.6660 C   0  0  0  0  0  0  0  0  0  0  0  0
  189.0830  177.9360  141.4340 C   0  0  0  0  0  0  0  0  0  0  0  0
  182.5930  178.5840  142.6910 C   0  0  1  0  0  3  0  0  0  0  0  0
  184.9160  178.6130  141.7770 C   0  0  2  0  0  3  0  0  0  0  0  0
  184.1680  179.3040  143.2480 S   0  0  0  0  0  0  0  0  0  0  0  0
  181.4110  179.3780  143.2180 C   0  0  0  0  0  1  0  0  0  0  0  0
  184.0600  178.2490  140.8340 C   0  0  0  0  0  2  0  0  0  0  0  0
  182.6360  178.5060  141.1640 C   0  0  2  0  0  3  0  0  0  0  0  0
  182.2540  179.7230  140.5900 O   0  0  0  0  0  1  0  0  0  0  0  0
  1  4  1  0  0  0  0
  2 11  1  0  0  0  0
  2  1  1  0  0  0  0
  3 13  1  0  0  0  0
  4 16  2  0  0  0  0
  4  7  1  0  0  0  0
  6 18  1  0  0  0  0
  6  3  2  0  0  0  0
  7  8  2  0  0  0  0
  8  5  1  0  0  0  0
  9 15  2  0  0  0  0
  9 18  1  0  0  0  0
 10  9  1  0  0  0  0
 12  5  2  0  0  0  0
 13  1  2  0  0  0  0
 13 14  1  0  0  0  0
 14  7  1  0  0  0  0
 15 17  1  0  0  0  0
 16 12  1  0  0  0  0
 17 11  2  0  0  0  0
 18  2  2  0  0  0  0
 19 22  1  6  0  0  0
 19 21  1  0  0  0  0
 20 17  1  1  0  0  0
 20 21  1  0  0  0  0
 23 24  1  0  0  0  0
 23 20  1  0  0  0  0
 24 25  1  6  0  0  0
 24 19  1  0  0  0  0
M  END
>  <MODEL>
9

>  <REMARK>
 VINA RESULT:      -9.3      2.435      4.740
  Name = 
  1 active torsions:
  status: ('A' for Active; 'I' for Inactive)
    1  A    between atoms: C_6  and  C_23
                            x       y       z     vdW  Elec       q    Type
                         _______ _______ _______ _____ _____    ______ ____

>  <TORSDO>
F 1

$$$$
