=
 OpenBabel10262420423D

 28 32  0  0  1  0  0  0  0  0999 V2000
  189.4460  177.3120  139.2580 C   0  0  1  0  0  3  0  0  0  0  0  0
  194.0800  174.5060  138.1020 C   0  0  0  0  0  3  0  0  0  0  0  0
  188.9300  173.7570  136.7330 C   0  0  0  0  0  1  0  0  0  0  0  0
  193.7670  175.1940  135.7910 C   0  0  0  0  0  0  0  0  0  0  0  0
  191.7400  174.8860  137.3050 C   0  0  1  0  0  3  0  0  0  0  0  0
  196.0000  174.8550  136.6730 C   0  0  0  0  0  0  0  0  0  0  0  0
  193.2210  174.8410  137.0480 C   0  0  0  0  0  0  0  0  0  0  0  0
  191.4650  175.8270  134.9740 C   0  0  0  0  0  2  0  0  0  0  0  0
  195.1530  175.1870  135.6130 C   0  0  0  0  0  3  0  0  0  0  0  0
  189.1000  176.1080  137.0820 C   0  0  2  0  0  3  0  0  0  0  0  0
  191.3880  176.1340  138.1000 C   0  0  0  0  0  2  0  0  0  0  0  0
  192.8940  175.4540  134.5940 C   0  0  0  0  0  2  0  0  0  0  0  0
  188.6370  178.4430  137.1960 C   0  0  0  0  0  2  0  0  0  0  0  0
  189.4730  174.9940  136.1910 N   0  0  0  0  0  0  0  0  0  0  0  0
  189.2260  177.3870  136.3760 N   0  0  0  0  0  2  0  0  0  0  0  0
  197.3760  174.8600  136.4890 O   0  0  0  0  0  1  0  0  0  0  0  0
  195.4640  174.5110  137.9150 C   0  0  0  0  0  3  0  0  0  0  0  0
  190.9260  174.8290  135.9950 C   0  0  2  0  0  3  0  0  0  0  0  0
  189.4430  178.6260  138.4790 C   0  0  0  0  0  2  0  0  0  0  0  0
  189.8980  176.1180  138.4030 C   0  0  1  0  0  3  0  0  0  0  0  0
  190.1100  177.4080  140.6360 C   0  0  0  0  0  2  0  0  0  0  0  0
  189.1380  177.4200  141.7250 N   0  0  0  0  0  0  0  0  0  0  0  0
  187.8940  176.6040  143.6170 C   0  0  1  0  0  3  0  0  0  0  0  0
  187.9120  178.1890  141.7120 C   0  0  0  0  0  3  0  0  0  0  0  0
  189.9950  175.6070  142.9520 O   0  0  0  0  0  0  0  0  0  0  0  0
  189.1010  176.4790  142.7750 C   0  0  0  0  0  0  0  0  0  0  0  0
  188.2800  177.0100  145.0260 C   0  0  0  0  0  1  0  0  0  0  0  0
  187.1230  177.7500  142.9550 C   0  0  0  0  0  3  0  0  0  0  0  0
  1 21  1  1  0  0  0
  4  7  1  0  0  0  0
  5 11  1  6  0  0  0
  6 17  2  0  0  0  0
  7  5  1  0  0  0  0
  7  2  2  0  0  0  0
  9  4  2  0  0  0  0
  9  6  1  0  0  0  0
 10 15  1  6  0  0  0
 10 20  1  0  0  0  0
 12  8  1  0  0  0  0
 12  4  1  0  0  0  0
 13 19  1  0  0  0  0
 14  3  1  0  0  0  0
 14 10  1  0  0  0  0
 15 13  1  0  0  0  0
 16  6  1  0  0  0  0
 17  2  1  0  0  0  0
 18  8  1  6  0  0  0
 18 14  1  0  0  0  0
 18  5  1  0  0  0  0
 19  1  1  0  0  0  0
 20 11  1  6  0  0  0
 20  1  1  0  0  0  0
 21 22  1  0  0  0  0
 22 26  1  0  0  0  0
 23 27  1  1  0  0  0
 24 22  1  0  0  0  0
 24 28  2  0  0  0  0
 26 25  2  0  0  0  0
 26 23  1  0  0  0  0
 28 23  1  0  0  0  0
M  END
>  <MODEL>
1

>  <REMARK>
 VINA RESULT:      -7.4      0.000      0.000
  Name = 
  2 active torsions:
  status: ('A' for Active; 'I' for Inactive)
    1  A    between atoms: C_1  and  C_2
    2  A    between atoms: C_2  and  N_3
                            x       y       z     vdW  Elec       q    Type
                         _______ _______ _______ _____ _____    ______ ____

>  <TORSDO>
F 2

$$$$
=
 OpenBabel10262420423D

 28 32  0  0  1  0  0  0  0  0999 V2000
  183.5200  176.4350  137.7810 C   0  0  1  0  0  3  0  0  0  0  0  0
  184.7060  179.0190  142.5350 C   0  0  0  0  0  3  0  0  0  0  0  0
  181.8080  180.4530  138.2330 C   0  0  0  0  0  1  0  0  0  0  0  0
  182.3420  178.8350  143.0750 C   0  0  0  0  0  0  0  0  0  0  0  0
  183.0740  179.0030  140.6390 C   0  0  1  0  0  3  0  0  0  0  0  0
  184.0050  178.8050  144.8400 C   0  0  0  0  0  0  0  0  0  0  0  0
  183.3710  178.9750  142.1140 C   0  0  0  0  0  0  0  0  0  0  0  0
  180.6510  178.5730  141.2210 C   0  0  0  0  0  2  0  0  0  0  0  0
  182.6690  178.7630  144.4320 C   0  0  0  0  0  3  0  0  0  0  0  0
  181.6770  178.0740  138.2520 C   0  0  2  0  0  3  0  0  0  0  0  0
  183.4040  177.6550  140.0170 C   0  0  0  0  0  2  0  0  0  0  0  0
  180.8890  178.8940  142.6930 C   0  0  0  0  0  2  0  0  0  0  0  0
  181.1120  175.8110  137.7660 C   0  0  0  0  0  2  0  0  0  0  0  0
  181.2380  179.3080  138.9280 N   0  0  0  0  0  0  0  0  0  0  0  0
  180.8020  176.9560  138.6180 N   0  0  0  0  0  2  0  0  0  0  0  0
  184.3210  178.7220  146.1890 O   0  0  0  0  0  1  0  0  0  0  0  0
  185.0220  178.9360  143.8920 C   0  0  0  0  0  3  0  0  0  0  0  0
  181.6070  179.3880  140.3540 C   0  0  2  0  0  3  0  0  0  0  0  0
  182.5250  175.3080  138.0530 C   0  0  0  0  0  2  0  0  0  0  0  0
  183.1590  177.7340  138.5180 C   0  0  1  0  0  3  0  0  0  0  0  0
  184.9880  176.0100  137.9010 C   0  0  0  0  0  2  0  0  0  0  0  0
  185.8810  176.8610  137.1210 N   0  0  0  0  0  0  0  0  0  0  0  0
  187.2600  178.7620  136.5960 C   0  0  1  0  0  3  0  0  0  0  0  0
  185.9080  176.9010  135.6740 C   0  0  0  0  0  3  0  0  0  0  0  0
  186.6540  178.2220  138.8740 O   0  0  0  0  0  0  0  0  0  0  0  0
  186.6030  177.9540  137.6440 C   0  0  0  0  0  0  0  0  0  0  0  0
  188.7680  178.6850  136.7460 C   0  0  0  0  0  1  0  0  0  0  0  0
  186.8460  178.0590  135.3000 C   0  0  0  0  0  3  0  0  0  0  0  0
  1 21  1  1  0  0  0
  1 19  1  0  0  0  0
  1 20  1  0  0  0  0
  2 17  1  0  0  0  0
  3 14  1  0  0  0  0
  4  9  2  0  0  0  0
  5 11  1  1  0  0  0
  5  7  1  0  0  0  0
  6 16  1  0  0  0  0
  7  2  2  0  0  0  0
  7  4  1  0  0  0  0
  8 12  1  0  0  0  0
  9  6  1  0  0  0  0
 10 20  1  0  0  0  0
 10 15  1  1  0  0  0
 10 14  1  0  0  0  0
 12  4  1  0  0  0  0
 13 19  1  0  0  0  0
 13 15  1  0  0  0  0
 14 18  1  0  0  0  0
 17  6  2  0  0  0  0
 18  5  1  0  0  0  0
 18  8  1  1  0  0  0
 20 11  1  1  0  0  0
 22 26  1  0  0  0  0
 22 21  1  0  0  0  0
 23 27  1  1  0  0  0
 23 26  1  0  0  0  0
 24 22  1  0  0  0  0
 26 25  2  0  0  0  0
 28 24  2  0  0  0  0
 28 23  1  0  0  0  0
M  END
>  <MODEL>
2

>  <REMARK>
 VINA RESULT:      -7.3      5.443     10.294
  Name = 
  2 active torsions:
  status: ('A' for Active; 'I' for Inactive)
    1  A    between atoms: C_1  and  C_2
    2  A    between atoms: C_2  and  N_3
                            x       y       z     vdW  Elec       q    Type
                         _______ _______ _______ _____ _____    ______ ____

>  <TORSDO>
F 2

$$$$
=
 OpenBabel10262420423D

 28 32  0  0  1  0  0  0  0  0999 V2000
  182.0420  175.9130  138.4710 C   0  0  1  0  0  3  0  0  0  0  0  0
  185.0580  178.5000  142.3290 C   0  0  0  0  0  3  0  0  0  0  0  0
  181.2080  180.1940  138.9730 C   0  0  0  0  0  1  0  0  0  0  0  0
  182.9880  178.7800  143.5750 C   0  0  0  0  0  0  0  0  0  0  0  0
  182.9290  178.6750  141.0290 C   0  0  1  0  0  3  0  0  0  0  0  0
  185.0980  178.5460  144.7470 C   0  0  0  0  0  0  0  0  0  0  0  0
  183.6690  178.6760  142.3390 C   0  0  0  0  0  0  0  0  0  0  0  0
  180.7780  178.7270  142.3590 C   0  0  0  0  0  2  0  0  0  0  0  0
  183.7130  178.7260  144.7690 C   0  0  0  0  0  3  0  0  0  0  0  0
  180.7210  177.8840  139.2930 C   0  0  2  0  0  3  0  0  0  0  0  0
  182.8310  177.2560  140.4880 C   0  0  0  0  0  2  0  0  0  0  0  0
  181.5170  179.0810  143.6460 C   0  0  0  0  0  2  0  0  0  0  0  0
  179.6880  175.7370  139.2520 C   0  0  0  0  0  2  0  0  0  0  0  0
  180.7160  179.2130  139.9300 N   0  0  0  0  0  0  0  0  0  0  0  0
  179.8440  176.9660  140.0270 N   0  0  0  0  0  2  0  0  0  0  0  0
  185.8080  178.4830  145.9390 O   0  0  0  0  0  1  0  0  0  0  0  0
  185.7710  178.4370  143.5290 C   0  0  0  0  0  3  0  0  0  0  0  0
  181.5260  179.3040  141.1600 C   0  0  2  0  0  3  0  0  0  0  0  0
  181.0220  175.0030  139.1530 C   0  0  0  0  0  2  0  0  0  0  0  0
  182.1400  177.2950  139.1350 C   0  0  1  0  0  3  0  0  0  0  0  0
  183.3880  175.2350  138.1870 C   0  0  0  0  0  2  0  0  0  0  0  0
  183.2670  174.1200  137.2540 N   0  0  0  0  0  0  0  0  0  0  0  0
  183.9120  172.1460  136.0380 C   0  0  1  0  0  3  0  0  0  0  0  0
  182.4420  174.1410  136.0640 C   0  0  0  0  0  3  0  0  0  0  0  0
  185.0450  172.8150  138.0680 O   0  0  0  0  0  0  0  0  0  0  0  0
  184.1430  173.0160  137.2090 C   0  0  0  0  0  0  0  0  0  0  0  0
  183.4440  170.7760  136.4890 C   0  0  0  0  0  1  0  0  0  0  0  0
  182.7710  172.8500  135.2990 C   0  0  0  0  0  3  0  0  0  0  0  0
  1 21  1  1  0  0  0
  1 20  1  0  0  0  0
  1 19  1  0  0  0  0
  2  7  2  0  0  0  0
  2 17  1  0  0  0  0
  3 14  1  0  0  0  0
  4 12  1  0  0  0  0
  4  9  2  0  0  0  0
  5 11  1  1  0  0  0
  5 18  1  0  0  0  0
  5  7  1  0  0  0  0
  6  9  1  0  0  0  0
  6 16  1  0  0  0  0
  7  4  1  0  0  0  0
  8 12  1  0  0  0  0
 10 14  1  0  0  0  0
 10 15  1  1  0  0  0
 13 15  1  0  0  0  0
 14 18  1  0  0  0  0
 17  6  2  0  0  0  0
 18  8  1  1  0  0  0
 19 13  1  0  0  0  0
 20 10  1  0  0  0  0
 20 11  1  1  0  0  0
 22 21  1  0  0  0  0
 23 27  1  1  0  0  0
 23 26  1  0  0  0  0
 24 22  1  0  0  0  0
 26 22  1  0  0  0  0
 26 25  2  0  0  0  0
 28 23  1  0  0  0  0
 28 24  2  0  0  0  0
M  END
>  <MODEL>
3

>  <REMARK>
 VINA RESULT:      -7.2      7.663     10.867
  Name = 
  2 active torsions:
  status: ('A' for Active; 'I' for Inactive)
    1  A    between atoms: C_1  and  C_2
    2  A    between atoms: C_2  and  N_3
                            x       y       z     vdW  Elec       q    Type
                         _______ _______ _______ _____ _____    ______ ____

>  <TORSDO>
F 2

$$$$
=
 OpenBabel10262420423D

 28 32  0  0  1  0  0  0  0  0999 V2000
  189.9330  175.1000  136.9130 C   0  0  1  0  0  3  0  0  0  0  0  0
  191.5290  177.4300  141.6780 C   0  0  0  0  0  3  0  0  0  0  0  0
  189.1870  179.4130  137.2590 C   0  0  0  0  0  1  0  0  0  0  0  0
  189.1710  177.8080  142.1340 C   0  0  0  0  0  0  0  0  0  0  0  0
  190.0010  177.7550  139.7250 C   0  0  1  0  0  3  0  0  0  0  0  0
  190.7220  177.4270  143.9580 C   0  0  0  0  0  0  0  0  0  0  0  0
  190.2350  177.6870  141.2100 C   0  0  0  0  0  0  0  0  0  0  0  0
  187.5270  177.9100  140.2220 C   0  0  0  0  0  2  0  0  0  0  0  0
  189.4270  177.6880  143.5030 C   0  0  0  0  0  3  0  0  0  0  0  0
  188.5060  177.1300  137.2990 C   0  0  2  0  0  3  0  0  0  0  0  0
  190.0300  176.3560  139.1300 C   0  0  0  0  0  2  0  0  0  0  0  0
  187.7840  178.1950  141.6990 C   0  0  0  0  0  2  0  0  0  0  0  0
  187.4480  175.0500  136.8170 C   0  0  0  0  0  2  0  0  0  0  0  0
  188.3430  178.4450  137.9450 N   0  0  0  0  0  0  0  0  0  0  0  0
  187.3840  176.2520  137.6450 N   0  0  0  0  0  2  0  0  0  0  0  0
  190.9650  177.2990  145.3190 O   0  0  0  0  0  1  0  0  0  0  0  0
  191.7720  177.3020  143.0480 C   0  0  0  0  0  3  0  0  0  0  0  0
  188.6740  178.4640  139.3830 C   0  0  2  0  0  3  0  0  0  0  0  0
  188.6950  174.2400  137.1610 C   0  0  0  0  0  2  0  0  0  0  0  0
  189.8590  176.4610  137.6220 C   0  0  1  0  0  3  0  0  0  0  0  0
  191.2570  174.3500  137.0910 C   0  0  0  0  0  2  0  0  0  0  0  0
  192.3450  174.9460  136.3230 N   0  0  0  0  0  0  0  0  0  0  0  0
  194.3420  176.2220  135.9000 C   0  0  1  0  0  3  0  0  0  0  0  0
  192.2440  175.3280  134.9300 C   0  0  0  0  0  3  0  0  0  0  0  0
  193.7920  175.4190  138.1140 O   0  0  0  0  0  0  0  0  0  0  0  0
  193.5110  175.5040  136.8880 C   0  0  0  0  0  0  0  0  0  0  0  0
  195.6810  175.5270  135.7410 C   0  0  0  0  0  1  0  0  0  0  0  0
  193.5430  176.0790  134.6020 C   0  0  0  0  0  3  0  0  0  0  0  0
  1 21  1  1  0  0  0
  1 19  1  0  0  0  0
  1 20  1  0  0  0  0
  2 17  1  0  0  0  0
  3 14  1  0  0  0  0
  4  9  2  0  0  0  0
  5 11  1  1  0  0  0
  5  7  1  0  0  0  0
  6 16  1  0  0  0  0
  7  2  2  0  0  0  0
  7  4  1  0  0  0  0
  8 12  1  0  0  0  0
  9  6  1  0  0  0  0
 10 20  1  0  0  0  0
 10 15  1  1  0  0  0
 10 14  1  0  0  0  0
 12  4  1  0  0  0  0
 13 19  1  0  0  0  0
 13 15  1  0  0  0  0
 14 18  1  0  0  0  0
 17  6  2  0  0  0  0
 18  5  1  0  0  0  0
 18  8  1  1  0  0  0
 20 11  1  1  0  0  0
 22 26  1  0  0  0  0
 22 21  1  0  0  0  0
 23 27  1  6  0  0  0
 23 26  1  0  0  0  0
 24 22  1  0  0  0  0
 26 25  2  0  0  0  0
 28 24  2  0  0  0  0
 28 23  1  0  0  0  0
M  END
>  <MODEL>
4

>  <REMARK>
 VINA RESULT:      -7.0      1.793      6.991
  Name = 
  2 active torsions:
  status: ('A' for Active; 'I' for Inactive)
    1  A    between atoms: C_1  and  C_2
    2  A    between atoms: C_2  and  N_3
                            x       y       z     vdW  Elec       q    Type
                         _______ _______ _______ _____ _____    ______ ____

>  <TORSDO>
F 2

$$$$
=
 OpenBabel10262420423D

 28 32  0  0  1  0  0  0  0  0999 V2000
  189.0930  177.4740  137.9760 C   0  0  1  0  0  3  0  0  0  0  0  0
  183.9240  178.9770  139.2850 C   0  0  0  0  0  3  0  0  0  0  0  0
  186.3220  177.8800  134.5940 C   0  0  0  0  0  1  0  0  0  0  0  0
  183.2310  176.7690  138.5380 C   0  0  0  0  0  0  0  0  0  0  0  0
  185.2760  177.8740  137.4930 C   0  0  1  0  0  3  0  0  0  0  0  0
  182.0180  177.8970  140.3100 C   0  0  0  0  0  0  0  0  0  0  0  0
  184.1060  177.8770  138.4380 C   0  0  0  0  0  0  0  0  0  0  0  0
  184.6710  175.4890  136.9090 C   0  0  0  0  0  2  0  0  0  0  0  0
  182.1870  176.7960  139.4670 C   0  0  0  0  0  3  0  0  0  0  0  0
  187.5580  176.6100  136.1860 C   0  0  2  0  0  3  0  0  0  0  0  0
  186.5620  177.6050  138.2590 C   0  0  0  0  0  2  0  0  0  0  0  0
  183.3080  175.6110  137.5830 C   0  0  0  0  0  2  0  0  0  0  0  0
  189.0910  175.1060  137.2190 C   0  0  0  0  0  2  0  0  0  0  0  0
  186.2720  176.7220  135.4740 N   0  0  0  0  0  0  0  0  0  0  0  0
  187.7240  175.2560  136.7250 N   0  0  0  0  0  2  0  0  0  0  0  0
  180.9850  177.9100  141.2360 O   0  0  0  0  0  1  0  0  0  0  0  0
  182.8840  178.9890  140.2160 C   0  0  0  0  0  3  0  0  0  0  0  0
  185.0950  176.8470  136.3560 C   0  0  2  0  0  3  0  0  0  0  0  0
  189.3240  176.0290  138.4120 C   0  0  0  0  0  2  0  0  0  0  0  0
  187.7330  177.6750  137.2900 C   0  0  1  0  0  3  0  0  0  0  0  0
  189.4320  178.5110  139.0530 C   0  0  0  0  0  2  0  0  0  0  0  0
  189.5850  177.9130  140.3750 N   0  0  0  0  0  0  0  0  0  0  0  0
  189.1770  177.5390  142.7180 C   0  0  1  0  0  3  0  0  0  0  0  0
  190.8200  177.3450  140.8730 C   0  0  0  0  0  3  0  0  0  0  0  0
  187.5550  178.6470  141.3060 O   0  0  0  0  0  0  0  0  0  0  0  0
  188.6710  178.0760  141.4380 C   0  0  0  0  0  0  0  0  0  0  0  0
  188.3140  176.3770  143.1730 C   0  0  0  0  0  1  0  0  0  0  0  0
  190.5700  177.0180  142.3530 C   0  0  0  0  0  3  0  0  0  0  0  0
  1 19  1  0  0  0  0
  1 21  1  1  0  0  0
  2 17  1  0  0  0  0
  3 14  1  0  0  0  0
  4  9  2  0  0  0  0
  5 11  1  1  0  0  0
  5  7  1  0  0  0  0
  6 16  1  0  0  0  0
  7  4  1  0  0  0  0
  7  2  2  0  0  0  0
  8 12  1  0  0  0  0
  9  6  1  0  0  0  0
 10 15  1  1  0  0  0
 10 20  1  0  0  0  0
 12  4  1  0  0  0  0
 13 19  1  0  0  0  0
 14 10  1  0  0  0  0
 14 18  1  0  0  0  0
 15 13  1  0  0  0  0
 17  6  2  0  0  0  0
 18  8  1  1  0  0  0
 18  5  1  0  0  0  0
 20  1  1  0  0  0  0
 20 11  1  1  0  0  0
 21 22  1  0  0  0  0
 22 24  1  0  0  0  0
 22 26  1  0  0  0  0
 23 27  1  6  0  0  0
 24 28  2  0  0  0  0
 25 26  2  0  0  0  0
 26 23  1  0  0  0  0
 28 23  1  0  0  0  0
M  END
>  <MODEL>
5

>  <REMARK>
 VINA RESULT:      -6.5      3.881      7.635
  Name = 
  2 active torsions:
  status: ('A' for Active; 'I' for Inactive)
    1  A    between atoms: C_1  and  C_2
    2  A    between atoms: C_2  and  N_3
                            x       y       z     vdW  Elec       q    Type
                         _______ _______ _______ _____ _____    ______ ____

>  <TORSDO>
F 2

$$$$
=
 OpenBabel10262420423D

 28 32  0  0  1  0  0  0  0  0999 V2000
  184.7470  178.2530  139.4330 C   0  0  1  0  0  3  0  0  0  0  0  0
  180.8050  181.1640  136.8510 C   0  0  0  0  0  3  0  0  0  0  0  0
  180.6880  176.6000  139.6990 C   0  0  0  0  0  1  0  0  0  0  0  0
  179.8860  181.6280  139.0530 C   0  0  0  0  0  0  0  0  0  0  0  0
  181.1580  179.4570  138.6450 C   0  0  1  0  0  3  0  0  0  0  0  0
  179.6450  183.2450  137.2630 C   0  0  0  0  0  0  0  0  0  0  0  0
  180.5830  180.7650  138.1750 C   0  0  0  0  0  0  0  0  0  0  0  0
  180.3970  180.0760  140.9760 C   0  0  0  0  0  2  0  0  0  0  0  0
  179.4130  182.8570  138.5850 C   0  0  0  0  0  3  0  0  0  0  0  0
  182.5620  177.7810  140.5760 C   0  0  2  0  0  3  0  0  0  0  0  0
  182.6590  179.5920  138.8490 C   0  0  0  0  0  2  0  0  0  0  0  0
  179.5200  181.2080  140.4500 C   0  0  0  0  0  2  0  0  0  0  0  0
  184.4340  178.4490  141.8920 C   0  0  0  0  0  2  0  0  0  0  0  0
  181.0900  177.7440  140.5040 N   0  0  0  0  0  0  0  0  0  0  0  0
  182.9940  178.6140  141.7030 N   0  0  0  0  0  2  0  0  0  0  0  0
  179.1810  184.4720  136.8090 O   0  0  0  0  0  1  0  0  0  0  0  0
  180.3370  182.3980  136.3960 C   0  0  0  0  0  3  0  0  0  0  0  0
  180.4760  178.9600  139.9380 C   0  0  2  0  0  3  0  0  0  0  0  0
  185.1900  179.0030  140.6880 C   0  0  0  0  0  2  0  0  0  0  0  0
  183.2210  178.2400  139.2580 C   0  0  1  0  0  3  0  0  0  0  0  0
  185.5390  178.6250  138.1740 C   0  0  0  0  0  2  0  0  0  0  0  0
  186.5710  177.6440  137.8530 N   0  0  0  0  0  0  0  0  0  0  0  0
  188.7530  176.8050  137.2780 C   0  0  1  0  0  3  0  0  0  0  0  0
  186.3130  176.3730  137.2090 C   0  0  0  0  0  3  0  0  0  0  0  0
  188.4490  179.0030  138.2400 O   0  0  0  0  0  0  0  0  0  0  0  0
  187.9560  177.9150  137.8400 C   0  0  0  0  0  0  0  0  0  0  0  0
  189.6590  176.2210  138.3450 C   0  0  0  0  0  1  0  0  0  0  0  0
  187.6910  175.7690  136.8980 C   0  0  0  0  0  3  0  0  0  0  0  0
  1 21  1  6  0  0  0
  1 19  1  0  0  0  0
  2  7  1  0  0  0  0
  3 14  1  0  0  0  0
  4 12  1  0  0  0  0
  5 11  1  1  0  0  0
  5 18  1  0  0  0  0
  6  9  2  0  0  0  0
  7  5  1  0  0  0  0
  7  4  2  0  0  0  0
  9  4  1  0  0  0  0
 10 15  1  1  0  0  0
 12  8  1  0  0  0  0
 14 10  1  0  0  0  0
 15 13  1  0  0  0  0
 16  6  1  0  0  0  0
 17  2  2  0  0  0  0
 17  6  1  0  0  0  0
 18 14  1  0  0  0  0
 18  8  1  1  0  0  0
 19 13  1  0  0  0  0
 20 11  1  1  0  0  0
 20  1  1  0  0  0  0
 20 10  1  0  0  0  0
 22 21  1  0  0  0  0
 23 26  1  0  0  0  0
 23 27  1  1  0  0  0
 24 22  1  0  0  0  0
 26 22  1  0  0  0  0
 26 25  2  0  0  0  0
 28 24  2  0  0  0  0
 28 23  1  0  0  0  0
M  END
>  <MODEL>
6

>  <REMARK>
 VINA RESULT:      -6.2      6.926     11.234
  Name = 
  2 active torsions:
  status: ('A' for Active; 'I' for Inactive)
    1  A    between atoms: C_1  and  C_2
    2  A    between atoms: C_2  and  N_3
                            x       y       z     vdW  Elec       q    Type
                         _______ _______ _______ _____ _____    ______ ____

>  <TORSDO>
F 2

$$$$
=
 OpenBabel10262420423D

 28 32  0  0  1  0  0  0  0  0999 V2000
  185.0380  178.6840  142.1900 C   0  0  1  0  0  3  0  0  0  0  0  0
  180.6920  175.9420  140.1220 C   0  0  0  0  0  3  0  0  0  0  0  0
  182.8820  180.7160  138.9490 C   0  0  0  0  0  1  0  0  0  0  0  0
  181.9630  175.7450  138.0580 C   0  0  0  0  0  0  0  0  0  0  0  0
  182.3350  177.7510  139.5860 C   0  0  1  0  0  3  0  0  0  0  0  0
  180.3860  174.0160  138.6920 C   0  0  0  0  0  0  0  0  0  0  0  0
  181.6370  176.4660  139.2310 C   0  0  0  0  0  0  0  0  0  0  0  0
  183.8040  177.3960  137.5580 C   0  0  0  0  0  2  0  0  0  0  0  0
  181.3240  174.5300  137.7940 C   0  0  0  0  0  3  0  0  0  0  0  0
  184.6990  179.4440  139.8210 C   0  0  2  0  0  3  0  0  0  0  0  0
  183.3710  177.4960  140.6700 C   0  0  0  0  0  2  0  0  0  0  0  0
  182.8840  176.3090  137.0120 C   0  0  0  0  0  2  0  0  0  0  0  0
  186.8640  178.7190  140.5030 C   0  0  0  0  0  2  0  0  0  0  0  0
  183.7870  179.6090  138.6740 N   0  0  0  0  0  0  0  0  0  0  0  0
  185.8800  178.6700  139.4240 N   0  0  0  0  0  2  0  0  0  0  0  0
  179.7640  172.8030  138.4270 O   0  0  0  0  0  1  0  0  0  0  0  0
  180.0670  174.7230  139.8530 C   0  0  0  0  0  3  0  0  0  0  0  0
  182.9880  178.4110  138.3540 C   0  0  2  0  0  3  0  0  0  0  0  0
  186.3280  178.0010  141.7380 C   0  0  0  0  0  2  0  0  0  0  0  0
  184.0120  178.8210  141.0550 C   0  0  1  0  0  3  0  0  0  0  0  0
  184.4750  178.1400  143.5080 C   0  0  0  0  0  2  0  0  0  0  0  0
  185.4160  178.2730  144.6150 N   0  0  0  0  0  0  0  0  0  0  0  0
  187.1140  177.6240  146.1940 C   0  0  1  0  0  3  0  0  0  0  0  0
  185.2310  179.1690  145.7370 C   0  0  0  0  0  3  0  0  0  0  0  0
  186.7500  176.3960  144.1410 O   0  0  0  0  0  0  0  0  0  0  0  0
  186.4500  177.3560  144.9010 C   0  0  0  0  0  0  0  0  0  0  0  0
  188.5630  178.0070  145.9670 C   0  0  0  0  0  1  0  0  0  0  0  0
  186.3510  178.8360  146.7340 C   0  0  0  0  0  3  0  0  0  0  0  0
  1 21  1  1  0  0  0
  4  7  1  0  0  0  0
  5 11  1  1  0  0  0
  6 17  2  0  0  0  0
  7  5  1  0  0  0  0
  7  2  2  0  0  0  0
  9  4  2  0  0  0  0
  9  6  1  0  0  0  0
 10 15  1  6  0  0  0
 10 20  1  0  0  0  0
 12  8  1  0  0  0  0
 12  4  1  0  0  0  0
 13 19  1  0  0  0  0
 14  3  1  0  0  0  0
 14 10  1  0  0  0  0
 15 13  1  0  0  0  0
 16  6  1  0  0  0  0
 17  2  1  0  0  0  0
 18  8  1  1  0  0  0
 18 14  1  0  0  0  0
 18  5  1  0  0  0  0
 19  1  1  0  0  0  0
 20 11  1  6  0  0  0
 20  1  1  0  0  0  0
 21 22  1  0  0  0  0
 22 26  1  0  0  0  0
 22 24  1  0  0  0  0
 23 27  1  6  0  0  0
 23 28  1  0  0  0  0
 24 28  2  0  0  0  0
 25 26  2  0  0  0  0
 26 23  1  0  0  0  0
M  END
>  <MODEL>
7

>  <REMARK>
 VINA RESULT:      -6.0      6.638      9.198
  Name = 
  2 active torsions:
  status: ('A' for Active; 'I' for Inactive)
    1  A    between atoms: C_1  and  C_2
    2  A    between atoms: C_2  and  N_3
                            x       y       z     vdW  Elec       q    Type
                         _______ _______ _______ _____ _____    ______ ____

>  <TORSDO>
F 2

$$$$
=
 OpenBabel10262420423D

 28 32  0  0  1  0  0  0  0  0999 V2000
  182.0240  176.1580  137.4310 C   0  0  1  0  0  3  0  0  0  0  0  0
  187.1550  178.2060  137.8420 C   0  0  0  0  0  3  0  0  0  0  0  0
  182.2900  180.4030  138.5240 C   0  0  0  0  0  1  0  0  0  0  0  0
  186.7250  178.4560  140.2220 C   0  0  0  0  0  0  0  0  0  0  0  0
  184.7940  178.6080  138.5650 C   0  0  1  0  0  3  0  0  0  0  0  0
  188.9720  178.0100  139.4260 C   0  0  0  0  0  0  0  0  0  0  0  0
  186.2550  178.4440  138.8880 C   0  0  0  0  0  0  0  0  0  0  0  0
  184.3500  178.6270  141.0550 C   0  0  0  0  0  2  0  0  0  0  0  0
  188.0840  178.2500  140.4770 C   0  0  0  0  0  3  0  0  0  0  0  0
  181.9590  178.0970  139.0250 C   0  0  2  0  0  3  0  0  0  0  0  0
  184.1810  177.2570  138.2320 C   0  0  0  0  0  2  0  0  0  0  0  0
  185.8290  178.8170  141.3750 C   0  0  0  0  0  2  0  0  0  0  0  0
  181.0150  176.0160  139.6990 C   0  0  0  0  0  2  0  0  0  0  0  0
  182.5660  179.3550  139.4970 N   0  0  0  0  0  0  0  0  0  0  0  0
  181.8200  177.1520  140.1380 N   0  0  0  0  0  2  0  0  0  0  0  0
  190.3180  177.7950  139.6900 O   0  0  0  0  0  1  0  0  0  0  0  0
  188.5080  177.9910  138.1090 C   0  0  0  0  0  3  0  0  0  0  0  0
  184.0230  179.2850  139.7170 C   0  0  2  0  0  3  0  0  0  0  0  0
  181.7530  175.2340  138.6160 C   0  0  0  0  0  2  0  0  0  0  0  0
  182.7250  177.4620  137.8450 C   0  0  1  0  0  3  0  0  0  0  0  0
  182.6400  175.4510  136.2180 C   0  0  0  0  0  2  0  0  0  0  0  0
  183.2540  174.1750  136.5670 N   0  0  0  0  0  0  0  0  0  0  0  0
  183.3800  171.8470  137.1690 C   0  0  1  0  0  3  0  0  0  0  0  0
  184.5280  174.0420  137.2420 C   0  0  0  0  0  3  0  0  0  0  0  0
  181.3990  172.7920  136.1520 O   0  0  0  0  0  0  0  0  0  0  0  0
  182.5760  172.9370  136.5780 C   0  0  0  0  0  0  0  0  0  0  0  0
  183.6850  170.7960  136.1200 C   0  0  0  0  0  1  0  0  0  0  0  0
  184.6790  172.5500  137.5720 C   0  0  0  0  0  3  0  0  0  0  0  0
  1 21  1  6  0  0  0
  1 20  1  0  0  0  0
  1 19  1  0  0  0  0
  2 17  2  0  0  0  0
  2  7  1  0  0  0  0
  3 14  1  0  0  0  0
  4  9  1  0  0  0  0
  4 12  1  0  0  0  0
  5 11  1  1  0  0  0
  5  7  1  0  0  0  0
  5 18  1  0  0  0  0
  6 16  1  0  0  0  0
  6  9  2  0  0  0  0
  7  4  2  0  0  0  0
  8 12  1  0  0  0  0
 10 14  1  0  0  0  0
 10 15  1  1  0  0  0
 13 15  1  0  0  0  0
 14 18  1  0  0  0  0
 17  6  1  0  0  0  0
 18  8  1  1  0  0  0
 19 13  1  0  0  0  0
 20 11  1  1  0  0  0
 20 10  1  0  0  0  0
 21 22  1  0  0  0  0
 22 26  1  0  0  0  0
 22 24  1  0  0  0  0
 23 27  1  6  0  0  0
 23 28  1  0  0  0  0
 24 28  2  0  0  0  0
 25 26  2  0  0  0  0
 26 23  1  0  0  0  0
M  END
>  <MODEL>
8

>  <REMARK>
 VINA RESULT:      -6.0      5.539      8.751
  Name = 
  2 active torsions:
  status: ('A' for Active; 'I' for Inactive)
    1  A    between atoms: C_1  and  C_2
    2  A    between atoms: C_2  and  N_3
                            x       y       z     vdW  Elec       q    Type
                         _______ _______ _______ _____ _____    ______ ____

>  <TORSDO>
F 2

$$$$
=
 OpenBabel10262420423D

 28 32  0  0  1  0  0  0  0  0999 V2000
  183.9750  178.5330  142.2860 C   0  0  1  0  0  3  0  0  0  0  0  0
  181.5660  180.9920  137.9460 C   0  0  0  0  0  3  0  0  0  0  0  0
  180.0880  176.8810  141.0880 C   0  0  0  0  0  1  0  0  0  0  0  0
  179.8530  181.7540  139.4930 C   0  0  0  0  0  0  0  0  0  0  0  0
  181.0780  179.5640  139.9410 C   0  0  1  0  0  3  0  0  0  0  0  0
  180.4370  183.0950  137.5600 C   0  0  0  0  0  0  0  0  0  0  0  0
  180.8050  180.7840  139.1030 C   0  0  0  0  0  0  0  0  0  0  0  0
  179.4630  180.5000  141.6480 C   0  0  0  0  0  2  0  0  0  0  0  0
  179.6690  182.8970  138.7100 C   0  0  0  0  0  3  0  0  0  0  0  0
  181.4950  178.2010  142.4860 C   0  0  2  0  0  3  0  0  0  0  0  0
  182.3700  179.7470  140.7210 C   0  0  0  0  0  2  0  0  0  0  0  0
  178.9310  181.5330  140.6610 C   0  0  0  0  0  2  0  0  0  0  0  0
  182.6970  179.0740  144.3490 C   0  0  0  0  0  2  0  0  0  0  0  0
  180.1800  178.1340  141.8230 N   0  0  0  0  0  0  0  0  0  0  0  0
  181.4680  179.1920  143.5660 N   0  0  0  0  0  2  0  0  0  0  0  0
  180.2550  184.2390  136.7940 O   0  0  0  0  0  1  0  0  0  0  0  0
  181.3820  182.1420  137.1760 C   0  0  0  0  0  3  0  0  0  0  0  0
  179.9070  179.2480  140.8950 C   0  0  2  0  0  3  0  0  0  0  0  0
  183.9030  179.4610  143.4970 C   0  0  0  0  0  2  0  0  0  0  0  0
  182.6540  178.4750  141.5040 C   0  0  1  0  0  3  0  0  0  0  0  0
  185.2280  178.7320  141.4240 C   0  0  0  0  0  2  0  0  0  0  0  0
  186.4340  178.2170  142.0630 N   0  0  0  0  0  0  0  0  0  0  0  0
  188.6860  177.3860  142.2410 C   0  0  1  0  0  3  0  0  0  0  0  0
  186.4380  177.4390  143.2850 C   0  0  0  0  0  3  0  0  0  0  0  0
  187.9410  178.6340  140.3080 O   0  0  0  0  0  0  0  0  0  0  0  0
  187.6980  178.1370  141.4410 C   0  0  0  0  0  0  0  0  0  0  0  0
  189.8130  178.3030  142.6740 C   0  0  0  0  0  1  0  0  0  0  0  0
  187.8840  176.9560  143.4740 C   0  0  0  0  0  3  0  0  0  0  0  0
  1 21  1  6  0  0  0
  1 19  1  0  0  0  0
  2  7  1  0  0  0  0
  3 14  1  0  0  0  0
  4 12  1  0  0  0  0
  5 11  1  1  0  0  0
  5 18  1  0  0  0  0
  6  9  2  0  0  0  0
  7  4  2  0  0  0  0
  7  5  1  0  0  0  0
  9  4  1  0  0  0  0
 10 15  1  1  0  0  0
 12  8  1  0  0  0  0
 14 10  1  0  0  0  0
 15 13  1  0  0  0  0
 16  6  1  0  0  0  0
 17  6  1  0  0  0  0
 17  2  2  0  0  0  0
 18  8  1  1  0  0  0
 18 14  1  0  0  0  0
 19 13  1  0  0  0  0
 20 11  1  1  0  0  0
 20  1  1  0  0  0  0
 20 10  1  0  0  0  0
 21 22  1  0  0  0  0
 22 24  1  0  0  0  0
 23 27  1  1  0  0  0
 23 28  1  0  0  0  0
 24 28  2  0  0  0  0
 25 26  2  0  0  0  0
 26 22  1  0  0  0  0
 26 23  1  0  0  0  0
M  END
>  <MODEL>
9

>  <REMARK>
 VINA RESULT:      -5.9      6.817     11.279
  Name = 
  2 active torsions:
  status: ('A' for Active; 'I' for Inactive)
    1  A    between atoms: C_1  and  C_2
    2  A    between atoms: C_2  and  N_3
                            x       y       z     vdW  Elec       q    Type
                         _______ _______ _______ _____ _____    ______ ____

>  <TORSDO>
F 2

$$$$
