=
 OpenBabel10262421083D

 32 37  0  0  1  0  0  0  0  0999 V2000
  189.4140  177.3830  143.5970 C   0  0  0  0  0  0  0  0  0  0  0  0
  187.5040  177.9460  145.0430 N   0  0  0  0  0  0  0  0  0  0  0  0
  190.7420  176.9470  143.4690 C   0  0  0  0  0  3  0  0  0  0  0  0
  188.8260  177.4120  144.8770 C   0  0  0  0  0  0  0  0  0  0  0  0
  186.9220  178.0420  146.3590 C   0  0  0  0  0  0  0  0  0  0  0  0
  183.2660  178.8560  142.9750 C   0  0  0  0  0  3  0  0  0  0  0  0
  186.7480  178.2900  143.8690 C   0  0  0  0  0  0  0  0  0  0  0  0
  183.4140  178.6650  145.4210 C   0  0  0  0  0  3  0  0  0  0  0  0
  184.8800  178.9840  145.3410 C   0  0  0  0  0  0  0  0  0  0  0  0
  189.5280  176.9090  145.9880 C   0  0  0  0  0  0  0  0  0  0  0  0
  185.6710  178.4820  146.5130 C   0  0  0  0  0  3  0  0  0  0  0  0
  188.8260  176.7080  147.2990 C   0  0  0  0  0  2  0  0  0  0  0  0
  190.8380  176.4510  145.8350 C   0  0  0  0  0  3  0  0  0  0  0  0
  187.3670  178.1830  142.5800 N   0  0  0  0  0  0  0  0  0  0  0  0
  188.5990  177.7910  142.4120 C   0  0  0  0  0  0  0  0  0  0  0  0
  185.4680  178.6670  143.9850 C   0  0  0  0  0  0  0  0  0  0  0  0
  187.7600  177.7700  147.5740 C   0  0  1  0  0  3  0  0  0  0  0  0
  191.4520  176.4920  144.5810 C   0  0  0  0  0  3  0  0  0  0  0  0
  182.6610  178.6590  144.3130 C   0  0  0  0  0  3  0  0  0  0  0  0
  184.5940  178.8470  142.8110 C   0  0  0  0  0  2  0  0  0  0  0  0
  188.8240  177.9530  138.6220 C   0  0  0  0  0  0  0  0  0  0  0  0
  188.0500  178.2880  137.5610 F   0  0  0  0  0  0  0  0  0  0  0  0
  189.1280  177.7200  141.0270 C   0  0  0  0  0  0  0  0  0  0  0  0
  190.1280  177.5050  138.4100 C   0  0  0  0  0  3  0  0  0  0  0  0
  190.4340  177.2620  140.7950 C   0  0  0  0  0  3  0  0  0  0  0  0
  188.3190  178.0580  139.9230 C   0  0  0  0  0  0  0  0  0  0  0  0
  187.0520  178.5110  140.1050 F   0  0  0  0  0  0  0  0  0  0  0  0
  190.9420  177.1550  139.4970 C   0  0  0  0  0  0  0  0  0  0  0  0
  192.8150  176.4710  138.0330 C   0  0  0  0  0  1  0  0  0  0  0  0
  192.2510  176.7010  139.3170 O   0  0  0  0  0  0  0  0  0  0  0  0
  188.3720  178.9520  147.9950 O   0  0  0  0  0  0  0  0  0  0  0  0
  189.3100  178.5620  148.8330 O   0  0  0  0  0  1  0  0  0  0  0  0
  1  4  1  0  0  0  0
  2  5  1  0  0  0  0
  3  1  2  0  0  0  0
  3 18  1  0  0  0  0
  4  2  1  0  0  0  0
  4 10  2  0  0  0  0
  5 11  2  0  0  0  0
  5 17  1  0  0  0  0
  6 19  2  0  0  0  0
  7 16  2  0  0  0  0
  7  2  1  0  0  0  0
  9  8  2  0  0  0  0
  9 11  1  0  0  0  0
 10 12  1  0  0  0  0
 12 17  1  0  0  0  0
 13 10  1  0  0  0  0
 14  7  1  0  0  0  0
 15 14  2  0  0  0  0
 15  1  1  0  0  0  0
 16  9  1  0  0  0  0
 17 31  1  6  0  0  0
 18 13  2  0  0  0  0
 19  8  1  0  0  0  0
 20  6  1  0  0  0  0
 20 16  1  0  0  0  0
 21 26  1  0  0  0  0
 22 21  1  0  0  0  0
 23 15  1  0  0  0  0
 24 21  2  0  0  0  0
 24 28  1  0  0  0  0
 25 23  1  0  0  0  0
 26 27  1  0  0  0  0
 26 23  2  0  0  0  0
 28 25  2  0  0  0  0
 29 30  1  0  0  0  0
 30 28  1  0  0  0  0
 31 32  1  0  0  0  0
M  END
>  <MODEL>
1

>  <REMARK>
 VINA RESULT:     -11.4      0.000      0.000
  Name = 
  3 active torsions:
  status: ('A' for Active; 'I' for Inactive)
    1  A    between atoms: O_13  and  C_29
    2  A    between atoms: O_15  and  C_26
    3  A    between atoms: C_16  and  C_27
                            x       y       z     vdW  Elec       q    Type
                         _______ _______ _______ _____ _____    ______ ____

>  <TORSDO>
F 3

$$$$
=
 OpenBabel10262421083D

 32 37  0  0  1  0  0  0  0  0999 V2000
  187.1610  177.9290  143.7220 C   0  0  0  0  0  0  0  0  0  0  0  0
  187.1910  178.0260  141.2630 N   0  0  0  0  0  0  0  0  0  0  0  0
  186.4510  178.0590  144.9250 C   0  0  0  0  0  3  0  0  0  0  0  0
  186.4680  178.0590  142.5030 C   0  0  0  0  0  0  0  0  0  0  0  0
  186.4970  178.2260  140.0150 C   0  0  0  0  0  0  0  0  0  0  0  0
  191.1310  176.5210  138.9670 C   0  0  0  0  0  3  0  0  0  0  0  0
  188.5900  177.6990  141.2910 C   0  0  0  0  0  0  0  0  0  0  0  0
  189.1090  177.0750  137.6850 C   0  0  0  0  0  3  0  0  0  0  0  0
  188.6400  177.9340  138.8260 C   0  0  1  0  0  3  0  0  0  0  0  0
  185.0680  178.2090  142.4990 C   0  0  0  0  0  0  0  0  0  0  0  0
  187.1540  178.1380  138.8570 C   0  0  0  0  0  3  0  0  0  0  0  0
  184.2990  178.0990  141.2150 C   0  0  0  0  0  2  0  0  0  0  0  0
  184.3750  178.3060  143.7070 C   0  0  0  0  0  3  0  0  0  0  0  0
  189.2410  177.5110  142.5560 N   0  0  0  0  0  0  0  0  0  0  0  0
  188.6250  177.6300  143.6980 C   0  0  0  0  0  0  0  0  0  0  0  0
  189.2620  177.5330  140.1450 C   0  0  0  0  0  0  0  0  0  0  0  0
  185.0600  178.6610  140.0130 C   0  0  1  0  0  3  0  0  0  0  0  0
  185.0690  178.2560  144.9180 C   0  0  0  0  0  3  0  0  0  0  0  0
  190.2980  176.4620  137.7440 C   0  0  0  0  0  3  0  0  0  0  0  0
  190.6420  177.0140  140.1110 C   0  0  0  0  0  3  0  0  0  0  0  0
  191.3260  176.4640  146.1050 C   0  0  0  0  0  0  0  0  0  0  0  0
  192.4950  175.7790  146.0820 F   0  0  0  0  0  0  0  0  0  0  0  0
  189.4070  177.4110  144.9410 C   0  0  0  0  0  0  0  0  0  0  0  0
  190.8310  176.9450  147.3180 C   0  0  0  0  0  3  0  0  0  0  0  0
  188.9210  177.8790  146.1710 C   0  0  0  0  0  3  0  0  0  0  0  0
  190.6190  176.6900  144.9180 C   0  0  0  0  0  0  0  0  0  0  0  0
  191.1270  176.2250  143.7480 F   0  0  0  0  0  0  0  0  0  0  0  0
  189.6240  177.6560  147.3580 C   0  0  0  0  0  0  0  0  0  0  0  0
  187.7110  178.1410  148.8480 C   0  0  0  0  0  1  0  0  0  0  0  0
  189.1010  178.1490  148.5570 O   0  0  0  0  0  0  0  0  0  0  0  0
  184.9940  180.0560  140.0250 O   0  0  0  0  0  0  0  0  0  0  0  0
  184.2330  180.3620  138.9950 O   0  0  0  0  0  1  0  0  0  0  0  0
  1  3  2  0  0  0  0
  2  7  1  0  0  0  0
  2  4  1  0  0  0  0
  4  1  1  0  0  0  0
  5  2  1  0  0  0  0
  6 20  2  0  0  0  0
  7 14  1  0  0  0  0
  8 19  2  0  0  0  0
  9  8  1  6  0  0  0
  9 11  1  0  0  0  0
  9 16  1  0  0  0  0
 10  4  2  0  0  0  0
 10 13  1  0  0  0  0
 11  5  2  0  0  0  0
 12 10  1  0  0  0  0
 13 18  2  0  0  0  0
 14 15  2  0  0  0  0
 15  1  1  0  0  0  0
 15 23  1  0  0  0  0
 16  7  2  0  0  0  0
 17  5  1  0  0  0  0
 17 31  1  1  0  0  0
 17 12  1  0  0  0  0
 18  3  1  0  0  0  0
 19  6  1  0  0  0  0
 20 16  1  0  0  0  0
 21 24  1  0  0  0  0
 22 21  1  0  0  0  0
 23 25  2  0  0  0  0
 24 28  2  0  0  0  0
 25 28  1  0  0  0  0
 26 23  1  0  0  0  0
 26 21  2  0  0  0  0
 27 26  1  0  0  0  0
 28 30  1  0  0  0  0
 30 29  1  0  0  0  0
 32 31  1  0  0  0  0
M  END
>  <MODEL>
2

>  <REMARK>
 VINA RESULT:     -11.2      3.034      7.308
  Name = 
  3 active torsions:
  status: ('A' for Active; 'I' for Inactive)
    1  A    between atoms: O_13  and  C_29
    2  A    between atoms: O_15  and  C_26
    3  A    between atoms: C_16  and  C_27
                            x       y       z     vdW  Elec       q    Type
                         _______ _______ _______ _____ _____    ______ ____

>  <TORSDO>
F 3

$$$$
=
 OpenBabel10262421083D

 32 37  0  0  1  0  0  0  0  0999 V2000
  189.8670  177.0510  144.2330 C   0  0  0  0  0  0  0  0  0  0  0  0
  187.7690  177.7930  145.2850 N   0  0  0  0  0  0  0  0  0  0  0  0
  191.1720  176.5540  144.3670 C   0  0  0  0  0  3  0  0  0  0  0  0
  189.0710  177.1960  145.3870 C   0  0  0  0  0  0  0  0  0  0  0  0
  186.9760  178.0070  146.4700 C   0  0  0  0  0  0  0  0  0  0  0  0
  184.0000  178.7160  142.4560 C   0  0  0  0  0  3  0  0  0  0  0  0
  187.2440  178.0800  143.9780 C   0  0  0  0  0  0  0  0  0  0  0  0
  183.7170  178.6990  144.8970 C   0  0  0  0  0  3  0  0  0  0  0  0
  185.1900  178.9530  145.0540 C   0  0  0  0  0  0  0  0  0  0  0  0
  189.5450  176.7480  146.6340 C   0  0  0  0  0  0  0  0  0  0  0  0
  185.7420  178.5060  146.3750 C   0  0  0  0  0  3  0  0  0  0  0  0
  188.6190  176.6710  147.8120 C   0  0  0  0  0  2  0  0  0  0  0  0
  190.8360  176.2290  146.7410 C   0  0  0  0  0  3  0  0  0  0  0  0
  188.0680  177.8550  142.8260 N   0  0  0  0  0  0  0  0  0  0  0  0
  189.2890  177.4030  142.9010 C   0  0  0  0  0  0  0  0  0  0  0  0
  185.9840  178.5150  143.8440 C   0  0  0  0  0  0  0  0  0  0  0  0
  187.5780  177.7910  147.8280 C   0  0  1  0  0  3  0  0  0  0  0  0
  191.6580  176.1540  145.6140 C   0  0  0  0  0  3  0  0  0  0  0  0
  183.1660  178.6410  143.6770 C   0  0  0  0  0  3  0  0  0  0  0  0
  185.3340  178.6430  142.5260 C   0  0  0  0  0  2  0  0  0  0  0  0
  192.0580  177.4980  140.3000 C   0  0  0  0  0  0  0  0  0  0  0  0
  193.3410  177.9180  140.1810 F   0  0  0  0  0  0  0  0  0  0  0  0
  190.0420  177.2100  141.6370 C   0  0  0  0  0  0  0  0  0  0  0  0
  191.4230  176.9020  139.2090 C   0  0  0  0  0  3  0  0  0  0  0  0
  189.4170  176.6220  140.5270 C   0  0  0  0  0  3  0  0  0  0  0  0
  191.3740  177.6570  141.5100 C   0  0  0  0  0  0  0  0  0  0  0  0
  192.0160  178.2260  142.5630 F   0  0  0  0  0  0  0  0  0  0  0  0
  190.0970  176.4610  139.3160 C   0  0  0  0  0  0  0  0  0  0  0  0
  188.2840  176.4370  137.6340 C   0  0  0  0  0  1  0  0  0  0  0  0
  189.4330  175.8630  138.2420 O   0  0  0  0  0  0  0  0  0  0  0  0
  188.1700  178.9760  148.2720 O   0  0  0  0  0  0  0  0  0  0  0  0
  189.1530  178.5840  149.0540 O   0  0  0  0  0  1  0  0  0  0  0  0
  1  3  2  0  0  0  0
  1  4  1  0  0  0  0
  2  4  1  0  0  0  0
  2  5  1  0  0  0  0
  3 18  1  0  0  0  0
  4 10  2  0  0  0  0
  5 17  1  0  0  0  0
  6 20  1  0  0  0  0
  6 19  2  0  0  0  0
  7  2  1  0  0  0  0
  8  9  2  0  0  0  0
  9 11  1  0  0  0  0
 10 13  1  0  0  0  0
 10 12  1  0  0  0  0
 11  5  2  0  0  0  0
 12 17  1  0  0  0  0
 14 15  2  0  0  0  0
 14  7  1  0  0  0  0
 15  1  1  0  0  0  0
 16  7  2  0  0  0  0
 16  9  1  0  0  0  0
 17 31  1  6  0  0  0
 18 13  2  0  0  0  0
 19  8  1  0  0  0  0
 20 16  1  0  0  0  0
 21 26  1  0  0  0  0
 22 21  1  0  0  0  0
 23 15  1  0  0  0  0
 24 28  1  0  0  0  0
 24 21  2  0  0  0  0
 25 23  1  0  0  0  0
 26 23  2  0  0  0  0
 26 27  1  0  0  0  0
 28 25  2  0  0  0  0
 29 30  1  0  0  0  0
 30 28  1  0  0  0  0
 31 32  1  0  0  0  0
M  END
>  <MODEL>
3

>  <REMARK>
 VINA RESULT:     -11.0      1.763      2.084
  Name = 
  3 active torsions:
  status: ('A' for Active; 'I' for Inactive)
    1  A    between atoms: O_13  and  C_29
    2  A    between atoms: O_15  and  C_26
    3  A    between atoms: C_16  and  C_27
                            x       y       z     vdW  Elec       q    Type
                         _______ _______ _______ _____ _____    ______ ____

>  <TORSDO>
F 3

$$$$
=
 OpenBabel10262421083D

 32 37  0  0  1  0  0  0  0  0999 V2000
  186.4840  178.1050  145.0730 C   0  0  0  0  0  0  0  0  0  0  0  0
  188.8290  177.4860  144.6520 N   0  0  0  0  0  0  0  0  0  0  0  0
  185.4640  178.4110  145.9860 C   0  0  0  0  0  3  0  0  0  0  0  0
  187.7910  177.8950  145.5550 C   0  0  0  0  0  0  0  0  0  0  0  0
  190.1530  177.2040  145.1490 C   0  0  0  0  0  0  0  0  0  0  0  0
  190.4010  177.4540  140.1140 C   0  0  0  0  0  3  0  0  0  0  0  0
  188.5430  177.4570  143.2430 C   0  0  0  0  0  0  0  0  0  0  0  0
  191.9960  177.1560  141.9590 C   0  0  0  0  0  3  0  0  0  0  0  0
  190.8670  176.7010  142.8410 C   0  0  0  0  0  0  0  0  0  0  0  0
  188.0820  178.0970  146.9180 C   0  0  0  0  0  0  0  0  0  0  0  0
  191.1350  176.8800  144.3060 C   0  0  0  0  0  3  0  0  0  0  0  0
  189.5060  178.1180  147.3920 C   0  0  0  0  0  2  0  0  0  0  0  0
  187.0580  178.4310  147.8060 C   0  0  0  0  0  3  0  0  0  0  0  0
  187.2110  177.7420  142.7920 N   0  0  0  0  0  0  0  0  0  0  0  0
  186.2290  178.0230  143.6020 C   0  0  0  0  0  0  0  0  0  0  0  0
  189.5230  177.2060  142.3660 C   0  0  0  0  0  0  0  0  0  0  0  0
  190.4050  177.1450  146.6280 C   0  0  1  0  0  3  0  0  0  0  0  0
  185.7470  178.5640  147.3450 C   0  0  0  0  0  3  0  0  0  0  0  0
  191.7720  177.4560  140.6730 C   0  0  0  0  0  3  0  0  0  0  0  0
  189.3310  177.3500  140.9110 C   0  0  0  0  0  2  0  0  0  0  0  0
  183.4860  178.8450  141.1050 C   0  0  0  0  0  0  0  0  0  0  0  0
  183.3410  179.0790  139.7780 F   0  0  0  0  0  0  0  0  0  0  0  0
  184.8950  178.3000  143.0150 C   0  0  0  0  0  0  0  0  0  0  0  0
  182.3680  178.8970  141.9400 C   0  0  0  0  0  3  0  0  0  0  0  0
  183.7620  178.3650  143.8410 C   0  0  0  0  0  3  0  0  0  0  0  0
  184.7470  178.5530  141.6360 C   0  0  0  0  0  0  0  0  0  0  0  0
  185.8170  178.4940  140.8020 F   0  0  0  0  0  0  0  0  0  0  0  0
  182.5010  178.6570  143.3150 C   0  0  0  0  0  0  0  0  0  0  0  0
  180.0600  178.7130  143.7100 C   0  0  0  0  0  1  0  0  0  0  0  0
  181.4020  178.7030  144.1770 O   0  0  0  0  0  0  0  0  0  0  0  0
  190.1880  175.8450  147.0890 O   0  0  0  0  0  0  0  0  0  0  0  0
  191.3540  175.4620  147.5650 O   0  0  0  0  0  1  0  0  0  0  0  0
  1  4  1  0  0  0  0
  1  3  2  0  0  0  0
  2  5  1  0  0  0  0
  2  4  1  0  0  0  0
  3 18  1  0  0  0  0
  4 10  2  0  0  0  0
  5 17  1  0  0  0  0
  6 19  2  0  0  0  0
  6 20  1  0  0  0  0
  7  2  1  0  0  0  0
  8  9  2  0  0  0  0
  9 11  1  0  0  0  0
 10 12  1  0  0  0  0
 10 13  1  0  0  0  0
 11  5  2  0  0  0  0
 14  7  1  0  0  0  0
 14 15  2  0  0  0  0
 15  1  1  0  0  0  0
 16  9  1  0  0  0  0
 16  7  2  0  0  0  0
 17 31  1  1  0  0  0
 17 12  1  0  0  0  0
 18 13  2  0  0  0  0
 19  8  1  0  0  0  0
 20 16  1  0  0  0  0
 21 26  2  0  0  0  0
 21 24  1  0  0  0  0
 22 21  1  0  0  0  0
 23 15  1  0  0  0  0
 23 25  2  0  0  0  0
 24 28  2  0  0  0  0
 26 23  1  0  0  0  0
 27 26  1  0  0  0  0
 28 25  1  0  0  0  0
 28 30  1  0  0  0  0
 29 30  1  0  0  0  0
 31 32  1  0  0  0  0
M  END
>  <MODEL>
4

>  <REMARK>
 VINA RESULT:     -10.6      2.167      6.209
  Name = 
  3 active torsions:
  status: ('A' for Active; 'I' for Inactive)
    1  A    between atoms: O_13  and  C_29
    2  A    between atoms: O_15  and  C_26
    3  A    between atoms: C_16  and  C_27
                            x       y       z     vdW  Elec       q    Type
                         _______ _______ _______ _____ _____    ______ ____

>  <TORSDO>
F 3

$$$$
=
 OpenBabel10262421083D

 32 37  0  0  1  0  0  0  0  0999 V2000
  187.9770  177.8600  143.1080 C   0  0  0  0  0  0  0  0  0  0  0  0
  185.7130  178.3790  143.9220 N   0  0  0  0  0  0  0  0  0  0  0  0
  189.3160  177.5480  143.3870 C   0  0  0  0  0  3  0  0  0  0  0  0
  187.0640  177.9660  144.1760 C   0  0  0  0  0  0  0  0  0  0  0  0
  184.7920  178.5560  145.0170 C   0  0  0  0  0  0  0  0  0  0  0  0
  182.1390  178.6320  140.7240 C   0  0  0  0  0  3  0  0  0  0  0  0
  185.2800  178.5180  142.5580 C   0  0  0  0  0  0  0  0  0  0  0  0
  181.6340  178.7190  143.1270 C   0  0  0  0  0  3  0  0  0  0  0  0
  183.0410  179.1740  143.3910 C   0  0  0  0  0  0  0  0  0  0  0  0
  187.4730  177.6580  145.4870 C   0  0  0  0  0  0  0  0  0  0  0  0
  183.5190  178.8820  144.7830 C   0  0  0  0  0  3  0  0  0  0  0  0
  186.4580  177.5280  146.5850 C   0  0  0  0  0  2  0  0  0  0  0  0
  188.8030  177.3200  145.7400 C   0  0  0  0  0  3  0  0  0  0  0  0
  186.2310  178.3370  141.4990 N   0  0  0  0  0  0  0  0  0  0  0  0
  187.4860  178.0550  141.7090 C   0  0  0  0  0  0  0  0  0  0  0  0
  183.9940  178.7750  142.2870 C   0  0  0  0  0  0  0  0  0  0  0  0
  185.2870  178.5010  146.4340 C   0  0  1  0  0  3  0  0  0  0  0  0
  189.7290  177.2890  144.6950 C   0  0  0  0  0  3  0  0  0  0  0  0
  181.2110  178.5190  141.8720 C   0  0  0  0  0  3  0  0  0  0  0  0
  183.4590  178.7390  140.9130 C   0  0  0  0  0  2  0  0  0  0  0  0
  188.7050  177.7780  138.1200 C   0  0  0  0  0  0  0  0  0  0  0  0
  188.2140  177.8640  136.8600 F   0  0  0  0  0  0  0  0  0  0  0  0
  188.3730  177.8900  140.5310 C   0  0  0  0  0  0  0  0  0  0  0  0
  190.0580  177.4990  138.3170 C   0  0  0  0  0  3  0  0  0  0  0  0
  189.7340  177.5990  140.7090 C   0  0  0  0  0  3  0  0  0  0  0  0
  187.8600  177.9700  139.2200 C   0  0  0  0  0  0  0  0  0  0  0  0
  186.5500  178.2550  139.0040 F   0  0  0  0  0  0  0  0  0  0  0  0
  190.5810  177.4080  139.6140 C   0  0  0  0  0  0  0  0  0  0  0  0
  192.8230  176.7490  138.8040 C   0  0  0  0  0  1  0  0  0  0  0  0
  191.9310  177.1280  139.8430 O   0  0  0  0  0  0  0  0  0  0  0  0
  185.6810  179.7770  146.8420 O   0  0  0  0  0  0  0  0  0  0  0  0
  186.0560  179.6250  148.0950 O   0  0  0  0  0  1  0  0  0  0  0  0
  1  3  2  0  0  0  0
  1  4  1  0  0  0  0
  2  4  1  0  0  0  0
  2  5  1  0  0  0  0
  3 18  1  0  0  0  0
  4 10  2  0  0  0  0
  5 17  1  0  0  0  0
  6 20  1  0  0  0  0
  6 19  2  0  0  0  0
  7  2  1  0  0  0  0
  8  9  2  0  0  0  0
  9 11  1  0  0  0  0
 10 13  1  0  0  0  0
 10 12  1  0  0  0  0
 11  5  2  0  0  0  0
 14 15  2  0  0  0  0
 14  7  1  0  0  0  0
 15  1  1  0  0  0  0
 16  7  2  0  0  0  0
 16  9  1  0  0  0  0
 17 12  1  0  0  0  0
 17 31  1  6  0  0  0
 18 13  2  0  0  0  0
 19  8  1  0  0  0  0
 20 16  1  0  0  0  0
 21 24  2  0  0  0  0
 21 26  1  0  0  0  0
 22 21  1  0  0  0  0
 23 25  1  0  0  0  0
 23 15  1  0  0  0  0
 24 28  1  0  0  0  0
 26 23  2  0  0  0  0
 27 26  1  0  0  0  0
 28 30  1  0  0  0  0
 28 25  2  0  0  0  0
 29 30  1  0  0  0  0
 31 32  1  0  0  0  0
M  END
>  <MODEL>
5

>  <REMARK>
 VINA RESULT:     -10.6      1.315      2.032
  Name = 
  3 active torsions:
  status: ('A' for Active; 'I' for Inactive)
    1  A    between atoms: O_13  and  C_29
    2  A    between atoms: O_15  and  C_26
    3  A    between atoms: C_16  and  C_27
                            x       y       z     vdW  Elec       q    Type
                         _______ _______ _______ _____ _____    ______ ____

>  <TORSDO>
F 3

$$$$
=
 OpenBabel10262421083D

 32 37  0  0  1  0  0  0  0  0999 V2000
  185.8240  178.2610  144.4440 C   0  0  0  0  0  0  0  0  0  0  0  0
  188.1950  177.6200  144.6120 N   0  0  0  0  0  0  0  0  0  0  0  0
  184.6170  178.5900  145.0780 C   0  0  0  0  0  3  0  0  0  0  0  0
  186.9740  178.0510  145.2310 C   0  0  0  0  0  0  0  0  0  0  0  0
  189.3560  177.3370  145.4190 C   0  0  0  0  0  0  0  0  0  0  0  0
  190.8180  177.5010  140.5910 C   0  0  0  0  0  3  0  0  0  0  0  0
  188.2580  177.5690  143.1770 C   0  0  0  0  0  0  0  0  0  0  0  0
  191.9160  177.2230  142.7720 C   0  0  0  0  0  3  0  0  0  0  0  0
  190.6020  176.7910  143.3610 C   0  0  0  0  0  0  0  0  0  0  0  0
  186.9280  178.2740  146.6200 C   0  0  0  0  0  0  0  0  0  0  0  0
  190.5100  176.9930  144.8440 C   0  0  0  0  0  3  0  0  0  0  0  0
  188.1950  178.2940  147.4250 C   0  0  0  0  0  2  0  0  0  0  0  0
  185.7230  178.6300  147.2290 C   0  0  0  0  0  3  0  0  0  0  0  0
  187.0780  177.8550  142.4120 N   0  0  0  0  0  0  0  0  0  0  0  0
  185.9320  178.1560  142.9560 C   0  0  0  0  0  0  0  0  0  0  0  0
  189.4190  177.2970  142.5670 C   0  0  0  0  0  0  0  0  0  0  0  0
  189.2410  177.3030  146.9160 C   0  0  1  0  0  3  0  0  0  0  0  0
  184.5630  178.7640  146.4620 C   0  0  0  0  0  3  0  0  0  0  0  0
  192.0130  177.5030  141.4660 C   0  0  0  0  0  3  0  0  0  0  0  0
  189.5860  177.4170  141.1070 C   0  0  0  0  0  2  0  0  0  0  0  0
  183.8890  179.1480  139.9100 C   0  0  0  0  0  0  0  0  0  0  0  0
  184.0820  179.5510  138.6300 F   0  0  0  0  0  0  0  0  0  0  0  0
  184.7830  178.4320  142.0590 C   0  0  0  0  0  0  0  0  0  0  0  0
  182.5900  179.0200  140.4040 C   0  0  0  0  0  3  0  0  0  0  0  0
  183.4700  178.3180  142.5420 C   0  0  0  0  0  3  0  0  0  0  0  0
  184.9850  178.8600  140.7320 C   0  0  0  0  0  0  0  0  0  0  0  0
  186.2390  178.9780  140.2250 F   0  0  0  0  0  0  0  0  0  0  0  0
  182.3730  178.6040  141.7250 C   0  0  0  0  0  0  0  0  0  0  0  0
  180.7040  179.0200  143.5030 C   0  0  0  0  0  1  0  0  0  0  0  0
  181.0850  178.4690  142.2490 O   0  0  0  0  0  0  0  0  0  0  0  0
  188.9060  176.0120  147.3300 O   0  0  0  0  0  0  0  0  0  0  0  0
  188.2770  176.1820  148.4740 O   0  0  0  0  0  1  0  0  0  0  0  0
  1  3  2  0  0  0  0
  1  4  1  0  0  0  0
  2  4  1  0  0  0  0
  2  5  1  0  0  0  0
  3 18  1  0  0  0  0
  4 10  2  0  0  0  0
  5 17  1  0  0  0  0
  6 20  1  0  0  0  0
  6 19  2  0  0  0  0
  7  2  1  0  0  0  0
  8  9  2  0  0  0  0
  9 11  1  0  0  0  0
 10 13  1  0  0  0  0
 10 12  1  0  0  0  0
 11  5  2  0  0  0  0
 14 15  2  0  0  0  0
 14  7  1  0  0  0  0
 15  1  1  0  0  0  0
 16  7  2  0  0  0  0
 16  9  1  0  0  0  0
 17 31  1  6  0  0  0
 17 12  1  0  0  0  0
 18 13  2  0  0  0  0
 19  8  1  0  0  0  0
 20 16  1  0  0  0  0
 21 24  2  0  0  0  0
 21 26  1  0  0  0  0
 22 21  1  0  0  0  0
 23 25  1  0  0  0  0
 23 15  1  0  0  0  0
 24 28  1  0  0  0  0
 26 23  2  0  0  0  0
 27 26  1  0  0  0  0
 28 30  1  0  0  0  0
 28 25  2  0  0  0  0
 30 29  1  0  0  0  0
 31 32  1  0  0  0  0
M  END
>  <MODEL>
6

>  <REMARK>
 VINA RESULT:     -10.3      2.241      6.015
  Name = 
  3 active torsions:
  status: ('A' for Active; 'I' for Inactive)
    1  A    between atoms: O_13  and  C_29
    2  A    between atoms: O_15  and  C_26
    3  A    between atoms: C_16  and  C_27
                            x       y       z     vdW  Elec       q    Type
                         _______ _______ _______ _____ _____    ______ ____

>  <TORSDO>
F 3

$$$$
=
 OpenBabel10262421083D

 32 37  0  0  1  0  0  0  0  0999 V2000
  188.1710  177.8140  143.5500 C   0  0  0  0  0  0  0  0  0  0  0  0
  185.9340  178.3270  144.4420 N   0  0  0  0  0  0  0  0  0  0  0  0
  189.5220  177.5150  143.7830 C   0  0  0  0  0  3  0  0  0  0  0  0
  187.2970  177.9270  144.6500 C   0  0  0  0  0  0  0  0  0  0  0  0
  185.0530  178.5110  145.5680 C   0  0  0  0  0  0  0  0  0  0  0  0
  182.2430  178.5170  141.3750 C   0  0  0  0  0  3  0  0  0  0  0  0
  185.4510  178.4480  143.0930 C   0  0  0  0  0  0  0  0  0  0  0  0
  181.8260  178.6300  143.7940 C   0  0  0  0  0  3  0  0  0  0  0  0
  183.2400  179.0970  144.0000 C   0  0  0  0  0  0  0  0  0  0  0  0
  187.7560  177.6380  145.9480 C   0  0  0  0  0  0  0  0  0  0  0  0
  183.7710  178.8250  145.3770 C   0  0  0  0  0  3  0  0  0  0  0  0
  186.7830  177.5140  147.0850 C   0  0  0  0  0  2  0  0  0  0  0  0
  189.0980  177.3120  146.1560 C   0  0  0  0  0  3  0  0  0  0  0  0
  186.3630  178.2600  142.0020 N   0  0  0  0  0  0  0  0  0  0  0  0
  187.6270  177.9890  142.1680 C   0  0  0  0  0  0  0  0  0  0  0  0
  184.1540  178.6920  142.8660 C   0  0  0  0  0  0  0  0  0  0  0  0
  185.6010  178.4760  146.9650 C   0  0  1  0  0  3  0  0  0  0  0  0
  189.9850  177.2750  145.0780 C   0  0  0  0  0  3  0  0  0  0  0  0
  181.3590  178.4120  142.5580 C   0  0  0  0  0  3  0  0  0  0  0  0
  183.5690  178.6360  141.5140 C   0  0  0  0  0  2  0  0  0  0  0  0
  190.3100  176.7280  139.7900 C   0  0  0  0  0  0  0  0  0  0  0  0
  191.2940  175.7980  139.7530 F   0  0  0  0  0  0  0  0  0  0  0  0
  188.4710  177.8160  140.9600 C   0  0  0  0  0  0  0  0  0  0  0  0
  190.1050  177.5600  138.6880 C   0  0  0  0  0  3  0  0  0  0  0  0
  188.2850  178.6500  139.8460 C   0  0  0  0  0  3  0  0  0  0  0  0
  189.5020  176.8550  140.9260 C   0  0  0  0  0  0  0  0  0  0  0  0
  189.7110  176.0250  141.9810 F   0  0  0  0  0  0  0  0  0  0  0  0
  189.0900  178.5270  138.7100 C   0  0  0  0  0  0  0  0  0  0  0  0
  188.1380  178.9670  136.4700 C   0  0  0  0  0  1  0  0  0  0  0  0
  188.8610  179.3750  137.6240 O   0  0  0  0  0  0  0  0  0  0  0  0
  186.0000  179.7600  147.3440 O   0  0  0  0  0  0  0  0  0  0  0  0
  186.7960  179.5700  148.3750 O   0  0  0  0  0  1  0  0  0  0  0  0
  1  3  2  0  0  0  0
  1  4  1  0  0  0  0
  2  4  1  0  0  0  0
  2  5  1  0  0  0  0
  3 18  1  0  0  0  0
  4 10  2  0  0  0  0
  5 17  1  0  0  0  0
  6 20  1  0  0  0  0
  6 19  2  0  0  0  0
  7  2  1  0  0  0  0
  8  9  2  0  0  0  0
  9 11  1  0  0  0  0
 10 13  1  0  0  0  0
 10 12  1  0  0  0  0
 11  5  2  0  0  0  0
 14 15  2  0  0  0  0
 14  7  1  0  0  0  0
 15  1  1  0  0  0  0
 16  7  2  0  0  0  0
 16  9  1  0  0  0  0
 17 12  1  0  0  0  0
 17 31  1  6  0  0  0
 18 13  2  0  0  0  0
 19  8  1  0  0  0  0
 20 16  1  0  0  0  0
 21 26  1  0  0  0  0
 22 21  1  0  0  0  0
 23 15  1  0  0  0  0
 24 28  1  0  0  0  0
 24 21  2  0  0  0  0
 25 23  1  0  0  0  0
 26 23  2  0  0  0  0
 26 27  1  0  0  0  0
 28 25  2  0  0  0  0
 29 30  1  0  0  0  0
 30 28  1  0  0  0  0
 31 32  1  0  0  0  0
M  END
>  <MODEL>
7

>  <REMARK>
 VINA RESULT:     -10.2      1.807      2.473
  Name = 
  3 active torsions:
  status: ('A' for Active; 'I' for Inactive)
    1  A    between atoms: O_13  and  C_29
    2  A    between atoms: O_15  and  C_26
    3  A    between atoms: C_16  and  C_27
                            x       y       z     vdW  Elec       q    Type
                         _______ _______ _______ _____ _____    ______ ____

>  <TORSDO>
F 3

$$$$
=
 OpenBabel10262421083D

 32 37  0  0  1  0  0  0  0  0999 V2000
  185.8300  178.2790  143.6800 C   0  0  0  0  0  0  0  0  0  0  0  0
  186.4690  178.2650  141.3030 N   0  0  0  0  0  0  0  0  0  0  0  0
  184.8400  178.4400  144.6610 C   0  0  0  0  0  3  0  0  0  0  0  0
  185.4600  178.3310  142.3210 C   0  0  0  0  0  0  0  0  0  0  0  0
  186.1050  178.3850  139.9130 C   0  0  0  0  0  0  0  0  0  0  0  0
  190.8860  176.7840  140.1350 C   0  0  0  0  0  3  0  0  0  0  0  0
  187.8240  177.9840  141.6940 C   0  0  0  0  0  0  0  0  0  0  0  0
  189.2370  177.2150  138.3660 C   0  0  0  0  0  3  0  0  0  0  0  0
  188.4820  178.1090  139.3090 C   0  0  1  0  0  3  0  0  0  0  0  0
  184.1030  178.4350  141.9630 C   0  0  0  0  0  0  0  0  0  0  0  0
  187.0310  178.2660  138.9600 C   0  0  0  0  0  3  0  0  0  0  0  0
  183.6800  178.2430  140.5360 C   0  0  0  0  0  2  0  0  0  0  0  0
  183.1290  178.5640  142.9550 C   0  0  0  0  0  3  0  0  0  0  0  0
  188.1430  177.8750  143.0880 N   0  0  0  0  0  0  0  0  0  0  0  0
  187.2600  178.0260  144.0350 C   0  0  0  0  0  0  0  0  0  0  0  0
  188.7630  177.7880  140.7590 C   0  0  0  0  0  0  0  0  0  0  0  0
  184.7050  178.7740  139.5330 C   0  0  1  0  0  3  0  0  0  0  0  0
  183.5000  178.5920  144.3010 C   0  0  0  0  0  3  0  0  0  0  0  0
  190.3860  176.6440  138.7490 C   0  0  0  0  0  3  0  0  0  0  0  0
  190.1180  177.3130  141.0950 C   0  0  0  0  0  3  0  0  0  0  0  0
  187.5750  178.5250  147.7890 C   0  0  0  0  0  0  0  0  0  0  0  0
  186.9940  179.2400  148.7820 F   0  0  0  0  0  0  0  0  0  0  0  0
  187.7120  177.8890  145.4420 C   0  0  0  0  0  0  0  0  0  0  0  0
  188.6370  177.6680  148.0860 C   0  0  0  0  0  3  0  0  0  0  0  0
  188.7840  177.0400  145.7570 C   0  0  0  0  0  3  0  0  0  0  0  0
  187.1140  178.6420  146.4730 C   0  0  0  0  0  0  0  0  0  0  0  0
  186.0700  179.4700  146.2100 F   0  0  0  0  0  0  0  0  0  0  0  0
  189.2480  176.9200  147.0700 C   0  0  0  0  0  0  0  0  0  0  0  0
  191.6610  176.3810  147.0250 C   0  0  0  0  0  1  0  0  0  0  0  0
  190.3130  176.0560  147.3350 O   0  0  0  0  0  0  0  0  0  0  0  0
  184.6100  180.1640  139.4550 O   0  0  0  0  0  0  0  0  0  0  0  0
  183.3990  180.3900  138.9900 O   0  0  0  0  0  1  0  0  0  0  0  0
  1 15  1  0  0  0  0
  1  3  2  0  0  0  0
  2  7  1  0  0  0  0
  2  4  1  0  0  0  0
  4  1  1  0  0  0  0
  5  2  1  0  0  0  0
  6 20  2  0  0  0  0
  7 14  1  0  0  0  0
  8 19  2  0  0  0  0
  9  8  1  6  0  0  0
  9 16  1  0  0  0  0
 10  4  2  0  0  0  0
 10 13  1  0  0  0  0
 11  9  1  0  0  0  0
 11  5  2  0  0  0  0
 12 10  1  0  0  0  0
 13 18  2  0  0  0  0
 14 15  2  0  0  0  0
 15 23  1  0  0  0  0
 16 20  1  0  0  0  0
 16  7  2  0  0  0  0
 17 31  1  1  0  0  0
 17  5  1  0  0  0  0
 17 12  1  0  0  0  0
 18  3  1  0  0  0  0
 19  6  1  0  0  0  0
 21 24  1  0  0  0  0
 21 22  1  0  0  0  0
 23 25  2  0  0  0  0
 23 26  1  0  0  0  0
 25 28  1  0  0  0  0
 26 21  2  0  0  0  0
 27 26  1  0  0  0  0
 28 30  1  0  0  0  0
 28 24  2  0  0  0  0
 29 30  1  0  0  0  0
 32 31  1  0  0  0  0
M  END
>  <MODEL>
8

>  <REMARK>
 VINA RESULT:     -10.1      3.214      7.442
  Name = 
  3 active torsions:
  status: ('A' for Active; 'I' for Inactive)
    1  A    between atoms: O_13  and  C_29
    2  A    between atoms: O_15  and  C_26
    3  A    between atoms: C_16  and  C_27
                            x       y       z     vdW  Elec       q    Type
                         _______ _______ _______ _____ _____    ______ ____

>  <TORSDO>
F 3

$$$$
=
 OpenBabel10262421083D

 32 37  0  0  1  0  0  0  0  0999 V2000
  187.1260  178.1760  141.8880 C   0  0  0  0  0  0  0  0  0  0  0  0
  186.5860  178.2450  144.2880 N   0  0  0  0  0  0  0  0  0  0  0  0
  186.7310  178.3850  140.5570 C   0  0  0  0  0  3  0  0  0  0  0  0
  186.2440  178.5380  142.9250 C   0  0  0  0  0  0  0  0  0  0  0  0
  185.6600  178.5510  145.3500 C   0  0  0  0  0  0  0  0  0  0  0  0
  190.1160  177.4420  147.4440 C   0  0  0  0  0  3  0  0  0  0  0  0
  187.8990  177.7310  144.5730 C   0  0  0  0  0  0  0  0  0  0  0  0
  187.9170  178.1990  148.2400 C   0  0  0  0  0  3  0  0  0  0  0  0
  187.2970  177.6750  146.9750 C   0  0  0  0  0  0  0  0  0  0  0  0
  185.0360  179.1970  142.6280 C   0  0  0  0  0  0  0  0  0  0  0  0
  185.9970  178.3350  146.6230 C   0  0  0  0  0  3  0  0  0  0  0  0
  184.2140  179.8030  143.7280 C   0  0  0  0  0  2  0  0  0  0  0  0
  184.6750  179.4230  141.2990 C   0  0  0  0  0  3  0  0  0  0  0  0
  188.7880  177.4380  143.4860 N   0  0  0  0  0  0  0  0  0  0  0  0
  188.4630  177.6070  142.2350 C   0  0  0  0  0  0  0  0  0  0  0  0
  188.2930  177.5700  145.8420 C   0  0  0  0  0  0  0  0  0  0  0  0
  184.2630  178.9940  145.0250 C   0  0  1  0  0  3  0  0  0  0  0  0
  185.5100  178.9950  140.2640 C   0  0  0  0  0  3  0  0  0  0  0  0
  189.2270  178.0370  148.4680 C   0  0  0  0  0  3  0  0  0  0  0  0
  189.6840  177.2310  146.1950 C   0  0  0  0  0  2  0  0  0  0  0  0
  191.7760  177.2070  140.4160 C   0  0  0  0  0  0  0  0  0  0  0  0
  193.0970  177.4230  140.6290 F   0  0  0  0  0  0  0  0  0  0  0  0
  189.4700  177.2680  141.1990 C   0  0  0  0  0  0  0  0  0  0  0  0
  191.3500  176.6870  139.1930 C   0  0  0  0  0  3  0  0  0  0  0  0
  189.0600  176.7530  139.9600 C   0  0  0  0  0  3  0  0  0  0  0  0
  190.8430  177.5020  141.4170 C   0  0  0  0  0  0  0  0  0  0  0  0
  191.2820  177.9940  142.6050 F   0  0  0  0  0  0  0  0  0  0  0  0
  189.9880  176.4570  138.9580 C   0  0  0  0  0  0  0  0  0  0  0  0
  188.1710  176.0240  137.3360 C   0  0  0  0  0  1  0  0  0  0  0  0
  189.5300  175.9390  137.7430 O   0  0  0  0  0  0  0  0  0  0  0  0
  183.4310  177.8780  144.9130 O   0  0  0  0  0  0  0  0  0  0  0  0
  182.3080  178.3480  144.4130 O   0  0  0  0  0  1  0  0  0  0  0  0
  1 15  1  0  0  0  0
  1  4  2  0  0  0  0
  2  7  1  0  0  0  0
  2  5  1  0  0  0  0
  3  1  1  0  0  0  0
  4  2  1  0  0  0  0
  5 11  2  0  0  0  0
  6 19  2  0  0  0  0
  7 16  2  0  0  0  0
  8 19  1  0  0  0  0
  9  8  2  0  0  0  0
 10  4  1  0  0  0  0
 10 12  1  0  0  0  0
 11  9  1  0  0  0  0
 12 17  1  0  0  0  0
 13 10  2  0  0  0  0
 14  7  1  0  0  0  0
 15 14  2  0  0  0  0
 16 20  1  0  0  0  0
 16  9  1  0  0  0  0
 17 31  1  6  0  0  0
 17  5  1  0  0  0  0
 18  3  2  0  0  0  0
 18 13  1  0  0  0  0
 20  6  1  0  0  0  0
 21 22  1  0  0  0  0
 21 26  1  0  0  0  0
 23 26  2  0  0  0  0
 23 15  1  0  0  0  0
 24 21  2  0  0  0  0
 25 23  1  0  0  0  0
 26 27  1  0  0  0  0
 28 24  1  0  0  0  0
 28 25  2  0  0  0  0
 29 30  1  0  0  0  0
 30 28  1  0  0  0  0
 32 31  1  0  0  0  0
M  END
>  <MODEL>
9

>  <REMARK>
 VINA RESULT:     -10.0      2.523      4.782
  Name = 
  3 active torsions:
  status: ('A' for Active; 'I' for Inactive)
    1  A    between atoms: O_13  and  C_29
    2  A    between atoms: O_15  and  C_26
    3  A    between atoms: C_16  and  C_27
                            x       y       z     vdW  Elec       q    Type
                         _______ _______ _______ _____ _____    ______ ____

>  <TORSDO>
F 3

$$$$
