=
 OpenBabel10262422553D

 37 42  0  0  1  0  0  0  0  0999 V2000
  184.8400  173.2700  137.8250 C   0  0  0  0  0  2  0  0  0  0  0  0
  182.3450  176.7100  136.6580 N   0  0  0  0  0  0  0  0  0  0  0  0
  182.2250  177.3300  139.9500 C   0  0  0  0  0  2  0  0  0  0  0  0
  183.1560  174.3720  136.2290 C   0  0  2  0  0  3  0  0  0  0  0  0
  182.8310  177.9590  137.2190 C   0  0  1  0  0  3  0  0  0  0  0  0
  183.0660  175.5690  137.1960 C   0  0  1  0  0  3  0  0  0  0  0  0
  181.7170  178.7120  137.9040 C   0  0  0  0  0  0  0  0  0  0  0  0
  181.8050  174.1260  135.5620 C   0  0  0  0  0  2  0  0  0  0  0  0
  184.3840  176.1420  137.7400 C   0  0  1  0  0  3  0  0  0  0  0  0
  185.9670  174.5900  135.9420 C   0  0  0  0  0  2  0  0  0  0  0  0
  181.0460  177.6360  134.9410 O   0  0  0  0  0  0  0  0  0  0  0  0
  181.3460  175.3300  134.8780 N   0  0  0  0  0  2  0  0  0  0  0  0
  185.7570  176.3150  136.5220 S   0  0  0  0  0  0  0  0  0  0  0  0
  181.3420  178.4100  139.3380 C   0  0  0  0  0  2  0  0  0  0  0  0
  181.5390  176.6090  135.4770 C   0  0  0  0  0  0  0  0  0  0  0  0
  184.0010  177.5610  138.1510 C   0  0  2  0  0  3  0  0  0  0  0  0
  183.5980  173.0860  136.9430 C   0  0  0  0  0  2  0  0  0  0  0  0
  186.1280  173.5500  137.0480 C   0  0  0  0  0  2  0  0  0  0  0  0
  183.6980  177.6020  139.6560 C   0  0  1  0  0  3  0  0  0  0  0  0
  181.0830  179.6060  137.2250 N   0  0  0  0  0  0  0  0  0  0  0  0
  184.0890  178.8430  140.1920 O   0  0  0  0  0  0  0  0  0  0  0  0
  185.1410  178.6360  141.1150 C   0  0  2  0  0  3  0  0  0  0  0  0
  184.9010  179.3250  142.4580 C   0  0  0  0  0  2  0  0  0  0  0  0
  183.4760  179.1020  144.4680 C   0  0  0  0  0  1  0  0  0  0  0  0
  184.3130  178.3480  143.4580 C   0  0  0  0  0  2  0  0  0  0  0  0
  186.3800  179.0100  140.5800 O   0  0  0  0  0  0  0  0  0  0  0  0
  188.4750  177.9550  140.4240 C   0  0  0  0  0  2  0  0  0  0  0  0
  187.3200  178.2630  141.2930 C   0  0  1  0  0  3  0  0  0  0  0  0
  188.5220  178.9920  141.3730 O   0  0  0  0  0  0  0  0  0  0  0  0
  179.9900  180.3830  137.7610 C   0  0  0  0  0  2  0  0  0  0  0  0
  180.0880  181.7590  135.7890 O   0  0  0  0  0  0  0  0  0  0  0  0
  180.0070  181.7960  137.1950 C   0  0  2  0  0  3  0  0  0  0  0  0
  181.1780  182.5960  137.7750 C   0  0  0  0  0  2  0  0  0  0  0  0
  182.3050  184.6920  137.5590 O   0  0  0  0  0  1  0  0  0  0  0  0
  180.9840  183.9890  135.6960 C   0  0  0  0  0  2  0  0  0  0  0  0
  181.1360  184.0150  137.2150 C   0  0  1  0  0  3  0  0  0  0  0  0
  179.8250  183.0630  135.3300 C   0  0  0  0  0  2  0  0  0  0  0  0
  2  5  1  0  0  0  0
  4  8  1  1  0  0  0
  4 17  1  0  0  0  0
  4  6  1  0  0  0  0
  5  7  1  1  0  0  0
  5 16  1  0  0  0  0
  6  2  1  6  0  0  0
  6  9  1  0  0  0  0
  7 14  1  0  0  0  0
  9 13  1  6  0  0  0
  9 16  1  0  0  0  0
 10 13  1  0  0  0  0
 10 18  1  0  0  0  0
 11 15  2  0  0  0  0
 12 15  1  0  0  0  0
 12  8  1  0  0  0  0
 14  3  1  0  0  0  0
 15  2  1  0  0  0  0
 16 19  1  0  0  0  0
 17  1  1  0  0  0  0
 18  1  1  0  0  0  0
 19  3  1  0  0  0  0
 19 21  1  0  0  0  0
 20 30  1  0  0  0  0
 20  7  2  0  0  0  0
 21 22  1  0  0  0  0
 22 23  1  0  0  0  0
 23 25  1  0  0  0  0
 25 24  1  0  0  0  0
 26 22  1  0  0  0  0
 26 28  1  0  0  0  0
 27 28  1  0  0  0  0
 27 29  1  0  0  0  0
 28 29  1  0  0  0  0
 31 32  1  0  0  0  0
 32 30  1  0  0  0  0
 32 33  1  0  0  0  0
 35 36  1  0  0  0  0
 36 34  1  0  0  0  0
 36 33  1  0  0  0  0
 37 35  1  0  0  0  0
 37 31  1  0  0  0  0
M  END
>  <MODEL>
1

>  <REMARK>
 VINA RESULT:      -6.5      0.000      0.000
  Name = 
  8 active torsions:
  status: ('A' for Active; 'I' for Inactive)
    1  A    between atoms: O_1  and  C_33
    2  A    between atoms: O_1  and  C_36
    3  A    between atoms: C_5  and  C_23
    4  A    between atoms: C_5  and  C_33
    5  A    between atoms: C_6  and  C_31
    6  A    between atoms: O_17  and  C_26
    7  A    between atoms: O_17  and  C_33
    8  A    between atoms: C_31  and  N_37
                            x       y       z     vdW  Elec       q    Type
                         _______ _______ _______ _____ _____    ______ ____

>  <TORSDO>
F 8

$$$$
=
 OpenBabel10262422553D

 37 42  0  0  1  0  0  0  0  0999 V2000
  192.6970  174.3710  138.2980 C   0  0  0  0  0  2  0  0  0  0  0  0
  189.4030  177.2160  138.9850 N   0  0  0  0  0  0  0  0  0  0  0  0
  189.4300  175.9990  142.1080 C   0  0  0  0  0  2  0  0  0  0  0  0
  190.6780  175.7040  137.4370 C   0  0  2  0  0  3  0  0  0  0  0  0
  189.6430  178.0700  140.1350 C   0  0  1  0  0  3  0  0  0  0  0  0
  190.4050  176.1700  138.8810 C   0  0  1  0  0  3  0  0  0  0  0  0
  188.4510  178.0730  141.0620 C   0  0  0  0  0  0  0  0  0  0  0  0
  189.3650  175.5270  136.6790 C   0  0  0  0  0  2  0  0  0  0  0  0
  191.6030  176.6720  139.7030 C   0  0  1  0  0  3  0  0  0  0  0  0
  193.3330  176.6950  137.4320 C   0  0  0  0  0  2  0  0  0  0  0  0
  187.7860  178.5570  137.9460 O   0  0  0  0  0  0  0  0  0  0  0  0
  188.5900  176.7620  136.7030 N   0  0  0  0  0  2  0  0  0  0  0  0
  192.7920  177.7670  138.8160 S   0  0  0  0  0  0  0  0  0  0  0  0
  188.2780  176.9960  142.1090 C   0  0  0  0  0  2  0  0  0  0  0  0
  188.5420  177.5520  137.8900 C   0  0  0  0  0  0  0  0  0  0  0  0
  190.9480  177.5380  140.7740 C   0  0  2  0  0  3  0  0  0  0  0  0
  191.4580  174.3820  137.3950 C   0  0  0  0  0  2  0  0  0  0  0  0
  193.8180  175.3070  137.8400 C   0  0  0  0  0  2  0  0  0  0  0  0
  190.7740  176.7230  142.0660 C   0  0  1  0  0  3  0  0  0  0  0  0
  187.5770  179.0100  140.9200 N   0  0  0  0  0  0  0  0  0  0  0  0
  190.9210  177.5610  143.1870 O   0  0  0  0  0  0  0  0  0  0  0  0
  190.4920  176.8650  144.3410 C   0  0  2  0  0  3  0  0  0  0  0  0
  189.7400  177.7560  145.3300 C   0  0  0  0  0  2  0  0  0  0  0  0
  187.6990  177.5850  146.7170 C   0  0  0  0  0  1  0  0  0  0  0  0
  188.2590  177.4270  145.3200 C   0  0  0  0  0  2  0  0  0  0  0  0
  191.5540  176.2080  144.9750 O   0  0  0  0  0  0  0  0  0  0  0  0
  192.0740  175.3570  147.1040 C   0  0  0  0  0  2  0  0  0  0  0  0
  191.3150  176.3700  146.3410 C   0  0  1  0  0  3  0  0  0  0  0  0
  192.5270  176.6830  146.9860 O   0  0  0  0  0  0  0  0  0  0  0  0
  186.3870  179.1150  141.7320 C   0  0  0  0  0  2  0  0  0  0  0  0
  184.9640  179.7330  139.8940 O   0  0  0  0  0  0  0  0  0  0  0  0
  185.1470  178.7800  140.9150 C   0  0  2  0  0  3  0  0  0  0  0  0
  183.9080  178.7190  141.8140 C   0  0  0  0  0  2  0  0  0  0  0  0
  181.5310  178.4910  141.7180 O   0  0  0  0  0  1  0  0  0  0  0  0
  182.6200  179.2230  139.7210 C   0  0  0  0  0  2  0  0  0  0  0  0
  182.6960  178.3440  140.9660 C   0  0  1  0  0  3  0  0  0  0  0  0
  183.9810  179.2190  139.0270 C   0  0  0  0  0  2  0  0  0  0  0  0
  2  5  1  0  0  0  0
  3 14  1  0  0  0  0
  4  8  1  1  0  0  0
  4  6  1  0  0  0  0
  5 16  1  0  0  0  0
  5  7  1  1  0  0  0
  6  2  1  6  0  0  0
  6  9  1  0  0  0  0
  7 14  1  0  0  0  0
  8 12  1  0  0  0  0
  9 13  1  6  0  0  0
  9 16  1  0  0  0  0
 10 18  1  0  0  0  0
 10 13  1  0  0  0  0
 12 15  1  0  0  0  0
 15 11  2  0  0  0  0
 15  2  1  0  0  0  0
 16 19  1  0  0  0  0
 17  4  1  0  0  0  0
 17  1  1  0  0  0  0
 18  1  1  0  0  0  0
 19  3  1  0  0  0  0
 19 21  1  0  0  0  0
 20  7  2  0  0  0  0
 20 30  1  0  0  0  0
 21 22  1  0  0  0  0
 22 26  1  0  0  0  0
 22 23  1  0  0  0  0
 25 23  1  0  0  0  0
 25 24  1  0  0  0  0
 26 28  1  0  0  0  0
 28 29  1  0  0  0  0
 28 27  1  0  0  0  0
 29 27  1  0  0  0  0
 31 32  1  0  0  0  0
 32 30  1  0  0  0  0
 32 33  1  0  0  0  0
 35 36  1  0  0  0  0
 36 34  1  0  0  0  0
 36 33  1  0  0  0  0
 37 35  1  0  0  0  0
 37 31  1  0  0  0  0
M  END
>  <MODEL>
2

>  <REMARK>
 VINA RESULT:      -6.1      4.574      7.238
  Name = 
  8 active torsions:
  status: ('A' for Active; 'I' for Inactive)
    1  A    between atoms: O_1  and  C_33
    2  A    between atoms: O_1  and  C_36
    3  A    between atoms: C_5  and  C_23
    4  A    between atoms: C_5  and  C_33
    5  A    between atoms: C_6  and  C_31
    6  A    between atoms: O_17  and  C_26
    7  A    between atoms: O_17  and  C_33
    8  A    between atoms: C_31  and  N_37
                            x       y       z     vdW  Elec       q    Type
                         _______ _______ _______ _____ _____    ______ ____

>  <TORSDO>
F 8

$$$$
=
 OpenBabel10262422553D

 37 42  0  0  1  0  0  0  0  0999 V2000
  189.2410  175.9330  137.4620 C   0  0  0  0  0  2  0  0  0  0  0  0
  186.2640  178.2490  139.7400 N   0  0  0  0  0  0  0  0  0  0  0  0
  187.6290  176.7630  142.4170 C   0  0  0  0  0  2  0  0  0  0  0  0
  186.9430  177.0660  137.6310 C   0  0  2  0  0  3  0  0  0  0  0  0
  186.8680  179.0170  140.8160 C   0  0  1  0  0  3  0  0  0  0  0  0
  187.2260  177.3560  139.1190 C   0  0  1  0  0  3  0  0  0  0  0  0
  186.1460  178.7790  142.1200 C   0  0  0  0  0  0  0  0  0  0  0  0
  185.4560  176.7900  137.4190 C   0  0  0  0  0  2  0  0  0  0  0  0
  188.6050  177.9320  139.4780 C   0  0  1  0  0  3  0  0  0  0  0  0
  189.2850  178.3900  136.7440 C   0  0  0  0  0  2  0  0  0  0  0  0
  184.2620  179.4590  139.5940 O   0  0  0  0  0  0  0  0  0  0  0  0
  184.6540  177.9060  137.9060 N   0  0  0  0  0  2  0  0  0  0  0  0
  189.2490  179.2500  138.3610 S   0  0  0  0  0  0  0  0  0  0  0  0
  186.4930  177.5970  142.9960 C   0  0  0  0  0  2  0  0  0  0  0  0
  185.0140  178.5700  139.1160 C   0  0  0  0  0  0  0  0  0  0  0  0
  188.3590  178.6020  140.8260 C   0  0  2  0  0  3  0  0  0  0  0  0
  187.7490  175.8660  137.1140 C   0  0  0  0  0  2  0  0  0  0  0  0
  190.0060  177.0450  136.7410 C   0  0  0  0  0  2  0  0  0  0  0  0
  188.7800  177.6560  141.9620 C   0  0  1  0  0  3  0  0  0  0  0  0
  185.2120  179.6030  142.4530 N   0  0  0  0  0  0  0  0  0  0  0  0
  189.2890  178.3990  143.0430 O   0  0  0  0  0  0  0  0  0  0  0  0
  190.7000  178.3070  143.0420 C   0  0  2  0  0  3  0  0  0  0  0  0
  191.2200  177.1210  142.2300 C   0  0  0  0  0  2  0  0  0  0  0  0
  192.0190  177.1700  139.8890 C   0  0  0  0  0  1  0  0  0  0  0  0
  192.3480  177.5590  141.3150 C   0  0  0  0  0  2  0  0  0  0  0  0
  191.2190  178.2840  144.3430 O   0  0  0  0  0  0  0  0  0  0  0  0
  191.5420  176.8250  146.1580 C   0  0  0  0  0  2  0  0  0  0  0  0
  190.9430  177.0000  144.8180 C   0  0  1  0  0  3  0  0  0  0  0  0
  190.1730  177.1000  145.9930 O   0  0  0  0  0  0  0  0  0  0  0  0
  184.4380  179.4770  143.6650 C   0  0  0  0  0  2  0  0  0  0  0  0
  182.2560  178.7830  144.4050 O   0  0  0  0  0  0  0  0  0  0  0  0
  182.9500  179.4040  143.3480 C   0  0  2  0  0  3  0  0  0  0  0  0
  182.7140  178.6470  142.0370 C   0  0  0  0  0  2  0  0  0  0  0  0
  180.9620  177.7690  140.6690 O   0  0  0  0  0  1  0  0  0  0  0  0
  180.4280  178.1800  142.9620 C   0  0  0  0  0  2  0  0  0  0  0  0
  181.2180  178.6300  141.7360 C   0  0  1  0  0  3  0  0  0  0  0  0
  180.8840  178.9940  144.1720 C   0  0  0  0  0  2  0  0  0  0  0  0
  2  5  1  0  0  0  0
  3 14  1  0  0  0  0
  4 17  1  1  0  0  0
  4  6  1  0  0  0  0
  5 16  1  0  0  0  0
  5  7  1  1  0  0  0
  6  9  1  0  0  0  0
  6  2  1  6  0  0  0
  7 20  2  0  0  0  0
  7 14  1  0  0  0  0
  8  4  1  0  0  0  0
  8 12  1  0  0  0  0
  9 13  1  6  0  0  0
  9 16  1  0  0  0  0
 10 13  1  0  0  0  0
 12 15  1  0  0  0  0
 15 11  2  0  0  0  0
 15  2  1  0  0  0  0
 16 19  1  0  0  0  0
 17  1  1  0  0  0  0
 18 10  1  0  0  0  0
 18  1  1  0  0  0  0
 19  3  1  0  0  0  0
 19 21  1  0  0  0  0
 20 30  1  0  0  0  0
 22 21  1  0  0  0  0
 22 26  1  0  0  0  0
 23 22  1  0  0  0  0
 24 25  1  0  0  0  0
 25 23  1  0  0  0  0
 26 28  1  0  0  0  0
 28 29  1  0  0  0  0
 28 27  1  0  0  0  0
 29 27  1  0  0  0  0
 32 30  1  0  0  0  0
 32 31  1  0  0  0  0
 33 32  1  0  0  0  0
 34 36  1  0  0  0  0
 35 37  1  0  0  0  0
 36 33  1  0  0  0  0
 36 35  1  0  0  0  0
 37 31  1  0  0  0  0
M  END
>  <MODEL>
3

>  <REMARK>
 VINA RESULT:      -6.0      4.018      6.435
  Name = 
  8 active torsions:
  status: ('A' for Active; 'I' for Inactive)
    1  A    between atoms: O_1  and  C_33
    2  A    between atoms: O_1  and  C_36
    3  A    between atoms: C_5  and  C_23
    4  A    between atoms: C_5  and  C_33
    5  A    between atoms: C_6  and  C_31
    6  A    between atoms: O_17  and  C_26
    7  A    between atoms: O_17  and  C_33
    8  A    between atoms: C_31  and  N_37
                            x       y       z     vdW  Elec       q    Type
                         _______ _______ _______ _____ _____    ______ ____

>  <TORSDO>
F 8

$$$$
=
 OpenBabel10262422553D

 37 42  0  0  1  0  0  0  0  0999 V2000
  189.2570  176.0070  137.8790 C   0  0  0  0  0  2  0  0  0  0  0  0
  186.1630  178.3240  139.9960 N   0  0  0  0  0  0  0  0  0  0  0  0
  187.2580  176.6940  142.7130 C   0  0  0  0  0  2  0  0  0  0  0  0
  186.9850  177.2030  137.9030 C   0  0  2  0  0  3  0  0  0  0  0  0
  186.6960  179.0310  141.1480 C   0  0  1  0  0  3  0  0  0  0  0  0
  187.1500  177.4260  139.4200 C   0  0  1  0  0  3  0  0  0  0  0  0
  185.8610  178.7650  142.3770 C   0  0  0  0  0  0  0  0  0  0  0  0
  185.5140  176.9810  137.5570 C   0  0  0  0  0  2  0  0  0  0  0  0
  188.5090  177.9450  139.9160 C   0  0  1  0  0  3  0  0  0  0  0  0
  189.4290  178.4880  137.2680 C   0  0  0  0  0  2  0  0  0  0  0  0
  184.2150  179.6000  139.7340 O   0  0  0  0  0  0  0  0  0  0  0  0
  184.7050  178.1020  138.0220 N   0  0  0  0  0  2  0  0  0  0  0  0
  189.2810  179.2850  138.9110 S   0  0  0  0  0  0  0  0  0  0  0  0
  186.1000  177.5400  143.2290 C   0  0  0  0  0  2  0  0  0  0  0  0
  184.9800  178.7070  139.2840 C   0  0  0  0  0  0  0  0  0  0  0  0
  188.1700  178.5700  141.2650 C   0  0  2  0  0  3  0  0  0  0  0  0
  187.7980  175.9990  137.4060 C   0  0  0  0  0  2  0  0  0  0  0  0
  190.1110  177.1220  137.2700 C   0  0  0  0  0  2  0  0  0  0  0  0
  188.4670  177.5680  142.3920 C   0  0  1  0  0  3  0  0  0  0  0  0
  184.9250  179.6040  142.6650 N   0  0  0  0  0  0  0  0  0  0  0  0
  188.9030  178.2530  143.5410 O   0  0  0  0  0  0  0  0  0  0  0  0
  188.8740  177.3670  144.6440 C   0  0  2  0  0  3  0  0  0  0  0  0
  188.5180  178.0610  145.9580 C   0  0  0  0  0  2  0  0  0  0  0  0
  186.2550  178.6290  146.7800 C   0  0  0  0  0  1  0  0  0  0  0  0
  187.2270  177.4980  146.5220 C   0  0  0  0  0  2  0  0  0  0  0  0
  190.0740  176.6550  144.7680 O   0  0  0  0  0  0  0  0  0  0  0  0
  191.6870  176.2110  146.4200 C   0  0  0  0  0  2  0  0  0  0  0  0
  190.6810  177.1690  145.9160 C   0  0  1  0  0  3  0  0  0  0  0  0
  192.0560  177.3420  145.6710 O   0  0  0  0  0  0  0  0  0  0  0  0
  184.0490  179.4550  143.8030 C   0  0  0  0  0  2  0  0  0  0  0  0
  181.8410  178.6480  144.3190 O   0  0  0  0  0  0  0  0  0  0  0  0
  182.5980  179.3390  143.3530 C   0  0  2  0  0  3  0  0  0  0  0  0
  182.5080  178.6300  141.9980 C   0  0  0  0  0  2  0  0  0  0  0  0
  180.9200  177.7460  140.4470 O   0  0  0  0  0  1  0  0  0  0  0  0
  180.1720  178.0380  142.6980 C   0  0  0  0  0  2  0  0  0  0  0  0
  181.0460  178.5700  141.5650 C   0  0  1  0  0  3  0  0  0  0  0  0
  180.4870  178.8170  143.9740 C   0  0  0  0  0  2  0  0  0  0  0  0
  2  5  1  0  0  0  0
  3 14  1  0  0  0  0
  4 17  1  1  0  0  0
  4  6  1  0  0  0  0
  5 16  1  0  0  0  0
  5  7  1  1  0  0  0
  6  9  1  0  0  0  0
  6  2  1  6  0  0  0
  7 20  2  0  0  0  0
  7 14  1  0  0  0  0
  8  4  1  0  0  0  0
  8 12  1  0  0  0  0
  9 13  1  6  0  0  0
  9 16  1  0  0  0  0
 10 18  1  0  0  0  0
 10 13  1  0  0  0  0
 12 15  1  0  0  0  0
 15 11  2  0  0  0  0
 15  2  1  0  0  0  0
 16 19  1  0  0  0  0
 17  1  1  0  0  0  0
 18  1  1  0  0  0  0
 19  3  1  0  0  0  0
 19 21  1  0  0  0  0
 20 30  1  0  0  0  0
 21 22  1  0  0  0  0
 22 26  1  0  0  0  0
 22 23  1  0  0  0  0
 23 25  1  0  0  0  0
 25 24  1  0  0  0  0
 26 28  1  0  0  0  0
 28 27  1  0  0  0  0
 29 28  1  0  0  0  0
 29 27  1  0  0  0  0
 32 30  1  0  0  0  0
 32 31  1  0  0  0  0
 33 32  1  0  0  0  0
 34 36  1  0  0  0  0
 35 37  1  0  0  0  0
 36 33  1  0  0  0  0
 36 35  1  0  0  0  0
 37 31  1  0  0  0  0
M  END
>  <MODEL>
4

>  <REMARK>
 VINA RESULT:      -5.9      4.041      6.136
  Name = 
  8 active torsions:
  status: ('A' for Active; 'I' for Inactive)
    1  A    between atoms: O_1  and  C_33
    2  A    between atoms: O_1  and  C_36
    3  A    between atoms: C_5  and  C_23
    4  A    between atoms: C_5  and  C_33
    5  A    between atoms: C_6  and  C_31
    6  A    between atoms: O_17  and  C_26
    7  A    between atoms: O_17  and  C_33
    8  A    between atoms: C_31  and  N_37
                            x       y       z     vdW  Elec       q    Type
                         _______ _______ _______ _____ _____    ______ ____

>  <TORSDO>
F 8

$$$$
=
 OpenBabel10262422553D

 37 42  0  0  1  0  0  0  0  0999 V2000
  193.1900  175.7580  135.2540 C   0  0  0  0  0  2  0  0  0  0  0  0
  190.9230  176.7760  138.8930 N   0  0  0  0  0  0  0  0  0  0  0  0
  188.8380  178.3250  136.7740 C   0  0  0  0  0  2  0  0  0  0  0  0
  193.1120  176.2730  137.7690 C   0  0  2  0  0  3  0  0  0  0  0  0
  189.5220  176.4040  138.7920 C   0  0  1  0  0  3  0  0  0  0  0  0
  191.6120  176.6010  137.6260 C   0  0  1  0  0  3  0  0  0  0  0  0
  188.6300  177.5620  139.1680 C   0  0  0  0  0  0  0  0  0  0  0  0
  193.7540  177.1690  138.8250 C   0  0  0  0  0  2  0  0  0  0  0  0
  190.7450  175.6190  136.8240 C   0  0  1  0  0  3  0  0  0  0  0  0
  192.8250  173.6690  136.6890 C   0  0  0  0  0  2  0  0  0  0  0  0
  191.0250  176.9310  141.2290 O   0  0  0  0  0  0  0  0  0  0  0  0
  193.0560  177.0380  140.1000 N   0  0  0  0  0  2  0  0  0  0  0  0
  191.0540  173.8280  137.1300 S   0  0  0  0  0  0  0  0  0  0  0  0
  188.2510  178.6140  138.1500 C   0  0  0  0  0  2  0  0  0  0  0  0
  191.6340  176.9330  140.1280 C   0  0  0  0  0  0  0  0  0  0  0  0
  189.3370  175.9000  137.3400 C   0  0  2  0  0  3  0  0  0  0  0  0
  193.8690  176.4480  136.4440 C   0  0  0  0  0  2  0  0  0  0  0  0
  193.2040  174.2290  135.3210 C   0  0  0  0  0  2  0  0  0  0  0  0
  188.6160  176.8650  136.3860 C   0  0  1  0  0  3  0  0  0  0  0  0
  188.2170  177.6370  140.3870 N   0  0  0  0  0  0  0  0  0  0  0  0
  187.2420  176.5660  136.3470 O   0  0  0  0  0  0  0  0  0  0  0  0
  187.0750  175.1620  136.3540 C   0  0  2  0  0  3  0  0  0  0  0  0
  186.8560  174.5790  134.9580 C   0  0  0  0  0  2  0  0  0  0  0  0
  187.8420  172.4060  135.6100 C   0  0  0  0  0  1  0  0  0  0  0  0
  187.9310  173.5600  134.6340 C   0  0  0  0  0  2  0  0  0  0  0  0
  186.0500  174.7660  137.2230 O   0  0  0  0  0  0  0  0  0  0  0  0
  183.7110  174.5410  137.2930 C   0  0  0  0  0  2  0  0  0  0  0  0
  184.8670  175.1010  136.5620 C   0  0  1  0  0  3  0  0  0  0  0  0
  184.0730  175.8950  137.4120 O   0  0  0  0  0  0  0  0  0  0  0  0
  187.3720  178.7020  140.8750 C   0  0  0  0  0  2  0  0  0  0  0  0
  185.6760  179.2450  142.4930 O   0  0  0  0  0  0  0  0  0  0  0  0
  186.5970  178.2520  142.1070 C   0  0  2  0  0  3  0  0  0  0  0  0
  187.5550  177.9350  143.2600 C   0  0  0  0  0  2  0  0  0  0  0  0
  187.5690  177.3640  145.5800 O   0  0  0  0  0  1  0  0  0  0  0  0
  185.5880  178.4060  144.7460 C   0  0  0  0  0  2  0  0  0  0  0  0
  186.7440  177.4520  144.4600 C   0  0  1  0  0  3  0  0  0  0  0  0
  184.8230  178.6610  143.4480 C   0  0  0  0  0  2  0  0  0  0  0  0
  1 18  1  0  0  0  0
  1 17  1  0  0  0  0
  2 15  1  0  0  0  0
  3 14  1  0  0  0  0
  4 17  1  6  0  0  0
  4  8  1  0  0  0  0
  5  2  1  0  0  0  0
  5  7  1  6  0  0  0
  6  4  1  0  0  0  0
  6  2  1  1  0  0  0
  7 20  2  0  0  0  0
  8 12  1  0  0  0  0
  9 13  1  1  0  0  0
  9 16  1  0  0  0  0
  9  6  1  0  0  0  0
 10 13  1  0  0  0  0
 12 15  1  0  0  0  0
 14  7  1  0  0  0  0
 15 11  2  0  0  0  0
 16  5  1  0  0  0  0
 18 10  1  0  0  0  0
 19  3  1  0  0  0  0
 19 16  1  0  0  0  0
 20 30  1  0  0  0  0
 21 22  1  0  0  0  0
 21 19  1  0  0  0  0
 22 26  1  0  0  0  0
 23 22  1  0  0  0  0
 25 23  1  0  0  0  0
 25 24  1  0  0  0  0
 27 29  1  0  0  0  0
 28 26  1  0  0  0  0
 28 27  1  0  0  0  0
 28 29  1  0  0  0  0
 30 32  1  0  0  0  0
 31 37  1  0  0  0  0
 32 31  1  0  0  0  0
 32 33  1  0  0  0  0
 33 36  1  0  0  0  0
 36 35  1  0  0  0  0
 36 34  1  0  0  0  0
 37 35  1  0  0  0  0
M  END
>  <MODEL>
5

>  <REMARK>
 VINA RESULT:      -5.9      5.120      8.958
  Name = 
  8 active torsions:
  status: ('A' for Active; 'I' for Inactive)
    1  A    between atoms: O_1  and  C_33
    2  A    between atoms: O_1  and  C_36
    3  A    between atoms: C_5  and  C_23
    4  A    between atoms: C_5  and  C_33
    5  A    between atoms: C_6  and  C_31
    6  A    between atoms: O_17  and  C_26
    7  A    between atoms: O_17  and  C_33
    8  A    between atoms: C_31  and  N_37
                            x       y       z     vdW  Elec       q    Type
                         _______ _______ _______ _____ _____    ______ ____

>  <TORSDO>
F 8

$$$$
=
 OpenBabel10262422553D

 37 42  0  0  1  0  0  0  0  0999 V2000
  179.8740  180.6570  141.0170 C   0  0  0  0  0  2  0  0  0  0  0  0
  182.4020  178.3000  138.2840 N   0  0  0  0  0  0  0  0  0  0  0  0
  184.9370  179.4490  140.1520 C   0  0  0  0  0  2  0  0  0  0  0  0
  180.3190  179.6400  138.7010 C   0  0  2  0  0  3  0  0  0  0  0  0
  183.2950  177.4010  138.9960 C   0  0  1  0  0  3  0  0  0  0  0  0
  181.7100  179.1940  139.1950 C   0  0  1  0  0  3  0  0  0  0  0  0
  184.7140  177.5530  138.5060 C   0  0  0  0  0  0  0  0  0  0  0  0
  180.3760  180.0150  137.2220 C   0  0  0  0  0  2  0  0  0  0  0  0
  181.7890  178.5130  140.5710 C   0  0  1  0  0  3  0  0  0  0  0  0
  178.9520  178.2810  140.7780 C   0  0  0  0  0  2  0  0  0  0  0  0
  182.4820  177.2190  136.2060 O   0  0  0  0  0  0  0  0  0  0  0  0
  180.8910  178.9020  136.4320 N   0  0  0  0  0  2  0  0  0  0  0  0
  180.4740  177.2750  140.9390 S   0  0  0  0  0  0  0  0  0  0  0  0
  185.6200  178.6260  139.0670 C   0  0  0  0  0  2  0  0  0  0  0  0
  181.9650  178.1080  136.9330 C   0  0  0  0  0  0  0  0  0  0  0  0
  183.0970  177.7320  140.4950 C   0  0  2  0  0  3  0  0  0  0  0  0
  179.7810  180.8380  139.4960 C   0  0  0  0  0  2  0  0  0  0  0  0
  178.9460  179.5790  141.5810 C   0  0  0  0  0  2  0  0  0  0  0  0
  184.2250  178.5420  141.1530 C   0  0  1  0  0  3  0  0  0  0  0  0
  185.1240  176.7520  137.5820 N   0  0  0  0  0  0  0  0  0  0  0  0
  185.1420  177.6730  141.7740 O   0  0  0  0  0  0  0  0  0  0  0  0
  185.3500  178.0990  143.1070 C   0  0  2  0  0  3  0  0  0  0  0  0
  184.5380  179.3420  143.4700 C   0  0  0  0  0  2  0  0  0  0  0  0
  184.6070  178.6260  145.8370 C   0  0  0  0  0  1  0  0  0  0  0  0
  183.7050  179.0860  144.7120 C   0  0  0  0  0  2  0  0  0  0  0  0
  186.7090  178.2970  143.3820 O   0  0  0  0  0  0  0  0  0  0  0  0
  188.7020  177.0670  143.5920 C   0  0  0  0  0  2  0  0  0  0  0  0
  187.2240  177.0160  143.5910 C   0  0  1  0  0  3  0  0  0  0  0  0
  187.9650  177.0080  144.7890 O   0  0  0  0  0  0  0  0  0  0  0  0
  186.4530  176.8050  137.0190 C   0  0  0  0  0  2  0  0  0  0  0  0
  186.1060  174.4350  137.2490 O   0  0  0  0  0  0  0  0  0  0  0  0
  186.9450  175.4060  136.6700 C   0  0  2  0  0  3  0  0  0  0  0  0
  188.3910  175.2100  137.1370 C   0  0  0  0  0  2  0  0  0  0  0  0
  190.0860  173.5370  137.3330 O   0  0  0  0  0  1  0  0  0  0  0  0
  187.8320  172.7630  137.1520 C   0  0  0  0  0  2  0  0  0  0  0  0
  188.8570  173.8140  136.7350 C   0  0  1  0  0  3  0  0  0  0  0  0
  186.4500  173.1990  136.6690 C   0  0  0  0  0  2  0  0  0  0  0  0
  1 18  1  0  0  0  0
  2  5  1  0  0  0  0
  3 19  1  0  0  0  0
  4  8  1  6  0  0  0
  4  6  1  0  0  0  0
  4 17  1  0  0  0  0
  5  7  1  6  0  0  0
  5 16  1  0  0  0  0
  6  2  1  6  0  0  0
  6  9  1  0  0  0  0
  7 14  1  0  0  0  0
  9 13  1  6  0  0  0
 10 13  1  0  0  0  0
 10 18  1  0  0  0  0
 11 15  2  0  0  0  0
 12 15  1  0  0  0  0
 12  8  1  0  0  0  0
 14  3  1  0  0  0  0
 15  2  1  0  0  0  0
 16  9  1  0  0  0  0
 16 19  1  0  0  0  0
 17  1  1  0  0  0  0
 19 21  1  0  0  0  0
 20  7  2  0  0  0  0
 21 22  1  0  0  0  0
 22 26  1  0  0  0  0
 22 23  1  0  0  0  0
 23 25  1  0  0  0  0
 25 24  1  0  0  0  0
 26 28  1  0  0  0  0
 27 29  1  0  0  0  0
 28 27  1  0  0  0  0
 28 29  1  0  0  0  0
 30 20  1  0  0  0  0
 32 30  1  0  0  0  0
 32 33  1  0  0  0  0
 32 31  1  0  0  0  0
 36 33  1  0  0  0  0
 36 35  1  0  0  0  0
 36 34  1  0  0  0  0
 37 35  1  0  0  0  0
 37 31  1  0  0  0  0
M  END
>  <MODEL>
6

>  <REMARK>
 VINA RESULT:      -5.9      2.941      6.800
  Name = 
  8 active torsions:
  status: ('A' for Active; 'I' for Inactive)
    1  A    between atoms: O_1  and  C_33
    2  A    between atoms: O_1  and  C_36
    3  A    between atoms: C_5  and  C_23
    4  A    between atoms: C_5  and  C_33
    5  A    between atoms: C_6  and  C_31
    6  A    between atoms: O_17  and  C_26
    7  A    between atoms: O_17  and  C_33
    8  A    between atoms: C_31  and  N_37
                            x       y       z     vdW  Elec       q    Type
                         _______ _______ _______ _____ _____    ______ ____

>  <TORSDO>
F 8

$$$$
=
 OpenBabel10262422553D

 37 42  0  0  1  0  0  0  0  0999 V2000
  191.7310  178.0040  143.6290 C   0  0  0  0  0  2  0  0  0  0  0  0
  187.4390  177.7940  144.6030 N   0  0  0  0  0  0  0  0  0  0  0  0
  187.0900  179.9880  142.0930 C   0  0  0  0  0  2  0  0  0  0  0  0
  189.8390  177.6580  145.3300 C   0  0  2  0  0  3  0  0  0  0  0  0
  186.6230  177.4980  143.4370 C   0  0  1  0  0  3  0  0  0  0  0  0
  188.8230  178.0380  144.2350 C   0  0  1  0  0  3  0  0  0  0  0  0
  185.4830  178.4790  143.3160 C   0  0  0  0  0  0  0  0  0  0  0  0
  189.3560  178.1450  146.6940 C   0  0  0  0  0  2  0  0  0  0  0  0
  188.9960  177.3910  142.8520 C   0  0  1  0  0  3  0  0  0  0  0  0
  190.9760  175.5640  143.7970 C   0  0  0  0  0  2  0  0  0  0  0  0
  185.8760  177.1650  146.2320 O   0  0  0  0  0  0  0  0  0  0  0  0
  188.0310  177.6090  146.9880 N   0  0  0  0  0  2  0  0  0  0  0  0
  189.4110  175.5940  142.8450 S   0  0  0  0  0  0  0  0  0  0  0  0
  185.6760  179.8150  142.6330 C   0  0  0  0  0  2  0  0  0  0  0  0
  187.0510  177.5220  145.9550 C   0  0  0  0  0  0  0  0  0  0  0  0
  187.6040  177.5060  142.2390 C   0  0  2  0  0  3  0  0  0  0  0  0
  191.2300  178.2510  145.0570 C   0  0  0  0  0  2  0  0  0  0  0  0
  192.0460  176.5400  143.3150 C   0  0  0  0  0  2  0  0  0  0  0  0
  187.5360  178.7430  141.3310 C   0  0  1  0  0  3  0  0  0  0  0  0
  184.3460  178.1520  143.8280 N   0  0  0  0  0  0  0  0  0  0  0  0
  186.6800  178.4950  140.2420 O   0  0  0  0  0  0  0  0  0  0  0  0
  187.4560  178.1170  139.1220 C   0  0  2  0  0  3  0  0  0  0  0  0
  188.9330  178.4780  139.2700 C   0  0  0  0  0  2  0  0  0  0  0  0
  190.9650  177.1290  139.6860 C   0  0  0  0  0  1  0  0  0  0  0  0
  189.8080  177.3600  138.7370 C   0  0  0  0  0  2  0  0  0  0  0  0
  186.9350  178.6380  137.9310 O   0  0  0  0  0  0  0  0  0  0  0  0
  186.1960  177.3130  136.1350 C   0  0  0  0  0  2  0  0  0  0  0  0
  185.9570  177.7240  137.5350 C   0  0  1  0  0  3  0  0  0  0  0  0
  186.5740  176.4990  137.2170 O   0  0  0  0  0  0  0  0  0  0  0  0
  183.1830  179.0080  143.7910 C   0  0  0  0  0  2  0  0  0  0  0  0
  182.8380  178.6220  141.4410 O   0  0  0  0  0  0  0  0  0  0  0  0
  182.2170  178.5560  142.7040 C   0  0  2  0  0  3  0  0  0  0  0  0
  180.9480  179.4140  142.7190 C   0  0  0  0  0  2  0  0  0  0  0  0
  178.9310  179.7990  141.4970 O   0  0  0  0  0  1  0  0  0  0  0  0
  180.7180  178.7460  140.3110 C   0  0  0  0  0  2  0  0  0  0  0  0
  179.9920  178.9060  141.6440 C   0  0  1  0  0  3  0  0  0  0  0  0
  181.9990  177.9430  140.5370 C   0  0  0  0  0  2  0  0  0  0  0  0
  1 17  1  0  0  0  0
  2 15  1  0  0  0  0
  3 14  1  0  0  0  0
  4 17  1  6  0  0  0
  4  8  1  0  0  0  0
  5  7  1  6  0  0  0
  5  2  1  0  0  0  0
  6  2  1  1  0  0  0
  6  4  1  0  0  0  0
  7 20  2  0  0  0  0
  8 12  1  0  0  0  0
  9 13  1  1  0  0  0
  9  6  1  0  0  0  0
 13 10  1  0  0  0  0
 14  7  1  0  0  0  0
 15 11  2  0  0  0  0
 15 12  1  0  0  0  0
 16  9  1  0  0  0  0
 16  5  1  0  0  0  0
 18  1  1  0  0  0  0
 18 10  1  0  0  0  0
 19  3  1  0  0  0  0
 19 16  1  0  0  0  0
 21 19  1  0  0  0  0
 22 23  1  0  0  0  0
 22 21  1  0  0  0  0
 25 23  1  0  0  0  0
 25 24  1  0  0  0  0
 26 22  1  0  0  0  0
 27 29  1  0  0  0  0
 27 28  1  0  0  0  0
 28 26  1  0  0  0  0
 29 28  1  0  0  0  0
 30 20  1  0  0  0  0
 31 32  1  0  0  0  0
 32 33  1  0  0  0  0
 32 30  1  0  0  0  0
 34 36  1  0  0  0  0
 35 37  1  0  0  0  0
 35 36  1  0  0  0  0
 36 33  1  0  0  0  0
 37 31  1  0  0  0  0
M  END
>  <MODEL>
7

>  <REMARK>
 VINA RESULT:      -5.8      4.572      8.117
  Name = 
  8 active torsions:
  status: ('A' for Active; 'I' for Inactive)
    1  A    between atoms: O_1  and  C_33
    2  A    between atoms: O_1  and  C_36
    3  A    between atoms: C_5  and  C_23
    4  A    between atoms: C_5  and  C_33
    5  A    between atoms: C_6  and  C_31
    6  A    between atoms: O_17  and  C_26
    7  A    between atoms: O_17  and  C_33
    8  A    between atoms: C_31  and  N_37
                            x       y       z     vdW  Elec       q    Type
                         _______ _______ _______ _____ _____    ______ ____

>  <TORSDO>
F 8

$$$$
=
 OpenBabel10262422553D

 37 42  0  0  1  0  0  0  0  0999 V2000
  192.4430  175.3990  134.6410 C   0  0  0  0  0  2  0  0  0  0  0  0
  190.9210  176.7200  138.5600 N   0  0  0  0  0  0  0  0  0  0  0  0
  188.5110  178.2030  136.7640 C   0  0  0  0  0  2  0  0  0  0  0  0
  192.8490  176.0730  137.0850 C   0  0  2  0  0  3  0  0  0  0  0  0
  189.5180  176.3910  138.7460 C   0  0  1  0  0  3  0  0  0  0  0  0
  191.3570  176.4430  137.2020 C   0  0  1  0  0  3  0  0  0  0  0  0
  188.7370  177.5990  139.2010 C   0  0  0  0  0  0  0  0  0  0  0  0
  193.6970  177.0110  137.9410 C   0  0  0  0  0  2  0  0  0  0  0  0
  190.3330  175.4420  136.6430 C   0  0  1  0  0  3  0  0  0  0  0  0
  192.3080  173.4180  136.2570 C   0  0  0  0  0  2  0  0  0  0  0  0
  191.4630  177.0170  140.8200 O   0  0  0  0  0  0  0  0  0  0  0  0
  193.2480  176.9830  139.3280 N   0  0  0  0  0  2  0  0  0  0  0  0
  190.6550  173.6640  137.0070 S   0  0  0  0  0  0  0  0  0  0  0  0
  188.1980  178.5980  138.2020 C   0  0  0  0  0  2  0  0  0  0  0  0
  191.8540  176.9290  139.6270 C   0  0  0  0  0  0  0  0  0  0  0  0
  189.0530  175.8030  137.3910 C   0  0  2  0  0  3  0  0  0  0  0  0
  193.3480  176.1380  135.6340 C   0  0  0  0  0  2  0  0  0  0  0  0
  192.4360  173.8780  134.8070 C   0  0  0  0  0  2  0  0  0  0  0  0
  188.1880  176.7300  136.5240 C   0  0  1  0  0  3  0  0  0  0  0  0
  188.5620  177.7640  140.4680 N   0  0  0  0  0  0  0  0  0  0  0  0
  186.8240  176.4770  136.7610 O   0  0  0  0  0  0  0  0  0  0  0  0
  186.2400  175.9590  135.5810 C   0  0  2  0  0  3  0  0  0  0  0  0
  184.7560  176.3020  135.4500 C   0  0  0  0  0  2  0  0  0  0  0  0
  183.5480  176.7130  137.5700 C   0  0  0  0  0  1  0  0  0  0  0  0
  184.3630  177.3560  136.4680 C   0  0  0  0  0  2  0  0  0  0  0  0
  186.4420  174.5780  135.4650 O   0  0  0  0  0  0  0  0  0  0  0  0
  185.8010  172.5600  136.4850 C   0  0  0  0  0  2  0  0  0  0  0  0
  185.8630  174.0320  136.6110 C   0  0  1  0  0  3  0  0  0  0  0  0
  186.8000  173.1940  137.2460 O   0  0  0  0  0  0  0  0  0  0  0  0
  187.8470  178.8860  141.0300 C   0  0  0  0  0  2  0  0  0  0  0  0
  185.5490  179.4230  140.5620 O   0  0  0  0  0  0  0  0  0  0  0  0
  186.3840  178.5300  141.2610 C   0  0  2  0  0  3  0  0  0  0  0  0
  186.0530  178.5510  142.7570 C   0  0  0  0  0  2  0  0  0  0  0  0
  184.2140  178.3710  144.2710 O   0  0  0  0  0  1  0  0  0  0  0  0
  183.6900  178.9550  142.0150 C   0  0  0  0  0  2  0  0  0  0  0  0
  184.5920  178.1520  142.9470 C   0  0  1  0  0  3  0  0  0  0  0  0
  184.2510  178.8790  140.5950 C   0  0  0  0  0  2  0  0  0  0  0  0
  1 18  1  0  0  0  0
  1 17  1  0  0  0  0
  2  5  1  0  0  0  0
  2 15  1  0  0  0  0
  3 14  1  0  0  0  0
  4 17  1  6  0  0  0
  4  6  1  0  0  0  0
  4  8  1  0  0  0  0
  5  7  1  6  0  0  0
  6  2  1  1  0  0  0
  7 20  2  0  0  0  0
  8 12  1  0  0  0  0
  9 13  1  1  0  0  0
  9  6  1  0  0  0  0
  9 16  1  0  0  0  0
 10 13  1  0  0  0  0
 12 15  1  0  0  0  0
 14  7  1  0  0  0  0
 15 11  2  0  0  0  0
 16  5  1  0  0  0  0
 18 10  1  0  0  0  0
 19 21  1  0  0  0  0
 19  3  1  0  0  0  0
 19 16  1  0  0  0  0
 20 30  1  0  0  0  0
 22 21  1  0  0  0  0
 23 22  1  0  0  0  0
 23 25  1  0  0  0  0
 25 24  1  0  0  0  0
 26 22  1  0  0  0  0
 26 28  1  0  0  0  0
 27 28  1  0  0  0  0
 27 29  1  0  0  0  0
 28 29  1  0  0  0  0
 30 32  1  0  0  0  0
 31 37  1  0  0  0  0
 31 32  1  0  0  0  0
 32 33  1  0  0  0  0
 33 36  1  0  0  0  0
 35 36  1  0  0  0  0
 36 34  1  0  0  0  0
 37 35  1  0  0  0  0
M  END
>  <MODEL>
8

>  <REMARK>
 VINA RESULT:      -5.8      4.630      8.194
  Name = 
  8 active torsions:
  status: ('A' for Active; 'I' for Inactive)
    1  A    between atoms: O_1  and  C_33
    2  A    between atoms: O_1  and  C_36
    3  A    between atoms: C_5  and  C_23
    4  A    between atoms: C_5  and  C_33
    5  A    between atoms: C_6  and  C_31
    6  A    between atoms: O_17  and  C_26
    7  A    between atoms: O_17  and  C_33
    8  A    between atoms: C_31  and  N_37
                            x       y       z     vdW  Elec       q    Type
                         _______ _______ _______ _____ _____    ______ ____

>  <TORSDO>
F 8

$$$$
=
 OpenBabel10262422553D

 37 42  0  0  1  0  0  0  0  0999 V2000
  180.8100  182.1100  138.4620 C   0  0  0  0  0  2  0  0  0  0  0  0
  182.1550  178.0920  137.2540 N   0  0  0  0  0  0  0  0  0  0  0  0
  185.0720  179.0050  138.6310 C   0  0  0  0  0  2  0  0  0  0  0  0
  180.6930  180.0980  136.8710 C   0  0  2  0  0  3  0  0  0  0  0  0
  182.7440  177.3530  138.3590 C   0  0  1  0  0  3  0  0  0  0  0  0
  181.8850  179.4710  137.6220 C   0  0  1  0  0  3  0  0  0  0  0  0
  184.0860  176.7820  137.9700 C   0  0  0  0  0  0  0  0  0  0  0  0
  180.7550  179.7420  135.3870 C   0  0  0  0  0  2  0  0  0  0  0  0
  181.8390  179.4800  139.1580 C   0  0  1  0  0  3  0  0  0  0  0  0
  179.1180  180.3420  139.2140 C   0  0  0  0  0  2  0  0  0  0  0  0
  181.6950  176.2550  135.8740 O   0  0  0  0  0  0  0  0  0  0  0  0
  180.7950  178.2950  135.2100 N   0  0  0  0  0  2  0  0  0  0  0  0
  180.2150  179.0580  139.9230 S   0  0  0  0  0  0  0  0  0  0  0  0
  185.3450  177.6130  138.0760 C   0  0  0  0  0  2  0  0  0  0  0  0
  181.5710  177.4880  136.0940 C   0  0  0  0  0  0  0  0  0  0  0  0
  182.7920  178.3520  139.5400 C   0  0  2  0  0  3  0  0  0  0  0  0
  180.6620  181.6260  137.0140 C   0  0  0  0  0  2  0  0  0  0  0  0
  179.6190  181.7760  139.3630 C   0  0  0  0  0  2  0  0  0  0  0  0
  184.1780  178.9310  139.8660 C   0  0  1  0  0  3  0  0  0  0  0  0
  184.1230  175.5710  137.5270 N   0  0  0  0  0  0  0  0  0  0  0  0
  184.7920  178.1690  140.8770 O   0  0  0  0  0  0  0  0  0  0  0  0
  185.7400  178.9740  141.5500 C   0  0  2  0  0  3  0  0  0  0  0  0
  186.9130  178.1710  142.1120 C   0  0  0  0  0  2  0  0  0  0  0  0
  188.3170  178.1730  140.0760 C   0  0  0  0  0  1  0  0  0  0  0  0
  188.2200  178.6490  141.5090 C   0  0  0  0  0  2  0  0  0  0  0  0
  185.1440  179.7500  142.5530 O   0  0  0  0  0  0  0  0  0  0  0  0
  184.6930  179.2310  144.8010 C   0  0  0  0  0  2  0  0  0  0  0  0
  184.5100  178.8300  143.3900 C   0  0  1  0  0  3  0  0  0  0  0  0
  183.4950  179.4880  144.1110 O   0  0  0  0  0  0  0  0  0  0  0  0
  185.3400  174.9170  137.1090 C   0  0  0  0  0  2  0  0  0  0  0  0
  185.6490  172.9940  135.6960 O   0  0  0  0  0  0  0  0  0  0  0  0
  185.1110  173.4220  136.9250 C   0  0  2  0  0  3  0  0  0  0  0  0
  183.6170  173.0920  136.9960 C   0  0  0  0  0  2  0  0  0  0  0  0
  182.0790  171.2880  136.6950 O   0  0  0  0  0  1  0  0  0  0  0  0
  184.2120  171.0650  135.6420 C   0  0  0  0  0  2  0  0  0  0  0  0
  183.4330  171.5850  136.8470 C   0  0  1  0  0  3  0  0  0  0  0  0
  185.6470  171.5860  135.7170 C   0  0  0  0  0  2  0  0  0  0  0  0
  1 18  1  0  0  0  0
  2  5  1  0  0  0  0
  3 19  1  0  0  0  0
  4  8  1  6  0  0  0
  4 17  1  0  0  0  0
  4  6  1  0  0  0  0
  5  7  1  6  0  0  0
  5 16  1  0  0  0  0
  6  2  1  6  0  0  0
  6  9  1  0  0  0  0
  7 14  1  0  0  0  0
  9 16  1  0  0  0  0
  9 13  1  6  0  0  0
 10 18  1  0  0  0  0
 10 13  1  0  0  0  0
 11 15  2  0  0  0  0
 12  8  1  0  0  0  0
 12 15  1  0  0  0  0
 14  3  1  0  0  0  0
 15  2  1  0  0  0  0
 16 19  1  0  0  0  0
 17  1  1  0  0  0  0
 19 21  1  0  0  0  0
 20  7  2  0  0  0  0
 21 22  1  0  0  0  0
 22 23  1  0  0  0  0
 22 26  1  0  0  0  0
 24 25  1  0  0  0  0
 25 23  1  0  0  0  0
 26 28  1  0  0  0  0
 28 29  1  0  0  0  0
 28 27  1  0  0  0  0
 29 27  1  0  0  0  0
 30 20  1  0  0  0  0
 31 37  1  0  0  0  0
 31 32  1  0  0  0  0
 32 33  1  0  0  0  0
 32 30  1  0  0  0  0
 34 36  1  0  0  0  0
 35 37  1  0  0  0  0
 35 36  1  0  0  0  0
 36 33  1  0  0  0  0
M  END
>  <MODEL>
9

>  <REMARK>
 VINA RESULT:      -5.7      2.495      7.034
  Name = 
  8 active torsions:
  status: ('A' for Active; 'I' for Inactive)
    1  A    between atoms: O_1  and  C_33
    2  A    between atoms: O_1  and  C_36
    3  A    between atoms: C_5  and  C_23
    4  A    between atoms: C_5  and  C_33
    5  A    between atoms: C_6  and  C_31
    6  A    between atoms: O_17  and  C_26
    7  A    between atoms: O_17  and  C_33
    8  A    between atoms: C_31  and  N_37
                            x       y       z     vdW  Elec       q    Type
                         _______ _______ _______ _____ _____    ______ ____

>  <TORSDO>
F 8

$$$$
