=
 OpenBabel10262422143D

 43 48  0  0  1  0  0  0  0  0999 V2000
  188.4930  178.7810  137.9190 C   0  0  0  0  0  2  0  0  0  0  0  0
  188.0760  177.5270  138.6890 C   0  0  1  0  0  3  0  0  0  0  0  0
  187.5530  179.0120  136.7390 C   0  0  0  0  0  2  0  0  0  0  0  0
  188.0570  176.3030  137.7750 C   0  0  0  0  0  2  0  0  0  0  0  0
  187.1490  176.5430  136.5750 C   0  0  1  0  0  3  0  0  0  0  0  0
  187.5630  177.8030  135.8090 C   0  0  0  0  0  2  0  0  0  0  0  0
  190.8700  173.3420  135.5450 C   0  0  0  0  0  0  0  0  0  0  0  0
  185.8780  174.3040  136.0510 C   0  0  1  0  0  3  0  0  0  0  0  0
  188.5580  173.3300  136.2840 C   0  0  0  0  0  0  0  0  0  0  0  0
  190.6610  174.5610  134.8960 C   0  0  0  0  0  3  0  0  0  0  0  0
  192.1480  172.7210  135.4990 N   0  0  0  0  0  1  0  0  0  0  0  0
  188.3460  174.5640  135.6230 C   0  0  0  0  0  0  0  0  0  0  0  0
  189.8180  172.7260  136.2280 C   0  0  0  0  0  3  0  0  0  0  0  0
  189.4050  175.1700  134.9360 C   0  0  0  0  0  3  0  0  0  0  0  0
  187.0230  175.2800  135.6990 C   0  0  2  0  0  3  0  0  0  0  0  0
  186.2310  173.4590  137.2660 C   0  0  0  0  0  2  0  0  0  0  0  0
  187.4350  172.5770  136.9430 C   0  0  0  0  0  2  0  0  0  0  0  0
  184.5140  174.9620  136.2060 C   0  0  0  0  0  2  0  0  0  0  0  0
  183.9990  174.7790  137.6280 C   0  0  0  0  0  2  0  0  0  0  0  0
  184.1800  178.3750  138.5780 C   0  0  0  0  0  2  0  0  0  0  0  0
  183.1560  178.5050  139.7260 C   0  0  1  0  0  3  0  0  0  0  0  0
  182.7040  176.0490  139.2940 C   0  0  0  0  0  3  0  0  0  0  0  0
  183.7500  177.3620  137.5140 C   0  0  0  0  0  2  0  0  0  0  0  0
  183.4490  176.0540  138.1820 C   0  0  0  0  0  0  0  0  0  0  0  0
  182.1470  177.3420  139.8250 C   0  0  0  0  0  2  0  0  0  0  0  0
  185.1330  179.0050  140.5840 C   0  0  0  0  0  1  0  0  0  0  0  0
  183.8290  178.6540  140.9400 O   0  0  0  0  0  0  0  0  0  0  0  0
  188.9710  177.2860  139.8980 C   0  0  0  0  0  2  0  0  0  0  0  0
  188.6440  178.4610  141.2530 S   0  0  0  0  0  0  0  0  0  0  0  0
  188.1520  177.1170  142.3730 C   0  0  0  0  0  2  0  0  0  0  0  0
  189.0100  177.0860  143.5560 N   0  0  0  0  0  0  0  0  0  0  0  0
  188.6090  177.7560  144.7730 C   0  0  0  0  0  0  0  0  0  0  0  0
  189.4930  178.1460  145.5830 O   0  0  0  0  0  0  0  0  0  0  0  0
  187.1860  178.0020  145.1090 C   0  0  0  0  0  0  0  0  0  0  0  0
  184.9100  178.4580  144.3790 C   0  0  0  0  0  3  0  0  0  0  0  0
  185.4150  178.3510  146.7410 C   0  0  0  0  0  3  0  0  0  0  0  0
  184.4920  178.5320  145.7100 C   0  0  0  0  0  3  0  0  0  0  0  0
  186.7560  178.0910  146.4420 C   0  0  0  0  0  3  0  0  0  0  0  0
  186.2510  178.1970  144.0810 C   0  0  0  0  0  3  0  0  0  0  0  0
  191.1610  176.3750  144.5980 C   0  0  0  0  0  2  0  0  0  0  0  0
  191.5320  178.1210  142.9280 C   0  0  0  0  0  1  0  0  0  0  0  0
  190.0760  176.0730  143.5770 C   0  0  2  0  0  3  0  0  0  0  0  0
  191.4480  176.6180  143.1360 C   0  0  2  0  0  3  0  0  0  0  0  0
  1  2  1  0  0  0  0
  2 28  1  1  0  0  0
  3  1  1  0  0  0  0
  4  2  1  0  0  0  0
  5  6  1  6  0  0  0
  5  4  1  0  0  0  0
  6  3  1  0  0  0  0
  7 13  1  0  0  0  0
  8 18  1  1  0  0  0
  8 16  1  0  0  0  0
  9 17  1  0  0  0  0
 10 14  1  0  0  0  0
 10  7  2  0  0  0  0
 11  7  1  0  0  0  0
 12  9  1  0  0  0  0
 13  9  2  0  0  0  0
 14 12  2  0  0  0  0
 15 12  1  1  0  0  0
 15  8  1  0  0  0  0
 15  5  1  0  0  0  0
 17 16  1  0  0  0  0
 18 19  1  0  0  0  0
 19 24  1  0  0  0  0
 20 21  1  0  0  0  0
 21 25  1  0  0  0  0
 21 27  1  1  0  0  0
 22 25  1  0  0  0  0
 23 24  1  0  0  0  0
 23 20  1  0  0  0  0
 24 22  2  0  0  0  0
 26 27  1  0  0  0  0
 28 29  1  0  0  0  0
 29 30  1  0  0  0  0
 30 31  1  0  0  0  0
 31 32  1  0  0  0  0
 32 34  1  0  0  0  0
 32 33  2  0  0  0  0
 34 38  1  0  0  0  0
 35 37  2  0  0  0  0
 37 36  1  0  0  0  0
 38 36  2  0  0  0  0
 39 35  1  0  0  0  0
 39 34  2  0  0  0  0
 42 31  1  1  0  0  0
 42 40  1  0  0  0  0
 43 41  1  1  0  0  0
 43 42  1  0  0  0  0
 43 40  1  0  0  0  0
M  END
>  <MODEL>
1

>  <REMARK>
 VINA RESULT:      -8.1      0.000      0.000
  Name = 
  11 active torsions:
  status: ('A' for Active; 'I' for Inactive)
    1  A    between atoms: C_1  and  C_34
    2  A    between atoms: C_1  and  C_35
    3  A    between atoms: C_3  and  N_4
    4  A    between atoms: C_3  and  S_12
    5  A    between atoms: N_4  and  C_22
    6  A    between atoms: C_6  and  C_17
    7  A    between atoms: C_8  and  C_34
    8  A    between atoms: C_11  and  C_14
    9  A    between atoms: S_12  and  C_17
   10  A    between atoms: C_19  and  O_37
   11  A    between atoms: C_27  and  C_30
                            x       y       z     vdW  Elec       q    Type
                         _______ _______ _______ _____ _____    ______ ____

>  <TORSDO>
F 11

$$$$
=
 OpenBabel10262422143D

 43 48  0  0  1  0  0  0  0  0999 V2000
  187.0210  178.3230  137.2180 C   0  0  0  0  0  2  0  0  0  0  0  0
  187.0650  176.8200  136.9390 C   0  0  1  0  0  3  0  0  0  0  0  0
  188.4300  178.9100  137.1660 C   0  0  0  0  0  2  0  0  0  0  0  0
  187.9770  176.1030  137.9320 C   0  0  0  0  0  2  0  0  0  0  0  0
  189.3750  176.7100  137.9110 C   0  0  1  0  0  3  0  0  0  0  0  0
  189.3310  178.2170  138.1830 C   0  0  0  0  0  2  0  0  0  0  0  0
  193.5930  174.4560  136.4000 C   0  0  0  0  0  0  0  0  0  0  0  0
  190.8330  176.6540  140.0950 C   0  0  1  0  0  3  0  0  0  0  0  0
  192.8040  175.9470  138.1440 C   0  0  0  0  0  0  0  0  0  0  0  0
  192.3100  173.9200  136.2700 C   0  0  0  0  0  3  0  0  0  0  0  0
  194.6520  173.9710  135.5840 N   0  0  0  0  0  1  0  0  0  0  0  0
  191.5040  175.4010  138.0160 C   0  0  0  0  0  0  0  0  0  0  0  0
  193.8390  175.4590  137.3410 C   0  0  0  0  0  3  0  0  0  0  0  0
  191.2690  174.3930  137.0740 C   0  0  0  0  0  3  0  0  0  0  0  0
  190.3450  175.9300  138.8200 C   0  0  2  0  0  3  0  0  0  0  0  0
  191.9170  177.6720  139.7680 C   0  0  0  0  0  2  0  0  0  0  0  0
  193.1440  176.9520  139.2120 C   0  0  0  0  0  2  0  0  0  0  0  0
  189.7230  177.2710  140.9340 C   0  0  0  0  0  2  0  0  0  0  0  0
  189.3600  176.3460  142.0890 C   0  0  0  0  0  2  0  0  0  0  0  0
  191.2850  177.7880  144.9320 C   0  0  0  0  0  2  0  0  0  0  0  0
  190.3180  177.6700  146.1300 C   0  0  1  0  0  3  0  0  0  0  0  0
  188.6960  176.7160  144.4320 C   0  0  0  0  0  3  0  0  0  0  0  0
  190.5610  178.0720  143.6140 C   0  0  0  0  0  2  0  0  0  0  0  0
  189.4990  177.0340  143.4090 C   0  0  0  0  0  0  0  0  0  0  0  0
  188.8430  177.4330  145.7460 C   0  0  0  0  0  2  0  0  0  0  0  0
  191.9100  176.1530  146.3840 C   0  0  0  0  0  1  0  0  0  0  0  0
  190.7540  176.6570  146.9850 O   0  0  0  0  0  0  0  0  0  0  0  0
  185.6700  176.2070  136.9470 C   0  0  0  0  0  2  0  0  0  0  0  0
  184.3580  177.4550  136.7250 S   0  0  0  0  0  0  0  0  0  0  0  0
  183.6570  177.0880  138.3620 C   0  0  0  0  0  2  0  0  0  0  0  0
  182.7410  178.1460  138.7830 N   0  0  0  0  0  0  0  0  0  0  0  0
  182.7740  178.6490  140.1390 C   0  0  0  0  0  0  0  0  0  0  0  0
  181.7340  179.1630  140.6330 O   0  0  0  0  0  0  0  0  0  0  0  0
  183.9950  178.5850  140.9780 C   0  0  0  0  0  0  0  0  0  0  0  0
  185.0290  178.1710  143.1420 C   0  0  0  0  0  3  0  0  0  0  0  0
  186.3890  178.8980  141.2780 C   0  0  0  0  0  3  0  0  0  0  0  0
  186.2780  178.5130  142.6160 C   0  0  0  0  0  3  0  0  0  0  0  0
  185.2530  178.9380  140.4650 C   0  0  0  0  0  3  0  0  0  0  0  0
  183.8930  178.2100  142.3270 C   0  0  0  0  0  3  0  0  0  0  0  0
  180.7270  179.4740  138.1520 C   0  0  0  0  0  2  0  0  0  0  0  0
  180.2630  177.0770  138.0480 C   0  0  0  0  0  1  0  0  0  0  0  0
  182.0710  178.9080  137.7200 C   0  0  2  0  0  3  0  0  0  0  0  0
  180.7540  178.2680  137.2430 C   0  0  2  0  0  3  0  0  0  0  0  0
  2 28  1  1  0  0  0
  2  1  1  0  0  0  0
  2  4  1  0  0  0  0
  3  1  1  0  0  0  0
  3  6  1  0  0  0  0
  5  4  1  1  0  0  0
  5  6  1  0  0  0  0
  5 15  1  0  0  0  0
  7 13  1  0  0  0  0
  8 18  1  6  0  0  0
  9 17  1  0  0  0  0
 10  7  2  0  0  0  0
 10 14  1  0  0  0  0
 11  7  1  0  0  0  0
 12  9  1  0  0  0  0
 13  9  2  0  0  0  0
 14 12  2  0  0  0  0
 15 12  1  6  0  0  0
 15  8  1  0  0  0  0
 16  8  1  0  0  0  0
 17 16  1  0  0  0  0
 18 19  1  0  0  0  0
 19 24  1  0  0  0  0
 20 21  1  0  0  0  0
 21 27  1  1  0  0  0
 22 25  1  0  0  0  0
 23 20  1  0  0  0  0
 24 23  1  0  0  0  0
 24 22  2  0  0  0  0
 25 21  1  0  0  0  0
 26 27  1  0  0  0  0
 29 28  1  0  0  0  0
 29 30  1  0  0  0  0
 30 31  1  0  0  0  0
 31 32  1  0  0  0  0
 32 33  2  0  0  0  0
 32 34  1  0  0  0  0
 34 39  1  0  0  0  0
 36 37  2  0  0  0  0
 37 35  1  0  0  0  0
 38 34  2  0  0  0  0
 38 36  1  0  0  0  0
 39 35  2  0  0  0  0
 42 40  1  0  0  0  0
 42 31  1  1  0  0  0
 43 42  1  0  0  0  0
 43 41  1  1  0  0  0
 43 40  1  0  0  0  0
M  END
>  <MODEL>
2

>  <REMARK>
 VINA RESULT:      -7.9      2.591      6.915
  Name = 
  11 active torsions:
  status: ('A' for Active; 'I' for Inactive)
    1  A    between atoms: C_1  and  C_34
    2  A    between atoms: C_1  and  C_35
    3  A    between atoms: C_3  and  N_4
    4  A    between atoms: C_3  and  S_12
    5  A    between atoms: N_4  and  C_22
    6  A    between atoms: C_6  and  C_17
    7  A    between atoms: C_8  and  C_34
    8  A    between atoms: C_11  and  C_14
    9  A    between atoms: S_12  and  C_17
   10  A    between atoms: C_19  and  O_37
   11  A    between atoms: C_27  and  C_30
                            x       y       z     vdW  Elec       q    Type
                         _______ _______ _______ _____ _____    ______ ____

>  <TORSDO>
F 11

$$$$
=
 OpenBabel10262422143D

 43 48  0  0  1  0  0  0  0  0999 V2000
  185.3650  178.7100  144.4460 C   0  0  0  0  0  2  0  0  0  0  0  0
  185.8850  177.9390  143.2320 C   0  0  1  0  0  3  0  0  0  0  0  0
  183.8420  178.6170  144.5170 C   0  0  0  0  0  2  0  0  0  0  0  0
  185.2590  178.4610  141.9410 C   0  0  0  0  0  2  0  0  0  0  0  0
  183.7380  178.4050  142.0210 C   0  0  1  0  0  3  0  0  0  0  0  0
  183.2170  179.1710  143.2410 C   0  0  0  0  0  2  0  0  0  0  0  0
  185.4030  177.1440  137.4620 C   0  0  0  0  0  0  0  0  0  0  0  0
  181.5720  178.5390  140.5400 C   0  0  1  0  0  3  0  0  0  0  0  0
  183.3420  177.1900  138.7410 C   0  0  0  0  0  0  0  0  0  0  0  0
  185.9160  178.1840  138.2410 C   0  0  0  0  0  3  0  0  0  0  0  0
  186.1850  176.5910  136.4100 N   0  0  0  0  0  1  0  0  0  0  0  0
  183.8600  178.2470  139.5270 C   0  0  0  0  0  0  0  0  0  0  0  0
  184.1170  176.6570  137.7060 C   0  0  0  0  0  3  0  0  0  0  0  0
  185.1480  178.7320  139.2710 C   0  0  0  0  0  3  0  0  0  0  0  0
  183.0850  178.8180  140.6860 C   0  0  2  0  0  3  0  0  0  0  0  0
  181.3110  177.0700  140.2430 C   0  0  0  0  0  2  0  0  0  0  0  0
  181.9270  176.7020  138.8950 C   0  0  0  0  0  2  0  0  0  0  0  0
  180.7250  179.0330  141.7030 C   0  0  0  0  0  2  0  0  0  0  0  0
  179.2840  179.2400  141.2550 C   0  0  0  0  0  2  0  0  0  0  0  0
  179.9250  180.1980  137.7130 C   0  0  0  0  0  2  0  0  0  0  0  0
  179.9280  181.7410  137.7430 C   0  0  1  0  0  3  0  0  0  0  0  0
  179.3920  181.4660  140.2050 C   0  0  0  0  0  3  0  0  0  0  0  0
  178.9310  179.5890  138.7050 C   0  0  0  0  0  2  0  0  0  0  0  0
  179.2010  180.1480  140.0700 C   0  0  0  0  0  0  0  0  0  0  0  0
  179.2870  182.3630  139.0020 C   0  0  0  0  0  2  0  0  0  0  0  0
  181.1020  183.5860  137.4030 C   0  0  0  0  0  1  0  0  0  0  0  0
  181.2350  182.2100  137.5950 O   0  0  0  0  0  0  0  0  0  0  0  0
  187.4060  177.9790  143.1510 C   0  0  0  0  0  2  0  0  0  0  0  0
  188.0040  178.4610  141.4970 S   0  0  0  0  0  0  0  0  0  0  0  0
  188.7260  176.8150  141.2200 C   0  0  0  0  0  2  0  0  0  0  0  0
  190.0320  176.9240  140.5720 N   0  0  0  0  0  0  0  0  0  0  0  0
  191.1870  177.3730  141.3160 C   0  0  0  0  0  0  0  0  0  0  0  0
  192.1430  177.9220  140.7030 O   0  0  0  0  0  0  0  0  0  0  0  0
  191.2940  177.2110  142.7860 C   0  0  0  0  0  0  0  0  0  0  0  0
  191.2770  178.2010  145.0090 C   0  0  0  0  0  3  0  0  0  0  0  0
  191.7050  175.8350  144.7500 C   0  0  0  0  0  3  0  0  0  0  0  0
  191.5510  176.9520  145.5730 C   0  0  0  0  0  3  0  0  0  0  0  0
  191.5810  175.9650  143.3640 C   0  0  0  0  0  3  0  0  0  0  0  0
  191.1520  178.3290  143.6220 C   0  0  0  0  0  3  0  0  0  0  0  0
  191.2450  176.8730  138.3940 C   0  0  0  0  0  2  0  0  0  0  0  0
  189.4550  178.5380  138.3600 C   0  0  0  0  0  1  0  0  0  0  0  0
  190.1950  176.2300  139.2860 C   0  0  2  0  0  3  0  0  0  0  0  0
  189.7840  177.0820  138.0710 C   0  0  2  0  0  3  0  0  0  0  0  0
  1  3  1  0  0  0  0
  2 28  1  6  0  0  0
  2  1  1  0  0  0  0
  4  2  1  0  0  0  0
  5  4  1  6  0  0  0
  5  6  1  0  0  0  0
  6  3  1  0  0  0  0
  7 13  2  0  0  0  0
  7 10  1  0  0  0  0
  8 15  1  0  0  0  0
  8 18  1  1  0  0  0
  9 17  1  0  0  0  0
  9 12  2  0  0  0  0
 10 14  2  0  0  0  0
 11  7  1  0  0  0  0
 13  9  1  0  0  0  0
 14 12  1  0  0  0  0
 15 12  1  6  0  0  0
 15  5  1  0  0  0  0
 16  8  1  0  0  0  0
 17 16  1  0  0  0  0
 19 18  1  0  0  0  0
 20 21  1  0  0  0  0
 20 23  1  0  0  0  0
 21 27  1  1  0  0  0
 21 25  1  0  0  0  0
 23 24  1  0  0  0  0
 24 22  2  0  0  0  0
 24 19  1  0  0  0  0
 25 22  1  0  0  0  0
 26 27  1  0  0  0  0
 29 28  1  0  0  0  0
 30 29  1  0  0  0  0
 31 30  1  0  0  0  0
 31 32  1  0  0  0  0
 32 34  1  0  0  0  0
 33 32  2  0  0  0  0
 34 38  2  0  0  0  0
 34 39  1  0  0  0  0
 35 37  1  0  0  0  0
 36 37  2  0  0  0  0
 38 36  1  0  0  0  0
 39 35  2  0  0  0  0
 40 42  1  0  0  0  0
 42 31  1  1  0  0  0
 43 41  1  1  0  0  0
 43 40  1  0  0  0  0
 43 42  1  0  0  0  0
M  END
>  <MODEL>
3

>  <REMARK>
 VINA RESULT:      -7.7      2.928      6.197
  Name = 
  11 active torsions:
  status: ('A' for Active; 'I' for Inactive)
    1  A    between atoms: C_1  and  C_34
    2  A    between atoms: C_1  and  C_35
    3  A    between atoms: C_3  and  N_4
    4  A    between atoms: C_3  and  S_12
    5  A    between atoms: N_4  and  C_22
    6  A    between atoms: C_6  and  C_17
    7  A    between atoms: C_8  and  C_34
    8  A    between atoms: C_11  and  C_14
    9  A    between atoms: S_12  and  C_17
   10  A    between atoms: C_19  and  O_37
   11  A    between atoms: C_27  and  C_30
                            x       y       z     vdW  Elec       q    Type
                         _______ _______ _______ _____ _____    ______ ____

>  <TORSDO>
F 11

$$$$
=
 OpenBabel10262422143D

 43 48  0  0  1  0  0  0  0  0999 V2000
  188.7150  178.1760  139.9610 C   0  0  0  0  0  2  0  0  0  0  0  0
  189.3860  176.8120  140.1360 C   0  0  1  0  0  3  0  0  0  0  0  0
  187.9730  178.2300  138.6280 C   0  0  0  0  0  2  0  0  0  0  0  0
  190.3410  176.5170  138.9820 C   0  0  0  0  0  2  0  0  0  0  0  0
  189.6130  176.6070  137.6460 C   0  0  1  0  0  3  0  0  0  0  0  0
  188.9350  177.9700  137.4740 C   0  0  0  0  0  2  0  0  0  0  0  0
  194.2060  174.6460  138.0950 C   0  0  0  0  0  0  0  0  0  0  0  0
  189.9110  175.2750  135.4020 C   0  0  1  0  0  3  0  0  0  0  0  0
  192.1300  174.2630  136.8980 C   0  0  0  0  0  0  0  0  0  0  0  0
  193.9050  176.0060  138.1930 C   0  0  0  0  0  3  0  0  0  0  0  0
  195.4170  174.1440  138.6480 N   0  0  0  0  0  1  0  0  0  0  0  0
  191.8270  175.6430  136.9940 C   0  0  0  0  0  0  0  0  0  0  0  0
  193.3260  173.7810  137.4400 C   0  0  0  0  0  3  0  0  0  0  0  0
  192.7190  176.5020  137.6470 C   0  0  0  0  0  3  0  0  0  0  0  0
  190.5280  176.2010  136.4740 C   0  0  2  0  0  3  0  0  0  0  0  0
  189.8510  173.8350  135.8890 C   0  0  0  0  0  2  0  0  0  0  0  0
  191.2680  173.3110  136.1150 C   0  0  0  0  0  2  0  0  0  0  0  0
  188.5640  175.7390  134.8670 C   0  0  0  0  0  2  0  0  0  0  0  0
  187.5180  174.6470  135.0500 C   0  0  0  0  0  2  0  0  0  0  0  0
  184.7550  173.9200  137.4390 C   0  0  0  0  0  2  0  0  0  0  0  0
  184.0450  175.2810  137.6060 C   0  0  1  0  0  3  0  0  0  0  0  0
  185.8470  176.1530  136.0520 C   0  0  0  0  0  3  0  0  0  0  0  0
  186.2680  174.0620  137.2500 C   0  0  0  0  0  2  0  0  0  0  0  0
  186.5300  175.0040  136.1130 C   0  0  0  0  0  0  0  0  0  0  0  0
  184.8690  176.4990  137.1410 C   0  0  0  0  0  2  0  0  0  0  0  0
  182.6070  173.9070  136.6340 C   0  0  0  0  0  1  0  0  0  0  0  0
  182.8190  175.2540  136.9380 O   0  0  0  0  0  0  0  0  0  0  0  0
  190.1070  176.7090  141.4750 C   0  0  0  0  0  2  0  0  0  0  0  0
  189.0540  175.9940  142.7810 S   0  0  0  0  0  0  0  0  0  0  0  0
  188.8670  177.6110  143.5900 C   0  0  0  0  0  2  0  0  0  0  0  0
  188.9060  177.4710  145.0450 N   0  0  0  0  0  0  0  0  0  0  0  0
  187.8410  178.0070  145.8630 C   0  0  0  0  0  0  0  0  0  0  0  0
  188.0820  178.3250  147.0600 O   0  0  0  0  0  0  0  0  0  0  0  0
  186.4640  178.1950  145.3480 C   0  0  0  0  0  0  0  0  0  0  0  0
  184.9130  178.2020  143.4720 C   0  0  0  0  0  3  0  0  0  0  0  0
  184.1330  178.8080  145.6800 C   0  0  0  0  0  3  0  0  0  0  0  0
  183.8790  178.6030  144.3220 C   0  0  0  0  0  3  0  0  0  0  0  0
  185.4190  178.6090  146.1880 C   0  0  0  0  0  3  0  0  0  0  0  0
  186.1990  178.0020  143.9820 C   0  0  0  0  0  3  0  0  0  0  0  0
  190.6940  177.0280  146.7260 C   0  0  0  0  0  2  0  0  0  0  0  0
  191.5890  178.2210  144.7900 C   0  0  0  0  0  1  0  0  0  0  0  0
  189.8430  176.4790  145.5930 C   0  0  2  0  0  3  0  0  0  0  0  0
  191.3220  176.8410  145.3660 C   0  0  2  0  0  3  0  0  0  0  0  0
  1  2  1  0  0  0  0
  2 28  1  1  0  0  0
  3  1  1  0  0  0  0
  4  2  1  0  0  0  0
  5  6  1  6  0  0  0
  5  4  1  0  0  0  0
  6  3  1  0  0  0  0
  7 10  1  0  0  0  0
  7 11  1  0  0  0  0
  8 18  1  1  0  0  0
  8 16  1  0  0  0  0
  8 15  1  0  0  0  0
  9 12  2  0  0  0  0
  9 13  1  0  0  0  0
 12 14  1  0  0  0  0
 13  7  2  0  0  0  0
 14 10  2  0  0  0  0
 15 12  1  1  0  0  0
 15  5  1  0  0  0  0
 16 17  1  0  0  0  0
 17  9  1  0  0  0  0
 18 19  1  0  0  0  0
 19 24  1  0  0  0  0
 20 21  1  0  0  0  0
 21 27  1  6  0  0  0
 22 24  2  0  0  0  0
 22 25  1  0  0  0  0
 23 20  1  0  0  0  0
 24 23  1  0  0  0  0
 25 21  1  0  0  0  0
 26 27  1  0  0  0  0
 28 29  1  0  0  0  0
 29 30  1  0  0  0  0
 30 31  1  0  0  0  0
 31 32  1  0  0  0  0
 32 33  2  0  0  0  0
 34 32  1  0  0  0  0
 34 38  1  0  0  0  0
 35 39  1  0  0  0  0
 35 37  2  0  0  0  0
 36 38  2  0  0  0  0
 37 36  1  0  0  0  0
 39 34  2  0  0  0  0
 42 31  1  6  0  0  0
 42 40  1  0  0  0  0
 43 41  1  6  0  0  0
 43 42  1  0  0  0  0
 43 40  1  0  0  0  0
M  END
>  <MODEL>
4

>  <REMARK>
 VINA RESULT:      -7.6      2.134      3.388
  Name = 
  11 active torsions:
  status: ('A' for Active; 'I' for Inactive)
    1  A    between atoms: C_1  and  C_34
    2  A    between atoms: C_1  and  C_35
    3  A    between atoms: C_3  and  N_4
    4  A    between atoms: C_3  and  S_12
    5  A    between atoms: N_4  and  C_22
    6  A    between atoms: C_6  and  C_17
    7  A    between atoms: C_8  and  C_34
    8  A    between atoms: C_11  and  C_14
    9  A    between atoms: S_12  and  C_17
   10  A    between atoms: C_19  and  O_37
   11  A    between atoms: C_27  and  C_30
                            x       y       z     vdW  Elec       q    Type
                         _______ _______ _______ _____ _____    ______ ____

>  <TORSDO>
F 11

$$$$
=
 OpenBabel10262422143D

 43 48  0  0  1  0  0  0  0  0999 V2000
  191.8060  177.2840  140.6290 C   0  0  0  0  0  2  0  0  0  0  0  0
  190.6940  177.6570  139.6480 C   0  0  1  0  0  3  0  0  0  0  0  0
  193.1630  177.3350  139.9310 C   0  0  0  0  0  2  0  0  0  0  0  0
  190.7010  176.7340  138.4320 C   0  0  0  0  0  2  0  0  0  0  0  0
  192.0660  176.7520  137.7530 C   0  0  1  0  0  3  0  0  0  0  0  0
  193.1800  176.3850  138.7370 C   0  0  0  0  0  2  0  0  0  0  0  0
  196.1480  175.3250  135.2130 C   0  0  0  0  0  0  0  0  0  0  0  0
  191.2520  174.6010  136.4820 C   0  0  1  0  0  3  0  0  0  0  0  0
  194.0770  174.3990  136.0760 C   0  0  0  0  0  0  0  0  0  0  0  0
  195.5550  176.5870  135.1290 C   0  0  0  0  0  3  0  0  0  0  0  0
  197.5010  175.1470  134.8130 N   0  0  0  0  0  1  0  0  0  0  0  0
  193.4750  175.6770  135.9870 C   0  0  0  0  0  0  0  0  0  0  0  0
  195.4070  174.2340  135.6760 C   0  0  0  0  0  3  0  0  0  0  0  0
  194.2240  176.7620  135.5170 C   0  0  0  0  0  3  0  0  0  0  0  0
  192.0640  175.9170  136.4570 C   0  0  2  0  0  3  0  0  0  0  0  0
  192.0060  173.5050  137.2190 C   0  0  0  0  0  2  0  0  0  0  0  0
  193.2950  173.1750  136.4680 C   0  0  0  0  0  2  0  0  0  0  0  0
  189.8300  174.7490  137.0020 C   0  0  0  0  0  2  0  0  0  0  0  0
  188.8520  174.8630  135.8400 C   0  0  0  0  0  2  0  0  0  0  0  0
  188.1660  178.4380  136.6280 C   0  0  0  0  0  2  0  0  0  0  0  0
  186.6780  178.4450  137.0420 C   0  0  1  0  0  3  0  0  0  0  0  0
  186.7550  175.9680  136.5110 C   0  0  0  0  0  3  0  0  0  0  0  0
  188.4690  177.4140  135.5320 C   0  0  0  0  0  2  0  0  0  0  0  0
  187.9770  176.0680  135.9730 C   0  0  0  0  0  0  0  0  0  0  0  0
  185.8850  177.1900  136.6200 C   0  0  0  0  0  2  0  0  0  0  0  0
  185.2160  178.5010  138.7020 C   0  0  0  0  0  1  0  0  0  0  0  0
  186.5780  178.6280  138.4230 O   0  0  0  0  0  0  0  0  0  0  0  0
  189.3270  177.6540  140.3220 C   0  0  0  0  0  2  0  0  0  0  0  0
  189.2610  176.5370  141.7610 S   0  0  0  0  0  0  0  0  0  0  0  0
  188.8410  177.9100  142.8760 C   0  0  0  0  0  2  0  0  0  0  0  0
  189.1310  177.5580  144.2650 N   0  0  0  0  0  0  0  0  0  0  0  0
  188.2220  177.9390  145.3240 C   0  0  0  0  0  0  0  0  0  0  0  0
  188.6640  178.0830  146.4960 O   0  0  0  0  0  0  0  0  0  0  0  0
  186.7760  178.1640  145.0840 C   0  0  0  0  0  0  0  0  0  0  0  0
  184.5550  178.6280  145.9630 C   0  0  0  0  0  3  0  0  0  0  0  0
  184.8550  178.2530  143.5930 C   0  0  0  0  0  3  0  0  0  0  0  0
  184.0210  178.5370  144.6760 C   0  0  0  0  0  3  0  0  0  0  0  0
  186.2250  178.0640  143.7970 C   0  0  0  0  0  3  0  0  0  0  0  0
  185.9260  178.4390  146.1660 C   0  0  0  0  0  3  0  0  0  0  0  0
  190.9610  176.7530  145.7540 C   0  0  0  0  0  2  0  0  0  0  0  0
  191.7420  178.5600  144.3060 C   0  0  0  0  0  1  0  0  0  0  0  0
  190.1490  176.5220  144.4900 C   0  0  2  0  0  3  0  0  0  0  0  0
  191.5920  177.0520  144.4150 C   0  0  2  0  0  3  0  0  0  0  0  0
  2 28  1  1  0  0  0
  2  1  1  0  0  0  0
  3  1  1  0  0  0  0
  4  2  1  0  0  0  0
  5  4  1  1  0  0  0
  5  6  1  0  0  0  0
  6  3  1  0  0  0  0
  7 13  1  0  0  0  0
  8 18  1  1  0  0  0
  8 16  1  0  0  0  0
  9 17  1  0  0  0  0
 10  7  2  0  0  0  0
 10 14  1  0  0  0  0
 11  7  1  0  0  0  0
 12  9  1  0  0  0  0
 13  9  2  0  0  0  0
 14 12  2  0  0  0  0
 15 12  1  1  0  0  0
 15  8  1  0  0  0  0
 15  5  1  0  0  0  0
 17 16  1  0  0  0  0
 19 24  1  0  0  0  0
 19 18  1  0  0  0  0
 20 21  1  0  0  0  0
 21 27  1  1  0  0  0
 22 25  1  0  0  0  0
 23 24  1  0  0  0  0
 23 20  1  0  0  0  0
 24 22  2  0  0  0  0
 25 21  1  0  0  0  0
 27 26  1  0  0  0  0
 28 29  1  0  0  0  0
 29 30  1  0  0  0  0
 30 31  1  0  0  0  0
 31 32  1  0  0  0  0
 32 33  2  0  0  0  0
 34 32  1  0  0  0  0
 34 39  1  0  0  0  0
 35 39  2  0  0  0  0
 36 38  1  0  0  0  0
 36 37  2  0  0  0  0
 37 35  1  0  0  0  0
 38 34  2  0  0  0  0
 42 31  1  1  0  0  0
 42 40  1  0  0  0  0
 43 41  1  1  0  0  0
 43 42  1  0  0  0  0
 43 40  1  0  0  0  0
M  END
>  <MODEL>
5

>  <REMARK>
 VINA RESULT:      -7.5      2.549      4.150
  Name = 
  11 active torsions:
  status: ('A' for Active; 'I' for Inactive)
    1  A    between atoms: C_1  and  C_34
    2  A    between atoms: C_1  and  C_35
    3  A    between atoms: C_3  and  N_4
    4  A    between atoms: C_3  and  S_12
    5  A    between atoms: N_4  and  C_22
    6  A    between atoms: C_6  and  C_17
    7  A    between atoms: C_8  and  C_34
    8  A    between atoms: C_11  and  C_14
    9  A    between atoms: S_12  and  C_17
   10  A    between atoms: C_19  and  O_37
   11  A    between atoms: C_27  and  C_30
                            x       y       z     vdW  Elec       q    Type
                         _______ _______ _______ _____ _____    ______ ____

>  <TORSDO>
F 11

$$$$
=
 OpenBabel10262422143D

 43 48  0  0  1  0  0  0  0  0999 V2000
  187.0440  178.2320  136.8270 C   0  0  0  0  0  2  0  0  0  0  0  0
  187.0230  176.7070  136.7130 C   0  0  1  0  0  3  0  0  0  0  0  0
  188.4770  178.7480  136.7320 C   0  0  0  0  0  2  0  0  0  0  0  0
  187.8930  176.0640  137.7910 C   0  0  0  0  0  2  0  0  0  0  0  0
  189.3170  176.6050  137.7240 C   0  0  1  0  0  3  0  0  0  0  0  0
  189.3370  178.1320  137.8310 C   0  0  0  0  0  2  0  0  0  0  0  0
  193.8580  174.7550  136.6730 C   0  0  0  0  0  0  0  0  0  0  0  0
  190.5190  176.6180  140.0600 C   0  0  1  0  0  3  0  0  0  0  0  0
  192.7510  176.1290  138.3370 C   0  0  0  0  0  0  0  0  0  0  0  0
  192.6500  174.1150  136.3890 C   0  0  0  0  0  3  0  0  0  0  0  0
  195.0410  174.3810  135.9760 N   0  0  0  0  0  1  0  0  0  0  0  0
  191.5270  175.4780  138.0530 C   0  0  0  0  0  0  0  0  0  0  0  0
  193.9090  175.7510  137.6510 C   0  0  0  0  0  3  0  0  0  0  0  0
  191.4880  174.4770  137.0750 C   0  0  0  0  0  3  0  0  0  0  0  0
  190.2430  175.8870  138.7270 C   0  0  2  0  0  3  0  0  0  0  0  0
  191.5390  177.7310  139.8740 C   0  0  0  0  0  2  0  0  0  0  0  0
  192.8790  177.1330  139.4510 C   0  0  0  0  0  2  0  0  0  0  0  0
  189.2720  177.1170  140.7750 C   0  0  0  0  0  2  0  0  0  0  0  0
  189.6570  178.0430  141.9220 C   0  0  0  0  0  2  0  0  0  0  0  0
  186.8370  177.1330  144.1780 C   0  0  0  0  0  2  0  0  0  0  0  0
  187.3800  177.4410  145.5900 C   0  0  1  0  0  3  0  0  0  0  0  0
  189.5170  178.0700  144.3810 C   0  0  0  0  0  3  0  0  0  0  0  0
  187.9210  176.6180  143.2270 C   0  0  0  0  0  2  0  0  0  0  0  0
  189.0610  177.5930  143.2170 C   0  0  0  0  0  0  0  0  0  0  0  0
  188.9140  177.5900  145.6730 C   0  0  0  0  0  2  0  0  0  0  0  0
  185.6530  178.7870  145.2640 C   0  0  0  0  0  1  0  0  0  0  0  0
  186.7640  178.5920  146.0870 O   0  0  0  0  0  0  0  0  0  0  0  0
  185.6020  176.1590  136.7670 C   0  0  0  0  0  2  0  0  0  0  0  0
  184.3430  177.4730  136.6560 S   0  0  0  0  0  0  0  0  0  0  0  0
  183.9640  177.3340  138.4280 C   0  0  0  0  0  2  0  0  0  0  0  0
  183.5460  178.6250  138.9730 N   0  0  0  0  0  0  0  0  0  0  0  0
  182.1430  178.9290  139.1460 C   0  0  0  0  0  0  0  0  0  0  0  0
  181.7650  180.1320  139.1350 O   0  0  0  0  0  0  0  0  0  0  0  0
  181.1210  177.8720  139.3400 C   0  0  0  0  0  0  0  0  0  0  0  0
  179.5740  176.2550  138.3850 C   0  0  0  0  0  3  0  0  0  0  0  0
  179.6830  176.5420  140.7840 C   0  0  0  0  0  3  0  0  0  0  0  0
  179.1380  175.9070  139.6660 C   0  0  0  0  0  3  0  0  0  0  0  0
  180.6660  177.5220  140.6210 C   0  0  0  0  0  3  0  0  0  0  0  0
  180.5580  177.2340  138.2230 C   0  0  0  0  0  3  0  0  0  0  0  0
  185.7400  178.5850  140.1570 C   0  0  0  0  0  2  0  0  0  0  0  0
  183.9310  177.8780  141.6410 C   0  0  0  0  0  1  0  0  0  0  0  0
  184.5730  179.4220  139.6580 C   0  0  2  0  0  3  0  0  0  0  0  0
  184.7190  179.0820  141.1530 C   0  0  2  0  0  3  0  0  0  0  0  0
  2 28  1  1  0  0  0
  2  1  1  0  0  0  0
  2  4  1  0  0  0  0
  3  1  1  0  0  0  0
  3  6  1  0  0  0  0
  5  4  1  1  0  0  0
  5  6  1  0  0  0  0
  5 15  1  0  0  0  0
  7 13  1  0  0  0  0
  8 18  1  6  0  0  0
  9 17  1  0  0  0  0
 10  7  2  0  0  0  0
 10 14  1  0  0  0  0
 11  7  1  0  0  0  0
 12  9  1  0  0  0  0
 13  9  2  0  0  0  0
 14 12  2  0  0  0  0
 15 12  1  6  0  0  0
 15  8  1  0  0  0  0
 16  8  1  0  0  0  0
 17 16  1  0  0  0  0
 18 19  1  0  0  0  0
 19 24  1  0  0  0  0
 20 21  1  0  0  0  0
 21 25  1  0  0  0  0
 21 27  1  6  0  0  0
 22 25  1  0  0  0  0
 23 20  1  0  0  0  0
 24 23  1  0  0  0  0
 24 22  2  0  0  0  0
 26 27  1  0  0  0  0
 29 28  1  0  0  0  0
 29 30  1  0  0  0  0
 30 31  1  0  0  0  0
 31 32  1  0  0  0  0
 32 34  1  0  0  0  0
 33 32  2  0  0  0  0
 34 38  1  0  0  0  0
 35 37  2  0  0  0  0
 37 36  1  0  0  0  0
 38 36  2  0  0  0  0
 39 35  1  0  0  0  0
 39 34  2  0  0  0  0
 40 43  1  0  0  0  0
 42 31  1  6  0  0  0
 42 40  1  0  0  0  0
 42 43  1  0  0  0  0
 43 41  1  6  0  0  0
M  END
>  <MODEL>
6

>  <REMARK>
 VINA RESULT:      -7.5      2.591      6.494
  Name = 
  11 active torsions:
  status: ('A' for Active; 'I' for Inactive)
    1  A    between atoms: C_1  and  C_34
    2  A    between atoms: C_1  and  C_35
    3  A    between atoms: C_3  and  N_4
    4  A    between atoms: C_3  and  S_12
    5  A    between atoms: N_4  and  C_22
    6  A    between atoms: C_6  and  C_17
    7  A    between atoms: C_8  and  C_34
    8  A    between atoms: C_11  and  C_14
    9  A    between atoms: S_12  and  C_17
   10  A    between atoms: C_19  and  O_37
   11  A    between atoms: C_27  and  C_30
                            x       y       z     vdW  Elec       q    Type
                         _______ _______ _______ _____ _____    ______ ____

>  <TORSDO>
F 11

$$$$
=
 OpenBabel10262422143D

 43 48  0  0  1  0  0  0  0  0999 V2000
  186.8270  178.1610  136.9980 C   0  0  0  0  0  2  0  0  0  0  0  0
  186.9580  176.6530  136.7790 C   0  0  1  0  0  3  0  0  0  0  0  0
  188.2070  178.8150  137.0000 C   0  0  0  0  0  2  0  0  0  0  0  0
  187.8470  176.0180  137.8450 C   0  0  0  0  0  2  0  0  0  0  0  0
  189.2140  176.6930  137.8760 C   0  0  1  0  0  3  0  0  0  0  0  0
  189.0820  178.2040  138.0890 C   0  0  0  0  0  2  0  0  0  0  0  0
  193.6980  174.7690  136.7160 C   0  0  0  0  0  0  0  0  0  0  0  0
  190.4990  176.7600  140.1670 C   0  0  1  0  0  3  0  0  0  0  0  0
  192.6630  176.2010  138.3800 C   0  0  0  0  0  0  0  0  0  0  0  0
  192.4740  174.1340  136.4940 C   0  0  0  0  0  3  0  0  0  0  0  0
  194.8510  174.3650  135.9890 N   0  0  0  0  0  1  0  0  0  0  0  0
  191.4240  175.5540  138.1580 C   0  0  0  0  0  0  0  0  0  0  0  0
  193.7920  175.7920  137.6640 C   0  0  0  0  0  3  0  0  0  0  0  0
  191.3410  174.5270  137.2100 C   0  0  0  0  0  3  0  0  0  0  0  0
  190.1680  175.9940  138.8660 C   0  0  2  0  0  3  0  0  0  0  0  0
  191.5220  177.8570  139.9140 C   0  0  0  0  0  2  0  0  0  0  0  0
  192.8400  177.2330  139.4600 C   0  0  0  0  0  2  0  0  0  0  0  0
  189.2830  177.2910  140.9120 C   0  0  0  0  0  2  0  0  0  0  0  0
  189.7200  178.0980  142.1270 C   0  0  0  0  0  2  0  0  0  0  0  0
  187.0060  176.9130  144.3850 C   0  0  0  0  0  2  0  0  0  0  0  0
  187.5910  177.1090  145.8000 C   0  0  1  0  0  3  0  0  0  0  0  0
  189.6680  177.9020  144.5820 C   0  0  0  0  0  3  0  0  0  0  0  0
  188.0670  176.5150  143.3560 C   0  0  0  0  0  2  0  0  0  0  0  0
  189.1820  177.5170  143.3960 C   0  0  0  0  0  0  0  0  0  0  0  0
  189.1220  177.2920  145.8450 C   0  0  0  0  0  2  0  0  0  0  0  0
  187.5410  178.2610  147.6890 C   0  0  0  0  0  1  0  0  0  0  0  0
  186.9650  178.1930  146.4190 O   0  0  0  0  0  0  0  0  0  0  0  0
  185.5960  175.9720  136.7340 C   0  0  0  0  0  2  0  0  0  0  0  0
  184.2190  177.1660  136.7170 S   0  0  0  0  0  0  0  0  0  0  0  0
  183.5390  176.4870  138.2600 C   0  0  0  0  0  2  0  0  0  0  0  0
  182.3330  177.2090  138.6600 N   0  0  0  0  0  0  0  0  0  0  0  0
  182.2460  177.8300  139.9630 C   0  0  0  0  0  0  0  0  0  0  0  0
  181.1130  178.0080  140.4880 O   0  0  0  0  0  0  0  0  0  0  0  0
  183.4470  178.2700  140.7130 C   0  0  0  0  0  0  0  0  0  0  0  0
  184.4890  178.8830  142.8250 C   0  0  0  0  0  3  0  0  0  0  0  0
  185.7650  179.0070  140.7740 C   0  0  0  0  0  3  0  0  0  0  0  0
  185.6850  179.1630  142.1590 C   0  0  0  0  0  3  0  0  0  0  0  0
  184.6510  178.5670  140.0540 C   0  0  0  0  0  3  0  0  0  0  0  0
  183.3750  178.4410  142.1040 C   0  0  0  0  0  3  0  0  0  0  0  0
  179.9540  177.6510  138.0590 C   0  0  0  0  0  2  0  0  0  0  0  0
  180.4070  175.2500  138.1320 C   0  0  0  0  0  1  0  0  0  0  0  0
  181.3980  177.5860  137.5890 C   0  0  2  0  0  3  0  0  0  0  0  0
  180.3990  176.4720  137.2270 C   0  0  2  0  0  3  0  0  0  0  0  0
  1  3  1  0  0  0  0
  2 28  1  1  0  0  0
  2  1  1  0  0  0  0
  2  4  1  0  0  0  0
  3  6  1  0  0  0  0
  5  4  1  1  0  0  0
  5  6  1  0  0  0  0
  5 15  1  0  0  0  0
  7 13  1  0  0  0  0
  8 18  1  6  0  0  0
  9 17  1  0  0  0  0
 10  7  2  0  0  0  0
 10 14  1  0  0  0  0
 11  7  1  0  0  0  0
 12  9  1  0  0  0  0
 13  9  2  0  0  0  0
 14 12  2  0  0  0  0
 15 12  1  6  0  0  0
 15  8  1  0  0  0  0
 16  8  1  0  0  0  0
 17 16  1  0  0  0  0
 18 19  1  0  0  0  0
 19 24  1  0  0  0  0
 20 21  1  0  0  0  0
 21 25  1  0  0  0  0
 21 27  1  6  0  0  0
 22 25  1  0  0  0  0
 23 24  1  0  0  0  0
 23 20  1  0  0  0  0
 24 22  2  0  0  0  0
 27 26  1  0  0  0  0
 29 28  1  0  0  0  0
 29 30  1  0  0  0  0
 30 31  1  0  0  0  0
 31 32  1  0  0  0  0
 32 33  2  0  0  0  0
 32 34  1  0  0  0  0
 34 39  1  0  0  0  0
 36 37  2  0  0  0  0
 37 35  1  0  0  0  0
 38 34  2  0  0  0  0
 38 36  1  0  0  0  0
 39 35  2  0  0  0  0
 42 40  1  0  0  0  0
 42 31  1  1  0  0  0
 43 42  1  0  0  0  0
 43 40  1  0  0  0  0
 43 41  1  1  0  0  0
M  END
>  <MODEL>
7

>  <REMARK>
 VINA RESULT:      -7.4      2.640      6.780
  Name = 
  11 active torsions:
  status: ('A' for Active; 'I' for Inactive)
    1  A    between atoms: C_1  and  C_34
    2  A    between atoms: C_1  and  C_35
    3  A    between atoms: C_3  and  N_4
    4  A    between atoms: C_3  and  S_12
    5  A    between atoms: N_4  and  C_22
    6  A    between atoms: C_6  and  C_17
    7  A    between atoms: C_8  and  C_34
    8  A    between atoms: C_11  and  C_14
    9  A    between atoms: S_12  and  C_17
   10  A    between atoms: C_19  and  O_37
   11  A    between atoms: C_27  and  C_30
                            x       y       z     vdW  Elec       q    Type
                         _______ _______ _______ _____ _____    ______ ____

>  <TORSDO>
F 11

$$$$
=
 OpenBabel10262422143D

 43 48  0  0  1  0  0  0  0  0999 V2000
  184.6850  179.1990  143.3250 C   0  0  0  0  0  2  0  0  0  0  0  0
  185.2410  178.4730  142.0990 C   0  0  1  0  0  3  0  0  0  0  0  0
  183.2650  178.7220  143.6210 C   0  0  0  0  0  2  0  0  0  0  0  0
  184.3440  178.6850  140.8810 C   0  0  0  0  0  2  0  0  0  0  0  0
  182.9160  178.2450  141.1840 C   0  0  1  0  0  3  0  0  0  0  0  0
  182.3620  178.9670  142.4160 C   0  0  0  0  0  2  0  0  0  0  0  0
  182.1620  174.5670  137.8590 C   0  0  0  0  0  0  0  0  0  0  0  0
  180.5730  178.8430  140.1580 C   0  0  1  0  0  3  0  0  0  0  0  0
  180.9040  176.1810  139.1630 C   0  0  0  0  0  0  0  0  0  0  0  0
  183.2750  175.4110  137.8790 C   0  0  0  0  0  3  0  0  0  0  0  0
  182.2290  173.3170  137.1830 N   0  0  0  0  0  1  0  0  0  0  0  0
  182.0310  177.0380  139.1800 C   0  0  0  0  0  0  0  0  0  0  0  0
  180.9790  174.9570  138.4910 C   0  0  0  0  0  3  0  0  0  0  0  0
  183.2100  176.6400  138.5390 C   0  0  0  0  0  3  0  0  0  0  0  0
  182.0170  178.3420  139.9350 C   0  0  2  0  0  3  0  0  0  0  0  0
  179.6940  177.7460  140.7390 C   0  0  0  0  0  2  0  0  0  0  0  0
  179.5770  176.5990  139.7370 C   0  0  0  0  0  2  0  0  0  0  0  0
  180.4700  180.1280  140.9680 C   0  0  0  0  0  2  0  0  0  0  0  0
  179.5940  181.1400  140.2410 C   0  0  0  0  0  2  0  0  0  0  0  0
  181.4650  183.0120  137.6200 C   0  0  0  0  0  2  0  0  0  0  0  0
  180.6990  182.6890  136.3190 C   0  0  1  0  0  3  0  0  0  0  0  0
  179.2530  181.2290  137.8030 C   0  0  0  0  0  3  0  0  0  0  0  0
  181.4850  181.8370  138.6020 C   0  0  0  0  0  2  0  0  0  0  0  0
  180.0760  181.3850  138.8470 C   0  0  0  0  0  0  0  0  0  0  0  0
  179.7640  181.4650  136.4080 C   0  0  0  0  0  2  0  0  0  0  0  0
  180.8060  184.8960  136.1940 C   0  0  0  0  0  1  0  0  0  0  0  0
  179.9740  183.8110  135.9120 O   0  0  0  0  0  0  0  0  0  0  0  0
  186.6730  178.8980  141.7960 C   0  0  0  0  0  2  0  0  0  0  0  0
  187.8450  177.5030  141.8700 S   0  0  0  0  0  0  0  0  0  0  0  0
  188.7590  178.2730  143.2390 C   0  0  0  0  0  2  0  0  0  0  0  0
  189.6020  177.2910  143.9190 N   0  0  0  0  0  0  0  0  0  0  0  0
  189.6180  177.2110  145.3630 C   0  0  0  0  0  0  0  0  0  0  0  0
  190.6390  176.7540  145.9450 O   0  0  0  0  0  0  0  0  0  0  0  0
  188.4690  177.6470  146.1930 C   0  0  0  0  0  0  0  0  0  0  0  0
  186.0940  178.1370  146.3890 C   0  0  0  0  0  3  0  0  0  0  0  0
  187.5540  178.4860  148.2860 C   0  0  0  0  0  3  0  0  0  0  0  0
  186.2780  178.5270  147.7180 C   0  0  0  0  0  3  0  0  0  0  0  0
  188.6430  178.0530  147.5260 C   0  0  0  0  0  3  0  0  0  0  0  0
  187.1850  177.7020  145.6300 C   0  0  0  0  0  3  0  0  0  0  0  0
  191.4680  175.6700  143.5930 C   0  0  0  0  0  2  0  0  0  0  0  0
  192.0560  177.8710  142.7080 C   0  0  0  0  0  1  0  0  0  0  0  0
  190.1240  176.1850  143.1040 C   0  0  2  0  0  3  0  0  0  0  0  0
  191.4240  176.5340  142.3560 C   0  0  2  0  0  3  0  0  0  0  0  0
  1  3  1  0  0  0  0
  2 28  1  6  0  0  0
  2  1  1  0  0  0  0
  4  2  1  0  0  0  0
  5  4  1  6  0  0  0
  5  6  1  0  0  0  0
  6  3  1  0  0  0  0
  7 10  2  0  0  0  0
  7 13  1  0  0  0  0
  8 16  1  0  0  0  0
  8 18  1  1  0  0  0
  9 12  1  0  0  0  0
  9 17  1  0  0  0  0
 10 14  1  0  0  0  0
 11  7  1  0  0  0  0
 13  9  2  0  0  0  0
 14 12  2  0  0  0  0
 15 12  1  1  0  0  0
 15  8  1  0  0  0  0
 15  5  1  0  0  0  0
 17 16  1  0  0  0  0
 19 18  1  0  0  0  0
 20 23  1  0  0  0  0
 21 27  1  1  0  0  0
 21 25  1  0  0  0  0
 21 20  1  0  0  0  0
 22 24  2  0  0  0  0
 23 24  1  0  0  0  0
 24 19  1  0  0  0  0
 25 22  1  0  0  0  0
 27 26  1  0  0  0  0
 28 29  1  0  0  0  0
 29 30  1  0  0  0  0
 30 31  1  0  0  0  0
 31 32  1  0  0  0  0
 32 33  2  0  0  0  0
 32 34  1  0  0  0  0
 34 38  1  0  0  0  0
 35 37  2  0  0  0  0
 37 36  1  0  0  0  0
 38 36  2  0  0  0  0
 39 34  2  0  0  0  0
 39 35  1  0  0  0  0
 42 40  1  0  0  0  0
 42 31  1  1  0  0  0
 43 41  1  1  0  0  0
 43 42  1  0  0  0  0
 43 40  1  0  0  0  0
M  END
>  <MODEL>
8

>  <REMARK>
 VINA RESULT:      -7.4      4.018      6.116
  Name = 
  11 active torsions:
  status: ('A' for Active; 'I' for Inactive)
    1  A    between atoms: C_1  and  C_34
    2  A    between atoms: C_1  and  C_35
    3  A    between atoms: C_3  and  N_4
    4  A    between atoms: C_3  and  S_12
    5  A    between atoms: N_4  and  C_22
    6  A    between atoms: C_6  and  C_17
    7  A    between atoms: C_8  and  C_34
    8  A    between atoms: C_11  and  C_14
    9  A    between atoms: S_12  and  C_17
   10  A    between atoms: C_19  and  O_37
   11  A    between atoms: C_27  and  C_30
                            x       y       z     vdW  Elec       q    Type
                         _______ _______ _______ _____ _____    ______ ____

>  <TORSDO>
F 11

$$$$
=
 OpenBabel10262422143D

 43 48  0  0  1  0  0  0  0  0999 V2000
  187.2610  178.6420  136.9950 C   0  0  0  0  0  2  0  0  0  0  0  0
  187.3350  177.1860  136.5330 C   0  0  1  0  0  3  0  0  0  0  0  0
  188.6660  179.1990  137.2100 C   0  0  0  0  0  2  0  0  0  0  0  0
  188.0990  176.3290  137.5400 C   0  0  0  0  0  2  0  0  0  0  0  0
  189.4890  176.9020  137.7870 C   0  0  1  0  0  3  0  0  0  0  0  0
  189.4160  178.3620  138.2430 C   0  0  0  0  0  2  0  0  0  0  0  0
  193.7980  174.6580  136.5410 C   0  0  0  0  0  0  0  0  0  0  0  0
  190.6710  176.5540  140.1080 C   0  0  1  0  0  3  0  0  0  0  0  0
  192.8430  175.9830  138.3360 C   0  0  0  0  0  0  0  0  0  0  0  0
  192.5260  174.1900  136.2030 C   0  0  0  0  0  3  0  0  0  0  0  0
  194.9350  174.2210  135.8060 N   0  0  0  0  0  1  0  0  0  0  0  0
  191.5550  175.5050  137.9960 C   0  0  0  0  0  0  0  0  0  0  0  0
  193.9550  175.5430  137.6100 C   0  0  0  0  0  3  0  0  0  0  0  0
  191.4090  174.6140  136.9260 C   0  0  0  0  0  3  0  0  0  0  0  0
  190.3210  175.9900  138.7120 C   0  0  2  0  0  3  0  0  0  0  0  0
  191.8120  177.5570  140.0250 C   0  0  0  0  0  2  0  0  0  0  0  0
  193.0780  176.8530  139.5400 C   0  0  0  0  0  2  0  0  0  0  0  0
  189.4840  177.1210  140.8740 C   0  0  0  0  0  2  0  0  0  0  0  0
  189.9640  177.8770  142.1060 C   0  0  0  0  0  2  0  0  0  0  0  0
  186.8690  177.1460  144.0440 C   0  0  0  0  0  2  0  0  0  0  0  0
  187.2710  177.4380  145.5050 C   0  0  1  0  0  3  0  0  0  0  0  0
  189.5590  177.9360  144.5350 C   0  0  0  0  0  3  0  0  0  0  0  0
  188.0190  176.5630  143.2190 C   0  0  0  0  0  2  0  0  0  0  0  0
  189.2060  177.4730  143.3290 C   0  0  0  0  0  0  0  0  0  0  0  0
  188.7930  177.5030  145.7540 C   0  0  0  0  0  2  0  0  0  0  0  0
  185.4190  178.6330  145.3090 C   0  0  0  0  0  1  0  0  0  0  0  0
  186.6700  178.6250  145.9280 O   0  0  0  0  0  0  0  0  0  0  0  0
  185.9490  176.6090  136.2720 C   0  0  0  0  0  2  0  0  0  0  0  0
  185.9640  174.7890  136.1480 S   0  0  0  0  0  0  0  0  0  0  0  0
  184.7720  174.6330  137.5120 C   0  0  0  0  0  2  0  0  0  0  0  0
  183.4070  174.8510  137.0370 N   0  0  0  0  0  0  0  0  0  0  0  0
  182.5170  175.7460  137.7430 C   0  0  0  0  0  0  0  0  0  0  0  0
  181.2710  175.5740  137.6560 O   0  0  0  0  0  0  0  0  0  0  0  0
  183.0170  176.8700  138.5700 C   0  0  0  0  0  0  0  0  0  0  0  0
  183.4270  177.8310  140.7680 C   0  0  0  0  0  3  0  0  0  0  0  0
  183.9240  179.1180  138.7820 C   0  0  0  0  0  3  0  0  0  0  0  0
  183.8990  179.0030  140.1730 C   0  0  0  0  0  3  0  0  0  0  0  0
  183.4810  178.0580  137.9850 C   0  0  0  0  0  3  0  0  0  0  0  0
  182.9860  176.7700  139.9700 C   0  0  0  0  0  3  0  0  0  0  0  0
  181.6620  174.0030  135.4700 C   0  0  0  0  0  2  0  0  0  0  0  0
  182.5580  172.1920  136.8450 C   0  0  0  0  0  1  0  0  0  0  0  0
  183.1080  174.4330  135.6590 C   0  0  2  0  0  3  0  0  0  0  0  0
  182.7360  172.9440  135.5360 C   0  0  2  0  0  3  0  0  0  0  0  0
  1  3  1  0  0  0  0
  2 28  1  1  0  0  0
  2  1  1  0  0  0  0
  2  4  1  0  0  0  0
  3  6  1  0  0  0  0
  5  4  1  1  0  0  0
  5  6  1  0  0  0  0
  5 15  1  0  0  0  0
  7 13  1  0  0  0  0
  8 18  1  6  0  0  0
  9 17  1  0  0  0  0
 10  7  2  0  0  0  0
 10 14  1  0  0  0  0
 11  7  1  0  0  0  0
 12  9  1  0  0  0  0
 13  9  2  0  0  0  0
 14 12  2  0  0  0  0
 15 12  1  6  0  0  0
 15  8  1  0  0  0  0
 16  8  1  0  0  0  0
 17 16  1  0  0  0  0
 18 19  1  0  0  0  0
 19 24  1  0  0  0  0
 20 21  1  0  0  0  0
 21 25  1  0  0  0  0
 21 27  1  6  0  0  0
 22 25  1  0  0  0  0
 23 24  1  0  0  0  0
 23 20  1  0  0  0  0
 24 22  2  0  0  0  0
 26 27  1  0  0  0  0
 29 28  1  0  0  0  0
 29 30  1  0  0  0  0
 31 30  1  0  0  0  0
 31 32  1  0  0  0  0
 32 34  1  0  0  0  0
 33 32  2  0  0  0  0
 34 39  1  0  0  0  0
 36 37  2  0  0  0  0
 37 35  1  0  0  0  0
 38 34  2  0  0  0  0
 38 36  1  0  0  0  0
 39 35  2  0  0  0  0
 40 43  1  0  0  0  0
 40 42  1  0  0  0  0
 42 31  1  1  0  0  0
 43 42  1  0  0  0  0
 43 41  1  1  0  0  0
M  END
>  <MODEL>
9

>  <REMARK>
 VINA RESULT:      -7.3      2.756      7.056
  Name = 
  11 active torsions:
  status: ('A' for Active; 'I' for Inactive)
    1  A    between atoms: C_1  and  C_34
    2  A    between atoms: C_1  and  C_35
    3  A    between atoms: C_3  and  N_4
    4  A    between atoms: C_3  and  S_12
    5  A    between atoms: N_4  and  C_22
    6  A    between atoms: C_6  and  C_17
    7  A    between atoms: C_8  and  C_34
    8  A    between atoms: C_11  and  C_14
    9  A    between atoms: S_12  and  C_17
   10  A    between atoms: C_19  and  O_37
   11  A    between atoms: C_27  and  C_30
                            x       y       z     vdW  Elec       q    Type
                         _______ _______ _______ _____ _____    ______ ____

>  <TORSDO>
F 11

$$$$
