=
 OpenBabel10262422313D

 43 47  0  0  1  0  0  0  0  0999 V2000
  189.9460  177.5630  139.0110 C   0  0  2  0  0  3  0  0  0  0  0  0
  187.2700  177.1420  137.9050 C   0  0  1  0  0  3  0  0  0  0  0  0
  191.9900  175.6190  138.1050 C   0  0  1  0  0  3  0  0  0  0  0  0
  190.6910  175.8150  137.3490 C   0  0  0  0  0  0  0  0  0  0  0  0
  193.0570  175.4760  137.2140 O   0  0  0  0  0  1  0  0  0  0  0  0
  188.4640  176.8480  137.0060 C   0  0  0  0  0  2  0  0  0  0  0  0
  189.7180  176.6390  137.8150 C   0  0  0  0  0  0  0  0  0  0  0  0
  191.0700  177.0400  139.9110 C   0  0  0  0  0  2  0  0  0  0  0  0
  188.7080  177.7380  139.7910 N   0  0  0  0  0  0  0  0  0  0  0  0
  187.6410  178.2240  138.9180 C   0  0  0  0  0  2  0  0  0  0  0  0
  192.2960  176.7560  139.0690 C   0  0  0  0  0  2  0  0  0  0  0  0
  186.0450  177.5120  137.0660 C   0  0  1  0  0  3  0  0  0  0  0  0
  186.4250  177.6620  135.6010 C   0  0  0  0  0  1  0  0  0  0  0  0
  184.9020  176.5140  137.2250 C   0  0  0  0  0  2  0  0  0  0  0  0
  183.9270  176.8740  138.3530 C   0  0  2  0  0  3  0  0  0  0  0  0
  182.9850  175.8650  138.5760 O   0  0  0  0  0  1  0  0  0  0  0  0
  183.2980  178.2880  138.2990 C   0  0  1  0  0  3  0  0  0  0  0  0
  181.5940  178.5740  136.5020 C   0  0  0  0  0  2  0  0  0  0  0  0
  181.8040  178.2860  137.9760 C   0  0  0  0  0  3  0  0  0  0  0  0
  181.3720  179.6670  137.5220 C   0  0  0  0  0  2  0  0  0  0  0  0
  183.6320  179.2650  139.4380 C   0  0  2  0  0  3  0  0  0  0  0  0
  184.1560  180.4640  138.9480 O   0  0  0  0  0  1  0  0  0  0  0  0
  184.4930  178.6720  140.5590 C   0  0  1  0  0  3  0  0  0  0  0  0
  185.3780  179.6350  141.0570 O   0  0  0  0  0  1  0  0  0  0  0  0
  183.6220  178.1340  141.6900 C   0  0  2  0  0  3  0  0  0  0  0  0
  183.0170  178.9350  143.9410 C   0  0  0  0  0  2  0  0  0  0  0  0
  180.8180  179.5600  143.3160 O   0  0  0  0  0  0  0  0  0  0  0  0
  181.8990  179.1040  142.9900 C   0  0  0  0  0  0  0  0  0  0  0  0
  182.2130  178.7020  141.6040 C   0  0  0  0  0  2  0  0  0  0  0  0
  184.1850  178.5280  143.0620 C   0  0  0  0  0  2  0  0  0  0  0  0
  188.9260  178.7960  140.7720 C   0  0  0  0  0  2  0  0  0  0  0  0
  187.5910  177.0360  143.8500 C   0  0  0  0  0  3  0  0  0  0  0  0
  188.6270  177.2450  144.7680 C   0  0  0  0  0  0  0  0  0  0  0  0
  189.8700  178.4550  143.0660 C   0  0  0  0  0  3  0  0  0  0  0  0
  187.6930  177.5330  142.5470 C   0  0  0  0  0  3  0  0  0  0  0  0
  188.8330  178.2380  142.1510 C   0  0  0  0  0  0  0  0  0  0  0  0
  189.7700  177.9590  144.3680 C   0  0  0  0  0  3  0  0  0  0  0  0
  188.4940  176.7380  146.0620 O   0  0  0  0  0  0  0  0  0  0  0  0
  189.3490  177.1240  147.1310 C   0  0  0  0  0  1  0  0  0  0  0  0
  190.4350  174.9340  136.1540 C   0  0  0  0  0  2  0  0  0  0  0  0
  188.8910  172.9730  136.3480 C   0  0  0  0  0  3  0  0  0  0  0  0
  190.0800  173.5410  136.5840 C   0  0  0  0  0  3  0  0  0  0  0  0
  187.7800  173.6790  135.6420 C   0  0  0  0  0  1  0  0  0  0  0  0
  1  9  1  0  0  0  0
  1  8  1  1  0  0  0
  2 12  1  6  0  0  0
  2 10  1  0  0  0  0
  3  5  1  6  0  0  0
  3 11  1  0  0  0  0
  4  7  2  0  0  0  0
  4  3  1  0  0  0  0
  6  7  1  0  0  0  0
  6  2  1  0  0  0  0
  7  1  1  0  0  0  0
  9 31  1  0  0  0  0
 10  9  1  0  0  0  0
 11  8  1  0  0  0  0
 12 13  1  6  0  0  0
 12 14  1  0  0  0  0
 14 15  1  0  0  0  0
 15 16  1  6  0  0  0
 17 15  1  1  0  0  0
 17 21  1  0  0  0  0
 18 20  1  0  0  0  0
 18 19  1  0  0  0  0
 19 17  1  0  0  0  0
 20 19  1  0  0  0  0
 21 22  1  6  0  0  0
 21 23  1  0  0  0  0
 23 24  1  1  0  0  0
 25 23  1  6  0  0  0
 25 30  1  0  0  0  0
 28 27  2  0  0  0  0
 28 26  1  0  0  0  0
 29 25  1  0  0  0  0
 29 28  1  0  0  0  0
 30 26  1  0  0  0  0
 31 36  1  0  0  0  0
 32 33  1  0  0  0  0
 33 38  1  0  0  0  0
 34 37  1  0  0  0  0
 35 32  2  0  0  0  0
 36 35  1  0  0  0  0
 36 34  2  0  0  0  0
 37 33  2  0  0  0  0
 38 39  1  0  0  0  0
 40 42  1  0  0  0  0
 40  4  1  0  0  0  0
 41 42  2  0  0  0  0
 43 41  1  0  0  0  0
M  END
>  <MODEL>
1

>  <REMARK>
 VINA RESULT:      -7.8      0.000      0.000
  Name = 
  13 active torsions:
  status: ('A' for Active; 'I' for Inactive)
    1  A    between atoms: C_1  and  N_34
    2  A    between atoms: C_1  and  C_35
    3  A    between atoms: C_2  and  C_6
    4  A    between atoms: C_2  and  C_13
    5  A    between atoms: C_3  and  C_4
    6  A    between atoms: C_3  and  C_12
    7  A    between atoms: C_3  and  C_15
    8  A    between atoms: C_4  and  C_14
    9  A    between atoms: C_6  and  C_12
   10  A    between atoms: C_11  and  C_14
   11  A    between atoms: C_18  and  C_24
   12  A    between atoms: C_19  and  O_25
   13  A    between atoms: C_21  and  C_24
                            x       y       z     vdW  Elec       q    Type
                         _______ _______ _______ _____ _____    ______ ____

>  <TORSDO>
F 13

$$$$
=
 OpenBabel10262422313D

 43 47  0  0  1  0  0  0  0  0999 V2000
  185.3240  178.8390  143.2260 C   0  0  2  0  0  3  0  0  0  0  0  0
  187.7630  177.6420  142.1420 C   0  0  1  0  0  3  0  0  0  0  0  0
  184.6710  178.0410  146.0040 C   0  0  1  0  0  3  0  0  0  0  0  0
  186.0640  177.8630  145.4340 C   0  0  0  0  0  0  0  0  0  0  0  0
  184.7370  178.4910  147.3250 O   0  0  0  0  0  1  0  0  0  0  0  0
  187.7480  178.0060  143.6210 C   0  0  0  0  0  2  0  0  0  0  0  0
  186.3380  178.1450  144.1340 C   0  0  0  0  0  0  0  0  0  0  0  0
  183.8920  178.6270  143.7280 C   0  0  0  0  0  2  0  0  0  0  0  0
  185.4500  178.3730  141.8340 N   0  0  0  0  0  0  0  0  0  0  0  0
  186.8240  178.5680  141.3730 C   0  0  0  0  0  2  0  0  0  0  0  0
  183.8130  179.0020  145.1930 C   0  0  0  0  0  2  0  0  0  0  0  0
  189.1940  177.6660  141.5990 C   0  0  1  0  0  3  0  0  0  0  0  0
  190.1620  177.0780  142.6130 C   0  0  0  0  0  1  0  0  0  0  0  0
  189.3230  176.9510  140.2560 C   0  0  0  0  0  2  0  0  0  0  0  0
  189.8820  177.8420  139.1400 C   0  0  2  0  0  3  0  0  0  0  0  0
  189.1180  178.9990  138.9590 O   0  0  0  0  0  1  0  0  0  0  0  0
  190.2410  177.1390  137.8070 C   0  0  1  0  0  3  0  0  0  0  0  0
  192.5580  176.2470  137.5900 C   0  0  0  0  0  2  0  0  0  0  0  0
  191.1310  175.9090  137.9790 C   0  0  0  0  0  3  0  0  0  0  0  0
  191.6780  175.4760  136.6330 C   0  0  0  0  0  2  0  0  0  0  0  0
  189.1030  176.8810  136.8050 C   0  0  2  0  0  3  0  0  0  0  0  0
  188.8830  177.9900  135.9840 O   0  0  0  0  0  1  0  0  0  0  0  0
  187.8050  176.3570  137.4280 C   0  0  1  0  0  3  0  0  0  0  0  0
  186.8260  177.3570  137.4350 O   0  0  0  0  0  1  0  0  0  0  0  0
  187.2910  175.1340  136.6740 C   0  0  2  0  0  3  0  0  0  0  0  0
  187.2990  172.7070  137.0990 C   0  0  0  0  0  2  0  0  0  0  0  0
  184.9960  172.6210  137.6520 O   0  0  0  0  0  0  0  0  0  0  0  0
  185.9600  173.2890  137.3240 C   0  0  0  0  0  0  0  0  0  0  0  0
  185.8960  174.7540  137.1480 C   0  0  0  0  0  2  0  0  0  0  0  0
  188.1950  173.9160  136.9050 C   0  0  0  0  0  2  0  0  0  0  0  0
  184.6240  179.2250  140.9850 C   0  0  0  0  0  2  0  0  0  0  0  0
  182.5730  176.4380  139.4440 C   0  0  0  0  0  3  0  0  0  0  0  0
  182.5840  176.7920  138.0910 C   0  0  0  0  0  0  0  0  0  0  0  0
  183.9180  178.7510  138.6310 C   0  0  0  0  0  3  0  0  0  0  0  0
  183.2290  177.2350  140.3880 C   0  0  0  0  0  3  0  0  0  0  0  0
  183.8970  178.3940  139.9840 C   0  0  0  0  0  0  0  0  0  0  0  0
  183.2620  177.9560  137.6870 C   0  0  0  0  0  3  0  0  0  0  0  0
  181.9210  175.9750  137.1730 O   0  0  0  0  0  0  0  0  0  0  0  0
  182.4660  175.6450  135.9010 C   0  0  0  0  0  1  0  0  0  0  0  0
  187.0980  177.1970  146.3040 C   0  0  0  0  0  2  0  0  0  0  0  0
  188.9910  178.0690  147.6870 C   0  0  0  0  0  3  0  0  0  0  0  0
  187.7420  178.1900  147.2250 C   0  0  0  0  0  3  0  0  0  0  0  0
  189.8760  176.9160  147.3450 C   0  0  0  0  0  1  0  0  0  0  0  0
  1  8  1  1  0  0  0
  1  7  1  0  0  0  0
  2 12  1  6  0  0  0
  2  6  1  0  0  0  0
  3  5  1  1  0  0  0
  4  3  1  0  0  0  0
  4 40  1  0  0  0  0
  6  7  1  0  0  0  0
  7  4  2  0  0  0  0
  8 11  1  0  0  0  0
  9  1  1  0  0  0  0
 10  9  1  0  0  0  0
 10  2  1  0  0  0  0
 11  3  1  0  0  0  0
 12 13  1  1  0  0  0
 14 12  1  0  0  0  0
 15 16  1  6  0  0  0
 15 14  1  0  0  0  0
 17 21  1  1  0  0  0
 17 19  1  0  0  0  0
 17 15  1  0  0  0  0
 18 19  1  0  0  0  0
 20 18  1  0  0  0  0
 20 19  1  0  0  0  0
 21 22  1  1  0  0  0
 21 23  1  0  0  0  0
 23 24  1  6  0  0  0
 25 30  1  0  0  0  0
 25 29  1  0  0  0  0
 25 23  1  1  0  0  0
 26 28  1  0  0  0  0
 28 27  2  0  0  0  0
 29 28  1  0  0  0  0
 30 26  1  0  0  0  0
 31  9  1  0  0  0  0
 32 35  1  0  0  0  0
 33 32  2  0  0  0  0
 34 36  1  0  0  0  0
 36 35  2  0  0  0  0
 36 31  1  0  0  0  0
 37 33  1  0  0  0  0
 37 34  2  0  0  0  0
 38 33  1  0  0  0  0
 39 38  1  0  0  0  0
 40 42  1  0  0  0  0
 42 41  2  0  0  0  0
 43 41  1  0  0  0  0
M  END
>  <MODEL>
2

>  <REMARK>
 VINA RESULT:      -7.8      2.240      8.553
  Name = 
  13 active torsions:
  status: ('A' for Active; 'I' for Inactive)
    1  A    between atoms: C_1  and  N_34
    2  A    between atoms: C_1  and  C_35
    3  A    between atoms: C_2  and  C_6
    4  A    between atoms: C_2  and  C_13
    5  A    between atoms: C_3  and  C_4
    6  A    between atoms: C_3  and  C_12
    7  A    between atoms: C_3  and  C_15
    8  A    between atoms: C_4  and  C_14
    9  A    between atoms: C_6  and  C_12
   10  A    between atoms: C_11  and  C_14
   11  A    between atoms: C_18  and  C_24
   12  A    between atoms: C_19  and  O_25
   13  A    between atoms: C_21  and  C_24
                            x       y       z     vdW  Elec       q    Type
                         _______ _______ _______ _____ _____    ______ ____

>  <TORSDO>
F 13

$$$$
=
 OpenBabel10262422313D

 43 47  0  0  1  0  0  0  0  0999 V2000
  185.5090  178.8770  143.0950 C   0  0  2  0  0  3  0  0  0  0  0  0
  187.9000  177.5020  142.1200 C   0  0  1  0  0  3  0  0  0  0  0  0
  184.6810  178.1410  145.8430 C   0  0  1  0  0  3  0  0  0  0  0  0
  186.0810  177.8600  145.3340 C   0  0  0  0  0  0  0  0  0  0  0  0
  184.7220  178.5910  147.1650 O   0  0  0  0  0  1  0  0  0  0  0  0
  187.8480  177.8730  143.5970 C   0  0  0  0  0  2  0  0  0  0  0  0
  186.4310  178.1150  144.0480 C   0  0  0  0  0  0  0  0  0  0  0  0
  184.0460  178.7710  143.5350 C   0  0  0  0  0  2  0  0  0  0  0  0
  185.6620  178.3960  141.7100 N   0  0  0  0  0  0  0  0  0  0  0  0
  187.0640  178.4900  141.3090 C   0  0  0  0  0  2  0  0  0  0  0  0
  183.9300  179.1580  144.9940 C   0  0  0  0  0  2  0  0  0  0  0  0
  189.3510  177.4200  141.6390 C   0  0  1  0  0  3  0  0  0  0  0  0
  190.2530  176.8950  142.7450 C   0  0  0  0  0  1  0  0  0  0  0  0
  189.5030  176.5760  140.3760 C   0  0  0  0  0  2  0  0  0  0  0  0
  190.2780  177.2840  139.2570 C   0  0  2  0  0  3  0  0  0  0  0  0
  189.6300  178.4430  138.8210 O   0  0  0  0  0  1  0  0  0  0  0  0
  190.7780  176.3940  138.0920 C   0  0  1  0  0  3  0  0  0  0  0  0
  193.1820  176.7950  138.6130 C   0  0  0  0  0  2  0  0  0  0  0  0
  192.1300  175.7330  138.3570 C   0  0  0  0  0  3  0  0  0  0  0  0
  193.1130  176.1120  137.2670 C   0  0  0  0  0  2  0  0  0  0  0  0
  189.7780  175.4100  137.4620 C   0  0  2  0  0  3  0  0  0  0  0  0
  190.1750  174.0840  137.6530 O   0  0  0  0  0  1  0  0  0  0  0  0
  189.4240  175.7040  136.0000 C   0  0  1  0  0  3  0  0  0  0  0  0
  189.5060  174.5360  135.2330 O   0  0  0  0  0  1  0  0  0  0  0  0
  188.0260  176.3020  135.8860 C   0  0  2  0  0  3  0  0  0  0  0  0
  186.3620  177.1390  137.5010 C   0  0  0  0  0  2  0  0  0  0  0  0
  186.7570  179.4190  136.9890 O   0  0  0  0  0  0  0  0  0  0  0  0
  187.0330  178.2490  136.7940 C   0  0  0  0  0  0  0  0  0  0  0  0
  188.0900  177.8230  135.8540 C   0  0  0  0  0  2  0  0  0  0  0  0
  187.1530  175.9120  137.0850 C   0  0  0  0  0  2  0  0  0  0  0  0
  184.9370  179.3020  140.8250 C   0  0  0  0  0  2  0  0  0  0  0  0
  182.6800  178.3680  137.9300 C   0  0  0  0  0  3  0  0  0  0  0  0
  182.2480  177.0910  138.3070 C   0  0  0  0  0  0  0  0  0  0  0  0
  183.5900  177.2520  140.3270 C   0  0  0  0  0  3  0  0  0  0  0  0
  183.5630  179.0840  138.7450 C   0  0  0  0  0  3  0  0  0  0  0  0
  184.0230  178.5250  139.9400 C   0  0  0  0  0  0  0  0  0  0  0  0
  182.7090  176.5350  139.5130 C   0  0  0  0  0  3  0  0  0  0  0  0
  181.3650  176.4030  137.4720 O   0  0  0  0  0  0  0  0  0  0  0  0
  180.8620  175.1100  137.7840 C   0  0  0  0  0  1  0  0  0  0  0  0
  187.0250  177.1250  146.2490 C   0  0  0  0  0  2  0  0  0  0  0  0
  188.9900  177.9220  147.5790 C   0  0  0  0  0  3  0  0  0  0  0  0
  187.7240  178.0780  147.1740 C   0  0  0  0  0  3  0  0  0  0  0  0
  189.8390  176.7660  147.1620 C   0  0  0  0  0  1  0  0  0  0  0  0
  1  8  1  1  0  0  0
  1  7  1  0  0  0  0
  2 12  1  6  0  0  0
  2  6  1  0  0  0  0
  3  5  1  1  0  0  0
  4  3  1  0  0  0  0
  4 40  1  0  0  0  0
  6  7  1  0  0  0  0
  7  4  2  0  0  0  0
  8 11  1  0  0  0  0
  9  1  1  0  0  0  0
 10  9  1  0  0  0  0
 10  2  1  0  0  0  0
 11  3  1  0  0  0  0
 12 13  1  1  0  0  0
 14 12  1  0  0  0  0
 15 16  1  6  0  0  0
 15 14  1  0  0  0  0
 17 21  1  1  0  0  0
 17 19  1  0  0  0  0
 17 15  1  0  0  0  0
 19 18  1  0  0  0  0
 20 19  1  0  0  0  0
 20 18  1  0  0  0  0
 21 22  1  6  0  0  0
 23 24  1  6  0  0  0
 23 21  1  0  0  0  0
 25 23  1  1  0  0  0
 25 30  1  0  0  0  0
 28 27  2  0  0  0  0
 28 26  1  0  0  0  0
 29 25  1  0  0  0  0
 29 28  1  0  0  0  0
 30 26  1  0  0  0  0
 31  9  1  0  0  0  0
 32 33  2  0  0  0  0
 32 35  1  0  0  0  0
 33 37  1  0  0  0  0
 35 36  2  0  0  0  0
 36 34  1  0  0  0  0
 36 31  1  0  0  0  0
 37 34  2  0  0  0  0
 38 39  1  0  0  0  0
 38 33  1  0  0  0  0
 40 42  1  0  0  0  0
 42 41  2  0  0  0  0
 43 41  1  0  0  0  0
M  END
>  <MODEL>
3

>  <REMARK>
 VINA RESULT:      -7.7      2.089      8.692
  Name = 
  13 active torsions:
  status: ('A' for Active; 'I' for Inactive)
    1  A    between atoms: C_1  and  N_34
    2  A    between atoms: C_1  and  C_35
    3  A    between atoms: C_2  and  C_6
    4  A    between atoms: C_2  and  C_13
    5  A    between atoms: C_3  and  C_4
    6  A    between atoms: C_3  and  C_12
    7  A    between atoms: C_3  and  C_15
    8  A    between atoms: C_4  and  C_14
    9  A    between atoms: C_6  and  C_12
   10  A    between atoms: C_11  and  C_14
   11  A    between atoms: C_18  and  C_24
   12  A    between atoms: C_19  and  O_25
   13  A    between atoms: C_21  and  C_24
                            x       y       z     vdW  Elec       q    Type
                         _______ _______ _______ _____ _____    ______ ____

>  <TORSDO>
F 13

$$$$
=
 OpenBabel10262422313D

 43 47  0  0  1  0  0  0  0  0999 V2000
  186.1090  178.6820  143.7830 C   0  0  2  0  0  3  0  0  0  0  0  0
  187.9160  177.6730  141.7160 C   0  0  1  0  0  3  0  0  0  0  0  0
  186.5770  177.5820  146.4950 C   0  0  1  0  0  3  0  0  0  0  0  0
  187.6360  177.5040  145.4120 C   0  0  0  0  0  0  0  0  0  0  0  0
  187.1590  177.8940  147.7260 O   0  0  0  0  0  1  0  0  0  0  0  0
  188.4830  177.8810  143.1140 C   0  0  0  0  0  2  0  0  0  0  0  0
  187.3870  177.9260  144.1460 C   0  0  0  0  0  0  0  0  0  0  0  0
  184.9830  178.3790  144.7770 C   0  0  0  0  0  2  0  0  0  0  0  0
  185.6760  178.3670  142.4110 N   0  0  0  0  0  0  0  0  0  0  0  0
  186.7650  178.6480  141.4760 C   0  0  0  0  0  2  0  0  0  0  0  0
  185.4860  178.5980  146.1880 C   0  0  0  0  0  2  0  0  0  0  0  0
  189.0220  177.7940  140.6650 C   0  0  1  0  0  3  0  0  0  0  0  0
  190.1800  176.8650  140.9960 C   0  0  0  0  0  1  0  0  0  0  0  0
  188.5150  177.5370  139.2480 C   0  0  0  0  0  2  0  0  0  0  0  0
  189.4030  178.1520  138.1590 C   0  0  2  0  0  3  0  0  0  0  0  0
  188.8580  179.3300  137.6400 O   0  0  0  0  0  1  0  0  0  0  0  0
  189.9200  177.1890  137.0620 C   0  0  1  0  0  3  0  0  0  0  0  0
  192.1030  176.1310  137.6320 C   0  0  0  0  0  2  0  0  0  0  0  0
  190.5990  175.9360  137.6110 C   0  0  0  0  0  3  0  0  0  0  0  0
  191.4660  175.3060  136.5380 C   0  0  0  0  0  2  0  0  0  0  0  0
  188.9730  176.8580  135.8960 C   0  0  2  0  0  3  0  0  0  0  0  0
  189.2300  177.6640  134.7830 O   0  0  0  0  0  1  0  0  0  0  0  0
  187.4850  176.8370  136.2640 C   0  0  1  0  0  3  0  0  0  0  0  0
  186.8000  177.8550  135.5920 O   0  0  0  0  0  1  0  0  0  0  0  0
  186.8600  175.4850  135.9330 C   0  0  2  0  0  3  0  0  0  0  0  0
  187.4110  173.1440  136.4700 C   0  0  0  0  0  2  0  0  0  0  0  0
  185.6680  172.9170  138.0610 O   0  0  0  0  0  0  0  0  0  0  0  0
  186.2630  173.6240  137.2660 C   0  0  0  0  0  0  0  0  0  0  0  0
  185.9160  175.0420  137.0420 C   0  0  0  0  0  2  0  0  0  0  0  0
  187.9310  174.3960  135.7890 C   0  0  0  0  0  2  0  0  0  0  0  0
  184.5980  179.2800  142.0460 C   0  0  0  0  0  2  0  0  0  0  0  0
  182.6840  176.8990  139.8050 C   0  0  0  0  0  3  0  0  0  0  0  0
  181.3630  177.1370  140.2010 C   0  0  0  0  0  0  0  0  0  0  0  0
  182.1590  178.7670  141.8190 C   0  0  0  0  0  3  0  0  0  0  0  0
  183.7380  177.5900  140.4120 C   0  0  0  0  0  3  0  0  0  0  0  0
  183.4780  178.5200  141.4220 C   0  0  0  0  0  0  0  0  0  0  0  0
  181.1040  178.0770  141.2130 C   0  0  0  0  0  3  0  0  0  0  0  0
  180.3330  176.4330  139.5740 O   0  0  0  0  0  0  0  0  0  0  0  0
  180.5620  175.2640  138.7970 C   0  0  0  0  0  1  0  0  0  0  0  0
  188.9170  176.7790  145.7350 C   0  0  0  0  0  2  0  0  0  0  0  0
  191.2570  177.5630  145.3220 C   0  0  0  0  0  3  0  0  0  0  0  0
  190.0550  177.7460  145.8810 C   0  0  0  0  0  3  0  0  0  0  0  0
  191.5980  176.3620  144.5020 C   0  0  0  0  0  1  0  0  0  0  0  0
  1  7  1  0  0  0  0
  1  8  1  1  0  0  0
  2 12  1  6  0  0  0
  2  6  1  0  0  0  0
  3  5  1  1  0  0  0
  4 40  1  0  0  0  0
  4  3  1  0  0  0  0
  6  7  1  0  0  0  0
  7  4  2  0  0  0  0
  8 11  1  0  0  0  0
  9  1  1  0  0  0  0
 10  2  1  0  0  0  0
 10  9  1  0  0  0  0
 11  3  1  0  0  0  0
 12 13  1  1  0  0  0
 14 12  1  0  0  0  0
 15 16  1  6  0  0  0
 15 14  1  0  0  0  0
 17 21  1  1  0  0  0
 17 19  1  0  0  0  0
 17 15  1  0  0  0  0
 19 18  1  0  0  0  0
 20 19  1  0  0  0  0
 20 18  1  0  0  0  0
 21 22  1  6  0  0  0
 21 23  1  0  0  0  0
 23 24  1  6  0  0  0
 25 23  1  1  0  0  0
 25 29  1  0  0  0  0
 26 28  1  0  0  0  0
 28 27  2  0  0  0  0
 29 28  1  0  0  0  0
 30 25  1  0  0  0  0
 30 26  1  0  0  0  0
 31  9  1  0  0  0  0
 32 33  2  0  0  0  0
 32 35  1  0  0  0  0
 33 37  1  0  0  0  0
 35 36  2  0  0  0  0
 36 34  1  0  0  0  0
 36 31  1  0  0  0  0
 37 34  2  0  0  0  0
 38 33  1  0  0  0  0
 39 38  1  0  0  0  0
 40 42  1  0  0  0  0
 41 42  2  0  0  0  0
 43 41  1  0  0  0  0
M  END
>  <MODEL>
4

>  <REMARK>
 VINA RESULT:      -7.5      2.306      8.099
  Name = 
  13 active torsions:
  status: ('A' for Active; 'I' for Inactive)
    1  A    between atoms: C_1  and  N_34
    2  A    between atoms: C_1  and  C_35
    3  A    between atoms: C_2  and  C_6
    4  A    between atoms: C_2  and  C_13
    5  A    between atoms: C_3  and  C_4
    6  A    between atoms: C_3  and  C_12
    7  A    between atoms: C_3  and  C_15
    8  A    between atoms: C_4  and  C_14
    9  A    between atoms: C_6  and  C_12
   10  A    between atoms: C_11  and  C_14
   11  A    between atoms: C_18  and  C_24
   12  A    between atoms: C_19  and  O_25
   13  A    between atoms: C_21  and  C_24
                            x       y       z     vdW  Elec       q    Type
                         _______ _______ _______ _____ _____    ______ ____

>  <TORSDO>
F 13

$$$$
=
 OpenBabel10262422313D

 43 47  0  0  1  0  0  0  0  0999 V2000
  189.8620  177.1010  142.2220 C   0  0  2  0  0  3  0  0  0  0  0  0
  187.1840  178.2630  142.0440 C   0  0  1  0  0  3  0  0  0  0  0  0
  191.2440  177.5410  144.8060 C   0  0  1  0  0  3  0  0  0  0  0  0
  189.7430  177.6990  144.6720 C   0  0  0  0  0  0  0  0  0  0  0  0
  191.5630  176.9050  146.0080 O   0  0  0  0  0  1  0  0  0  0  0  0
  187.6230  177.6960  143.3880 C   0  0  0  0  0  2  0  0  0  0  0  0
  189.1230  177.5860  143.4690 C   0  0  0  0  0  0  0  0  0  0  0  0
  191.3700  177.3400  142.3420 C   0  0  0  0  0  2  0  0  0  0  0  0
  189.3380  177.7490  141.0070 N   0  0  0  0  0  0  0  0  0  0  0  0
  187.8960  177.5240  140.9140 C   0  0  0  0  0  2  0  0  0  0  0  0
  191.8680  176.7680  143.6530 C   0  0  0  0  0  2  0  0  0  0  0  0
  185.6600  178.2150  141.9140 C   0  0  1  0  0  3  0  0  0  0  0  0
  185.0000  178.4020  143.2720 C   0  0  0  0  0  1  0  0  0  0  0  0
  185.1240  179.2350  140.9120 C   0  0  0  0  0  2  0  0  0  0  0  0
  184.5930  178.6030  139.6200 C   0  0  2  0  0  3  0  0  0  0  0  0
  184.9560  179.3370  138.4870 O   0  0  0  0  0  1  0  0  0  0  0  0
  183.1020  178.1830  139.6170 C   0  0  1  0  0  3  0  0  0  0  0  0
  183.0980  175.9530  138.5040 C   0  0  0  0  0  2  0  0  0  0  0  0
  182.8830  176.6840  139.8150 C   0  0  0  0  0  3  0  0  0  0  0  0
  181.6940  176.2230  138.9950 C   0  0  0  0  0  2  0  0  0  0  0  0
  182.1210  179.0170  140.4590 C   0  0  2  0  0  3  0  0  0  0  0  0
  181.7020  178.3200  141.5960 O   0  0  0  0  0  1  0  0  0  0  0  0
  180.9440  179.6070  139.6760 C   0  0  1  0  0  3  0  0  0  0  0  0
  180.3200  180.6170  140.4170 O   0  0  0  0  0  1  0  0  0  0  0  0
  181.4060  180.1610  138.3310 C   0  0  2  0  0  3  0  0  0  0  0  0
  180.2730  181.1950  136.4030 C   0  0  0  0  0  2  0  0  0  0  0  0
  181.0230  183.3850  136.9150 O   0  0  0  0  0  0  0  0  0  0  0  0
  180.9920  182.2030  137.2090 C   0  0  0  0  0  0  0  0  0  0  0  0
  181.6440  181.6620  138.4190 C   0  0  0  0  0  2  0  0  0  0  0  0
  180.3500  179.9340  137.2420 C   0  0  0  0  0  2  0  0  0  0  0  0
  189.9170  177.0860  139.8430 C   0  0  0  0  0  2  0  0  0  0  0  0
  187.7150  176.6650  136.7900 C   0  0  0  0  0  3  0  0  0  0  0  0
  187.6550  177.9750  136.3010 C   0  0  0  0  0  0  0  0  0  0  0  0
  189.0620  178.7100  138.1410 C   0  0  0  0  0  3  0  0  0  0  0  0
  188.4440  176.3770  137.9480 C   0  0  0  0  0  3  0  0  0  0  0  0
  189.1130  177.3990  138.6280 C   0  0  0  0  0  0  0  0  0  0  0  0
  188.3340  178.9990  136.9840 C   0  0  0  0  0  3  0  0  0  0  0  0
  186.9200  178.2290  135.1400 O   0  0  0  0  0  0  0  0  0  0  0  0
  185.7460  177.5040  134.7980 C   0  0  0  0  0  1  0  0  0  0  0  0
  188.9750  178.1610  145.8830 C   0  0  0  0  0  2  0  0  0  0  0  0
  188.2580  177.0320  147.9980 C   0  0  0  0  0  3  0  0  0  0  0  0
  188.4780  176.9910  146.6790 C   0  0  0  0  0  3  0  0  0  0  0  0
  188.5030  178.2520  148.8240 C   0  0  0  0  0  1  0  0  0  0  0  0
  1  8  1  1  0  0  0
  1  7  1  0  0  0  0
  2 12  1  6  0  0  0
  2  6  1  0  0  0  0
  3  5  1  1  0  0  0
  4  3  1  0  0  0  0
  4 40  1  0  0  0  0
  6  7  1  0  0  0  0
  7  4  2  0  0  0  0
  8 11  1  0  0  0  0
  9  1  1  0  0  0  0
 10  9  1  0  0  0  0
 10  2  1  0  0  0  0
 11  3  1  0  0  0  0
 12 13  1  1  0  0  0
 14 12  1  0  0  0  0
 15 16  1  6  0  0  0
 15 14  1  0  0  0  0
 17 15  1  1  0  0  0
 17 19  1  0  0  0  0
 17 21  1  0  0  0  0
 18 20  1  0  0  0  0
 18 19  1  0  0  0  0
 20 19  1  0  0  0  0
 21 22  1  1  0  0  0
 23 24  1  1  0  0  0
 23 21  1  0  0  0  0
 25 29  1  0  0  0  0
 25 23  1  1  0  0  0
 26 28  1  0  0  0  0
 26 30  1  0  0  0  0
 27 28  2  0  0  0  0
 28 29  1  0  0  0  0
 30 25  1  0  0  0  0
 31  9  1  0  0  0  0
 32 35  1  0  0  0  0
 33 32  2  0  0  0  0
 33 37  1  0  0  0  0
 34 36  1  0  0  0  0
 35 36  2  0  0  0  0
 36 31  1  0  0  0  0
 37 34  2  0  0  0  0
 38 33  1  0  0  0  0
 39 38  1  0  0  0  0
 40 42  1  0  0  0  0
 41 43  1  0  0  0  0
 42 41  2  0  0  0  0
M  END
>  <MODEL>
5

>  <REMARK>
 VINA RESULT:      -7.5      2.261      6.681
  Name = 
  13 active torsions:
  status: ('A' for Active; 'I' for Inactive)
    1  A    between atoms: C_1  and  N_34
    2  A    between atoms: C_1  and  C_35
    3  A    between atoms: C_2  and  C_6
    4  A    between atoms: C_2  and  C_13
    5  A    between atoms: C_3  and  C_4
    6  A    between atoms: C_3  and  C_12
    7  A    between atoms: C_3  and  C_15
    8  A    between atoms: C_4  and  C_14
    9  A    between atoms: C_6  and  C_12
   10  A    between atoms: C_11  and  C_14
   11  A    between atoms: C_18  and  C_24
   12  A    between atoms: C_19  and  O_25
   13  A    between atoms: C_21  and  C_24
                            x       y       z     vdW  Elec       q    Type
                         _______ _______ _______ _____ _____    ______ ____

>  <TORSDO>
F 13

$$$$
=
 OpenBabel10262422313D

 43 47  0  0  1  0  0  0  0  0999 V2000
  189.4640  177.1920  138.8070 C   0  0  2  0  0  3  0  0  0  0  0  0
  186.5880  177.2750  138.2790 C   0  0  1  0  0  3  0  0  0  0  0  0
  190.8900  174.8980  137.5890 C   0  0  1  0  0  3  0  0  0  0  0  0
  189.5210  175.3310  137.1020 C   0  0  0  0  0  0  0  0  0  0  0  0
  191.7070  174.5550  136.5090 O   0  0  0  0  0  1  0  0  0  0  0  0
  187.4980  176.7600  137.1710 C   0  0  0  0  0  2  0  0  0  0  0  0
  188.8310  176.3230  137.7200 C   0  0  0  0  0  0  0  0  0  0  0  0
  190.6340  176.4710  139.4830 C   0  0  0  0  0  2  0  0  0  0  0  0
  188.4650  177.5980  139.8120 N   0  0  0  0  0  0  0  0  0  0  0  0
  187.3490  178.2710  139.1510 C   0  0  0  0  0  2  0  0  0  0  0  0
  191.5890  175.9610  138.4250 C   0  0  0  0  0  2  0  0  0  0  0  0
  185.3050  177.8650  137.6880 C   0  0  1  0  0  3  0  0  0  0  0  0
  184.8510  177.0590  136.4810 C   0  0  0  0  0  1  0  0  0  0  0  0
  184.1810  177.9720  138.7160 C   0  0  0  0  0  2  0  0  0  0  0  0
  183.4830  179.3370  138.7190 C   0  0  2  0  0  3  0  0  0  0  0  0
  184.3530  180.3710  139.0790 O   0  0  0  0  0  1  0  0  0  0  0  0
  182.1170  179.4150  139.4440 C   0  0  1  0  0  3  0  0  0  0  0  0
  181.1830  180.2430  137.2880 C   0  0  0  0  0  2  0  0  0  0  0  0
  180.9150  179.3760  138.5020 C   0  0  0  0  0  3  0  0  0  0  0  0
  180.2950  180.7560  138.3980 C   0  0  0  0  0  2  0  0  0  0  0  0
  181.9060  178.5130  140.6730 C   0  0  2  0  0  3  0  0  0  0  0  0
  180.6800  177.8460  140.6130 O   0  0  0  0  0  1  0  0  0  0  0  0
  182.1240  179.2060  142.0220 C   0  0  1  0  0  3  0  0  0  0  0  0
  180.9030  179.3890  142.6810 O   0  0  0  0  0  1  0  0  0  0  0  0
  183.0730  178.3990  142.9040 C   0  0  2  0  0  3  0  0  0  0  0  0
  185.2060  178.8760  144.0410 C   0  0  0  0  0  2  0  0  0  0  0  0
  184.2280  179.0020  146.1970 O   0  0  0  0  0  0  0  0  0  0  0  0
  184.0820  178.8390  144.9980 C   0  0  0  0  0  0  0  0  0  0  0  0
  182.7600  178.6200  144.3770 C   0  0  0  0  0  2  0  0  0  0  0  0
  184.5310  178.8200  142.6830 C   0  0  0  0  0  2  0  0  0  0  0  0
  189.0690  178.5990  140.6840 C   0  0  0  0  0  2  0  0  0  0  0  0
  189.9410  178.1720  144.3460 C   0  0  0  0  0  3  0  0  0  0  0  0
  189.0250  177.1910  144.7430 C   0  0  0  0  0  0  0  0  0  0  0  0
  188.1240  177.1420  142.4860 C   0  0  0  0  0  3  0  0  0  0  0  0
  189.9490  178.6380  143.0270 C   0  0  0  0  0  3  0  0  0  0  0  0
  189.0380  178.1270  142.0980 C   0  0  0  0  0  0  0  0  0  0  0  0
  188.1140  176.6760  143.8040 C   0  0  0  0  0  3  0  0  0  0  0  0
  189.0440  176.7460  146.0670 O   0  0  0  0  0  0  0  0  0  0  0  0
  190.2170  176.7690  146.8700 C   0  0  0  0  0  1  0  0  0  0  0  0
  188.8700  174.5090  136.0210 C   0  0  0  0  0  2  0  0  0  0  0  0
  187.5290  172.6040  136.9360 C   0  0  0  0  0  3  0  0  0  0  0  0
  188.6850  173.0880  136.4670 C   0  0  0  0  0  3  0  0  0  0  0  0
  186.2980  173.4380  137.0810 C   0  0  0  0  0  1  0  0  0  0  0  0
  1  8  1  1  0  0  0
  1  9  1  0  0  0  0
  2 12  1  6  0  0  0
  2 10  1  0  0  0  0
  3  5  1  6  0  0  0
  3 11  1  0  0  0  0
  4  3  1  0  0  0  0
  4  7  2  0  0  0  0
  6  7  1  0  0  0  0
  6  2  1  0  0  0  0
  7  1  1  0  0  0  0
  9 31  1  0  0  0  0
 10  9  1  0  0  0  0
 11  8  1  0  0  0  0
 12 13  1  6  0  0  0
 12 14  1  0  0  0  0
 14 15  1  0  0  0  0
 15 16  1  1  0  0  0
 17 15  1  6  0  0  0
 17 21  1  0  0  0  0
 18 20  1  0  0  0  0
 18 19  1  0  0  0  0
 19 17  1  0  0  0  0
 20 19  1  0  0  0  0
 21 22  1  1  0  0  0
 21 23  1  0  0  0  0
 23 24  1  1  0  0  0
 25 23  1  6  0  0  0
 25 29  1  0  0  0  0
 26 28  1  0  0  0  0
 28 27  2  0  0  0  0
 29 28  1  0  0  0  0
 30 25  1  0  0  0  0
 30 26  1  0  0  0  0
 31 36  1  0  0  0  0
 32 33  1  0  0  0  0
 33 38  1  0  0  0  0
 34 37  1  0  0  0  0
 35 32  2  0  0  0  0
 36 34  2  0  0  0  0
 36 35  1  0  0  0  0
 37 33  2  0  0  0  0
 38 39  1  0  0  0  0
 40 42  1  0  0  0  0
 40  4  1  0  0  0  0
 41 43  1  0  0  0  0
 42 41  2  0  0  0  0
M  END
>  <MODEL>
6

>  <REMARK>
 VINA RESULT:      -7.3      1.279      2.165
  Name = 
  13 active torsions:
  status: ('A' for Active; 'I' for Inactive)
    1  A    between atoms: C_1  and  N_34
    2  A    between atoms: C_1  and  C_35
    3  A    between atoms: C_2  and  C_6
    4  A    between atoms: C_2  and  C_13
    5  A    between atoms: C_3  and  C_4
    6  A    between atoms: C_3  and  C_12
    7  A    between atoms: C_3  and  C_15
    8  A    between atoms: C_4  and  C_14
    9  A    between atoms: C_6  and  C_12
   10  A    between atoms: C_11  and  C_14
   11  A    between atoms: C_18  and  C_24
   12  A    between atoms: C_19  and  O_25
   13  A    between atoms: C_21  and  C_24
                            x       y       z     vdW  Elec       q    Type
                         _______ _______ _______ _____ _____    ______ ____

>  <TORSDO>
F 13

$$$$
=
 OpenBabel10262422313D

 43 47  0  0  1  0  0  0  0  0999 V2000
  190.0110  176.8170  142.4270 C   0  0  2  0  0  3  0  0  0  0  0  0
  187.4070  178.1400  142.2700 C   0  0  1  0  0  3  0  0  0  0  0  0
  191.4260  177.1490  145.0100 C   0  0  1  0  0  3  0  0  0  0  0  0
  189.9360  177.3970  144.8830 C   0  0  0  0  0  0  0  0  0  0  0  0
  191.7100  176.4830  146.2040 O   0  0  0  0  0  1  0  0  0  0  0  0
  187.8150  177.5340  143.6070 C   0  0  0  0  0  2  0  0  0  0  0  0
  189.3070  177.3330  143.6810 C   0  0  0  0  0  0  0  0  0  0  0  0
  191.5320  176.9650  142.5430 C   0  0  0  0  0  2  0  0  0  0  0  0
  189.5230  177.5080  141.2200 N   0  0  0  0  0  0  0  0  0  0  0  0
  188.0700  177.3710  141.1300 C   0  0  0  0  0  2  0  0  0  0  0  0
  191.9980  176.3510  143.8470 C   0  0  0  0  0  2  0  0  0  0  0  0
  185.8820  178.1840  142.1450 C   0  0  1  0  0  3  0  0  0  0  0  0
  185.2320  178.1830  143.5200 C   0  0  0  0  0  1  0  0  0  0  0  0
  185.3960  179.3750  141.3220 C   0  0  0  0  0  2  0  0  0  0  0  0
  184.5770  178.9730  140.0890 C   0  0  2  0  0  3  0  0  0  0  0  0
  184.4910  180.0090  139.1550 O   0  0  0  0  0  1  0  0  0  0  0  0
  183.2160  178.2830  140.3560 C   0  0  1  0  0  3  0  0  0  0  0  0
  181.8610  178.9430  142.3410 C   0  0  0  0  0  2  0  0  0  0  0  0
  182.1370  179.2310  140.8770 C   0  0  0  0  0  3  0  0  0  0  0  0
  180.9070  178.4400  141.2810 C   0  0  0  0  0  2  0  0  0  0  0  0
  182.6680  177.3370  139.2740 C   0  0  2  0  0  3  0  0  0  0  0  0
  183.0440  176.0130  139.5140 O   0  0  0  0  0  1  0  0  0  0  0  0
  182.9640  177.7710  137.8340 C   0  0  1  0  0  3  0  0  0  0  0  0
  183.5350  176.7160  137.1130 O   0  0  0  0  0  1  0  0  0  0  0  0
  181.6940  178.2490  137.1360 C   0  0  2  0  0  3  0  0  0  0  0  0
  179.3670  178.6350  137.8480 C   0  0  0  0  0  2  0  0  0  0  0  0
  179.5750  180.9970  137.8410 O   0  0  0  0  0  0  0  0  0  0  0  0
  180.0950  179.9090  137.6730 C   0  0  0  0  0  0  0  0  0  0  0  0
  181.5180  179.7510  137.3060 C   0  0  0  0  0  2  0  0  0  0  0  0
  180.4470  177.5770  137.7250 C   0  0  0  0  0  2  0  0  0  0  0  0
  190.0580  176.8230  140.0480 C   0  0  0  0  0  2  0  0  0  0  0  0
  188.6440  179.0480  137.3280 C   0  0  0  0  0  3  0  0  0  0  0  0
  187.9230  178.1300  136.5560 C   0  0  0  0  0  0  0  0  0  0  0  0
  188.6120  176.3500  138.0600 C   0  0  0  0  0  3  0  0  0  0  0  0
  189.3470  178.6220  138.4590 C   0  0  0  0  0  3  0  0  0  0  0  0
  189.3360  177.2720  138.8230 C   0  0  0  0  0  0  0  0  0  0  0  0
  187.9100  176.7750  136.9290 C   0  0  0  0  0  3  0  0  0  0  0  0
  187.2300  178.5880  135.4330 O   0  0  0  0  0  0  0  0  0  0  0  0
  186.3470  177.7630  134.6850 C   0  0  0  0  0  1  0  0  0  0  0  0
  189.2010  177.8920  146.1010 C   0  0  0  0  0  2  0  0  0  0  0  0
  188.3080  176.9110  148.2230 C   0  0  0  0  0  3  0  0  0  0  0  0
  188.8280  176.7510  147.0010 C   0  0  0  0  0  3  0  0  0  0  0  0
  188.0580  178.2530  148.8300 C   0  0  0  0  0  1  0  0  0  0  0  0
  1  8  1  1  0  0  0
  1  7  1  0  0  0  0
  2 12  1  6  0  0  0
  2  6  1  0  0  0  0
  3  5  1  1  0  0  0
  4  3  1  0  0  0  0
  4 40  1  0  0  0  0
  6  7  1  0  0  0  0
  7  4  2  0  0  0  0
  8 11  1  0  0  0  0
  9  1  1  0  0  0  0
 10  9  1  0  0  0  0
 10  2  1  0  0  0  0
 11  3  1  0  0  0  0
 12 13  1  1  0  0  0
 14 12  1  0  0  0  0
 15 16  1  1  0  0  0
 15 17  1  0  0  0  0
 15 14  1  0  0  0  0
 17 21  1  6  0  0  0
 17 19  1  0  0  0  0
 19 20  1  0  0  0  0
 19 18  1  0  0  0  0
 20 18  1  0  0  0  0
 21 22  1  1  0  0  0
 23 24  1  6  0  0  0
 23 21  1  0  0  0  0
 25 29  1  0  0  0  0
 25 30  1  0  0  0  0
 25 23  1  1  0  0  0
 28 27  2  0  0  0  0
 28 26  1  0  0  0  0
 29 28  1  0  0  0  0
 30 26  1  0  0  0  0
 31  9  1  0  0  0  0
 32 35  1  0  0  0  0
 33 37  1  0  0  0  0
 33 32  2  0  0  0  0
 34 36  1  0  0  0  0
 35 36  2  0  0  0  0
 36 31  1  0  0  0  0
 37 34  2  0  0  0  0
 38 33  1  0  0  0  0
 39 38  1  0  0  0  0
 40 42  1  0  0  0  0
 41 43  1  0  0  0  0
 42 41  2  0  0  0  0
M  END
>  <MODEL>
7

>  <REMARK>
 VINA RESULT:      -7.2      2.194      6.700
  Name = 
  13 active torsions:
  status: ('A' for Active; 'I' for Inactive)
    1  A    between atoms: C_1  and  N_34
    2  A    between atoms: C_1  and  C_35
    3  A    between atoms: C_2  and  C_6
    4  A    between atoms: C_2  and  C_13
    5  A    between atoms: C_3  and  C_4
    6  A    between atoms: C_3  and  C_12
    7  A    between atoms: C_3  and  C_15
    8  A    between atoms: C_4  and  C_14
    9  A    between atoms: C_6  and  C_12
   10  A    between atoms: C_11  and  C_14
   11  A    between atoms: C_18  and  C_24
   12  A    between atoms: C_19  and  O_25
   13  A    between atoms: C_21  and  C_24
                            x       y       z     vdW  Elec       q    Type
                         _______ _______ _______ _____ _____    ______ ____

>  <TORSDO>
F 13

$$$$
=
 OpenBabel10262422313D

 43 47  0  0  1  0  0  0  0  0999 V2000
  183.8690  178.6220  139.0430 C   0  0  2  0  0  3  0  0  0  0  0  0
  184.8050  178.2630  141.7910 C   0  0  1  0  0  3  0  0  0  0  0  0
  181.0670  177.7840  138.5600 C   0  0  1  0  0  3  0  0  0  0  0  0
  181.5840  178.0580  139.9580 C   0  0  0  0  0  0  0  0  0  0  0  0
  179.7750  178.2930  138.4090 O   0  0  0  0  0  1  0  0  0  0  0  0
  183.3520  178.6710  141.5840 C   0  0  0  0  0  2  0  0  0  0  0  0
  182.8900  178.3530  140.1860 C   0  0  0  0  0  0  0  0  0  0  0  0
  183.3970  177.9660  137.7410 C   0  0  0  0  0  2  0  0  0  0  0  0
  185.2250  178.1590  139.3840 N   0  0  0  0  0  0  0  0  0  0  0  0
  185.6560  178.7820  140.6350 C   0  0  0  0  0  2  0  0  0  0  0  0
  181.9600  178.3620  137.4710 C   0  0  0  0  0  2  0  0  0  0  0  0
  185.3060  178.7400  143.1560 C   0  0  1  0  0  3  0  0  0  0  0  0
  184.2290  179.5390  143.8740 C   0  0  0  0  0  1  0  0  0  0  0  0
  185.7970  177.5910  144.0340 C   0  0  0  0  0  2  0  0  0  0  0  0
  187.3100  177.6150  144.2830 C   0  0  2  0  0  3  0  0  0  0  0  0
  187.9630  176.5450  143.6630 O   0  0  0  0  0  1  0  0  0  0  0  0
  187.7670  177.8370  145.7460 C   0  0  1  0  0  3  0  0  0  0  0  0
  186.1480  179.2860  146.9670 C   0  0  0  0  0  2  0  0  0  0  0  0
  186.6200  177.8600  146.7540 C   0  0  0  0  0  3  0  0  0  0  0  0
  187.0370  178.6250  147.9950 C   0  0  0  0  0  2  0  0  0  0  0  0
  188.9570  177.0080  146.2580 C   0  0  2  0  0  3  0  0  0  0  0  0
  188.5900  176.1960  147.3340 O   0  0  0  0  0  1  0  0  0  0  0  0
  190.2250  177.8180  146.5520 C   0  0  1  0  0  3  0  0  0  0  0  0
  190.7070  177.5260  147.8330 O   0  0  0  0  0  1  0  0  0  0  0  0
  191.3060  177.5350  145.5140 C   0  0  2  0  0  3  0  0  0  0  0  0
  191.5060  176.0020  143.5940 C   0  0  0  0  0  2  0  0  0  0  0  0
  191.2070  177.7110  141.9780 O   0  0  0  0  0  0  0  0  0  0  0  0
  191.2670  177.3920  143.1520 C   0  0  0  0  0  0  0  0  0  0  0  0
  191.0740  178.3570  144.2530 C   0  0  0  0  0  2  0  0  0  0  0  0
  191.3070  176.0590  145.0970 C   0  0  0  0  0  2  0  0  0  0  0  0
  186.1490  178.6440  138.3640 C   0  0  0  0  0  2  0  0  0  0  0  0
  189.6980  177.4480  138.9320 C   0  0  0  0  0  3  0  0  0  0  0  0
  189.7000  176.2290  138.2450 C   0  0  0  0  0  0  0  0  0  0  0  0
  187.3700  176.5800  137.6480 C   0  0  0  0  0  3  0  0  0  0  0  0
  188.5390  178.2290  138.9790 C   0  0  0  0  0  3  0  0  0  0  0  0
  187.3730  177.7950  138.3420 C   0  0  0  0  0  0  0  0  0  0  0  0
  188.5270  175.7970  137.6000 C   0  0  0  0  0  3  0  0  0  0  0  0
  190.8740  175.4730  138.2150 O   0  0  0  0  0  0  0  0  0  0  0  0
  191.1690  174.5510  137.1730 C   0  0  0  0  0  1  0  0  0  0  0  0
  180.6450  177.8190  141.1120 C   0  0  0  0  0  2  0  0  0  0  0  0
  179.9480  179.4730  142.8560 C   0  0  0  0  0  3  0  0  0  0  0  0
  180.0250  179.1050  141.5720 C   0  0  0  0  0  3  0  0  0  0  0  0
  180.4610  178.6270  143.9750 C   0  0  0  0  0  1  0  0  0  0  0  0
  1  8  1  6  0  0  0
  1  9  1  0  0  0  0
  1  7  1  0  0  0  0
  2 12  1  1  0  0  0
  3  5  1  1  0  0  0
  3  4  1  0  0  0  0
  4  7  2  0  0  0  0
  4 40  1  0  0  0  0
  6  2  1  0  0  0  0
  7  6  1  0  0  0  0
  9 10  1  0  0  0  0
 10  2  1  0  0  0  0
 11  8  1  0  0  0  0
 11  3  1  0  0  0  0
 12 13  1  1  0  0  0
 12 14  1  0  0  0  0
 14 15  1  0  0  0  0
 15 16  1  1  0  0  0
 17 15  1  6  0  0  0
 17 21  1  0  0  0  0
 17 19  1  0  0  0  0
 18 20  1  0  0  0  0
 19 18  1  0  0  0  0
 19 20  1  0  0  0  0
 21 23  1  0  0  0  0
 21 22  1  1  0  0  0
 23 24  1  1  0  0  0
 25 23  1  1  0  0  0
 26 30  1  0  0  0  0
 27 28  2  0  0  0  0
 28 26  1  0  0  0  0
 28 29  1  0  0  0  0
 29 25  1  0  0  0  0
 30 25  1  0  0  0  0
 31  9  1  0  0  0  0
 32 35  1  0  0  0  0
 33 32  2  0  0  0  0
 34 36  1  0  0  0  0
 36 31  1  0  0  0  0
 36 35  2  0  0  0  0
 37 34  2  0  0  0  0
 37 33  1  0  0  0  0
 38 33  1  0  0  0  0
 39 38  1  0  0  0  0
 40 42  1  0  0  0  0
 41 43  1  0  0  0  0
 42 41  2  0  0  0  0
M  END
>  <MODEL>
8

>  <REMARK>
 VINA RESULT:      -7.2      2.166      8.768
  Name = 
  13 active torsions:
  status: ('A' for Active; 'I' for Inactive)
    1  A    between atoms: C_1  and  N_34
    2  A    between atoms: C_1  and  C_35
    3  A    between atoms: C_2  and  C_6
    4  A    between atoms: C_2  and  C_13
    5  A    between atoms: C_3  and  C_4
    6  A    between atoms: C_3  and  C_12
    7  A    between atoms: C_3  and  C_15
    8  A    between atoms: C_4  and  C_14
    9  A    between atoms: C_6  and  C_12
   10  A    between atoms: C_11  and  C_14
   11  A    between atoms: C_18  and  C_24
   12  A    between atoms: C_19  and  O_25
   13  A    between atoms: C_21  and  C_24
                            x       y       z     vdW  Elec       q    Type
                         _______ _______ _______ _____ _____    ______ ____

>  <TORSDO>
F 13

$$$$
=
 OpenBabel10262422313D

 43 47  0  0  1  0  0  0  0  0999 V2000
  185.4080  178.0500  144.6960 C   0  0  2  0  0  3  0  0  0  0  0  0
  187.8840  178.0780  143.1390 C   0  0  1  0  0  3  0  0  0  0  0  0
  183.0540  179.2090  143.3180 C   0  0  1  0  0  3  0  0  0  0  0  0
  184.2850  178.7670  142.5520 C   0  0  0  0  0  0  0  0  0  0  0  0
  181.8940  178.8500  142.6280 O   0  0  0  0  0  1  0  0  0  0  0  0
  186.5780  177.8400  142.3910 C   0  0  0  0  0  2  0  0  0  0  0  0
  185.3960  178.3210  143.1920 C   0  0  0  0  0  0  0  0  0  0  0  0
  184.3240  178.8590  145.4150 C   0  0  0  0  0  2  0  0  0  0  0  0
  186.7300  178.3400  145.2780 N   0  0  0  0  0  0  0  0  0  0  0  0
  187.7560  177.5730  144.5740 C   0  0  0  0  0  2  0  0  0  0  0  0
  182.9920  178.6360  144.7280 C   0  0  0  0  0  2  0  0  0  0  0  0
  189.0550  177.4390  142.3880 C   0  0  1  0  0  3  0  0  0  0  0  0
  189.2620  176.0020  142.8420 C   0  0  0  0  0  1  0  0  0  0  0  0
  188.8860  177.5040  140.8720 C   0  0  0  0  0  2  0  0  0  0  0  0
  190.1340  177.0650  140.0980 C   0  0  2  0  0  3  0  0  0  0  0  0
  191.3040  177.6210  140.6260 O   0  0  0  0  0  1  0  0  0  0  0  0
  190.0610  177.1620  138.5540 C   0  0  1  0  0  3  0  0  0  0  0  0
  191.6050  175.6190  137.3520 C   0  0  0  0  0  2  0  0  0  0  0  0
  190.1840  175.8150  137.8440 C   0  0  0  0  0  3  0  0  0  0  0  0
  190.5210  176.0310  136.3820 C   0  0  0  0  0  2  0  0  0  0  0  0
  188.9450  178.0270  137.9430 C   0  0  2  0  0  3  0  0  0  0  0  0
  189.1110  179.3770  138.2630 O   0  0  0  0  0  1  0  0  0  0  0  0
  187.5230  177.5350  138.2310 C   0  0  1  0  0  3  0  0  0  0  0  0
  186.7140  178.5950  138.6560 O   0  0  0  0  0  1  0  0  0  0  0  0
  186.9110  176.8800  136.9960 C   0  0  2  0  0  3  0  0  0  0  0  0
  185.3270  175.0300  136.6210 C   0  0  0  0  0  2  0  0  0  0  0  0
  183.5240  176.4600  136.0500 O   0  0  0  0  0  0  0  0  0  0  0  0
  184.6850  176.3430  136.4000 C   0  0  0  0  0  0  0  0  0  0  0  0
  185.5610  177.5020  136.6680 C   0  0  0  0  0  2  0  0  0  0  0  0
  186.6770  175.3800  137.2180 C   0  0  0  0  0  2  0  0  0  0  0  0
  186.7470  177.8520  146.6530 C   0  0  0  0  0  2  0  0  0  0  0  0
  190.3050  176.5870  146.9480 C   0  0  0  0  0  3  0  0  0  0  0  0
  190.7810  177.3290  148.0350 C   0  0  0  0  0  0  0  0  0  0  0  0
  188.6210  178.4280  148.2090 C   0  0  0  0  0  3  0  0  0  0  0  0
  188.9950  176.7640  146.4920 C   0  0  0  0  0  3  0  0  0  0  0  0
  188.1530  177.6870  147.1180 C   0  0  0  0  0  0  0  0  0  0  0  0
  189.9300  178.2530  148.6650 C   0  0  0  0  0  3  0  0  0  0  0  0
  192.0940  177.1280  148.4670 O   0  0  0  0  0  0  0  0  0  0  0  0
  192.8070  175.9210  148.2270 C   0  0  0  0  0  1  0  0  0  0  0  0
  184.3060  179.0020  141.0640 C   0  0  0  0  0  2  0  0  0  0  0  0
  182.9190  177.9360  139.2740 C   0  0  0  0  0  3  0  0  0  0  0  0
  183.7360  177.8260  140.3280 C   0  0  0  0  0  3  0  0  0  0  0  0
  182.4730  179.2530  138.7280 C   0  0  0  0  0  1  0  0  0  0  0  0
  1  9  1  0  0  0  0
  1  8  1  1  0  0  0
  2 12  1  6  0  0  0
  2 10  1  0  0  0  0
  3  5  1  6  0  0  0
  3 11  1  0  0  0  0
  4  7  2  0  0  0  0
  4  3  1  0  0  0  0
  6  2  1  0  0  0  0
  6  7  1  0  0  0  0
  7  1  1  0  0  0  0
  9 31  1  0  0  0  0
 10  9  1  0  0  0  0
 11  8  1  0  0  0  0
 12 13  1  1  0  0  0
 14 12  1  0  0  0  0
 15 16  1  1  0  0  0
 15 14  1  0  0  0  0
 17 21  1  1  0  0  0
 17 15  1  0  0  0  0
 18 19  1  0  0  0  0
 19 17  1  0  0  0  0
 20 18  1  0  0  0  0
 20 19  1  0  0  0  0
 21 23  1  0  0  0  0
 21 22  1  1  0  0  0
 23 24  1  6  0  0  0
 25 30  1  0  0  0  0
 25 23  1  1  0  0  0
 26 30  1  0  0  0  0
 27 28  2  0  0  0  0
 28 26  1  0  0  0  0
 28 29  1  0  0  0  0
 29 25  1  0  0  0  0
 31 36  1  0  0  0  0
 32 33  1  0  0  0  0
 33 38  1  0  0  0  0
 33 37  2  0  0  0  0
 34 37  1  0  0  0  0
 35 32  2  0  0  0  0
 35 36  1  0  0  0  0
 36 34  2  0  0  0  0
 39 38  1  0  0  0  0
 40  4  1  0  0  0  0
 41 42  2  0  0  0  0
 42 40  1  0  0  0  0
 43 41  1  0  0  0  0
M  END
>  <MODEL>
9

>  <REMARK>
 VINA RESULT:      -7.1      2.099      7.262
  Name = 
  13 active torsions:
  status: ('A' for Active; 'I' for Inactive)
    1  A    between atoms: C_1  and  N_34
    2  A    between atoms: C_1  and  C_35
    3  A    between atoms: C_2  and  C_6
    4  A    between atoms: C_2  and  C_13
    5  A    between atoms: C_3  and  C_4
    6  A    between atoms: C_3  and  C_12
    7  A    between atoms: C_3  and  C_15
    8  A    between atoms: C_4  and  C_14
    9  A    between atoms: C_6  and  C_12
   10  A    between atoms: C_11  and  C_14
   11  A    between atoms: C_18  and  C_24
   12  A    between atoms: C_19  and  O_25
   13  A    between atoms: C_21  and  C_24
                            x       y       z     vdW  Elec       q    Type
                         _______ _______ _______ _____ _____    ______ ____

>  <TORSDO>
F 13

$$$$
