=
 OpenBabel10262423323D

 34 39  0  0  1  0  0  0  0  0999 V2000
  182.7540  179.1170  139.3830 C   0  0  1  0  0  3  0  0  0  0  0  0
  183.1280  178.4780  143.1310 C   0  0  0  0  0  2  0  0  0  0  0  0
  184.4000  177.2940  138.5250 C   0  0  2  0  0  3  0  0  0  0  0  0
  181.1480  178.5420  141.7230 C   0  0  0  0  0  2  0  0  0  0  0  0
  183.2100  175.4870  136.4420 C   0  0  0  0  0  2  0  0  0  0  0  0
  187.4870  177.5550  135.4370 C   0  0  0  0  0  0  0  0  0  0  0  0
  182.1830  177.4660  137.6830 C   0  0  2  0  0  3  0  0  0  0  0  0
  183.3200  178.3230  138.1800 C   0  0  1  0  0  3  0  0  0  0  0  0
  187.7470  178.0520  136.7980 C   0  0  0  0  0  0  0  0  0  0  0  0
  186.6190  178.1700  137.7770 C   0  0  0  0  0  2  0  0  0  0  0  0
  188.4180  177.4760  134.5940 O   0  0  0  0  0  0  0  0  0  0  0  0
  185.5050  177.1700  137.4670 C   0  0  2  0  0  3  0  0  0  0  0  0
  181.0520  177.6770  138.6650 C   0  0  2  0  0  3  0  0  0  0  0  0
  179.8370  177.6870  137.9780 O   0  0  0  0  0  1  0  0  0  0  0  0
  180.4890  179.1330  140.4910 C   0  0  2  0  0  3  0  0  0  0  0  0
  181.2880  178.9760  139.2740 N   0  0  1  0  0  0  0  0  0  0  0  0
  188.9050  178.4190  137.1320 O   0  0  0  0  0  0  0  0  0  0  0  0
  184.2960  179.3150  143.6330 C   0  0  0  0  0  2  0  0  0  0  0  0
  185.6440  178.8990  143.0290 C   0  0  2  0  0  3  0  0  0  0  0  0
  185.0450  177.3290  135.9960 C   0  0  2  0  0  3  0  0  0  0  0  0
  185.6170  178.5130  141.5470 C   0  0  0  0  0  2  0  0  0  0  0  0
  183.8270  176.5290  135.4980 C   0  0  0  0  0  2  0  0  0  0  0  0
  186.1690  177.1260  135.0880 N   0  0  0  0  0  2  0  0  0  0  0  0
  182.7180  176.0440  137.7870 C   0  0  2  0  0  3  0  0  0  0  0  0
  183.7830  176.0470  138.6960 O   0  0  0  0  0  0  0  0  0  0  0  0
  182.5540  179.0680  141.8420 C   0  0  2  0  0  3  0  0  0  0  0  0
  184.6320  179.3530  140.7500 C   0  0  0  0  0  2  0  0  0  0  0  0
  183.3420  178.6640  140.6680 N   0  0  2  0  0  0  0  0  0  0  0  0
  186.2850  177.8200  143.8390 C   0  0  0  0  0  0  0  0  0  0  0  0
  185.9620  177.6720  145.0460 O   0  0  0  0  0  0  0  0  0  0  0  0
  187.2540  176.9530  143.2550 N   0  0  0  0  0  1  0  0  0  0  0  0
  179.2070  180.8010  141.9420 C   0  0  0  0  0  1  0  0  0  0  0  0
  179.9670  180.5690  140.6450 C   0  0  0  0  0  3  0  0  0  0  0  0
  179.1130  180.9740  139.4580 C   0  0  0  0  0  1  0  0  0  0  0  0
  1 28  1  0  0  0  0
  2 18  1  0  0  0  0
  3 25  1  0  0  0  0
  4 26  1  0  0  0  0
  5 24  1  0  0  0  0
  6  9  1  0  0  0  0
  7 24  1  0  0  0  0
  7  8  1  0  0  0  0
  7 13  1  0  0  0  0
  8  3  1  0  0  0  0
  8  1  1  0  0  0  0
  9 17  2  0  0  0  0
  9 10  1  0  0  0  0
 11  6  2  0  0  0  0
 12 10  1  0  0  0  0
 12  3  1  0  0  0  0
 13 16  1  0  0  0  0
 14 13  1  0  0  0  0
 15 33  1  0  0  0  0
 15  4  1  0  0  0  0
 16  1  1  0  0  0  0
 16 15  1  0  0  0  0
 19 18  1  0  0  0  0
 19 29  1  0  0  0  0
 20 12  1  0  0  0  0
 21 19  1  0  0  0  0
 22 20  1  0  0  0  0
 22  5  1  0  0  0  0
 23  6  1  0  0  0  0
 23 20  1  0  0  0  0
 24 25  1  0  0  0  0
 26  2  1  0  0  0  0
 27 21  1  0  0  0  0
 28 27  1  0  0  0  0
 28 26  1  0  0  0  0
 29 30  2  0  0  0  0
 31 29  1  0  0  0  0
 33 32  1  0  0  0  0
 34 33  1  0  0  0  0
M  END
>  <MODEL>
1

>  <REMARK>
 VINA RESULT:      -6.6      0.000      0.000
  Name = 
  2 active torsions:
  status: ('A' for Active; 'I' for Inactive)
    1  A    between atoms: C_3  and  C_25
    2  A    between atoms: C_12  and  C_19
                            x       y       z     vdW  Elec       q    Type
                         _______ _______ _______ _____ _____    ______ ____

>  <TORSDO>
F 2

$$$$
=
 OpenBabel10262423323D

 34 39  0  0  1  0  0  0  0  0999 V2000
  182.4040  176.5660  138.3720 C   0  0  1  0  0  3  0  0  0  0  0  0
  184.8530  177.2970  135.5330 C   0  0  0  0  0  2  0  0  0  0  0  0
  182.8980  178.6550  139.8420 C   0  0  2  0  0  3  0  0  0  0  0  0
  182.4640  176.8540  135.4910 C   0  0  0  0  0  2  0  0  0  0  0  0
  180.4340  180.1900  140.6110 C   0  0  0  0  0  2  0  0  0  0  0  0
  183.5000  178.9430  144.1640 C   0  0  0  0  0  0  0  0  0  0  0  0
  180.6800  178.0660  139.2190 C   0  0  2  0  0  3  0  0  0  0  0  0
  182.0020  177.4390  139.5850 C   0  0  1  0  0  3  0  0  0  0  0  0
  184.5990  178.5160  143.2840 C   0  0  0  0  0  0  0  0  0  0  0  0
  184.3220  178.1990  141.8450 C   0  0  0  0  0  2  0  0  0  0  0  0
  183.7100  179.1870  145.3820 O   0  0  0  0  0  0  0  0  0  0  0  0
  183.1080  178.9720  141.3280 C   0  0  2  0  0  3  0  0  0  0  0  0
  180.4160  177.6580  137.7870 C   0  0  2  0  0  3  0  0  0  0  0  0
  179.0530  177.4160  137.6160 O   0  0  0  0  0  1  0  0  0  0  0  0
  181.2970  176.1390  136.1460 C   0  0  2  0  0  3  0  0  0  0  0  0
  181.1670  176.4310  137.5750 N   0  0  1  0  0  0  0  0  0  0  0  0
  185.7640  178.3730  143.7410 O   0  0  0  0  0  0  0  0  0  0  0  0
  186.2000  176.6960  135.9110 C   0  0  0  0  0  2  0  0  0  0  0  0
  186.8290  177.3500  137.1480 C   0  0  2  0  0  3  0  0  0  0  0  0
  181.8880  178.7170  142.2470 C   0  0  2  0  0  3  0  0  0  0  0  0
  185.8570  177.7110  138.2760 C   0  0  0  0  0  2  0  0  0  0  0  0
  180.5100  179.2720  141.8400 C   0  0  0  0  0  2  0  0  0  0  0  0
  182.1910  179.1170  143.6180 N   0  0  0  0  0  2  0  0  0  0  0  0
  180.9430  179.5630  139.3040 C   0  0  2  0  0  3  0  0  0  0  0  0
  182.3250  179.7670  139.2090 O   0  0  0  0  0  0  0  0  0  0  0  0
  183.7190  176.5990  136.2840 C   0  0  2  0  0  3  0  0  0  0  0  0
  184.7350  176.6950  138.4170 C   0  0  0  0  0  2  0  0  0  0  0  0
  183.5680  177.1320  137.6470 N   0  0  2  0  0  0  0  0  0  0  0  0
  187.6530  178.5370  136.7690 C   0  0  0  0  0  0  0  0  0  0  0  0
  187.1370  179.6840  136.7900 O   0  0  0  0  0  0  0  0  0  0  0  0
  189.0180  178.3820  136.3910 N   0  0  0  0  0  1  0  0  0  0  0  0
  180.4340  174.3020  134.5940 C   0  0  0  0  0  1  0  0  0  0  0  0
  181.2020  174.6320  135.8640 C   0  0  0  0  0  3  0  0  0  0  0  0
  180.6050  173.8890  137.0440 C   0  0  0  0  0  1  0  0  0  0  0  0
  1  8  1  0  0  0  0
  2 18  1  0  0  0  0
  2 26  1  0  0  0  0
  3 12  1  0  0  0  0
  4 15  1  0  0  0  0
  4 26  1  0  0  0  0
  5 22  1  0  0  0  0
  6 11  2  0  0  0  0
  7 24  1  0  0  0  0
  7  8  1  0  0  0  0
  8  3  1  0  0  0  0
  9 17  2  0  0  0  0
  9  6  1  0  0  0  0
 10  9  1  0  0  0  0
 12 10  1  0  0  0  0
 12 20  1  0  0  0  0
 13  7  1  0  0  0  0
 14 13  1  0  0  0  0
 15 16  1  0  0  0  0
 16 13  1  0  0  0  0
 16  1  1  0  0  0  0
 18 19  1  0  0  0  0
 19 21  1  0  0  0  0
 20 23  1  0  0  0  0
 21 27  1  0  0  0  0
 22 20  1  0  0  0  0
 23  6  1  0  0  0  0
 24  5  1  0  0  0  0
 25 24  1  0  0  0  0
 25  3  1  0  0  0  0
 26 28  1  0  0  0  0
 28  1  1  0  0  0  0
 28 27  1  0  0  0  0
 29 30  2  0  0  0  0
 29 19  1  0  0  0  0
 31 29  1  0  0  0  0
 32 33  1  0  0  0  0
 33 15  1  0  0  0  0
 33 34  1  0  0  0  0
M  END
>  <MODEL>
2

>  <REMARK>
 VINA RESULT:      -6.1      1.977      6.451
  Name = 
  2 active torsions:
  status: ('A' for Active; 'I' for Inactive)
    1  A    between atoms: C_3  and  C_25
    2  A    between atoms: C_12  and  C_19
                            x       y       z     vdW  Elec       q    Type
                         _______ _______ _______ _____ _____    ______ ____

>  <TORSDO>
F 2

$$$$
=
 OpenBabel10262423323D

 34 39  0  0  1  0  0  0  0  0999 V2000
  189.4700  174.5340  137.3930 C   0  0  1  0  0  3  0  0  0  0  0  0
  192.4410  174.3350  134.9990 C   0  0  0  0  0  2  0  0  0  0  0  0
  189.9580  176.8830  138.4010 C   0  0  2  0  0  3  0  0  0  0  0  0
  190.0580  174.0800  134.5940 C   0  0  0  0  0  2  0  0  0  0  0  0
  187.6060  178.7470  138.2910 C   0  0  0  0  0  2  0  0  0  0  0  0
  189.8410  178.2060  142.5680 C   0  0  0  0  0  0  0  0  0  0  0  0
  187.8240  176.3280  137.5090 C   0  0  2  0  0  3  0  0  0  0  0  0
  188.9770  175.7140  138.2650 C   0  0  1  0  0  3  0  0  0  0  0  0
  191.0140  177.4860  142.0450 C   0  0  0  0  0  0  0  0  0  0  0  0
  190.9510  176.8400  140.6950 C   0  0  0  0  0  2  0  0  0  0  0  0
  189.8680  178.7320  143.7120 O   0  0  0  0  0  0  0  0  0  0  0  0
  189.9480  177.5480  139.7840 C   0  0  2  0  0  3  0  0  0  0  0  0
  187.7620  175.5930  136.1900 C   0  0  2  0  0  3  0  0  0  0  0  0
  186.4290  175.4210  135.8160 O   0  0  0  0  0  1  0  0  0  0  0  0
  188.7180  173.6460  135.1550 C   0  0  2  0  0  3  0  0  0  0  0  0
  188.3810  174.2980  136.4230 N   0  0  1  0  0  0  0  0  0  0  0  0
  192.0570  177.3750  142.7430 O   0  0  0  0  0  0  0  0  0  0  0  0
  193.6190  173.7460  135.7640 C   0  0  0  0  0  2  0  0  0  0  0  0
  194.1020  174.6410  136.9130 C   0  0  2  0  0  3  0  0  0  0  0  0
  188.5660  177.6280  140.4790 C   0  0  2  0  0  3  0  0  0  0  0  0
  193.0030  175.3490  137.7120 C   0  0  0  0  0  2  0  0  0  0  0  0
  187.3570  178.1660  139.6900 C   0  0  0  0  0  2  0  0  0  0  0  0
  188.6760  178.3360  141.7500 N   0  0  0  0  0  2  0  0  0  0  0  0
  188.2510  177.7730  137.2930 C   0  0  2  0  0  3  0  0  0  0  0  0
  189.6430  177.8390  137.4260 O   0  0  0  0  0  0  0  0  0  0  0  0
  191.1180  173.9380  135.6550 C   0  0  2  0  0  3  0  0  0  0  0  0
  191.7570  174.4910  137.8630 C   0  0  0  0  0  2  0  0  0  0  0  0
  190.8030  174.8070  136.7980 N   0  0  2  0  0  0  0  0  0  0  0  0
  195.1180  175.6260  136.4370 C   0  0  0  0  0  0  0  0  0  0  0  0
  196.3370  175.3130  136.4370 O   0  0  0  0  0  0  0  0  0  0  0  0
  194.7200  176.9150  135.9760 N   0  0  0  0  0  1  0  0  0  0  0  0
  189.6120  171.3180  134.5950 C   0  0  0  0  0  1  0  0  0  0  0  0
  188.4870  172.1290  135.2200 C   0  0  0  0  0  3  0  0  0  0  0  0
  187.1580  171.7470  134.5960 C   0  0  0  0  0  1  0  0  0  0  0  0
  1  8  1  0  0  0  0
  2 26  1  0  0  0  0
  2 18  1  0  0  0  0
  3 12  1  0  0  0  0
  4 15  1  0  0  0  0
  4 26  1  0  0  0  0
  5 22  1  0  0  0  0
  6 11  2  0  0  0  0
  7  8  1  0  0  0  0
  8  3  1  0  0  0  0
  9  6  1  0  0  0  0
  9 17  2  0  0  0  0
 10  9  1  0  0  0  0
 12 20  1  0  0  0  0
 12 10  1  0  0  0  0
 13 16  1  0  0  0  0
 13  7  1  0  0  0  0
 14 13  1  0  0  0  0
 15 33  1  0  0  0  0
 15 16  1  0  0  0  0
 16  1  1  0  0  0  0
 18 19  1  0  0  0  0
 19 21  1  0  0  0  0
 20 23  1  0  0  0  0
 21 27  1  0  0  0  0
 22 20  1  0  0  0  0
 23  6  1  0  0  0  0
 24 25  1  0  0  0  0
 24  7  1  0  0  0  0
 24  5  1  0  0  0  0
 25  3  1  0  0  0  0
 26 28  1  0  0  0  0
 28  1  1  0  0  0  0
 28 27  1  0  0  0  0
 29 30  2  0  0  0  0
 29 19  1  0  0  0  0
 31 29  1  0  0  0  0
 32 33  1  0  0  0  0
 34 33  1  0  0  0  0
M  END
>  <MODEL>
3

>  <REMARK>
 VINA RESULT:      -5.7      5.022      9.450
  Name = 
  2 active torsions:
  status: ('A' for Active; 'I' for Inactive)
    1  A    between atoms: C_3  and  C_25
    2  A    between atoms: C_12  and  C_19
                            x       y       z     vdW  Elec       q    Type
                         _______ _______ _______ _____ _____    ______ ____

>  <TORSDO>
F 2

$$$$
=
 OpenBabel10262423323D

 34 39  0  0  1  0  0  0  0  0999 V2000
  183.9540  175.2870  137.7130 C   0  0  1  0  0  3  0  0  0  0  0  0
  182.0860  172.3260  136.1830 C   0  0  0  0  0  2  0  0  0  0  0  0
  185.9560  175.3670  136.0520 C   0  0  2  0  0  3  0  0  0  0  0  0
  181.3370  174.5810  136.6940 C   0  0  0  0  0  2  0  0  0  0  0  0
  186.4200  178.0850  134.8630 C   0  0  0  0  0  2  0  0  0  0  0  0
  190.2290  175.8290  136.8580 C   0  0  0  0  0  0  0  0  0  0  0  0
  184.6700  177.3050  136.5480 C   0  0  2  0  0  3  0  0  0  0  0  0
  185.1980  176.0490  137.1950 C   0  0  1  0  0  3  0  0  0  0  0  0
  189.5800  174.5170  137.0020 C   0  0  0  0  0  0  0  0  0  0  0  0
  188.0860  174.4150  136.9500 C   0  0  0  0  0  2  0  0  0  0  0  0
  191.4820  175.9370  136.9270 O   0  0  0  0  0  0  0  0  0  0  0  0
  187.4780  175.5450  136.1180 C   0  0  2  0  0  3  0  0  0  0  0  0
  183.1630  177.1820  136.5860 C   0  0  2  0  0  3  0  0  0  0  0  0
  182.6010  178.4350  136.8290 O   0  0  0  0  0  1  0  0  0  0  0  0
  181.4860  175.7900  137.5970 C   0  0  2  0  0  3  0  0  0  0  0  0
  182.8620  176.2820  137.6870 N   0  0  1  0  0  0  0  0  0  0  0  0
  190.2690  173.4830  137.2120 O   0  0  0  0  0  0  0  0  0  0  0  0
  182.6380  171.0530  136.8080 C   0  0  0  0  0  2  0  0  0  0  0  0
  184.1130  170.8010  136.4690 C   0  0  2  0  0  3  0  0  0  0  0  0
  187.9710  176.9150  136.6480 C   0  0  2  0  0  3  0  0  0  0  0  0
  185.0110  172.0420  136.4470 C   0  0  0  0  0  2  0  0  0  0  0  0
  187.3720  178.2070  136.0610 C   0  0  0  0  0  2  0  0  0  0  0  0
  189.4280  176.9840  136.6010 N   0  0  0  0  0  2  0  0  0  0  0  0
  185.1740  177.2230  135.1140 C   0  0  2  0  0  3  0  0  0  0  0  0
  185.4830  175.8840  134.8390 O   0  0  0  0  0  0  0  0  0  0  0  0
  182.3370  173.5290  137.0940 C   0  0  2  0  0  3  0  0  0  0  0  0
  184.6170  173.0570  137.5090 C   0  0  0  0  0  2  0  0  0  0  0  0
  183.7040  174.0480  136.9350 N   0  0  2  0  0  0  0  0  0  0  0  0
  184.2490  170.0360  135.1930 C   0  0  0  0  0  0  0  0  0  0  0  0
  183.2170  169.6380  134.5940 O   0  0  0  0  0  0  0  0  0  0  0  0
  185.5360  169.7600  134.6460 N   0  0  0  0  0  1  0  0  0  0  0  0
  179.3400  175.4060  138.9310 C   0  0  0  0  0  1  0  0  0  0  0  0
  180.8370  175.6640  138.9840 C   0  0  0  0  0  3  0  0  0  0  0  0
  181.1280  176.8820  139.8410 C   0  0  0  0  0  1  0  0  0  0  0  0
  2 18  1  0  0  0  0
  2 26  1  0  0  0  0
  3 12  1  0  0  0  0
  3  8  1  0  0  0  0
  4 26  1  0  0  0  0
  4 15  1  0  0  0  0
  5 24  1  0  0  0  0
  5 22  1  0  0  0  0
  6 11  2  0  0  0  0
  6  9  1  0  0  0  0
  7 13  1  0  0  0  0
  7  8  1  0  0  0  0
  8  1  1  0  0  0  0
  9 17  2  0  0  0  0
 10  9  1  0  0  0  0
 12 20  1  0  0  0  0
 12 10  1  0  0  0  0
 13 14  1  0  0  0  0
 13 16  1  0  0  0  0
 15 16  1  0  0  0  0
 15 33  1  0  0  0  0
 16  1  1  0  0  0  0
 19 18  1  0  0  0  0
 21 19  1  0  0  0  0
 21 27  1  0  0  0  0
 22 20  1  0  0  0  0
 23 20  1  0  0  0  0
 23  6  1  0  0  0  0
 24  7  1  0  0  0  0
 25 24  1  0  0  0  0
 25  3  1  0  0  0  0
 28 26  1  0  0  0  0
 28 27  1  0  0  0  0
 28  1  1  0  0  0  0
 29 19  1  0  0  0  0
 30 29  2  0  0  0  0
 31 29  1  0  0  0  0
 32 33  1  0  0  0  0
 33 34  1  0  0  0  0
M  END
>  <MODEL>
4

>  <REMARK>
 VINA RESULT:      -5.4      3.829      6.386
  Name = 
  2 active torsions:
  status: ('A' for Active; 'I' for Inactive)
    1  A    between atoms: C_3  and  C_25
    2  A    between atoms: C_12  and  C_19
                            x       y       z     vdW  Elec       q    Type
                         _______ _______ _______ _____ _____    ______ ____

>  <TORSDO>
F 2

$$$$
=
 OpenBabel10262423323D

 34 39  0  0  1  0  0  0  0  0999 V2000
  189.8790  176.6010  136.6970 C   0  0  1  0  0  3  0  0  0  0  0  0
  188.5290  177.1540  140.2270 C   0  0  0  0  0  2  0  0  0  0  0  0
  191.4680  174.6060  137.2110 C   0  0  2  0  0  3  0  0  0  0  0  0
  187.3670  176.7750  138.1270 C   0  0  0  0  0  2  0  0  0  0  0  0
  191.0450  172.2400  135.4100 C   0  0  0  0  0  2  0  0  0  0  0  0
  195.5800  173.9060  135.8940 C   0  0  0  0  0  0  0  0  0  0  0  0
  189.8670  174.5030  135.4550 C   0  0  2  0  0  3  0  0  0  0  0  0
  190.7900  175.4750  136.1480 C   0  0  1  0  0  3  0  0  0  0  0  0
  195.3010  174.8000  137.0290 C   0  0  0  0  0  0  0  0  0  0  0  0
  193.8910  175.2130  137.3240 C   0  0  0  0  0  2  0  0  0  0  0  0
  196.7610  173.5710  135.6160 O   0  0  0  0  0  0  0  0  0  0  0  0
  192.8900  174.1630  136.8400 C   0  0  2  0  0  3  0  0  0  0  0  0
  188.4670  175.0050  135.7250 C   0  0  2  0  0  3  0  0  0  0  0  0
  187.6740  174.8000  134.5950 O   0  0  0  0  0  1  0  0  0  0  0  0
  187.3830  176.9540  136.6210 C   0  0  2  0  0  3  0  0  0  0  0  0
  188.5950  176.4290  135.9870 N   0  0  1  0  0  0  0  0  0  0  0  0
  196.2440  175.2560  137.7300 O   0  0  0  0  0  0  0  0  0  0  0  0
  189.4740  178.1090  140.9440 C   0  0  0  0  0  2  0  0  0  0  0  0
  190.8800  177.5290  141.1500 C   0  0  2  0  0  3  0  0  0  0  0  0
  193.1270  173.8580  135.3400 C   0  0  2  0  0  3  0  0  0  0  0  0
  191.4350  176.7030  139.9860 C   0  0  0  0  0  2  0  0  0  0  0  0
  192.1410  172.9400  134.5940 C   0  0  0  0  0  2  0  0  0  0  0  0
  194.4920  173.3860  135.1270 N   0  0  0  0  0  2  0  0  0  0  0  0
  190.1080  173.1850  136.1770 C   0  0  2  0  0  3  0  0  0  0  0  0
  190.6730  173.4720  137.4270 O   0  0  0  0  0  0  0  0  0  0  0  0
  188.6460  177.3150  138.7110 C   0  0  2  0  0  3  0  0  0  0  0  0
  191.0090  177.2540  138.6340 C   0  0  0  0  0  2  0  0  0  0  0  0
  189.7960  176.5690  138.1780 N   0  0  2  0  0  0  0  0  0  0  0  0
  190.9620  176.7560  142.4250 C   0  0  0  0  0  0  0  0  0  0  0  0
  190.4640  175.6010  142.4850 O   0  0  0  0  0  0  0  0  0  0  0  0
  191.6030  177.3090  143.5700 N   0  0  0  0  0  1  0  0  0  0  0  0
  187.0350  178.4830  134.6030 C   0  0  0  0  0  1  0  0  0  0  0  0
  187.0460  178.3660  136.1190 C   0  0  0  0  0  3  0  0  0  0  0  0
  187.9830  179.4000  136.7160 C   0  0  0  0  0  1  0  0  0  0  0  0
  1 28  1  0  0  0  0
  2 18  1  0  0  0  0
  3 25  1  0  0  0  0
  4 26  1  0  0  0  0
  5 24  1  0  0  0  0
  6  9  1  0  0  0  0
  7 13  1  0  0  0  0
  7  8  1  0  0  0  0
  7 24  1  0  0  0  0
  8  1  1  0  0  0  0
  8  3  1  0  0  0  0
  9 10  1  0  0  0  0
  9 17  2  0  0  0  0
 11  6  2  0  0  0  0
 12  3  1  0  0  0  0
 12 10  1  0  0  0  0
 13 16  1  0  0  0  0
 14 13  1  0  0  0  0
 15  4  1  0  0  0  0
 16 15  1  0  0  0  0
 16  1  1  0  0  0  0
 18 19  1  0  0  0  0
 19 29  1  0  0  0  0
 20 12  1  0  0  0  0
 21 19  1  0  0  0  0
 22 20  1  0  0  0  0
 22  5  1  0  0  0  0
 23 20  1  0  0  0  0
 23  6  1  0  0  0  0
 24 25  1  0  0  0  0
 26  2  1  0  0  0  0
 27 21  1  0  0  0  0
 28 27  1  0  0  0  0
 28 26  1  0  0  0  0
 29 30  2  0  0  0  0
 29 31  1  0  0  0  0
 32 33  1  0  0  0  0
 33 15  1  0  0  0  0
 33 34  1  0  0  0  0
M  END
>  <MODEL>
5

>  <REMARK>
 VINA RESULT:      -5.1      5.610      7.912
  Name = 
  2 active torsions:
  status: ('A' for Active; 'I' for Inactive)
    1  A    between atoms: C_3  and  C_25
    2  A    between atoms: C_12  and  C_19
                            x       y       z     vdW  Elec       q    Type
                         _______ _______ _______ _____ _____    ______ ____

>  <TORSDO>
F 2

$$$$
=
 OpenBabel10262423323D

 34 39  0  0  1  0  0  0  0  0999 V2000
  191.5750  176.0030  136.4720 C   0  0  1  0  0  3  0  0  0  0  0  0
  192.0680  172.2700  135.8270 C   0  0  0  0  0  2  0  0  0  0  0  0
  189.4420  175.8490  137.9520 C   0  0  2  0  0  3  0  0  0  0  0  0
  193.5900  173.9380  136.7270 C   0  0  0  0  0  2  0  0  0  0  0  0
  189.6780  177.3320  140.5530 C   0  0  0  0  0  2  0  0  0  0  0  0
  185.7730  178.2260  137.8090 C   0  0  0  0  0  0  0  0  0  0  0  0
  191.3550  177.0780  138.6480 C   0  0  2  0  0  3  0  0  0  0  0  0
  190.5740  176.7240  137.4070 C   0  0  1  0  0  3  0  0  0  0  0  0
  185.9750  177.1070  136.8740 C   0  0  0  0  0  0  0  0  0  0  0  0
  187.3190  176.4510  136.7770 C   0  0  0  0  0  2  0  0  0  0  0  0
  184.6570  178.8060  137.8840 O   0  0  0  0  0  0  0  0  0  0  0  0
  188.0990  176.5790  138.0860 C   0  0  2  0  0  3  0  0  0  0  0  0
  192.7200  176.4540  138.4640 C   0  0  2  0  0  3  0  0  0  0  0  0
  193.6940  177.3040  138.9900 O   0  0  0  0  0  1  0  0  0  0  0  0
  194.0090  175.3950  136.7350 C   0  0  2  0  0  3  0  0  0  0  0  0
  192.9070  176.3140  137.0300 N   0  0  1  0  0  0  0  0  0  0  0  0
  185.0380  176.7240  136.1250 O   0  0  0  0  0  0  0  0  0  0  0  0
  191.2560  171.8980  134.5940 C   0  0  0  0  0  2  0  0  0  0  0  0
  189.7430  172.0630  134.7920 C   0  0  2  0  0  3  0  0  0  0  0  0
  188.1830  178.0680  138.5070 C   0  0  2  0  0  3  0  0  0  0  0  0
  189.3100  173.2910  135.5990 C   0  0  0  0  0  2  0  0  0  0  0  0
  189.0520  178.4580  139.7180 C   0  0  0  0  0  2  0  0  0  0  0  0
  186.8450  178.6290  138.6630 N   0  0  0  0  0  2  0  0  0  0  0  0
  190.6000  176.3840  139.7720 C   0  0  2  0  0  3  0  0  0  0  0  0
  189.8280  175.3600  139.2080 O   0  0  0  0  0  0  0  0  0  0  0  0
  192.3920  173.7640  135.8300 C   0  0  2  0  0  3  0  0  0  0  0  0
  190.1980  174.4970  135.3360 C   0  0  0  0  0  2  0  0  0  0  0  0
  191.2640  174.5580  136.3400 N   0  0  2  0  0  0  0  0  0  0  0  0
  189.1360  170.8240  135.3620 C   0  0  0  0  0  0  0  0  0  0  0  0
  189.7000  169.7130  135.1770 O   0  0  0  0  0  0  0  0  0  0  0  0
  187.9300  170.8870  136.1170 N   0  0  0  0  0  1  0  0  0  0  0  0
  196.1440  175.1220  135.3570 C   0  0  0  0  0  1  0  0  0  0  0  0
  194.8220  175.8570  135.5160 C   0  0  0  0  0  3  0  0  0  0  0  0
  195.0560  177.3550  135.5470 C   0  0  0  0  0  1  0  0  0  0  0  0
  1 16  1  0  0  0  0
  1  8  1  0  0  0  0
  2 26  1  0  0  0  0
  3 12  1  0  0  0  0
  3 25  1  0  0  0  0
  4 15  1  0  0  0  0
  6 11  2  0  0  0  0
  6 23  1  0  0  0  0
  7 24  1  0  0  0  0
  8  3  1  0  0  0  0
  8  7  1  0  0  0  0
  9  6  1  0  0  0  0
 10  9  1  0  0  0  0
 10 12  1  0  0  0  0
 12 20  1  0  0  0  0
 13  7  1  0  0  0  0
 13 14  1  0  0  0  0
 15 16  1  0  0  0  0
 16 13  1  0  0  0  0
 17  9  2  0  0  0  0
 18 19  1  0  0  0  0
 18  2  1  0  0  0  0
 19 29  1  0  0  0  0
 19 21  1  0  0  0  0
 20 23  1  0  0  0  0
 20 22  1  0  0  0  0
 22  5  1  0  0  0  0
 24  5  1  0  0  0  0
 25 24  1  0  0  0  0
 26 28  1  0  0  0  0
 26  4  1  0  0  0  0
 27 21  1  0  0  0  0
 27 28  1  0  0  0  0
 28  1  1  0  0  0  0
 29 31  1  0  0  0  0
 30 29  2  0  0  0  0
 32 33  1  0  0  0  0
 33 34  1  0  0  0  0
 33 15  1  0  0  0  0
M  END
>  <MODEL>
6

>  <REMARK>
 VINA RESULT:      -5.0      5.301     10.412
  Name = 
  2 active torsions:
  status: ('A' for Active; 'I' for Inactive)
    1  A    between atoms: C_3  and  C_25
    2  A    between atoms: C_12  and  C_19
                            x       y       z     vdW  Elec       q    Type
                         _______ _______ _______ _____ _____    ______ ____

>  <TORSDO>
F 2

$$$$
=
 OpenBabel10262423323D

 34 39  0  0  1  0  0  0  0  0999 V2000
  189.9180  175.9250  139.1520 C   0  0  1  0  0  3  0  0  0  0  0  0
  187.1890  178.3250  137.9770 C   0  0  0  0  0  2  0  0  0  0  0  0
  190.9170  175.3240  136.8260 C   0  0  2  0  0  3  0  0  0  0  0  0
  188.9750  178.6260  139.5980 C   0  0  0  0  0  2  0  0  0  0  0  0
  193.8950  175.6780  136.6710 C   0  0  0  0  0  2  0  0  0  0  0  0
  192.0630  171.4260  135.2080 C   0  0  0  0  0  0  0  0  0  0  0  0
  192.2930  176.0610  138.6190 C   0  0  2  0  0  3  0  0  0  0  0  0
  191.0540  175.2450  138.3490 C   0  0  1  0  0  3  0  0  0  0  0  0
  190.6550  171.8530  135.1990 C   0  0  0  0  0  0  0  0  0  0  0  0
  190.2440  173.0780  135.9580 C   0  0  0  0  0  2  0  0  0  0  0  0
  192.4220  170.3840  134.5980 O   0  0  0  0  0  0  0  0  0  0  0  0
  191.4020  174.0680  136.0890 C   0  0  2  0  0  3  0  0  0  0  0  0
  191.8330  177.2420  139.4450 C   0  0  2  0  0  3  0  0  0  0  0  0
  192.8050  177.5500  140.3970 O   0  0  0  0  0  1  0  0  0  0  0  0
  189.8720  177.9690  140.6280 C   0  0  2  0  0  3  0  0  0  0  0  0
  190.6100  176.8170  140.1050 N   0  0  1  0  0  0  0  0  0  0  0  0
  189.7850  171.1720  134.5940 O   0  0  0  0  0  0  0  0  0  0  0  0
  185.9440  177.5040  137.6700 C   0  0  0  0  0  2  0  0  0  0  0  0
  186.1360  176.5280  136.5010 C   0  0  2  0  0  3  0  0  0  0  0  0
  192.6330  173.3610  136.7080 C   0  0  2  0  0  3  0  0  0  0  0  0
  187.4970  175.8280  136.4360 C   0  0  0  0  0  2  0  0  0  0  0  0
  193.8740  174.1980  137.0770 C   0  0  0  0  0  2  0  0  0  0  0  0
  193.0350  172.2260  135.8850 N   0  0  0  0  0  2  0  0  0  0  0  0
  192.7430  176.5200  137.2400 C   0  0  2  0  0  3  0  0  0  0  0  0
  191.6450  176.4330  136.3740 O   0  0  0  0  0  0  0  0  0  0  0  0
  188.1010  177.5820  138.9540 C   0  0  2  0  0  3  0  0  0  0  0  0
  188.0480  175.5090  137.8170 C   0  0  0  0  0  2  0  0  0  0  0  0
  188.9340  176.5880  138.2610 N   0  0  2  0  0  0  0  0  0  0  0  0
  185.8220  177.1830  135.1970 C   0  0  0  0  0  0  0  0  0  0  0  0
  186.7110  177.8500  134.6060 O   0  0  0  0  0  0  0  0  0  0  0  0
  184.5290  177.0540  134.6120 N   0  0  0  0  0  1  0  0  0  0  0  0
  187.8090  178.2290  142.1140 C   0  0  0  0  0  1  0  0  0  0  0  0
  189.2100  177.6530  141.9780 C   0  0  0  0  0  3  0  0  0  0  0  0
  190.0770  178.1070  143.1370 C   0  0  0  0  0  1  0  0  0  0  0  0
  1 16  1  0  0  0  0
  2 26  1  0  0  0  0
  3  8  1  0  0  0  0
  4 15  1  0  0  0  0
  5 22  1  0  0  0  0
  5 24  1  0  0  0  0
  6 23  1  0  0  0  0
  7 13  1  0  0  0  0
  8  7  1  0  0  0  0
  8  1  1  0  0  0  0
  9  6  1  0  0  0  0
  9 10  1  0  0  0  0
 10 12  1  0  0  0  0
 11  6  2  0  0  0  0
 12 20  1  0  0  0  0
 12  3  1  0  0  0  0
 13 16  1  0  0  0  0
 13 14  1  0  0  0  0
 15 33  1  0  0  0  0
 16 15  1  0  0  0  0
 17  9  2  0  0  0  0
 18  2  1  0  0  0  0
 19 18  1  0  0  0  0
 20 22  1  0  0  0  0
 21 19  1  0  0  0  0
 21 27  1  0  0  0  0
 23 20  1  0  0  0  0
 24  7  1  0  0  0  0
 25  3  1  0  0  0  0
 25 24  1  0  0  0  0
 26  4  1  0  0  0  0
 27 28  1  0  0  0  0
 28 26  1  0  0  0  0
 28  1  1  0  0  0  0
 29 19  1  0  0  0  0
 30 29  2  0  0  0  0
 31 29  1  0  0  0  0
 33 32  1  0  0  0  0
 33 34  1  0  0  0  0
M  END
>  <MODEL>
7

>  <REMARK>
 VINA RESULT:      -5.0      4.774      8.671
  Name = 
  2 active torsions:
  status: ('A' for Active; 'I' for Inactive)
    1  A    between atoms: C_3  and  C_25
    2  A    between atoms: C_12  and  C_19
                            x       y       z     vdW  Elec       q    Type
                         _______ _______ _______ _____ _____    ______ ____

>  <TORSDO>
F 2

$$$$
=
 OpenBabel10262423323D

 34 39  0  0  1  0  0  0  0  0999 V2000
  182.6580  174.9070  137.5180 C   0  0  1  0  0  3  0  0  0  0  0  0
  185.1890  175.7700  134.7900 C   0  0  0  0  0  2  0  0  0  0  0  0
  182.1990  177.3190  138.3800 C   0  0  2  0  0  3  0  0  0  0  0  0
  183.1110  174.5120  134.6860 C   0  0  0  0  0  2  0  0  0  0  0  0
  179.2800  178.0170  138.4950 C   0  0  0  0  0  2  0  0  0  0  0  0
  181.9330  178.8080  142.4840 C   0  0  0  0  0  0  0  0  0  0  0  0
  180.4260  175.8540  137.7740 C   0  0  2  0  0  3  0  0  0  0  0  0
  181.7970  175.8410  138.4040 C   0  0  1  0  0  3  0  0  0  0  0  0
  183.2430  178.6040  141.8480 C   0  0  0  0  0  0  0  0  0  0  0  0
  183.3310  177.8810  140.5370 C   0  0  0  0  0  2  0  0  0  0  0  0
  181.8430  179.3890  143.5980 O   0  0  0  0  0  0  0  0  0  0  0  0
  182.0400  178.0300  139.7310 C   0  0  2  0  0  3  0  0  0  0  0  0
  180.5550  175.0550  136.4970 C   0  0  2  0  0  3  0  0  0  0  0  0
  179.3910  174.3130  136.2940 O   0  0  0  0  0  1  0  0  0  0  0  0
  182.1420  173.6070  135.4200 C   0  0  2  0  0  3  0  0  0  0  0  0
  181.6840  174.1610  136.6960 N   0  0  1  0  0  0  0  0  0  0  0  0
  184.2970  178.9950  142.4160 O   0  0  0  0  0  0  0  0  0  0  0  0
  186.5720  175.7910  135.4260 C   0  0  0  0  0  2  0  0  0  0  0  0
  186.7390  176.8970  136.4770 C   0  0  2  0  0  3  0  0  0  0  0  0
  180.8280  177.5830  140.5860 C   0  0  2  0  0  3  0  0  0  0  0  0
  185.5260  177.1440  137.3790 C   0  0  0  0  0  2  0  0  0  0  0  0
  179.4360  177.5020  139.9320 C   0  0  0  0  0  2  0  0  0  0  0  0
  180.7500  178.3740  141.8100 N   0  0  0  0  0  2  0  0  0  0  0  0
  180.1770  177.3230  137.4590 C   0  0  2  0  0  3  0  0  0  0  0  0
  181.4170  177.9740  137.4200 O   0  0  0  0  0  0  0  0  0  0  0  0
  184.2280  174.9130  135.6150 C   0  0  2  0  0  3  0  0  0  0  0  0
  184.7810  175.8600  137.7090 C   0  0  0  0  0  2  0  0  0  0  0  0
  183.6850  175.6620  136.7580 N   0  0  2  0  0  0  0  0  0  0  0  0
  187.1910  178.1730  135.8480 C   0  0  0  0  0  0  0  0  0  0  0  0
  187.2360  178.2670  134.5940 O   0  0  0  0  0  0  0  0  0  0  0  0
  187.5640  179.2880  136.6540 N   0  0  0  0  0  1  0  0  0  0  0  0
  181.7220  171.1710  134.7720 C   0  0  0  0  0  1  0  0  0  0  0  0
  182.5830  172.1420  135.5630 C   0  0  0  0  0  3  0  0  0  0  0  0
  182.6400  171.7250  137.0210 C   0  0  0  0  0  1  0  0  0  0  0  0
  1  8  1  0  0  0  0
  2 18  1  0  0  0  0
  2 26  1  0  0  0  0
  3  8  1  0  0  0  0
  3 12  1  0  0  0  0
  4 15  1  0  0  0  0
  4 26  1  0  0  0  0
  5 22  1  0  0  0  0
  6 11  2  0  0  0  0
  7  8  1  0  0  0  0
  9 17  2  0  0  0  0
  9  6  1  0  0  0  0
 10  9  1  0  0  0  0
 12 10  1  0  0  0  0
 12 20  1  0  0  0  0
 13 16  1  0  0  0  0
 13  7  1  0  0  0  0
 14 13  1  0  0  0  0
 15 33  1  0  0  0  0
 15 16  1  0  0  0  0
 16  1  1  0  0  0  0
 18 19  1  0  0  0  0
 19 21  1  0  0  0  0
 20 23  1  0  0  0  0
 21 27  1  0  0  0  0
 22 20  1  0  0  0  0
 23  6  1  0  0  0  0
 24  7  1  0  0  0  0
 24  5  1  0  0  0  0
 25 24  1  0  0  0  0
 25  3  1  0  0  0  0
 26 28  1  0  0  0  0
 28  1  1  0  0  0  0
 28 27  1  0  0  0  0
 29 19  1  0  0  0  0
 29 31  1  0  0  0  0
 30 29  2  0  0  0  0
 32 33  1  0  0  0  0
 33 34  1  0  0  0  0
M  END
>  <MODEL>
8

>  <REMARK>
 VINA RESULT:      -5.0      2.532      7.048
  Name = 
  2 active torsions:
  status: ('A' for Active; 'I' for Inactive)
    1  A    between atoms: C_3  and  C_25
    2  A    between atoms: C_12  and  C_19
                            x       y       z     vdW  Elec       q    Type
                         _______ _______ _______ _____ _____    ______ ____

>  <TORSDO>
F 2

$$$$
=
 OpenBabel10262423323D

 34 39  0  0  1  0  0  0  0  0999 V2000
  185.5940  176.9060  136.4830 C   0  0  1  0  0  3  0  0  0  0  0  0
  185.7940  173.1000  136.7430 C   0  0  0  0  0  2  0  0  0  0  0  0
  183.4810  177.2720  137.9560 C   0  0  2  0  0  3  0  0  0  0  0  0
  187.4520  174.8120  137.2230 C   0  0  0  0  0  2  0  0  0  0  0  0
  183.8720  179.3060  140.1310 C   0  0  0  0  0  2  0  0  0  0  0  0
  179.9980  179.8220  137.2490 C   0  0  0  0  0  0  0  0  0  0  0  0
  185.4930  178.4800  138.3410 C   0  0  2  0  0  3  0  0  0  0  0  0
  184.6660  177.9030  137.2190 C   0  0  1  0  0  3  0  0  0  0  0  0
  180.1000  178.5020  136.6070 C   0  0  0  0  0  0  0  0  0  0  0  0
  181.3890  177.7400  136.6700 C   0  0  0  0  0  2  0  0  0  0  0  0
  178.9310  180.4880  137.1840 O   0  0  0  0  0  0  0  0  0  0  0  0
  182.1990  178.1140  137.9110 C   0  0  2  0  0  3  0  0  0  0  0  0
  186.8040  177.7270  138.3120 C   0  0  2  0  0  3  0  0  0  0  0  0
  187.8470  178.6000  138.6220 O   0  0  0  0  0  1  0  0  0  0  0  0
  187.9790  176.1920  136.8850 C   0  0  2  0  0  3  0  0  0  0  0  0
  186.9550  177.2370  136.9520 N   0  0  1  0  0  0  0  0  0  0  0  0
  179.1230  178.0260  135.9700 O   0  0  0  0  0  0  0  0  0  0  0  0
  184.9340  172.5100  135.6330 C   0  0  0  0  0  2  0  0  0  0  0  0
  183.4420  172.8340  135.7850 C   0  0  2  0  0  3  0  0  0  0  0  0
  182.4020  179.6490  137.9670 C   0  0  2  0  0  3  0  0  0  0  0  0
  183.1160  174.2480  136.2770 C   0  0  0  0  0  2  0  0  0  0  0  0
  183.3190  180.2470  139.0520 C   0  0  0  0  0  2  0  0  0  0  0  0
  181.1130  180.3330  137.9840 N   0  0  0  0  0  2  0  0  0  0  0  0
  184.7070  178.1310  139.5980 C   0  0  2  0  0  3  0  0  0  0  0  0
  183.8510  177.0660  139.2920 O   0  0  0  0  0  0  0  0  0  0  0  0
  186.2290  174.5230  136.3910 C   0  0  2  0  0  3  0  0  0  0  0  0
  184.0880  175.2850  135.7360 C   0  0  0  0  0  2  0  0  0  0  0  0
  185.1720  175.4990  136.6980 N   0  0  2  0  0  0  0  0  0  0  0  0
  182.7540  171.8150  136.6320 C   0  0  0  0  0  0  0  0  0  0  0  0
  183.3110  170.7070  136.8490 O   0  0  0  0  0  0  0  0  0  0  0  0
  181.4770  172.0880  137.2020 N   0  0  0  0  0  1  0  0  0  0  0  0
  190.1240  175.5390  135.6600 C   0  0  0  0  0  1  0  0  0  0  0  0
  188.8030  176.2880  135.5920 C   0  0  0  0  0  3  0  0  0  0  0  0
  189.0410  177.7340  135.1980 C   0  0  0  0  0  1  0  0  0  0  0  0
  1 28  1  0  0  0  0
  1 16  1  0  0  0  0
  1  8  1  0  0  0  0
  3 25  1  0  0  0  0
  6 23  1  0  0  0  0
  7 24  1  0  0  0  0
  8  3  1  0  0  0  0
  8  7  1  0  0  0  0
  9 10  1  0  0  0  0
  9  6  1  0  0  0  0
 10 12  1  0  0  0  0
 11  6  2  0  0  0  0
 12  3  1  0  0  0  0
 12 20  1  0  0  0  0
 13  7  1  0  0  0  0
 13 14  1  0  0  0  0
 15 16  1  0  0  0  0
 15  4  1  0  0  0  0
 16 13  1  0  0  0  0
 17  9  2  0  0  0  0
 18 19  1  0  0  0  0
 18  2  1  0  0  0  0
 19 21  1  0  0  0  0
 19 29  1  0  0  0  0
 20 23  1  0  0  0  0
 20 22  1  0  0  0  0
 22  5  1  0  0  0  0
 24  5  1  0  0  0  0
 25 24  1  0  0  0  0
 26 28  1  0  0  0  0
 26  2  1  0  0  0  0
 26  4  1  0  0  0  0
 27 21  1  0  0  0  0
 27 28  1  0  0  0  0
 29 30  2  0  0  0  0
 29 31  1  0  0  0  0
 33 32  1  0  0  0  0
 33 15  1  0  0  0  0
 34 33  1  0  0  0  0
M  END
>  <MODEL>
9

>  <REMARK>
 VINA RESULT:      -4.8      2.851      7.757
  Name = 
  2 active torsions:
  status: ('A' for Active; 'I' for Inactive)
    1  A    between atoms: C_3  and  C_25
    2  A    between atoms: C_12  and  C_19
                            x       y       z     vdW  Elec       q    Type
                         _______ _______ _______ _____ _____    ______ ____

>  <TORSDO>
F 2

$$$$
