=
 OpenBabel10262420483D

 28 33  0  0  1  0  0  0  0  0999 V2000
  188.9980  177.4540  145.7550 C   0  0  2  0  0  3  0  0  0  0  0  0
  189.6110  176.6340  144.5910 C   0  0  1  0  0  3  0  0  0  0  0  0
  187.5930  177.2750  143.1280 C   0  0  2  0  0  3  0  0  0  0  0  0
  183.6860  178.4260  142.6150 C   0  0  0  0  0  3  0  0  0  0  0  0
  188.1480  179.0860  148.6200 O   0  0  0  0  0  1  0  0  0  0  0  0
  191.7580  176.9370  143.3670 O   0  0  0  0  0  0  0  0  0  0  0  0
  189.1140  177.0840  143.1960 C   0  0  1  0  0  3  0  0  0  0  0  0
  191.8090  177.2290  145.7110 N   0  0  0  0  0  1  0  0  0  0  0  0
  185.7120  178.7140  140.3420 C   0  0  0  0  0  3  0  0  0  0  0  0
  185.6280  178.6350  144.1150 C   0  0  2  0  0  3  0  0  0  0  0  0
  191.1710  176.5420  144.5930 C   0  0  1  0  0  3  0  0  0  0  0  0
  183.2630  179.1870  140.3140 C   0  0  0  0  0  0  0  0  0  0  0  0
  185.0210  178.4340  142.7390 C   0  0  0  0  0  0  0  0  0  0  0  0
  187.2150  177.7400  141.8360 O   0  0  0  0  0  0  0  0  0  0  0  0
  184.4910  179.3700  139.8360 C   0  0  0  0  0  3  0  0  0  0  0  0
  186.8590  178.4620  146.6990 C   0  0  1  0  0  3  0  0  0  0  0  0
  187.1360  178.2490  144.2150 C   0  0  1  0  0  3  0  0  0  0  0  0
  185.9520  178.2760  141.5870 C   0  0  0  0  0  0  0  0  0  0  0  0
  188.1270  176.7460  148.0920 C   0  0  0  0  0  2  0  0  0  0  0  0
  185.3260  178.4150  146.6310 C   0  0  0  0  0  2  0  0  0  0  0  0
  187.3520  178.0660  148.0960 C   0  0  1  0  0  3  0  0  0  0  0  0
  191.3540  178.2600  143.0950 C   0  0  0  0  0  2  0  0  0  0  0  0
  182.2340  179.8740  139.7620 F   0  0  0  0  0  0  0  0  0  0  0  0
  182.9650  178.1500  141.3400 C   0  0  0  0  0  2  0  0  0  0  0  0
  184.7880  178.0180  145.2490 C   0  0  0  0  0  2  0  0  0  0  0  0
  189.3030  176.7700  147.1040 C   0  0  0  0  0  2  0  0  0  0  0  0
  187.4860  177.6340  145.5700 C   0  0  1  0  0  3  0  0  0  0  0  0
  189.8810  178.3110  142.6830 C   0  0  0  0  0  2  0  0  0  0  0  0
  1 26  1  1  0  0  0
  2 11  1  0  0  0  0
  2  1  1  0  0  0  0
  3  7  1  0  0  0  0
  3 17  1  0  0  0  0
  4 13  2  0  0  0  0
  6 11  1  0  0  0  0
  7  2  1  0  0  0  0
  9 18  2  0  0  0  0
 10 17  1  0  0  0  0
 10 25  1  0  0  0  0
 11  8  1  0  0  0  0
 12 24  1  0  0  0  0
 13 10  1  0  0  0  0
 14  3  1  0  0  0  0
 15 12  2  0  0  0  0
 15  9  1  0  0  0  0
 16 21  1  0  0  0  0
 17 27  1  0  0  0  0
 18 14  1  0  0  0  0
 18 13  1  0  0  0  0
 19 21  1  0  0  0  0
 20 16  1  0  0  0  0
 21  5  1  0  0  0  0
 22  6  1  0  0  0  0
 23 12  1  0  0  0  0
 24  4  1  0  0  0  0
 25 20  1  0  0  0  0
 26 19  1  0  0  0  0
 27  1  1  0  0  0  0
 27 16  1  0  0  0  0
 28 22  1  0  0  0  0
 28  7  1  0  0  0  0
M  END
>  <MODEL>
1

>  <REMARK>
 VINA RESULT:     -10.7      0.000      0.000
  Name = 
  0 active torsions:
  status: ('A' for Active; 'I' for Inactive)
                            x       y       z     vdW  Elec       q    Type
                         _______ _______ _______ _____ _____    ______ ____

>  <TORSDO>
F 0

$$$$
=
 OpenBabel10262420483D

 28 33  0  0  1  0  0  0  0  0999 V2000
  187.9790  177.8060  144.9650 C   0  0  2  0  0  3  0  0  0  0  0  0
  189.1560  176.8570  144.6230 C   0  0  1  0  0  3  0  0  0  0  0  0
  188.6870  177.2400  142.1210 C   0  0  2  0  0  3  0  0  0  0  0  0
  186.2200  178.2000  138.9850 C   0  0  0  0  0  3  0  0  0  0  0  0
  185.5430  179.7800  146.2960 O   0  0  0  0  0  1  0  0  0  0  0  0
  191.5840  177.0570  145.1370 O   0  0  0  0  0  0  0  0  0  0  0  0
  189.7540  177.1040  143.2160 C   0  0  1  0  0  3  0  0  0  0  0  0
  190.0730  177.6590  146.8500 N   0  0  0  0  0  1  0  0  0  0  0  0
  189.2600  178.2410  138.6520 C   0  0  0  0  0  3  0  0  0  0  0  0
  186.6660  178.6620  141.3620 C   0  0  2  0  0  3  0  0  0  0  0  0
  190.3020  176.8110  145.6850 C   0  0  1  0  0  3  0  0  0  0  0  0
  187.4990  178.6370  136.9290 C   0  0  0  0  0  0  0  0  0  0  0  0
  187.1240  178.2620  139.9720 C   0  0  0  0  0  0  0  0  0  0  0  0
  189.3050  177.5180  140.8690 O   0  0  0  0  0  0  0  0  0  0  0  0
  188.7400  178.7900  137.3850 C   0  0  0  0  0  3  0  0  0  0  0  0
  185.8340  178.8690  144.0980 C   0  0  1  0  0  3  0  0  0  0  0  0
  187.6880  178.3360  142.4940 C   0  0  1  0  0  3  0  0  0  0  0  0
  188.5730  177.9800  139.7750 C   0  0  0  0  0  0  0  0  0  0  0  0
  185.7210  177.3900  146.1700 C   0  0  0  0  0  2  0  0  0  0  0  0
  184.7420  178.7700  143.0240 C   0  0  0  0  0  2  0  0  0  0  0  0
  185.2360  178.6760  145.4970 C   0  0  1  0  0  3  0  0  0  0  0  0
  191.5580  178.3190  144.5110 C   0  0  0  0  0  2  0  0  0  0  0  0
  187.1550  179.2140  135.7530 F   0  0  0  0  0  0  0  0  0  0  0  0
  186.5220  177.7370  137.6000 C   0  0  0  0  0  2  0  0  0  0  0  0
  185.2430  178.1780  141.6970 C   0  0  0  0  0  2  0  0  0  0  0  0
  187.2540  177.3160  146.2360 C   0  0  0  0  0  2  0  0  0  0  0  0
  186.9970  177.9170  143.7930 C   0  0  1  0  0  3  0  0  0  0  0  0
  190.7480  178.2730  143.2130 C   0  0  0  0  0  2  0  0  0  0  0  0
  1 26  1  1  0  0  0
  2  1  1  0  0  0  0
  2 11  1  0  0  0  0
  3 17  1  0  0  0  0
  3  7  1  0  0  0  0
  4 13  2  0  0  0  0
  6 11  1  0  0  0  0
  7  2  1  0  0  0  0
  9 18  2  0  0  0  0
 10 25  1  0  0  0  0
 10 17  1  0  0  0  0
 11  8  1  0  0  0  0
 12 15  2  0  0  0  0
 12 24  1  0  0  0  0
 13 10  1  0  0  0  0
 14  3  1  0  0  0  0
 15  9  1  0  0  0  0
 16 21  1  0  0  0  0
 17 27  1  0  0  0  0
 18 13  1  0  0  0  0
 18 14  1  0  0  0  0
 19 26  1  0  0  0  0
 20 16  1  0  0  0  0
 21 19  1  0  0  0  0
 21  5  1  0  0  0  0
 22  6  1  0  0  0  0
 23 12  1  0  0  0  0
 24  4  1  0  0  0  0
 25 20  1  0  0  0  0
 27 16  1  0  0  0  0
 27  1  1  0  0  0  0
 28  7  1  0  0  0  0
 28 22  1  0  0  0  0
M  END
>  <MODEL>
2

>  <REMARK>
 VINA RESULT:     -10.4      2.320      3.225
  Name = 
  0 active torsions:
  status: ('A' for Active; 'I' for Inactive)
                            x       y       z     vdW  Elec       q    Type
                         _______ _______ _______ _____ _____    ______ ____

>  <TORSDO>
F 0

$$$$
=
 OpenBabel10262420483D

 28 33  0  0  1  0  0  0  0  0999 V2000
  186.5330  178.2260  140.3510 C   0  0  2  0  0  3  0  0  0  0  0  0
  188.0060  178.7070  140.3020 C   0  0  1  0  0  3  0  0  0  0  0  0
  188.1190  178.4990  142.8650 C   0  0  2  0  0  3  0  0  0  0  0  0
  186.4010  178.4400  146.5920 C   0  0  0  0  0  3  0  0  0  0  0  0
  183.3160  177.2250  139.8540 O   0  0  0  0  0  1  0  0  0  0  0  0
  189.9960  177.6810  139.2150 O   0  0  0  0  0  0  0  0  0  0  0  0
  188.8370  178.2620  141.5300 C   0  0  1  0  0  3  0  0  0  0  0  0
  187.9730  177.6470  137.9960 N   0  0  0  0  0  1  0  0  0  0  0  0
  189.2240  177.3460  146.1540 C   0  0  0  0  0  3  0  0  0  0  0  0
  186.0180  177.8630  144.2300 C   0  0  2  0  0  3  0  0  0  0  0  0
  188.7740  178.3580  138.9870 C   0  0  1  0  0  3  0  0  0  0  0  0
  187.9590  177.5780  148.2910 C   0  0  0  0  0  0  0  0  0  0  0  0
  186.9350  178.0720  145.4200 C   0  0  0  0  0  0  0  0  0  0  0  0
  188.9170  178.0190  143.9420 O   0  0  0  0  0  0  0  0  0  0  0  0
  188.9080  177.0060  147.5540 C   0  0  0  0  0  3  0  0  0  0  0  0
  184.4690  177.9680  141.8190 C   0  0  1  0  0  3  0  0  0  0  0  0
  186.7490  177.8190  142.8530 C   0  0  1  0  0  3  0  0  0  0  0  0
  188.3920  177.8340  145.2210 C   0  0  0  0  0  0  0  0  0  0  0  0
  184.3110  179.4040  139.7200 C   0  0  0  0  0  2  0  0  0  0  0  0
  183.8010  178.4350  143.1200 C   0  0  0  0  0  2  0  0  0  0  0  0
  183.6210  178.3630  140.6040 C   0  0  1  0  0  3  0  0  0  0  0  0
  189.7160  176.5030  139.9360 C   0  0  0  0  0  2  0  0  0  0  0  0
  187.7670  177.1500  149.5620 F   0  0  0  0  0  0  0  0  0  0  0  0
  187.1980  178.7630  147.8100 C   0  0  0  0  0  2  0  0  0  0  0  0
  184.8040  178.8110  144.2210 C   0  0  0  0  0  2  0  0  0  0  0  0
  185.7030  178.9420  139.2650 C   0  0  0  0  0  2  0  0  0  0  0  0
  185.9200  178.4570  141.7380 C   0  0  1  0  0  3  0  0  0  0  0  0
  189.3440  176.8210  141.3860 C   0  0  0  0  0  2  0  0  0  0  0  0
  1 26  1  6  0  0  0
  1 27  1  0  0  0  0
  2  1  1  0  0  0  0
  2  7  1  0  0  0  0
  3 14  1  0  0  0  0
  4 24  1  0  0  0  0
  5 21  1  0  0  0  0
  6 22  1  0  0  0  0
  7  3  1  0  0  0  0
  8 11  1  0  0  0  0
  9 15  1  0  0  0  0
 10 13  1  0  0  0  0
 11  6  1  0  0  0  0
 11  2  1  0  0  0  0
 12 23  1  0  0  0  0
 13  4  2  0  0  0  0
 14 18  1  0  0  0  0
 15 12  2  0  0  0  0
 16 20  1  0  0  0  0
 17  3  1  0  0  0  0
 17 10  1  0  0  0  0
 18 13  1  0  0  0  0
 18  9  2  0  0  0  0
 19 21  1  0  0  0  0
 20 25  1  0  0  0  0
 21 16  1  0  0  0  0
 22 28  1  0  0  0  0
 24 12  1  0  0  0  0
 25 10  1  0  0  0  0
 26 19  1  0  0  0  0
 27 16  1  0  0  0  0
 27 17  1  0  0  0  0
 28  7  1  0  0  0  0
M  END
>  <MODEL>
3

>  <REMARK>
 VINA RESULT:     -10.0      3.250      6.298
  Name = 
  0 active torsions:
  status: ('A' for Active; 'I' for Inactive)
                            x       y       z     vdW  Elec       q    Type
                         _______ _______ _______ _____ _____    ______ ____

>  <TORSDO>
F 0

$$$$
=
 OpenBabel10262420483D

 28 33  0  0  1  0  0  0  0  0999 V2000
  187.1420  178.3240  141.7440 C   0  0  2  0  0  3  0  0  0  0  0  0
  188.4760  178.7160  141.0590 C   0  0  1  0  0  3  0  0  0  0  0  0
  189.7410  177.9300  143.1580 C   0  0  2  0  0  3  0  0  0  0  0  0
  189.9850  177.1340  147.1770 C   0  0  0  0  0  3  0  0  0  0  0  0
  183.9530  177.6530  142.7330 O   0  0  0  0  0  1  0  0  0  0  0  0
  189.5310  177.8460  138.9790 O   0  0  0  0  0  0  0  0  0  0  0  0
  189.7020  177.9580  141.6240 C   0  0  1  0  0  3  0  0  0  0  0  0
  187.1980  178.2070  138.9270 N   0  0  0  0  0  1  0  0  0  0  0  0
  192.0560  176.0030  145.2310 C   0  0  0  0  0  3  0  0  0  0  0  0
  188.4520  177.1280  145.2500 C   0  0  2  0  0  3  0  0  0  0  0  0
  188.4720  178.6280  139.4990 C   0  0  1  0  0  3  0  0  0  0  0  0
  191.9940  175.8210  147.7180 C   0  0  0  0  0  0  0  0  0  0  0  0
  189.8400  177.0090  145.8510 C   0  0  0  0  0  0  0  0  0  0  0  0
  190.8620  177.1730  143.6050 O   0  0  0  0  0  0  0  0  0  0  0  0
  192.3820  175.3750  146.5260 C   0  0  0  0  0  3  0  0  0  0  0  0
  185.9950  177.8650  143.9700 C   0  0  1  0  0  3  0  0  0  0  0  0
  188.4360  177.3520  143.7070 C   0  0  1  0  0  3  0  0  0  0  0  0
  190.9750  176.7360  144.9250 C   0  0  0  0  0  0  0  0  0  0  0  0
  185.1060  179.7430  142.4950 C   0  0  0  0  0  2  0  0  0  0  0  0
  186.0990  178.0650  145.4880 C   0  0  0  0  0  2  0  0  0  0  0  0
  184.7530  178.5730  143.4150 C   0  0  1  0  0  3  0  0  0  0  0  0
  189.4360  176.5540  139.5350 C   0  0  0  0  0  2  0  0  0  0  0  0
  192.3540  175.1300  148.8270 F   0  0  0  0  0  0  0  0  0  0  0  0
  191.2990  177.1270  147.8810 C   0  0  0  0  0  2  0  0  0  0  0  0
  187.5470  178.1240  145.9990 C   0  0  0  0  0  2  0  0  0  0  0  0
  186.0280  179.3150  141.3440 C   0  0  0  0  0  2  0  0  0  0  0  0
  187.2960  178.2730  143.2690 C   0  0  1  0  0  3  0  0  0  0  0  0
  189.8430  176.5590  141.0100 C   0  0  0  0  0  2  0  0  0  0  0  0
  1 26  1  1  0  0  0
  1 27  1  0  0  0  0
  2  7  1  0  0  0  0
  2  1  1  0  0  0  0
  3 14  1  0  0  0  0
  3 17  1  0  0  0  0
  4 24  1  0  0  0  0
  5 21  1  0  0  0  0
  6 11  1  0  0  0  0
  6 22  1  0  0  0  0
  7  3  1  0  0  0  0
  8 11  1  0  0  0  0
  9 15  1  0  0  0  0
 10 13  1  0  0  0  0
 10 25  1  0  0  0  0
 11  2  1  0  0  0  0
 12 24  1  0  0  0  0
 12 23  1  0  0  0  0
 13  4  2  0  0  0  0
 14 18  1  0  0  0  0
 15 12  2  0  0  0  0
 16 20  1  0  0  0  0
 17 10  1  0  0  0  0
 18  9  2  0  0  0  0
 18 13  1  0  0  0  0
 19 21  1  0  0  0  0
 20 25  1  0  0  0  0
 21 16  1  0  0  0  0
 22 28  1  0  0  0  0
 26 19  1  0  0  0  0
 27 17  1  0  0  0  0
 27 16  1  0  0  0  0
 28  7  1  0  0  0  0
M  END
>  <MODEL>
4

>  <REMARK>
 VINA RESULT:      -9.9      3.653      6.640
  Name = 
  0 active torsions:
  status: ('A' for Active; 'I' for Inactive)
                            x       y       z     vdW  Elec       q    Type
                         _______ _______ _______ _____ _____    ______ ____

>  <TORSDO>
F 0

$$$$
=
 OpenBabel10262420483D

 28 33  0  0  1  0  0  0  0  0999 V2000
  187.4650  177.9650  145.1930 C   0  0  2  0  0  3  0  0  0  0  0  0
  188.2210  177.0460  144.2000 C   0  0  1  0  0  3  0  0  0  0  0  0
  186.4610  177.6020  142.4060 C   0  0  2  0  0  3  0  0  0  0  0  0
  182.7070  178.7720  141.2280 C   0  0  0  0  0  3  0  0  0  0  0  0
  186.2460  179.8320  147.7670 O   0  0  0  0  0  1  0  0  0  0  0  0
  190.5330  177.2160  143.2920 O   0  0  0  0  0  0  0  0  0  0  0  0
  187.9490  177.3920  142.7160 C   0  0  1  0  0  3  0  0  0  0  0  0
  190.2450  177.6920  145.5880 N   0  0  0  0  0  1  0  0  0  0  0  0
  185.0540  178.8460  139.2690 C   0  0  0  0  0  3  0  0  0  0  0  0
  184.4100  179.0670  142.9820 C   0  0  2  0  0  3  0  0  0  0  0  0
  189.7600  176.9280  144.4430 C   0  0  1  0  0  3  0  0  0  0  0  0
  182.6500  179.3560  138.8390 C   0  0  0  0  0  0  0  0  0  0  0  0
  184.0080  178.7680  141.5500 C   0  0  0  0  0  0  0  0  0  0  0  0
  186.2920  177.9690  141.0410 O   0  0  0  0  0  0  0  0  0  0  0  0
  183.9410  179.4800  138.5380 C   0  0  0  0  0  3  0  0  0  0  0  0
  185.2390  179.0790  145.7270 C   0  0  1  0  0  3  0  0  0  0  0  0
  185.8750  178.6660  143.3350 C   0  0  1  0  0  3  0  0  0  0  0  0
  185.0940  178.5050  140.5660 C   0  0  0  0  0  0  0  0  0  0  0  0
  186.2370  177.4580  147.4210 C   0  0  0  0  0  2  0  0  0  0  0  0
  183.7320  179.0520  145.4340 C   0  0  0  0  0  2  0  0  0  0  0  0
  185.5080  178.7870  147.2080 C   0  0  1  0  0  3  0  0  0  0  0  0
  190.2110  178.5190  142.8640 C   0  0  0  0  0  2  0  0  0  0  0  0
  181.7350  180.0130  138.0880 F   0  0  0  0  0  0  0  0  0  0  0  0
  182.1750  178.4080  139.8840 C   0  0  0  0  0  2  0  0  0  0  0  0
  183.3940  178.5560  144.0200 C   0  0  0  0  0  2  0  0  0  0  0  0
  187.5470  177.3850  146.6210 C   0  0  0  0  0  2  0  0  0  0  0  0
  186.0030  178.1540  144.7710 C   0  0  1  0  0  3  0  0  0  0  0  0
  188.8170  178.5620  142.2330 C   0  0  0  0  0  2  0  0  0  0  0  0
  1 26  1  1  0  0  0
  2 11  1  0  0  0  0
  2  1  1  0  0  0  0
  3  7  1  0  0  0  0
  3 17  1  0  0  0  0
  4 13  2  0  0  0  0
  6 11  1  0  0  0  0
  7  2  1  0  0  0  0
  9 18  2  0  0  0  0
 10 17  1  0  0  0  0
 10 25  1  0  0  0  0
 11  8  1  0  0  0  0
 12 24  1  0  0  0  0
 13 10  1  0  0  0  0
 14  3  1  0  0  0  0
 15 12  2  0  0  0  0
 15  9  1  0  0  0  0
 16 21  1  0  0  0  0
 17 27  1  0  0  0  0
 18 14  1  0  0  0  0
 18 13  1  0  0  0  0
 20 16  1  0  0  0  0
 21 19  1  0  0  0  0
 21  5  1  0  0  0  0
 22  6  1  0  0  0  0
 23 12  1  0  0  0  0
 24  4  1  0  0  0  0
 25 20  1  0  0  0  0
 26 19  1  0  0  0  0
 27  1  1  0  0  0  0
 27 16  1  0  0  0  0
 28  7  1  0  0  0  0
 28 22  1  0  0  0  0
M  END
>  <MODEL>
5

>  <REMARK>
 VINA RESULT:      -9.1      1.241      1.664
  Name = 
  0 active torsions:
  status: ('A' for Active; 'I' for Inactive)
                            x       y       z     vdW  Elec       q    Type
                         _______ _______ _______ _____ _____    ______ ____

>  <TORSDO>
F 0

$$$$
=
 OpenBabel10262420483D

 28 33  0  0  1  0  0  0  0  0999 V2000
  186.4720  178.2090  144.7750 C   0  0  2  0  0  3  0  0  0  0  0  0
  187.3390  177.0080  145.2310 C   0  0  1  0  0  3  0  0  0  0  0  0
  188.2800  176.8300  142.8420 C   0  0  2  0  0  3  0  0  0  0  0  0
  188.0440  177.4020  138.7840 C   0  0  0  0  0  3  0  0  0  0  0  0
  184.3770  180.8610  144.3510 O   0  0  0  0  0  1  0  0  0  0  0  0
  189.1500  176.8870  146.9350 O   0  0  0  0  0  0  0  0  0  0  0  0
  188.5870  176.7810  144.3440 C   0  0  1  0  0  3  0  0  0  0  0  0
  187.2400  178.1630  147.4890 N   0  0  0  0  0  1  0  0  0  0  0  0
  190.7270  176.8070  140.1260 C   0  0  0  0  0  3  0  0  0  0  0  0
  187.3870  178.3560  140.9560 C   0  0  2  0  0  3  0  0  0  0  0  0
  187.7540  177.0230  146.7370 C   0  0  1  0  0  3  0  0  0  0  0  0
  190.2260  177.0690  137.6970 C   0  0  0  0  0  0  0  0  0  0  0  0
  188.3280  177.5450  140.0860 C   0  0  0  0  0  0  0  0  0  0  0  0
  189.4780  176.6680  142.0910 O   0  0  0  0  0  0  0  0  0  0  0  0
  191.0720  177.1050  138.7230 C   0  0  0  0  0  3  0  0  0  0  0  0
  185.4270  179.3910  142.7760 C   0  0  1  0  0  3  0  0  0  0  0  0
  187.5860  178.1460  142.4890 C   0  0  1  0  0  3  0  0  0  0  0  0
  189.5390  176.9650  140.7300 C   0  0  0  0  0  0  0  0  0  0  0  0
  183.9030  178.5250  144.6250 C   0  0  0  0  0  2  0  0  0  0  0  0
  185.0210  179.2240  141.3050 C   0  0  0  0  0  2  0  0  0  0  0  0
  184.1970  179.6660  143.6500 C   0  0  1  0  0  3  0  0  0  0  0  0
  189.7930  177.9360  146.2480 C   0  0  0  0  0  2  0  0  0  0  0  0
  190.6800  177.3860  136.4600 F   0  0  0  0  0  0  0  0  0  0  0  0
  188.8350  176.5590  137.8420 C   0  0  0  0  0  2  0  0  0  0  0  0
  185.9110  178.2380  140.5340 C   0  0  0  0  0  2  0  0  0  0  0  0
  185.1140  178.1940  145.5090 C   0  0  0  0  0  2  0  0  0  0  0  0
  186.2640  178.1980  143.2560 C   0  0  1  0  0  3  0  0  0  0  0  0
  189.7430  177.7130  144.7340 C   0  0  0  0  0  2  0  0  0  0  0  0
  1  2  1  0  0  0  0
  1 26  1  1  0  0  0
  2 11  1  0  0  0  0
  3  7  1  0  0  0  0
  4 13  2  0  0  0  0
  7 28  1  0  0  0  0
  7  2  1  0  0  0  0
  9 18  2  0  0  0  0
 10 17  1  0  0  0  0
 11  6  1  0  0  0  0
 11  8  1  0  0  0  0
 12 24  1  0  0  0  0
 12 15  2  0  0  0  0
 13 18  1  0  0  0  0
 13 10  1  0  0  0  0
 14  3  1  0  0  0  0
 15  9  1  0  0  0  0
 16 27  1  0  0  0  0
 16 21  1  0  0  0  0
 17  3  1  0  0  0  0
 17 27  1  0  0  0  0
 18 14  1  0  0  0  0
 19 26  1  0  0  0  0
 20 16  1  0  0  0  0
 21  5  1  0  0  0  0
 21 19  1  0  0  0  0
 22  6  1  0  0  0  0
 23 12  1  0  0  0  0
 24  4  1  0  0  0  0
 25 10  1  0  0  0  0
 25 20  1  0  0  0  0
 27  1  1  0  0  0  0
 28 22  1  0  0  0  0
M  END
>  <MODEL>
6

>  <REMARK>
 VINA RESULT:      -9.0      3.112      4.865
  Name = 
  0 active torsions:
  status: ('A' for Active; 'I' for Inactive)
                            x       y       z     vdW  Elec       q    Type
                         _______ _______ _______ _____ _____    ______ ____

>  <TORSDO>
F 0

$$$$
=
 OpenBabel10262420483D

 28 33  0  0  1  0  0  0  0  0999 V2000
  189.4780  177.3130  145.2180 C   0  0  2  0  0  3  0  0  0  0  0  0
  189.0820  178.2530  146.3850 C   0  0  1  0  0  3  0  0  0  0  0  0
  186.8000  178.6290  145.2570 C   0  0  2  0  0  3  0  0  0  0  0  0
  184.3350  178.7470  141.9760 C   0  0  0  0  0  3  0  0  0  0  0  0
  190.8710  175.1800  142.9580 O   0  0  0  0  0  1  0  0  0  0  0  0
  188.8310  177.7800  148.8160 O   0  0  0  0  0  0  0  0  0  0  0  0
  187.5520  178.3870  146.5720 C   0  0  1  0  0  3  0  0  0  0  0  0
  190.6770  176.7980  147.7190 N   0  0  0  0  0  1  0  0  0  0  0  0
  183.1720  178.6340  144.8020 C   0  0  0  0  0  3  0  0  0  0  0  0
  186.2890  177.6000  142.9410 C   0  0  2  0  0  3  0  0  0  0  0  0
  189.7580  177.9290  147.7570 C   0  0  1  0  0  3  0  0  0  0  0  0
  181.9650  178.8470  142.6300 C   0  0  0  0  0  0  0  0  0  0  0  0
  184.9800  178.3540  143.0830 C   0  0  0  0  0  0  0  0  0  0  0  0
  185.3980  178.6880  145.4970 O   0  0  0  0  0  0  0  0  0  0  0  0
  182.0020  178.5010  143.9140 C   0  0  0  0  0  3  0  0  0  0  0  0
  188.9960  176.6640  142.8040 C   0  0  1  0  0  3  0  0  0  0  0  0
  187.1360  177.5300  144.2480 C   0  0  1  0  0  3  0  0  0  0  0  0
  184.4690  178.6000  144.4610 C   0  0  0  0  0  0  0  0  0  0  0  0
  191.3290  177.4910  143.4100 C   0  0  0  0  0  2  0  0  0  0  0  0
  188.3320  177.1280  141.5000 C   0  0  0  0  0  2  0  0  0  0  0  0
  190.5050  176.4810  142.6070 C   0  0  1  0  0  3  0  0  0  0  0  0
  187.9300  176.7530  148.4680 C   0  0  0  0  0  2  0  0  0  0  0  0
  180.8230  178.6510  141.9280 F   0  0  0  0  0  0  0  0  0  0  0  0
  183.0920  179.5700  141.9790 C   0  0  0  0  0  2  0  0  0  0  0  0
  187.1210  178.0460  141.7240 C   0  0  0  0  0  2  0  0  0  0  0  0
  190.9830  177.4580  144.9060 C   0  0  0  0  0  2  0  0  0  0  0  0
  188.6380  177.5980  143.9670 C   0  0  1  0  0  3  0  0  0  0  0  0
  186.9680  177.2140  147.3710 C   0  0  0  0  0  2  0  0  0  0  0  0
  1 26  1  6  0  0  0
  1  2  1  0  0  0  0
  2  7  1  0  0  0  0
  2 11  1  0  0  0  0
  3 14  1  0  0  0  0
  3  7  1  0  0  0  0
  4 24  1  0  0  0  0
  4 13  2  0  0  0  0
  7 28  1  0  0  0  0
  8 11  1  0  0  0  0
 10 13  1  0  0  0  0
 10 17  1  0  0  0  0
 11  6  1  0  0  0  0
 12 15  2  0  0  0  0
 13 18  1  0  0  0  0
 15  9  1  0  0  0  0
 16 27  1  0  0  0  0
 17  3  1  0  0  0  0
 18  9  2  0  0  0  0
 18 14  1  0  0  0  0
 19 26  1  0  0  0  0
 20 25  1  0  0  0  0
 20 16  1  0  0  0  0
 21 16  1  0  0  0  0
 21  5  1  0  0  0  0
 21 19  1  0  0  0  0
 22  6  1  0  0  0  0
 23 12  1  0  0  0  0
 24 12  1  0  0  0  0
 25 10  1  0  0  0  0
 27 17  1  0  0  0  0
 27  1  1  0  0  0  0
 28 22  1  0  0  0  0
M  END
>  <MODEL>
7

>  <REMARK>
 VINA RESULT:      -9.0      1.645      4.151
  Name = 
  0 active torsions:
  status: ('A' for Active; 'I' for Inactive)
                            x       y       z     vdW  Elec       q    Type
                         _______ _______ _______ _____ _____    ______ ____

>  <TORSDO>
F 0

$$$$
=
 OpenBabel10262420483D

 28 33  0  0  1  0  0  0  0  0999 V2000
  186.0850  178.4450  145.2090 C   0  0  2  0  0  3  0  0  0  0  0  0
  185.4560  179.4080  144.1700 C   0  0  1  0  0  3  0  0  0  0  0  0
  187.2510  178.6870  142.4720 C   0  0  2  0  0  3  0  0  0  0  0  0
  190.9510  177.2020  141.4940 C   0  0  0  0  0  3  0  0  0  0  0  0
  187.0220  176.5210  147.8580 O   0  0  0  0  0  1  0  0  0  0  0  0
  183.1850  179.4120  143.1500 O   0  0  0  0  0  0  0  0  0  0  0  0
  185.7710  179.0200  142.7050 C   0  0  1  0  0  3  0  0  0  0  0  0
  183.3210  178.9460  145.4620 N   0  0  0  0  0  1  0  0  0  0  0  0
  188.7040  177.2910  139.4210 C   0  0  0  0  0  3  0  0  0  0  0  0
  189.1450  177.0690  143.1630 C   0  0  2  0  0  3  0  0  0  0  0  0
  183.9220  179.6520  144.3350 C   0  0  1  0  0  3  0  0  0  0  0  0
  191.0760  176.5830  139.1160 C   0  0  0  0  0  0  0  0  0  0  0  0
  189.6400  177.3150  141.7510 C   0  0  0  0  0  0  0  0  0  0  0  0
  187.4560  178.2890  141.1200 O   0  0  0  0  0  0  0  0  0  0  0  0
  189.7960  176.5580  138.7530 C   0  0  0  0  0  3  0  0  0  0  0  0
  188.1850  177.1620  145.8640 C   0  0  1  0  0  3  0  0  0  0  0  0
  187.7030  177.5920  143.4400 C   0  0  1  0  0  3  0  0  0  0  0  0
  188.6280  177.6520  140.7110 C   0  0  0  0  0  0  0  0  0  0  0  0
  187.2400  178.8810  147.4900 C   0  0  0  0  0  2  0  0  0  0  0  0
  189.7010  177.0630  145.6460 C   0  0  0  0  0  2  0  0  0  0  0  0
  187.8680  177.4950  147.3260 C   0  0  1  0  0  3  0  0  0  0  0  0
  183.4210  178.0810  142.7510 C   0  0  0  0  0  2  0  0  0  0  0  0
  191.9710  175.8430  138.4190 F   0  0  0  0  0  0  0  0  0  0  0  0
  191.5750  177.5030  140.1740 C   0  0  0  0  0  2  0  0  0  0  0  0
  190.1480  177.5110  144.2460 C   0  0  0  0  0  2  0  0  0  0  0  0
  185.9810  179.0490  146.6250 C   0  0  0  0  0  2  0  0  0  0  0  0
  187.5460  178.1320  144.8620 C   0  0  1  0  0  3  0  0  0  0  0  0
  184.8360  177.9180  142.1900 C   0  0  0  0  0  2  0  0  0  0  0  0
  1 26  1  1  0  0  0
  2 11  1  0  0  0  0
  2  1  1  0  0  0  0
  3  7  1  0  0  0  0
  3 17  1  0  0  0  0
  4 13  2  0  0  0  0
  6 11  1  0  0  0  0
  7  2  1  0  0  0  0
  9 18  2  0  0  0  0
 10 17  1  0  0  0  0
 10 25  1  0  0  0  0
 11  8  1  0  0  0  0
 12 24  1  0  0  0  0
 13 10  1  0  0  0  0
 14  3  1  0  0  0  0
 15 12  2  0  0  0  0
 15  9  1  0  0  0  0
 16 21  1  0  0  0  0
 17 27  1  0  0  0  0
 18 14  1  0  0  0  0
 18 13  1  0  0  0  0
 20 16  1  0  0  0  0
 21 19  1  0  0  0  0
 21  5  1  0  0  0  0
 22  6  1  0  0  0  0
 23 12  1  0  0  0  0
 24  4  1  0  0  0  0
 25 20  1  0  0  0  0
 26 19  1  0  0  0  0
 27  1  1  0  0  0  0
 27 16  1  0  0  0  0
 28  7  1  0  0  0  0
 28 22  1  0  0  0  0
M  END
>  <MODEL>
8

>  <REMARK>
 VINA RESULT:      -9.0      3.289      5.541
  Name = 
  0 active torsions:
  status: ('A' for Active; 'I' for Inactive)
                            x       y       z     vdW  Elec       q    Type
                         _______ _______ _______ _____ _____    ______ ____

>  <TORSDO>
F 0

$$$$
=
 OpenBabel10262420483D

 28 33  0  0  1  0  0  0  0  0999 V2000
  186.9950  178.3110  141.0130 C   0  0  2  0  0  3  0  0  0  0  0  0
  185.8550  177.7560  141.9050 C   0  0  1  0  0  3  0  0  0  0  0  0
  187.5990  177.1860  143.7110 C   0  0  2  0  0  3  0  0  0  0  0  0
  191.4080  176.2690  144.9340 C   0  0  0  0  0  3  0  0  0  0  0  0
  189.0540  179.6560  138.6580 O   0  0  0  0  0  1  0  0  0  0  0  0
  183.8730  178.9040  142.8810 O   0  0  0  0  0  0  0  0  0  0  0  0
  186.2040  177.7520  143.4140 C   0  0  1  0  0  3  0  0  0  0  0  0
  184.4400  179.4510  140.6540 N   0  0  0  0  0  1  0  0  0  0  0  0
  189.3090  177.2250  146.9420 C   0  0  0  0  0  3  0  0  0  0  0  0
  190.1200  177.5470  143.2700 C   0  0  2  0  0  3  0  0  0  0  0  0
  184.4580  178.4190  141.6860 C   0  0  1  0  0  3  0  0  0  0  0  0
  191.6470  176.4680  147.3740 C   0  0  0  0  0  0  0  0  0  0  0  0
  190.2770  176.9250  144.6450 C   0  0  0  0  0  0  0  0  0  0  0  0
  187.8710  177.2640  145.1070 O   0  0  0  0  0  0  0  0  0  0  0  0
  190.5620  177.1580  147.7180 C   0  0  0  0  0  3  0  0  0  0  0  0
  189.5010  178.2790  140.5670 C   0  0  1  0  0  3  0  0  0  0  0  0
  188.6560  177.9410  142.9050 C   0  0  1  0  0  3  0  0  0  0  0  0
  189.1600  177.1010  145.6150 C   0  0  0  0  0  0  0  0  0  0  0  0
  187.9140  177.5460  138.7130 C   0  0  0  0  0  2  0  0  0  0  0  0
  190.8000  177.4990  140.8180 C   0  0  0  0  0  2  0  0  0  0  0  0
  189.1810  178.3280  139.0680 C   0  0  1  0  0  3  0  0  0  0  0  0
  184.7620  179.8330  143.4580 C   0  0  0  0  0  2  0  0  0  0  0  0
  192.7360  176.5130  148.1770 F   0  0  0  0  0  0  0  0  0  0  0  0
  191.6500  175.5390  146.2110 C   0  0  0  0  0  2  0  0  0  0  0  0
  190.8070  176.7390  142.1530 C   0  0  0  0  0  2  0  0  0  0  0  0
  186.7000  178.0140  139.5280 C   0  0  0  0  0  2  0  0  0  0  0  0
  188.3530  177.7270  141.4210 C   0  0  1  0  0  3  0  0  0  0  0  0
  185.9830  179.1290  144.0560 C   0  0  0  0  0  2  0  0  0  0  0  0
  1 26  1  6  0  0  0
  1 27  1  0  0  0  0
  1  2  1  0  0  0  0
  2  7  1  0  0  0  0
  3 14  1  0  0  0  0
  4 24  1  0  0  0  0
  5 21  1  0  0  0  0
  6 22  1  0  0  0  0
  7  3  1  0  0  0  0
  7 28  1  0  0  0  0
  8 11  1  0  0  0  0
  9 15  1  0  0  0  0
 10 13  1  0  0  0  0
 11  2  1  0  0  0  0
 11  6  1  0  0  0  0
 12 15  2  0  0  0  0
 12 23  1  0  0  0  0
 13  4  2  0  0  0  0
 13 18  1  0  0  0  0
 14 18  1  0  0  0  0
 16 20  1  0  0  0  0
 16 27  1  0  0  0  0
 17 10  1  0  0  0  0
 17  3  1  0  0  0  0
 18  9  2  0  0  0  0
 19 21  1  0  0  0  0
 19 26  1  0  0  0  0
 20 25  1  0  0  0  0
 21 16  1  0  0  0  0
 22 28  1  0  0  0  0
 24 12  1  0  0  0  0
 25 10  1  0  0  0  0
 27 17  1  0  0  0  0
M  END
>  <MODEL>
9

>  <REMARK>
 VINA RESULT:      -8.9      3.701      7.565
  Name = 
  0 active torsions:
  status: ('A' for Active; 'I' for Inactive)
                            x       y       z     vdW  Elec       q    Type
                         _______ _______ _______ _____ _____    ______ ____

>  <TORSDO>
F 0

$$$$
