=
 OpenBabel10262423143D

 34 37  0  0  1  0  0  0  0  0999 V2000
  185.6270  178.0620  146.9140 N   0  0  0  0  0  1  0  0  0  0  0  0
  184.4000  178.5510  143.7530 C   0  0  0  0  0  0  0  0  0  0  0  0
  183.3880  178.7780  144.5130 N   0  0  0  0  0  0  0  0  0  0  0  0
  185.2330  179.0300  145.8990 C   0  0  1  0  0  3  0  0  0  0  0  0
  185.7050  178.6490  144.4770 C   0  0  1  0  0  3  0  0  0  0  0  0
  183.8210  179.0500  145.7840 O   0  0  0  0  0  0  0  0  0  0  0  0
  186.4540  177.3180  144.4130 C   0  0  0  0  0  2  0  0  0  0  0  0
  187.1650  177.2150  143.2010 O   0  0  0  0  0  0  0  0  0  0  0  0
  190.8130  176.3460  142.9720 C   0  0  0  0  0  2  0  0  0  0  0  0
  191.3540  176.8060  146.6820 C   0  0  0  0  0  3  0  0  0  0  0  0
  191.5100  176.0990  144.3080 C   0  0  0  0  0  2  0  0  0  0  0  0
  191.1000  177.0540  145.3940 C   0  0  0  0  0  0  0  0  0  0  0  0
  190.2820  178.2670  145.0770 C   0  0  0  0  0  2  0  0  0  0  0  0
  189.3210  176.0730  143.0860 C   0  0  0  0  0  2  0  0  0  0  0  0
  188.8240  177.8750  144.8850 C   0  0  0  0  0  2  0  0  0  0  0  0
  188.5470  177.3410  143.4700 C   0  0  2  0  0  3  0  0  0  0  0  0
  193.1120  175.7740  147.9500 O   0  0  0  0  0  0  0  0  0  0  0  0
  192.0850  175.6500  147.2290 C   0  0  0  0  0  3  0  0  0  0  0  0
  184.2520  178.2950  142.2880 C   0  0  0  0  0  2  0  0  0  0  0  0
  185.0570  179.1870  141.5780 O   0  0  0  0  0  0  0  0  0  0  0  0
  184.5440  179.1940  140.2710 C   0  0  0  0  0  2  0  0  0  0  0  0
  186.1980  177.7550  137.2380 C   0  0  0  0  0  2  0  0  0  0  0  0
  186.7480  178.3840  139.9450 C   0  0  0  0  0  2  0  0  0  0  0  0
  189.9460  177.3600  137.4870 C   0  0  1  0  0  3  0  0  0  0  0  0
  188.5540  177.0450  136.9310 C   0  0  0  0  0  2  0  0  0  0  0  0
  187.4420  177.2540  137.9660 C   0  0  1  0  0  3  0  0  0  0  0  0
  188.9540  177.6470  139.8010 C   0  0  0  0  0  2  0  0  0  0  0  0
  187.8560  178.2120  139.0050 N   0  0  2  0  0  0  0  0  0  0  0  0
  190.0490  176.9800  138.9610 C   0  0  0  0  0  2  0  0  0  0  0  0
  185.5940  178.9780  139.2720 N   0  0  0  0  0  0  0  0  0  0  0  0
  185.1010  178.0440  138.2530 C   0  0  0  0  0  2  0  0  0  0  0  0
  190.9660  176.6670  136.7170 N   0  0  0  0  0  0  0  0  0  0  0  0
  192.2350  176.5190  137.2250 O   0  0  0  0  0  0  0  0  0  0  0  0
  190.7330  176.3500  135.5340 O   0  0  0  0  0  0  0  0  0  0  0  0
  2  5  1  0  0  0  0
  2  3  2  0  0  0  0
  3  6  1  0  0  0  0
  4  1  1  1  0  0  0
  5  7  1  1  0  0  0
  5  4  1  0  0  0  0
  6  4  1  0  0  0  0
  8  7  1  0  0  0  0
  9 14  1  0  0  0  0
  9 11  1  0  0  0  0
 10 18  1  0  0  0  0
 11 12  1  0  0  0  0
 12 10  2  0  0  0  0
 13 12  1  0  0  0  0
 14 16  1  0  0  0  0
 15 13  1  0  0  0  0
 16  8  1  1  0  0  0
 16 15  1  0  0  0  0
 18 17  2  0  0  0  0
 19  2  1  0  0  0  0
 20 19  1  0  0  0  0
 21 20  1  0  0  0  0
 22 26  1  0  0  0  0
 22 31  1  0  0  0  0
 24 32  1  6  0  0  0
 24 29  1  0  0  0  0
 25 24  1  0  0  0  0
 26 25  1  6  0  0  0
 26 28  1  0  0  0  0
 28 27  1  1  0  0  0
 28 23  1  0  0  0  0
 29 27  1  0  0  0  0
 30 23  1  0  0  0  0
 30 21  1  0  0  0  0
 31 30  1  0  0  0  0
 32 33  2  0  0  0  0
 34 32  2  0  0  0  0
M  END
>  <MODEL>
1

>  <REMARK>
 VINA RESULT:      -9.2      0.000      0.000
  Name = 
  9 active torsions:
  status: ('A' for Active; 'I' for Inactive)
    1  A    between atoms: C_1  and  O_9
    2  A    between atoms: C_1  and  C_20
    3  A    between atoms: C_3  and  C_24
    4  A    between atoms: C_7  and  N_11
    5  A    between atoms: C_8  and  C_10
    6  A    between atoms: C_8  and  O_17
    7  A    between atoms: O_9  and  C_34
    8  A    between atoms: O_17  and  C_18
    9  A    between atoms: C_18  and  N_30
                            x       y       z     vdW  Elec       q    Type
                         _______ _______ _______ _____ _____    ______ ____

>  <TORSDO>
F 9

$$$$
=
 OpenBabel10262423143D

 34 37  0  0  1  0  0  0  0  0999 V2000
  180.2710  178.8960  144.2280 N   0  0  0  0  0  1  0  0  0  0  0  0
  182.2290  178.3600  141.4680 C   0  0  0  0  0  0  0  0  0  0  0  0
  181.0670  177.9480  141.1040 N   0  0  0  0  0  0  0  0  0  0  0  0
  180.6540  179.3580  142.9010 C   0  0  1  0  0  3  0  0  0  0  0  0
  182.1770  179.2830  142.6450 C   0  0  1  0  0  3  0  0  0  0  0  0
  180.1110  178.4910  141.9200 O   0  0  0  0  0  0  0  0  0  0  0  0
  182.9700  178.7040  143.8150 C   0  0  0  0  0  2  0  0  0  0  0  0
  184.2040  179.3700  143.9460 O   0  0  0  0  0  0  0  0  0  0  0  0
  186.4290  177.7590  146.5090 C   0  0  0  0  0  2  0  0  0  0  0  0
  189.3690  177.6040  144.1420 C   0  0  0  0  0  3  0  0  0  0  0  0
  187.9120  177.7130  146.1490 C   0  0  0  0  0  2  0  0  0  0  0  0
  188.1780  177.3830  144.7060 C   0  0  0  0  0  0  0  0  0  0  0  0
  187.0750  176.9050  143.8150 C   0  0  0  0  0  2  0  0  0  0  0  0
  185.7370  178.9070  145.7910 C   0  0  0  0  0  2  0  0  0  0  0  0
  186.2120  178.0790  143.3780 C   0  0  0  0  0  2  0  0  0  0  0  0
  185.1660  178.4590  144.4380 C   0  0  2  0  0  3  0  0  0  0  0  0
  191.5390  177.3870  145.1450 O   0  0  0  0  0  0  0  0  0  0  0  0
  190.5750  178.1270  144.8080 C   0  0  0  0  0  3  0  0  0  0  0  0
  183.4720  177.9970  140.7220 C   0  0  0  0  0  2  0  0  0  0  0  0
  184.2530  179.1390  140.5380 O   0  0  0  0  0  0  0  0  0  0  0  0
  184.3210  179.3250  139.1470 C   0  0  0  0  0  2  0  0  0  0  0  0
  186.8250  177.3750  137.1650 C   0  0  0  0  0  2  0  0  0  0  0  0
  186.4800  178.5360  139.7260 C   0  0  0  0  0  2  0  0  0  0  0  0
  190.2690  177.1520  138.7020 C   0  0  1  0  0  3  0  0  0  0  0  0
  189.1250  176.6920  137.7930 C   0  0  0  0  0  2  0  0  0  0  0  0
  187.7440  177.0630  138.3440 C   0  0  1  0  0  3  0  0  0  0  0  0
  188.5840  177.8530  140.4600 C   0  0  0  0  0  2  0  0  0  0  0  0
  187.8280  178.2190  139.2540 N   0  0  2  0  0  0  0  0  0  0  0  0
  189.8690  177.0700  140.1720 C   0  0  0  0  0  2  0  0  0  0  0  0
  185.6320  178.9510  138.6110 N   0  0  0  0  0  0  0  0  0  0  0  0
  185.4670  177.8220  137.6880 C   0  0  0  0  0  2  0  0  0  0  0  0
  191.4590  176.3540  138.4580 N   0  0  0  0  0  0  0  0  0  0  0  0
  191.3560  174.9970  138.2680 O   0  0  0  0  0  0  0  0  0  0  0  0
  192.5840  176.8770  138.5810 O   0  0  0  0  0  0  0  0  0  0  0  0
  2  5  1  0  0  0  0
  3  2  2  0  0  0  0
  3  6  1  0  0  0  0
  4  1  1  1  0  0  0
  5  4  1  0  0  0  0
  5  7  1  1  0  0  0
  6  4  1  0  0  0  0
  7  8  1  0  0  0  0
 10 12  2  0  0  0  0
 10 18  1  0  0  0  0
 11  9  1  0  0  0  0
 12 11  1  0  0  0  0
 13 12  1  0  0  0  0
 14  9  1  0  0  0  0
 15 13  1  0  0  0  0
 15 16  1  0  0  0  0
 16  8  1  6  0  0  0
 16 14  1  0  0  0  0
 18 17  2  0  0  0  0
 19  2  1  0  0  0  0
 20 19  1  0  0  0  0
 21 20  1  0  0  0  0
 22 31  1  0  0  0  0
 24 32  1  1  0  0  0
 24 29  1  0  0  0  0
 25 26  1  0  0  0  0
 25 24  1  0  0  0  0
 26 22  1  6  0  0  0
 26 28  1  0  0  0  0
 28 23  1  1  0  0  0
 28 27  1  0  0  0  0
 29 27  1  0  0  0  0
 30 21  1  0  0  0  0
 30 23  1  0  0  0  0
 31 30  1  0  0  0  0
 32 34  2  0  0  0  0
 33 32  2  0  0  0  0
M  END
>  <MODEL>
2

>  <REMARK>
 VINA RESULT:      -8.5      2.056      3.282
  Name = 
  9 active torsions:
  status: ('A' for Active; 'I' for Inactive)
    1  A    between atoms: C_1  and  O_9
    2  A    between atoms: C_1  and  C_20
    3  A    between atoms: C_3  and  C_24
    4  A    between atoms: C_7  and  N_11
    5  A    between atoms: C_8  and  C_10
    6  A    between atoms: C_8  and  O_17
    7  A    between atoms: O_9  and  C_34
    8  A    between atoms: O_17  and  C_18
    9  A    between atoms: C_18  and  N_30
                            x       y       z     vdW  Elec       q    Type
                         _______ _______ _______ _____ _____    ______ ____

>  <TORSDO>
F 9

$$$$
=
 OpenBabel10262423143D

 34 37  0  0  1  0  0  0  0  0999 V2000
  189.2650  178.2760  148.1470 N   0  0  0  0  0  1  0  0  0  0  0  0
  190.6920  176.8290  145.3890 C   0  0  0  0  0  0  0  0  0  0  0  0
  191.6990  177.1440  146.1260 N   0  0  0  0  0  0  0  0  0  0  0  0
  189.8950  177.0880  147.5860 C   0  0  1  0  0  3  0  0  0  0  0  0
  189.4090  176.7580  146.1560 C   0  0  1  0  0  3  0  0  0  0  0  0
  191.2830  177.3210  147.4190 O   0  0  0  0  0  0  0  0  0  0  0  0
  188.3990  177.7620  145.6020 C   0  0  0  0  0  2  0  0  0  0  0  0
  187.2750  177.0880  145.0850 O   0  0  0  0  0  0  0  0  0  0  0  0
  184.2960  179.3480  144.7160 C   0  0  0  0  0  2  0  0  0  0  0  0
  183.7180  178.3220  141.1270 C   0  0  0  0  0  3  0  0  0  0  0  0
  183.4550  179.1190  143.4630 C   0  0  0  0  0  2  0  0  0  0  0  0
  184.2660  178.8480  142.2270 C   0  0  0  0  0  0  0  0  0  0  0  0
  185.7490  179.0480  142.2260 C   0  0  0  0  0  2  0  0  0  0  0  0
  185.0430  178.0800  145.1020 C   0  0  0  0  0  2  0  0  0  0  0  0
  186.4320  177.8780  142.9200 C   0  0  0  0  0  2  0  0  0  0  0  0
  186.4310  178.0280  144.4500 C   0  0  2  0  0  3  0  0  0  0  0  0
  181.9050  177.2210  140.0030 O   0  0  0  0  0  0  0  0  0  0  0  0
  182.2980  177.9870  140.9250 C   0  0  0  0  0  3  0  0  0  0  0  0
  190.8400  176.5000  143.9400 C   0  0  0  0  0  2  0  0  0  0  0  0
  190.6830  177.6620  143.1820 O   0  0  0  0  0  0  0  0  0  0  0  0
  191.5720  177.5270  142.1030 C   0  0  0  0  0  2  0  0  0  0  0  0
  191.1050  176.6460  138.4960 C   0  0  0  0  0  2  0  0  0  0  0  0
  189.6950  177.7780  140.6760 C   0  0  0  0  0  2  0  0  0  0  0  0
  187.5420  176.7990  137.2520 C   0  0  1  0  0  3  0  0  0  0  0  0
  189.0650  176.8180  137.0960 C   0  0  0  0  0  2  0  0  0  0  0  0
  189.7800  177.3850  138.3280 C   0  0  1  0  0  3  0  0  0  0  0  0
  187.7520  178.0840  139.4260 C   0  0  0  0  0  2  0  0  0  0  0  0
  188.9500  177.2410  139.5370 N   0  0  2  0  0  0  0  0  0  0  0  0
  187.0570  177.9970  138.0630 C   0  0  0  0  0  2  0  0  0  0  0  0
  190.9060  176.9940  140.9110 N   0  0  0  0  0  0  0  0  0  0  0  0
  191.8000  177.1370  139.7580 C   0  0  0  0  0  2  0  0  0  0  0  0
  186.9000  176.7820  135.9480 N   0  0  0  0  0  0  0  0  0  0  0  0
  186.0700  175.7430  135.5990 O   0  0  0  0  0  0  0  0  0  0  0  0
  187.2290  177.6240  135.0900 O   0  0  0  0  0  0  0  0  0  0  0  0
  2  3  2  0  0  0  0
  2  5  1  0  0  0  0
  3  6  1  0  0  0  0
  4  1  1  6  0  0  0
  5  7  1  6  0  0  0
  5  4  1  0  0  0  0
  6  4  1  0  0  0  0
  8  7  1  0  0  0  0
  9 14  1  0  0  0  0
 10 12  2  0  0  0  0
 11  9  1  0  0  0  0
 12 11  1  0  0  0  0
 13 12  1  0  0  0  0
 13 15  1  0  0  0  0
 15 16  1  0  0  0  0
 16  8  1  1  0  0  0
 16 14  1  0  0  0  0
 17 18  2  0  0  0  0
 18 10  1  0  0  0  0
 19  2  1  0  0  0  0
 20 19  1  0  0  0  0
 21 20  1  0  0  0  0
 22 31  1  0  0  0  0
 23 30  1  0  0  0  0
 24 32  1  6  0  0  0
 24 29  1  0  0  0  0
 25 24  1  0  0  0  0
 26 25  1  6  0  0  0
 26 22  1  0  0  0  0
 26 28  1  0  0  0  0
 28 27  1  6  0  0  0
 28 23  1  0  0  0  0
 29 27  1  0  0  0  0
 30 21  1  0  0  0  0
 31 30  1  0  0  0  0
 33 32  2  0  0  0  0
 34 32  2  0  0  0  0
M  END
>  <MODEL>
3

>  <REMARK>
 VINA RESULT:      -8.2      2.532      6.177
  Name = 
  9 active torsions:
  status: ('A' for Active; 'I' for Inactive)
    1  A    between atoms: C_1  and  O_9
    2  A    between atoms: C_1  and  C_20
    3  A    between atoms: C_3  and  C_24
    4  A    between atoms: C_7  and  N_11
    5  A    between atoms: C_8  and  C_10
    6  A    between atoms: C_8  and  O_17
    7  A    between atoms: O_9  and  C_34
    8  A    between atoms: O_17  and  C_18
    9  A    between atoms: C_18  and  N_30
                            x       y       z     vdW  Elec       q    Type
                         _______ _______ _______ _____ _____    ______ ____

>  <TORSDO>
F 9

$$$$
=
 OpenBabel10262423143D

 34 37  0  0  1  0  0  0  0  0999 V2000
  193.3730  176.6920  138.5940 N   0  0  0  0  0  1  0  0  0  0  0  0
  190.0700  176.4570  137.7160 C   0  0  0  0  0  0  0  0  0  0  0  0
  190.6590  176.7640  136.6150 N   0  0  0  0  0  0  0  0  0  0  0  0
  192.3390  175.8880  137.9560 C   0  0  1  0  0  3  0  0  0  0  0  0
  191.0040  175.8830  138.7350 C   0  0  1  0  0  3  0  0  0  0  0  0
  191.9920  176.4650  136.7080 O   0  0  0  0  0  0  0  0  0  0  0  0
  191.0210  176.7500  139.9930 C   0  0  0  0  0  2  0  0  0  0  0  0
  190.4380  176.0570  141.0710 O   0  0  0  0  0  0  0  0  0  0  0  0
  190.8610  178.8880  143.5050 C   0  0  0  0  0  2  0  0  0  0  0  0
  188.8390  177.1480  146.1790 C   0  0  0  0  0  3  0  0  0  0  0  0
  190.4430  178.5820  144.9410 C   0  0  0  0  0  2  0  0  0  0  0  0
  189.1820  177.7700  145.0470 C   0  0  0  0  0  0  0  0  0  0  0  0
  188.3230  177.5300  143.8460 C   0  0  0  0  0  2  0  0  0  0  0  0
  191.2460  177.6110  142.7740 C   0  0  0  0  0  2  0  0  0  0  0  0
  188.9370  176.4450  142.9740 C   0  0  0  0  0  2  0  0  0  0  0  0
  190.0400  176.9920  142.0540 C   0  0  2  0  0  3  0  0  0  0  0  0
  189.1630  177.8690  148.4460 O   0  0  0  0  0  0  0  0  0  0  0  0
  189.5640  177.1900  147.4610 C   0  0  0  0  0  3  0  0  0  0  0  0
  188.5940  176.6010  137.8950 C   0  0  0  0  0  2  0  0  0  0  0  0
  188.2680  177.9550  137.9920 O   0  0  0  0  0  0  0  0  0  0  0  0
  186.9450  178.0550  137.5320 C   0  0  0  0  0  2  0  0  0  0  0  0
  183.6410  178.1300  139.2890 C   0  0  0  0  0  2  0  0  0  0  0  0
  186.3890  178.6330  139.7630 C   0  0  0  0  0  2  0  0  0  0  0  0
  183.8250  178.5380  143.0390 C   0  0  1  0  0  3  0  0  0  0  0  0
  183.1470  178.6230  141.6680 C   0  0  0  0  0  2  0  0  0  0  0  0
  184.1440  178.8640  140.5290 C   0  0  1  0  0  3  0  0  0  0  0  0
  186.0280  179.2190  141.9900 C   0  0  0  0  0  2  0  0  0  0  0  0
  185.4930  178.3970  140.8950 N   0  0  2  0  0  0  0  0  0  0  0  0
  185.0250  179.4760  143.1190 C   0  0  0  0  0  2  0  0  0  0  0  0
  185.9760  177.8360  138.6090 N   0  0  0  0  0  0  0  0  0  0  0  0
  184.6540  178.2890  138.1630 C   0  0  0  0  0  2  0  0  0  0  0  0
  182.8720  178.8480  144.0930 N   0  0  0  0  0  0  0  0  0  0  0  0
  183.3170  179.1940  145.3470 O   0  0  0  0  0  0  0  0  0  0  0  0
  181.6580  178.6450  143.9030 O   0  0  0  0  0  0  0  0  0  0  0  0
  2 19  1  0  0  0  0
  2  5  1  0  0  0  0
  3  6  1  0  0  0  0
  3  2  2  0  0  0  0
  4  1  1  1  0  0  0
  4  5  1  0  0  0  0
  5  7  1  1  0  0  0
  6  4  1  0  0  0  0
  7  8  1  0  0  0  0
  9 11  1  0  0  0  0
 10 18  1  0  0  0  0
 11 12  1  0  0  0  0
 12 10  2  0  0  0  0
 13 12  1  0  0  0  0
 14  9  1  0  0  0  0
 15 13  1  0  0  0  0
 16  8  1  1  0  0  0
 16 14  1  0  0  0  0
 16 15  1  0  0  0  0
 18 17  2  0  0  0  0
 19 20  1  0  0  0  0
 21 20  1  0  0  0  0
 21 30  1  0  0  0  0
 24 29  1  0  0  0  0
 24 32  1  1  0  0  0
 25 24  1  0  0  0  0
 26 22  1  6  0  0  0
 26 28  1  0  0  0  0
 26 25  1  0  0  0  0
 27 29  1  0  0  0  0
 28 23  1  6  0  0  0
 28 27  1  0  0  0  0
 30 23  1  0  0  0  0
 31 30  1  0  0  0  0
 31 22  1  0  0  0  0
 32 33  2  0  0  0  0
 34 32  2  0  0  0  0
M  END
>  <MODEL>
4

>  <REMARK>
 VINA RESULT:      -8.1      1.964      6.755
  Name = 
  9 active torsions:
  status: ('A' for Active; 'I' for Inactive)
    1  A    between atoms: C_1  and  O_9
    2  A    between atoms: C_1  and  C_20
    3  A    between atoms: C_3  and  C_24
    4  A    between atoms: C_7  and  N_11
    5  A    between atoms: C_8  and  C_10
    6  A    between atoms: C_8  and  O_17
    7  A    between atoms: O_9  and  C_34
    8  A    between atoms: O_17  and  C_18
    9  A    between atoms: C_18  and  N_30
                            x       y       z     vdW  Elec       q    Type
                         _______ _______ _______ _____ _____    ______ ____

>  <TORSDO>
F 9

$$$$
=
 OpenBabel10262423143D

 34 37  0  0  1  0  0  0  0  0999 V2000
  186.6800  178.0700  147.0330 N   0  0  0  0  0  1  0  0  0  0  0  0
  184.4710  178.5740  144.4640 C   0  0  0  0  0  0  0  0  0  0  0  0
  183.7510  178.7170  145.5190 N   0  0  0  0  0  0  0  0  0  0  0  0
  185.9320  179.0410  146.2470 C   0  0  1  0  0  3  0  0  0  0  0  0
  185.9350  178.7310  144.7320 C   0  0  1  0  0  3  0  0  0  0  0  0
  184.5590  178.9770  146.5940 O   0  0  0  0  0  0  0  0  0  0  0  0
  186.6860  177.4510  144.3670 C   0  0  0  0  0  2  0  0  0  0  0  0
  187.2920  177.5840  143.1020 O   0  0  0  0  0  0  0  0  0  0  0  0
  190.6790  175.9990  142.7470 C   0  0  0  0  0  2  0  0  0  0  0  0
  191.6520  176.8230  146.3030 C   0  0  0  0  0  3  0  0  0  0  0  0
  191.4450  175.7960  144.0520 C   0  0  0  0  0  2  0  0  0  0  0  0
  191.3240  176.9460  145.0130 C   0  0  0  0  0  0  0  0  0  0  0  0
  190.7150  178.2430  144.5810 C   0  0  0  0  0  2  0  0  0  0  0  0
  189.1800  176.0390  143.0040 C   0  0  0  0  0  2  0  0  0  0  0  0
  189.1980  178.1220  144.5500 C   0  0  0  0  0  2  0  0  0  0  0  0
  188.6920  177.4730  143.2520 C   0  0  2  0  0  3  0  0  0  0  0  0
  192.7620  175.6690  148.0920 O   0  0  0  0  0  0  0  0  0  0  0  0
  192.2080  175.6270  146.9590 C   0  0  0  0  0  3  0  0  0  0  0  0
  183.8690  178.3530  143.1150 C   0  0  0  0  0  2  0  0  0  0  0  0
  182.7860  179.2170  142.9420 O   0  0  0  0  0  0  0  0  0  0  0  0
  182.1600  178.8000  141.7570 C   0  0  0  0  0  2  0  0  0  0  0  0
  184.4570  178.8570  138.8040 C   0  0  0  0  0  2  0  0  0  0  0  0
  182.4820  177.2260  140.0140 C   0  0  0  0  0  2  0  0  0  0  0  0
  184.7490  175.5890  136.9320 C   0  0  1  0  0  3  0  0  0  0  0  0
  184.8360  177.1110  137.0840 C   0  0  0  0  0  2  0  0  0  0  0  0
  183.8240  177.6640  138.0940 C   0  0  1  0  0  3  0  0  0  0  0  0
  182.6790  175.5640  138.3920 C   0  0  0  0  0  2  0  0  0  0  0  0
  183.4270  176.6320  139.0690 N   0  0  2  0  0  0  0  0  0  0  0  0
  183.3100  175.1030  137.0740 C   0  0  0  0  0  2  0  0  0  0  0  0
  183.1260  178.2920  140.7800 N   0  0  0  0  0  0  0  0  0  0  0  0
  183.5010  179.3770  139.8670 C   0  0  0  0  0  2  0  0  0  0  0  0
  185.2950  175.1780  135.6490 N   0  0  0  0  0  0  0  0  0  0  0  0
  185.1930  173.8690  135.2410 O   0  0  0  0  0  0  0  0  0  0  0  0
  185.9920  175.9770  134.9930 O   0  0  0  0  0  0  0  0  0  0  0  0
  2  5  1  0  0  0  0
  2  3  2  0  0  0  0
  3  6  1  0  0  0  0
  4  6  1  0  0  0  0
  4  1  1  1  0  0  0
  5  7  1  1  0  0  0
  5  4  1  0  0  0  0
  8  7  1  0  0  0  0
  9 14  1  0  0  0  0
  9 11  1  0  0  0  0
 10 18  1  0  0  0  0
 11 12  1  0  0  0  0
 12 10  2  0  0  0  0
 13 12  1  0  0  0  0
 14 16  1  0  0  0  0
 15 13  1  0  0  0  0
 16  8  1  1  0  0  0
 16 15  1  0  0  0  0
 18 17  2  0  0  0  0
 19  2  1  0  0  0  0
 20 19  1  0  0  0  0
 21 20  1  0  0  0  0
 22 31  1  0  0  0  0
 23 30  1  0  0  0  0
 24 32  1  6  0  0  0
 24 29  1  0  0  0  0
 24 25  1  0  0  0  0
 26 25  1  6  0  0  0
 26 22  1  0  0  0  0
 26 28  1  0  0  0  0
 28 27  1  6  0  0  0
 28 23  1  0  0  0  0
 29 27  1  0  0  0  0
 30 21  1  0  0  0  0
 31 30  1  0  0  0  0
 33 32  2  0  0  0  0
 34 32  2  0  0  0  0
M  END
>  <MODEL>
5

>  <REMARK>
 VINA RESULT:      -7.7      2.632      3.261
  Name = 
  9 active torsions:
  status: ('A' for Active; 'I' for Inactive)
    1  A    between atoms: C_1  and  O_9
    2  A    between atoms: C_1  and  C_20
    3  A    between atoms: C_3  and  C_24
    4  A    between atoms: C_7  and  N_11
    5  A    between atoms: C_8  and  C_10
    6  A    between atoms: C_8  and  O_17
    7  A    between atoms: O_9  and  C_34
    8  A    between atoms: O_17  and  C_18
    9  A    between atoms: C_18  and  N_30
                            x       y       z     vdW  Elec       q    Type
                         _______ _______ _______ _____ _____    ______ ____

>  <TORSDO>
F 9

$$$$
=
 OpenBabel10262423143D

 34 37  0  0  1  0  0  0  0  0999 V2000
  185.6010  178.1210  146.8220 N   0  0  0  0  0  1  0  0  0  0  0  0
  184.4180  178.5180  143.6310 C   0  0  0  0  0  0  0  0  0  0  0  0
  183.3920  178.7530  144.3700 N   0  0  0  0  0  0  0  0  0  0  0  0
  185.2130  179.0590  145.7770 C   0  0  1  0  0  3  0  0  0  0  0  0
  185.7110  178.6480  144.3720 C   0  0  1  0  0  3  0  0  0  0  0  0
  183.8020  179.0610  145.6400 O   0  0  0  0  0  0  0  0  0  0  0  0
  186.4740  177.3240  144.3530 C   0  0  0  0  0  2  0  0  0  0  0  0
  187.1750  177.1820  143.1400 O   0  0  0  0  0  0  0  0  0  0  0  0
  190.8170  176.2940  142.8940 C   0  0  0  0  0  2  0  0  0  0  0  0
  191.3930  176.8140  146.5910 C   0  0  0  0  0  3  0  0  0  0  0  0
  191.5250  176.0660  144.2280 C   0  0  0  0  0  2  0  0  0  0  0  0
  191.1280  177.0420  145.3010 C   0  0  0  0  0  0  0  0  0  0  0  0
  190.3120  178.2520  144.9710 C   0  0  0  0  0  2  0  0  0  0  0  0
  189.3260  176.0290  143.0250 C   0  0  0  0  0  2  0  0  0  0  0  0
  188.8510  177.8630  144.7970 C   0  0  0  0  0  2  0  0  0  0  0  0
  188.5600  177.3070  143.3940 C   0  0  2  0  0  3  0  0  0  0  0  0
  193.1350  175.7970  147.8920 O   0  0  0  0  0  0  0  0  0  0  0  0
  192.1240  175.6640  147.1500 C   0  0  0  0  0  3  0  0  0  0  0  0
  184.2950  178.2240  142.1720 C   0  0  0  0  0  2  0  0  0  0  0  0
  182.9900  178.4880  141.7530 O   0  0  0  0  0  0  0  0  0  0  0  0
  183.0870  178.7780  140.3830 C   0  0  0  0  0  2  0  0  0  0  0  0
  180.2690  176.4340  139.6280 C   0  0  0  0  0  2  0  0  0  0  0  0
  183.0280  176.7920  139.0900 C   0  0  0  0  0  2  0  0  0  0  0  0
  180.9720  173.8950  136.9210 C   0  0  1  0  0  3  0  0  0  0  0  0
  180.2480  174.4380  138.1570 C   0  0  0  0  0  2  0  0  0  0  0  0
  181.1400  175.3390  139.0180 C   0  0  1  0  0  3  0  0  0  0  0  0
  183.1490  174.8740  137.7700 C   0  0  0  0  0  2  0  0  0  0  0  0
  182.2300  175.9290  138.2200 N   0  0  2  0  0  0  0  0  0  0  0  0
  182.4450  173.6300  137.2190 C   0  0  0  0  0  2  0  0  0  0  0  0
  182.2230  177.9100  139.5790 N   0  0  0  0  0  0  0  0  0  0  0  0
  181.1450  177.3890  140.4270 C   0  0  0  0  0  2  0  0  0  0  0  0
  180.3270  172.6800  136.4510 N   0  0  0  0  0  0  0  0  0  0  0  0
  179.5210  171.9540  137.2950 O   0  0  0  0  0  0  0  0  0  0  0  0
  180.6330  172.2140  135.3360 O   0  0  0  0  0  0  0  0  0  0  0  0
  2  3  2  0  0  0  0
  2  5  1  0  0  0  0
  3  6  1  0  0  0  0
  4  1  1  1  0  0  0
  5  7  1  1  0  0  0
  5  4  1  0  0  0  0
  6  4  1  0  0  0  0
  8  7  1  0  0  0  0
  9 14  1  0  0  0  0
  9 11  1  0  0  0  0
 10 18  1  0  0  0  0
 11 12  1  0  0  0  0
 12 10  2  0  0  0  0
 13 12  1  0  0  0  0
 14 16  1  0  0  0  0
 15 13  1  0  0  0  0
 16  8  1  1  0  0  0
 16 15  1  0  0  0  0
 18 17  2  0  0  0  0
 19  2  1  0  0  0  0
 20 19  1  0  0  0  0
 21 20  1  0  0  0  0
 22 31  1  0  0  0  0
 23 30  1  0  0  0  0
 24 32  1  1  0  0  0
 24 29  1  0  0  0  0
 24 25  1  0  0  0  0
 26 25  1  6  0  0  0
 26 22  1  0  0  0  0
 28 27  1  1  0  0  0
 28 26  1  0  0  0  0
 28 23  1  0  0  0  0
 29 27  1  0  0  0  0
 30 21  1  0  0  0  0
 30 31  1  0  0  0  0
 32 33  2  0  0  0  0
 34 32  2  0  0  0  0
M  END
>  <MODEL>
6

>  <REMARK>
 VINA RESULT:      -7.7      3.874      5.147
  Name = 
  9 active torsions:
  status: ('A' for Active; 'I' for Inactive)
    1  A    between atoms: C_1  and  O_9
    2  A    between atoms: C_1  and  C_20
    3  A    between atoms: C_3  and  C_24
    4  A    between atoms: C_7  and  N_11
    5  A    between atoms: C_8  and  C_10
    6  A    between atoms: C_8  and  O_17
    7  A    between atoms: O_9  and  C_34
    8  A    between atoms: O_17  and  C_18
    9  A    between atoms: C_18  and  N_30
                            x       y       z     vdW  Elec       q    Type
                         _______ _______ _______ _____ _____    ______ ____

>  <TORSDO>
F 9

$$$$
=
 OpenBabel10262423143D

 34 37  0  0  1  0  0  0  0  0999 V2000
  186.7720  178.0970  136.2510 N   0  0  0  0  0  1  0  0  0  0  0  0
  189.2580  177.5290  138.5390 C   0  0  0  0  0  0  0  0  0  0  0  0
  188.6180  178.5330  139.0250 N   0  0  0  0  0  0  0  0  0  0  0  0
  187.1250  177.5410  137.5500 C   0  0  1  0  0  3  0  0  0  0  0  0
  188.4580  176.7580  137.5370 C   0  0  1  0  0  3  0  0  0  0  0  0
  187.3680  178.5930  138.4680 O   0  0  0  0  0  0  0  0  0  0  0  0
  189.1580  176.7570  136.1790 C   0  0  0  0  0  2  0  0  0  0  0  0
  188.9970  175.5090  135.5470 O   0  0  0  0  0  0  0  0  0  0  0  0
  191.5650  172.7690  135.6690 C   0  0  0  0  0  2  0  0  0  0  0  0
  194.2390  175.0710  137.0180 C   0  0  0  0  0  3  0  0  0  0  0  0
  192.8400  173.1040  136.4400 C   0  0  0  0  0  2  0  0  0  0  0  0
  193.3410  174.5020  136.2080 C   0  0  0  0  0  0  0  0  0  0  0  0
  192.7570  175.3550  135.1260 C   0  0  0  0  0  2  0  0  0  0  0  0
  190.3990  173.6080  136.1700 C   0  0  0  0  0  2  0  0  0  0  0  0
  191.4160  175.9190  135.5730 C   0  0  0  0  0  2  0  0  0  0  0  0
  190.2680  174.9160  135.3760 C   0  0  2  0  0  3  0  0  0  0  0  0
  195.4570  175.1190  139.0860 O   0  0  0  0  0  0  0  0  0  0  0  0
  194.8980  174.4460  138.1780 C   0  0  0  0  0  3  0  0  0  0  0  0
  190.6270  177.1580  139.0070 C   0  0  0  0  0  2  0  0  0  0  0  0
  190.8530  177.7130  140.2680 O   0  0  0  0  0  0  0  0  0  0  0  0
  190.4950  176.7140  141.1870 C   0  0  0  0  0  2  0  0  0  0  0  0
  189.1580  176.8870  144.6780 C   0  0  0  0  0  2  0  0  0  0  0  0
  188.3570  177.3370  141.9980 C   0  0  0  0  0  2  0  0  0  0  0  0
  185.8310  178.6380  145.0390 C   0  0  1  0  0  3  0  0  0  0  0  0
  186.9430  177.6740  145.4660 C   0  0  0  0  0  2  0  0  0  0  0  0
  187.6990  177.0770  144.2730 C   0  0  1  0  0  3  0  0  0  0  0  0
  186.2090  177.9970  142.6170 C   0  0  0  0  0  2  0  0  0  0  0  0
  187.5990  177.9490  143.0900 N   0  0  2  0  0  0  0  0  0  0  0  0
  185.1800  178.1830  143.7370 C   0  0  0  0  0  2  0  0  0  0  0  0
  189.7770  177.2650  142.3390 N   0  0  0  0  0  0  0  0  0  0  0  0
  189.9490  176.3660  143.4850 C   0  0  0  0  0  2  0  0  0  0  0  0
  184.8320  178.7520  146.0890 N   0  0  0  0  0  0  0  0  0  0  0  0
  183.5370  179.0920  145.7770 O   0  0  0  0  0  0  0  0  0  0  0  0
  185.1860  178.6980  147.2830 O   0  0  0  0  0  0  0  0  0  0  0  0
  2 19  1  0  0  0  0
  2  3  2  0  0  0  0
  4  1  1  6  0  0  0
  4  6  1  0  0  0  0
  5  7  1  6  0  0  0
  5  4  1  0  0  0  0
  5  2  1  0  0  0  0
  6  3  1  0  0  0  0
  8  7  1  0  0  0  0
  9 14  1  0  0  0  0
  9 11  1  0  0  0  0
 10 18  1  0  0  0  0
 12 11  1  0  0  0  0
 12 10  2  0  0  0  0
 13 15  1  0  0  0  0
 13 12  1  0  0  0  0
 16  8  1  1  0  0  0
 16 15  1  0  0  0  0
 16 14  1  0  0  0  0
 18 17  2  0  0  0  0
 19 20  1  0  0  0  0
 20 21  1  0  0  0  0
 21 30  1  0  0  0  0
 23 30  1  0  0  0  0
 24 25  1  0  0  0  0
 24 32  1  1  0  0  0
 26 22  1  1  0  0  0
 26 25  1  0  0  0  0
 27 28  1  0  0  0  0
 27 29  1  0  0  0  0
 28 23  1  6  0  0  0
 28 26  1  0  0  0  0
 29 24  1  0  0  0  0
 30 31  1  0  0  0  0
 31 22  1  0  0  0  0
 32 34  2  0  0  0  0
 33 32  2  0  0  0  0
M  END
>  <MODEL>
7

>  <REMARK>
 VINA RESULT:      -7.7      2.948      8.475
  Name = 
  9 active torsions:
  status: ('A' for Active; 'I' for Inactive)
    1  A    between atoms: C_1  and  O_9
    2  A    between atoms: C_1  and  C_20
    3  A    between atoms: C_3  and  C_24
    4  A    between atoms: C_7  and  N_11
    5  A    between atoms: C_8  and  C_10
    6  A    between atoms: C_8  and  O_17
    7  A    between atoms: O_9  and  C_34
    8  A    between atoms: O_17  and  C_18
    9  A    between atoms: C_18  and  N_30
                            x       y       z     vdW  Elec       q    Type
                         _______ _______ _______ _____ _____    ______ ____

>  <TORSDO>
F 9

$$$$
=
 OpenBabel10262423143D

 34 37  0  0  1  0  0  0  0  0999 V2000
  186.5950  177.1640  135.3010 N   0  0  0  0  0  1  0  0  0  0  0  0
  188.6890  178.2870  137.7690 C   0  0  0  0  0  0  0  0  0  0  0  0
  189.4750  177.6740  136.9550 N   0  0  0  0  0  0  0  0  0  0  0  0
  187.5850  178.1570  135.6970 C   0  0  1  0  0  3  0  0  0  0  0  0
  187.3870  178.6730  137.1400 C   0  0  1  0  0  3  0  0  0  0  0  0
  188.8690  177.5590  135.7320 O   0  0  0  0  0  0  0  0  0  0  0  0
  186.2220  178.0130  137.8760 C   0  0  0  0  0  2  0  0  0  0  0  0
  185.4210  178.9900  138.4980 O   0  0  0  0  0  0  0  0  0  0  0  0
  182.2370  177.2340  139.4440 C   0  0  0  0  0  2  0  0  0  0  0  0
  181.8480  179.2370  142.6230 C   0  0  0  0  0  3  0  0  0  0  0  0
  181.4520  177.8760  140.5850 C   0  0  0  0  0  2  0  0  0  0  0  0
  182.3150  178.3820  141.7080 C   0  0  0  0  0  0  0  0  0  0  0  0
  183.7690  178.0370  141.7700 C   0  0  0  0  0  2  0  0  0  0  0  0
  183.1000  178.2680  138.7360 C   0  0  0  0  0  2  0  0  0  0  0  0
  184.5520  178.9000  140.7910 C   0  0  0  0  0  2  0  0  0  0  0  0
  184.5010  178.3480  139.3580 C   0  0  2  0  0  3  0  0  0  0  0  0
  180.0400  180.6720  141.9650 O   0  0  0  0  0  0  0  0  0  0  0  0
  180.4740  179.7600  142.7190 C   0  0  0  0  0  3  0  0  0  0  0  0
  189.0990  178.6280  139.1640 C   0  0  0  0  0  2  0  0  0  0  0  0
  190.1970  177.8470  139.5290 O   0  0  0  0  0  0  0  0  0  0  0  0
  189.6930  176.8880  140.4230 C   0  0  0  0  0  2  0  0  0  0  0  0
  191.0110  176.7510  143.9220 C   0  0  0  0  0  2  0  0  0  0  0  0
  188.5960  177.1730  142.5050 C   0  0  0  0  0  2  0  0  0  0  0  0
  188.6380  177.9970  146.5840 C   0  0  1  0  0  3  0  0  0  0  0  0
  189.8270  177.1880  146.0570 C   0  0  0  0  0  2  0  0  0  0  0  0
  189.6440  176.7450  144.6010 C   0  0  1  0  0  3  0  0  0  0  0  0
  187.3600  177.4990  144.4540 C   0  0  0  0  0  2  0  0  0  0  0  0
  188.7090  177.6340  143.8880 N   0  0  2  0  0  0  0  0  0  0  0  0
  187.3260  177.4990  145.9860 C   0  0  0  0  0  2  0  0  0  0  0  0
  189.8810  177.2920  141.8190 N   0  0  0  0  0  0  0  0  0  0  0  0
  190.8470  176.3890  142.4530 C   0  0  0  0  0  2  0  0  0  0  0  0
  188.5870  177.9330  148.0350 N   0  0  0  0  0  0  0  0  0  0  0  0
  189.6860  178.2840  148.7820 O   0  0  0  0  0  0  0  0  0  0  0  0
  187.6030  177.4090  148.5920 O   0  0  0  0  0  0  0  0  0  0  0  0
  2 19  1  0  0  0  0
  3  2  2  0  0  0  0
  4  1  1  1  0  0  0
  4  6  1  0  0  0  0
  4  5  1  0  0  0  0
  5  2  1  0  0  0  0
  5  7  1  1  0  0  0
  6  3  1  0  0  0  0
  7  8  1  0  0  0  0
  9 11  1  0  0  0  0
 10 18  1  0  0  0  0
 11 12  1  0  0  0  0
 12 13  1  0  0  0  0
 12 10  2  0  0  0  0
 14 16  1  0  0  0  0
 14  9  1  0  0  0  0
 15 13  1  0  0  0  0
 16  8  1  6  0  0  0
 16 15  1  0  0  0  0
 17 18  2  0  0  0  0
 19 20  1  0  0  0  0
 20 21  1  0  0  0  0
 21 30  1  0  0  0  0
 24 32  1  1  0  0  0
 25 24  1  0  0  0  0
 26 22  1  6  0  0  0
 26 25  1  0  0  0  0
 27 29  1  0  0  0  0
 28 23  1  6  0  0  0
 28 27  1  0  0  0  0
 28 26  1  0  0  0  0
 29 24  1  0  0  0  0
 30 31  1  0  0  0  0
 30 23  1  0  0  0  0
 31 22  1  0  0  0  0
 32 34  2  0  0  0  0
 32 33  2  0  0  0  0
M  END
>  <MODEL>
8

>  <REMARK>
 VINA RESULT:      -7.7      2.647      8.906
  Name = 
  9 active torsions:
  status: ('A' for Active; 'I' for Inactive)
    1  A    between atoms: C_1  and  O_9
    2  A    between atoms: C_1  and  C_20
    3  A    between atoms: C_3  and  C_24
    4  A    between atoms: C_7  and  N_11
    5  A    between atoms: C_8  and  C_10
    6  A    between atoms: C_8  and  O_17
    7  A    between atoms: O_9  and  C_34
    8  A    between atoms: O_17  and  C_18
    9  A    between atoms: C_18  and  N_30
                            x       y       z     vdW  Elec       q    Type
                         _______ _______ _______ _____ _____    ______ ____

>  <TORSDO>
F 9

$$$$
=
 OpenBabel10262423143D

 34 37  0  0  1  0  0  0  0  0999 V2000
  191.2310  176.7480  144.7100 N   0  0  0  0  0  1  0  0  0  0  0  0
  188.0950  177.4990  145.8670 C   0  0  0  0  0  0  0  0  0  0  0  0
  188.7570  177.2230  146.9340 N   0  0  0  0  0  0  0  0  0  0  0  0
  190.3770  177.7370  145.3530 C   0  0  1  0  0  3  0  0  0  0  0  0
  188.9760  177.8450  144.7080 C   0  0  1  0  0  3  0  0  0  0  0  0
  190.0990  177.3330  146.6830 O   0  0  0  0  0  0  0  0  0  0  0  0
  188.7530  176.8670  143.5550 C   0  0  0  0  0  2  0  0  0  0  0  0
  188.0400  177.4950  142.5140 O   0  0  0  0  0  0  0  0  0  0  0  0
  189.0550  178.6300  139.0800 C   0  0  0  0  0  2  0  0  0  0  0  0
  191.2840  175.6290  138.5360 C   0  0  0  0  0  3  0  0  0  0  0  0
  189.7900  177.5880  138.2390 C   0  0  0  0  0  2  0  0  0  0  0  0
  190.7870  176.7740  139.0140 C   0  0  0  0  0  0  0  0  0  0  0  0
  191.1690  177.1580  140.4090 C   0  0  0  0  0  2  0  0  0  0  0  0
  188.1730  177.9570  140.1190 C   0  0  0  0  0  2  0  0  0  0  0  0
  190.0800  176.7330  141.3830 C   0  0  0  0  0  2  0  0  0  0  0  0
  188.9250  177.7450  141.4410 C   0  0  2  0  0  3  0  0  0  0  0  0
  190.0360  174.2410  137.0270 O   0  0  0  0  0  0  0  0  0  0  0  0
  191.0020  175.0280  137.2210 C   0  0  0  0  0  3  0  0  0  0  0  0
  186.6020  177.5350  145.8450 C   0  0  0  0  0  2  0  0  0  0  0  0
  186.1750  178.6650  145.1450 O   0  0  0  0  0  0  0  0  0  0  0  0
  184.8080  178.7920  145.4380 C   0  0  0  0  0  2  0  0  0  0  0  0
  181.8910  179.0030  143.1020 C   0  0  0  0  0  2  0  0  0  0  0  0
  184.7080  178.7060  143.0710 C   0  0  0  0  0  2  0  0  0  0  0  0
  182.7800  179.4440  139.4570 C   0  0  1  0  0  3  0  0  0  0  0  0
  181.8740  179.0350  140.6220 C   0  0  0  0  0  2  0  0  0  0  0  0
  182.6630  178.5790  141.8550 C   0  0  1  0  0  3  0  0  0  0  0  0
  184.8010  178.6180  140.7430 C   0  0  0  0  0  2  0  0  0  0  0  0
  184.0180  179.1580  141.8630 N   0  0  2  0  0  0  0  0  0  0  0  0
  184.0410  178.5860  139.4130 C   0  0  0  0  0  2  0  0  0  0  0  0
  184.0360  179.2130  144.2650 N   0  0  0  0  0  0  0  0  0  0  0  0
  182.6920  178.6300  144.3420 C   0  0  0  0  0  2  0  0  0  0  0  0
  182.0600  179.3450  138.1980 N   0  0  0  0  0  0  0  0  0  0  0  0
  181.1910  180.3410  137.8190 O   0  0  0  0  0  0  0  0  0  0  0  0
  182.1110  178.2870  137.5430 O   0  0  0  0  0  0  0  0  0  0  0  0
  2  3  2  0  0  0  0
  4  1  1  6  0  0  0
  4  6  1  0  0  0  0
  5  7  1  6  0  0  0
  5  4  1  0  0  0  0
  5  2  1  0  0  0  0
  6  3  1  0  0  0  0
  8  7  1  0  0  0  0
  9 14  1  0  0  0  0
 10 12  2  0  0  0  0
 11 12  1  0  0  0  0
 11  9  1  0  0  0  0
 12 13  1  0  0  0  0
 13 15  1  0  0  0  0
 14 16  1  0  0  0  0
 15 16  1  0  0  0  0
 16  8  1  1  0  0  0
 17 18  2  0  0  0  0
 18 10  1  0  0  0  0
 19  2  1  0  0  0  0
 20 21  1  0  0  0  0
 20 19  1  0  0  0  0
 22 31  1  0  0  0  0
 23 30  1  0  0  0  0
 24 32  1  6  0  0  0
 24 25  1  0  0  0  0
 26 25  1  6  0  0  0
 26 28  1  0  0  0  0
 26 22  1  0  0  0  0
 28 27  1  6  0  0  0
 28 23  1  0  0  0  0
 29 24  1  0  0  0  0
 29 27  1  0  0  0  0
 30 31  1  0  0  0  0
 30 21  1  0  0  0  0
 33 32  2  0  0  0  0
 34 32  2  0  0  0  0
M  END
>  <MODEL>
9

>  <REMARK>
 VINA RESULT:      -7.7      2.526      6.414
  Name = 
  9 active torsions:
  status: ('A' for Active; 'I' for Inactive)
    1  A    between atoms: C_1  and  O_9
    2  A    between atoms: C_1  and  C_20
    3  A    between atoms: C_3  and  C_24
    4  A    between atoms: C_7  and  N_11
    5  A    between atoms: C_8  and  C_10
    6  A    between atoms: C_8  and  O_17
    7  A    between atoms: O_9  and  C_34
    8  A    between atoms: O_17  and  C_18
    9  A    between atoms: C_18  and  N_30
                            x       y       z     vdW  Elec       q    Type
                         _______ _______ _______ _____ _____    ______ ____

>  <TORSDO>
F 9

$$$$
