=
 OpenBabel10262421173D

 32 35  0  0  1  0  0  0  0  0999 V2000
  189.9140  178.0370  142.8810 C   0  0  0  0  0  2  0  0  0  0  0  0
  191.2510  177.3620  142.5570 C   0  0  1  0  0  3  0  0  0  0  0  0
  189.1300  177.2740  143.9530 C   0  0  1  0  0  3  0  0  0  0  0  0
  190.0630  176.6480  145.0050 C   0  0  1  0  0  3  0  0  0  0  0  0
  191.1630  175.7930  144.3480 C   0  0  0  0  0  2  0  0  0  0  0  0
  191.2050  175.9370  142.8890 N   0  0  0  0  0  2  0  0  0  0  0  0
  188.0700  178.1770  144.5710 C   0  0  0  0  0  2  0  0  0  0  0  0
  186.6700  177.7230  144.1880 C   0  0  2  0  0  3  0  0  0  0  0  0
  182.2840  178.8250  142.5020 C   0  0  0  0  0  3  0  0  0  0  0  0
  186.3110  178.1210  142.4330 S   0  0  0  0  0  0  0  0  0  0  0  0
  183.1550  178.8470  144.7720 C   0  0  0  0  0  3  0  0  0  0  0  0
  184.4280  178.5820  144.2610 C   0  0  0  0  0  0  0  0  0  0  0  0
  185.6390  178.4010  145.0910 C   0  0  0  0  0  2  0  0  0  0  0  0
  184.6330  178.4590  142.9030 C   0  0  0  0  0  0  0  0  0  0  0  0
  182.0790  178.9700  143.8830 C   0  0  0  0  0  3  0  0  0  0  0  0
  183.5690  178.5640  142.0050 C   0  0  0  0  0  3  0  0  0  0  0  0
  190.6550  177.6400  145.7940 O   0  0  0  0  0  0  0  0  0  0  0  0
  190.7120  177.0930  147.0770 C   0  0  0  0  0  2  0  0  0  0  0  0
  189.3070  176.9240  147.6170 C   0  0  0  0  0  2  0  0  0  0  0  0
  188.8930  178.1860  148.3430 C   0  0  0  0  0  1  0  0  0  0  0  0
  191.5710  177.5500  141.0830 C   0  0  0  0  0  2  0  0  0  0  0  0
  190.5960  176.7770  140.2020 C   0  0  0  0  0  2  0  0  0  0  0  0
  190.4190  177.4470  138.8410 C   0  0  0  0  0  2  0  0  0  0  0  0
  188.2800  177.8200  139.7910 F   0  0  0  0  0  0  0  0  0  0  0  0
  189.0170  179.3400  138.2970 O   0  0  0  0  0  1  0  0  0  0  0  0
  188.9940  177.9770  138.6170 C   0  0  1  0  0  0  0  0  0  0  0  0
  188.3350  177.2370  137.6080 O   0  0  0  0  0  0  0  0  0  0  0  0
  186.1100  176.3930  137.1040 C   0  0  2  0  0  3  0  0  0  0  0  0
  186.4360  177.5600  136.1950 C   0  0  0  0  0  2  0  0  0  0  0  0
  186.9610  177.5540  137.6160 C   0  0  2  0  0  3  0  0  0  0  0  0
  186.8980  175.2930  136.7530 O   0  0  0  0  0  0  0  0  0  0  0  0
  186.1590  174.1850  137.1640 C   0  0  0  0  0  1  0  0  0  0  0  0
  1  3  1  0  0  0  0
  2 21  1  6  0  0  0
  2  1  1  0  0  0  0
  2  6  1  0  0  0  0
  3  7  1  1  0  0  0
  3  4  1  0  0  0  0
  4 17  1  6  0  0  0
  5  4  1  0  0  0  0
  6  5  1  0  0  0  0
  8  7  1  1  0  0  0
  8 13  1  0  0  0  0
  9 15  1  0  0  0  0
 10 14  1  0  0  0  0
 10  8  1  0  0  0  0
 12 11  1  0  0  0  0
 12 13  1  0  0  0  0
 14 12  2  0  0  0  0
 15 11  2  0  0  0  0
 16  9  2  0  0  0  0
 16 14  1  0  0  0  0
 17 18  1  0  0  0  0
 18 19  1  0  0  0  0
 19 20  1  0  0  0  0
 22 21  1  0  0  0  0
 23 22  1  0  0  0  0
 26 25  1  6  0  0  0
 26 23  1  0  0  0  0
 26 24  1  0  0  0  0
 27 26  1  0  0  0  0
 28 31  1  6  0  0  0
 28 30  1  0  0  0  0
 29 28  1  0  0  0  0
 29 30  1  0  0  0  0
 30 27  1  6  0  0  0
 31 32  1  0  0  0  0
M  END
>  <MODEL>
1

>  <REMARK>
 VINA RESULT:      -7.3      0.000      0.000
  Name = 
  12 active torsions:
  status: ('A' for Active; 'I' for Inactive)
    1  A    between atoms: C_2  and  C_5
    2  A    between atoms: C_2  and  C_6
    3  A    between atoms: C_3  and  O_22
    4  A    between atoms: C_4  and  C_27
    5  A    between atoms: O_7  and  C_19
    6  A    between atoms: O_7  and  C_26
    7  A    between atoms: C_13  and  C_29
    8  A    between atoms: C_14  and  O_18
    9  A    between atoms: O_18  and  C_29
   10  A    between atoms: C_20  and  C_24
   11  A    between atoms: C_20  and  C_26
   12  A    between atoms: C_24  and  C_27
                            x       y       z     vdW  Elec       q    Type
                         _______ _______ _______ _____ _____    ______ ____

>  <TORSDO>
F 12

$$$$
=
 OpenBabel10262421173D

 32 35  0  0  1  0  0  0  0  0999 V2000
  188.0080  177.5260  145.3020 C   0  0  0  0  0  2  0  0  0  0  0  0
  187.0680  177.3120  146.4920 C   0  0  1  0  0  3  0  0  0  0  0  0
  189.2740  178.2920  145.7000 C   0  0  1  0  0  3  0  0  0  0  0  0
  189.7410  177.9240  147.1200 C   0  0  1  0  0  3  0  0  0  0  0  0
  188.6020  178.0750  148.1470 C   0  0  0  0  0  2  0  0  0  0  0  0
  187.2980  178.3240  147.5220 N   0  0  0  0  0  2  0  0  0  0  0  0
  190.3620  178.0900  144.6530 C   0  0  0  0  0  2  0  0  0  0  0  0
  189.8130  177.3970  143.4170 C   0  0  2  0  0  3  0  0  0  0  0  0
  189.7450  176.9570  138.6110 C   0  0  0  0  0  3  0  0  0  0  0  0
  191.1670  176.6470  142.4310 S   0  0  0  0  0  0  0  0  0  0  0  0
  188.4420  178.3860  140.0850 C   0  0  0  0  0  3  0  0  0  0  0  0
  189.2340  177.9630  141.1550 C   0  0  0  0  0  0  0  0  0  0  0  0
  189.0450  178.4000  142.5560 C   0  0  0  0  0  2  0  0  0  0  0  0
  190.2690  177.0730  140.9610 C   0  0  0  0  0  0  0  0  0  0  0  0
  188.7030  177.8780  138.8050 C   0  0  0  0  0  3  0  0  0  0  0  0
  190.5330  176.5470  139.6950 C   0  0  0  0  0  3  0  0  0  0  0  0
  190.2270  176.6120  147.1560 O   0  0  0  0  0  0  0  0  0  0  0  0
  191.5120  176.7200  147.6910 C   0  0  0  0  0  2  0  0  0  0  0  0
  192.2950  175.4610  147.3790 C   0  0  0  0  0  2  0  0  0  0  0  0
  192.1750  175.1470  145.9030 C   0  0  0  0  0  1  0  0  0  0  0  0
  185.6250  177.3640  146.0140 C   0  0  0  0  0  2  0  0  0  0  0  0
  185.1190  178.7990  145.9380 C   0  0  0  0  0  2  0  0  0  0  0  0
  183.7130  178.8670  145.3460 C   0  0  0  0  0  2  0  0  0  0  0  0
  184.6170  180.3570  143.7390 F   0  0  0  0  0  0  0  0  0  0  0  0
  184.0870  178.2830  143.0300 O   0  0  0  0  0  1  0  0  0  0  0  0
  183.7040  179.3280  143.8800 C   0  0  1  0  0  0  0  0  0  0  0  0
  182.4310  179.8270  143.5170 O   0  0  0  0  0  0  0  0  0  0  0  0
  180.2880  179.2790  142.5060 C   0  0  2  0  0  3  0  0  0  0  0  0
  180.4230  178.5740  143.8400 C   0  0  0  0  0  2  0  0  0  0  0  0
  181.6530  178.7810  142.9800 C   0  0  2  0  0  3  0  0  0  0  0  0
  180.1400  180.6530  142.7160 O   0  0  0  0  0  0  0  0  0  0  0  0
  179.2210  181.0590  141.7500 C   0  0  0  0  0  1  0  0  0  0  0  0
  1  3  1  0  0  0  0
  1  2  1  0  0  0  0
  2 21  1  6  0  0  0
  2  6  1  0  0  0  0
  3  7  1  6  0  0  0
  3  4  1  0  0  0  0
  4 17  1  6  0  0  0
  4  5  1  0  0  0  0
  6  5  1  0  0  0  0
  8  7  1  1  0  0  0
  9 15  2  0  0  0  0
  9 16  1  0  0  0  0
 10  8  1  0  0  0  0
 11 12  2  0  0  0  0
 12 13  1  0  0  0  0
 13  8  1  0  0  0  0
 14 12  1  0  0  0  0
 14 10  1  0  0  0  0
 15 11  1  0  0  0  0
 16 14  2  0  0  0  0
 17 18  1  0  0  0  0
 19 18  1  0  0  0  0
 20 19  1  0  0  0  0
 22 21  1  0  0  0  0
 23 22  1  0  0  0  0
 24 26  1  0  0  0  0
 26 25  1  6  0  0  0
 26 23  1  0  0  0  0
 27 26  1  0  0  0  0
 28 31  1  1  0  0  0
 28 30  1  0  0  0  0
 28 29  1  0  0  0  0
 30 27  1  1  0  0  0
 30 29  1  0  0  0  0
 32 31  1  0  0  0  0
M  END
>  <MODEL>
2

>  <REMARK>
 VINA RESULT:      -7.3      3.472      6.688
  Name = 
  12 active torsions:
  status: ('A' for Active; 'I' for Inactive)
    1  A    between atoms: C_2  and  C_5
    2  A    between atoms: C_2  and  C_6
    3  A    between atoms: C_3  and  O_22
    4  A    between atoms: C_4  and  C_27
    5  A    between atoms: O_7  and  C_19
    6  A    between atoms: O_7  and  C_26
    7  A    between atoms: C_13  and  C_29
    8  A    between atoms: C_14  and  O_18
    9  A    between atoms: O_18  and  C_29
   10  A    between atoms: C_20  and  C_24
   11  A    between atoms: C_20  and  C_26
   12  A    between atoms: C_24  and  C_27
                            x       y       z     vdW  Elec       q    Type
                         _______ _______ _______ _____ _____    ______ ____

>  <TORSDO>
F 12

$$$$
=
 OpenBabel10262421173D

 32 35  0  0  1  0  0  0  0  0999 V2000
  190.2570  178.0340  143.1500 C   0  0  0  0  0  2  0  0  0  0  0  0
  191.5560  177.4600  142.5740 C   0  0  1  0  0  3  0  0  0  0  0  0
  189.6320  177.1040  144.1940 C   0  0  1  0  0  3  0  0  0  0  0  0
  190.7050  176.3780  145.0270 C   0  0  1  0  0  3  0  0  0  0  0  0
  191.7300  175.6630  144.1270 C   0  0  0  0  0  2  0  0  0  0  0  0
  191.5830  176.0040  142.7080 N   0  0  0  0  0  2  0  0  0  0  0  0
  188.6410  177.8740  145.0580 C   0  0  0  0  0  2  0  0  0  0  0  0
  187.2080  177.5030  144.7120 C   0  0  2  0  0  3  0  0  0  0  0  0
  182.9150  178.8050  142.9310 C   0  0  0  0  0  3  0  0  0  0  0  0
  186.8720  177.7770  142.9290 S   0  0  0  0  0  0  0  0  0  0  0  0
  183.7970  178.9510  145.1920 C   0  0  0  0  0  3  0  0  0  0  0  0
  185.0410  178.5420  144.7070 C   0  0  0  0  0  0  0  0  0  0  0  0
  186.2390  178.3360  145.5520 C   0  0  0  0  0  2  0  0  0  0  0  0
  185.2290  178.2870  143.3660 C   0  0  0  0  0  0  0  0  0  0  0  0
  182.7290  179.0830  144.2940 C   0  0  0  0  0  3  0  0  0  0  0  0
  184.1720  178.4000  142.4600 C   0  0  0  0  0  3  0  0  0  0  0  0
  191.3710  177.2760  145.8660 O   0  0  0  0  0  0  0  0  0  0  0  0
  191.2480  176.7320  147.1460 C   0  0  0  0  0  2  0  0  0  0  0  0
  192.3340  175.6980  147.3610 C   0  0  0  0  0  2  0  0  0  0  0  0
  192.9790  175.9200  148.7120 C   0  0  0  0  0  1  0  0  0  0  0  0
  191.6810  177.8580  141.1120 C   0  0  0  0  0  2  0  0  0  0  0  0
  190.6020  177.1960  140.2630 C   0  0  0  0  0  2  0  0  0  0  0  0
  191.2030  176.4520  139.0720 C   0  0  0  0  0  2  0  0  0  0  0  0
  190.5710  176.7290  136.8040 F   0  0  0  0  0  0  0  0  0  0  0  0
  190.0850  174.7490  137.7690 O   0  0  0  0  0  1  0  0  0  0  0  0
  190.1660  176.1310  137.9840 C   0  0  1  0  0  0  0  0  0  0  0  0
  188.8990  176.6600  138.3250 O   0  0  0  0  0  0  0  0  0  0  0  0
  187.2020  178.1740  137.4630 C   0  0  2  0  0  3  0  0  0  0  0  0
  186.7770  176.7380  137.2320 C   0  0  0  0  0  2  0  0  0  0  0  0
  188.2460  177.1000  137.1560 C   0  0  2  0  0  3  0  0  0  0  0  0
  187.1480  178.4630  138.8290 O   0  0  0  0  0  0  0  0  0  0  0  0
  185.7900  178.4320  139.1420 C   0  0  0  0  0  1  0  0  0  0  0  0
  1  3  1  0  0  0  0
  2 21  1  6  0  0  0
  2  6  1  0  0  0  0
  2  1  1  0  0  0  0
  3  4  1  0  0  0  0
  3  7  1  1  0  0  0
  4 17  1  6  0  0  0
  5  4  1  0  0  0  0
  6  5  1  0  0  0  0
  8  7  1  6  0  0  0
  8 13  1  0  0  0  0
  9 15  1  0  0  0  0
 10 14  1  0  0  0  0
 10  8  1  0  0  0  0
 12 11  1  0  0  0  0
 12 13  1  0  0  0  0
 14 12  2  0  0  0  0
 15 11  2  0  0  0  0
 16  9  2  0  0  0  0
 16 14  1  0  0  0  0
 17 18  1  0  0  0  0
 18 19  1  0  0  0  0
 19 20  1  0  0  0  0
 22 21  1  0  0  0  0
 23 22  1  0  0  0  0
 25 26  1  0  0  0  0
 26 24  1  6  0  0  0
 26 27  1  0  0  0  0
 26 23  1  0  0  0  0
 28 31  1  1  0  0  0
 29 28  1  0  0  0  0
 30 29  1  0  0  0  0
 30 28  1  0  0  0  0
 30 27  1  1  0  0  0
 31 32  1  0  0  0  0
M  END
>  <MODEL>
3

>  <REMARK>
 VINA RESULT:      -7.2      1.439      2.036
  Name = 
  12 active torsions:
  status: ('A' for Active; 'I' for Inactive)
    1  A    between atoms: C_2  and  C_5
    2  A    between atoms: C_2  and  C_6
    3  A    between atoms: C_3  and  O_22
    4  A    between atoms: C_4  and  C_27
    5  A    between atoms: O_7  and  C_19
    6  A    between atoms: O_7  and  C_26
    7  A    between atoms: C_13  and  C_29
    8  A    between atoms: C_14  and  O_18
    9  A    between atoms: O_18  and  C_29
   10  A    between atoms: C_20  and  C_24
   11  A    between atoms: C_20  and  C_26
   12  A    between atoms: C_24  and  C_27
                            x       y       z     vdW  Elec       q    Type
                         _______ _______ _______ _____ _____    ______ ____

>  <TORSDO>
F 12

$$$$
=
 OpenBabel10262421173D

 32 35  0  0  1  0  0  0  0  0999 V2000
  184.8080  178.1020  140.3320 C   0  0  0  0  0  2  0  0  0  0  0  0
  184.4160  178.5610  138.9240 C   0  0  1  0  0  3  0  0  0  0  0  0
  184.1080  178.9230  141.4190 C   0  0  1  0  0  3  0  0  0  0  0  0
  182.6810  179.3230  141.0030 C   0  0  1  0  0  3  0  0  0  0  0  0
  182.6660  180.0170  139.6280 C   0  0  0  0  0  2  0  0  0  0  0  0
  183.9610  179.9510  138.9410 N   0  0  0  0  0  2  0  0  0  0  0  0
  184.1450  178.1760  142.7470 C   0  0  0  0  0  2  0  0  0  0  0  0
  185.2970  178.6550  143.6150 C   0  0  2  0  0  3  0  0  0  0  0  0
  188.5070  177.7360  147.1000 C   0  0  0  0  0  3  0  0  0  0  0  0
  186.7670  177.5770  143.4040 S   0  0  0  0  0  0  0  0  0  0  0  0
  186.2340  178.5890  147.2310 C   0  0  0  0  0  3  0  0  0  0  0  0
  186.0920  178.3530  145.8620 C   0  0  0  0  0  0  0  0  0  0  0  0
  184.8730  178.6650  145.0830 C   0  0  0  0  0  2  0  0  0  0  0  0
  187.1230  177.8050  145.1280 C   0  0  0  0  0  0  0  0  0  0  0  0
  187.4520  178.2760  147.8510 C   0  0  0  0  0  3  0  0  0  0  0  0
  188.3470  177.5010  145.7270 C   0  0  0  0  0  3  0  0  0  0  0  0
  181.8440  178.2020  140.9660 O   0  0  0  0  0  0  0  0  0  0  0  0
  180.5860  178.6800  141.3350 C   0  0  0  0  0  2  0  0  0  0  0  0
  180.6860  179.3850  142.6730 C   0  0  0  0  0  2  0  0  0  0  0  0
  180.3290  178.4160  143.7790 C   0  0  0  0  0  1  0  0  0  0  0  0
  185.6050  178.4060  137.9900 C   0  0  0  0  0  2  0  0  0  0  0  0
  186.8600  178.0010  138.7550 C   0  0  0  0  0  2  0  0  0  0  0  0
  187.9470  177.4820  137.8150 C   0  0  0  0  0  2  0  0  0  0  0  0
  190.2050  177.6660  137.1210 F   0  0  0  0  0  0  0  0  0  0  0  0
  189.0770  179.5890  137.4580 O   0  0  0  0  0  1  0  0  0  0  0  0
  189.2560  178.2790  137.9190 C   0  0  1  0  0  0  0  0  0  0  0  0
  189.7420  178.2770  139.2470 O   0  0  0  0  0  0  0  0  0  0  0  0
  190.5370  176.7820  140.9920 C   0  0  2  0  0  3  0  0  0  0  0  0
  191.7140  177.3590  140.2330 C   0  0  0  0  0  2  0  0  0  0  0  0
  190.4230  177.0690  139.4960 C   0  0  2  0  0  3  0  0  0  0  0  0
  189.9360  177.7870  141.7560 O   0  0  0  0  0  0  0  0  0  0  0  0
  190.7250  177.8780  142.9010 C   0  0  0  0  0  1  0  0  0  0  0  0
  1  3  1  0  0  0  0
  2 21  1  6  0  0  0
  2  6  1  0  0  0  0
  2  1  1  0  0  0  0
  3  7  1  1  0  0  0
  4 17  1  6  0  0  0
  4  3  1  0  0  0  0
  5  4  1  0  0  0  0
  6  5  1  0  0  0  0
  8  7  1  6  0  0  0
  8 13  1  0  0  0  0
  9 15  1  0  0  0  0
 10  8  1  0  0  0  0
 10 14  1  0  0  0  0
 11 15  2  0  0  0  0
 12 11  1  0  0  0  0
 13 12  1  0  0  0  0
 14 16  1  0  0  0  0
 14 12  2  0  0  0  0
 16  9  2  0  0  0  0
 17 18  1  0  0  0  0
 18 19  1  0  0  0  0
 19 20  1  0  0  0  0
 21 22  1  0  0  0  0
 23 26  1  0  0  0  0
 23 22  1  0  0  0  0
 25 26  1  0  0  0  0
 26 24  1  6  0  0  0
 26 27  1  0  0  0  0
 28 31  1  1  0  0  0
 29 28  1  0  0  0  0
 30 27  1  1  0  0  0
 30 29  1  0  0  0  0
 30 28  1  0  0  0  0
 31 32  1  0  0  0  0
M  END
>  <MODEL>
4

>  <REMARK>
 VINA RESULT:      -7.1      2.657      6.453
  Name = 
  12 active torsions:
  status: ('A' for Active; 'I' for Inactive)
    1  A    between atoms: C_2  and  C_5
    2  A    between atoms: C_2  and  C_6
    3  A    between atoms: C_3  and  O_22
    4  A    between atoms: C_4  and  C_27
    5  A    between atoms: O_7  and  C_19
    6  A    between atoms: O_7  and  C_26
    7  A    between atoms: C_13  and  C_29
    8  A    between atoms: C_14  and  O_18
    9  A    between atoms: O_18  and  C_29
   10  A    between atoms: C_20  and  C_24
   11  A    between atoms: C_20  and  C_26
   12  A    between atoms: C_24  and  C_27
                            x       y       z     vdW  Elec       q    Type
                         _______ _______ _______ _____ _____    ______ ____

>  <TORSDO>
F 12

$$$$
=
 OpenBabel10262421173D

 32 35  0  0  1  0  0  0  0  0999 V2000
  190.2920  177.9990  143.3150 C   0  0  0  0  0  2  0  0  0  0  0  0
  191.5880  177.4310  142.7290 C   0  0  1  0  0  3  0  0  0  0  0  0
  189.6720  177.0610  144.3550 C   0  0  1  0  0  3  0  0  0  0  0  0
  190.7490  176.3290  145.1770 C   0  0  1  0  0  3  0  0  0  0  0  0
  191.7710  175.6210  144.2670 C   0  0  0  0  0  2  0  0  0  0  0  0
  191.6170  175.9730  142.8520 N   0  0  0  0  0  2  0  0  0  0  0  0
  188.6840  177.8230  145.2290 C   0  0  0  0  0  2  0  0  0  0  0  0
  187.2490  177.4650  144.8760 C   0  0  2  0  0  3  0  0  0  0  0  0
  182.9980  178.7860  143.0120 C   0  0  0  0  0  3  0  0  0  0  0  0
  186.9380  177.6980  143.0830 S   0  0  0  0  0  0  0  0  0  0  0  0
  183.8560  178.9760  145.2790 C   0  0  0  0  0  3  0  0  0  0  0  0
  185.0990  178.5360  144.8190 C   0  0  0  0  0  0  0  0  0  0  0  0
  186.2840  178.3340  145.6830 C   0  0  0  0  0  2  0  0  0  0  0  0
  185.2980  178.2440  143.4870 C   0  0  0  0  0  0  0  0  0  0  0  0
  182.8010  179.1020  144.3650 C   0  0  0  0  0  3  0  0  0  0  0  0
  184.2540  178.3490  142.5670 C   0  0  0  0  0  3  0  0  0  0  0  0
  191.4190  177.2220  146.0210 O   0  0  0  0  0  0  0  0  0  0  0  0
  191.2660  176.6890  147.3020 C   0  0  0  0  0  2  0  0  0  0  0  0
  192.3400  175.6500  147.5480 C   0  0  0  0  0  2  0  0  0  0  0  0
  193.0510  175.9600  148.8480 C   0  0  0  0  0  1  0  0  0  0  0  0
  191.7070  177.8400  141.2690 C   0  0  0  0  0  2  0  0  0  0  0  0
  190.7420  177.0500  140.3930 C   0  0  0  0  0  2  0  0  0  0  0  0
  189.5290  177.8900  139.9960 C   0  0  0  0  0  2  0  0  0  0  0  0
  188.3310  176.4620  138.5310 F   0  0  0  0  0  0  0  0  0  0  0  0
  188.2540  178.6740  138.0970 O   0  0  0  0  0  1  0  0  0  0  0  0
  189.0710  177.6310  138.5520 C   0  0  1  0  0  0  0  0  0  0  0  0
  190.1820  177.4550  137.6950 O   0  0  0  0  0  0  0  0  0  0  0  0
  191.4550  175.5750  136.8250 C   0  0  2  0  0  3  0  0  0  0  0  0
  190.7490  176.2880  135.6900 C   0  0  0  0  0  2  0  0  0  0  0  0
  190.0820  176.2070  137.0480 C   0  0  2  0  0  3  0  0  0  0  0  0
  192.4810  176.3850  137.3190 O   0  0  0  0  0  0  0  0  0  0  0  0
  193.5710  176.1170  136.4910 C   0  0  0  0  0  1  0  0  0  0  0  0
  1  3  1  0  0  0  0
  2 21  1  6  0  0  0
  2  6  1  0  0  0  0
  2  1  1  0  0  0  0
  3  4  1  0  0  0  0
  3  7  1  1  0  0  0
  4 17  1  6  0  0  0
  5  4  1  0  0  0  0
  6  5  1  0  0  0  0
  8  7  1  6  0  0  0
  8 13  1  0  0  0  0
  9 15  1  0  0  0  0
 10 14  1  0  0  0  0
 10  8  1  0  0  0  0
 12 11  1  0  0  0  0
 12 13  1  0  0  0  0
 14 12  2  0  0  0  0
 15 11  2  0  0  0  0
 16  9  2  0  0  0  0
 16 14  1  0  0  0  0
 17 18  1  0  0  0  0
 18 19  1  0  0  0  0
 19 20  1  0  0  0  0
 22 21  1  0  0  0  0
 23 22  1  0  0  0  0
 24 26  1  0  0  0  0
 26 25  1  6  0  0  0
 26 23  1  0  0  0  0
 27 26  1  0  0  0  0
 28 30  1  0  0  0  0
 28 31  1  1  0  0  0
 29 28  1  0  0  0  0
 29 30  1  0  0  0  0
 30 27  1  1  0  0  0
 32 31  1  0  0  0  0
M  END
>  <MODEL>
5

>  <REMARK>
 VINA RESULT:      -7.0      1.744      2.557
  Name = 
  12 active torsions:
  status: ('A' for Active; 'I' for Inactive)
    1  A    between atoms: C_2  and  C_5
    2  A    between atoms: C_2  and  C_6
    3  A    between atoms: C_3  and  O_22
    4  A    between atoms: C_4  and  C_27
    5  A    between atoms: O_7  and  C_19
    6  A    between atoms: O_7  and  C_26
    7  A    between atoms: C_13  and  C_29
    8  A    between atoms: C_14  and  O_18
    9  A    between atoms: O_18  and  C_29
   10  A    between atoms: C_20  and  C_24
   11  A    between atoms: C_20  and  C_26
   12  A    between atoms: C_24  and  C_27
                            x       y       z     vdW  Elec       q    Type
                         _______ _______ _______ _____ _____    ______ ____

>  <TORSDO>
F 12

$$$$
=
 OpenBabel10262421173D

 32 35  0  0  1  0  0  0  0  0999 V2000
  188.3660  176.6080  143.5800 C   0  0  0  0  0  2  0  0  0  0  0  0
  187.9520  177.0840  144.9760 C   0  0  1  0  0  3  0  0  0  0  0  0
  189.6590  177.2790  143.1040 C   0  0  1  0  0  3  0  0  0  0  0  0
  190.6400  177.5170  144.2670 C   0  0  1  0  0  3  0  0  0  0  0  0
  189.9670  178.2710  145.4290 C   0  0  0  0  0  2  0  0  0  0  0  0
  188.5160  178.4040  145.2620 N   0  0  0  0  0  2  0  0  0  0  0  0
  190.2800  176.4780  141.9670 C   0  0  0  0  0  2  0  0  0  0  0  0
  190.3020  177.2820  140.6770 C   0  0  2  0  0  3  0  0  0  0  0  0
  188.4790  178.1020  136.2840 C   0  0  0  0  0  3  0  0  0  0  0  0
  188.6730  178.0690  140.3680 S   0  0  0  0  0  0  0  0  0  0  0  0
  190.2480  176.5980  137.0040 C   0  0  0  0  0  3  0  0  0  0  0  0
  189.9430  176.9120  138.3310 C   0  0  0  0  0  0  0  0  0  0  0  0
  190.6650  176.3720  139.5040 C   0  0  0  0  0  2  0  0  0  0  0  0
  188.9190  177.7850  138.6330 C   0  0  0  0  0  0  0  0  0  0  0  0
  189.5070  177.1980  135.9770 C   0  0  0  0  0  3  0  0  0  0  0  0
  188.1820  178.4030  137.6210 C   0  0  0  0  0  3  0  0  0  0  0  0
  191.1530  176.3030  144.7370 O   0  0  0  0  0  0  0  0  0  0  0  0
  191.5560  176.5670  146.0470 C   0  0  0  0  0  2  0  0  0  0  0  0
  192.3000  175.3670  146.5970 C   0  0  0  0  0  2  0  0  0  0  0  0
  192.6990  175.6380  148.0320 C   0  0  0  0  0  1  0  0  0  0  0  0
  186.4350  177.1270  145.0680 C   0  0  0  0  0  2  0  0  0  0  0  0
  185.9410  178.5280  145.4110 C   0  0  0  0  0  2  0  0  0  0  0  0
  184.4380  178.6650  145.1780 C   0  0  0  0  0  2  0  0  0  0  0  0
  184.9030  180.3910  143.6220 F   0  0  0  0  0  0  0  0  0  0  0  0
  184.3570  178.3710  142.7790 O   0  0  0  0  0  1  0  0  0  0  0  0
  184.0990  179.2820  143.8120 C   0  0  1  0  0  0  0  0  0  0  0  0
  182.7520  179.7120  143.7750 O   0  0  0  0  0  0  0  0  0  0  0  0
  180.5700  179.1010  142.8930 C   0  0  2  0  0  3  0  0  0  0  0  0
  180.7030  178.6140  144.3220 C   0  0  0  0  0  2  0  0  0  0  0  0
  181.9230  178.6290  143.4240 C   0  0  2  0  0  3  0  0  0  0  0  0
  180.4800  180.4960  142.8820 O   0  0  0  0  0  0  0  0  0  0  0  0
  179.5000  180.7780  141.9310 C   0  0  0  0  0  1  0  0  0  0  0  0
  1  2  1  0  0  0  0
  2 21  1  6  0  0  0
  2  6  1  0  0  0  0
  3  7  1  6  0  0  0
  3  1  1  0  0  0  0
  3  4  1  0  0  0  0
  4 17  1  1  0  0  0
  4  5  1  0  0  0  0
  6  5  1  0  0  0  0
  8  7  1  1  0  0  0
  9 16  1  0  0  0  0
 10  8  1  0  0  0  0
 11 12  2  0  0  0  0
 12 14  1  0  0  0  0
 12 13  1  0  0  0  0
 13  8  1  0  0  0  0
 14 10  1  0  0  0  0
 15  9  2  0  0  0  0
 15 11  1  0  0  0  0
 16 14  2  0  0  0  0
 17 18  1  0  0  0  0
 18 19  1  0  0  0  0
 19 20  1  0  0  0  0
 21 22  1  0  0  0  0
 23 22  1  0  0  0  0
 24 26  1  0  0  0  0
 26 25  1  6  0  0  0
 26 23  1  0  0  0  0
 27 26  1  0  0  0  0
 28 31  1  1  0  0  0
 28 30  1  0  0  0  0
 28 29  1  0  0  0  0
 30 27  1  1  0  0  0
 30 29  1  0  0  0  0
 32 31  1  0  0  0  0
M  END
>  <MODEL>
6

>  <REMARK>
 VINA RESULT:      -6.9      3.247      6.812
  Name = 
  12 active torsions:
  status: ('A' for Active; 'I' for Inactive)
    1  A    between atoms: C_2  and  C_5
    2  A    between atoms: C_2  and  C_6
    3  A    between atoms: C_3  and  O_22
    4  A    between atoms: C_4  and  C_27
    5  A    between atoms: O_7  and  C_19
    6  A    between atoms: O_7  and  C_26
    7  A    between atoms: C_13  and  C_29
    8  A    between atoms: C_14  and  O_18
    9  A    between atoms: O_18  and  C_29
   10  A    between atoms: C_20  and  C_24
   11  A    between atoms: C_20  and  C_26
   12  A    between atoms: C_24  and  C_27
                            x       y       z     vdW  Elec       q    Type
                         _______ _______ _______ _____ _____    ______ ____

>  <TORSDO>
F 12

$$$$
=
 OpenBabel10262421173D

 32 35  0  0  1  0  0  0  0  0999 V2000
  185.7440  178.2090  140.8800 C   0  0  0  0  0  2  0  0  0  0  0  0
  185.6010  178.4490  139.3730 C   0  0  1  0  0  3  0  0  0  0  0  0
  184.6630  178.9380  141.6830 C   0  0  1  0  0  3  0  0  0  0  0  0
  183.3180  178.9710  140.9330 C   0  0  1  0  0  3  0  0  0  0  0  0
  183.4800  179.5270  139.5060 C   0  0  0  0  0  2  0  0  0  0  0  0
  184.8840  179.6980  139.1140 N   0  0  0  0  0  2  0  0  0  0  0  0
  184.5430  178.3320  143.0760 C   0  0  0  0  0  2  0  0  0  0  0  0
  185.7590  178.6640  143.9250 C   0  0  2  0  0  3  0  0  0  0  0  0
  188.9940  177.2840  147.2310 C   0  0  0  0  0  3  0  0  0  0  0  0
  187.1280  177.4850  143.5990 S   0  0  0  0  0  0  0  0  0  0  0  0
  186.8050  178.3080  147.4940 C   0  0  0  0  0  3  0  0  0  0  0  0
  186.6000  178.1660  146.1200 C   0  0  0  0  0  0  0  0  0  0  0  0
  185.3860  178.6210  145.4070 C   0  0  0  0  0  2  0  0  0  0  0  0
  187.5570  177.5810  145.3190 C   0  0  0  0  0  0  0  0  0  0  0  0
  188.0120  177.8620  148.0500 C   0  0  0  0  0  3  0  0  0  0  0  0
  188.7700  177.1450  145.8540 C   0  0  0  0  0  3  0  0  0  0  0  0
  182.7560  177.6910  140.8710 O   0  0  0  0  0  0  0  0  0  0  0  0
  181.4820  177.8840  140.3330 C   0  0  0  0  0  2  0  0  0  0  0  0
  181.0090  176.6000  139.6830 C   0  0  0  0  0  2  0  0  0  0  0  0
  182.2080  175.7870  139.2450 C   0  0  0  0  0  1  0  0  0  0  0  0
  186.9790  178.4890  138.7330 C   0  0  0  0  0  2  0  0  0  0  0  0
  188.0760  178.2530  139.7650 C   0  0  0  0  0  2  0  0  0  0  0  0
  189.4600  178.2440  139.1200 C   0  0  0  0  0  2  0  0  0  0  0  0
  189.7150  175.8980  138.9010 F   0  0  0  0  0  0  0  0  0  0  0  0
  191.6020  177.1260  139.0290 O   0  0  0  0  0  1  0  0  0  0  0  0
  190.2880  177.0060  139.4980 C   0  0  1  0  0  0  0  0  0  0  0  0
  190.2730  176.8000  140.8970 O   0  0  0  0  0  0  0  0  0  0  0  0
  191.6750  177.0290  142.8710 C   0  0  2  0  0  3  0  0  0  0  0  0
  190.7500  178.2230  142.7550 C   0  0  0  0  0  2  0  0  0  0  0  0
  191.2870  177.5730  141.4970 C   0  0  2  0  0  3  0  0  0  0  0  0
  190.9310  175.8930  143.2030 O   0  0  0  0  0  0  0  0  0  0  0  0
  191.6800  175.2590  144.1930 C   0  0  0  0  0  1  0  0  0  0  0  0
  1  3  1  0  0  0  0
  2 21  1  6  0  0  0
  2  1  1  0  0  0  0
  3  7  1  1  0  0  0
  4 17  1  6  0  0  0
  4  3  1  0  0  0  0
  5  4  1  0  0  0  0
  6  2  1  0  0  0  0
  6  5  1  0  0  0  0
  8  7  1  6  0  0  0
  8 13  1  0  0  0  0
  9 15  1  0  0  0  0
 10  8  1  0  0  0  0
 10 14  1  0  0  0  0
 11 15  2  0  0  0  0
 12 11  1  0  0  0  0
 13 12  1  0  0  0  0
 14 16  1  0  0  0  0
 14 12  2  0  0  0  0
 16  9  2  0  0  0  0
 18 17  1  0  0  0  0
 19 18  1  0  0  0  0
 20 19  1  0  0  0  0
 21 22  1  0  0  0  0
 23 26  1  0  0  0  0
 23 22  1  0  0  0  0
 25 26  1  0  0  0  0
 26 24  1  6  0  0  0
 26 27  1  0  0  0  0
 28 31  1  6  0  0  0
 29 28  1  0  0  0  0
 30 27  1  6  0  0  0
 30 29  1  0  0  0  0
 30 28  1  0  0  0  0
 31 32  1  0  0  0  0
M  END
>  <MODEL>
7

>  <REMARK>
 VINA RESULT:      -6.9      2.707      6.646
  Name = 
  12 active torsions:
  status: ('A' for Active; 'I' for Inactive)
    1  A    between atoms: C_2  and  C_5
    2  A    between atoms: C_2  and  C_6
    3  A    between atoms: C_3  and  O_22
    4  A    between atoms: C_4  and  C_27
    5  A    between atoms: O_7  and  C_19
    6  A    between atoms: O_7  and  C_26
    7  A    between atoms: C_13  and  C_29
    8  A    between atoms: C_14  and  O_18
    9  A    between atoms: O_18  and  C_29
   10  A    between atoms: C_20  and  C_24
   11  A    between atoms: C_20  and  C_26
   12  A    between atoms: C_24  and  C_27
                            x       y       z     vdW  Elec       q    Type
                         _______ _______ _______ _____ _____    ______ ____

>  <TORSDO>
F 12

$$$$
=
 OpenBabel10262421173D

 32 35  0  0  1  0  0  0  0  0999 V2000
  189.2030  178.0570  138.8770 C   0  0  0  0  0  2  0  0  0  0  0  0
  188.7090  177.7490  137.4600 C   0  0  1  0  0  3  0  0  0  0  0  0
  189.9000  176.8520  139.5170 C   0  0  1  0  0  3  0  0  0  0  0  0
  190.6900  176.0320  138.4810 C   0  0  1  0  0  3  0  0  0  0  0  0
  189.8110  175.6460  137.2760 C   0  0  0  0  0  2  0  0  0  0  0  0
  188.5040  176.3110  137.2840 N   0  0  0  0  0  2  0  0  0  0  0  0
  190.7610  177.3040  140.6890 C   0  0  0  0  0  2  0  0  0  0  0  0
  190.2710  176.7010  141.9960 C   0  0  2  0  0  3  0  0  0  0  0  0
  189.1410  177.2880  146.6510 C   0  0  0  0  0  3  0  0  0  0  0  0
  188.7650  177.5650  142.5900 S   0  0  0  0  0  0  0  0  0  0  0  0
  191.2660  176.7530  145.5970 C   0  0  0  0  0  3  0  0  0  0  0  0
  190.6720  176.9630  144.3500 C   0  0  0  0  0  0  0  0  0  0  0  0
  191.3690  176.7940  143.0550 C   0  0  0  0  0  2  0  0  0  0  0  0
  189.3510  177.3450  144.2510 C   0  0  0  0  0  0  0  0  0  0  0  0
  190.4920  176.9190  146.7530 C   0  0  0  0  0  3  0  0  0  0  0  0
  188.5620  177.5000  145.3920 C   0  0  0  0  0  3  0  0  0  0  0  0
  191.8050  176.7490  138.0300 O   0  0  0  0  0  0  0  0  0  0  0  0
  192.4230  175.9070  137.1040 C   0  0  0  0  0  2  0  0  0  0  0  0
  193.6330  175.2570  137.7410 C   0  0  0  0  0  2  0  0  0  0  0  0
  193.7780  173.8430  137.2180 C   0  0  0  0  0  1  0  0  0  0  0  0
  187.4140  178.5020  137.2000 C   0  0  0  0  0  2  0  0  0  0  0  0
  186.2470  177.8730  137.9520 C   0  0  0  0  0  2  0  0  0  0  0  0
  185.9350  178.6330  139.2400 C   0  0  0  0  0  2  0  0  0  0  0  0
  184.2020  180.1620  138.7150 F   0  0  0  0  0  0  0  0  0  0  0  0
  183.6480  177.9780  138.8070 O   0  0  0  0  0  1  0  0  0  0  0  0
  184.4440  178.9760  139.3840 C   0  0  1  0  0  0  0  0  0  0  0  0
  184.1010  179.1670  140.7420 O   0  0  0  0  0  0  0  0  0  0  0  0
  184.5550  178.2510  142.9490 C   0  0  2  0  0  3  0  0  0  0  0  0
  185.3670  179.5130  142.7390 C   0  0  0  0  0  2  0  0  0  0  0  0
  185.0960  178.5980  141.5620 C   0  0  2  0  0  3  0  0  0  0  0  0
  183.2020  178.5800  143.0700 O   0  0  0  0  0  0  0  0  0  0  0  0
  183.0610  179.0030  144.3910 C   0  0  0  0  0  1  0  0  0  0  0  0
  1  3  1  0  0  0  0
  2 21  1  1  0  0  0
  2  1  1  0  0  0  0
  3  7  1  1  0  0  0
  4 17  1  6  0  0  0
  4  3  1  0  0  0  0
  5  6  1  0  0  0  0
  5  4  1  0  0  0  0
  6  2  1  0  0  0  0
  8  7  1  6  0  0  0
  8 10  1  0  0  0  0
  8 13  1  0  0  0  0
  9 15  1  0  0  0  0
 10 14  1  0  0  0  0
 11 15  2  0  0  0  0
 12 11  1  0  0  0  0
 13 12  1  0  0  0  0
 14 12  2  0  0  0  0
 14 16  1  0  0  0  0
 16  9  2  0  0  0  0
 18 19  1  0  0  0  0
 18 17  1  0  0  0  0
 20 19  1  0  0  0  0
 21 22  1  0  0  0  0
 22 23  1  0  0  0  0
 23 26  1  0  0  0  0
 25 26  1  0  0  0  0
 26 24  1  6  0  0  0
 26 27  1  0  0  0  0
 28 31  1  6  0  0  0
 29 28  1  0  0  0  0
 30 27  1  6  0  0  0
 30 29  1  0  0  0  0
 30 28  1  0  0  0  0
 31 32  1  0  0  0  0
M  END
>  <MODEL>
8

>  <REMARK>
 VINA RESULT:      -6.7      2.962      6.878
  Name = 
  12 active torsions:
  status: ('A' for Active; 'I' for Inactive)
    1  A    between atoms: C_2  and  C_5
    2  A    between atoms: C_2  and  C_6
    3  A    between atoms: C_3  and  O_22
    4  A    between atoms: C_4  and  C_27
    5  A    between atoms: O_7  and  C_19
    6  A    between atoms: O_7  and  C_26
    7  A    between atoms: C_13  and  C_29
    8  A    between atoms: C_14  and  O_18
    9  A    between atoms: O_18  and  C_29
   10  A    between atoms: C_20  and  C_24
   11  A    between atoms: C_20  and  C_26
   12  A    between atoms: C_24  and  C_27
                            x       y       z     vdW  Elec       q    Type
                         _______ _______ _______ _____ _____    ______ ____

>  <TORSDO>
F 12

$$$$
=
 OpenBabel10262421173D

 32 35  0  0  1  0  0  0  0  0999 V2000
  189.1110  177.9530  139.0110 C   0  0  0  0  0  2  0  0  0  0  0  0
  188.6500  177.5740  137.6000 C   0  0  1  0  0  3  0  0  0  0  0  0
  189.9130  176.8290  139.6740 C   0  0  1  0  0  3  0  0  0  0  0  0
  190.7780  176.0660  138.6540 C   0  0  1  0  0  3  0  0  0  0  0  0
  189.9410  175.5770  137.4570 C   0  0  0  0  0  2  0  0  0  0  0  0
  188.5790  176.1210  137.4510 N   0  0  0  0  0  2  0  0  0  0  0  0
  190.7270  177.3800  140.8380 C   0  0  0  0  0  2  0  0  0  0  0  0
  190.3480  176.7000  142.1440 C   0  0  2  0  0  3  0  0  0  0  0  0
  189.4900  177.0340  146.8810 C   0  0  0  0  0  3  0  0  0  0  0  0
  188.8450  177.4630  142.8680 S   0  0  0  0  0  0  0  0  0  0  0  0
  191.5660  176.6480  145.6750 C   0  0  0  0  0  3  0  0  0  0  0  0
  190.8860  176.8810  144.4780 C   0  0  0  0  0  0  0  0  0  0  0  0
  191.5060  176.8010  143.1370 C   0  0  0  0  0  2  0  0  0  0  0  0
  189.5450  177.2020  144.4770 C   0  0  0  0  0  0  0  0  0  0  0  0
  190.8600  176.7270  146.8840 C   0  0  0  0  0  3  0  0  0  0  0  0
  188.8240  177.2700  145.6710 C   0  0  0  0  0  3  0  0  0  0  0  0
  191.8230  176.8720  138.1910 O   0  0  0  0  0  0  0  0  0  0  0  0
  192.4420  176.1200  137.1910 C   0  0  0  0  0  2  0  0  0  0  0  0
  193.7360  175.5400  137.7240 C   0  0  0  0  0  2  0  0  0  0  0  0
  193.7270  174.0370  137.5410 C   0  0  0  0  0  1  0  0  0  0  0  0
  187.2930  178.2010  137.3240 C   0  0  0  0  0  2  0  0  0  0  0  0
  186.1700  177.3930  137.9640 C   0  0  0  0  0  2  0  0  0  0  0  0
  184.8710  178.1930  138.0320 C   0  0  0  0  0  2  0  0  0  0  0  0
  185.8640  178.8010  140.0960 F   0  0  0  0  0  0  0  0  0  0  0  0
  184.4960  180.3130  139.1320 O   0  0  0  0  0  1  0  0  0  0  0  0
  184.7020  178.9460  139.3600 C   0  0  1  0  0  0  0  0  0  0  0  0
  183.6400  178.3990  140.1170 O   0  0  0  0  0  0  0  0  0  0  0  0
  181.3900  179.0490  140.7750 C   0  0  2  0  0  3  0  0  0  0  0  0
  181.3280  177.8760  139.8190 C   0  0  0  0  0  2  0  0  0  0  0  0
  182.4150  178.9170  139.6490 C   0  0  2  0  0  3  0  0  0  0  0  0
  181.9150  178.6270  142.0000 O   0  0  0  0  0  0  0  0  0  0  0  0
  181.0770  179.1980  142.9570 C   0  0  0  0  0  1  0  0  0  0  0  0
  1  3  1  0  0  0  0
  2 21  1  1  0  0  0
  2  1  1  0  0  0  0
  3  7  1  1  0  0  0
  4 17  1  6  0  0  0
  4  3  1  0  0  0  0
  5  4  1  0  0  0  0
  6  5  1  0  0  0  0
  6  2  1  0  0  0  0
  8  7  1  6  0  0  0
  8 10  1  0  0  0  0
  8 13  1  0  0  0  0
  9 15  1  0  0  0  0
 10 14  1  0  0  0  0
 11 15  2  0  0  0  0
 12 11  1  0  0  0  0
 13 12  1  0  0  0  0
 14 12  2  0  0  0  0
 14 16  1  0  0  0  0
 16  9  2  0  0  0  0
 18 19  1  0  0  0  0
 18 17  1  0  0  0  0
 20 19  1  0  0  0  0
 21 22  1  0  0  0  0
 22 23  1  0  0  0  0
 23 26  1  0  0  0  0
 26 25  1  6  0  0  0
 26 24  1  0  0  0  0
 26 27  1  0  0  0  0
 28 31  1  1  0  0  0
 29 28  1  0  0  0  0
 30 29  1  0  0  0  0
 30 27  1  1  0  0  0
 30 28  1  0  0  0  0
 31 32  1  0  0  0  0
M  END
>  <MODEL>
9

>  <REMARK>
 VINA RESULT:      -6.7      2.972      6.851
  Name = 
  12 active torsions:
  status: ('A' for Active; 'I' for Inactive)
    1  A    between atoms: C_2  and  C_5
    2  A    between atoms: C_2  and  C_6
    3  A    between atoms: C_3  and  O_22
    4  A    between atoms: C_4  and  C_27
    5  A    between atoms: O_7  and  C_19
    6  A    between atoms: O_7  and  C_26
    7  A    between atoms: C_13  and  C_29
    8  A    between atoms: C_14  and  O_18
    9  A    between atoms: O_18  and  C_29
   10  A    between atoms: C_20  and  C_24
   11  A    between atoms: C_20  and  C_26
   12  A    between atoms: C_24  and  C_27
                            x       y       z     vdW  Elec       q    Type
                         _______ _______ _______ _____ _____    ______ ____

>  <TORSDO>
F 12

$$$$
