=
 OpenBabel10262421443D

 30 32  0  0  1  0  0  0  0  0999 V2000
  183.7950  178.4780  140.5880 C   0  0  0  0  0  0  0  0  0  0  0  0
  185.2300  178.6470  138.4830 C   0  0  2  0  0  3  0  0  0  0  0  0
  182.4100  177.9820  140.8160 C   0  0  1  0  0  3  0  0  0  0  0  0
  184.5990  178.7900  141.6050 C   0  0  0  0  0  3  0  0  0  0  0  0
  182.1660  179.1850  144.2860 N   0  0  0  0  0  2  0  0  0  0  0  0
  182.6730  178.8710  143.1370 C   0  0  0  0  0  0  0  0  0  0  0  0
  184.1510  178.5470  143.0160 C   0  0  2  0  0  3  0  0  0  0  0  0
  181.8150  178.6400  141.9910 N   0  0  0  0  0  0  0  0  0  0  0  0
  185.0090  177.4130  137.6080 C   0  0  0  0  0  2  0  0  0  0  0  0
  186.3390  178.4600  139.3100 O   0  0  0  0  0  1  0  0  0  0  0  0
  181.5060  178.6640  136.3620 C   0  0  0  0  0  1  0  0  0  0  0  0
  183.6950  177.4630  136.8050 C   0  0  0  0  0  2  0  0  0  0  0  0
  184.0180  178.9270  139.2600 N   0  0  0  0  0  0  0  0  0  0  0  0
  181.6950  178.2950  139.4910 C   0  0  1  0  0  3  0  0  0  0  0  0
  182.8360  178.6990  137.0920 C   0  0  2  0  0  3  0  0  0  0  0  0
  182.7260  179.0350  138.5930 C   0  0  2  0  0  3  0  0  0  0  0  0
  179.6680  177.8490  142.9140 C   0  0  0  0  0  1  0  0  0  0  0  0
  180.3680  178.8740  142.0330 C   0  0  1  0  0  3  0  0  0  0  0  0
  180.0580  180.3010  142.4670 C   0  0  0  0  0  2  0  0  0  0  0  0
  179.2520  181.0320  141.4060 C   0  0  0  0  0  2  0  0  0  0  0  0
  180.0750  181.3910  140.3370 O   0  0  0  0  0  1  0  0  0  0  0  0
  185.0170  179.3810  143.9550 C   0  0  0  0  0  2  0  0  0  0  0  0
  185.0460  178.4540  146.2710 C   0  0  0  0  0  1  0  0  0  0  0  0
  185.7720  178.5000  144.9400 C   0  0  0  0  0  2  0  0  0  0  0  0
  180.9760  177.0750  138.8780 C   0  0  1  0  0  3  0  0  0  0  0  0
  182.5320  175.2780  139.1320 O   0  0  0  0  0  0  0  0  0  0  0  0
  181.3940  175.7320  139.4170 C   0  0  0  0  0  0  0  0  0  0  0  0
  180.4900  174.9300  140.1720 N   0  0  0  0  0  1  0  0  0  0  0  0
  179.4910  177.2510  138.9490 C   0  0  0  0  0  3  0  0  0  0  0  0
  178.9310  178.4370  138.7300 C   0  0  0  0  0  2  0  0  0  0  0  0
  1  4  2  0  0  0  0
  2 13  1  0  0  0  0
  2 10  1  1  0  0  0
  3  1  1  6  0  0  0
  3  8  1  0  0  0  0
  4  7  1  0  0  0  0
  6  5  2  0  0  0  0
  7  6  1  0  0  0  0
  7 22  1  1  0  0  0
  8 18  1  0  0  0  0
  8  6  1  0  0  0  0
  9  2  1  0  0  0  0
 12 15  1  0  0  0  0
 12  9  1  0  0  0  0
 13  1  1  0  0  0  0
 14 25  1  6  0  0  0
 14  3  1  0  0  0  0
 15 11  1  1  0  0  0
 15 16  1  0  0  0  0
 16 13  1  1  0  0  0
 16 14  1  0  0  0  0
 18 19  1  0  0  0  0
 18 17  1  1  0  0  0
 20 19  1  0  0  0  0
 21 20  1  0  0  0  0
 22 24  1  0  0  0  0
 24 23  1  0  0  0  0
 25 29  1  1  0  0  0
 25 27  1  0  0  0  0
 26 27  2  0  0  0  0
 27 28  1  0  0  0  0
 30 29  2  0  0  0  0
M  END
>  <MODEL>
1

>  <REMARK>
 VINA RESULT:      -5.4      0.000      0.000
  Name = 
  8 active torsions:
  status: ('A' for Active; 'I' for Inactive)
    1  A    between atoms: C_7  and  C_16
    2  A    between atoms: C_7  and  C_30
    3  A    between atoms: C_9  and  C_12
    4  A    between atoms: C_9  and  C_21
    5  A    between atoms: C_10  and  C_25
    6  A    between atoms: C_11  and  C_25
    7  A    between atoms: N_13  and  C_30
    8  A    between atoms: C_23  and  C_25
                            x       y       z     vdW  Elec       q    Type
                         _______ _______ _______ _____ _____    ______ ____

>  <TORSDO>
F 8

$$$$
=
 OpenBabel10262421443D

 30 32  0  0  1  0  0  0  0  0999 V2000
  186.0050  178.0920  139.3220 C   0  0  0  0  0  0  0  0  0  0  0  0
  188.4470  178.2620  138.5920 C   0  0  2  0  0  3  0  0  0  0  0  0
  184.8100  177.4850  138.6780 C   0  0  1  0  0  3  0  0  0  0  0  0
  185.9680  178.5420  140.5770 C   0  0  0  0  0  3  0  0  0  0  0  0
  182.3730  178.8750  141.0590 N   0  0  0  0  0  2  0  0  0  0  0  0
  183.5050  178.5390  140.5300 C   0  0  0  0  0  0  0  0  0  0  0  0
  184.7310  178.3470  141.4050 C   0  0  2  0  0  3  0  0  0  0  0  0
  183.5820  178.1570  139.1340 N   0  0  0  0  0  0  0  0  0  0  0  0
  188.8730  176.9600  137.9140 C   0  0  0  0  0  2  0  0  0  0  0  0
  188.7800  178.2320  139.9470 O   0  0  0  0  0  1  0  0  0  0  0  0
  186.9280  177.7960  134.6110 C   0  0  0  0  0  1  0  0  0  0  0  0
  188.3700  176.8360  136.4620 C   0  0  0  0  0  2  0  0  0  0  0  0
  187.0090  178.4750  138.3940 N   0  0  0  0  0  0  0  0  0  0  0  0
  185.0930  177.6450  137.1740 C   0  0  1  0  0  3  0  0  0  0  0  0
  187.4870  178.0010  136.0070 C   0  0  2  0  0  3  0  0  0  0  0  0
  186.4350  178.4200  137.0550 C   0  0  2  0  0  3  0  0  0  0  0  0
  181.3320  177.2820  138.6230 C   0  0  0  0  0  1  0  0  0  0  0  0
  182.4330  178.2560  138.2280 C   0  0  1  0  0  3  0  0  0  0  0  0
  181.9210  179.6890  138.1500 C   0  0  0  0  0  2  0  0  0  0  0  0
  180.4020  179.7270  138.1530 C   0  0  0  0  0  2  0  0  0  0  0  0
  179.9420  180.5460  139.1860 O   0  0  0  0  0  1  0  0  0  0  0  0
  184.7740  179.3170  142.5830 C   0  0  0  0  0  2  0  0  0  0  0  0
  183.4190  178.9310  144.6420 C   0  0  0  0  0  1  0  0  0  0  0  0
  184.7000  178.5760  143.9100 C   0  0  0  0  0  2  0  0  0  0  0  0
  184.9690  176.3260  136.3820 C   0  0  1  0  0  3  0  0  0  0  0  0
  186.2100  174.5250  137.3470 O   0  0  0  0  0  0  0  0  0  0  0  0
  185.0830  175.0630  137.1940 C   0  0  0  0  0  0  0  0  0  0  0  0
  183.9250  174.4200  137.7190 N   0  0  0  0  0  1  0  0  0  0  0  0
  183.7220  176.3280  135.5530 C   0  0  0  0  0  3  0  0  0  0  0  0
  183.3790  177.3940  134.8350 C   0  0  0  0  0  2  0  0  0  0  0  0
  1  4  2  0  0  0  0
  2 10  1  1  0  0  0
  3  8  1  0  0  0  0
  3  1  1  1  0  0  0
  4  7  1  0  0  0  0
  6  5  2  0  0  0  0
  6  7  1  0  0  0  0
  7 22  1  1  0  0  0
  8  6  1  0  0  0  0
  9  2  1  0  0  0  0
 12  9  1  0  0  0  0
 13  2  1  0  0  0  0
 13  1  1  0  0  0  0
 14 25  1  1  0  0  0
 14  3  1  0  0  0  0
 15 11  1  6  0  0  0
 15 12  1  0  0  0  0
 15 16  1  0  0  0  0
 16 14  1  0  0  0  0
 16 13  1  1  0  0  0
 18 17  1  1  0  0  0
 18  8  1  0  0  0  0
 19 20  1  0  0  0  0
 19 18  1  0  0  0  0
 20 21  1  0  0  0  0
 22 24  1  0  0  0  0
 24 23  1  0  0  0  0
 25 29  1  1  0  0  0
 25 27  1  0  0  0  0
 27 26  2  0  0  0  0
 27 28  1  0  0  0  0
 30 29  2  0  0  0  0
M  END
>  <MODEL>
2

>  <REMARK>
 VINA RESULT:      -4.5      2.283      3.827
  Name = 
  8 active torsions:
  status: ('A' for Active; 'I' for Inactive)
    1  A    between atoms: C_7  and  C_16
    2  A    between atoms: C_7  and  C_30
    3  A    between atoms: C_9  and  C_12
    4  A    between atoms: C_9  and  C_21
    5  A    between atoms: C_10  and  C_25
    6  A    between atoms: C_11  and  C_25
    7  A    between atoms: N_13  and  C_30
    8  A    between atoms: C_23  and  C_25
                            x       y       z     vdW  Elec       q    Type
                         _______ _______ _______ _____ _____    ______ ____

>  <TORSDO>
F 8

$$$$
=
 OpenBabel10262421443D

 30 32  0  0  1  0  0  0  0  0999 V2000
  184.8860  177.7490  137.9550 C   0  0  0  0  0  0  0  0  0  0  0  0
  183.5860  179.1820  139.6220 C   0  0  2  0  0  3  0  0  0  0  0  0
  184.4680  176.6500  137.0430 C   0  0  1  0  0  3  0  0  0  0  0  0
  186.1080  178.2790  137.8920 C   0  0  0  0  0  3  0  0  0  0  0  0
  187.8810  175.6620  136.0820 N   0  0  0  0  0  2  0  0  0  0  0  0
  186.9060  176.3480  136.5900 C   0  0  0  0  0  0  0  0  0  0  0  0
  187.0600  177.8410  136.8180 C   0  0  2  0  0  3  0  0  0  0  0  0
  185.5990  175.7480  136.7710 N   0  0  0  0  0  0  0  0  0  0  0  0
  182.2160  179.5320  139.0420 C   0  0  0  0  0  2  0  0  0  0  0  0
  184.5000  180.2010  139.3490 O   0  0  0  0  0  1  0  0  0  0  0  0
  180.7860  175.9380  139.7000 C   0  0  0  0  0  1  0  0  0  0  0  0
  181.2020  178.3750  139.1330 C   0  0  0  0  0  2  0  0  0  0  0  0
  184.0380  177.8940  139.0840 N   0  0  0  0  0  0  0  0  0  0  0  0
  183.3010  175.9850  137.7940 C   0  0  1  0  0  3  0  0  0  0  0  0
  181.7820  177.0830  139.7190 C   0  0  2  0  0  3  0  0  0  0  0  0
  183.1720  176.7230  139.1560 C   0  0  2  0  0  3  0  0  0  0  0  0
  185.4180  174.0040  135.0350 C   0  0  0  0  0  1  0  0  0  0  0  0
  185.3450  174.3250  136.5210 C   0  0  1  0  0  3  0  0  0  0  0  0
  186.2900  173.4510  137.3370 C   0  0  0  0  0  2  0  0  0  0  0  0
  186.7830  172.2690  136.5200 C   0  0  0  0  0  2  0  0  0  0  0  0
  188.1740  172.1760  136.5970 O   0  0  0  0  0  1  0  0  0  0  0  0
  188.4760  178.2330  137.2300 C   0  0  0  0  0  2  0  0  0  0  0  0
  189.6260  177.2280  139.2040 C   0  0  0  0  0  1  0  0  0  0  0  0
  188.6200  178.2670  138.7450 C   0  0  0  0  0  2  0  0  0  0  0  0
  182.0200  175.8510  136.9430 C   0  0  1  0  0  3  0  0  0  0  0  0
  182.3740  176.1510  134.5970 O   0  0  0  0  0  0  0  0  0  0  0  0
  181.9880  176.6680  135.6780 C   0  0  0  0  0  0  0  0  0  0  0  0
  181.6120  178.0420  135.7000 N   0  0  0  0  0  1  0  0  0  0  0  0
  181.7240  174.4100  136.6670 C   0  0  0  0  0  3  0  0  0  0  0  0
  180.4700  173.9700  136.5930 C   0  0  0  0  0  2  0  0  0  0  0  0
  1 13  1  0  0  0  0
  2 10  1  6  0  0  0
  3 14  1  0  0  0  0
  3  1  1  1  0  0  0
  4  1  2  0  0  0  0
  5  6  2  0  0  0  0
  6  8  1  0  0  0  0
  6  7  1  0  0  0  0
  7 22  1  1  0  0  0
  7  4  1  0  0  0  0
  8  3  1  0  0  0  0
  9 12  1  0  0  0  0
  9  2  1  0  0  0  0
 12 15  1  0  0  0  0
 13  2  1  0  0  0  0
 14 25  1  6  0  0  0
 14 16  1  0  0  0  0
 15 11  1  6  0  0  0
 16 13  1  6  0  0  0
 16 15  1  0  0  0  0
 18 17  1  6  0  0  0
 18  8  1  0  0  0  0
 18 19  1  0  0  0  0
 20 21  1  0  0  0  0
 20 19  1  0  0  0  0
 22 24  1  0  0  0  0
 24 23  1  0  0  0  0
 25 29  1  6  0  0  0
 26 27  2  0  0  0  0
 27 28  1  0  0  0  0
 27 25  1  0  0  0  0
 30 29  2  0  0  0  0
M  END
>  <MODEL>
3

>  <REMARK>
 VINA RESULT:      -4.4      3.350      6.641
  Name = 
  8 active torsions:
  status: ('A' for Active; 'I' for Inactive)
    1  A    between atoms: C_7  and  C_16
    2  A    between atoms: C_7  and  C_30
    3  A    between atoms: C_9  and  C_12
    4  A    between atoms: C_9  and  C_21
    5  A    between atoms: C_10  and  C_25
    6  A    between atoms: C_11  and  C_25
    7  A    between atoms: N_13  and  C_30
    8  A    between atoms: C_23  and  C_25
                            x       y       z     vdW  Elec       q    Type
                         _______ _______ _______ _____ _____    ______ ____

>  <TORSDO>
F 8

$$$$
=
 OpenBabel10262421443D

 30 32  0  0  1  0  0  0  0  0999 V2000
  182.8250  178.6600  141.5280 C   0  0  0  0  0  0  0  0  0  0  0  0
  180.6670  178.2310  142.8250 C   0  0  2  0  0  3  0  0  0  0  0  0
  183.0810  179.0490  140.1150 C   0  0  1  0  0  3  0  0  0  0  0  0
  183.8060  178.6340  142.4320 C   0  0  0  0  0  3  0  0  0  0  0  0
  186.7210  178.5240  140.2520 N   0  0  0  0  0  2  0  0  0  0  0  0
  185.4930  178.6580  140.6380 C   0  0  0  0  0  0  0  0  0  0  0  0
  185.1820  179.1010  142.0570 C   0  0  2  0  0  3  0  0  0  0  0  0
  184.4060  178.5750  139.6830 N   0  0  0  0  0  0  0  0  0  0  0  0
  179.6030  179.2430  142.4030 C   0  0  0  0  0  2  0  0  0  0  0  0
  181.3430  178.6860  143.9590 O   0  0  0  0  0  1  0  0  0  0  0  0
  178.9310  177.4270  138.9910 C   0  0  0  0  0  1  0  0  0  0  0  0
  178.9440  178.9060  141.0510 C   0  0  0  0  0  2  0  0  0  0  0  0
  181.5890  177.9870  141.7100 N   0  0  0  0  0  0  0  0  0  0  0  0
  181.9060  178.4130  139.3510 C   0  0  1  0  0  3  0  0  0  0  0  0
  179.5310  177.6690  140.3630 C   0  0  2  0  0  3  0  0  0  0  0  0
  181.0730  177.6210  140.3960 C   0  0  2  0  0  3  0  0  0  0  0  0
  186.0110  178.6110  137.8090 C   0  0  0  0  0  1  0  0  0  0  0  0
  184.6200  178.2090  138.2780 C   0  0  1  0  0  3  0  0  0  0  0  0
  184.3520  176.7260  138.0540 C   0  0  0  0  0  2  0  0  0  0  0  0
  185.2620  176.1630  136.9750 C   0  0  0  0  0  2  0  0  0  0  0  0
  185.6250  174.8520  137.2850 O   0  0  0  0  0  1  0  0  0  0  0  0
  186.1780  178.5560  143.0770 C   0  0  0  0  0  2  0  0  0  0  0  0
  186.4400  177.6180  145.3740 C   0  0  0  0  0  1  0  0  0  0  0  0
  185.5400  178.4170  144.4510 C   0  0  0  0  0  2  0  0  0  0  0  0
  181.1450  179.4130  138.4550 C   0  0  1  0  0  3  0  0  0  0  0  0
  180.4960  181.2550  139.8340 O   0  0  0  0  0  0  0  0  0  0  0  0
  181.2140  180.8560  138.8810 C   0  0  0  0  0  0  0  0  0  0  0  0
  182.0120  181.7950  138.1670 N   0  0  0  0  0  1  0  0  0  0  0  0
  181.5520  179.2490  137.0240 C   0  0  0  0  0  3  0  0  0  0  0  0
  181.3970  178.0860  136.3960 C   0  0  0  0  0  2  0  0  0  0  0  0
  1 13  1  0  0  0  0
  1  4  2  0  0  0  0
  2 10  1  1  0  0  0
  3  1  1  1  0  0  0
  5  6  2  0  0  0  0
  6  7  1  0  0  0  0
  7  4  1  0  0  0  0
  7 22  1  1  0  0  0
  8  3  1  0  0  0  0
  8  6  1  0  0  0  0
  9  2  1  0  0  0  0
 12  9  1  0  0  0  0
 13  2  1  0  0  0  0
 14 25  1  1  0  0  0
 14  3  1  0  0  0  0
 14 16  1  0  0  0  0
 15 11  1  6  0  0  0
 15 16  1  0  0  0  0
 15 12  1  0  0  0  0
 16 13  1  1  0  0  0
 18 17  1  1  0  0  0
 18  8  1  0  0  0  0
 19 18  1  0  0  0  0
 20 21  1  0  0  0  0
 20 19  1  0  0  0  0
 22 24  1  0  0  0  0
 24 23  1  0  0  0  0
 25 29  1  6  0  0  0
 25 27  1  0  0  0  0
 27 26  2  0  0  0  0
 28 27  1  0  0  0  0
 30 29  2  0  0  0  0
M  END
>  <MODEL>
4

>  <REMARK>
 VINA RESULT:      -4.3      1.747      5.110
  Name = 
  8 active torsions:
  status: ('A' for Active; 'I' for Inactive)
    1  A    between atoms: C_7  and  C_16
    2  A    between atoms: C_7  and  C_30
    3  A    between atoms: C_9  and  C_12
    4  A    between atoms: C_9  and  C_21
    5  A    between atoms: C_10  and  C_25
    6  A    between atoms: C_11  and  C_25
    7  A    between atoms: N_13  and  C_30
    8  A    between atoms: C_23  and  C_25
                            x       y       z     vdW  Elec       q    Type
                         _______ _______ _______ _____ _____    ______ ____

>  <TORSDO>
F 8

$$$$
=
 OpenBabel10262421443D

 30 32  0  0  1  0  0  0  0  0999 V2000
  185.6180  177.6460  137.9790 C   0  0  0  0  0  0  0  0  0  0  0  0
  185.1250  176.2690  135.8860 C   0  0  2  0  0  3  0  0  0  0  0  0
  186.8910  178.0040  138.6630 C   0  0  1  0  0  3  0  0  0  0  0  0
  184.4560  178.1940  138.3390 C   0  0  0  0  0  3  0  0  0  0  0  0
  185.2990  179.4330  141.6590 N   0  0  0  0  0  2  0  0  0  0  0  0
  185.4410  178.9460  140.4670 C   0  0  0  0  0  0  0  0  0  0  0  0
  184.4280  179.2710  139.3840 C   0  0  2  0  0  3  0  0  0  0  0  0
  186.6550  178.2460  140.0960 N   0  0  0  0  0  0  0  0  0  0  0  0
  186.1810  176.5570  134.8190 C   0  0  0  0  0  2  0  0  0  0  0  0
  184.0110  177.0890  135.6960 O   0  0  0  0  0  1  0  0  0  0  0  0
  188.9100  174.4060  136.6400 C   0  0  0  0  0  1  0  0  0  0  0  0
  187.5160  175.8310  135.0720 C   0  0  0  0  0  2  0  0  0  0  0  0
  185.7070  176.4500  137.2210 N   0  0  0  0  0  0  0  0  0  0  0  0
  187.8050  176.8020  138.3710 C   0  0  1  0  0  3  0  0  0  0  0  0
  187.5490  175.0230  136.3730 C   0  0  2  0  0  3  0  0  0  0  0  0
  186.9490  175.7750  137.5790 C   0  0  2  0  0  3  0  0  0  0  0  0
  188.6700  179.1100  141.2270 C   0  0  0  0  0  1  0  0  0  0  0  0
  187.7120  177.9390  141.0650 C   0  0  1  0  0  3  0  0  0  0  0  0
  187.1200  177.5010  142.3990 C   0  0  0  0  0  2  0  0  0  0  0  0
  188.1120  176.6640  143.1890 C   0  0  0  0  0  2  0  0  0  0  0  0
  187.8770  176.8030  144.5580 O   0  0  0  0  0  1  0  0  0  0  0  0
  183.0050  179.3910  139.9220 C   0  0  0  0  0  2  0  0  0  0  0  0
  181.7720  181.1980  138.7220 C   0  0  0  0  0  1  0  0  0  0  0  0
  182.0180  179.7030  138.8070 C   0  0  0  0  0  2  0  0  0  0  0  0
  189.1670  177.1990  137.7630 C   0  0  1  0  0  3  0  0  0  0  0  0
  189.3670  178.4240  135.7190 O   0  0  0  0  0  0  0  0  0  0  0  0
  189.1770  178.4750  136.9620 C   0  0  0  0  0  0  0  0  0  0  0  0
  189.0620  179.7440  137.6000 N   0  0  0  0  0  1  0  0  0  0  0  0
  190.2280  177.2130  138.8190 C   0  0  0  0  0  3  0  0  0  0  0  0
  191.4170  176.6570  138.6030 C   0  0  0  0  0  2  0  0  0  0  0  0
  1  4  2  0  0  0  0
  2 10  1  6  0  0  0
  2 13  1  0  0  0  0
  3  1  1  6  0  0  0
  3  8  1  0  0  0  0
  4  7  1  0  0  0  0
  6  5  2  0  0  0  0
  7 22  1  1  0  0  0
  7  6  1  0  0  0  0
  8  6  1  0  0  0  0
  8 18  1  0  0  0  0
  9 12  1  0  0  0  0
  9  2  1  0  0  0  0
 12 15  1  0  0  0  0
 13  1  1  0  0  0  0
 14 25  1  6  0  0  0
 14  3  1  0  0  0  0
 15 11  1  1  0  0  0
 15 16  1  0  0  0  0
 16 13  1  6  0  0  0
 16 14  1  0  0  0  0
 18 17  1  1  0  0  0
 18 19  1  0  0  0  0
 19 20  1  0  0  0  0
 20 21  1  0  0  0  0
 23 24  1  0  0  0  0
 24 22  1  0  0  0  0
 25 29  1  1  0  0  0
 26 27  2  0  0  0  0
 27 28  1  0  0  0  0
 27 25  1  0  0  0  0
 30 29  2  0  0  0  0
M  END
>  <MODEL>
5

>  <REMARK>
 VINA RESULT:      -4.1      3.573      7.098
  Name = 
  8 active torsions:
  status: ('A' for Active; 'I' for Inactive)
    1  A    between atoms: C_7  and  C_16
    2  A    between atoms: C_7  and  C_30
    3  A    between atoms: C_9  and  C_12
    4  A    between atoms: C_9  and  C_21
    5  A    between atoms: C_10  and  C_25
    6  A    between atoms: C_11  and  C_25
    7  A    between atoms: N_13  and  C_30
    8  A    between atoms: C_23  and  C_25
                            x       y       z     vdW  Elec       q    Type
                         _______ _______ _______ _____ _____    ______ ____

>  <TORSDO>
F 8

$$$$
=
 OpenBabel10262421443D

 30 32  0  0  1  0  0  0  0  0999 V2000
  182.6070  177.2770  139.1650 C   0  0  0  0  0  0  0  0  0  0  0  0
  180.4420  176.5020  140.2770 C   0  0  2  0  0  3  0  0  0  0  0  0
  183.0740  177.2380  137.7530 C   0  0  1  0  0  3  0  0  0  0  0  0
  183.2850  177.9370  140.1050 C   0  0  0  0  0  3  0  0  0  0  0  0
  186.5350  178.2490  138.4920 N   0  0  0  0  0  2  0  0  0  0  0  0
  185.2720  178.0160  138.6530 C   0  0  0  0  0  0  0  0  0  0  0  0
  184.4900  178.7480  139.7290 C   0  0  2  0  0  3  0  0  0  0  0  0
  184.5450  177.2020  137.6980 N   0  0  0  0  0  0  0  0  0  0  0  0
  179.2550  176.8160  139.3680 C   0  0  0  0  0  2  0  0  0  0  0  0
  180.6310  177.5330  141.1990 O   0  0  0  0  0  1  0  0  0  0  0  0
  180.0740  173.8570  136.9250 C   0  0  0  0  0  1  0  0  0  0  0  0
  179.1000  175.8190  138.2020 C   0  0  0  0  0  2  0  0  0  0  0  0
  181.6440  176.2780  139.4650 N   0  0  0  0  0  0  0  0  0  0  0  0
  182.3930  175.9810  137.1850 C   0  0  1  0  0  3  0  0  0  0  0  0
  180.2010  174.7560  138.1410 C   0  0  2  0  0  3  0  0  0  0  0  0
  181.6180  175.3250  138.3610 C   0  0  2  0  0  3  0  0  0  0  0  0
  185.8940  177.4830  135.6520 C   0  0  0  0  0  1  0  0  0  0  0  0
  185.2100  176.5030  136.5930 C   0  0  1  0  0  3  0  0  0  0  0  0
  186.1790  175.4500  137.1190 C   0  0  0  0  0  2  0  0  0  0  0  0
  185.5100  174.0890  137.2080 C   0  0  0  0  0  2  0  0  0  0  0  0
  186.4590  173.1030  137.4810 O   0  0  0  0  0  1  0  0  0  0  0  0
  185.3160  179.0070  140.9860 C   0  0  0  0  0  2  0  0  0  0  0  0
  185.5940  178.2100  143.3330 C   0  0  0  0  0  1  0  0  0  0  0  0
  184.5960  178.5130  142.2310 C   0  0  0  0  0  2  0  0  0  0  0  0
  181.6060  176.2440  135.8830 C   0  0  1  0  0  3  0  0  0  0  0  0
  180.2150  178.1590  136.2190 O   0  0  0  0  0  0  0  0  0  0  0  0
  181.2190  177.6780  135.6330 C   0  0  0  0  0  0  0  0  0  0  0  0
  181.9180  178.4720  134.6790 N   0  0  0  0  0  1  0  0  0  0  0  0
  182.3280  175.6630  134.7080 C   0  0  0  0  0  3  0  0  0  0  0  0
  182.7970  174.4190  134.7380 C   0  0  0  0  0  2  0  0  0  0  0  0
  1 13  1  0  0  0  0
  1  4  2  0  0  0  0
  2 10  1  1  0  0  0
  3  1  1  1  0  0  0
  5  6  2  0  0  0  0
  6  7  1  0  0  0  0
  7  4  1  0  0  0  0
  7 22  1  1  0  0  0
  8  3  1  0  0  0  0
  8  6  1  0  0  0  0
  9  2  1  0  0  0  0
 12  9  1  0  0  0  0
 13  2  1  0  0  0  0
 14 25  1  6  0  0  0
 14  3  1  0  0  0  0
 14 16  1  0  0  0  0
 15 11  1  6  0  0  0
 15 12  1  0  0  0  0
 15 16  1  0  0  0  0
 16 13  1  1  0  0  0
 18 17  1  1  0  0  0
 18 19  1  0  0  0  0
 18  8  1  0  0  0  0
 19 20  1  0  0  0  0
 20 21  1  0  0  0  0
 22 24  1  0  0  0  0
 24 23  1  0  0  0  0
 25 29  1  6  0  0  0
 27 25  1  0  0  0  0
 27 26  2  0  0  0  0
 28 27  1  0  0  0  0
 29 30  2  0  0  0  0
M  END
>  <MODEL>
6

>  <REMARK>
 VINA RESULT:      -4.0      2.682      5.825
  Name = 
  8 active torsions:
  status: ('A' for Active; 'I' for Inactive)
    1  A    between atoms: C_7  and  C_16
    2  A    between atoms: C_7  and  C_30
    3  A    between atoms: C_9  and  C_12
    4  A    between atoms: C_9  and  C_21
    5  A    between atoms: C_10  and  C_25
    6  A    between atoms: C_11  and  C_25
    7  A    between atoms: N_13  and  C_30
    8  A    between atoms: C_23  and  C_25
                            x       y       z     vdW  Elec       q    Type
                         _______ _______ _______ _____ _____    ______ ____

>  <TORSDO>
F 8

$$$$
=
 OpenBabel10262421443D

 30 32  0  0  1  0  0  0  0  0999 V2000
  183.7020  173.8630  137.1180 C   0  0  0  0  0  0  0  0  0  0  0  0
  181.5440  172.5920  136.6160 C   0  0  2  0  0  3  0  0  0  0  0  0
  183.9600  175.2650  137.5450 C   0  0  1  0  0  3  0  0  0  0  0  0
  184.6770  172.9530  137.0900 C   0  0  0  0  0  3  0  0  0  0  0  0
  187.6090  175.1130  137.0900 N   0  0  0  0  0  2  0  0  0  0  0  0
  186.3750  174.7330  137.1910 C   0  0  0  0  0  0  0  0  0  0  0  0
  186.0460  173.3070  137.5930 C   0  0  2  0  0  3  0  0  0  0  0  0
  185.2970  175.6980  137.1080 N   0  0  0  0  0  0  0  0  0  0  0  0
  180.4620  172.9990  137.6160 C   0  0  0  0  0  2  0  0  0  0  0  0
  182.2020  171.4430  137.0570 O   0  0  0  0  0  1  0  0  0  0  0  0
  179.8510  176.4580  135.8670 C   0  0  0  0  0  1  0  0  0  0  0  0
  179.8210  174.3630  137.2970 C   0  0  0  0  0  2  0  0  0  0  0  0
  182.4790  173.7060  136.4160 N   0  0  0  0  0  0  0  0  0  0  0  0
  182.8030  176.0520  136.9040 C   0  0  1  0  0  3  0  0  0  0  0  0
  180.4370  175.0750  136.0890 C   0  0  2  0  0  3  0  0  0  0  0  0
  181.9790  175.0320  136.0710 C   0  0  2  0  0  3  0  0  0  0  0  0
  186.1030  177.8650  137.9680 C   0  0  0  0  0  1  0  0  0  0  0  0
  185.5290  177.1090  136.7800 C   0  0  1  0  0  3  0  0  0  0  0  0
  186.4080  177.2440  135.5420 C   0  0  0  0  0  2  0  0  0  0  0  0
  187.4270  178.3580  135.7150 C   0  0  0  0  0  2  0  0  0  0  0  0
  188.7130  177.8780  135.4600 O   0  0  0  0  0  1  0  0  0  0  0  0
  187.0450  172.2920  137.0450 C   0  0  0  0  0  2  0  0  0  0  0  0
  187.4170  170.5210  135.3270 C   0  0  0  0  0  1  0  0  0  0  0  0
  186.5830  171.7300  135.7080 C   0  0  0  0  0  2  0  0  0  0  0  0
  182.0280  176.9300  137.9090 C   0  0  1  0  0  3  0  0  0  0  0  0
  181.5060  175.6270  139.8440 O   0  0  0  0  0  0  0  0  0  0  0  0
  182.1930  176.5630  139.3600 C   0  0  0  0  0  0  0  0  0  0  0  0
  183.0490  177.3150  140.2160 N   0  0  0  0  0  1  0  0  0  0  0  0
  182.3260  178.3790  137.6780 C   0  0  0  0  0  3  0  0  0  0  0  0
  181.3570  179.2900  137.7000 C   0  0  0  0  0  2  0  0  0  0  0  0
  2 10  1  1  0  0  0
  2  9  1  0  0  0  0
  3  1  1  6  0  0  0
  4  1  2  0  0  0  0
  4  7  1  0  0  0  0
  5  6  2  0  0  0  0
  6  7  1  0  0  0  0
  7 22  1  6  0  0  0
  8  6  1  0  0  0  0
  8  3  1  0  0  0  0
 12  9  1  0  0  0  0
 13  2  1  0  0  0  0
 13  1  1  0  0  0  0
 14  3  1  0  0  0  0
 14 25  1  1  0  0  0
 15 11  1  1  0  0  0
 15 12  1  0  0  0  0
 16 15  1  0  0  0  0
 16 13  1  1  0  0  0
 16 14  1  0  0  0  0
 18  8  1  0  0  0  0
 18 17  1  1  0  0  0
 19 20  1  0  0  0  0
 19 18  1  0  0  0  0
 21 20  1  0  0  0  0
 23 24  1  0  0  0  0
 24 22  1  0  0  0  0
 25 29  1  1  0  0  0
 25 27  1  0  0  0  0
 27 26  2  0  0  0  0
 27 28  1  0  0  0  0
 29 30  2  0  0  0  0
M  END
>  <MODEL>
7

>  <REMARK>
 VINA RESULT:      -3.9      3.784      7.223
  Name = 
  8 active torsions:
  status: ('A' for Active; 'I' for Inactive)
    1  A    between atoms: C_7  and  C_16
    2  A    between atoms: C_7  and  C_30
    3  A    between atoms: C_9  and  C_12
    4  A    between atoms: C_9  and  C_21
    5  A    between atoms: C_10  and  C_25
    6  A    between atoms: C_11  and  C_25
    7  A    between atoms: N_13  and  C_30
    8  A    between atoms: C_23  and  C_25
                            x       y       z     vdW  Elec       q    Type
                         _______ _______ _______ _____ _____    ______ ____

>  <TORSDO>
F 8

$$$$
=
 OpenBabel10262421443D

 30 32  0  0  1  0  0  0  0  0999 V2000
  180.0990  176.7580  139.7160 C   0  0  0  0  0  0  0  0  0  0  0  0
  180.0570  174.2220  140.0150 C   0  0  2  0  0  3  0  0  0  0  0  0
  180.4440  177.6220  138.5540 C   0  0  1  0  0  3  0  0  0  0  0  0
  179.5600  177.2660  140.8260 C   0  0  0  0  0  3  0  0  0  0  0  0
  180.4220  180.7830  140.4390 N   0  0  0  0  0  2  0  0  0  0  0  0
  180.2490  179.5320  140.1530 C   0  0  0  0  0  0  0  0  0  0  0  0
  179.1940  178.7200  140.8820 C   0  0  2  0  0  3  0  0  0  0  0  0
  180.9200  178.9370  139.0140 N   0  0  0  0  0  0  0  0  0  0  0  0
  179.5180  173.5630  138.7460 C   0  0  0  0  0  2  0  0  0  0  0  0
  179.0240  174.4190  140.9330 O   0  0  0  0  0  1  0  0  0  0  0  0
  182.8600  174.1420  136.7730 C   0  0  0  0  0  1  0  0  0  0  0  0
  180.5580  173.4860  137.6100 C   0  0  0  0  0  2  0  0  0  0  0  0
  180.7230  175.4840  139.6730 N   0  0  0  0  0  0  0  0  0  0  0  0
  181.5020  176.7990  137.7990 C   0  0  1  0  0  3  0  0  0  0  0  0
  181.8980  174.1460  137.9470 C   0  0  2  0  0  3  0  0  0  0  0  0
  181.7520  175.5170  138.6400 C   0  0  2  0  0  3  0  0  0  0  0  0
  181.2650  180.7860  137.4180 C   0  0  0  0  0  1  0  0  0  0  0  0
  181.9130  179.6650  138.2180 C   0  0  1  0  0  3  0  0  0  0  0  0
  183.0480  180.1790  139.0960 C   0  0  0  0  0  2  0  0  0  0  0  0
  184.2110  179.2010  139.1120 C   0  0  0  0  0  2  0  0  0  0  0  0
  184.9800  179.3860  140.2620 O   0  0  0  0  0  1  0  0  0  0  0  0
  179.0410  179.1280  142.3450 C   0  0  0  0  0  2  0  0  0  0  0  0
  181.1670  178.9640  143.6400 C   0  0  0  0  0  1  0  0  0  0  0  0
  179.8860  178.2490  143.2550 C   0  0  0  0  0  2  0  0  0  0  0  0
  181.1770  176.6070  136.3020 C   0  0  1  0  0  3  0  0  0  0  0  0
  178.9470  175.8770  135.8450 O   0  0  0  0  0  0  0  0  0  0  0  0
  179.7430  176.8490  135.9100 C   0  0  0  0  0  0  0  0  0  0  0  0
  179.2950  178.1460  135.5250 N   0  0  0  0  0  1  0  0  0  0  0  0
  182.1150  177.4100  135.4550 C   0  0  0  0  0  3  0  0  0  0  0  0
  183.4170  177.4540  135.7280 C   0  0  0  0  0  2  0  0  0  0  0  0
  1  4  2  0  0  0  0
  2 10  1  1  0  0  0
  3  8  1  0  0  0  0
  3  1  1  1  0  0  0
  4  7  1  0  0  0  0
  6  5  2  0  0  0  0
  6  7  1  0  0  0  0
  7 22  1  1  0  0  0
  8  6  1  0  0  0  0
  9  2  1  0  0  0  0
 12 15  1  0  0  0  0
 12  9  1  0  0  0  0
 13  1  1  0  0  0  0
 13  2  1  0  0  0  0
 14 25  1  6  0  0  0
 14  3  1  0  0  0  0
 14 16  1  0  0  0  0
 15 11  1  6  0  0  0
 15 16  1  0  0  0  0
 16 13  1  1  0  0  0
 18 17  1  1  0  0  0
 18  8  1  0  0  0  0
 18 19  1  0  0  0  0
 19 20  1  0  0  0  0
 20 21  1  0  0  0  0
 22 24  1  0  0  0  0
 24 23  1  0  0  0  0
 25 29  1  6  0  0  0
 26 27  2  0  0  0  0
 27 25  1  0  0  0  0
 28 27  1  0  0  0  0
 29 30  2  0  0  0  0
M  END
>  <MODEL>
8

>  <REMARK>
 VINA RESULT:      -3.8      2.651      5.091
  Name = 
  8 active torsions:
  status: ('A' for Active; 'I' for Inactive)
    1  A    between atoms: C_7  and  C_16
    2  A    between atoms: C_7  and  C_30
    3  A    between atoms: C_9  and  C_12
    4  A    between atoms: C_9  and  C_21
    5  A    between atoms: C_10  and  C_25
    6  A    between atoms: C_11  and  C_25
    7  A    between atoms: N_13  and  C_30
    8  A    between atoms: C_23  and  C_25
                            x       y       z     vdW  Elec       q    Type
                         _______ _______ _______ _____ _____    ______ ____

>  <TORSDO>
F 8

$$$$
=
 OpenBabel10262421443D

 30 32  0  0  1  0  0  0  0  0999 V2000
  188.2520  177.8730  141.6210 C   0  0  0  0  0  0  0  0  0  0  0  0
  190.2430  176.9470  140.3170 C   0  0  2  0  0  3  0  0  0  0  0  0
  188.0540  178.1700  143.0650 C   0  0  1  0  0  3  0  0  0  0  0  0
  187.3540  178.2410  140.7050 C   0  0  0  0  0  3  0  0  0  0  0  0
  184.4360  178.7940  142.8130 N   0  0  0  0  0  2  0  0  0  0  0  0
  185.6650  178.5880  142.4630 C   0  0  0  0  0  0  0  0  0  0  0  0
  186.1650  179.0620  141.1100 C   0  0  2  0  0  3  0  0  0  0  0  0
  186.6290  178.0790  143.4200 N   0  0  0  0  0  0  0  0  0  0  0  0
  191.5390  177.5370  140.8690 C   0  0  0  0  0  2  0  0  0  0  0  0
  189.7920  177.7020  139.2330 O   0  0  0  0  0  1  0  0  0  0  0  0
  191.4650  175.2550  144.0600 C   0  0  0  0  0  1  0  0  0  0  0  0
  191.9980  176.8760  142.1830 C   0  0  0  0  0  2  0  0  0  0  0  0
  189.2360  176.8790  141.3820 N   0  0  0  0  0  0  0  0  0  0  0  0
  188.9450  177.1310  143.7700 C   0  0  1  0  0  3  0  0  0  0  0  0
  191.0340  175.8110  142.7150 C   0  0  2  0  0  3  0  0  0  0  0  0
  189.5530  176.2380  142.6530 C   0  0  2  0  0  3  0  0  0  0  0  0
  186.9760  176.3790  145.1740 C   0  0  0  0  0  1  0  0  0  0  0  0
  186.2450  177.6500  144.7690 C   0  0  1  0  0  3  0  0  0  0  0  0
  186.4560  178.7720  145.7790 C   0  0  0  0  0  2  0  0  0  0  0  0
  185.5300  178.6140  146.9730 C   0  0  0  0  0  2  0  0  0  0  0  0
  184.1980  178.6280  146.5550 O   0  0  0  0  0  1  0  0  0  0  0  0
  185.1030  178.9550  140.0190 C   0  0  0  0  0  2  0  0  0  0  0  0
  184.5250  177.7090  137.9360 C   0  0  0  0  0  1  0  0  0  0  0  0
  185.6560  178.2720  138.7760 C   0  0  0  0  0  2  0  0  0  0  0  0
  189.9260  177.7530  144.7860 C   0  0  1  0  0  3  0  0  0  0  0  0
  190.1800  179.7190  143.4510 O   0  0  0  0  0  0  0  0  0  0  0  0
  190.7000  178.9490  144.2990 C   0  0  0  0  0  0  0  0  0  0  0  0
  192.0440  179.1740  144.7160 N   0  0  0  0  0  1  0  0  0  0  0  0
  189.2270  178.0460  146.0770 C   0  0  0  0  0  3  0  0  0  0  0  0
  189.6360  177.4990  147.2180 C   0  0  0  0  0  2  0  0  0  0  0  0
  2 10  1  6  0  0  0
  2  9  1  0  0  0  0
  2 13  1  0  0  0  0
  3  1  1  6  0  0  0
  3  8  1  0  0  0  0
  3 14  1  0  0  0  0
  4  7  1  0  0  0  0
  4  1  2  0  0  0  0
  6  5  2  0  0  0  0
  6  8  1  0  0  0  0
  7 22  1  6  0  0  0
  7  6  1  0  0  0  0
  8 18  1  0  0  0  0
  9 12  1  0  0  0  0
 12 15  1  0  0  0  0
 13  1  1  0  0  0  0
 14 25  1  6  0  0  0
 15 11  1  1  0  0  0
 16 13  1  6  0  0  0
 16 15  1  0  0  0  0
 16 14  1  0  0  0  0
 18 17  1  1  0  0  0
 18 19  1  0  0  0  0
 19 20  1  0  0  0  0
 21 20  1  0  0  0  0
 23 24  1  0  0  0  0
 24 22  1  0  0  0  0
 25 29  1  1  0  0  0
 26 27  2  0  0  0  0
 27 28  1  0  0  0  0
 27 25  1  0  0  0  0
 29 30  2  0  0  0  0
M  END
>  <MODEL>
9

>  <REMARK>
 VINA RESULT:      -3.8      4.608      8.226
  Name = 
  8 active torsions:
  status: ('A' for Active; 'I' for Inactive)
    1  A    between atoms: C_7  and  C_16
    2  A    between atoms: C_7  and  C_30
    3  A    between atoms: C_9  and  C_12
    4  A    between atoms: C_9  and  C_21
    5  A    between atoms: C_10  and  C_25
    6  A    between atoms: C_11  and  C_25
    7  A    between atoms: N_13  and  C_30
    8  A    between atoms: C_23  and  C_25
                            x       y       z     vdW  Elec       q    Type
                         _______ _______ _______ _____ _____    ______ ____

>  <TORSDO>
F 8

$$$$
