=
 OpenBabel10262420433D

 28 30  0  0  1  0  0  0  0  0999 V2000
  191.2140  176.7530  145.8210 C   0  0  0  0  0  3  0  0  0  0  0  0
  188.7670  177.2450  147.1700 C   0  0  2  0  0  3  0  0  0  0  0  0
  190.9930  176.3490  147.2450 C   0  0  0  0  0  2  0  0  0  0  0  0
  189.5790  176.0650  147.4940 N   0  0  0  0  0  2  0  0  0  0  0  0
  190.2720  177.3890  145.1120 C   0  0  0  0  0  0  0  0  0  0  0  0
  188.8970  177.6330  145.6900 C   0  0  1  0  0  3  0  0  0  0  0  0
  188.3060  178.3540  149.2370 O   0  0  0  0  0  1  0  0  0  0  0  0
  189.0820  178.4270  148.0800 C   0  0  0  0  0  2  0  0  0  0  0  0
  190.5140  177.8180  143.7960 O   0  0  0  0  0  0  0  0  0  0  0  0
  191.1680  177.0660  142.7690 C   0  0  2  0  0  3  0  0  0  0  0  0
  190.6160  176.7530  140.4390 C   0  0  1  0  0  3  0  0  0  0  0  0
  192.0540  177.8730  142.0290 O   0  0  0  0  0  0  0  0  0  0  0  0
  189.2430  175.8090  142.1320 O   0  0  0  0  0  0  0  0  0  0  0  0
  190.2080  176.4860  141.8150 C   0  0  0  0  0  0  0  0  0  0  0  0
  189.6100  177.6640  139.7610 C   0  0  0  0  0  1  0  0  0  0  0  0
  191.9190  177.5020  140.6660 C   0  0  0  0  0  2  0  0  0  0  0  0
  187.8500  176.8830  144.8780 C   0  0  0  0  0  2  0  0  0  0  0  0
  186.4990  177.6050  144.8270 C   0  0  2  0  0  3  0  0  0  0  0  0
  186.9670  178.2440  142.5160 C   0  0  0  0  0  3  0  0  0  0  0  0
  184.5560  178.2550  143.1700 C   0  0  2  0  0  3  0  0  0  0  0  0
  185.2650  179.2870  141.0060 C   0  0  2  0  0  3  0  0  0  0  0  0
  186.0280  178.0080  143.4510 C   0  0  0  0  0  0  0  0  0  0  0  0
  184.2420  178.3820  141.6780 C   0  0  0  0  0  2  0  0  0  0  0  0
  184.1330  179.3990  143.8220 F   0  0  0  0  0  0  0  0  0  0  0  0
  184.9240  179.4630  139.6660 O   0  0  0  0  0  1  0  0  0  0  0  0
  186.6350  178.6270  141.0990 C   0  0  0  0  0  2  0  0  0  0  0  0
  185.0410  178.2530  146.8140 C   0  0  0  0  0  1  0  0  0  0  0  0
  186.2420  178.6100  145.9550 C   0  0  0  0  0  2  0  0  0  0  0  0
  1  3  1  0  0  0  0
  2  4  1  0  0  0  0
  2  8  1  1  0  0  0
  3  4  1  0  0  0  0
  5  6  1  0  0  0  0
  5  1  2  0  0  0  0
  6 17  1  6  0  0  0
  6  2  1  0  0  0  0
  8  7  1  0  0  0  0
  9  5  1  0  0  0  0
 10  9  1  1  0  0  0
 11 15  1  1  0  0  0
 11 16  1  0  0  0  0
 11 14  1  0  0  0  0
 12 10  1  0  0  0  0
 14 13  2  0  0  0  0
 14 10  1  0  0  0  0
 16 12  1  0  0  0  0
 18 17  1  6  0  0  0
 18 28  1  0  0  0  0
 19 22  2  0  0  0  0
 20 22  1  0  0  0  0
 20 24  1  1  0  0  0
 21 25  1  6  0  0  0
 21 26  1  0  0  0  0
 21 23  1  0  0  0  0
 22 18  1  0  0  0  0
 23 20  1  0  0  0  0
 26 19  1  0  0  0  0
 28 27  1  0  0  0  0
M  END
>  <MODEL>
1

>  <REMARK>
 VINA RESULT:      -8.6      0.000      0.000
  Name = 
  7 active torsions:
  status: ('A' for Active; 'I' for Inactive)
    1  A    between atoms: O_2  and  C_3
    2  A    between atoms: O_2  and  C_26
    3  A    between atoms: C_10  and  C_13
    4  A    between atoms: C_10  and  C_17
    5  A    between atoms: C_10  and  C_25
    6  A    between atoms: CA_16  and  C_20
    7  A    between atoms: C_17  and  C_27
                            x       y       z     vdW  Elec       q    Type
                         _______ _______ _______ _____ _____    ______ ____

>  <TORSDO>
F 7

$$$$
=
 OpenBabel10262420433D

 28 30  0  0  1  0  0  0  0  0999 V2000
  190.5850  177.1510  141.0650 C   0  0  0  0  0  3  0  0  0  0  0  0
  190.5380  177.9090  143.7980 C   0  0  2  0  0  3  0  0  0  0  0  0
  191.8350  177.2810  141.8770 C   0  0  0  0  0  2  0  0  0  0  0  0
  191.5720  176.9980  143.2890 N   0  0  0  0  0  2  0  0  0  0  0  0
  189.3750  177.4060  141.5810 C   0  0  0  0  0  0  0  0  0  0  0  0
  189.2110  177.7360  143.0470 C   0  0  1  0  0  3  0  0  0  0  0  0
  192.2030  179.4880  144.4710 O   0  0  0  0  0  1  0  0  0  0  0  0
  190.9970  179.3630  143.7830 C   0  0  0  0  0  2  0  0  0  0  0  0
  188.2150  177.3400  140.7910 O   0  0  0  0  0  0  0  0  0  0  0  0
  187.8430  178.2570  139.7580 C   0  0  2  0  0  3  0  0  0  0  0  0
  186.8750  177.8810  137.5790 C   0  0  1  0  0  3  0  0  0  0  0  0
  186.4830  178.6090  139.8520 O   0  0  0  0  0  0  0  0  0  0  0  0
  189.1040  177.1960  138.0330 O   0  0  0  0  0  0  0  0  0  0  0  0
  188.0550  177.6910  138.4160 C   0  0  0  0  0  0  0  0  0  0  0  0
  186.2510  176.5410  137.2380 C   0  0  0  0  0  1  0  0  0  0  0  0
  185.9680  178.6460  138.5300 C   0  0  0  0  0  2  0  0  0  0  0  0
  188.3790  176.6600  143.7330 C   0  0  0  0  0  2  0  0  0  0  0  0
  187.5980  177.1860  144.9420 C   0  0  2  0  0  3  0  0  0  0  0  0
  185.8530  177.8000  143.3460 C   0  0  0  0  0  3  0  0  0  0  0  0
  185.3970  178.4070  145.7260 C   0  0  2  0  0  3  0  0  0  0  0  0
  183.9520  179.3280  143.9070 C   0  0  2  0  0  3  0  0  0  0  0  0
  186.2400  177.7690  144.6350 C   0  0  0  0  0  0  0  0  0  0  0  0
  183.9600  178.6880  145.2890 C   0  0  0  0  0  2  0  0  0  0  0  0
  185.9830  179.5850  146.1510 F   0  0  0  0  0  0  0  0  0  0  0  0
  182.6450  179.6570  143.5520 O   0  0  0  0  0  1  0  0  0  0  0  0
  184.5150  178.3310  142.9040 C   0  0  0  0  0  2  0  0  0  0  0  0
  188.4970  177.1780  147.3260 C   0  0  0  0  0  1  0  0  0  0  0  0
  188.4290  177.9190  146.0010 C   0  0  0  0  0  2  0  0  0  0  0  0
  1  5  2  0  0  0  0
  1  3  1  0  0  0  0
  2  8  1  6  0  0  0
  3  4  1  0  0  0  0
  4  2  1  0  0  0  0
  5  6  1  0  0  0  0
  6 17  1  1  0  0  0
  6  2  1  0  0  0  0
  8  7  1  0  0  0  0
  9  5  1  0  0  0  0
 10 12  1  0  0  0  0
 10  9  1  1  0  0  0
 11 15  1  1  0  0  0
 11 14  1  0  0  0  0
 11 16  1  0  0  0  0
 13 14  2  0  0  0  0
 14 10  1  0  0  0  0
 16 12  1  0  0  0  0
 18 17  1  6  0  0  0
 18 28  1  0  0  0  0
 19 22  2  0  0  0  0
 20 24  1  6  0  0  0
 21 25  1  6  0  0  0
 21 23  1  0  0  0  0
 22 18  1  0  0  0  0
 22 20  1  0  0  0  0
 23 20  1  0  0  0  0
 26 19  1  0  0  0  0
 26 21  1  0  0  0  0
 28 27  1  0  0  0  0
M  END
>  <MODEL>
2

>  <REMARK>
 VINA RESULT:      -8.1      2.358      4.049
  Name = 
  7 active torsions:
  status: ('A' for Active; 'I' for Inactive)
    1  A    between atoms: O_2  and  C_3
    2  A    between atoms: O_2  and  C_26
    3  A    between atoms: C_10  and  C_13
    4  A    between atoms: C_10  and  C_17
    5  A    between atoms: C_10  and  C_25
    6  A    between atoms: CA_16  and  C_20
    7  A    between atoms: C_17  and  C_27
                            x       y       z     vdW  Elec       q    Type
                         _______ _______ _______ _____ _____    ______ ____

>  <TORSDO>
F 7

$$$$
=
 OpenBabel10262420433D

 28 30  0  0  1  0  0  0  0  0999 V2000
  189.7620  177.2690  146.4110 C   0  0  0  0  0  3  0  0  0  0  0  0
  187.0230  177.8060  146.9190 C   0  0  2  0  0  3  0  0  0  0  0  0
  189.1240  176.9780  147.7330 C   0  0  0  0  0  2  0  0  0  0  0  0
  187.7000  176.6780  147.5720 N   0  0  0  0  0  2  0  0  0  0  0  0
  189.0760  177.8190  145.4010 C   0  0  0  0  0  0  0  0  0  0  0  0
  187.5910  178.0740  145.5180 C   0  0  1  0  0  3  0  0  0  0  0  0
  185.8960  179.8170  147.5530 O   0  0  0  0  0  1  0  0  0  0  0  0
  187.0490  179.0660  147.7760 C   0  0  0  0  0  2  0  0  0  0  0  0
  189.7010  178.1440  144.1850 O   0  0  0  0  0  0  0  0  0  0  0  0
  190.8110  177.4590  143.5960 C   0  0  2  0  0  3  0  0  0  0  0  0
  191.0890  176.4880  141.4030 C   0  0  1  0  0  3  0  0  0  0  0  0
  191.6260  178.3420  142.8610 O   0  0  0  0  0  0  0  0  0  0  0  0
  189.5790  175.5180  142.9590 O   0  0  0  0  0  0  0  0  0  0  0  0
  190.3750  176.3980  142.6730 C   0  0  0  0  0  0  0  0  0  0  0  0
  190.1270  176.8360  140.2830 C   0  0  0  0  0  1  0  0  0  0  0  0
  192.0120  177.6660  141.6750 C   0  0  0  0  0  2  0  0  0  0  0  0
  186.8360  177.2320  144.4980 C   0  0  0  0  0  2  0  0  0  0  0  0
  186.3440  178.0460  143.2960 C   0  0  2  0  0  3  0  0  0  0  0  0
  184.2500  178.2150  142.0480 C   0  0  0  0  0  3  0  0  0  0  0  0
  184.0980  178.7490  144.4840 C   0  0  2  0  0  3  0  0  0  0  0  0
  182.1820  179.2810  142.9700 C   0  0  2  0  0  3  0  0  0  0  0  0
  184.8560  178.2980  143.2470 C   0  0  0  0  0  0  0  0  0  0  0  0
  182.5800  178.6880  144.3140 C   0  0  0  0  0  2  0  0  0  0  0  0
  184.4660  180.0380  144.8230 F   0  0  0  0  0  0  0  0  0  0  0  0
  180.7930  179.2970  142.8590 O   0  0  0  0  0  1  0  0  0  0  0  0
  182.7700  178.4180  141.8620 C   0  0  0  0  0  2  0  0  0  0  0  0
  187.7620  178.9230  141.3700 C   0  0  0  0  0  1  0  0  0  0  0  0
  187.0250  177.7330  141.9590 C   0  0  0  0  0  2  0  0  0  0  0  0
  1  3  1  0  0  0  0
  2  4  1  0  0  0  0
  2  8  1  1  0  0  0
  4  3  1  0  0  0  0
  5  6  1  0  0  0  0
  5  1  2  0  0  0  0
  6 17  1  6  0  0  0
  6  2  1  0  0  0  0
  7  8  1  0  0  0  0
  9  5  1  0  0  0  0
 10  9  1  6  0  0  0
 11 15  1  6  0  0  0
 11 16  1  0  0  0  0
 11 14  1  0  0  0  0
 12 10  1  0  0  0  0
 14 13  2  0  0  0  0
 14 10  1  0  0  0  0
 16 12  1  0  0  0  0
 18 28  1  6  0  0  0
 18 17  1  0  0  0  0
 19 22  2  0  0  0  0
 20 24  1  6  0  0  0
 21 25  1  6  0  0  0
 21 23  1  0  0  0  0
 22 18  1  0  0  0  0
 22 20  1  0  0  0  0
 23 20  1  0  0  0  0
 26 19  1  0  0  0  0
 26 21  1  0  0  0  0
 27 28  1  0  0  0  0
M  END
>  <MODEL>
3

>  <REMARK>
 VINA RESULT:      -7.6      1.690      2.527
  Name = 
  7 active torsions:
  status: ('A' for Active; 'I' for Inactive)
    1  A    between atoms: O_2  and  C_3
    2  A    between atoms: O_2  and  C_26
    3  A    between atoms: C_10  and  C_13
    4  A    between atoms: C_10  and  C_17
    5  A    between atoms: C_10  and  C_25
    6  A    between atoms: CA_16  and  C_20
    7  A    between atoms: C_17  and  C_27
                            x       y       z     vdW  Elec       q    Type
                         _______ _______ _______ _____ _____    ______ ____

>  <TORSDO>
F 7

$$$$
=
 OpenBabel10262420433D

 28 30  0  0  1  0  0  0  0  0999 V2000
  190.3200  177.4800  139.8000 C   0  0  0  0  0  3  0  0  0  0  0  0
  187.7470  178.2210  138.8610 C   0  0  2  0  0  3  0  0  0  0  0  0
  190.0850  177.9360  138.3940 C   0  0  0  0  0  2  0  0  0  0  0  0
  188.9550  178.8650  138.3280 N   0  0  0  0  0  2  0  0  0  0  0  0
  189.3210  177.3770  140.6870 C   0  0  0  0  0  0  0  0  0  0  0  0
  187.9200  177.8220  140.3340 C   0  0  1  0  0  3  0  0  0  0  0  0
  186.2300  177.3910  137.2100 O   0  0  0  0  0  1  0  0  0  0  0  0
  187.3100  177.0300  138.0150 C   0  0  0  0  0  2  0  0  0  0  0  0
  189.5450  176.8890  141.9850 O   0  0  0  0  0  0  0  0  0  0  0  0
  190.8110  176.7890  142.6440 C   0  0  2  0  0  3  0  0  0  0  0  0
  191.4320  177.1630  144.9470 C   0  0  1  0  0  3  0  0  0  0  0  0
  190.9850  175.5200  143.2300 O   0  0  0  0  0  0  0  0  0  0  0  0
  190.7680  178.9850  143.5750 O   0  0  0  0  0  0  0  0  0  0  0  0
  190.9540  177.7870  143.7170 C   0  0  0  0  0  0  0  0  0  0  0  0
  190.3680  177.2420  146.0250 C   0  0  0  0  0  1  0  0  0  0  0  0
  191.6000  175.7220  144.4920 C   0  0  0  0  0  2  0  0  0  0  0  0
  187.5040  178.9850  141.2240 C   0  0  0  0  0  2  0  0  0  0  0  0
  186.0160  178.9570  141.5900 C   0  0  2  0  0  3  0  0  0  0  0  0
  184.6960  179.3980  143.5980 C   0  0  0  0  0  3  0  0  0  0  0  0
  186.5910  177.7970  143.8860 C   0  0  2  0  0  3  0  0  0  0  0  0
  185.4090  178.7020  145.8930 C   0  0  2  0  0  3  0  0  0  0  0  0
  185.7100  178.7060  143.0470 C   0  0  0  0  0  0  0  0  0  0  0  0
  185.9780  177.4490  145.2420 C   0  0  0  0  0  2  0  0  0  0  0  0
  187.8270  178.3850  144.0840 F   0  0  0  0  0  0  0  0  0  0  0  0
  184.9270  178.3910  147.1640 O   0  0  0  0  0  1  0  0  0  0  0  0
  184.2690  179.2260  145.0310 C   0  0  0  0  0  2  0  0  0  0  0  0
  184.3270  179.2550  139.7060 C   0  0  0  0  0  1  0  0  0  0  0  0
  185.0950  178.2730  140.5740 C   0  0  0  0  0  2  0  0  0  0  0  0
  1  5  2  0  0  0  0
  2  8  1  6  0  0  0
  2  6  1  0  0  0  0
  3  1  1  0  0  0  0
  4  3  1  0  0  0  0
  4  2  1  0  0  0  0
  5  9  1  0  0  0  0
  6  5  1  0  0  0  0
  6 17  1  1  0  0  0
  7  8  1  0  0  0  0
 10  9  1  1  0  0  0
 10 12  1  0  0  0  0
 10 14  1  0  0  0  0
 11 15  1  1  0  0  0
 12 16  1  0  0  0  0
 13 14  2  0  0  0  0
 14 11  1  0  0  0  0
 16 11  1  0  0  0  0
 17 18  1  0  0  0  0
 18 28  1  6  0  0  0
 18 22  1  0  0  0  0
 19 26  1  0  0  0  0
 20 24  1  1  0  0  0
 20 23  1  0  0  0  0
 21 25  1  1  0  0  0
 22 19  2  0  0  0  0
 22 20  1  0  0  0  0
 23 21  1  0  0  0  0
 26 21  1  0  0  0  0
 27 28  1  0  0  0  0
M  END
>  <MODEL>
4

>  <REMARK>
 VINA RESULT:      -7.6      2.551      5.862
  Name = 
  7 active torsions:
  status: ('A' for Active; 'I' for Inactive)
    1  A    between atoms: O_2  and  C_3
    2  A    between atoms: O_2  and  C_26
    3  A    between atoms: C_10  and  C_13
    4  A    between atoms: C_10  and  C_17
    5  A    between atoms: C_10  and  C_25
    6  A    between atoms: CA_16  and  C_20
    7  A    between atoms: C_17  and  C_27
                            x       y       z     vdW  Elec       q    Type
                         _______ _______ _______ _____ _____    ______ ____

>  <TORSDO>
F 7

$$$$
=
 OpenBabel10262420433D

 28 30  0  0  1  0  0  0  0  0999 V2000
  190.3250  177.6630  139.9910 C   0  0  0  0  0  3  0  0  0  0  0  0
  187.6860  178.1760  139.0830 C   0  0  2  0  0  3  0  0  0  0  0  0
  190.0440  178.2140  138.6280 C   0  0  0  0  0  2  0  0  0  0  0  0
  188.8110  179.0040  138.6280 N   0  0  0  0  0  2  0  0  0  0  0  0
  189.3410  177.3620  140.8500 C   0  0  0  0  0  0  0  0  0  0  0  0
  187.8990  177.6690  140.5160 C   0  0  1  0  0  3  0  0  0  0  0  0
  186.8060  177.5110  136.9620 O   0  0  0  0  0  1  0  0  0  0  0  0
  187.3980  177.0240  138.1270 C   0  0  0  0  0  2  0  0  0  0  0  0
  189.6160  176.7880  142.1020 O   0  0  0  0  0  0  0  0  0  0  0  0
  190.8630  176.8410  142.8010 C   0  0  2  0  0  3  0  0  0  0  0  0
  191.3720  177.4040  145.0930 C   0  0  1  0  0  3  0  0  0  0  0  0
  191.1280  175.6290  143.4680 O   0  0  0  0  0  0  0  0  0  0  0  0
  190.5970  179.0750  143.5930 O   0  0  0  0  0  0  0  0  0  0  0  0
  190.8820  177.9090  143.8140 C   0  0  0  0  0  0  0  0  0  0  0  0
  190.2700  177.4510  146.1340 C   0  0  0  0  0  1  0  0  0  0  0  0
  191.6810  175.9590  144.7320 C   0  0  0  0  0  2  0  0  0  0  0  0
  187.3420  178.6890  141.5000 C   0  0  0  0  0  2  0  0  0  0  0  0
  186.5520  178.0470  142.6460 C   0  0  2  0  0  3  0  0  0  0  0  0
  184.4120  178.0730  141.4690 C   0  0  0  0  0  3  0  0  0  0  0  0
  184.3510  178.8800  143.8330 C   0  0  2  0  0  3  0  0  0  0  0  0
  182.3760  179.2370  142.3430 C   0  0  2  0  0  3  0  0  0  0  0  0
  185.0630  178.2920  142.6260 C   0  0  0  0  0  0  0  0  0  0  0  0
  182.8280  178.7990  143.7300 C   0  0  0  0  0  2  0  0  0  0  0  0
  184.7260  180.1990  144.0090 F   0  0  0  0  0  0  0  0  0  0  0  0
  180.9830  179.2400  142.2850 O   0  0  0  0  0  1  0  0  0  0  0  0
  182.9250  178.2540  141.3180 C   0  0  0  0  0  2  0  0  0  0  0  0
  187.1770  176.7510  144.7490 C   0  0  0  0  0  1  0  0  0  0  0  0
  187.2290  178.0830  144.0200 C   0  0  0  0  0  2  0  0  0  0  0  0
  1  5  2  0  0  0  0
  2  8  1  6  0  0  0
  2  6  1  0  0  0  0
  3  4  1  0  0  0  0
  3  1  1  0  0  0  0
  4  2  1  0  0  0  0
  5  9  1  0  0  0  0
  6  5  1  0  0  0  0
  6 17  1  1  0  0  0
  7  8  1  0  0  0  0
 10  9  1  1  0  0  0
 10 12  1  0  0  0  0
 10 14  1  0  0  0  0
 11 15  1  1  0  0  0
 12 16  1  0  0  0  0
 13 14  2  0  0  0  0
 14 11  1  0  0  0  0
 16 11  1  0  0  0  0
 18 17  1  6  0  0  0
 18 28  1  0  0  0  0
 19 22  2  0  0  0  0
 20 24  1  6  0  0  0
 21 25  1  1  0  0  0
 21 23  1  0  0  0  0
 22 18  1  0  0  0  0
 22 20  1  0  0  0  0
 23 20  1  0  0  0  0
 26 19  1  0  0  0  0
 26 21  1  0  0  0  0
 28 27  1  0  0  0  0
M  END
>  <MODEL>
5

>  <REMARK>
 VINA RESULT:      -7.5      2.634      5.314
  Name = 
  7 active torsions:
  status: ('A' for Active; 'I' for Inactive)
    1  A    between atoms: O_2  and  C_3
    2  A    between atoms: O_2  and  C_26
    3  A    between atoms: C_10  and  C_13
    4  A    between atoms: C_10  and  C_17
    5  A    between atoms: C_10  and  C_25
    6  A    between atoms: CA_16  and  C_20
    7  A    between atoms: C_17  and  C_27
                            x       y       z     vdW  Elec       q    Type
                         _______ _______ _______ _____ _____    ______ ____

>  <TORSDO>
F 7

$$$$
=
 OpenBabel10262420433D

 28 30  0  0  1  0  0  0  0  0999 V2000
  186.6950  178.5310  139.9460 C   0  0  0  0  0  3  0  0  0  0  0  0
  184.0750  178.7500  141.0130 C   0  0  2  0  0  3  0  0  0  0  0  0
  185.5110  178.8610  139.0920 C   0  0  0  0  0  2  0  0  0  0  0  0
  184.4890  179.5680  139.8650 N   0  0  0  0  0  2  0  0  0  0  0  0
  186.5770  178.3010  141.2600 C   0  0  0  0  0  0  0  0  0  0  0  0
  185.2490  178.4700  141.9620 C   0  0  1  0  0  3  0  0  0  0  0  0
  182.2400  177.7480  139.8540 O   0  0  0  0  0  1  0  0  0  0  0  0
  183.3940  177.4560  140.5800 C   0  0  0  0  0  2  0  0  0  0  0  0
  187.6860  177.9310  142.0390 O   0  0  0  0  0  0  0  0  0  0  0  0
  188.5660  176.8310  141.7890 C   0  0  2  0  0  3  0  0  0  0  0  0
  190.9490  176.6030  142.1050 C   0  0  1  0  0  3  0  0  0  0  0  0
  188.7500  176.0490  142.9460 O   0  0  0  0  0  0  0  0  0  0  0  0
  190.0970  178.0540  140.4280 O   0  0  0  0  0  0  0  0  0  0  0  0
  189.8980  177.2790  141.3500 C   0  0  0  0  0  0  0  0  0  0  0  0
  191.7080  177.6020  142.9580 C   0  0  0  0  0  1  0  0  0  0  0  0
  190.1210  175.6890  142.9940 C   0  0  0  0  0  2  0  0  0  0  0  0
  185.3430  179.5870  142.9920 C   0  0  0  0  0  2  0  0  0  0  0  0
  184.7910  179.1850  144.3640 C   0  0  2  0  0  3  0  0  0  0  0  0
  186.8650  178.0290  144.9360 C   0  0  0  0  0  3  0  0  0  0  0  0
  185.6220  179.0250  146.8610 C   0  0  2  0  0  3  0  0  0  0  0  0
  187.5130  177.4460  147.2820 C   0  0  2  0  0  3  0  0  0  0  0  0
  185.8220  178.7540  145.3790 C   0  0  0  0  0  0  0  0  0  0  0  0
  186.8780  178.7680  147.6930 C   0  0  0  0  0  2  0  0  0  0  0  0
  184.5860  178.2510  147.3500 F   0  0  0  0  0  0  0  0  0  0  0  0
  188.6090  177.1800  148.1020 O   0  0  0  0  0  1  0  0  0  0  0  0
  187.9760  177.5570  145.8360 C   0  0  0  0  0  2  0  0  0  0  0  0
  182.2710  179.2380  143.9920 C   0  0  0  0  0  1  0  0  0  0  0  0
  183.4810  178.3900  144.3460 C   0  0  0  0  0  2  0  0  0  0  0  0
  1  5  2  0  0  0  0
  2  8  1  6  0  0  0
  2  6  1  0  0  0  0
  3  4  1  0  0  0  0
  3  1  1  0  0  0  0
  4  2  1  0  0  0  0
  5  6  1  0  0  0  0
  5  9  1  0  0  0  0
  6 17  1  1  0  0  0
  7  8  1  0  0  0  0
 10  9  1  1  0  0  0
 10 12  1  0  0  0  0
 11 15  1  1  0  0  0
 11 16  1  0  0  0  0
 12 16  1  0  0  0  0
 13 14  2  0  0  0  0
 14 10  1  0  0  0  0
 14 11  1  0  0  0  0
 18 17  1  6  0  0  0
 18 22  1  0  0  0  0
 19 22  2  0  0  0  0
 19 26  1  0  0  0  0
 20 24  1  1  0  0  0
 20 23  1  0  0  0  0
 21 23  1  0  0  0  0
 21 25  1  1  0  0  0
 22 20  1  0  0  0  0
 26 21  1  0  0  0  0
 27 28  1  0  0  0  0
 28 18  1  0  0  0  0
M  END
>  <MODEL>
6

>  <REMARK>
 VINA RESULT:      -7.4      2.628      5.856
  Name = 
  7 active torsions:
  status: ('A' for Active; 'I' for Inactive)
    1  A    between atoms: O_2  and  C_3
    2  A    between atoms: O_2  and  C_26
    3  A    between atoms: C_10  and  C_13
    4  A    between atoms: C_10  and  C_17
    5  A    between atoms: C_10  and  C_25
    6  A    between atoms: CA_16  and  C_20
    7  A    between atoms: C_17  and  C_27
                            x       y       z     vdW  Elec       q    Type
                         _______ _______ _______ _____ _____    ______ ____

>  <TORSDO>
F 7

$$$$
=
 OpenBabel10262420433D

 28 30  0  0  1  0  0  0  0  0999 V2000
  183.0430  178.8160  142.9780 C   0  0  0  0  0  3  0  0  0  0  0  0
  185.3820  179.0770  144.5620 C   0  0  2  0  0  3  0  0  0  0  0  0
  183.0420  179.5400  144.2880 C   0  0  0  0  0  2  0  0  0  0  0  0
  184.3550  180.1280  144.5610 N   0  0  0  0  0  2  0  0  0  0  0  0
  184.1460  178.2330  142.4920 C   0  0  0  0  0  0  0  0  0  0  0  0
  185.4740  178.3730  143.2010 C   0  0  1  0  0  3  0  0  0  0  0  0
  185.1790  178.7310  146.9190 O   0  0  0  0  0  1  0  0  0  0  0  0
  185.1740  178.0720  145.6900 C   0  0  0  0  0  2  0  0  0  0  0  0
  184.1190  177.5030  141.2920 O   0  0  0  0  0  0  0  0  0  0  0  0
  183.4380  177.8780  140.0910 C   0  0  2  0  0  3  0  0  0  0  0  0
  184.2630  178.2500  137.8530 C   0  0  1  0  0  3  0  0  0  0  0  0
  183.0780  176.7470  139.3320 O   0  0  0  0  0  0  0  0  0  0  0  0
  184.8310  179.7520  139.6020 O   0  0  0  0  0  0  0  0  0  0  0  0
  184.2710  178.7330  139.2290 C   0  0  0  0  0  0  0  0  0  0  0  0
  185.6470  177.7710  137.4560 C   0  0  0  0  0  1  0  0  0  0  0  0
  183.3200  177.0630  137.9700 C   0  0  0  0  0  2  0  0  0  0  0  0
  186.4620  179.1190  142.3130 C   0  0  0  0  0  2  0  0  0  0  0  0
  187.6500  178.2540  141.8790 C   0  0  2  0  0  3  0  0  0  0  0  0
  189.7920  178.6320  142.9910 C   0  0  0  0  0  3  0  0  0  0  0  0
  188.4140  176.7620  143.9120 C   0  0  2  0  0  3  0  0  0  0  0  0
  190.7970  177.0210  144.6220 C   0  0  2  0  0  3  0  0  0  0  0  0
  188.6460  177.9260  142.9640 C   0  0  0  0  0  0  0  0  0  0  0  0
  189.3770  176.7540  145.1010 C   0  0  0  0  0  2  0  0  0  0  0  0
  188.5240  175.5640  143.2300 F   0  0  0  0  0  0  0  0  0  0  0  0
  191.6780  176.9290  145.6990 O   0  0  0  0  0  1  0  0  0  0  0  0
  190.8580  178.4240  144.0340 C   0  0  0  0  0  2  0  0  0  0  0  0
  188.7810  177.3460  139.7850 C   0  0  0  0  0  1  0  0  0  0  0  0
  188.2300  178.5700  140.4960 C   0  0  0  0  0  2  0  0  0  0  0  0
  1  3  1  0  0  0  0
  2  8  1  1  0  0  0
  3  4  1  0  0  0  0
  4  2  1  0  0  0  0
  5  1  2  0  0  0  0
  5  6  1  0  0  0  0
  6 17  1  6  0  0  0
  6  2  1  0  0  0  0
  8  7  1  0  0  0  0
  9  5  1  0  0  0  0
 10  9  1  1  0  0  0
 11 15  1  1  0  0  0
 11 16  1  0  0  0  0
 11 14  1  0  0  0  0
 12 10  1  0  0  0  0
 14 13  2  0  0  0  0
 14 10  1  0  0  0  0
 16 12  1  0  0  0  0
 18 28  1  6  0  0  0
 18 17  1  0  0  0  0
 18 22  1  0  0  0  0
 19 26  1  0  0  0  0
 20 24  1  6  0  0  0
 20 23  1  0  0  0  0
 21 23  1  0  0  0  0
 21 25  1  1  0  0  0
 22 19  2  0  0  0  0
 22 20  1  0  0  0  0
 26 21  1  0  0  0  0
 27 28  1  0  0  0  0
M  END
>  <MODEL>
7

>  <REMARK>
 VINA RESULT:      -7.3      2.735      6.473
  Name = 
  7 active torsions:
  status: ('A' for Active; 'I' for Inactive)
    1  A    between atoms: O_2  and  C_3
    2  A    between atoms: O_2  and  C_26
    3  A    between atoms: C_10  and  C_13
    4  A    between atoms: C_10  and  C_17
    5  A    between atoms: C_10  and  C_25
    6  A    between atoms: CA_16  and  C_20
    7  A    between atoms: C_17  and  C_27
                            x       y       z     vdW  Elec       q    Type
                         _______ _______ _______ _____ _____    ______ ____

>  <TORSDO>
F 7

$$$$
=
 OpenBabel10262420433D

 28 30  0  0  1  0  0  0  0  0999 V2000
  190.9470  177.1020  140.8580 C   0  0  0  0  0  3  0  0  0  0  0  0
  190.4660  177.9710  143.5150 C   0  0  2  0  0  3  0  0  0  0  0  0
  192.0090  177.0690  141.9120 C   0  0  0  0  0  2  0  0  0  0  0  0
  191.4210  176.8890  143.2410 N   0  0  0  0  0  2  0  0  0  0  0  0
  189.7150  177.5640  141.1080 C   0  0  0  0  0  0  0  0  0  0  0  0
  189.3100  177.9770  142.5050 C   0  0  1  0  0  3  0  0  0  0  0  0
  192.1320  179.3240  144.5690 O   0  0  0  0  0  1  0  0  0  0  0  0
  191.1460  179.3340  143.5830 C   0  0  0  0  0  2  0  0  0  0  0  0
  188.7460  177.6470  140.0940 O   0  0  0  0  0  0  0  0  0  0  0  0
  188.9830  177.9900  138.7250 C   0  0  2  0  0  3  0  0  0  0  0  0
  187.9540  177.1930  136.6920 C   0  0  1  0  0  3  0  0  0  0  0  0
  188.1040  179.0010  138.2910 O   0  0  0  0  0  0  0  0  0  0  0  0
  189.3370  175.7520  137.9780 O   0  0  0  0  0  0  0  0  0  0  0  0
  188.7970  176.8370  137.8290 C   0  0  0  0  0  0  0  0  0  0  0  0
  186.6480  176.4220  136.7450 C   0  0  0  0  0  1  0  0  0  0  0  0
  187.6960  178.6640  136.9750 C   0  0  0  0  0  2  0  0  0  0  0  0
  188.1930  177.0740  143.0110 C   0  0  0  0  0  2  0  0  0  0  0  0
  187.1100  177.8350  143.7840 C   0  0  2  0  0  3  0  0  0  0  0  0
  188.4170  177.3410  145.7880 C   0  0  0  0  0  3  0  0  0  0  0  0
  186.3080  178.6260  146.1670 C   0  0  2  0  0  3  0  0  0  0  0  0
  187.5430  177.6570  148.1120 C   0  0  2  0  0  3  0  0  0  0  0  0
  187.3330  177.9510  145.2720 C   0  0  0  0  0  0  0  0  0  0  0  0
  186.8250  178.8900  147.5810 C   0  0  0  0  0  2  0  0  0  0  0  0
  185.1610  177.8570  146.2380 F   0  0  0  0  0  0  0  0  0  0  0  0
  187.9380  177.8780  149.4300 O   0  0  0  0  0  1  0  0  0  0  0  0
  188.7710  177.3980  147.2500 C   0  0  0  0  0  2  0  0  0  0  0  0
  185.0030  178.8100  142.7350 C   0  0  0  0  0  1  0  0  0  0  0  0
  185.6690  177.5810  143.3300 C   0  0  0  0  0  2  0  0  0  0  0  0
  1  5  2  0  0  0  0
  1  3  1  0  0  0  0
  2  8  1  6  0  0  0
  3  4  1  0  0  0  0
  4  2  1  0  0  0  0
  5  6  1  0  0  0  0
  6 17  1  1  0  0  0
  6  2  1  0  0  0  0
  8  7  1  0  0  0  0
  9  5  1  0  0  0  0
 10  9  1  1  0  0  0
 11 15  1  1  0  0  0
 11 16  1  0  0  0  0
 11 14  1  0  0  0  0
 12 10  1  0  0  0  0
 14 13  2  0  0  0  0
 14 10  1  0  0  0  0
 16 12  1  0  0  0  0
 18 17  1  1  0  0  0
 18 22  1  0  0  0  0
 19 26  1  0  0  0  0
 20 24  1  1  0  0  0
 20 23  1  0  0  0  0
 21 25  1  1  0  0  0
 22 19  2  0  0  0  0
 22 20  1  0  0  0  0
 23 21  1  0  0  0  0
 26 21  1  0  0  0  0
 27 28  1  0  0  0  0
 28 18  1  0  0  0  0
M  END
>  <MODEL>
8

>  <REMARK>
 VINA RESULT:      -7.2      2.336      4.939
  Name = 
  7 active torsions:
  status: ('A' for Active; 'I' for Inactive)
    1  A    between atoms: O_2  and  C_3
    2  A    between atoms: O_2  and  C_26
    3  A    between atoms: C_10  and  C_13
    4  A    between atoms: C_10  and  C_17
    5  A    between atoms: C_10  and  C_25
    6  A    between atoms: CA_16  and  C_20
    7  A    between atoms: C_17  and  C_27
                            x       y       z     vdW  Elec       q    Type
                         _______ _______ _______ _____ _____    ______ ____

>  <TORSDO>
F 7

$$$$
=
 OpenBabel10262420433D

 28 30  0  0  1  0  0  0  0  0999 V2000
  189.6100  177.5470  146.2920 C   0  0  0  0  0  3  0  0  0  0  0  0
  186.9110  177.7060  147.1540 C   0  0  2  0  0  3  0  0  0  0  0  0
  189.1770  177.0870  147.6500 C   0  0  0  0  0  2  0  0  0  0  0  0
  187.7880  176.6270  147.6280 N   0  0  0  0  0  2  0  0  0  0  0  0
  188.7460  178.0780  145.4170 C   0  0  0  0  0  0  0  0  0  0  0  0
  187.2670  178.1400  145.7250 C   0  0  1  0  0  3  0  0  0  0  0  0
  186.0740  179.9000  147.6020 O   0  0  0  0  0  1  0  0  0  0  0  0
  186.9010  178.8970  148.1060 C   0  0  0  0  0  2  0  0  0  0  0  0
  189.1760  178.5620  144.1700 O   0  0  0  0  0  0  0  0  0  0  0  0
  189.8890  177.8210  143.1760 C   0  0  2  0  0  3  0  0  0  0  0  0
  191.6850  176.2200  143.3790 C   0  0  1  0  0  3  0  0  0  0  0  0
  189.3210  176.5460  142.9830 O   0  0  0  0  0  0  0  0  0  0  0  0
  192.0620  178.5120  143.8770 O   0  0  0  0  0  0  0  0  0  0  0  0
  191.2990  177.6180  143.5460 C   0  0  0  0  0  0  0  0  0  0  0  0
  192.0120  175.6010  144.7250 C   0  0  0  0  0  1  0  0  0  0  0  0
  190.3940  175.6280  142.8370 C   0  0  0  0  0  2  0  0  0  0  0  0
  186.4930  177.2860  144.7300 C   0  0  0  0  0  2  0  0  0  0  0  0
  185.2750  178.0070  144.1420 C   0  0  2  0  0  3  0  0  0  0  0  0
  186.4400  178.4690  142.0460 C   0  0  0  0  0  3  0  0  0  0  0  0
  183.9790  178.0910  141.8490 C   0  0  2  0  0  3  0  0  0  0  0  0
  185.2590  178.9990  139.9040 C   0  0  2  0  0  3  0  0  0  0  0  0
  185.2730  178.1610  142.6410 C   0  0  0  0  0  0  0  0  0  0  0  0
  184.2020  177.9940  140.3390 C   0  0  0  0  0  2  0  0  0  0  0  0
  183.1940  179.1970  142.1220 F   0  0  0  0  0  0  0  0  0  0  0  0
  185.3970  178.9610  138.5170 O   0  0  0  0  0  1  0  0  0  0  0  0
  186.5840  178.6270  140.5560 C   0  0  0  0  0  2  0  0  0  0  0  0
  183.3430  179.0080  145.4670 C   0  0  0  0  0  1  0  0  0  0  0  0
  184.7580  179.2020  144.9490 C   0  0  0  0  0  2  0  0  0  0  0  0
  1  3  1  0  0  0  0
  2  4  1  0  0  0  0
  2  8  1  1  0  0  0
  4  3  1  0  0  0  0
  5  6  1  0  0  0  0
  5  1  2  0  0  0  0
  6 17  1  6  0  0  0
  6  2  1  0  0  0  0
  7  8  1  0  0  0  0
  9  5  1  0  0  0  0
 10 14  1  0  0  0  0
 10  9  1  1  0  0  0
 11 14  1  0  0  0  0
 11 15  1  1  0  0  0
 12 10  1  0  0  0  0
 14 13  2  0  0  0  0
 16 12  1  0  0  0  0
 16 11  1  0  0  0  0
 18 17  1  1  0  0  0
 18 28  1  0  0  0  0
 19 22  2  0  0  0  0
 20 24  1  6  0  0  0
 20 22  1  0  0  0  0
 21 25  1  6  0  0  0
 21 23  1  0  0  0  0
 21 26  1  0  0  0  0
 22 18  1  0  0  0  0
 23 20  1  0  0  0  0
 26 19  1  0  0  0  0
 28 27  1  0  0  0  0
M  END
>  <MODEL>
9

>  <REMARK>
 VINA RESULT:      -7.2      1.683      2.357
  Name = 
  7 active torsions:
  status: ('A' for Active; 'I' for Inactive)
    1  A    between atoms: O_2  and  C_3
    2  A    between atoms: O_2  and  C_26
    3  A    between atoms: C_10  and  C_13
    4  A    between atoms: C_10  and  C_17
    5  A    between atoms: C_10  and  C_25
    6  A    between atoms: CA_16  and  C_20
    7  A    between atoms: C_17  and  C_27
                            x       y       z     vdW  Elec       q    Type
                         _______ _______ _______ _____ _____    ______ ____

>  <TORSDO>
F 7

$$$$
