=
 OpenBabel10262419153D

 34 38  0  0  1  0  0  0  0  0999 V2000
  189.9940  177.6680  146.6540 C   0  0  2  0  0  3  0  0  0  0  0  0
  187.5290  178.1780  147.0460 C   0  0  1  0  0  3  0  0  0  0  0  0
  188.4350  177.1110  144.8430 C   0  0  2  0  0  3  0  0  0  0  0  0
  189.0980  177.8770  148.9930 C   0  0  0  0  0  2  0  0  0  0  0  0
  189.3240  175.8760  142.5450 S   0  0  1  0  0  0  0  0  0  0  0  0
  189.7820  175.9280  139.9810 F   0  0  0  0  0  0  0  0  0  0  0  0
  187.8050  177.3790  148.3170 C   0  0  0  0  0  2  0  0  0  0  0  0
  186.0340  176.8640  145.4620 C   0  0  0  0  0  2  0  0  0  0  0  0
  190.6980  178.3100  139.8210 F   0  0  0  0  0  0  0  0  0  0  0  0
  188.6750  178.0890  146.0040 C   0  0  2  0  0  3  0  0  0  0  0  0
  191.8060  178.1600  141.7640 F   0  0  0  0  0  0  0  0  0  0  0  0
  190.1880  178.3390  148.0060 C   0  0  0  0  0  2  0  0  0  0  0  0
  189.5570  177.2240  143.7730 C   0  0  1  0  0  0  0  0  0  0  0  0
  190.3760  176.3570  141.1570 C   0  0  1  0  0  3  0  0  0  0  0  0
  191.1340  177.9060  145.6800 C   0  0  0  0  0  2  0  0  0  0  0  0
  186.1140  177.9810  146.4990 C   0  0  0  0  0  2  0  0  0  0  0  0
  189.4630  178.6040  141.8240 C   0  0  0  0  0  2  0  0  0  0  0  0
  190.6110  177.8710  141.1290 C   0  0  0  0  0  0  0  0  0  0  0  0
  189.5650  178.5480  143.2330 O   0  0  0  0  0  0  0  0  0  0  0  0
  190.0220  174.6570  143.1340 O   0  0  0  0  0  0  0  0  0  0  0  0
  186.9970  177.1260  144.3070 C   0  0  1  0  0  3  0  0  0  0  0  0
  190.9230  177.0010  144.4610 C   0  0  0  0  0  2  0  0  0  0  0  0
  186.6490  178.4140  143.5600 C   0  0  0  0  0  2  0  0  0  0  0  0
  185.1570  178.4740  143.2720 C   0  0  1  0  0  3  0  0  0  0  0  0
  184.5700  179.7660  143.8140 C   0  0  0  0  0  1  0  0  0  0  0  0
  183.6470  178.4170  141.3010 C   0  0  0  0  0  3  0  0  0  0  0  0
  184.8800  178.3280  141.8070 C   0  0  0  0  0  3  0  0  0  0  0  0
  184.5000  180.2340  139.0170 O   0  0  0  0  0  0  0  0  0  0  0  0
  183.4020  178.2620  139.8330 C   0  0  2  0  0  3  0  0  0  0  0  0
  183.4170  179.6040  139.1400 C   0  0  0  0  0  0  0  0  0  0  0  0
  181.0900  179.5130  138.6100 C   0  0  0  0  0  3  0  0  0  0  0  0
  181.0250  178.1250  139.0900 C   0  0  0  0  0  3  0  0  0  0  0  0
  182.0950  177.5410  139.6340 C   0  0  0  0  0  3  0  0  0  0  0  0
  182.2050  180.1770  138.6340 N   0  0  0  0  0  0  0  0  0  0  0  0
  1 15  1  6  0  0  0
  1 12  1  0  0  0  0
  2 16  1  6  0  0  0
  2  7  1  0  0  0  0
  3 10  1  0  0  0  0
  5 20  2  0  0  0  0
  5 13  1  0  0  0  0
  6 14  1  0  0  0  0
  7  4  1  0  0  0  0
  8 16  1  0  0  0  0
  9 18  1  0  0  0  0
 10  1  1  0  0  0  0
 10  2  1  0  0  0  0
 12  4  1  0  0  0  0
 13 22  1  0  0  0  0
 13  3  1  0  0  0  0
 14  5  1  0  0  0  0
 17 19  1  0  0  0  0
 18 14  1  0  0  0  0
 18 11  1  0  0  0  0
 18 17  1  0  0  0  0
 19 13  1  0  0  0  0
 21  3  1  0  0  0  0
 21  8  1  0  0  0  0
 22 15  1  0  0  0  0
 23 21  1  0  0  0  0
 24 23  1  0  0  0  0
 24 25  1  0  0  0  0
 26 27  2  0  0  0  0
 27 24  1  0  0  0  0
 28 30  2  0  0  0  0
 29 26  1  0  0  0  0
 30 29  1  0  0  0  0
 31 34  2  0  0  0  0
 31 32  1  0  0  0  0
 32 33  2  0  0  0  0
 33 29  1  0  0  0  0
 34 30  1  0  0  0  0
M  END
>  <MODEL>
1

>  <REMARK>
 VINA RESULT:      -7.7      0.000      0.000
  Name = 
  4 active torsions:
  status: ('A' for Active; 'I' for Inactive)
    1  A    between atoms: C_3  and  C_13
    2  A    between atoms: C_5  and  C_18
    3  A    between atoms: C_5  and  C_31
    4  A    between atoms: C_17  and  C_18
                            x       y       z     vdW  Elec       q    Type
                         _______ _______ _______ _____ _____    ______ ____

>  <TORSDO>
F 4

$$$$
=
 OpenBabel10262419153D

 34 38  0  0  1  0  0  0  0  0999 V2000
  189.7260  177.5540  146.7570 C   0  0  2  0  0  3  0  0  0  0  0  0
  187.2650  178.2090  146.6810 C   0  0  1  0  0  3  0  0  0  0  0  0
  188.5100  177.0950  144.6750 C   0  0  2  0  0  3  0  0  0  0  0  0
  188.4160  177.8110  148.8860 C   0  0  0  0  0  2  0  0  0  0  0  0
  189.7460  175.8140  142.5710 S   0  0  1  0  0  0  0  0  0  0  0  0
  190.6850  175.8450  140.1420 F   0  0  0  0  0  0  0  0  0  0  0  0
  187.2480  177.3930  147.9710 C   0  0  0  0  0  2  0  0  0  0  0  0
  186.0250  176.9900  144.8260 C   0  0  0  0  0  2  0  0  0  0  0  0
  191.7510  178.1680  140.1900 F   0  0  0  0  0  0  0  0  0  0  0  0
  188.5810  178.0540  145.8750 C   0  0  2  0  0  3  0  0  0  0  0  0
  192.4590  177.9490  142.3050 F   0  0  0  0  0  0  0  0  0  0  0  0
  189.6980  178.2100  148.1300 C   0  0  0  0  0  2  0  0  0  0  0  0
  189.8200  177.1430  143.8390 C   0  0  1  0  0  0  0  0  0  0  0  0
  191.0690  176.2340  141.4140 C   0  0  1  0  0  3  0  0  0  0  0  0
  191.0430  177.7260  146.0200 C   0  0  0  0  0  2  0  0  0  0  0  0
  185.9710  178.0980  145.8740 C   0  0  0  0  0  2  0  0  0  0  0  0
  190.1780  178.5310  141.9270 C   0  0  0  0  0  2  0  0  0  0  0  0
  191.3920  177.7320  141.4520 C   0  0  0  0  0  0  0  0  0  0  0  0
  190.0070  178.4660  143.3290 O   0  0  0  0  0  0  0  0  0  0  0  0
  190.2470  174.5540  143.2660 O   0  0  0  0  0  0  0  0  0  0  0  0
  187.2030  177.1970  143.8770 C   0  0  1  0  0  3  0  0  0  0  0  0
  191.0150  176.8380  144.7710 C   0  0  0  0  0  2  0  0  0  0  0  0
  187.0790  178.5050  143.0950 C   0  0  0  0  0  2  0  0  0  0  0  0
  185.8500  178.4730  142.2000 C   0  0  1  0  0  3  0  0  0  0  0  0
  184.7790  179.4030  142.7440 C   0  0  0  0  0  1  0  0  0  0  0  0
  187.1150  178.1410  140.0870 C   0  0  0  0  0  3  0  0  0  0  0  0
  186.2000  178.8220  140.7850 C   0  0  0  0  0  3  0  0  0  0  0  0
  185.4940  177.6870  137.5560 O   0  0  0  0  0  0  0  0  0  0  0  0
  187.4460  178.5170  138.6780 C   0  0  2  0  0  3  0  0  0  0  0  0
  186.7420  177.6080  137.6980 C   0  0  0  0  0  0  0  0  0  0  0  0
  188.7770  176.6110  136.9460 C   0  0  0  0  0  3  0  0  0  0  0  0
  189.5540  177.5860  137.7240 C   0  0  0  0  0  3  0  0  0  0  0  0
  188.9420  178.4790  138.5050 C   0  0  0  0  0  3  0  0  0  0  0  0
  187.4800  176.6410  136.9400 N   0  0  0  0  0  0  0  0  0  0  0  0
  1 15  1  6  0  0  0
  1 12  1  0  0  0  0
  2 16  1  6  0  0  0
  2  7  1  0  0  0  0
  3 10  1  0  0  0  0
  5 20  2  0  0  0  0
  5 13  1  0  0  0  0
  6 14  1  0  0  0  0
  7  4  1  0  0  0  0
  8 16  1  0  0  0  0
  9 18  1  0  0  0  0
 10  2  1  0  0  0  0
 10  1  1  0  0  0  0
 12  4  1  0  0  0  0
 13  3  1  0  0  0  0
 13 22  1  0  0  0  0
 14 18  1  0  0  0  0
 14  5  1  0  0  0  0
 17 19  1  0  0  0  0
 18 17  1  0  0  0  0
 18 11  1  0  0  0  0
 19 13  1  0  0  0  0
 21  3  1  0  0  0  0
 21  8  1  0  0  0  0
 22 15  1  0  0  0  0
 23 21  1  0  0  0  0
 24 25  1  0  0  0  0
 24 23  1  0  0  0  0
 26 27  2  0  0  0  0
 27 24  1  0  0  0  0
 28 30  2  0  0  0  0
 29 26  1  0  0  0  0
 30 29  1  0  0  0  0
 31 32  1  0  0  0  0
 32 33  2  0  0  0  0
 33 29  1  0  0  0  0
 34 31  2  0  0  0  0
 34 30  1  0  0  0  0
M  END
>  <MODEL>
2

>  <REMARK>
 VINA RESULT:      -7.7      2.231      3.020
  Name = 
  4 active torsions:
  status: ('A' for Active; 'I' for Inactive)
    1  A    between atoms: C_3  and  C_13
    2  A    between atoms: C_5  and  C_18
    3  A    between atoms: C_5  and  C_31
    4  A    between atoms: C_17  and  C_18
                            x       y       z     vdW  Elec       q    Type
                         _______ _______ _______ _____ _____    ______ ____

>  <TORSDO>
F 4

$$$$
=
 OpenBabel10262419153D

 34 38  0  0  1  0  0  0  0  0999 V2000
  190.5410  177.5410  139.5080 C   0  0  2  0  0  3  0  0  0  0  0  0
  188.0080  177.7680  139.3580 C   0  0  1  0  0  3  0  0  0  0  0  0
  189.3380  178.0350  141.5890 C   0  0  2  0  0  3  0  0  0  0  0  0
  189.4460  178.1100  137.3190 C   0  0  0  0  0  2  0  0  0  0  0  0
  190.7030  178.4410  143.9480 S   0  0  1  0  0  0  0  0  0  0  0  0
  191.3250  177.6840  146.3610 F   0  0  0  0  0  0  0  0  0  0  0  0
  188.3940  178.7440  138.2500 C   0  0  0  0  0  2  0  0  0  0  0  0
  187.0550  179.0100  141.3630 C   0  0  0  0  0  2  0  0  0  0  0  0
  191.5640  175.1790  145.9100 F   0  0  0  0  0  0  0  0  0  0  0  0
  189.2110  177.3250  140.2310 C   0  0  2  0  0  3  0  0  0  0  0  0
  192.5180  175.4930  143.9060 F   0  0  0  0  0  0  0  0  0  0  0  0
  190.4390  177.1750  138.0340 C   0  0  0  0  0  2  0  0  0  0  0  0
  190.4640  177.4000  142.4520 C   0  0  1  0  0  0  0  0  0  0  0  0
  191.6870  177.4050  145.0540 C   0  0  1  0  0  3  0  0  0  0  0  0
  191.6440  176.8070  140.2500 C   0  0  0  0  0  2  0  0  0  0  0  0
  186.7470  178.1800  140.1200 C   0  0  0  0  0  2  0  0  0  0  0  0
  190.1460  175.6740  144.0740 C   0  0  0  0  0  2  0  0  0  0  0  0
  191.5010  175.9160  144.7420 C   0  0  0  0  0  0  0  0  0  0  0  0
  190.1510  176.0280  142.7050 O   0  0  0  0  0  0  0  0  0  0  0  0
  191.6610  179.5500  143.5290 O   0  0  0  0  0  0  0  0  0  0  0  0
  187.9950  178.2550  142.3010 C   0  0  1  0  0  3  0  0  0  0  0  0
  191.7820  177.4280  141.6450 C   0  0  0  0  0  2  0  0  0  0  0  0
  187.3670  176.9580  142.8100 C   0  0  0  0  0  2  0  0  0  0  0  0
  186.6310  177.2040  144.1190 C   0  0  1  0  0  3  0  0  0  0  0  0
  187.6160  177.5740  145.2140 C   0  0  0  0  0  1  0  0  0  0  0  0
  184.4680  178.0570  143.2430 C   0  0  0  0  0  3  0  0  0  0  0  0
  185.5780  178.2590  143.9590 C   0  0  0  0  0  3  0  0  0  0  0  0
  182.7690  179.3780  145.3900 O   0  0  0  0  0  0  0  0  0  0  0  0
  183.4370  179.1310  143.0980 C   0  0  2  0  0  3  0  0  0  0  0  0
  182.4280  179.0630  144.2200 C   0  0  0  0  0  0  0  0  0  0  0  0
  180.6460  178.4240  142.7650 C   0  0  0  0  0  3  0  0  0  0  0  0
  181.5060  178.6520  141.5950 C   0  0  0  0  0  3  0  0  0  0  0  0
  182.7860  178.9990  141.7470 C   0  0  0  0  0  3  0  0  0  0  0  0
  181.0860  178.6270  143.9690 N   0  0  0  0  0  0  0  0  0  0  0  0
  1 12  1  6  0  0  0
  1 10  1  0  0  0  0
  1 15  1  0  0  0  0
  2  7  1  1  0  0  0
  2 16  1  0  0  0  0
  2 10  1  0  0  0  0
  3 21  1  0  0  0  0
  3 13  1  0  0  0  0
  4 12  1  0  0  0  0
  4  7  1  0  0  0  0
  5 14  1  0  0  0  0
  8 21  1  0  0  0  0
 10  3  1  0  0  0  0
 11 18  1  0  0  0  0
 13 19  1  0  0  0  0
 13  5  1  0  0  0  0
 14  6  1  0  0  0  0
 15 22  1  0  0  0  0
 16  8  1  0  0  0  0
 17 18  1  0  0  0  0
 18 14  1  0  0  0  0
 18  9  1  0  0  0  0
 19 17  1  0  0  0  0
 20  5  2  0  0  0  0
 21 23  1  0  0  0  0
 22 13  1  0  0  0  0
 23 24  1  0  0  0  0
 24 25  1  0  0  0  0
 26 27  2  0  0  0  0
 27 24  1  0  0  0  0
 29 26  1  0  0  0  0
 29 30  1  0  0  0  0
 30 28  2  0  0  0  0
 31 34  2  0  0  0  0
 32 33  2  0  0  0  0
 32 31  1  0  0  0  0
 33 29  1  0  0  0  0
 34 30  1  0  0  0  0
M  END
>  <MODEL>
3

>  <REMARK>
 VINA RESULT:      -7.4      2.797      5.400
  Name = 
  4 active torsions:
  status: ('A' for Active; 'I' for Inactive)
    1  A    between atoms: C_3  and  C_13
    2  A    between atoms: C_5  and  C_18
    3  A    between atoms: C_5  and  C_31
    4  A    between atoms: C_17  and  C_18
                            x       y       z     vdW  Elec       q    Type
                         _______ _______ _______ _____ _____    ______ ____

>  <TORSDO>
F 4

$$$$
=
 OpenBabel10262419153D

 34 38  0  0  1  0  0  0  0  0999 V2000
  189.3010  177.4200  146.7670 C   0  0  2  0  0  3  0  0  0  0  0  0
  186.9800  178.4510  146.5650 C   0  0  1  0  0  3  0  0  0  0  0  0
  188.2070  177.2920  144.5730 C   0  0  2  0  0  3  0  0  0  0  0  0
  187.8710  177.7360  148.8090 C   0  0  0  0  0  2  0  0  0  0  0  0
  189.4080  175.9770  142.4700 S   0  0  1  0  0  0  0  0  0  0  0  0
  190.5400  176.0220  140.1250 F   0  0  0  0  0  0  0  0  0  0  0  0
  186.7340  177.5640  147.7830 C   0  0  0  0  0  2  0  0  0  0  0  0
  185.7290  177.5630  144.5360 C   0  0  0  0  0  2  0  0  0  0  0  0
  191.9320  178.1440  140.4300 F   0  0  0  0  0  0  0  0  0  0  0  0
  188.3200  178.1480  145.8450 C   0  0  2  0  0  3  0  0  0  0  0  0
  192.4210  177.6790  142.5670 F   0  0  0  0  0  0  0  0  0  0  0  0
  189.2560  177.9800  148.1810 C   0  0  0  0  0  2  0  0  0  0  0  0
  189.5730  177.1920  143.8400 C   0  0  1  0  0  0  0  0  0  0  0  0
  190.8700  176.2630  141.4480 C   0  0  1  0  0  3  0  0  0  0  0  0
  190.6840  177.4340  146.1420 C   0  0  0  0  0  2  0  0  0  0  0  0
  185.7550  178.5950  145.6600 C   0  0  0  0  0  2  0  0  0  0  0  0
  190.2920  178.6310  142.0720 C   0  0  0  0  0  2  0  0  0  0  0  0
  191.4090  177.6860  141.6250 C   0  0  0  0  0  0  0  0  0  0  0  0
  189.9970  178.5010  143.4490 O   0  0  0  0  0  0  0  0  0  0  0  0
  189.6560  174.6120  143.0990 O   0  0  0  0  0  0  0  0  0  0  0  0
  187.0000  177.6470  143.6930 C   0  0  1  0  0  3  0  0  0  0  0  0
  190.6280  176.6450  144.8280 C   0  0  0  0  0  2  0  0  0  0  0  0
  187.1380  179.0070  143.0090 C   0  0  0  0  0  2  0  0  0  0  0  0
  186.3970  179.0090  141.6800 C   0  0  1  0  0  3  0  0  0  0  0  0
  187.2210  178.3020  140.6180 C   0  0  0  0  0  1  0  0  0  0  0  0
  183.9340  178.9810  141.3540 C   0  0  0  0  0  3  0  0  0  0  0  0
  185.0400  178.3880  141.8140 C   0  0  0  0  0  3  0  0  0  0  0  0
  181.8730  178.3230  139.2180 O   0  0  0  0  0  0  0  0  0  0  0  0
  182.5930  178.3370  141.5070 C   0  0  2  0  0  3  0  0  0  0  0  0
  181.6680  178.7460  140.3850 C   0  0  0  0  0  0  0  0  0  0  0  0
  180.2270  179.9800  141.8360 C   0  0  0  0  0  3  0  0  0  0  0  0
  180.9570  179.4740  143.0070 C   0  0  0  0  0  3  0  0  0  0  0  0
  182.0340  178.6990  142.8580 C   0  0  0  0  0  3  0  0  0  0  0  0
  180.5650  179.6270  140.6330 N   0  0  0  0  0  0  0  0  0  0  0  0
  1 15  1  6  0  0  0
  1 12  1  0  0  0  0
  2 16  1  6  0  0  0
  2  7  1  0  0  0  0
  3 10  1  0  0  0  0
  5 20  2  0  0  0  0
  5 13  1  0  0  0  0
  6 14  1  0  0  0  0
  7  4  1  0  0  0  0
  8 16  1  0  0  0  0
  9 18  1  0  0  0  0
 10  2  1  0  0  0  0
 10  1  1  0  0  0  0
 12  4  1  0  0  0  0
 13  3  1  0  0  0  0
 13 22  1  0  0  0  0
 14 18  1  0  0  0  0
 14  5  1  0  0  0  0
 17 19  1  0  0  0  0
 18 17  1  0  0  0  0
 18 11  1  0  0  0  0
 19 13  1  0  0  0  0
 21  8  1  0  0  0  0
 21  3  1  0  0  0  0
 22 15  1  0  0  0  0
 23 21  1  0  0  0  0
 24 27  1  0  0  0  0
 24 23  1  0  0  0  0
 25 24  1  0  0  0  0
 26 29  1  0  0  0  0
 26 27  2  0  0  0  0
 28 30  2  0  0  0  0
 29 33  1  0  0  0  0
 30 34  1  0  0  0  0
 30 29  1  0  0  0  0
 31 32  1  0  0  0  0
 33 32  2  0  0  0  0
 34 31  2  0  0  0  0
M  END
>  <MODEL>
4

>  <REMARK>
 VINA RESULT:      -7.3      1.472      1.780
  Name = 
  4 active torsions:
  status: ('A' for Active; 'I' for Inactive)
    1  A    between atoms: C_3  and  C_13
    2  A    between atoms: C_5  and  C_18
    3  A    between atoms: C_5  and  C_31
    4  A    between atoms: C_17  and  C_18
                            x       y       z     vdW  Elec       q    Type
                         _______ _______ _______ _____ _____    ______ ____

>  <TORSDO>
F 4

$$$$
=
 OpenBabel10262419153D

 34 38  0  0  1  0  0  0  0  0999 V2000
  188.7920  178.1540  141.7070 C   0  0  2  0  0  3  0  0  0  0  0  0
  191.0860  177.0860  142.0060 C   0  0  1  0  0  3  0  0  0  0  0  0
  190.0910  177.7080  139.6740 C   0  0  2  0  0  3  0  0  0  0  0  0
  190.0120  178.3590  143.8960 C   0  0  0  0  0  2  0  0  0  0  0  0
  189.1390  178.4510  137.1970 S   0  0  1  0  0  0  0  0  0  0  0  0
  188.2320  177.8170  134.8390 F   0  0  0  0  0  0  0  0  0  0  0  0
  191.2450  178.2530  142.9770 C   0  0  0  0  0  2  0  0  0  0  0  0
  192.5510  177.4160  139.9530 C   0  0  0  0  0  2  0  0  0  0  0  0
  186.7470  175.8560  135.5320 F   0  0  0  0  0  0  0  0  0  0  0  0
  189.8310  177.2070  141.1040 C   0  0  2  0  0  3  0  0  0  0  0  0
  186.0740  176.8550  137.4220 F   0  0  0  0  0  0  0  0  0  0  0  0
  188.6840  177.9740  143.2150 C   0  0  0  0  0  2  0  0  0  0  0  0
  188.8040  177.6280  138.8070 C   0  0  1  0  0  0  0  0  0  0  0  0
  187.7700  177.9250  136.1400 C   0  0  1  0  0  3  0  0  0  0  0  0
  187.4740  177.9920  140.9720 C   0  0  0  0  0  2  0  0  0  0  0  0
  192.3850  176.7060  141.2940 C   0  0  0  0  0  2  0  0  0  0  0  0
  188.2080  175.7910  137.3990 C   0  0  0  0  0  2  0  0  0  0  0  0
  187.1700  176.5990  136.6180 C   0  0  0  0  0  0  0  0  0  0  0  0
  188.3750  176.2660  138.7200 O   0  0  0  0  0  0  0  0  0  0  0  0
  188.8780  179.9340  137.4310 O   0  0  0  0  0  0  0  0  0  0  0  0
  191.3630  177.1290  139.0370 C   0  0  1  0  0  3  0  0  0  0  0  0
  187.6800  178.4180  139.5140 C   0  0  0  0  0  2  0  0  0  0  0  0
  191.2450  175.6410  138.7100 C   0  0  0  0  0  2  0  0  0  0  0  0
  192.0190  175.3130  137.4420 C   0  0  1  0  0  3  0  0  0  0  0  0
  192.4610  176.5920  136.7520 C   0  0  0  0  0  1  0  0  0  0  0  0
  194.4010  174.9120  138.0260 C   0  0  0  0  0  3  0  0  0  0  0  0
  193.1910  174.4250  137.7360 C   0  0  0  0  0  3  0  0  0  0  0  0
  196.5100  175.1150  140.2060 O   0  0  0  0  0  0  0  0  0  0  0  0
  195.5510  174.0000  138.3100 C   0  0  2  0  0  3  0  0  0  0  0  0
  196.6640  174.7390  139.0150 C   0  0  0  0  0  0  0  0  0  0  0  0
  198.1540  174.5500  137.1590 C   0  0  0  0  0  3  0  0  0  0  0  0
  197.2050  173.6590  136.4750 C   0  0  0  0  0  3  0  0  0  0  0  0
  196.0150  173.3880  137.0140 C   0  0  0  0  0  3  0  0  0  0  0  0
  197.8910  175.0330  138.3340 N   0  0  0  0  0  0  0  0  0  0  0  0
  1 15  1  6  0  0  0
  1 12  1  0  0  0  0
  2 16  1  6  0  0  0
  2  7  1  0  0  0  0
  3 10  1  0  0  0  0
  5 20  2  0  0  0  0
  5 13  1  0  0  0  0
  6 14  1  0  0  0  0
  7  4  1  0  0  0  0
  8 16  1  0  0  0  0
  9 18  1  0  0  0  0
 10  1  1  0  0  0  0
 10  2  1  0  0  0  0
 12  4  1  0  0  0  0
 13 22  1  0  0  0  0
 13  3  1  0  0  0  0
 14 18  1  0  0  0  0
 14  5  1  0  0  0  0
 17 19  1  0  0  0  0
 18 17  1  0  0  0  0
 18 11  1  0  0  0  0
 19 13  1  0  0  0  0
 21  3  1  0  0  0  0
 21  8  1  0  0  0  0
 22 15  1  0  0  0  0
 23 21  1  0  0  0  0
 24 27  1  0  0  0  0
 24 23  1  0  0  0  0
 25 24  1  0  0  0  0
 26 29  1  0  0  0  0
 27 26  2  0  0  0  0
 29 30  1  0  0  0  0
 30 28  2  0  0  0  0
 31 34  2  0  0  0  0
 32 33  2  0  0  0  0
 32 31  1  0  0  0  0
 33 29  1  0  0  0  0
 34 30  1  0  0  0  0
M  END
>  <MODEL>
5

>  <REMARK>
 VINA RESULT:      -7.2      5.462      9.376
  Name = 
  4 active torsions:
  status: ('A' for Active; 'I' for Inactive)
    1  A    between atoms: C_3  and  C_13
    2  A    between atoms: C_5  and  C_18
    3  A    between atoms: C_5  and  C_31
    4  A    between atoms: C_17  and  C_18
                            x       y       z     vdW  Elec       q    Type
                         _______ _______ _______ _____ _____    ______ ____

>  <TORSDO>
F 4

$$$$
=
 OpenBabel10262419153D

 34 38  0  0  1  0  0  0  0  0999 V2000
  186.0970  173.9680  135.3520 C   0  0  2  0  0  3  0  0  0  0  0  0
  183.7340  174.3790  136.2120 C   0  0  1  0  0  3  0  0  0  0  0  0
  185.5870  176.2180  136.1880 C   0  0  2  0  0  3  0  0  0  0  0  0
  184.1990  172.5050  134.5950 C   0  0  0  0  0  2  0  0  0  0  0  0
  187.4700  178.2270  136.0760 S   0  0  1  0  0  0  0  0  0  0  0  0
  189.0860  179.8820  137.2740 F   0  0  0  0  0  0  0  0  0  0  0  0
  183.3850  173.7890  134.8480 C   0  0  0  0  0  2  0  0  0  0  0  0
  183.1810  176.8600  136.2900 C   0  0  0  0  0  2  0  0  0  0  0  0
  189.9420  178.3050  139.0950 F   0  0  0  0  0  0  0  0  0  0  0  0
  185.2370  174.7310  136.3620 C   0  0  2  0  0  3  0  0  0  0  0  0
  190.0010  176.5330  137.7240 F   0  0  0  0  0  0  0  0  0  0  0  0
  185.6200  172.5320  135.1890 C   0  0  0  0  0  2  0  0  0  0  0  0
  187.0800  176.4880  136.5250 C   0  0  1  0  0  0  0  0  0  0  0  0
  189.0480  178.5510  136.8940 C   0  0  1  0  0  3  0  0  0  0  0  0
  187.5590  174.0900  135.7410 C   0  0  0  0  0  2  0  0  0  0  0  0
  182.7480  175.4500  136.6820 C   0  0  0  0  0  2  0  0  0  0  0  0
  187.9040  177.1730  138.6620 C   0  0  0  0  0  2  0  0  0  0  0  0
  189.2520  177.6320  138.1040 C   0  0  0  0  0  0  0  0  0  0  0  0
  187.3270  176.1380  137.8900 O   0  0  0  0  0  0  0  0  0  0  0  0
  187.8190  178.2010  134.5940 O   0  0  0  0  0  0  0  0  0  0  0  0
  184.5730  177.1720  136.8350 C   0  0  1  0  0  3  0  0  0  0  0  0
  187.9600  175.5680  135.6500 C   0  0  0  0  0  2  0  0  0  0  0  0
  184.6060  177.1350  138.3630 C   0  0  0  0  0  2  0  0  0  0  0  0
  183.9470  178.3800  138.9380 C   0  0  1  0  0  3  0  0  0  0  0  0
  182.5500  178.0520  139.4370 C   0  0  0  0  0  1  0  0  0  0  0  0
  184.7540  178.5280  141.2830 C   0  0  0  0  0  3  0  0  0  0  0  0
  184.7820  178.9820  140.0260 C   0  0  0  0  0  3  0  0  0  0  0  0
  187.6450  177.9480  142.0210 O   0  0  0  0  0  0  0  0  0  0  0  0
  185.5970  179.1530  142.3480 C   0  0  2  0  0  3  0  0  0  0  0  0
  186.6880  178.2100  142.7950 C   0  0  0  0  0  0  0  0  0  0  0  0
  185.7510  177.9340  144.9740 C   0  0  0  0  0  3  0  0  0  0  0  0
  184.7640  178.9860  144.6930 C   0  0  0  0  0  3  0  0  0  0  0  0
  184.7060  179.5640  143.4910 C   0  0  0  0  0  3  0  0  0  0  0  0
  186.6370  177.5940  144.0880 N   0  0  0  0  0  0  0  0  0  0  0  0
  1 12  1  1  0  0  0
  1 15  1  0  0  0  0
  1 10  1  0  0  0  0
  2  7  1  6  0  0  0
  2 10  1  0  0  0  0
  2 16  1  0  0  0  0
  3 10  1  0  0  0  0
  3 13  1  0  0  0  0
  3 21  1  0  0  0  0
  4  7  1  0  0  0  0
  4 12  1  0  0  0  0
  5 13  1  0  0  0  0
  5 14  1  0  0  0  0
  8 16  1  0  0  0  0
  8 21  1  0  0  0  0
 11 18  1  0  0  0  0
 13 19  1  0  0  0  0
 14  6  1  0  0  0  0
 14 18  1  0  0  0  0
 18 17  1  0  0  0  0
 18  9  1  0  0  0  0
 19 17  1  0  0  0  0
 20  5  2  0  0  0  0
 21 23  1  0  0  0  0
 22 15  1  0  0  0  0
 22 13  1  0  0  0  0
 23 24  1  0  0  0  0
 24 25  1  0  0  0  0
 24 27  1  0  0  0  0
 26 29  1  0  0  0  0
 27 26  2  0  0  0  0
 28 30  2  0  0  0  0
 29 30  1  0  0  0  0
 29 33  1  0  0  0  0
 30 34  1  0  0  0  0
 32 31  1  0  0  0  0
 33 32  2  0  0  0  0
 34 31  2  0  0  0  0
M  END
>  <MODEL>
6

>  <REMARK>
 VINA RESULT:      -7.0      4.428      8.321
  Name = 
  4 active torsions:
  status: ('A' for Active; 'I' for Inactive)
    1  A    between atoms: C_3  and  C_13
    2  A    between atoms: C_5  and  C_18
    3  A    between atoms: C_5  and  C_31
    4  A    between atoms: C_17  and  C_18
                            x       y       z     vdW  Elec       q    Type
                         _______ _______ _______ _____ _____    ______ ____

>  <TORSDO>
F 4

$$$$
=
 OpenBabel10262419153D

 34 38  0  0  1  0  0  0  0  0999 V2000
  184.9990  178.4320  139.6650 C   0  0  2  0  0  3  0  0  0  0  0  0
  185.9710  178.1790  142.0060 C   0  0  1  0  0  3  0  0  0  0  0  0
  187.4440  178.3530  139.8580 C   0  0  2  0  0  3  0  0  0  0  0  0
  183.6530  179.1060  141.6770 C   0  0  0  0  0  2  0  0  0  0  0  0
  189.0470  178.6500  137.6360 S   0  0  1  0  0  0  0  0  0  0  0  0
  190.7450  177.6650  135.9240 F   0  0  0  0  0  0  0  0  0  0  0  0
  185.0530  179.3710  142.2640 C   0  0  0  0  0  2  0  0  0  0  0  0
  188.4130  178.8860  142.0920 C   0  0  0  0  0  2  0  0  0  0  0  0
  189.6860  175.3560  135.6420 F   0  0  0  0  0  0  0  0  0  0  0  0
  186.1410  177.8500  140.5000 C   0  0  2  0  0  3  0  0  0  0  0  0
  187.5930  176.1560  135.7240 F   0  0  0  0  0  0  0  0  0  0  0  0
  183.6600  178.2850  140.3740 C   0  0  0  0  0  2  0  0  0  0  0  0
  187.5940  177.8260  138.4030 C   0  0  1  0  0  0  0  0  0  0  0  0
  189.3800  177.6680  136.1560 C   0  0  1  0  0  3  0  0  0  0  0  0
  185.0300  177.8220  138.2750 C   0  0  0  0  0  2  0  0  0  0  0  0
  187.2600  178.2130  142.8300 C   0  0  0  0  0  2  0  0  0  0  0  0
  188.7680  175.8420  137.7750 C   0  0  0  0  0  2  0  0  0  0  0  0
  188.8480  176.2380  136.3000 C   0  0  0  0  0  0  0  0  0  0  0  0
  187.6390  176.3970  138.4200 O   0  0  0  0  0  0  0  0  0  0  0  0
  188.5290  179.9760  137.0920 O   0  0  0  0  0  0  0  0  0  0  0  0
  188.6790  178.1940  140.7560 C   0  0  1  0  0  3  0  0  0  0  0  0
  186.3410  178.2350  137.5960 C   0  0  0  0  0  2  0  0  0  0  0  0
  189.0980  176.7360  140.9460 C   0  0  0  0  0  2  0  0  0  0  0  0
  190.5610  176.6540  141.3540 C   0  0  1  0  0  3  0  0  0  0  0  0
  191.4430  177.2500  140.2700 C   0  0  0  0  0  1  0  0  0  0  0  0
  190.8820  176.6450  143.8180 C   0  0  0  0  0  3  0  0  0  0  0  0
  190.7960  177.3280  142.6720 C   0  0  0  0  0  3  0  0  0  0  0  0
  192.4280  175.6930  146.2560 O   0  0  0  0  0  0  0  0  0  0  0  0
  191.1120  177.3460  145.1180 C   0  0  2  0  0  3  0  0  0  0  0  0
  191.3570  176.3540  146.2300 C   0  0  0  0  0  0  0  0  0  0  0  0
  189.3160  176.8900  147.3480 C   0  0  0  0  0  3  0  0  0  0  0  0
  189.0910  178.0080  146.4210 C   0  0  0  0  0  3  0  0  0  0  0  0
  189.9290  178.2330  145.4060 C   0  0  0  0  0  3  0  0  0  0  0  0
  190.3720  176.1410  147.2490 N   0  0  0  0  0  0  0  0  0  0  0  0
  1 15  1  6  0  0  0
  1 12  1  0  0  0  0
  1 10  1  0  0  0  0
  2  7  1  6  0  0  0
  2 16  1  0  0  0  0
  3 10  1  0  0  0  0
  3 21  1  0  0  0  0
  4  7  1  0  0  0  0
  5 13  1  0  0  0  0
  6 14  1  0  0  0  0
  8 16  1  0  0  0  0
  9 18  1  0  0  0  0
 10  2  1  0  0  0  0
 11 18  1  0  0  0  0
 12  4  1  0  0  0  0
 13 19  1  0  0  0  0
 13  3  1  0  0  0  0
 14 18  1  0  0  0  0
 14  5  1  0  0  0  0
 17 19  1  0  0  0  0
 18 17  1  0  0  0  0
 20  5  2  0  0  0  0
 21 23  1  0  0  0  0
 21  8  1  0  0  0  0
 22 15  1  0  0  0  0
 22 13  1  0  0  0  0
 23 24  1  0  0  0  0
 24 27  1  0  0  0  0
 25 24  1  0  0  0  0
 26 29  1  0  0  0  0
 27 26  2  0  0  0  0
 29 33  1  0  0  0  0
 29 30  1  0  0  0  0
 30 28  2  0  0  0  0
 30 34  1  0  0  0  0
 32 31  1  0  0  0  0
 33 32  2  0  0  0  0
 34 31  2  0  0  0  0
M  END
>  <MODEL>
7

>  <REMARK>
 VINA RESULT:      -6.8      3.616      7.768
  Name = 
  4 active torsions:
  status: ('A' for Active; 'I' for Inactive)
    1  A    between atoms: C_3  and  C_13
    2  A    between atoms: C_5  and  C_18
    3  A    between atoms: C_5  and  C_31
    4  A    between atoms: C_17  and  C_18
                            x       y       z     vdW  Elec       q    Type
                         _______ _______ _______ _____ _____    ______ ____

>  <TORSDO>
F 4

$$$$
=
 OpenBabel10262419153D

 34 38  0  0  1  0  0  0  0  0999 V2000
  187.3410  177.8970  146.3070 C   0  0  2  0  0  3  0  0  0  0  0  0
  185.2810  178.9330  145.2220 C   0  0  1  0  0  3  0  0  0  0  0  0
  187.0900  177.6090  143.8830 C   0  0  2  0  0  3  0  0  0  0  0  0
  185.2930  178.3870  147.6810 C   0  0  0  0  0  2  0  0  0  0  0  0
  188.9080  176.1220  142.4420 S   0  0  1  0  0  0  0  0  0  0  0  0
  190.7980  175.9710  140.6550 F   0  0  0  0  0  0  0  0  0  0  0  0
  184.5880  178.1470  146.3310 C   0  0  0  0  0  2  0  0  0  0  0  0
  184.7980  177.9010  142.9480 C   0  0  0  0  0  2  0  0  0  0  0  0
  192.0700  178.0960  141.2870 F   0  0  0  0  0  0  0  0  0  0  0  0
  186.7770  178.5610  145.0490 C   0  0  2  0  0  3  0  0  0  0  0  0
  191.7530  177.7960  143.4860 F   0  0  0  0  0  0  0  0  0  0  0  0
  186.8190  178.5670  147.5710 C   0  0  0  0  0  2  0  0  0  0  0  0
  188.6230  177.4380  143.6930 C   0  0  1  0  0  0  0  0  0  0  0  0
  190.6470  176.3120  141.9890 C   0  0  1  0  0  3  0  0  0  0  0  0
  188.8550  177.8490  146.2160 C   0  0  0  0  0  2  0  0  0  0  0  0
  184.4620  179.0170  143.9330 C   0  0  0  0  0  2  0  0  0  0  0  0
  189.9740  178.7270  142.2000 C   0  0  0  0  0  2  0  0  0  0  0  0
  191.1410  177.7390  142.2470 C   0  0  0  0  0  0  0  0  0  0  0  0
  189.2060  178.7080  143.3880 O   0  0  0  0  0  0  0  0  0  0  0  0
  188.8670  174.8070  143.2120 O   0  0  0  0  0  0  0  0  0  0  0  0
  186.2870  177.9070  142.6090 C   0  0  1  0  0  3  0  0  0  0  0  0
  189.2380  176.9600  145.0270 C   0  0  0  0  0  2  0  0  0  0  0  0
  186.7080  179.2070  141.9250 C   0  0  0  0  0  2  0  0  0  0  0  0
  186.5770  179.0790  140.4150 C   0  0  1  0  0  3  0  0  0  0  0  0
  187.6400  178.1390  139.8730 C   0  0  0  0  0  1  0  0  0  0  0  0
  184.3550  179.4070  139.3530 C   0  0  0  0  0  3  0  0  0  0  0  0
  185.2030  178.6240  140.0260 C   0  0  0  0  0  3  0  0  0  0  0  0
  181.9570  178.8990  141.1500 O   0  0  0  0  0  0  0  0  0  0  0  0
  182.9880  178.9250  138.9840 C   0  0  2  0  0  3  0  0  0  0  0  0
  182.3280  178.2290  140.1510 C   0  0  0  0  0  0  0  0  0  0  0  0
  182.3750  176.0930  139.0850 C   0  0  0  0  0  3  0  0  0  0  0  0
  182.8380  176.7160  137.8360 C   0  0  0  0  0  3  0  0  0  0  0  0
  183.1000  178.0230  137.7830 C   0  0  0  0  0  3  0  0  0  0  0  0
  182.1370  176.8090  140.1410 N   0  0  0  0  0  0  0  0  0  0  0  0
  1 15  1  6  0  0  0
  1 12  1  0  0  0  0
  2 16  1  6  0  0  0
  2  7  1  0  0  0  0
  3 10  1  0  0  0  0
  5 20  2  0  0  0  0
  5 13  1  0  0  0  0
  6 14  1  0  0  0  0
  7  4  1  0  0  0  0
  8 16  1  0  0  0  0
  9 18  1  0  0  0  0
 10  2  1  0  0  0  0
 10  1  1  0  0  0  0
 12  4  1  0  0  0  0
 13  3  1  0  0  0  0
 13 22  1  0  0  0  0
 14 18  1  0  0  0  0
 14  5  1  0  0  0  0
 17 18  1  0  0  0  0
 17 19  1  0  0  0  0
 18 11  1  0  0  0  0
 19 13  1  0  0  0  0
 21  8  1  0  0  0  0
 21  3  1  0  0  0  0
 22 15  1  0  0  0  0
 23 21  1  0  0  0  0
 24 23  1  0  0  0  0
 25 24  1  0  0  0  0
 26 27  2  0  0  0  0
 27 24  1  0  0  0  0
 29 26  1  0  0  0  0
 29 30  1  0  0  0  0
 30 28  2  0  0  0  0
 31 34  2  0  0  0  0
 32 31  1  0  0  0  0
 33 32  2  0  0  0  0
 33 29  1  0  0  0  0
 34 30  1  0  0  0  0
M  END
>  <MODEL>
8

>  <REMARK>
 VINA RESULT:      -6.8      1.595      2.543
  Name = 
  4 active torsions:
  status: ('A' for Active; 'I' for Inactive)
    1  A    between atoms: C_3  and  C_13
    2  A    between atoms: C_5  and  C_18
    3  A    between atoms: C_5  and  C_31
    4  A    between atoms: C_17  and  C_18
                            x       y       z     vdW  Elec       q    Type
                         _______ _______ _______ _____ _____    ______ ____

>  <TORSDO>
F 4

$$$$
=
 OpenBabel10262419153D

 34 38  0  0  1  0  0  0  0  0999 V2000
  182.2830  179.0160  142.8880 C   0  0  2  0  0  3  0  0  0  0  0  0
  184.7030  178.2750  142.5960 C   0  0  1  0  0  3  0  0  0  0  0  0
  183.1860  179.0210  140.6060 C   0  0  2  0  0  3  0  0  0  0  0  0
  183.8870  179.1330  144.8190 C   0  0  0  0  0  2  0  0  0  0  0  0
  181.6660  179.9090  138.4860 S   0  0  1  0  0  0  0  0  0  0  0  0
  180.3840  179.4400  136.2680 F   0  0  0  0  0  0  0  0  0  0  0  0
  184.9120  179.3250  143.6840 C   0  0  0  0  0  2  0  0  0  0  0  0
  185.6680  179.0680  140.3800 C   0  0  0  0  0  2  0  0  0  0  0  0
  179.3230  177.2080  136.9230 F   0  0  0  0  0  0  0  0  0  0  0  0
  183.2850  178.3160  141.9680 C   0  0  2  0  0  3  0  0  0  0  0  0
  178.9310  177.8580  139.0320 F   0  0  0  0  0  0  0  0  0  0  0  0
  182.5070  178.6400  144.3450 C   0  0  0  0  0  2  0  0  0  0  0  0
  181.7690  178.8560  139.9890 C   0  0  1  0  0  0  0  0  0  0  0  0
  180.1870  179.3180  137.6340 C   0  0  1  0  0  3  0  0  0  0  0  0
  180.8730  178.7500  142.3920 C   0  0  0  0  0  2  0  0  0  0  0  0
  185.8670  178.1830  141.6080 C   0  0  0  0  0  2  0  0  0  0  0  0
  181.1290  177.1360  138.4580 C   0  0  0  0  0  2  0  0  0  0  0  0
  179.8630  177.8690  138.0110 C   0  0  0  0  0  0  0  0  0  0  0  0
  181.5030  177.4660  139.7810 O   0  0  0  0  0  0  0  0  0  0  0  0
  181.2780  181.2970  138.9830 O   0  0  0  0  0  0  0  0  0  0  0  0
  184.3630  178.7210  139.6670 C   0  0  1  0  0  3  0  0  0  0  0  0
  180.7240  179.3770  141.0010 C   0  0  0  0  0  2  0  0  0  0  0  0
  184.3650  177.2830  139.1490 C   0  0  0  0  0  2  0  0  0  0  0  0
  184.9710  177.2210  137.7550 C   0  0  1  0  0  3  0  0  0  0  0  0
  184.0060  177.8040  136.7370 C   0  0  0  0  0  1  0  0  0  0  0  0
  187.4550  177.2610  137.7580 C   0  0  0  0  0  3  0  0  0  0  0  0
  186.2950  177.9220  137.7080 C   0  0  0  0  0  3  0  0  0  0  0  0
  189.6830  177.0670  135.6990 O   0  0  0  0  0  0  0  0  0  0  0  0
  188.7600  177.9890  137.7130 C   0  0  2  0  0  3  0  0  0  0  0  0
  189.7930  177.1970  136.9460 C   0  0  0  0  0  0  0  0  0  0  0  0
  191.1270  176.7930  138.8850 C   0  0  0  0  0  3  0  0  0  0  0  0
  190.2820  177.7060  139.6690 C   0  0  0  0  0  3  0  0  0  0  0  0
  189.2040  178.2750  139.1240 C   0  0  0  0  0  3  0  0  0  0  0  0
  190.8910  176.5760  137.6270 N   0  0  0  0  0  0  0  0  0  0  0  0
  1 15  1  6  0  0  0
  1 12  1  0  0  0  0
  2 16  1  6  0  0  0
  2  7  1  0  0  0  0
  3 10  1  0  0  0  0
  5 20  2  0  0  0  0
  5 13  1  0  0  0  0
  6 14  1  0  0  0  0
  7  4  1  0  0  0  0
  8 16  1  0  0  0  0
  9 18  1  0  0  0  0
 10  2  1  0  0  0  0
 10  1  1  0  0  0  0
 12  4  1  0  0  0  0
 13  3  1  0  0  0  0
 13 22  1  0  0  0  0
 14 18  1  0  0  0  0
 14  5  1  0  0  0  0
 17 19  1  0  0  0  0
 18 17  1  0  0  0  0
 18 11  1  0  0  0  0
 19 13  1  0  0  0  0
 21  8  1  0  0  0  0
 21  3  1  0  0  0  0
 22 15  1  0  0  0  0
 23 21  1  0  0  0  0
 24 23  1  0  0  0  0
 25 24  1  0  0  0  0
 27 24  1  0  0  0  0
 27 26  2  0  0  0  0
 28 30  2  0  0  0  0
 29 26  1  0  0  0  0
 29 33  1  0  0  0  0
 30 34  1  0  0  0  0
 30 29  1  0  0  0  0
 31 32  1  0  0  0  0
 33 32  2  0  0  0  0
 34 31  2  0  0  0  0
M  END
>  <MODEL>
9

>  <REMARK>
 VINA RESULT:      -6.8      5.593      8.483
  Name = 
  4 active torsions:
  status: ('A' for Active; 'I' for Inactive)
    1  A    between atoms: C_3  and  C_13
    2  A    between atoms: C_5  and  C_18
    3  A    between atoms: C_5  and  C_31
    4  A    between atoms: C_17  and  C_18
                            x       y       z     vdW  Elec       q    Type
                         _______ _______ _______ _____ _____    ______ ____

>  <TORSDO>
F 4

$$$$
