=
 OpenBabel10262421093D

 32 37  0  0  1  0  0  0  0  0999 V2000
  185.0110  177.8780  143.2450 C   0  0  2  0  0  3  0  0  0  0  0  0
  186.8130  177.3410  144.8770 C   0  0  2  0  0  3  0  0  0  0  0  0
  183.6920  178.6270  143.0780 C   0  0  0  0  0  2  0  0  0  0  0  0
  185.7750  178.3720  144.4710 C   0  0  2  0  0  3  0  0  0  0  0  0
  187.6850  177.9850  145.9210 C   0  0  0  0  0  0  0  0  0  0  0  0
  191.1200  175.2530  143.2470 C   0  0  0  0  0  2  0  0  0  0  0  0
  187.5240  176.6670  143.6730 C   0  0  1  0  0  3  0  0  0  0  0  0
  191.1520  177.0710  144.9610 C   0  0  0  0  0  2  0  0  0  0  0  0
  189.7240  177.4600  144.5930 C   0  0  2  0  0  3  0  0  0  0  0  0
  184.9320  178.7000  145.6750 C   0  0  0  0  0  0  0  0  0  0  0  0
  189.0210  178.0070  145.7990 C   0  0  0  0  0  3  0  0  0  0  0  0
  185.6320  179.1040  146.9510 C   0  0  0  0  0  2  0  0  0  0  0  0
  183.5990  178.8100  145.5830 C   0  0  0  0  0  3  0  0  0  0  0  0
  187.4170  177.5100  142.3880 C   0  0  0  0  0  2  0  0  0  0  0  0
  185.9570  177.8450  142.0110 C   0  0  2  0  0  3  0  0  0  0  0  0
  188.9580  176.2580  144.0260 C   0  0  2  0  0  3  0  0  0  0  0  0
  187.0260  178.6280  147.0370 N   0  0  0  0  0  0  0  0  0  0  0  0
  182.8450  178.4310  144.3330 C   0  0  0  0  0  2  0  0  0  0  0  0
  191.8660  176.4850  143.7470 C   0  0  0  0  0  2  0  0  0  0  0  0
  189.6960  175.6280  142.8430 C   0  0  0  0  0  2  0  0  0  0  0  0
  187.7580  178.9530  148.2560 C   0  0  0  0  0  2  0  0  0  0  0  0
  188.3050  177.6860  148.8910 C   0  0  0  0  0  1  0  0  0  0  0  0
  185.9880  179.1000  141.1200 C   0  0  2  0  0  3  0  0  0  0  0  0
  185.5800  180.2580  141.7880 O   0  0  0  0  0  1  0  0  0  0  0  0
  185.3010  178.9580  139.7520 C   0  0  2  0  0  3  0  0  0  0  0  0
  184.0720  178.0630  139.7670 C   0  0  0  0  0  1  0  0  0  0  0  0
  186.2460  178.6210  138.5870 C   0  0  2  0  0  3  0  0  0  0  0  0
  185.5440  177.8940  137.4520 C   0  0  0  0  0  1  0  0  0  0  0  0
  187.4500  177.8120  139.0460 C   0  0  0  0  0  2  0  0  0  0  0  0
  189.8790  177.8750  139.4710 C   0  0  0  0  0  2  0  0  0  0  0  0
  188.7400  178.5450  138.7300 C   0  0  0  0  0  3  0  0  0  0  0  0
  189.6690  177.6010  137.9970 C   0  0  0  0  0  2  0  0  0  0  0  0
  1  3  1  6  0  0  0
  1  4  1  0  0  0  0
  2  5  1  1  0  0  0
  3 18  1  0  0  0  0
  4  2  1  0  0  0  0
  4 10  1  1  0  0  0
  5 17  1  0  0  0  0
  6 19  1  0  0  0  0
  7 14  1  6  0  0  0
  7 16  1  0  0  0  0
  7  2  1  0  0  0  0
  9  8  1  1  0  0  0
  9 11  1  0  0  0  0
 10 12  1  0  0  0  0
 11  5  2  0  0  0  0
 12 17  1  0  0  0  0
 13 10  2  0  0  0  0
 15 23  1  1  0  0  0
 15 14  1  0  0  0  0
 15  1  1  0  0  0  0
 16 20  1  6  0  0  0
 16  9  1  0  0  0  0
 17 21  1  0  0  0  0
 18 13  1  0  0  0  0
 19  8  1  0  0  0  0
 20  6  1  0  0  0  0
 21 22  1  0  0  0  0
 23 24  1  1  0  0  0
 25 26  1  1  0  0  0
 25 23  1  0  0  0  0
 27 28  1  6  0  0  0
 27 29  1  0  0  0  0
 27 25  1  0  0  0  0
 31 29  1  0  0  0  0
 31 30  1  0  0  0  0
 32 31  1  0  0  0  0
 32 30  1  0  0  0  0
M  END
>  <MODEL>
1

>  <REMARK>
 VINA RESULT:      -8.0      0.000      0.000
  Name = 
  6 active torsions:
  status: ('A' for Active; 'I' for Inactive)
    1  A    between atoms: C_3  and  C_15
    2  A    between atoms: C_3  and  C_22
    3  A    between atoms: C_13  and  N_29
    4  A    between atoms: C_15  and  C_19
    5  A    between atoms: C_16  and  C_22
    6  A    between atoms: C_16  and  C_27
                            x       y       z     vdW  Elec       q    Type
                         _______ _______ _______ _____ _____    ______ ____

>  <TORSDO>
F 6

$$$$
=
 OpenBabel10262421093D

 32 37  0  0  1  0  0  0  0  0999 V2000
  185.6660  178.9390  142.5080 C   0  0  2  0  0  3  0  0  0  0  0  0
  184.4860  178.7530  140.3240 C   0  0  2  0  0  3  0  0  0  0  0  0
  185.4590  178.9030  144.0200 C   0  0  0  0  0  2  0  0  0  0  0  0
  184.4870  178.3050  141.7740 C   0  0  2  0  0  3  0  0  0  0  0  0
  183.4630  177.9130  139.6070 C   0  0  0  0  0  0  0  0  0  0  0  0
  187.1720  178.2730  136.0670 C   0  0  0  0  0  2  0  0  0  0  0  0
  185.9040  178.8360  139.6980 C   0  0  1  0  0  3  0  0  0  0  0  0
  185.1110  176.9090  136.4360 C   0  0  0  0  0  2  0  0  0  0  0  0
  185.1640  177.2100  137.9300 C   0  0  2  0  0  3  0  0  0  0  0  0
  183.1280  178.5860  142.3600 C   0  0  0  0  0  0  0  0  0  0  0  0
  183.7740  177.2350  138.4920 C   0  0  0  0  0  3  0  0  0  0  0  0
  181.9120  178.0680  141.6310 C   0  0  0  0  0  2  0  0  0  0  0  0
  182.9930  179.1200  143.5830 C   0  0  0  0  0  3  0  0  0  0  0  0
  186.9310  177.9870  140.4720 C   0  0  0  0  0  2  0  0  0  0  0  0
  187.0010  178.3490  141.9720 C   0  0  2  0  0  3  0  0  0  0  0  0
  185.8710  178.5450  138.1940 C   0  0  2  0  0  3  0  0  0  0  0  0
  182.1450  177.8200  140.1940 N   0  0  0  0  0  0  0  0  0  0  0  0
  184.1700  179.6460  144.3650 C   0  0  0  0  0  2  0  0  0  0  0  0
  186.5200  176.9130  135.8490 C   0  0  0  0  0  2  0  0  0  0  0  0
  187.2630  178.5800  137.5600 C   0  0  0  0  0  2  0  0  0  0  0  0
  181.0070  177.3480  139.4150 C   0  0  0  0  0  2  0  0  0  0  0  0
  180.6060  175.9540  139.8660 C   0  0  0  0  0  1  0  0  0  0  0  0
  187.5750  177.1300  142.7140 C   0  0  2  0  0  3  0  0  0  0  0  0
  186.8220  176.7630  143.8330 O   0  0  0  0  0  1  0  0  0  0  0  0
  189.0770  177.1950  143.0340 C   0  0  2  0  0  3  0  0  0  0  0  0
  189.7440  175.8340  143.1510 C   0  0  0  0  0  1  0  0  0  0  0  0
  189.4480  178.1220  144.2040 C   0  0  2  0  0  3  0  0  0  0  0  0
  190.7040  178.9350  143.9340 C   0  0  0  0  0  1  0  0  0  0  0  0
  189.6040  177.3560  145.5100 C   0  0  0  0  0  2  0  0  0  0  0  0
  188.3600  176.7630  147.5550 C   0  0  0  0  0  2  0  0  0  0  0  0
  188.6240  177.8650  146.5500 C   0  0  0  0  0  3  0  0  0  0  0  0
  189.3120  177.8890  147.8970 C   0  0  0  0  0  2  0  0  0  0  0  0
  1  3  1  1  0  0  0
  2  5  1  6  0  0  0
  2  4  1  0  0  0  0
  3 18  1  0  0  0  0
  4 10  1  1  0  0  0
  4  1  1  0  0  0  0
  5 17  1  0  0  0  0
  6 20  1  0  0  0  0
  7  2  1  0  0  0  0
  7 14  1  1  0  0  0
  9  8  1  6  0  0  0
  9 16  1  0  0  0  0
  9 11  1  0  0  0  0
 10 13  2  0  0  0  0
 11  5  2  0  0  0  0
 12 10  1  0  0  0  0
 13 18  1  0  0  0  0
 14 15  1  0  0  0  0
 15  1  1  0  0  0  0
 15 23  1  1  0  0  0
 16 20  1  1  0  0  0
 16  7  1  0  0  0  0
 17 12  1  0  0  0  0
 19  6  1  0  0  0  0
 19  8  1  0  0  0  0
 21 22  1  0  0  0  0
 21 17  1  0  0  0  0
 23 25  1  0  0  0  0
 23 24  1  1  0  0  0
 25 26  1  1  0  0  0
 25 27  1  0  0  0  0
 27 28  1  6  0  0  0
 27 29  1  0  0  0  0
 29 31  1  0  0  0  0
 30 32  1  0  0  0  0
 31 30  1  0  0  0  0
 31 32  1  0  0  0  0
M  END
>  <MODEL>
2

>  <REMARK>
 VINA RESULT:      -7.8      2.272      6.941
  Name = 
  6 active torsions:
  status: ('A' for Active; 'I' for Inactive)
    1  A    between atoms: C_3  and  C_15
    2  A    between atoms: C_3  and  C_22
    3  A    between atoms: C_13  and  N_29
    4  A    between atoms: C_15  and  C_19
    5  A    between atoms: C_16  and  C_22
    6  A    between atoms: C_16  and  C_27
                            x       y       z     vdW  Elec       q    Type
                         _______ _______ _______ _____ _____    ______ ____

>  <TORSDO>
F 6

$$$$
=
 OpenBabel10262421093D

 32 37  0  0  1  0  0  0  0  0999 V2000
  185.7210  178.6430  138.8820 C   0  0  2  0  0  3  0  0  0  0  0  0
  187.0940  178.6110  140.9580 C   0  0  2  0  0  3  0  0  0  0  0  0
  185.7450  178.3180  137.3910 C   0  0  0  0  0  2  0  0  0  0  0  0
  186.8540  177.9350  139.6200 C   0  0  2  0  0  3  0  0  0  0  0  0
  188.0370  177.7280  141.7310 C   0  0  0  0  0  0  0  0  0  0  0  0
  184.8680  179.3500  145.4370 C   0  0  0  0  0  2  0  0  0  0  0  0
  185.7900  179.0560  141.6730 C   0  0  1  0  0  3  0  0  0  0  0  0
  186.6170  177.5880  145.1580 C   0  0  0  0  0  2  0  0  0  0  0  0
  186.4450  177.6410  143.6430 C   0  0  2  0  0  3  0  0  0  0  0  0
  188.1640  177.8590  138.8820 C   0  0  0  0  0  0  0  0  0  0  0  0
  187.7470  177.3150  142.9740 C   0  0  0  0  0  3  0  0  0  0  0  0
  189.3520  177.2550  139.5930 C   0  0  0  0  0  2  0  0  0  0  0  0
  188.2460  178.1470  137.5750 C   0  0  0  0  0  3  0  0  0  0  0  0
  184.5550  178.2940  141.1560 C   0  0  0  0  0  2  0  0  0  0  0  0
  184.3760  178.4070  139.6260 C   0  0  2  0  0  3  0  0  0  0  0  0
  185.9450  179.0200  143.1970 C   0  0  2  0  0  3  0  0  0  0  0  0
  189.2460  177.2980  141.0640 N   0  0  0  0  0  0  0  0  0  0  0  0
  187.0920  178.7430  136.8090 C   0  0  0  0  0  2  0  0  0  0  0  0
  185.3050  177.9490  145.8480 C   0  0  0  0  0  2  0  0  0  0  0  0
  184.6600  179.4160  143.9260 C   0  0  0  0  0  2  0  0  0  0  0  0
  190.3710  176.7610  141.8200 C   0  0  0  0  0  2  0  0  0  0  0  0
  191.6630  177.4240  141.3770 C   0  0  0  0  0  1  0  0  0  0  0  0
  183.5260  177.2080  139.1710 C   0  0  2  0  0  3  0  0  0  0  0  0
  184.0740  176.5290  138.0790 O   0  0  0  0  0  1  0  0  0  0  0  0
  182.0280  177.4940  138.9730 C   0  0  2  0  0  3  0  0  0  0  0  0
  181.7360  178.8450  138.3410 C   0  0  0  0  0  1  0  0  0  0  0  0
  181.1520  177.2330  140.2100 C   0  0  2  0  0  3  0  0  0  0  0  0
  180.0000  176.2840  139.9240 C   0  0  0  0  0  1  0  0  0  0  0  0
  180.6160  178.5240  140.8100 C   0  0  0  0  0  2  0  0  0  0  0  0
  180.3760  179.8350  142.8860 C   0  0  0  0  0  2  0  0  0  0  0  0
  181.1650  178.7330  142.2090 C   0  0  0  0  0  3  0  0  0  0  0  0
  180.0870  178.3850  143.2120 C   0  0  0  0  0  2  0  0  0  0  0  0
  1  3  1  6  0  0  0
  1  4  1  0  0  0  0
  1 15  1  0  0  0  0
  2  7  1  0  0  0  0
  2  5  1  1  0  0  0
  4 10  1  6  0  0  0
  4  2  1  0  0  0  0
  5 11  2  0  0  0  0
  6 19  1  0  0  0  0
  7 14  1  1  0  0  0
  7 16  1  0  0  0  0
  8 19  1  0  0  0  0
  9 11  1  6  0  0  0
  9  8  1  0  0  0  0
 10 12  1  0  0  0  0
 12 17  1  0  0  0  0
 13 10  2  0  0  0  0
 15 23  1  6  0  0  0
 15 14  1  0  0  0  0
 16  9  1  0  0  0  0
 16 20  1  1  0  0  0
 17  5  1  0  0  0  0
 17 21  1  0  0  0  0
 18  3  1  0  0  0  0
 18 13  1  0  0  0  0
 20  6  1  0  0  0  0
 22 21  1  0  0  0  0
 23 24  1  6  0  0  0
 25 26  1  1  0  0  0
 25 23  1  0  0  0  0
 25 27  1  0  0  0  0
 27 28  1  6  0  0  0
 27 29  1  0  0  0  0
 29 31  1  0  0  0  0
 30 32  1  0  0  0  0
 31 30  1  0  0  0  0
 31 32  1  0  0  0  0
M  END
>  <MODEL>
3

>  <REMARK>
 VINA RESULT:      -7.8      2.409      6.355
  Name = 
  6 active torsions:
  status: ('A' for Active; 'I' for Inactive)
    1  A    between atoms: C_3  and  C_15
    2  A    between atoms: C_3  and  C_22
    3  A    between atoms: C_13  and  N_29
    4  A    between atoms: C_15  and  C_19
    5  A    between atoms: C_16  and  C_22
    6  A    between atoms: C_16  and  C_27
                            x       y       z     vdW  Elec       q    Type
                         _______ _______ _______ _____ _____    ______ ____

>  <TORSDO>
F 6

$$$$
=
 OpenBabel10262421093D

 32 37  0  0  1  0  0  0  0  0999 V2000
  187.9480  177.8750  138.6740 C   0  0  2  0  0  3  0  0  0  0  0  0
  189.1290  176.3580  137.0910 C   0  0  2  0  0  3  0  0  0  0  0  0
  186.5670  178.3050  139.1600 C   0  0  0  0  0  2  0  0  0  0  0  0
  187.8850  176.5360  137.9440 C   0  0  2  0  0  3  0  0  0  0  0  0
  189.1230  174.9360  136.6000 C   0  0  0  0  0  0  0  0  0  0  0  0
  194.1220  175.6900  137.5270 C   0  0  0  0  0  2  0  0  0  0  0  0
  190.4260  176.8710  137.7710 C   0  0  1  0  0  3  0  0  0  0  0  0
  192.6110  173.7540  137.0680 C   0  0  0  0  0  2  0  0  0  0  0  0
  191.4060  174.5700  137.5240 C   0  0  2  0  0  3  0  0  0  0  0  0
  186.6760  176.3270  137.0710 C   0  0  0  0  0  0  0  0  0  0  0  0
  190.1840  174.1320  136.7740 C   0  0  0  0  0  3  0  0  0  0  0  0
  186.5960  175.0640  136.2470 C   0  0  0  0  0  2  0  0  0  0  0  0
  185.6110  177.1390  137.1480 C   0  0  0  0  0  3  0  0  0  0  0  0
  190.2810  176.9700  139.3020 C   0  0  0  0  0  2  0  0  0  0  0  0
  189.0840  177.8450  139.7360 C   0  0  2  0  0  3  0  0  0  0  0  0
  191.6520  176.0700  137.3180 C   0  0  2  0  0  3  0  0  0  0  0  0
  187.9110  174.4480  135.9800 N   0  0  0  0  0  0  0  0  0  0  0  0
  185.6260  178.4090  137.9610 C   0  0  0  0  0  2  0  0  0  0  0  0
  193.8660  174.2130  137.8040 C   0  0  0  0  0  2  0  0  0  0  0  0
  192.9390  176.5290  138.0050 C   0  0  0  0  0  2  0  0  0  0  0  0
  187.9180  173.2410  135.1630 C   0  0  0  0  0  2  0  0  0  0  0  0
  187.1980  172.1160  135.8860 C   0  0  0  0  0  1  0  0  0  0  0  0
  188.6960  177.4200  141.1630 C   0  0  2  0  0  3  0  0  0  0  0  0
  187.6190  178.1470  141.6790 O   0  0  0  0  0  1  0  0  0  0  0  0
  189.8570  177.3310  142.1670 C   0  0  2  0  0  3  0  0  0  0  0  0
  190.2730  175.9090  142.5050 C   0  0  0  0  0  1  0  0  0  0  0  0
  189.6900  178.1980  143.4250 C   0  0  2  0  0  3  0  0  0  0  0  0
  190.9730  178.9090  143.8230 C   0  0  0  0  0  1  0  0  0  0  0  0
  189.1620  177.3950  144.6050 C   0  0  0  0  0  2  0  0  0  0  0  0
  188.8600  177.3790  147.0530 C   0  0  0  0  0  2  0  0  0  0  0  0
  189.6650  177.9730  145.9150 C   0  0  0  0  0  3  0  0  0  0  0  0
  190.2470  176.8530  146.7490 C   0  0  0  0  0  2  0  0  0  0  0  0
  1  3  1  1  0  0  0
  1 15  1  0  0  0  0
  2  5  1  1  0  0  0
  2  7  1  0  0  0  0
  2  4  1  0  0  0  0
  4 10  1  6  0  0  0
  4  1  1  0  0  0  0
  5 11  2  0  0  0  0
  6 19  1  0  0  0  0
  6 20  1  0  0  0  0
  7 14  1  1  0  0  0
  8  9  1  0  0  0  0
  8 19  1  0  0  0  0
  9 11  1  6  0  0  0
 10 13  2  0  0  0  0
 12 10  1  0  0  0  0
 13 18  1  0  0  0  0
 14 15  1  0  0  0  0
 15 23  1  1  0  0  0
 16  9  1  0  0  0  0
 16  7  1  0  0  0  0
 16 20  1  1  0  0  0
 17 12  1  0  0  0  0
 17  5  1  0  0  0  0
 18  3  1  0  0  0  0
 21 22  1  0  0  0  0
 21 17  1  0  0  0  0
 23 24  1  1  0  0  0
 23 25  1  0  0  0  0
 25 26  1  1  0  0  0
 25 27  1  0  0  0  0
 27 28  1  1  0  0  0
 27 29  1  0  0  0  0
 29 31  1  0  0  0  0
 31 32  1  0  0  0  0
 31 30  1  0  0  0  0
 32 30  1  0  0  0  0
M  END
>  <MODEL>
4

>  <REMARK>
 VINA RESULT:      -7.7      3.509      8.039
  Name = 
  6 active torsions:
  status: ('A' for Active; 'I' for Inactive)
    1  A    between atoms: C_3  and  C_15
    2  A    between atoms: C_3  and  C_22
    3  A    between atoms: C_13  and  N_29
    4  A    between atoms: C_15  and  C_19
    5  A    between atoms: C_16  and  C_22
    6  A    between atoms: C_16  and  C_27
                            x       y       z     vdW  Elec       q    Type
                         _______ _______ _______ _____ _____    ______ ____

>  <TORSDO>
F 6

$$$$
=
 OpenBabel10262421093D

 32 37  0  0  1  0  0  0  0  0999 V2000
  184.8820  177.8740  143.0490 C   0  0  2  0  0  3  0  0  0  0  0  0
  186.6600  177.3750  144.7200 C   0  0  2  0  0  3  0  0  0  0  0  0
  183.5550  178.6000  142.8510 C   0  0  0  0  0  2  0  0  0  0  0  0
  185.6140  178.3870  144.2870 C   0  0  2  0  0  3  0  0  0  0  0  0
  187.5000  178.0390  145.7770 C   0  0  0  0  0  0  0  0  0  0  0  0
  191.0310  175.3490  143.1870 C   0  0  0  0  0  2  0  0  0  0  0  0
  187.4050  176.7060  143.5340 C   0  0  1  0  0  3  0  0  0  0  0  0
  191.0000  177.1760  144.8910 C   0  0  0  0  0  2  0  0  0  0  0  0
  189.5740  177.5410  144.4920 C   0  0  2  0  0  3  0  0  0  0  0  0
  184.7420  178.7080  145.4720 C   0  0  0  0  0  0  0  0  0  0  0  0
  188.8380  178.0820  145.6810 C   0  0  0  0  0  3  0  0  0  0  0  0
  185.4090  179.1310  146.7590 C   0  0  0  0  0  2  0  0  0  0  0  0
  183.4090  178.7960  145.3540 C   0  0  0  0  0  3  0  0  0  0  0  0
  187.3100  177.5400  142.2420 C   0  0  0  0  0  2  0  0  0  0  0  0
  185.8530  177.8500  141.8340 C   0  0  2  0  0  3  0  0  0  0  0  0
  188.8390  176.3230  143.9180 C   0  0  2  0  0  3  0  0  0  0  0  0
  186.8100  178.6780  146.8750 N   0  0  0  0  0  0  0  0  0  0  0  0
  182.6860  178.3980  144.0910 C   0  0  0  0  0  2  0  0  0  0  0  0
  191.7470  176.5950  143.6950 C   0  0  0  0  0  2  0  0  0  0  0  0
  189.6100  175.6990  142.7530 C   0  0  0  0  0  2  0  0  0  0  0  0
  187.5110  179.0210  148.1070 C   0  0  0  0  0  2  0  0  0  0  0  0
  187.9790  177.7600  148.8110 C   0  0  0  0  0  1  0  0  0  0  0  0
  185.8810  179.0990  140.9370 C   0  0  2  0  0  3  0  0  0  0  0  0
  185.5870  180.2790  141.6270 O   0  0  0  0  0  1  0  0  0  0  0  0
  185.0860  178.9920  139.6250 C   0  0  2  0  0  3  0  0  0  0  0  0
  183.9400  179.9860  139.5150 C   0  0  0  0  0  1  0  0  0  0  0  0
  184.6510  177.5660  139.2490 C   0  0  2  0  0  3  0  0  0  0  0  0
  185.0340  177.1910  137.8270 C   0  0  0  0  0  1  0  0  0  0  0  0
  183.1580  177.3540  139.4510 C   0  0  0  0  0  2  0  0  0  0  0  0
  181.3750  175.6620  139.6560 C   0  0  0  0  0  2  0  0  0  0  0  0
  182.7710  175.9220  139.1310 C   0  0  0  0  0  3  0  0  0  0  0  0
  181.5910  175.9360  138.1830 C   0  0  0  0  0  2  0  0  0  0  0  0
  1  3  1  6  0  0  0
  1  4  1  0  0  0  0
  2  5  1  1  0  0  0
  3 18  1  0  0  0  0
  4  2  1  0  0  0  0
  4 10  1  1  0  0  0
  5 17  1  0  0  0  0
  6 19  1  0  0  0  0
  7 14  1  6  0  0  0
  7 16  1  0  0  0  0
  7  2  1  0  0  0  0
  9  8  1  1  0  0  0
  9 11  1  0  0  0  0
 10 12  1  0  0  0  0
 11  5  2  0  0  0  0
 12 17  1  0  0  0  0
 13 10  2  0  0  0  0
 15 23  1  1  0  0  0
 15 14  1  0  0  0  0
 15  1  1  0  0  0  0
 16 20  1  6  0  0  0
 16  9  1  0  0  0  0
 17 21  1  0  0  0  0
 18 13  1  0  0  0  0
 19  8  1  0  0  0  0
 20  6  1  0  0  0  0
 21 22  1  0  0  0  0
 23 24  1  1  0  0  0
 25 26  1  1  0  0  0
 25 23  1  0  0  0  0
 27 28  1  6  0  0  0
 27 29  1  0  0  0  0
 27 25  1  0  0  0  0
 31 29  1  0  0  0  0
 31 30  1  0  0  0  0
 32 31  1  0  0  0  0
 32 30  1  0  0  0  0
M  END
>  <MODEL>
5

>  <REMARK>
 VINA RESULT:      -7.5      1.397      2.604
  Name = 
  6 active torsions:
  status: ('A' for Active; 'I' for Inactive)
    1  A    between atoms: C_3  and  C_15
    2  A    between atoms: C_3  and  C_22
    3  A    between atoms: C_13  and  N_29
    4  A    between atoms: C_15  and  C_19
    5  A    between atoms: C_16  and  C_22
    6  A    between atoms: C_16  and  C_27
                            x       y       z     vdW  Elec       q    Type
                         _______ _______ _______ _____ _____    ______ ____

>  <TORSDO>
F 6

$$$$
=
 OpenBabel10262421093D

 32 37  0  0  1  0  0  0  0  0999 V2000
  187.9840  178.3930  141.4890 C   0  0  2  0  0  3  0  0  0  0  0  0
  188.5200  177.9020  139.1080 C   0  0  2  0  0  3  0  0  0  0  0  0
  186.8350  178.6620  142.4570 C   0  0  0  0  0  2  0  0  0  0  0  0
  187.4830  177.7380  140.2050 C   0  0  2  0  0  3  0  0  0  0  0  0
  188.0820  177.0340  137.9580 C   0  0  0  0  0  0  0  0  0  0  0  0
  193.1810  176.3920  137.8570 C   0  0  0  0  0  2  0  0  0  0  0  0
  189.9810  177.7400  139.6060 C   0  0  1  0  0  3  0  0  0  0  0  0
  191.1720  175.3090  136.8390 C   0  0  0  0  0  2  0  0  0  0  0  0
  190.2890  175.8810  137.9430 C   0  0  2  0  0  3  0  0  0  0  0  0
  186.1610  178.2420  139.6890 C   0  0  0  0  0  0  0  0  0  0  0  0
  188.9110  176.1330  137.4090 C   0  0  0  0  0  3  0  0  0  0  0  0
  185.6520  177.7040  138.3730 C   0  0  0  0  0  2  0  0  0  0  0  0
  185.3630  179.0080  140.4480 C   0  0  0  0  0  3  0  0  0  0  0  0
  190.0610  176.9660  140.9350 C   0  0  0  0  0  2  0  0  0  0  0  0
  189.1970  177.5980  142.0500 C   0  0  2  0  0  3  0  0  0  0  0  0
  190.8890  177.1750  138.5070 C   0  0  2  0  0  3  0  0  0  0  0  0
  186.7170  177.1700  137.5020 N   0  0  0  0  0  0  0  0  0  0  0  0
  185.8100  179.5670  141.7750 C   0  0  0  0  0  2  0  0  0  0  0  0
  192.5860  175.0780  137.3650 C   0  0  0  0  0  2  0  0  0  0  0  0
  192.3270  176.9670  138.9850 C   0  0  0  0  0  2  0  0  0  0  0  0
  186.3060  176.6610  136.1990 C   0  0  0  0  0  2  0  0  0  0  0  0
  185.3940  175.4590  136.3700 C   0  0  0  0  0  1  0  0  0  0  0  0
  188.8950  176.4950  143.0800 C   0  0  2  0  0  3  0  0  0  0  0  0
  187.5520  176.1060  143.0900 O   0  0  0  0  0  1  0  0  0  0  0  0
  189.4260  176.7500  144.4990 C   0  0  2  0  0  3  0  0  0  0  0  0
  188.7180  177.8790  145.2300 C   0  0  0  0  0  1  0  0  0  0  0  0
  190.9560  176.8640  144.6050 C   0  0  2  0  0  3  0  0  0  0  0  0
  191.6780  175.6800  143.9850 C   0  0  0  0  0  1  0  0  0  0  0  0
  191.4150  177.0480  146.0440 C   0  0  0  0  0  2  0  0  0  0  0  0
  192.5030  176.0080  147.9980 C   0  0  0  0  0  2  0  0  0  0  0  0
  192.0610  175.7790  146.5670 C   0  0  0  0  0  3  0  0  0  0  0  0
  191.2270  175.2450  147.7120 C   0  0  0  0  0  2  0  0  0  0  0  0
  1 15  1  0  0  0  0
  1  3  1  1  0  0  0
  2  5  1  6  0  0  0
  2  7  1  0  0  0  0
  2  4  1  0  0  0  0
  4 10  1  6  0  0  0
  4  1  1  0  0  0  0
  6 20  1  0  0  0  0
  7 14  1  1  0  0  0
  8 19  1  0  0  0  0
  9  8  1  6  0  0  0
  9 16  1  0  0  0  0
 10 13  2  0  0  0  0
 11  9  1  0  0  0  0
 11  5  2  0  0  0  0
 12 10  1  0  0  0  0
 13 18  1  0  0  0  0
 14 15  1  0  0  0  0
 15 23  1  1  0  0  0
 16 20  1  1  0  0  0
 16  7  1  0  0  0  0
 17  5  1  0  0  0  0
 17 12  1  0  0  0  0
 18  3  1  0  0  0  0
 19  6  1  0  0  0  0
 21 22  1  0  0  0  0
 21 17  1  0  0  0  0
 23 24  1  1  0  0  0
 23 25  1  0  0  0  0
 25 27  1  0  0  0  0
 25 26  1  6  0  0  0
 27 28  1  1  0  0  0
 27 29  1  0  0  0  0
 29 31  1  0  0  0  0
 31 32  1  0  0  0  0
 31 30  1  0  0  0  0
 32 30  1  0  0  0  0
M  END
>  <MODEL>
6

>  <REMARK>
 VINA RESULT:      -7.5      2.787      7.301
  Name = 
  6 active torsions:
  status: ('A' for Active; 'I' for Inactive)
    1  A    between atoms: C_3  and  C_15
    2  A    between atoms: C_3  and  C_22
    3  A    between atoms: C_13  and  N_29
    4  A    between atoms: C_15  and  C_19
    5  A    between atoms: C_16  and  C_22
    6  A    between atoms: C_16  and  C_27
                            x       y       z     vdW  Elec       q    Type
                         _______ _______ _______ _____ _____    ______ ____

>  <TORSDO>
F 6

$$$$
=
 OpenBabel10262421093D

 32 37  0  0  1  0  0  0  0  0999 V2000
  188.3250  178.3530  140.6610 C   0  0  2  0  0  3  0  0  0  0  0  0
  188.9140  177.3740  138.4480 C   0  0  2  0  0  3  0  0  0  0  0  0
  187.1510  178.7410  141.5560 C   0  0  0  0  0  2  0  0  0  0  0  0
  187.8880  177.3820  139.5670 C   0  0  2  0  0  3  0  0  0  0  0  0
  188.5570  176.2340  137.5340 C   0  0  0  0  0  0  0  0  0  0  0  0
  193.6920  176.0070  137.5150 C   0  0  0  0  0  2  0  0  0  0  0  0
  190.3810  177.4520  138.9500 C   0  0  1  0  0  3  0  0  0  0  0  0
  191.7870  174.5580  136.7980 C   0  0  0  0  0  2  0  0  0  0  0  0
  190.8520  175.2930  137.7530 C   0  0  2  0  0  3  0  0  0  0  0  0
  186.5310  177.6440  138.9670 C   0  0  0  0  0  0  0  0  0  0  0  0
  189.4610  175.3010  137.1940 C   0  0  0  0  0  3  0  0  0  0  0  0
  186.0770  176.7780  137.8160 C   0  0  0  0  0  2  0  0  0  0  0  0
  185.6680  178.4940  139.5410 C   0  0  0  0  0  3  0  0  0  0  0  0
  190.5160  177.0130  140.4210 C   0  0  0  0  0  2  0  0  0  0  0  0
  189.5960  177.8100  141.3720 C   0  0  2  0  0  3  0  0  0  0  0  0
  191.3380  176.7270  137.9990 C   0  0  2  0  0  3  0  0  0  0  0  0
  187.1880  176.1480  137.0760 N   0  0  0  0  0  0  0  0  0  0  0  0
  186.0590  179.3780  140.6990 C   0  0  0  0  0  2  0  0  0  0  0  0
  193.2110  174.5710  137.3440 C   0  0  0  0  0  2  0  0  0  0  0  0
  192.7860  176.7530  138.4920 C   0  0  0  0  0  2  0  0  0  0  0  0
  186.8290  175.3210  135.9300 C   0  0  0  0  0  2  0  0  0  0  0  0
  186.9910  176.1120  134.6440 C   0  0  0  0  0  1  0  0  0  0  0  0
  189.3810  176.9520  142.6310 C   0  0  2  0  0  3  0  0  0  0  0  0
  188.3050  176.0660  142.5150 O   0  0  0  0  0  1  0  0  0  0  0  0
  189.3440  177.7230  143.9610 C   0  0  2  0  0  3  0  0  0  0  0  0
  190.7180  178.0470  144.5250 C   0  0  0  0  0  1  0  0  0  0  0  0
  188.4090  177.1280  145.0260 C   0  0  2  0  0  3  0  0  0  0  0  0
  187.0670  177.8380  145.0930 C   0  0  0  0  0  1  0  0  0  0  0  0
  189.0510  177.1150  146.4050 C   0  0  0  0  0  2  0  0  0  0  0  0
  187.9300  177.4340  148.5790 C   0  0  0  0  0  2  0  0  0  0  0  0
  188.3880  178.1320  147.3150 C   0  0  0  0  0  3  0  0  0  0  0  0
  189.2030  178.2540  148.5850 C   0  0  0  0  0  2  0  0  0  0  0  0
  1 15  1  0  0  0  0
  1  3  1  1  0  0  0
  2  5  1  1  0  0  0
  2  7  1  0  0  0  0
  2  4  1  0  0  0  0
  4 10  1  6  0  0  0
  4  1  1  0  0  0  0
  6 20  1  0  0  0  0
  7 14  1  1  0  0  0
  8 19  1  0  0  0  0
  9  8  1  6  0  0  0
  9 16  1  0  0  0  0
 10 13  2  0  0  0  0
 11  5  2  0  0  0  0
 11  9  1  0  0  0  0
 12 10  1  0  0  0  0
 13 18  1  0  0  0  0
 14 15  1  0  0  0  0
 15 23  1  1  0  0  0
 16 20  1  1  0  0  0
 16  7  1  0  0  0  0
 17  5  1  0  0  0  0
 17 12  1  0  0  0  0
 18  3  1  0  0  0  0
 19  6  1  0  0  0  0
 21 17  1  0  0  0  0
 22 21  1  0  0  0  0
 23 24  1  6  0  0  0
 23 25  1  0  0  0  0
 25 26  1  1  0  0  0
 25 27  1  0  0  0  0
 27 28  1  1  0  0  0
 27 29  1  0  0  0  0
 29 31  1  0  0  0  0
 30 32  1  0  0  0  0
 31 30  1  0  0  0  0
 31 32  1  0  0  0  0
M  END
>  <MODEL>
7

>  <REMARK>
 VINA RESULT:      -7.3      2.895      7.653
  Name = 
  6 active torsions:
  status: ('A' for Active; 'I' for Inactive)
    1  A    between atoms: C_3  and  C_15
    2  A    between atoms: C_3  and  C_22
    3  A    between atoms: C_13  and  N_29
    4  A    between atoms: C_15  and  C_19
    5  A    between atoms: C_16  and  C_22
    6  A    between atoms: C_16  and  C_27
                            x       y       z     vdW  Elec       q    Type
                         _______ _______ _______ _____ _____    ______ ____

>  <TORSDO>
F 6

$$$$
=
 OpenBabel10262421093D

 32 37  0  0  1  0  0  0  0  0999 V2000
  180.3140  178.0420  141.1250 C   0  0  2  0  0  3  0  0  0  0  0  0
  182.7530  177.6570  140.7980 C   0  0  2  0  0  3  0  0  0  0  0  0
  179.2840  178.6350  142.0820 C   0  0  0  0  0  2  0  0  0  0  0  0
  181.7140  178.5740  141.4200 C   0  0  2  0  0  3  0  0  0  0  0  0
  184.0790  178.3580  140.9110 C   0  0  0  0  0  0  0  0  0  0  0  0
  184.4620  176.1610  136.2800 C   0  0  0  0  0  2  0  0  0  0  0  0
  182.3480  177.1210  139.3990 C   0  0  1  0  0  3  0  0  0  0  0  0
  185.6830  177.9000  137.5950 C   0  0  0  0  0  2  0  0  0  0  0  0
  184.4480  178.1320  138.4590 C   0  0  2  0  0  3  0  0  0  0  0  0
  182.0490  178.7510  142.8780 C   0  0  0  0  0  0  0  0  0  0  0  0
  184.8650  178.5430  139.8390 C   0  0  0  0  0  3  0  0  0  0  0  0
  183.4480  179.1840  143.2440 C   0  0  0  0  0  2  0  0  0  0  0  0
  181.0970  178.7070  143.8220 C   0  0  0  0  0  3  0  0  0  0  0  0
  181.2710  177.9960  138.7290 C   0  0  0  0  0  2  0  0  0  0  0  0
  180.0100  178.1700  139.6050 C   0  0  2  0  0  3  0  0  0  0  0  0
  183.5770  176.8720  138.5170 C   0  0  2  0  0  3  0  0  0  0  0  0
  184.4530  178.8740  142.2090 N   0  0  0  0  0  0  0  0  0  0  0  0
  179.6800  178.2910  143.5170 C   0  0  0  0  0  2  0  0  0  0  0  0
  185.2690  177.4520  136.1970 C   0  0  0  0  0  2  0  0  0  0  0  0
  183.2030  176.3810  137.1170 C   0  0  0  0  0  2  0  0  0  0  0  0
  185.8350  179.2340  142.5050 C   0  0  0  0  0  2  0  0  0  0  0  0
  186.4350  178.2440  143.4880 C   0  0  0  0  0  1  0  0  0  0  0  0
  179.3000  179.4540  139.1400 C   0  0  2  0  0  3  0  0  0  0  0  0
  178.9310  179.4200  137.7920 O   0  0  0  0  0  1  0  0  0  0  0  0
  180.0050  180.7710  139.5050 C   0  0  2  0  0  3  0  0  0  0  0  0
  179.0980  181.7930  140.1710 C   0  0  0  0  0  1  0  0  0  0  0  0
  180.8400  181.3920  138.3730 C   0  0  2  0  0  3  0  0  0  0  0  0
  182.3190  181.4790  138.7130 C   0  0  0  0  0  1  0  0  0  0  0  0
  180.3240  182.7660  137.9720 C   0  0  0  0  0  2  0  0  0  0  0  0
  181.1740  184.1210  136.0950 C   0  0  0  0  0  2  0  0  0  0  0  0
  181.4640  183.6520  137.5060 C   0  0  0  0  0  3  0  0  0  0  0  0
  180.9300  185.0480  137.2680 C   0  0  0  0  0  2  0  0  0  0  0  0
  1  4  1  0  0  0  0
  1  3  1  1  0  0  0
  2  5  1  6  0  0  0
  2  4  1  0  0  0  0
  3 18  1  0  0  0  0
  4 10  1  1  0  0  0
  5 17  1  0  0  0  0
  6 20  1  0  0  0  0
  7 14  1  6  0  0  0
  7  2  1  0  0  0  0
  9  8  1  6  0  0  0
  9 16  1  0  0  0  0
  9 11  1  0  0  0  0
 10 12  1  0  0  0  0
 10 13  2  0  0  0  0
 11  5  2  0  0  0  0
 14 15  1  0  0  0  0
 15 23  1  1  0  0  0
 15  1  1  0  0  0  0
 16 20  1  6  0  0  0
 16  7  1  0  0  0  0
 17 21  1  0  0  0  0
 17 12  1  0  0  0  0
 18 13  1  0  0  0  0
 19  6  1  0  0  0  0
 19  8  1  0  0  0  0
 21 22  1  0  0  0  0
 23 24  1  6  0  0  0
 23 25  1  0  0  0  0
 25 26  1  6  0  0  0
 27 28  1  1  0  0  0
 27 25  1  0  0  0  0
 29 27  1  0  0  0  0
 30 32  1  0  0  0  0
 30 31  1  0  0  0  0
 31 29  1  0  0  0  0
 32 31  1  0  0  0  0
M  END
>  <MODEL>
8

>  <REMARK>
 VINA RESULT:      -7.3      4.085      7.133
  Name = 
  6 active torsions:
  status: ('A' for Active; 'I' for Inactive)
    1  A    between atoms: C_3  and  C_15
    2  A    between atoms: C_3  and  C_22
    3  A    between atoms: C_13  and  N_29
    4  A    between atoms: C_15  and  C_19
    5  A    between atoms: C_16  and  C_22
    6  A    between atoms: C_16  and  C_27
                            x       y       z     vdW  Elec       q    Type
                         _______ _______ _______ _____ _____    ______ ____

>  <TORSDO>
F 6

$$$$
=
 OpenBabel10262421093D

 32 37  0  0  1  0  0  0  0  0999 V2000
  186.3750  178.6780  138.5620 C   0  0  2  0  0  3  0  0  0  0  0  0
  187.4580  178.5850  140.8020 C   0  0  2  0  0  3  0  0  0  0  0  0
  186.5820  178.3520  137.0860 C   0  0  0  0  0  2  0  0  0  0  0  0
  187.3680  177.9200  139.4400 C   0  0  2  0  0  3  0  0  0  0  0  0
  188.2510  177.6620  141.6880 C   0  0  0  0  0  0  0  0  0  0  0  0
  184.6920  179.4210  144.9510 C   0  0  0  0  0  2  0  0  0  0  0  0
  186.0910  179.0870  141.3400 C   0  0  1  0  0  3  0  0  0  0  0  0
  186.3850  177.5840  144.8950 C   0  0  0  0  0  2  0  0  0  0  0  0
  186.4170  177.6440  143.3720 C   0  0  2  0  0  3  0  0  0  0  0  0
  188.7600  177.7870  138.8820 C   0  0  0  0  0  0  0  0  0  0  0  0
  187.7810  177.2610  142.8790 C   0  0  0  0  0  3  0  0  0  0  0  0
  189.8160  177.1310  139.7400 C   0  0  0  0  0  2  0  0  0  0  0  0
  189.0270  178.0710  137.5990 C   0  0  0  0  0  3  0  0  0  0  0  0
  184.9030  178.3800  140.6600 C   0  0  0  0  0  2  0  0  0  0  0  0
  184.9340  178.5010  139.1210 C   0  0  2  0  0  3  0  0  0  0  0  0
  186.0410  179.0440  142.8710 C   0  0  2  0  0  3  0  0  0  0  0  0
  189.5180  177.1780  141.1840 N   0  0  0  0  0  0  0  0  0  0  0  0
  188.0120  178.7170  136.6900 C   0  0  0  0  0  2  0  0  0  0  0  0
  185.0100  178.0030  145.4080 C   0  0  0  0  0  2  0  0  0  0  0  0
  184.6890  179.4960  143.4260 C   0  0  0  0  0  2  0  0  0  0  0  0
  190.5080  176.5920  142.0800 C   0  0  0  0  0  2  0  0  0  0  0  0
  191.4680  177.6620  142.5690 C   0  0  0  0  0  1  0  0  0  0  0  0
  184.1000  177.3400  138.5500 C   0  0  2  0  0  3  0  0  0  0  0  0
  184.8260  176.5160  137.6850 O   0  0  0  0  0  1  0  0  0  0  0  0
  182.7380  177.7320  137.9560 C   0  0  2  0  0  3  0  0  0  0  0  0
  182.3470  179.1800  138.2080 C   0  0  0  0  0  1  0  0  0  0  0  0
  181.5900  176.7610  138.2770 C   0  0  2  0  0  3  0  0  0  0  0  0
  181.8110  175.9990  139.5730 C   0  0  0  0  0  1  0  0  0  0  0  0
  181.3390  175.7790  137.1420 C   0  0  0  0  0  2  0  0  0  0  0  0
  181.2810  173.4080  136.4650 C   0  0  0  0  0  2  0  0  0  0  0  0
  181.6750  174.3640  137.5720 C   0  0  0  0  0  3  0  0  0  0  0  0
  182.7300  173.8090  136.6400 C   0  0  0  0  0  2  0  0  0  0  0  0
  1  3  1  6  0  0  0
  1 15  1  0  0  0  0
  1  4  1  0  0  0  0
  2  7  1  0  0  0  0
  2  5  1  1  0  0  0
  4 10  1  6  0  0  0
  4  2  1  0  0  0  0
  5 11  2  0  0  0  0
  6 19  1  0  0  0  0
  7 14  1  6  0  0  0
  7 16  1  0  0  0  0
  8 19  1  0  0  0  0
  9 11  1  1  0  0  0
  9  8  1  0  0  0  0
 10 12  1  0  0  0  0
 12 17  1  0  0  0  0
 13 10  2  0  0  0  0
 15 23  1  6  0  0  0
 15 14  1  0  0  0  0
 16  9  1  0  0  0  0
 16 20  1  6  0  0  0
 17  5  1  0  0  0  0
 17 21  1  0  0  0  0
 18  3  1  0  0  0  0
 18 13  1  0  0  0  0
 20  6  1  0  0  0  0
 21 22  1  0  0  0  0
 23 24  1  6  0  0  0
 25 26  1  1  0  0  0
 25 27  1  0  0  0  0
 25 23  1  0  0  0  0
 27 28  1  1  0  0  0
 29 31  1  0  0  0  0
 29 27  1  0  0  0  0
 30 32  1  0  0  0  0
 30 31  1  0  0  0  0
 32 31  1  0  0  0  0
M  END
>  <MODEL>
9

>  <REMARK>
 VINA RESULT:      -7.2      2.757      6.208
  Name = 
  6 active torsions:
  status: ('A' for Active; 'I' for Inactive)
    1  A    between atoms: C_3  and  C_15
    2  A    between atoms: C_3  and  C_22
    3  A    between atoms: C_13  and  N_29
    4  A    between atoms: C_15  and  C_19
    5  A    between atoms: C_16  and  C_22
    6  A    between atoms: C_16  and  C_27
                            x       y       z     vdW  Elec       q    Type
                         _______ _______ _______ _____ _____    ______ ____

>  <TORSDO>
F 6

$$$$
