=
 OpenBabel10262423273D

 34 37  0  0  1  0  0  0  0  0999 V2000
  185.1060  178.5950  141.9220 C   0  0  1  0  0  3  0  0  0  0  0  0
  185.9480  178.6810  139.1560 N   0  0  0  0  0  0  0  0  0  0  0  0
  182.8480  178.8070  140.7810 C   0  0  0  0  0  3  0  0  0  0  0  0
  182.4590  178.8380  139.4470 C   0  0  0  0  0  3  0  0  0  0  0  0
  184.5760  178.7930  139.5240 C   0  0  0  0  0  0  0  0  0  0  0  0
  184.1910  178.8070  140.8000 N   0  0  0  0  0  0  0  0  0  0  0  0
  183.5550  178.8210  138.6530 N   0  0  0  0  0  0  0  0  0  0  0  0
  186.8820  178.7200  140.0670 C   0  0  0  0  0  0  0  0  0  0  0  0
  187.4500  178.3100  142.3530 O   0  0  0  0  0  1  0  0  0  0  0  0
  186.5470  178.9780  141.5260 C   0  0  2  0  0  3  0  0  0  0  0  0
  188.2260  178.5950  139.7020 O   0  0  0  0  0  0  0  0  0  0  0  0
  188.7250  177.4910  138.9510 C   0  0  2  0  0  3  0  0  0  0  0  0
  189.8850  176.8420  139.6930 C   0  0  0  0  0  1  0  0  0  0  0  0
  189.1600  177.9580  137.5650 C   0  0  0  0  0  0  0  0  0  0  0  0
  190.4660  177.5640  137.3380 F   0  0  0  0  0  0  0  0  0  0  0  0
  189.0910  179.3370  137.4890 F   0  0  0  0  0  0  0  0  0  0  0  0
  188.3450  177.4040  136.5930 F   0  0  0  0  0  0  0  0  0  0  0  0
  184.6880  179.4150  143.1390 C   0  0  0  0  0  2  0  0  0  0  0  0
  183.9630  178.5510  144.1560 C   0  0  2  0  0  3  0  0  0  0  0  0
  182.4680  178.7520  144.0040 C   0  0  0  0  0  1  0  0  0  0  0  0
  187.2250  178.6190  147.8730 C   0  0  0  0  0  3  0  0  0  0  0  0
  186.5690  177.9090  145.2780 N   0  0  0  0  0  0  0  0  0  0  0  0
  190.3230  176.9020  146.7830 C   0  0  0  0  0  0  0  0  0  0  0  0
  189.4050  177.5930  147.5870 C   0  0  0  0  0  3  0  0  0  0  0  0
  188.1470  177.9310  147.0840 C   0  0  0  0  0  0  0  0  0  0  0  0
  184.3760  178.9210  145.5030 N   0  0  0  0  0  2  0  0  0  0  0  0
  188.7090  176.8900  144.9620 C   0  0  0  0  0  3  0  0  0  0  0  0
  187.7950  177.5780  145.7640 C   0  0  0  0  0  0  0  0  0  0  0  0
  189.9670  176.5540  145.4700 C   0  0  0  0  0  3  0  0  0  0  0  0
  185.6570  178.5790  146.0370 C   0  0  0  0  0  0  0  0  0  0  0  0
  185.9730  178.9460  147.3490 C   0  0  0  0  0  3  0  0  0  0  0  0
  191.6480  176.5480  147.3150 C   0  0  0  0  0  0  0  0  0  0  0  0
  192.1250  177.1650  148.3040 O   0  0  0  0  0  1  0  0  0  0  0  0
  192.3870  175.5250  146.7310 O   0  0  0  0  0  0  0  0  0  0  0  0
  1 18  1  1  0  0  0
  2  5  1  0  0  0  0
  2  8  2  0  0  0  0
  3  6  1  0  0  0  0
  4  3  2  0  0  0  0
  5  6  1  0  0  0  0
  6  1  1  0  0  0  0
  7  4  1  0  0  0  0
  7  5  2  0  0  0  0
  8 10  1  0  0  0  0
 10  1  1  0  0  0  0
 10  9  1  1  0  0  0
 11  8  1  0  0  0  0
 12 13  1  1  0  0  0
 12 11  1  0  0  0  0
 14 12  1  0  0  0  0
 15 14  1  0  0  0  0
 16 14  1  0  0  0  0
 17 14  1  0  0  0  0
 18 19  1  0  0  0  0
 19 20  1  1  0  0  0
 19 26  1  0  0  0  0
 22 28  1  0  0  0  0
 22 30  2  0  0  0  0
 23 32  1  0  0  0  0
 23 24  1  0  0  0  0
 25 24  2  0  0  0  0
 25 21  1  0  0  0  0
 26 30  1  0  0  0  0
 27 29  1  0  0  0  0
 27 28  2  0  0  0  0
 28 25  1  0  0  0  0
 29 23  2  0  0  0  0
 30 31  1  0  0  0  0
 31 21  2  0  0  0  0
 32 33  1  0  0  0  0
 34 32  2  0  0  0  0
M  END
>  <MODEL>
1

>  <REMARK>
 VINA RESULT:      -9.9      0.000      0.000
  Name = 
  7 active torsions:
  status: ('A' for Active; 'I' for Inactive)
    1  A    between atoms: C_1  and  C_9
    2  A    between atoms: O_2  and  C_23
    3  A    between atoms: O_2  and  C_32
    4  A    between atoms: C_3  and  C_23
    5  A    between atoms: C_7  and  C_11
    6  A    between atoms: C_8  and  C_9
    7  A    between atoms: C_8  and  N_18
                            x       y       z     vdW  Elec       q    Type
                         _______ _______ _______ _____ _____    ______ ____

>  <TORSDO>
F 7

$$$$
=
 OpenBabel10262423273D

 34 37  0  0  1  0  0  0  0  0999 V2000
  189.7510  177.1500  139.0530 C   0  0  1  0  0  3  0  0  0  0  0  0
  187.6660  176.9040  137.0630 N   0  0  0  0  0  0  0  0  0  0  0  0
  190.7670  175.3560  137.5710 C   0  0  0  0  0  3  0  0  0  0  0  0
  190.3610  174.7710  136.3780 C   0  0  0  0  0  3  0  0  0  0  0  0
  188.8350  176.0890  137.0270 C   0  0  0  0  0  0  0  0  0  0  0  0
  189.7710  176.1640  137.9720 N   0  0  0  0  0  0  0  0  0  0  0  0
  189.1410  175.2430  136.0310 N   0  0  0  0  0  0  0  0  0  0  0  0
  187.4180  177.6580  138.1000 C   0  0  0  0  0  0  0  0  0  0  0  0
  188.3370  178.8750  139.9410 O   0  0  0  0  0  1  0  0  0  0  0  0
  188.3090  177.6210  139.3310 C   0  0  2  0  0  3  0  0  0  0  0  0
  186.2770  178.4660  138.1250 O   0  0  0  0  0  0  0  0  0  0  0  0
  185.0260  178.0220  138.6430 C   0  0  2  0  0  3  0  0  0  0  0  0
  184.0740  177.7050  137.4990 C   0  0  0  0  0  1  0  0  0  0  0  0
  184.4360  179.0880  139.5620 C   0  0  0  0  0  0  0  0  0  0  0  0
  185.3920  179.4840  140.4790 F   0  0  0  0  0  0  0  0  0  0  0  0
  183.3500  178.5710  140.2460 F   0  0  0  0  0  0  0  0  0  0  0  0
  184.0310  180.1880  138.8260 F   0  0  0  0  0  0  0  0  0  0  0  0
  190.3440  176.5760  140.3370 C   0  0  0  0  0  2  0  0  0  0  0  0
  191.3840  177.5130  140.9250 C   0  0  2  0  0  3  0  0  0  0  0  0
  192.7280  177.2300  140.2840 C   0  0  0  0  0  1  0  0  0  0  0  0
  189.4260  177.4520  145.4660 C   0  0  0  0  0  3  0  0  0  0  0  0
  189.1270  177.8090  142.7360 N   0  0  0  0  0  0  0  0  0  0  0  0
  185.8240  178.2930  145.2320 C   0  0  0  0  0  0  0  0  0  0  0  0
  187.0720  177.9530  145.7750 C   0  0  0  0  0  3  0  0  0  0  0  0
  188.1800  177.7910  144.9400 C   0  0  0  0  0  0  0  0  0  0  0  0
  191.4720  177.3120  142.3650 N   0  0  0  0  0  2  0  0  0  0  0  0
  186.8040  178.3060  143.0050 C   0  0  0  0  0  3  0  0  0  0  0  0
  188.0470  177.9670  143.5460 C   0  0  0  0  0  0  0  0  0  0  0  0
  185.6980  178.4670  143.8450 C   0  0  0  0  0  3  0  0  0  0  0  0
  190.3520  177.4800  143.2360 C   0  0  0  0  0  0  0  0  0  0  0  0
  190.5190  177.2960  144.6120 C   0  0  0  0  0  3  0  0  0  0  0  0
  184.6590  178.4630  146.1150 C   0  0  0  0  0  0  0  0  0  0  0  0
  184.7310  178.1540  147.3340 O   0  0  0  0  0  1  0  0  0  0  0  0
  183.4660  178.9680  145.6100 O   0  0  0  0  0  0  0  0  0  0  0  0
  1 10  1  0  0  0  0
  1 18  1  1  0  0  0
  2  8  2  0  0  0  0
  3  6  1  0  0  0  0
  4  3  2  0  0  0  0
  5  2  1  0  0  0  0
  5  6  1  0  0  0  0
  6  1  1  0  0  0  0
  7  4  1  0  0  0  0
  7  5  2  0  0  0  0
  8 11  1  0  0  0  0
  8 10  1  0  0  0  0
 10  9  1  6  0  0  0
 11 12  1  0  0  0  0
 12 13  1  6  0  0  0
 12 14  1  0  0  0  0
 14 16  1  0  0  0  0
 14 15  1  0  0  0  0
 17 14  1  0  0  0  0
 18 19  1  0  0  0  0
 19 20  1  6  0  0  0
 19 26  1  0  0  0  0
 22 30  2  0  0  0  0
 22 28  1  0  0  0  0
 23 24  1  0  0  0  0
 23 32  1  0  0  0  0
 25 21  1  0  0  0  0
 25 24  2  0  0  0  0
 26 30  1  0  0  0  0
 27 28  2  0  0  0  0
 27 29  1  0  0  0  0
 28 25  1  0  0  0  0
 29 23  2  0  0  0  0
 30 31  1  0  0  0  0
 31 21  2  0  0  0  0
 32 33  1  0  0  0  0
 34 32  2  0  0  0  0
M  END
>  <MODEL>
2

>  <REMARK>
 VINA RESULT:      -9.2      3.412      6.018
  Name = 
  7 active torsions:
  status: ('A' for Active; 'I' for Inactive)
    1  A    between atoms: C_1  and  C_9
    2  A    between atoms: O_2  and  C_23
    3  A    between atoms: O_2  and  C_32
    4  A    between atoms: C_3  and  C_23
    5  A    between atoms: C_7  and  C_11
    6  A    between atoms: C_8  and  C_9
    7  A    between atoms: C_8  and  N_18
                            x       y       z     vdW  Elec       q    Type
                         _______ _______ _______ _____ _____    ______ ____

>  <TORSDO>
F 7

$$$$
=
 OpenBabel10262423273D

 34 37  0  0  1  0  0  0  0  0999 V2000
  186.3690  178.4900  139.1300 C   0  0  1  0  0  3  0  0  0  0  0  0
  183.5110  178.4600  139.5740 N   0  0  0  0  0  0  0  0  0  0  0  0
  185.6000  177.4020  136.9690 C   0  0  0  0  0  3  0  0  0  0  0  0
  184.3440  177.1180  136.4450 C   0  0  0  0  0  3  0  0  0  0  0  0
  184.0900  177.9080  138.3950 C   0  0  0  0  0  0  0  0  0  0  0  0
  185.4100  177.8730  138.2120 N   0  0  0  0  0  0  0  0  0  0  0  0
  183.3890  177.4480  137.3470 N   0  0  0  0  0  0  0  0  0  0  0  0
  184.2670  178.8310  140.5710 C   0  0  0  0  0  0  0  0  0  0  0  0
  186.4220  179.6140  141.2500 O   0  0  0  0  0  1  0  0  0  0  0  0
  185.7700  178.6010  140.5470 C   0  0  2  0  0  3  0  0  0  0  0  0
  183.6950  179.3840  141.7210 O   0  0  0  0  0  0  0  0  0  0  0  0
  183.2620  178.5960  142.8260 C   0  0  2  0  0  3  0  0  0  0  0  0
  181.8500  178.9980  143.2280 C   0  0  0  0  0  1  0  0  0  0  0  0
  184.2270  178.7620  143.9950 C   0  0  0  0  0  0  0  0  0  0  0  0
  184.8220  180.0090  143.9250 F   0  0  0  0  0  0  0  0  0  0  0  0
  185.2140  177.7950  143.9330 F   0  0  0  0  0  0  0  0  0  0  0  0
  183.5510  178.6500  145.1980 F   0  0  0  0  0  0  0  0  0  0  0  0
  187.6650  177.6870  139.1980 C   0  0  0  0  0  2  0  0  0  0  0  0
  188.8700  178.5730  138.9370 C   0  0  2  0  0  3  0  0  0  0  0  0
  189.0140  178.7910  137.4440 C   0  0  0  0  0  1  0  0  0  0  0  0
  191.6440  176.8340  142.6440 C   0  0  0  0  0  3  0  0  0  0  0  0
  189.2920  177.9970  141.7570 N   0  0  0  0  0  0  0  0  0  0  0  0
  189.7920  177.2500  145.8270 C   0  0  0  0  0  0  0  0  0  0  0  0
  190.8080  176.9140  144.9200 C   0  0  0  0  0  3  0  0  0  0  0  0
  190.6420  177.1640  143.5560 C   0  0  0  0  0  0  0  0  0  0  0  0
  190.0720  177.9390  139.4610 N   0  0  0  0  0  2  0  0  0  0  0  0
  188.4380  178.0900  143.9880 C   0  0  0  0  0  3  0  0  0  0  0  0
  189.4500  177.7550  143.0850 C   0  0  0  0  0  0  0  0  0  0  0  0
  188.6090  177.8380  145.3520 C   0  0  0  0  0  3  0  0  0  0  0  0
  190.2630  177.6810  140.8530 C   0  0  0  0  0  0  0  0  0  0  0  0
  191.4560  177.0930  141.2850 C   0  0  0  0  0  3  0  0  0  0  0  0
  189.9700  176.9860  147.2630 C   0  0  0  0  0  0  0  0  0  0  0  0
  191.0420  176.4840  147.6920 O   0  0  0  0  0  0  0  0  0  0  0  0
  188.9530  177.2890  148.1620 O   0  0  0  0  0  1  0  0  0  0  0  0
  1 18  1  1  0  0  0
  1 10  1  0  0  0  0
  2  8  2  0  0  0  0
  3  6  1  0  0  0  0
  4  3  2  0  0  0  0
  4  7  1  0  0  0  0
  5  2  1  0  0  0  0
  6  5  1  0  0  0  0
  6  1  1  0  0  0  0
  7  5  2  0  0  0  0
  8 11  1  0  0  0  0
 10  8  1  0  0  0  0
 10  9  1  6  0  0  0
 11 12  1  0  0  0  0
 12 13  1  1  0  0  0
 12 14  1  0  0  0  0
 14 17  1  0  0  0  0
 15 14  1  0  0  0  0
 16 14  1  0  0  0  0
 19 20  1  6  0  0  0
 19 18  1  0  0  0  0
 19 26  1  0  0  0  0
 21 25  1  0  0  0  0
 22 28  1  0  0  0  0
 23 32  1  0  0  0  0
 24 23  2  0  0  0  0
 25 24  1  0  0  0  0
 26 30  1  0  0  0  0
 27 29  2  0  0  0  0
 28 25  2  0  0  0  0
 28 27  1  0  0  0  0
 29 23  1  0  0  0  0
 30 31  1  0  0  0  0
 30 22  2  0  0  0  0
 31 21  2  0  0  0  0
 32 33  2  0  0  0  0
 32 34  1  0  0  0  0
M  END
>  <MODEL>
3

>  <REMARK>
 VINA RESULT:      -8.9      3.214      5.511
  Name = 
  7 active torsions:
  status: ('A' for Active; 'I' for Inactive)
    1  A    between atoms: C_1  and  C_9
    2  A    between atoms: O_2  and  C_23
    3  A    between atoms: O_2  and  C_32
    4  A    between atoms: C_3  and  C_23
    5  A    between atoms: C_7  and  C_11
    6  A    between atoms: C_8  and  C_9
    7  A    between atoms: C_8  and  N_18
                            x       y       z     vdW  Elec       q    Type
                         _______ _______ _______ _____ _____    ______ ____

>  <TORSDO>
F 7

$$$$
=
 OpenBabel10262423273D

 34 37  0  0  1  0  0  0  0  0999 V2000
  183.9810  178.9560  141.6190 C   0  0  1  0  0  3  0  0  0  0  0  0
  183.9300  178.6880  144.4990 N   0  0  0  0  0  0  0  0  0  0  0  0
  181.4740  178.8720  142.0080 C   0  0  0  0  0  3  0  0  0  0  0  0
  180.6940  178.8150  143.1570 C   0  0  0  0  0  3  0  0  0  0  0  0
  182.7320  178.6980  143.7270 C   0  0  0  0  0  0  0  0  0  0  0  0
  182.7550  178.7680  142.3960 N   0  0  0  0  0  0  0  0  0  0  0  0
  181.4940  178.7130  144.2450 N   0  0  0  0  0  0  0  0  0  0  0  0
  185.0930  178.6160  143.9120 C   0  0  0  0  0  0  0  0  0  0  0  0
  186.3580  179.0770  141.9360 O   0  0  0  0  0  1  0  0  0  0  0  0
  185.2060  178.4460  142.4060 C   0  0  2  0  0  3  0  0  0  0  0  0
  186.2660  178.6200  144.6730 O   0  0  0  0  0  0  0  0  0  0  0  0
  186.8270  177.4370  145.2370 C   0  0  2  0  0  3  0  0  0  0  0  0
  187.1290  177.6580  146.7120 C   0  0  0  0  0  1  0  0  0  0  0  0
  188.0910  177.0460  144.4770 C   0  0  0  0  0  0  0  0  0  0  0  0
  189.0690  176.6660  145.3780 F   0  0  0  0  0  0  0  0  0  0  0  0
  188.5530  178.1240  143.7450 F   0  0  0  0  0  0  0  0  0  0  0  0
  187.8310  175.9890  143.6210 F   0  0  0  0  0  0  0  0  0  0  0  0
  183.9060  178.2240  140.2830 C   0  0  0  0  0  2  0  0  0  0  0  0
  184.2980  179.1390  139.1360 C   0  0  2  0  0  3  0  0  0  0  0  0
  183.1060  179.9940  138.7520 C   0  0  0  0  0  1  0  0  0  0  0  0
  187.7090  176.6620  136.5500 C   0  0  0  0  0  3  0  0  0  0  0  0
  187.0010  178.1200  138.7960 N   0  0  0  0  0  0  0  0  0  0  0  0
  190.9150  176.7420  138.4070 C   0  0  0  0  0  0  0  0  0  0  0  0
  189.9700  176.4670  137.4080 C   0  0  0  0  0  3  0  0  0  0  0  0
  188.6590  176.9290  137.5370 C   0  0  0  0  0  0  0  0  0  0  0  0
  184.7230  178.3450  137.9920 N   0  0  0  0  0  2  0  0  0  0  0  0
  189.2190  177.9460  139.6700 C   0  0  0  0  0  3  0  0  0  0  0  0
  188.2790  177.6720  138.6740 C   0  0  0  0  0  0  0  0  0  0  0  0
  190.5310  177.4820  139.5370 C   0  0  0  0  0  3  0  0  0  0  0  0
  186.0620  177.8690  137.8400 C   0  0  0  0  0  0  0  0  0  0  0  0
  186.4030  177.1340  136.7000 C   0  0  0  0  0  3  0  0  0  0  0  0
  192.2960  176.2540  138.2690 C   0  0  0  0  0  0  0  0  0  0  0  0
  192.5320  175.1540  137.7020 O   0  0  0  0  0  0  0  0  0  0  0  0
  193.3570  177.0050  138.7630 O   0  0  0  0  0  1  0  0  0  0  0  0
  1 18  1  6  0  0  0
  1  6  1  0  0  0  0
  1 10  1  0  0  0  0
  3  6  1  0  0  0  0
  3  4  2  0  0  0  0
  4  7  1  0  0  0  0
  5  7  2  0  0  0  0
  5  2  1  0  0  0  0
  6  5  1  0  0  0  0
  8  2  2  0  0  0  0
  8 11  1  0  0  0  0
 10  9  1  6  0  0  0
 10  8  1  0  0  0  0
 11 12  1  0  0  0  0
 12 13  1  1  0  0  0
 14 12  1  0  0  0  0
 14 15  1  0  0  0  0
 16 14  1  0  0  0  0
 17 14  1  0  0  0  0
 19 20  1  6  0  0  0
 19 18  1  0  0  0  0
 21 31  2  0  0  0  0
 21 25  1  0  0  0  0
 23 29  1  0  0  0  0
 24 25  1  0  0  0  0
 24 23  2  0  0  0  0
 25 28  2  0  0  0  0
 26 19  1  0  0  0  0
 28 22  1  0  0  0  0
 28 27  1  0  0  0  0
 29 27  2  0  0  0  0
 30 26  1  0  0  0  0
 30 22  2  0  0  0  0
 31 30  1  0  0  0  0
 32 23  1  0  0  0  0
 32 34  1  0  0  0  0
 33 32  2  0  0  0  0
M  END
>  <MODEL>
4

>  <REMARK>
 VINA RESULT:      -8.9      3.156      6.879
  Name = 
  7 active torsions:
  status: ('A' for Active; 'I' for Inactive)
    1  A    between atoms: C_1  and  C_9
    2  A    between atoms: O_2  and  C_23
    3  A    between atoms: O_2  and  C_32
    4  A    between atoms: C_3  and  C_23
    5  A    between atoms: C_7  and  C_11
    6  A    between atoms: C_8  and  C_9
    7  A    between atoms: C_8  and  N_18
                            x       y       z     vdW  Elec       q    Type
                         _______ _______ _______ _____ _____    ______ ____

>  <TORSDO>
F 7

$$$$
=
 OpenBabel10262423273D

 34 37  0  0  1  0  0  0  0  0999 V2000
  188.6410  177.2280  145.3720 C   0  0  1  0  0  3  0  0  0  0  0  0
  186.1450  178.1640  146.4930 N   0  0  0  0  0  0  0  0  0  0  0  0
  189.4080  177.8170  147.7190 C   0  0  0  0  0  3  0  0  0  0  0  0
  188.7380  178.2700  148.8490 C   0  0  0  0  0  3  0  0  0  0  0  0
  187.3550  178.1750  147.2470 C   0  0  0  0  0  0  0  0  0  0  0  0
  188.5160  177.7930  146.7150 N   0  0  0  0  0  0  0  0  0  0  0  0
  187.4360  178.4880  148.5500 N   0  0  0  0  0  0  0  0  0  0  0  0
  186.1660  177.9030  145.2150 C   0  0  0  0  0  0  0  0  0  0  0  0
  187.3010  176.7900  143.4290 O   0  0  0  0  0  1  0  0  0  0  0  0
  187.4770  177.6960  144.4750 C   0  0  2  0  0  3  0  0  0  0  0  0
  184.9750  177.8810  144.4820 O   0  0  0  0  0  0  0  0  0  0  0  0
  184.4590  179.0260  143.8090 C   0  0  2  0  0  3  0  0  0  0  0  0
  183.0000  179.2370  144.1870 C   0  0  0  0  0  1  0  0  0  0  0  0
  184.6100  178.8560  142.3010 C   0  0  0  0  0  0  0  0  0  0  0  0
  184.7240  177.5110  142.0000 F   0  0  0  0  0  0  0  0  0  0  0  0
  185.7490  179.5070  141.8640 F   0  0  0  0  0  0  0  0  0  0  0  0
  183.5070  179.3740  141.6440 F   0  0  0  0  0  0  0  0  0  0  0  0
  189.9630  177.6300  144.7230 C   0  0  0  0  0  2  0  0  0  0  0  0
  190.8680  176.4250  144.5350 C   0  0  2  0  0  3  0  0  0  0  0  0
  191.6810  176.2120  145.7970 C   0  0  0  0  0  1  0  0  0  0  0  0
  191.7370  177.5030  139.7880 C   0  0  0  0  0  3  0  0  0  0  0  0
  189.9490  177.1550  141.8740 N   0  0  0  0  0  0  0  0  0  0  0  0
  188.5070  178.1670  138.0960 C   0  0  0  0  0  0  0  0  0  0  0  0
  189.8850  178.0060  138.3030 C   0  0  0  0  0  3  0  0  0  0  0  0
  190.3690  177.6660  139.5680 C   0  0  0  0  0  0  0  0  0  0  0  0
  191.7600  176.6480  143.4060 N   0  0  0  0  0  2  0  0  0  0  0  0
  188.1020  177.6460  140.4380 C   0  0  0  0  0  3  0  0  0  0  0  0
  189.4740  177.4850  140.6440 C   0  0  0  0  0  0  0  0  0  0  0  0
  187.6210  177.9870  139.1700 C   0  0  0  0  0  3  0  0  0  0  0  0
  191.2830  176.9900  142.1030 C   0  0  0  0  0  0  0  0  0  0  0  0
  192.1990  177.1630  141.0610 C   0  0  0  0  0  3  0  0  0  0  0  0
  188.0000  178.5250  136.7620 C   0  0  0  0  0  0  0  0  0  0  0  0
  187.1810  179.4720  136.6230 O   0  0  0  0  0  1  0  0  0  0  0  0
  188.4210  177.8200  135.6410 O   0  0  0  0  0  0  0  0  0  0  0  0
  1 18  1  6  0  0  0
  1  6  1  0  0  0  0
  2  5  1  0  0  0  0
  3  4  2  0  0  0  0
  5  7  2  0  0  0  0
  6  5  1  0  0  0  0
  6  3  1  0  0  0  0
  7  4  1  0  0  0  0
  8  2  2  0  0  0  0
 10  9  1  6  0  0  0
 10  8  1  0  0  0  0
 10  1  1  0  0  0  0
 11  8  1  0  0  0  0
 12 13  1  6  0  0  0
 12 11  1  0  0  0  0
 14 12  1  0  0  0  0
 15 14  1  0  0  0  0
 16 14  1  0  0  0  0
 17 14  1  0  0  0  0
 19 18  1  0  0  0  0
 19 20  1  1  0  0  0
 21 31  2  0  0  0  0
 22 30  2  0  0  0  0
 23 24  2  0  0  0  0
 23 29  1  0  0  0  0
 24 25  1  0  0  0  0
 25 21  1  0  0  0  0
 25 28  2  0  0  0  0
 26 19  1  0  0  0  0
 27 28  1  0  0  0  0
 28 22  1  0  0  0  0
 29 27  2  0  0  0  0
 30 26  1  0  0  0  0
 31 30  1  0  0  0  0
 32 23  1  0  0  0  0
 33 32  1  0  0  0  0
 34 32  2  0  0  0  0
M  END
>  <MODEL>
5

>  <REMARK>
 VINA RESULT:      -8.8      3.385      7.976
  Name = 
  7 active torsions:
  status: ('A' for Active; 'I' for Inactive)
    1  A    between atoms: C_1  and  C_9
    2  A    between atoms: O_2  and  C_23
    3  A    between atoms: O_2  and  C_32
    4  A    between atoms: C_3  and  C_23
    5  A    between atoms: C_7  and  C_11
    6  A    between atoms: C_8  and  C_9
    7  A    between atoms: C_8  and  N_18
                            x       y       z     vdW  Elec       q    Type
                         _______ _______ _______ _____ _____    ______ ____

>  <TORSDO>
F 7

$$$$
=
 OpenBabel10262423273D

 34 37  0  0  1  0  0  0  0  0999 V2000
  187.8790  177.6820  145.1140 C   0  0  1  0  0  3  0  0  0  0  0  0
  190.3690  176.3820  144.4240 N   0  0  0  0  0  0  0  0  0  0  0  0
  189.0250  177.6990  147.3790 C   0  0  0  0  0  3  0  0  0  0  0  0
  190.2850  177.2980  147.8060 C   0  0  0  0  0  3  0  0  0  0  0  0
  190.0820  176.7880  145.7600 C   0  0  0  0  0  0  0  0  0  0  0  0
  188.9140  177.3390  146.0890 N   0  0  0  0  0  0  0  0  0  0  0  0
  190.9550  176.7290  146.7770 N   0  0  0  0  0  0  0  0  0  0  0  0
  189.4400  176.4200  143.5080 C   0  0  0  0  0  0  0  0  0  0  0  0
  187.4140  177.4520  142.7700 O   0  0  0  0  0  1  0  0  0  0  0  0
  188.0110  176.8050  143.8520 C   0  0  2  0  0  3  0  0  0  0  0  0
  189.7310  176.0330  142.1960 O   0  0  0  0  0  0  0  0  0  0  0  0
  190.6890  176.7070  141.3850 C   0  0  2  0  0  3  0  0  0  0  0  0
  191.1140  178.0060  142.0550 C   0  0  0  0  0  1  0  0  0  0  0  0
  190.1040  176.9770  140.0020 C   0  0  0  0  0  0  0  0  0  0  0  0
  190.4800  178.2390  139.5820 F   0  0  0  0  0  0  0  0  0  0  0  0
  188.7230  176.9180  140.0540 F   0  0  0  0  0  0  0  0  0  0  0  0
  190.5680  176.0410  139.0920 F   0  0  0  0  0  0  0  0  0  0  0  0
  186.4820  177.5010  145.7020 C   0  0  0  0  0  2  0  0  0  0  0  0
  185.8080  178.8430  145.9300 C   0  0  2  0  0  3  0  0  0  0  0  0
  186.0870  179.3060  147.3460 C   0  0  0  0  0  1  0  0  0  0  0  0
  181.7930  178.6560  143.0490 C   0  0  0  0  0  3  0  0  0  0  0  0
  184.5430  178.8530  143.3110 N   0  0  0  0  0  0  0  0  0  0  0  0
  182.8460  178.9130  139.5040 C   0  0  0  0  0  0  0  0  0  0  0  0
  182.0280  178.7940  140.6370 C   0  0  0  0  0  3  0  0  0  0  0  0
  182.5950  178.7740  141.9130 C   0  0  0  0  0  0  0  0  0  0  0  0
  184.3720  178.7160  145.7260 N   0  0  0  0  0  2  0  0  0  0  0  0
  184.8090  178.9910  140.9390 C   0  0  0  0  0  3  0  0  0  0  0  0
  183.9940  178.8730  142.0670 C   0  0  0  0  0  0  0  0  0  0  0  0
  184.2370  179.0100  139.6640 C   0  0  0  0  0  3  0  0  0  0  0  0
  183.7730  178.7400  144.4290 C   0  0  0  0  0  0  0  0  0  0  0  0
  182.3820  178.6390  144.3140 C   0  0  0  0  0  3  0  0  0  0  0  0
  182.2450  178.9340  138.1610 C   0  0  0  0  0  0  0  0  0  0  0  0
  181.6390  179.9580  137.7480 O   0  0  0  0  0  1  0  0  0  0  0  0
  182.3410  177.8200  137.3340 O   0  0  0  0  0  0  0  0  0  0  0  0
  1 18  1  1  0  0  0
  1  6  1  0  0  0  0
  2  5  1  0  0  0  0
  3  4  2  0  0  0  0
  5  6  1  0  0  0  0
  5  7  2  0  0  0  0
  6  3  1  0  0  0  0
  7  4  1  0  0  0  0
  8 10  1  0  0  0  0
  8  2  2  0  0  0  0
 10  9  1  6  0  0  0
 10  1  1  0  0  0  0
 11  8  1  0  0  0  0
 12 13  1  1  0  0  0
 12 11  1  0  0  0  0
 14 16  1  0  0  0  0
 14 12  1  0  0  0  0
 15 14  1  0  0  0  0
 17 14  1  0  0  0  0
 18 19  1  0  0  0  0
 19 20  1  1  0  0  0
 21 31  2  0  0  0  0
 22 30  2  0  0  0  0
 23 29  2  0  0  0  0
 23 24  1  0  0  0  0
 24 25  2  0  0  0  0
 25 28  1  0  0  0  0
 25 21  1  0  0  0  0
 26 19  1  0  0  0  0
 27 28  2  0  0  0  0
 28 22  1  0  0  0  0
 29 27  1  0  0  0  0
 30 26  1  0  0  0  0
 31 30  1  0  0  0  0
 32 23  1  0  0  0  0
 33 32  1  0  0  0  0
 34 32  2  0  0  0  0
M  END
>  <MODEL>
6

>  <REMARK>
 VINA RESULT:      -8.7      2.446      7.272
  Name = 
  7 active torsions:
  status: ('A' for Active; 'I' for Inactive)
    1  A    between atoms: C_1  and  C_9
    2  A    between atoms: O_2  and  C_23
    3  A    between atoms: O_2  and  C_32
    4  A    between atoms: C_3  and  C_23
    5  A    between atoms: C_7  and  C_11
    6  A    between atoms: C_8  and  C_9
    7  A    between atoms: C_8  and  N_18
                            x       y       z     vdW  Elec       q    Type
                         _______ _______ _______ _____ _____    ______ ____

>  <TORSDO>
F 7

$$$$
=
 OpenBabel10262423273D

 34 37  0  0  1  0  0  0  0  0999 V2000
  191.5260  175.7740  137.9520 C   0  0  1  0  0  3  0  0  0  0  0  0
  193.3020  174.0580  136.4440 N   0  0  0  0  0  0  0  0  0  0  0  0
  189.8300  174.2140  136.8860 C   0  0  0  0  0  3  0  0  0  0  0  0
  189.9530  173.0910  136.0760 C   0  0  0  0  0  3  0  0  0  0  0  0
  191.8870  173.8950  136.3980 C   0  0  0  0  0  0  0  0  0  0  0  0
  191.0650  174.7180  137.0500 N   0  0  0  0  0  0  0  0  0  0  0  0
  191.2570  172.8870  135.7760 N   0  0  0  0  0  0  0  0  0  0  0  0
  193.8280  175.1020  137.0240 C   0  0  0  0  0  0  0  0  0  0  0  0
  193.5690  176.7930  138.6940 O   0  0  0  0  0  1  0  0  0  0  0  0
  192.9570  176.2160  137.5820 C   0  0  2  0  0  3  0  0  0  0  0  0
  195.2180  175.2510  137.0780 O   0  0  0  0  0  0  0  0  0  0  0  0
  196.0850  174.2380  137.5820 C   0  0  2  0  0  3  0  0  0  0  0  0
  195.9360  174.1330  139.0940 C   0  0  0  0  0  1  0  0  0  0  0  0
  197.5280  174.5500  137.1990 C   0  0  0  0  0  0  0  0  0  0  0  0
  198.2470  174.8650  138.3380 F   0  0  0  0  0  0  0  0  0  0  0  0
  197.5640  175.6310  136.3370 F   0  0  0  0  0  0  0  0  0  0  0  0
  198.1110  173.4550  136.5840 F   0  0  0  0  0  0  0  0  0  0  0  0
  190.6020  176.9860  137.9030 C   0  0  0  0  0  2  0  0  0  0  0  0
  189.8800  177.1760  139.2260 C   0  0  2  0  0  3  0  0  0  0  0  0
  189.0480  178.4420  139.1620 C   0  0  0  0  0  1  0  0  0  0  0  0
  191.0810  177.6380  144.0010 C   0  0  0  0  0  3  0  0  0  0  0  0
  189.1490  177.3970  142.0320 N   0  0  0  0  0  0  0  0  0  0  0  0
  187.9720  177.7400  146.0160 C   0  0  0  0  0  0  0  0  0  0  0  0
  189.3340  177.7470  145.6820 C   0  0  0  0  0  3  0  0  0  0  0  0
  189.7300  177.6330  144.3470 C   0  0  0  0  0  0  0  0  0  0  0  0
  190.8500  177.2780  140.3080 N   0  0  0  0  0  2  0  0  0  0  0  0
  187.4030  177.5020  143.6630 C   0  0  0  0  0  3  0  0  0  0  0  0
  188.7600  177.5090  143.3300 C   0  0  0  0  0  0  0  0  0  0  0  0
  187.0120  177.6160  145.0000 C   0  0  0  0  0  3  0  0  0  0  0  0
  190.4650  177.4020  141.6780 C   0  0  0  0  0  0  0  0  0  0  0  0
  191.4530  177.5220  142.6600 C   0  0  0  0  0  3  0  0  0  0  0  0
  187.5590  177.8610  147.4230 C   0  0  0  0  0  0  0  0  0  0  0  0
  186.4130  178.2940  147.7170 O   0  0  0  0  0  0  0  0  0  0  0  0
  188.4320  177.4980  148.4430 O   0  0  0  0  0  1  0  0  0  0  0  0
  1 18  1  6  0  0  0
  2  8  2  0  0  0  0
  3  6  1  0  0  0  0
  4  3  2  0  0  0  0
  5  2  1  0  0  0  0
  5  6  1  0  0  0  0
  6  1  1  0  0  0  0
  7  4  1  0  0  0  0
  7  5  2  0  0  0  0
  8 11  1  0  0  0  0
  8 10  1  0  0  0  0
 10  1  1  0  0  0  0
 10  9  1  1  0  0  0
 11 12  1  0  0  0  0
 12 13  1  1  0  0  0
 14 12  1  0  0  0  0
 14 15  1  0  0  0  0
 16 14  1  0  0  0  0
 17 14  1  0  0  0  0
 18 19  1  0  0  0  0
 19 20  1  6  0  0  0
 19 26  1  0  0  0  0
 21 25  1  0  0  0  0
 22 28  1  0  0  0  0
 23 32  1  0  0  0  0
 24 23  1  0  0  0  0
 25 24  2  0  0  0  0
 26 30  1  0  0  0  0
 27 29  1  0  0  0  0
 28 27  2  0  0  0  0
 28 25  1  0  0  0  0
 29 23  2  0  0  0  0
 30 22  2  0  0  0  0
 30 31  1  0  0  0  0
 31 21  2  0  0  0  0
 32 33  2  0  0  0  0
 32 34  1  0  0  0  0
M  END
>  <MODEL>
7

>  <REMARK>
 VINA RESULT:      -8.7      5.153      7.368
  Name = 
  7 active torsions:
  status: ('A' for Active; 'I' for Inactive)
    1  A    between atoms: C_1  and  C_9
    2  A    between atoms: O_2  and  C_23
    3  A    between atoms: O_2  and  C_32
    4  A    between atoms: C_3  and  C_23
    5  A    between atoms: C_7  and  C_11
    6  A    between atoms: C_8  and  C_9
    7  A    between atoms: C_8  and  N_18
                            x       y       z     vdW  Elec       q    Type
                         _______ _______ _______ _____ _____    ______ ____

>  <TORSDO>
F 7

$$$$
=
 OpenBabel10262423273D

 34 37  0  0  1  0  0  0  0  0999 V2000
  186.0050  177.8380  138.9490 C   0  0  1  0  0  3  0  0  0  0  0  0
  188.1870  177.5380  137.0750 N   0  0  0  0  0  0  0  0  0  0  0  0
  184.6970  177.3760  136.8220 C   0  0  0  0  0  3  0  0  0  0  0  0
  185.0800  177.0660  135.5230 C   0  0  0  0  0  3  0  0  0  0  0  0
  186.8270  177.4510  136.6590 C   0  0  0  0  0  0  0  0  0  0  0  0
  185.8200  177.6420  137.5110 N   0  0  0  0  0  0  0  0  0  0  0  0
  186.4300  177.1060  135.4240 N   0  0  0  0  0  0  0  0  0  0  0  0
  188.4860  177.9370  138.2810 C   0  0  0  0  0  0  0  0  0  0  0  0
  187.7680  178.1070  140.5550 O   0  0  0  0  0  1  0  0  0  0  0  0
  187.4070  178.4090  139.2420 C   0  0  2  0  0  3  0  0  0  0  0  0
  189.8210  178.0070  138.6880 O   0  0  0  0  0  0  0  0  0  0  0  0
  190.5280  176.8900  139.2210 C   0  0  2  0  0  3  0  0  0  0  0  0
  191.1410  177.2560  140.5650 C   0  0  0  0  0  1  0  0  0  0  0  0
  191.6040  176.4380  138.2390 C   0  0  0  0  0  0  0  0  0  0  0  0
  192.8070  177.0340  138.5690 F   0  0  0  0  0  0  0  0  0  0  0  0
  191.2580  176.8150  136.9540 F   0  0  0  0  0  0  0  0  0  0  0  0
  191.7530  175.0620  138.2870 F   0  0  0  0  0  0  0  0  0  0  0  0
  184.9520  178.7850  139.5180 C   0  0  0  0  0  2  0  0  0  0  0  0
  183.8850  178.0200  140.2800 C   0  0  2  0  0  3  0  0  0  0  0  0
  182.6540  177.8780  139.4060 C   0  0  0  0  0  1  0  0  0  0  0  0
  184.6840  179.2590  145.0010 C   0  0  0  0  0  3  0  0  0  0  0  0
  185.4640  177.8970  142.7190 N   0  0  0  0  0  0  0  0  0  0  0  0
  187.7950  177.6140  146.1630 C   0  0  0  0  0  0  0  0  0  0  0  0
  186.6290  178.3930  146.1650 C   0  0  0  0  0  3  0  0  0  0  0  0
  185.8470  178.4880  145.0120 C   0  0  0  0  0  0  0  0  0  0  0  0
  183.5410  178.7350  141.5010 N   0  0  0  0  0  2  0  0  0  0  0  0
  187.3900  177.0270  143.8370 C   0  0  0  0  0  3  0  0  0  0  0  0
  186.2280  177.8020  143.8400 C   0  0  0  0  0  0  0  0  0  0  0  0
  188.1700  176.9340  144.9930 C   0  0  0  0  0  3  0  0  0  0  0  0
  184.3250  178.6450  142.6930 C   0  0  0  0  0  0  0  0  0  0  0  0
  183.9180  179.3390  143.8360 C   0  0  0  0  0  3  0  0  0  0  0  0
  188.6170  177.5160  147.3790 C   0  0  0  0  0  0  0  0  0  0  0  0
  188.3270  178.1910  148.4030 O   0  0  0  0  0  1  0  0  0  0  0  0
  189.7250  176.6760  147.4100 O   0  0  0  0  0  0  0  0  0  0  0  0
  1 10  1  0  0  0  0
  1 18  1  6  0  0  0
  2  8  2  0  0  0  0
  3  6  1  0  0  0  0
  4  3  2  0  0  0  0
  5  2  1  0  0  0  0
  5  6  1  0  0  0  0
  6  1  1  0  0  0  0
  7  4  1  0  0  0  0
  7  5  2  0  0  0  0
  8 11  1  0  0  0  0
  8 10  1  0  0  0  0
 10  9  1  1  0  0  0
 11 12  1  0  0  0  0
 12 13  1  1  0  0  0
 14 17  1  0  0  0  0
 14 15  1  0  0  0  0
 14 12  1  0  0  0  0
 16 14  1  0  0  0  0
 18 19  1  0  0  0  0
 19 20  1  6  0  0  0
 19 26  1  0  0  0  0
 21 25  1  0  0  0  0
 22 28  1  0  0  0  0
 23 24  1  0  0  0  0
 23 32  1  0  0  0  0
 25 24  2  0  0  0  0
 26 30  1  0  0  0  0
 27 28  2  0  0  0  0
 27 29  1  0  0  0  0
 28 25  1  0  0  0  0
 29 23  2  0  0  0  0
 30 22  2  0  0  0  0
 30 31  1  0  0  0  0
 31 21  2  0  0  0  0
 32 34  2  0  0  0  0
 32 33  1  0  0  0  0
M  END
>  <MODEL>
8

>  <REMARK>
 VINA RESULT:      -8.6      2.091      3.376
  Name = 
  7 active torsions:
  status: ('A' for Active; 'I' for Inactive)
    1  A    between atoms: C_1  and  C_9
    2  A    between atoms: O_2  and  C_23
    3  A    between atoms: O_2  and  C_32
    4  A    between atoms: C_3  and  C_23
    5  A    between atoms: C_7  and  C_11
    6  A    between atoms: C_8  and  C_9
    7  A    between atoms: C_8  and  N_18
                            x       y       z     vdW  Elec       q    Type
                         _______ _______ _______ _____ _____    ______ ____

>  <TORSDO>
F 7

$$$$
=
 OpenBabel10262423273D

 34 37  0  0  1  0  0  0  0  0999 V2000
  188.9300  177.2750  138.6690 C   0  0  1  0  0  3  0  0  0  0  0  0
  186.2340  177.3150  137.6240 N   0  0  0  0  0  0  0  0  0  0  0  0
  189.0830  175.3790  136.9880 C   0  0  0  0  0  3  0  0  0  0  0  0
  188.1870  174.8600  136.0600 C   0  0  0  0  0  3  0  0  0  0  0  0
  187.1930  176.3570  137.1830 C   0  0  0  0  0  0  0  0  0  0  0  0
  188.4190  176.3040  137.7010 N   0  0  0  0  0  0  0  0  0  0  0  0
  186.9930  175.4870  136.1800 N   0  0  0  0  0  0  0  0  0  0  0  0
  186.4900  178.0850  138.6450 C   0  0  0  0  0  0  0  0  0  0  0  0
  188.1780  179.1590  139.9540 O   0  0  0  0  0  1  0  0  0  0  0  0
  187.7690  177.9240  139.4500 C   0  0  2  0  0  3  0  0  0  0  0  0
  185.5510  179.0310  139.0660 O   0  0  0  0  0  0  0  0  0  0  0  0
  184.1580  178.7470  139.1690 C   0  0  2  0  0  3  0  0  0  0  0  0
  183.3480  179.9890  138.8290 C   0  0  0  0  0  1  0  0  0  0  0  0
  183.8300  178.2540  140.5750 C   0  0  0  0  0  0  0  0  0  0  0  0
  182.8190  179.0300  141.1100 F   0  0  0  0  0  0  0  0  0  0  0  0
  184.9470  178.3580  141.3840 F   0  0  0  0  0  0  0  0  0  0  0  0
  183.4140  176.9330  140.5380 F   0  0  0  0  0  0  0  0  0  0  0  0
  189.8900  176.6190  139.6570 C   0  0  0  0  0  2  0  0  0  0  0  0
  191.2110  177.3670  139.7130 C   0  0  2  0  0  3  0  0  0  0  0  0
  192.1570  176.7830  138.6820 C   0  0  0  0  0  1  0  0  0  0  0  0
  190.8990  177.3740  144.6490 C   0  0  0  0  0  3  0  0  0  0  0  0
  189.6730  177.5730  142.1730 N   0  0  0  0  0  0  0  0  0  0  0  0
  187.3660  177.9180  145.6270 C   0  0  0  0  0  0  0  0  0  0  0  0
  188.7490  177.7030  145.7230 C   0  0  0  0  0  3  0  0  0  0  0  0
  189.5230  177.5880  144.5670 C   0  0  0  0  0  0  0  0  0  0  0  0
  191.7930  177.2440  141.0420 N   0  0  0  0  0  2  0  0  0  0  0  0
  187.5390  177.9000  143.2000 C   0  0  0  0  0  3  0  0  0  0  0  0
  188.9160  177.6860  143.2970 C   0  0  0  0  0  0  0  0  0  0  0  0
  186.7680  178.0140  144.3610 C   0  0  0  0  0  3  0  0  0  0  0  0
  191.0190  177.3650  142.2360 C   0  0  0  0  0  0  0  0  0  0  0  0
  191.6530  177.2610  143.4790 C   0  0  0  0  0  3  0  0  0  0  0  0
  186.5530  178.0400  146.8470 C   0  0  0  0  0  0  0  0  0  0  0  0
  185.2960  178.0710  146.7770 O   0  0  0  0  0  0  0  0  0  0  0  0
  187.1670  178.1210  148.0930 O   0  0  0  0  0  1  0  0  0  0  0  0
  1 10  1  0  0  0  0
  1 18  1  1  0  0  0
  2  8  2  0  0  0  0
  3  6  1  0  0  0  0
  4  7  1  0  0  0  0
  4  3  2  0  0  0  0
  5  2  1  0  0  0  0
  5  6  1  0  0  0  0
  6  1  1  0  0  0  0
  7  5  2  0  0  0  0
  8 11  1  0  0  0  0
  8 10  1  0  0  0  0
 10  9  1  6  0  0  0
 11 12  1  0  0  0  0
 12 13  1  1  0  0  0
 12 14  1  0  0  0  0
 14 15  1  0  0  0  0
 14 16  1  0  0  0  0
 17 14  1  0  0  0  0
 18 19  1  0  0  0  0
 19 20  1  6  0  0  0
 19 26  1  0  0  0  0
 22 30  2  0  0  0  0
 22 28  1  0  0  0  0
 23 24  1  0  0  0  0
 23 32  1  0  0  0  0
 25 21  1  0  0  0  0
 25 24  2  0  0  0  0
 26 30  1  0  0  0  0
 27 28  2  0  0  0  0
 27 29  1  0  0  0  0
 28 25  1  0  0  0  0
 29 23  2  0  0  0  0
 30 31  1  0  0  0  0
 31 21  2  0  0  0  0
 32 34  1  0  0  0  0
 33 32  2  0  0  0  0
M  END
>  <MODEL>
9

>  <REMARK>
 VINA RESULT:      -8.4      3.242      5.819
  Name = 
  7 active torsions:
  status: ('A' for Active; 'I' for Inactive)
    1  A    between atoms: C_1  and  C_9
    2  A    between atoms: O_2  and  C_23
    3  A    between atoms: O_2  and  C_32
    4  A    between atoms: C_3  and  C_23
    5  A    between atoms: C_7  and  C_11
    6  A    between atoms: C_8  and  C_9
    7  A    between atoms: C_8  and  N_18
                            x       y       z     vdW  Elec       q    Type
                         _______ _______ _______ _____ _____    ______ ____

>  <TORSDO>
F 7

$$$$
