=
 OpenBabel10262423313D

 34 39  0  0  1  0  0  0  0  0999 V2000
  182.5700  178.7940  141.5700 N   0  0  0  0  0  0  0  0  0  0  0  0
  184.0990  177.5280  138.5720 C   0  0  0  0  0  3  0  0  0  0  0  0
  182.1140  177.1770  139.9320 N   0  0  0  0  0  0  0  0  0  0  0  0
  180.0430  179.8780  141.0230 C   0  0  0  0  0  1  0  0  0  0  0  0
  180.2110  178.3960  140.7170 C   0  0  2  0  0  0  0  0  0  0  0  0
  179.1980  177.6850  141.3640 O   0  0  0  0  0  1  0  0  0  0  0  0
  181.1350  177.1090  138.8660 C   0  0  0  0  0  2  0  0  0  0  0  0
  181.5700  177.8050  141.1320 C   0  0  2  0  0  3  0  0  0  0  0  0
  180.0950  178.1620  139.2130 C   0  0  0  0  0  2  0  0  0  0  0  0
  185.3100  178.3320  138.2270 C   0  0  0  0  0  2  0  0  0  0  0  0
  186.4040  178.2540  139.2500 C   0  0  0  0  0  0  0  0  0  0  0  0
  186.2310  178.6340  140.5210 C   0  0  0  0  0  3  0  0  0  0  0  0
  183.4180  177.7060  139.7060 C   0  0  0  0  0  0  0  0  0  0  0  0
  184.9600  179.0080  141.1670 C   0  0  0  0  0  3  0  0  0  0  0  0
  183.7390  178.6280  140.7720 C   0  0  0  0  0  0  0  0  0  0  0  0
  187.7760  177.8470  138.8030 C   0  0  1  0  0  3  0  0  0  0  0  0
  188.2870  178.7400  137.7350 C   0  0  0  0  0  2  0  0  0  0  0  0
  188.6960  178.8830  139.0730 O   0  0  0  0  0  0  0  0  0  0  0  0
  182.5840  179.3620  142.9150 C   0  0  0  0  0  2  0  0  0  0  0  0
  183.3110  178.4240  143.8680 C   0  0  0  0  0  2  0  0  0  0  0  0
  183.9500  179.2080  145.0060 C   0  0  0  0  0  2  0  0  0  0  0  0
  186.8070  178.2440  147.3080 C   0  0  0  0  0  3  0  0  0  0  0  0
  186.0210  177.9620  144.5630 C   0  0  0  0  0  3  0  0  0  0  0  0
  190.0040  177.1660  145.6420 N   0  0  0  0  0  0  0  0  0  0  0  0
  189.0640  177.5920  146.6440 C   0  0  0  0  0  3  0  0  0  0  0  0
  187.7710  177.7080  146.3360 C   0  0  0  0  0  0  0  0  0  0  0  0
  188.3280  177.2500  143.9200 C   0  0  0  0  0  3  0  0  0  0  0  0
  187.2690  177.2420  144.9870 C   0  0  2  0  0  3  0  0  0  0  0  0
  189.6170  177.1620  144.2580 C   0  0  0  0  0  3  0  0  0  0  0  0
  185.2210  178.5610  145.4570 C   0  0  0  0  0  0  0  0  0  0  0  0
  185.5990  178.6330  146.8870 C   0  0  0  0  0  3  0  0  0  0  0  0
  191.3120  177.0340  145.9700 O   0  0  0  0  0  0  0  0  0  0  0  0
  192.4540  175.6260  147.5180 C   0  0  0  0  0  1  0  0  0  0  0  0
  191.3150  176.6010  147.3010 C   0  0  0  0  0  2  0  0  0  0  0  0
  1 19  1  0  0  0  0
  2 13  2  0  0  0  0
  5  4  1  1  0  0  0
  5  8  1  0  0  0  0
  5  6  1  0  0  0  0
  7  9  1  0  0  0  0
  7  3  1  0  0  0  0
  8  3  1  6  0  0  0
  8  1  1  0  0  0  0
  9  5  1  0  0  0  0
 10  2  1  0  0  0  0
 10 11  1  0  0  0  0
 11 12  2  0  0  0  0
 12 14  1  0  0  0  0
 13  3  1  0  0  0  0
 13 15  1  0  0  0  0
 15 14  2  0  0  0  0
 15  1  1  0  0  0  0
 16 18  1  0  0  0  0
 16 11  1  1  0  0  0
 17 16  1  0  0  0  0
 17 18  1  0  0  0  0
 19 20  1  0  0  0  0
 20 21  1  0  0  0  0
 21 30  1  0  0  0  0
 23 28  1  0  0  0  0
 23 30  2  0  0  0  0
 24 32  1  0  0  0  0
 24 25  1  0  0  0  0
 26 25  2  0  0  0  0
 26 22  1  0  0  0  0
 27 29  2  0  0  0  0
 28 27  1  6  0  0  0
 28 26  1  0  0  0  0
 29 24  1  0  0  0  0
 30 31  1  0  0  0  0
 31 22  2  0  0  0  0
 32 34  1  0  0  0  0
 34 33  1  0  0  0  0
M  END
>  <MODEL>
1

>  <REMARK>
 VINA RESULT:      -9.2      0.000      0.000
  Name = 
  7 active torsions:
  status: ('A' for Active; 'I' for Inactive)
    1  A    between atoms: N_1  and  C_9
    2  A    between atoms: C_3  and  C_25
    3  A    between atoms: N_7  and  O_11
    4  A    between atoms: C_8  and  C_9
    5  A    between atoms: C_8  and  C_18
    6  A    between atoms: O_11  and  C_21
    7  A    between atoms: C_18  and  C_30
                            x       y       z     vdW  Elec       q    Type
                         _______ _______ _______ _____ _____    ______ ____

>  <TORSDO>
F 7

$$$$
=
 OpenBabel10262423313D

 34 39  0  0  1  0  0  0  0  0999 V2000
  184.6370  178.5700  139.2750 N   0  0  0  0  0  0  0  0  0  0  0  0
  185.5460  176.9270  136.2090 C   0  0  0  0  0  3  0  0  0  0  0  0
  183.6710  177.0730  137.7490 N   0  0  0  0  0  0  0  0  0  0  0  0
  182.3860  180.2010  138.9070 C   0  0  0  0  0  1  0  0  0  0  0  0
  182.1800  178.7150  138.6470 C   0  0  2  0  0  0  0  0  0  0  0  0
  181.0970  178.2710  139.4080 O   0  0  0  0  0  1  0  0  0  0  0  0
  182.6060  177.2140  136.7760 C   0  0  0  0  0  2  0  0  0  0  0  0
  183.4010  177.8330  138.9660 C   0  0  2  0  0  3  0  0  0  0  0  0
  181.8730  178.4850  137.1700 C   0  0  0  0  0  2  0  0  0  0  0  0
  186.8710  177.4210  135.7280 C   0  0  0  0  0  2  0  0  0  0  0  0
  188.0100  177.1110  136.6530 C   0  0  0  0  0  0  0  0  0  0  0  0
  188.0490  177.5460  137.9180 C   0  0  0  0  0  3  0  0  0  0  0  0
  185.0340  177.2810  137.3900 C   0  0  0  0  0  0  0  0  0  0  0  0
  186.9630  178.2160  138.6570 C   0  0  0  0  0  3  0  0  0  0  0  0
  185.6560  178.1230  138.3860 C   0  0  0  0  0  0  0  0  0  0  0  0
  189.2040  176.3890  136.1060 C   0  0  1  0  0  3  0  0  0  0  0  0
  189.0660  174.9200  136.2540 C   0  0  0  0  0  2  0  0  0  0  0  0
  188.8150  175.5640  135.0300 O   0  0  0  0  0  0  0  0  0  0  0  0
  184.9070  179.1460  140.5900 C   0  0  0  0  0  2  0  0  0  0  0  0
  184.3070  178.2650  141.6760 C   0  0  0  0  0  2  0  0  0  0  0  0
  184.2070  179.0280  142.9900 C   0  0  0  0  0  2  0  0  0  0  0  0
  185.7070  178.3280  146.4030 C   0  0  0  0  0  3  0  0  0  0  0  0
  186.2370  177.8030  143.6320 C   0  0  0  0  0  3  0  0  0  0  0  0
  189.2960  177.2000  146.4510 N   0  0  0  0  0  0  0  0  0  0  0  0
  188.0120  177.6810  146.8830 C   0  0  0  0  0  3  0  0  0  0  0  0
  186.9980  177.7390  146.0170 C   0  0  0  0  0  0  0  0  0  0  0  0
  188.5770  177.1000  144.1590 C   0  0  0  0  0  3  0  0  0  0  0  0
  187.1510  177.1520  144.6320 C   0  0  2  0  0  3  0  0  0  0  0  0
  189.5740  177.0730  145.0470 C   0  0  0  0  0  3  0  0  0  0  0  0
  185.1290  178.4520  144.0170 C   0  0  0  0  0  0  0  0  0  0  0  0
  184.8240  178.6510  145.4530 C   0  0  0  0  0  3  0  0  0  0  0  0
  190.3140  177.1280  147.3420 O   0  0  0  0  0  0  0  0  0  0  0  0
  192.1860  175.6530  147.2970 C   0  0  0  0  0  1  0  0  0  0  0  0
  191.4360  176.7630  146.5890 C   0  0  0  0  0  2  0  0  0  0  0  0
  1 19  1  0  0  0  0
  2 13  2  0  0  0  0
  5  4  1  1  0  0  0
  5  8  1  0  0  0  0
  5  6  1  0  0  0  0
  7  9  1  0  0  0  0
  7  3  1  0  0  0  0
  8  3  1  6  0  0  0
  8  1  1  0  0  0  0
  9  5  1  0  0  0  0
 10  2  1  0  0  0  0
 10 11  1  0  0  0  0
 11 12  2  0  0  0  0
 12 14  1  0  0  0  0
 13  3  1  0  0  0  0
 13 15  1  0  0  0  0
 15 14  2  0  0  0  0
 15  1  1  0  0  0  0
 16 17  1  0  0  0  0
 16 11  1  1  0  0  0
 18 16  1  0  0  0  0
 18 17  1  0  0  0  0
 19 20  1  0  0  0  0
 20 21  1  0  0  0  0
 21 30  1  0  0  0  0
 23 30  2  0  0  0  0
 24 25  1  0  0  0  0
 24 32  1  0  0  0  0
 26 22  1  0  0  0  0
 26 25  2  0  0  0  0
 27 28  1  0  0  0  0
 27 29  2  0  0  0  0
 28 23  1  6  0  0  0
 28 26  1  0  0  0  0
 29 24  1  0  0  0  0
 30 31  1  0  0  0  0
 31 22  2  0  0  0  0
 34 33  1  0  0  0  0
 34 32  1  0  0  0  0
M  END
>  <MODEL>
2

>  <REMARK>
 VINA RESULT:      -9.1      1.986      2.575
  Name = 
  7 active torsions:
  status: ('A' for Active; 'I' for Inactive)
    1  A    between atoms: N_1  and  C_9
    2  A    between atoms: C_3  and  C_25
    3  A    between atoms: N_7  and  O_11
    4  A    between atoms: C_8  and  C_9
    5  A    between atoms: C_8  and  C_18
    6  A    between atoms: O_11  and  C_21
    7  A    between atoms: C_18  and  C_30
                            x       y       z     vdW  Elec       q    Type
                         _______ _______ _______ _____ _____    ______ ____

>  <TORSDO>
F 7

$$$$
=
 OpenBabel10262423313D

 34 39  0  0  1  0  0  0  0  0999 V2000
  183.7080  178.2380  139.6440 N   0  0  0  0  0  0  0  0  0  0  0  0
  184.1190  176.3960  136.5840 C   0  0  0  0  0  3  0  0  0  0  0  0
  182.7480  176.3750  138.5910 N   0  0  0  0  0  0  0  0  0  0  0  0
  181.1240  179.3090  139.8270 C   0  0  0  0  0  1  0  0  0  0  0  0
  181.2110  177.7910  139.7560 C   0  0  2  0  0  0  0  0  0  0  0  0
  180.5080  177.2490  140.8340 O   0  0  0  0  0  1  0  0  0  0  0  0
  181.4590  176.1570  137.9650 C   0  0  0  0  0  2  0  0  0  0  0  0
  182.6440  177.2290  139.7700 C   0  0  2  0  0  3  0  0  0  0  0  0
  180.5800  177.2960  138.4570 C   0  0  0  0  0  2  0  0  0  0  0  0
  185.1120  177.0750  135.6980 C   0  0  0  0  0  2  0  0  0  0  0  0
  186.4970  177.1370  136.2690 C   0  0  0  0  0  0  0  0  0  0  0  0
  186.7710  177.7460  137.4280 C   0  0  0  0  0  3  0  0  0  0  0  0
  183.8760  176.8020  137.8320 C   0  0  0  0  0  0  0  0  0  0  0  0
  185.7990  178.2800  138.3990 C   0  0  0  0  0  3  0  0  0  0  0  0
  184.5270  177.8850  138.5320 C   0  0  0  0  0  0  0  0  0  0  0  0
  187.6350  176.6020  135.4530 C   0  0  1  0  0  3  0  0  0  0  0  0
  188.1250  175.3080  135.9860 C   0  0  0  0  0  2  0  0  0  0  0  0
  187.2720  175.3690  134.8710 O   0  0  0  0  0  0  0  0  0  0  0  0
  184.1790  179.0370  140.7720 C   0  0  0  0  0  2  0  0  0  0  0  0
  184.1090  178.2190  142.0530 C   0  0  0  0  0  2  0  0  0  0  0  0
  184.2270  179.1230  143.2730 C   0  0  0  0  0  2  0  0  0  0  0  0
  185.7630  178.4240  146.6700 C   0  0  0  0  0  3  0  0  0  0  0  0
  186.2240  177.8370  143.9000 C   0  0  0  0  0  3  0  0  0  0  0  0
  189.3100  177.1700  146.6750 N   0  0  0  0  0  0  0  0  0  0  0  0
  188.0510  177.7040  147.1210 C   0  0  0  0  0  3  0  0  0  0  0  0
  187.0250  177.7840  146.2720 C   0  0  0  0  0  0  0  0  0  0  0  0
  188.5460  177.0600  144.3980 C   0  0  0  0  0  3  0  0  0  0  0  0
  187.1320  177.1700  144.8950 C   0  0  2  0  0  3  0  0  0  0  0  0
  189.5580  177.0110  145.2680 C   0  0  0  0  0  3  0  0  0  0  0  0
  185.1470  178.5310  144.2930 C   0  0  0  0  0  0  0  0  0  0  0  0
  184.8750  178.7630  145.7300 C   0  0  0  0  0  3  0  0  0  0  0  0
  190.3410  177.0760  147.5490 O   0  0  0  0  0  0  0  0  0  0  0  0
  192.2640  175.6720  147.4390 C   0  0  0  0  0  1  0  0  0  0  0  0
  191.4590  176.7660  146.7660 C   0  0  0  0  0  2  0  0  0  0  0  0
  1  8  1  0  0  0  0
  1 19  1  0  0  0  0
  2 13  2  0  0  0  0
  5  8  1  0  0  0  0
  5  4  1  1  0  0  0
  5  6  1  0  0  0  0
  7  9  1  0  0  0  0
  7  3  1  0  0  0  0
  8  3  1  6  0  0  0
  9  5  1  0  0  0  0
 10 11  1  0  0  0  0
 10  2  1  0  0  0  0
 11 12  2  0  0  0  0
 12 14  1  0  0  0  0
 13 15  1  0  0  0  0
 13  3  1  0  0  0  0
 14 15  2  0  0  0  0
 15  1  1  0  0  0  0
 16 17  1  0  0  0  0
 16 11  1  1  0  0  0
 18 16  1  0  0  0  0
 18 17  1  0  0  0  0
 19 20  1  0  0  0  0
 20 21  1  0  0  0  0
 21 30  1  0  0  0  0
 23 30  2  0  0  0  0
 24 25  1  0  0  0  0
 24 32  1  0  0  0  0
 26 22  1  0  0  0  0
 26 25  2  0  0  0  0
 27 28  1  0  0  0  0
 27 29  2  0  0  0  0
 28 23  1  6  0  0  0
 28 26  1  0  0  0  0
 29 24  1  0  0  0  0
 30 31  1  0  0  0  0
 31 22  2  0  0  0  0
 34 33  1  0  0  0  0
 34 32  1  0  0  0  0
M  END
>  <MODEL>
3

>  <REMARK>
 VINA RESULT:      -8.9      1.807      2.195
  Name = 
  7 active torsions:
  status: ('A' for Active; 'I' for Inactive)
    1  A    between atoms: N_1  and  C_9
    2  A    between atoms: C_3  and  C_25
    3  A    between atoms: N_7  and  O_11
    4  A    between atoms: C_8  and  C_9
    5  A    between atoms: C_8  and  C_18
    6  A    between atoms: O_11  and  C_21
    7  A    between atoms: C_18  and  C_30
                            x       y       z     vdW  Elec       q    Type
                         _______ _______ _______ _____ _____    ______ ____

>  <TORSDO>
F 7

$$$$
=
 OpenBabel10262423313D

 34 39  0  0  1  0  0  0  0  0999 V2000
  188.1710  178.0670  145.4470 N   0  0  0  0  0  0  0  0  0  0  0  0
  190.7360  176.6720  143.3490 C   0  0  0  0  0  3  0  0  0  0  0  0
  190.4930  177.7360  145.5210 N   0  0  0  0  0  0  0  0  0  0  0  0
  188.0250  176.7020  147.8910 C   0  0  0  0  0  1  0  0  0  0  0  0
  189.3480  177.3940  147.5940 C   0  0  2  0  0  0  0  0  0  0  0  0
  189.6700  178.2280  148.6660 O   0  0  0  0  0  1  0  0  0  0  0  0
  191.3320  176.8410  146.2920 C   0  0  0  0  0  2  0  0  0  0  0  0
  189.3600  178.2270  146.3000 C   0  0  2  0  0  3  0  0  0  0  0  0
  190.4520  176.3520  147.4310 C   0  0  0  0  0  2  0  0  0  0  0  0
  190.1300  176.0370  142.1400 C   0  0  0  0  0  2  0  0  0  0  0  0
  189.4150  177.0000  141.2400 C   0  0  0  0  0  0  0  0  0  0  0  0
  188.3790  177.7390  141.6540 C   0  0  0  0  0  3  0  0  0  0  0  0
  190.0170  177.3740  144.2270 C   0  0  0  0  0  0  0  0  0  0  0  0
  187.8870  177.8770  143.0380 C   0  0  0  0  0  3  0  0  0  0  0  0
  188.6050  177.6720  144.1480 C   0  0  0  0  0  0  0  0  0  0  0  0
  189.7970  177.0500  139.7920 C   0  0  1  0  0  3  0  0  0  0  0  0
  191.2590  177.2230  139.6210 C   0  0  0  0  0  2  0  0  0  0  0  0
  190.6450  175.9660  139.4810 O   0  0  0  0  0  0  0  0  0  0  0  0
  186.9150  178.7680  145.7000 C   0  0  0  0  0  2  0  0  0  0  0  0
  185.7380  177.8630  145.3640 C   0  0  0  0  0  2  0  0  0  0  0  0
  184.4310  178.6420  145.4200 C   0  0  0  0  0  2  0  0  0  0  0  0
  183.8970  178.2940  141.6810 C   0  0  0  0  0  3  0  0  0  0  0  0
  182.3990  178.8710  144.0590 C   0  0  0  0  0  3  0  0  0  0  0  0
  180.6940  179.7160  140.3110 N   0  0  0  0  0  0  0  0  0  0  0  0
  182.0200  179.1630  140.3850 C   0  0  0  0  0  3  0  0  0  0  0  0
  182.5090  178.7620  141.5600 C   0  0  0  0  0  0  0  0  0  0  0  0
  180.4730  179.7090  142.7050 C   0  0  0  0  0  3  0  0  0  0  0  0
  181.6180  178.7390  142.7820 C   0  0  2  0  0  3  0  0  0  0  0  0
  180.0220  180.1180  141.5170 C   0  0  0  0  0  3  0  0  0  0  0  0
  183.7030  178.5640  144.1160 C   0  0  0  0  0  0  0  0  0  0  0  0
  184.4510  178.1920  142.8930 C   0  0  0  0  0  3  0  0  0  0  0  0
  180.2000  180.1030  139.1110 O   0  0  0  0  0  0  0  0  0  0  0  0
  181.2880  181.9910  138.1450 C   0  0  0  0  0  1  0  0  0  0  0  0
  180.2450  181.5020  139.1290 C   0  0  0  0  0  2  0  0  0  0  0  0
  1 19  1  0  0  0  0
  2 13  2  0  0  0  0
  3  7  1  0  0  0  0
  3  8  1  0  0  0  0
  5  4  1  1  0  0  0
  5  6  1  0  0  0  0
  7  9  1  0  0  0  0
  8  1  1  6  0  0  0
  8  5  1  0  0  0  0
  9  5  1  0  0  0  0
 10  2  1  0  0  0  0
 11 12  2  0  0  0  0
 11 10  1  0  0  0  0
 12 14  1  0  0  0  0
 13  3  1  0  0  0  0
 14 15  2  0  0  0  0
 15 13  1  0  0  0  0
 15  1  1  0  0  0  0
 16 11  1  1  0  0  0
 17 16  1  0  0  0  0
 18 17  1  0  0  0  0
 18 16  1  0  0  0  0
 20 21  1  0  0  0  0
 20 19  1  0  0  0  0
 22 31  2  0  0  0  0
 23 30  2  0  0  0  0
 24 25  1  0  0  0  0
 24 29  1  0  0  0  0
 25 26  2  0  0  0  0
 26 22  1  0  0  0  0
 26 28  1  0  0  0  0
 28 27  1  6  0  0  0
 28 23  1  0  0  0  0
 29 27  2  0  0  0  0
 30 21  1  0  0  0  0
 31 30  1  0  0  0  0
 32 34  1  0  0  0  0
 32 24  1  0  0  0  0
 33 34  1  0  0  0  0
M  END
>  <MODEL>
4

>  <REMARK>
 VINA RESULT:      -8.7      2.129      8.588
  Name = 
  7 active torsions:
  status: ('A' for Active; 'I' for Inactive)
    1  A    between atoms: N_1  and  C_9
    2  A    between atoms: C_3  and  C_25
    3  A    between atoms: N_7  and  O_11
    4  A    between atoms: C_8  and  C_9
    5  A    between atoms: C_8  and  C_18
    6  A    between atoms: O_11  and  C_21
    7  A    between atoms: C_18  and  C_30
                            x       y       z     vdW  Elec       q    Type
                         _______ _______ _______ _____ _____    ______ ____

>  <TORSDO>
F 7

$$$$
=
 OpenBabel10262423313D

 34 39  0  0  1  0  0  0  0  0999 V2000
  189.5130  177.8270  142.3320 N   0  0  0  0  0  0  0  0  0  0  0  0
  186.1050  178.0690  143.4520 C   0  0  0  0  0  3  0  0  0  0  0  0
  188.1720  176.9310  144.0350 N   0  0  0  0  0  0  0  0  0  0  0  0
  191.2870  178.6570  144.3370 C   0  0  0  0  0  1  0  0  0  0  0  0
  190.4170  177.4540  144.6750 C   0  0  2  0  0  0  0  0  0  0  0  0
  191.2400  176.4070  145.0960 O   0  0  0  0  0  1  0  0  0  0  0  0
  188.1340  177.1420  145.4690 C   0  0  0  0  0  2  0  0  0  0  0  0
  189.5360  176.9530  143.5160 C   0  0  2  0  0  3  0  0  0  0  0  0
  189.4570  177.8110  145.8070 C   0  0  0  0  0  2  0  0  0  0  0  0
  185.3740  179.1120  142.6700 C   0  0  0  0  0  2  0  0  0  0  0  0
  185.2500  178.8020  141.2080 C   0  0  0  0  0  0  0  0  0  0  0  0
  186.3150  178.6270  140.4170 C   0  0  0  0  0  3  0  0  0  0  0  0
  187.3490  177.6900  143.1540 C   0  0  0  0  0  0  0  0  0  0  0  0
  187.7240  178.5280  140.8380 C   0  0  0  0  0  3  0  0  0  0  0  0
  188.1560  178.1580  142.0500 C   0  0  0  0  0  0  0  0  0  0  0  0
  183.8870  178.8070  140.5860 C   0  0  1  0  0  3  0  0  0  0  0  0
  183.1980  177.5080  140.7750 C   0  0  0  0  0  2  0  0  0  0  0  0
  182.9040  178.6220  141.5800 O   0  0  0  0  0  0  0  0  0  0  0  0
  190.5690  177.8210  141.3230 C   0  0  0  0  0  2  0  0  0  0  0  0
  190.4730  176.5590  140.4780 C   0  0  0  0  0  2  0  0  0  0  0  0
  190.9180  176.8370  139.0480 C   0  0  0  0  0  2  0  0  0  0  0  0
  188.2920  178.6520  137.0010 C   0  0  0  0  0  3  0  0  0  0  0  0
  188.9570  175.9890  137.8360 C   0  0  0  0  0  3  0  0  0  0  0  0
  185.1300  176.7470  136.2710 N   0  0  0  0  0  0  0  0  0  0  0  0
  186.0760  177.8230  136.3980 C   0  0  0  0  0  3  0  0  0  0  0  0
  187.3340  177.5630  136.7590 C   0  0  0  0  0  0  0  0  0  0  0  0
  186.6980  175.1580  137.1650 C   0  0  0  0  0  3  0  0  0  0  0  0
  187.8070  176.1320  136.8790 C   0  0  2  0  0  3  0  0  0  0  0  0
  185.4420  175.4560  136.8190 C   0  0  0  0  0  3  0  0  0  0  0  0
  189.7410  177.0320  138.1470 C   0  0  0  0  0  0  0  0  0  0  0  0
  189.4330  178.3910  137.6460 C   0  0  0  0  0  3  0  0  0  0  0  0
  183.8600  177.0190  135.8860 O   0  0  0  0  0  0  0  0  0  0  0  0
  182.3110  178.2500  137.2160 C   0  0  0  0  0  1  0  0  0  0  0  0
  183.1010  176.9660  137.0610 C   0  0  0  0  0  2  0  0  0  0  0  0
  3  7  1  0  0  0  0
  5  4  1  6  0  0  0
  5  6  1  0  0  0  0
  5  9  1  0  0  0  0
  7  9  1  0  0  0  0
  8  1  1  6  0  0  0
  8  3  1  0  0  0  0
  8  5  1  0  0  0  0
 10  2  1  0  0  0  0
 11 10  1  0  0  0  0
 12 14  1  0  0  0  0
 12 11  2  0  0  0  0
 13  2  2  0  0  0  0
 13  3  1  0  0  0  0
 14 15  2  0  0  0  0
 15  1  1  0  0  0  0
 15 13  1  0  0  0  0
 16 17  1  0  0  0  0
 16 11  1  1  0  0  0
 16 18  1  0  0  0  0
 17 18  1  0  0  0  0
 19  1  1  0  0  0  0
 20 19  1  0  0  0  0
 21 20  1  0  0  0  0
 22 31  2  0  0  0  0
 23 30  2  0  0  0  0
 24 25  1  0  0  0  0
 24 29  1  0  0  0  0
 25 26  2  0  0  0  0
 26 28  1  0  0  0  0
 26 22  1  0  0  0  0
 28 27  1  1  0  0  0
 28 23  1  0  0  0  0
 29 27  2  0  0  0  0
 30 21  1  0  0  0  0
 31 30  1  0  0  0  0
 32 24  1  0  0  0  0
 32 34  1  0  0  0  0
 34 33  1  0  0  0  0
M  END
>  <MODEL>
5

>  <REMARK>
 VINA RESULT:      -8.4      2.716      8.828
  Name = 
  7 active torsions:
  status: ('A' for Active; 'I' for Inactive)
    1  A    between atoms: N_1  and  C_9
    2  A    between atoms: C_3  and  C_25
    3  A    between atoms: N_7  and  O_11
    4  A    between atoms: C_8  and  C_9
    5  A    between atoms: C_8  and  C_18
    6  A    between atoms: O_11  and  C_21
    7  A    between atoms: C_18  and  C_30
                            x       y       z     vdW  Elec       q    Type
                         _______ _______ _______ _____ _____    ______ ____

>  <TORSDO>
F 7

$$$$
=
 OpenBabel10262423313D

 34 39  0  0  1  0  0  0  0  0999 V2000
  185.3350  178.1510  138.9940 N   0  0  0  0  0  0  0  0  0  0  0  0
  184.5690  175.8090  136.3760 C   0  0  0  0  0  3  0  0  0  0  0  0
  186.1790  177.5570  136.8870 N   0  0  0  0  0  0  0  0  0  0  0  0
  187.9110  177.7090  140.0100 C   0  0  0  0  0  1  0  0  0  0  0  0
  187.8320  178.0800  138.5360 C   0  0  2  0  0  0  0  0  0  0  0  0
  188.6690  179.1730  138.3010 O   0  0  0  0  0  1  0  0  0  0  0  0
  187.3830  176.8670  136.4710 C   0  0  0  0  0  2  0  0  0  0  0  0
  186.4180  178.4270  138.0350 C   0  0  2  0  0  3  0  0  0  0  0  0
  188.3030  176.9070  137.6810 C   0  0  0  0  0  2  0  0  0  0  0  0
  183.4670  174.8950  136.8030 C   0  0  0  0  0  2  0  0  0  0  0  0
  182.1630  175.5900  137.0560 C   0  0  0  0  0  0  0  0  0  0  0  0
  182.0270  176.5550  137.9730 C   0  0  0  0  0  3  0  0  0  0  0  0
  184.9610  176.8520  137.1100 C   0  0  0  0  0  0  0  0  0  0  0  0
  183.1070  177.2100  138.7350 C   0  0  0  0  0  3  0  0  0  0  0  0
  184.3900  177.2930  138.3630 C   0  0  0  0  0  0  0  0  0  0  0  0
  180.9390  175.1030  136.3410 C   0  0  1  0  0  3  0  0  0  0  0  0
  180.1610  174.1580  137.1770 C   0  0  0  0  0  2  0  0  0  0  0  0
  179.7820  175.5040  137.0410 O   0  0  0  0  0  0  0  0  0  0  0  0
  184.9990  179.0570  140.0890 C   0  0  0  0  0  2  0  0  0  0  0  0
  184.5670  178.2580  141.3100 C   0  0  0  0  0  2  0  0  0  0  0  0
  184.5620  179.1390  142.5520 C   0  0  0  0  0  2  0  0  0  0  0  0
  185.7350  178.3620  146.0740 C   0  0  0  0  0  3  0  0  0  0  0  0
  186.4950  177.8530  143.3550 C   0  0  0  0  0  3  0  0  0  0  0  0
  189.2740  177.1360  146.4250 N   0  0  0  0  0  0  0  0  0  0  0  0
  187.9700  177.6480  146.7480 C   0  0  0  0  0  3  0  0  0  0  0  0
  187.0390  177.7430  145.7970 C   0  0  0  0  0  0  0  0  0  0  0  0
  188.7590  177.0810  144.0770 C   0  0  0  0  0  3  0  0  0  0  0  0
  187.2990  177.1670  144.4230 C   0  0  2  0  0  3  0  0  0  0  0  0
  189.6730  177.0170  145.0490 C   0  0  0  0  0  3  0  0  0  0  0  0
  185.3740  178.5280  143.6490 C   0  0  0  0  0  0  0  0  0  0  0  0
  184.9480  178.7190  145.0540 C   0  0  0  0  0  3  0  0  0  0  0  0
  190.2070  177.0270  147.4010 O   0  0  0  0  0  0  0  0  0  0  0  0
  192.1630  175.6710  147.5220 C   0  0  0  0  0  1  0  0  0  0  0  0
  191.4000  176.7180  146.7370 C   0  0  0  0  0  2  0  0  0  0  0  0
  1 19  1  0  0  0  0
  2 10  1  0  0  0  0
  2 13  2  0  0  0  0
  3 13  1  0  0  0  0
  5  4  1  1  0  0  0
  6  5  1  0  0  0  0
  7  3  1  0  0  0  0
  7  9  1  0  0  0  0
  8  3  1  6  0  0  0
  8  5  1  0  0  0  0
  8  1  1  0  0  0  0
  9  5  1  0  0  0  0
 10 11  1  0  0  0  0
 11 12  2  0  0  0  0
 12 14  1  0  0  0  0
 13 15  1  0  0  0  0
 15 14  2  0  0  0  0
 15  1  1  0  0  0  0
 16 18  1  0  0  0  0
 16 11  1  1  0  0  0
 16 17  1  0  0  0  0
 18 17  1  0  0  0  0
 19 20  1  0  0  0  0
 20 21  1  0  0  0  0
 21 30  1  0  0  0  0
 23 30  2  0  0  0  0
 24 25  1  0  0  0  0
 24 32  1  0  0  0  0
 26 22  1  0  0  0  0
 26 25  2  0  0  0  0
 27 28  1  0  0  0  0
 27 29  2  0  0  0  0
 28 23  1  6  0  0  0
 28 26  1  0  0  0  0
 29 24  1  0  0  0  0
 30 31  1  0  0  0  0
 31 22  2  0  0  0  0
 34 32  1  0  0  0  0
 34 33  1  0  0  0  0
M  END
>  <MODEL>
6

>  <REMARK>
 VINA RESULT:      -8.4      2.056      4.932
  Name = 
  7 active torsions:
  status: ('A' for Active; 'I' for Inactive)
    1  A    between atoms: N_1  and  C_9
    2  A    between atoms: C_3  and  C_25
    3  A    between atoms: N_7  and  O_11
    4  A    between atoms: C_8  and  C_9
    5  A    between atoms: C_8  and  C_18
    6  A    between atoms: O_11  and  C_21
    7  A    between atoms: C_18  and  C_30
                            x       y       z     vdW  Elec       q    Type
                         _______ _______ _______ _____ _____    ______ ____

>  <TORSDO>
F 7

$$$$
=
 OpenBabel10262423313D

 34 39  0  0  1  0  0  0  0  0999 V2000
  187.3090  178.0200  138.6930 N   0  0  0  0  0  0  0  0  0  0  0  0
  190.5230  176.5800  139.4180 C   0  0  0  0  0  3  0  0  0  0  0  0
  188.6300  176.2350  137.9330 N   0  0  0  0  0  0  0  0  0  0  0  0
  187.1810  178.8930  136.0310 C   0  0  0  0  0  1  0  0  0  0  0  0
  187.4180  177.4020  136.2310 C   0  0  2  0  0  0  0  0  0  0  0  0
  186.4590  176.6920  135.5060 O   0  0  0  0  0  1  0  0  0  0  0  0
  189.3620  176.0100  136.7030 C   0  0  0  0  0  2  0  0  0  0  0  0
  187.3710  176.9360  137.6980 C   0  0  2  0  0  3  0  0  0  0  0  0
  188.8050  177.0240  135.7170 C   0  0  0  0  0  2  0  0  0  0  0  0
  191.2570  177.4220  140.4100 C   0  0  0  0  0  2  0  0  0  0  0  0
  190.5900  177.5050  141.7510 C   0  0  0  0  0  0  0  0  0  0  0  0
  189.3530  177.9890  141.9100 C   0  0  0  0  0  3  0  0  0  0  0  0
  189.2570  176.8200  139.0710 C   0  0  0  0  0  0  0  0  0  0  0  0
  188.3960  178.3420  140.8450 C   0  0  0  0  0  3  0  0  0  0  0  0
  188.3950  177.8530  139.5990 C   0  0  0  0  0  0  0  0  0  0  0  0
  191.3820  177.1440  142.9710 C   0  0  1  0  0  3  0  0  0  0  0  0
  191.8450  178.3520  143.6950 C   0  0  0  0  0  2  0  0  0  0  0  0
  190.7270  177.6190  144.1270 O   0  0  0  0  0  0  0  0  0  0  0  0
  186.0680  178.7090  139.0360 C   0  0  0  0  0  2  0  0  0  0  0  0
  185.2780  177.8860  140.0440 C   0  0  0  0  0  2  0  0  0  0  0  0
  184.3770  178.7840  140.8800 C   0  0  0  0  0  2  0  0  0  0  0  0
  183.7940  179.0170  144.6200 C   0  0  0  0  0  3  0  0  0  0  0  0
  185.6800  177.9030  142.7670 C   0  0  0  0  0  3  0  0  0  0  0  0
  186.7350  178.2120  146.8240 N   0  0  0  0  0  0  0  0  0  0  0  0
  185.4490  178.6800  146.3830 C   0  0  0  0  0  3  0  0  0  0  0  0
  185.0540  178.4570  145.1280 C   0  0  0  0  0  0  0  0  0  0  0  0
  187.3360  177.5250  144.5990 C   0  0  0  0  0  3  0  0  0  0  0  0
  185.8830  177.5760  144.2200 C   0  0  2  0  0  3  0  0  0  0  0  0
  187.7070  177.7820  145.8560 C   0  0  0  0  0  3  0  0  0  0  0  0
  184.5770  178.5370  142.3410 C   0  0  0  0  0  0  0  0  0  0  0  0
  183.5700  179.0410  143.3020 C   0  0  0  0  0  3  0  0  0  0  0  0
  187.1190  178.4280  148.1050 O   0  0  0  0  0  0  0  0  0  0  0  0
  189.4320  178.2610  148.6570 C   0  0  0  0  0  1  0  0  0  0  0  0
  188.1530  177.5140  148.3370 C   0  0  0  0  0  2  0  0  0  0  0  0
  1 19  1  0  0  0  0
  1 15  1  0  0  0  0
  2 10  1  0  0  0  0
  3 13  1  0  0  0  0
  5  4  1  6  0  0  0
  5  8  1  0  0  0  0
  6  5  1  0  0  0  0
  7  3  1  0  0  0  0
  8  3  1  1  0  0  0
  8  1  1  0  0  0  0
  9  5  1  0  0  0  0
  9  7  1  0  0  0  0
 10 11  1  0  0  0  0
 11 12  2  0  0  0  0
 13  2  2  0  0  0  0
 13 15  1  0  0  0  0
 14 12  1  0  0  0  0
 15 14  2  0  0  0  0
 16 11  1  6  0  0  0
 16 17  1  0  0  0  0
 16 18  1  0  0  0  0
 17 18  1  0  0  0  0
 19 20  1  0  0  0  0
 20 21  1  0  0  0  0
 21 30  1  0  0  0  0
 22 26  1  0  0  0  0
 24 32  1  0  0  0  0
 25 24  1  0  0  0  0
 26 25  2  0  0  0  0
 27 29  2  0  0  0  0
 28 23  1  6  0  0  0
 28 27  1  0  0  0  0
 28 26  1  0  0  0  0
 29 24  1  0  0  0  0
 30 23  2  0  0  0  0
 30 31  1  0  0  0  0
 31 22  2  0  0  0  0
 32 34  1  0  0  0  0
 34 33  1  0  0  0  0
M  END
>  <MODEL>
7

>  <REMARK>
 VINA RESULT:      -8.3      3.112      5.531
  Name = 
  7 active torsions:
  status: ('A' for Active; 'I' for Inactive)
    1  A    between atoms: N_1  and  C_9
    2  A    between atoms: C_3  and  C_25
    3  A    between atoms: N_7  and  O_11
    4  A    between atoms: C_8  and  C_9
    5  A    between atoms: C_8  and  C_18
    6  A    between atoms: O_11  and  C_21
    7  A    between atoms: C_18  and  C_30
                            x       y       z     vdW  Elec       q    Type
                         _______ _______ _______ _____ _____    ______ ____

>  <TORSDO>
F 7

$$$$
=
 OpenBabel10262423313D

 34 39  0  0  1  0  0  0  0  0999 V2000
  181.1870  178.6540  139.7130 N   0  0  0  0  0  0  0  0  0  0  0  0
  180.8820  180.2300  136.4950 C   0  0  0  0  0  3  0  0  0  0  0  0
  182.1460  178.4600  137.5810 N   0  0  0  0  0  0  0  0  0  0  0  0
  180.5780  175.9220  139.5510 C   0  0  0  0  0  1  0  0  0  0  0  0
  181.7650  176.3900  138.7190 C   0  0  2  0  0  0  0  0  0  0  0  0
  182.8720  175.5990  139.0310 O   0  0  0  0  0  1  0  0  0  0  0  0
  182.0360  177.4530  136.5440 C   0  0  0  0  0  2  0  0  0  0  0  0
  182.1430  177.8690  138.9160 C   0  0  2  0  0  3  0  0  0  0  0  0
  181.4500  176.2320  137.2340 C   0  0  0  0  0  2  0  0  0  0  0  0
  179.7560  181.2120  136.5020 C   0  0  0  0  0  2  0  0  0  0  0  0
  179.9550  182.3600  137.4470 C   0  0  0  0  0  0  0  0  0  0  0  0
  180.1170  182.1880  138.7640 C   0  0  0  0  0  3  0  0  0  0  0  0
  181.2910  179.6000  137.5980 C   0  0  0  0  0  0  0  0  0  0  0  0
  180.3060  180.9100  139.4740 C   0  0  0  0  0  3  0  0  0  0  0  0
  180.7790  179.7780  138.9380 C   0  0  0  0  0  0  0  0  0  0  0  0
  179.8480  183.7560  136.9130 C   0  0  1  0  0  3  0  0  0  0  0  0
  181.1820  184.3850  136.7650 C   0  0  0  0  0  2  0  0  0  0  0  0
  180.4960  183.8440  135.6640 O   0  0  0  0  0  0  0  0  0  0  0  0
  181.1650  178.6290  141.1730 C   0  0  0  0  0  2  0  0  0  0  0  0
  182.5720  178.4120  141.7100 C   0  0  0  0  0  2  0  0  0  0  0  0
  182.6490  178.7960  143.1810 C   0  0  0  0  0  2  0  0  0  0  0  0
  186.3230  177.8590  143.2560 C   0  0  0  0  0  3  0  0  0  0  0  0
  184.3170  178.9770  144.9750 C   0  0  0  0  0  3  0  0  0  0  0  0
  187.9110  177.5890  146.6560 N   0  0  0  0  0  0  0  0  0  0  0  0
  187.6970  177.4810  145.2380 C   0  0  0  0  0  3  0  0  0  0  0  0
  186.6230  178.0460  144.6830 C   0  0  0  0  0  0  0  0  0  0  0  0
  185.7650  178.6230  146.9810 C   0  0  0  0  0  3  0  0  0  0  0  0
  185.7210  178.9320  145.5110 C   0  0  2  0  0  3  0  0  0  0  0  0
  186.8400  178.0300  147.5070 C   0  0  0  0  0  3  0  0  0  0  0  0
  184.0470  178.6730  143.6970 C   0  0  0  0  0  0  0  0  0  0  0  0
  185.1070  178.1690  142.7950 C   0  0  0  0  0  3  0  0  0  0  0  0
  189.0130  177.0270  147.2080 O   0  0  0  0  0  0  0  0  0  0  0  0
  191.3500  176.8280  146.7840 C   0  0  0  0  0  1  0  0  0  0  0  0
  189.9710  177.0180  146.1870 C   0  0  0  0  0  2  0  0  0  0  0  0
  1 19  1  0  0  0  0
  2 10  1  0  0  0  0
  2 13  2  0  0  0  0
  3 13  1  0  0  0  0
  5  8  1  0  0  0  0
  5  6  1  0  0  0  0
  5  4  1  1  0  0  0
  7  9  1  0  0  0  0
  7  3  1  0  0  0  0
  8  3  1  6  0  0  0
  8  1  1  0  0  0  0
  9  5  1  0  0  0  0
 10 11  1  0  0  0  0
 11 12  2  0  0  0  0
 12 14  1  0  0  0  0
 13 15  1  0  0  0  0
 15 14  2  0  0  0  0
 15  1  1  0  0  0  0
 16 11  1  1  0  0  0
 17 16  1  0  0  0  0
 18 17  1  0  0  0  0
 18 16  1  0  0  0  0
 19 20  1  0  0  0  0
 20 21  1  0  0  0  0
 21 30  1  0  0  0  0
 22 26  1  0  0  0  0
 24 32  1  0  0  0  0
 24 29  1  0  0  0  0
 25 24  1  0  0  0  0
 26 25  2  0  0  0  0
 26 28  1  0  0  0  0
 27 29  2  0  0  0  0
 28 23  1  6  0  0  0
 28 27  1  0  0  0  0
 30 23  2  0  0  0  0
 31 22  2  0  0  0  0
 31 30  1  0  0  0  0
 34 33  1  0  0  0  0
 34 32  1  0  0  0  0
M  END
>  <MODEL>
8

>  <REMARK>
 VINA RESULT:      -8.3      2.908      4.648
  Name = 
  7 active torsions:
  status: ('A' for Active; 'I' for Inactive)
    1  A    between atoms: N_1  and  C_9
    2  A    between atoms: C_3  and  C_25
    3  A    between atoms: N_7  and  O_11
    4  A    between atoms: C_8  and  C_9
    5  A    between atoms: C_8  and  C_18
    6  A    between atoms: O_11  and  C_21
    7  A    between atoms: C_18  and  C_30
                            x       y       z     vdW  Elec       q    Type
                         _______ _______ _______ _____ _____    ______ ____

>  <TORSDO>
F 7

$$$$
=
 OpenBabel10262423313D

 34 39  0  0  1  0  0  0  0  0999 V2000
  181.9700  178.5540  139.5140 N   0  0  0  0  0  0  0  0  0  0  0  0
  181.1680  179.8530  136.2590 C   0  0  0  0  0  3  0  0  0  0  0  0
  182.3660  177.9960  137.2700 N   0  0  0  0  0  0  0  0  0  0  0  0
  180.9340  175.9690  139.8420 C   0  0  0  0  0  1  0  0  0  0  0  0
  181.9510  176.1400  138.7220 C   0  0  2  0  0  0  0  0  0  0  0  0
  182.9680  175.1990  138.8910 O   0  0  0  0  0  1  0  0  0  0  0  0
  181.8680  176.9330  136.4200 C   0  0  0  0  0  2  0  0  0  0  0  0
  182.5850  177.5410  138.6400 C   0  0  2  0  0  3  0  0  0  0  0  0
  181.2800  175.9050  137.3720 C   0  0  0  0  0  2  0  0  0  0  0  0
  180.2370  181.0160  136.3780 C   0  0  0  0  0  2  0  0  0  0  0  0
  180.8220  182.1930  137.1010 C   0  0  0  0  0  0  0  0  0  0  0  0
  181.2580  182.1180  138.3640 C   0  0  0  0  0  3  0  0  0  0  0  0
  181.7220  179.2660  137.3210 C   0  0  0  0  0  0  0  0  0  0  0  0
  181.4100  180.8970  139.1770 C   0  0  0  0  0  3  0  0  0  0  0  0
  181.5690  179.6550  138.7040 C   0  0  0  0  0  0  0  0  0  0  0  0
  180.8060  183.5310  136.4260 C   0  0  1  0  0  3  0  0  0  0  0  0
  180.3920  184.6050  137.3590 C   0  0  0  0  0  2  0  0  0  0  0  0
  181.7430  184.3890  137.0380 O   0  0  0  0  0  0  0  0  0  0  0  0
  182.2850  178.6680  140.9350 C   0  0  0  0  0  2  0  0  0  0  0  0
  183.6820  178.1270  141.2030 C   0  0  0  0  0  2  0  0  0  0  0  0
  184.5280  179.1660  141.9270 C   0  0  0  0  0  2  0  0  0  0  0  0
  185.5270  178.3280  145.4890 C   0  0  0  0  0  3  0  0  0  0  0  0
  186.4450  177.9050  142.8040 C   0  0  0  0  0  3  0  0  0  0  0  0
  189.0720  177.1770  146.0030 N   0  0  0  0  0  0  0  0  0  0  0  0
  187.7390  177.6500  146.2660 C   0  0  0  0  0  3  0  0  0  0  0  0
  186.8590  177.7470  145.2680 C   0  0  0  0  0  0  0  0  0  0  0  0
  188.6850  177.1680  143.6300 C   0  0  0  0  0  3  0  0  0  0  0  0
  187.2070  177.2110  143.8980 C   0  0  2  0  0  3  0  0  0  0  0  0
  189.5470  177.1010  144.6490 C   0  0  0  0  0  3  0  0  0  0  0  0
  185.2940  178.5460  143.0520 C   0  0  0  0  0  0  0  0  0  0  0  0
  184.7880  178.6920  144.4360 C   0  0  0  0  0  3  0  0  0  0  0  0
  189.9530  177.0650  147.0260 O   0  0  0  0  0  0  0  0  0  0  0  0
  192.0380  175.9710  147.3940 C   0  0  0  0  0  1  0  0  0  0  0  0
  191.1780  176.7540  146.4240 C   0  0  0  0  0  2  0  0  0  0  0  0
  1 19  1  0  0  0  0
  2 10  1  0  0  0  0
  2 13  2  0  0  0  0
  3 13  1  0  0  0  0
  5  6  1  0  0  0  0
  5  4  1  1  0  0  0
  7  3  1  0  0  0  0
  7  9  1  0  0  0  0
  8  3  1  6  0  0  0
  8  5  1  0  0  0  0
  8  1  1  0  0  0  0
  9  5  1  0  0  0  0
 10 11  1  0  0  0  0
 11 12  2  0  0  0  0
 12 14  1  0  0  0  0
 13 15  1  0  0  0  0
 15 14  2  0  0  0  0
 15  1  1  0  0  0  0
 16 18  1  0  0  0  0
 16 11  1  1  0  0  0
 16 17  1  0  0  0  0
 18 17  1  0  0  0  0
 19 20  1  0  0  0  0
 20 21  1  0  0  0  0
 21 30  1  0  0  0  0
 23 30  2  0  0  0  0
 24 25  1  0  0  0  0
 24 32  1  0  0  0  0
 26 22  1  0  0  0  0
 26 25  2  0  0  0  0
 27 28  1  0  0  0  0
 27 29  2  0  0  0  0
 28 23  1  6  0  0  0
 28 26  1  0  0  0  0
 29 24  1  0  0  0  0
 30 31  1  0  0  0  0
 31 22  2  0  0  0  0
 34 32  1  0  0  0  0
 34 33  1  0  0  0  0
M  END
>  <MODEL>
9

>  <REMARK>
 VINA RESULT:      -8.3      2.936      4.205
  Name = 
  7 active torsions:
  status: ('A' for Active; 'I' for Inactive)
    1  A    between atoms: N_1  and  C_9
    2  A    between atoms: C_3  and  C_25
    3  A    between atoms: N_7  and  O_11
    4  A    between atoms: C_8  and  C_9
    5  A    between atoms: C_8  and  C_18
    6  A    between atoms: O_11  and  C_21
    7  A    between atoms: C_18  and  C_30
                            x       y       z     vdW  Elec       q    Type
                         _______ _______ _______ _____ _____    ______ ____

>  <TORSDO>
F 7

$$$$
