=
 OpenBabel10262419553D

 25 29  0  0  1  0  0  0  0  0999 V2000
  185.5590  178.3630  144.6630 N   0  0  0  0  0  0  0  0  0  0  0  0
  186.9620  178.1150  145.0140 C   0  0  1  0  0  3  0  0  0  0  0  0
  184.9310  178.7030  146.9510 N   0  0  0  0  0  2  0  0  0  0  0  0
  184.9510  178.4510  143.4690 C   0  0  0  0  0  0  0  0  0  0  0  0
  183.2880  178.7210  141.2720 C   0  0  0  0  0  3  0  0  0  0  0  0
  186.2860  178.8150  147.3160 N   0  0  0  0  0  2  0  0  0  0  0  0
  183.6170  178.7350  143.6460 C   0  0  0  0  0  0  0  0  0  0  0  0
  182.7520  178.8770  142.5640 C   0  0  0  0  0  3  0  0  0  0  0  0
  184.6580  178.4340  141.0920 C   0  0  0  0  0  3  0  0  0  0  0  0
  184.6060  178.6310  145.5690 C   0  0  0  0  0  0  0  0  0  0  0  0
  183.3540  178.8600  145.0020 C   0  0  0  0  0  3  0  0  0  0  0  0
  185.5110  178.2960  142.2000 C   0  0  0  0  0  3  0  0  0  0  0  0
  187.0850  177.8520  146.5390 C   0  0  2  0  0  3  0  0  0  0  0  0
  188.5390  177.9310  146.9860 C   0  0  1  0  0  3  0  0  0  0  0  0
  188.6220  177.8590  148.4420 C   0  0  0  0  0  2  0  0  0  0  0  0
  188.9160  176.6670  147.6360 N   0  0  0  0  0  2  0  0  0  0  0  0
  187.4880  176.9130  144.2330 C   0  0  0  0  0  2  0  0  0  0  0  0
  190.8460  176.7780  143.1790 C   0  0  1  0  0  0  0  0  0  0  0  0
  188.5330  177.3390  143.2110 C   0  0  1  0  0  3  0  0  0  0  0  0
  191.6360  175.8750  143.8630 F   0  0  0  0  0  0  0  0  0  0  0  0
  191.4980  177.1560  141.8560 C   0  0  0  0  0  1  0  0  0  0  0  0
  189.2490  178.4510  143.6970 O   0  0  0  0  0  0  0  0  0  0  0  0
  191.5090  179.0330  143.9460 N   0  0  0  0  0  1  0  0  0  0  0  0
  189.4940  176.1980  142.9160 C   0  0  0  0  0  2  0  0  0  0  0  0
  190.5190  177.9730  144.0540 C   0  0  2  0  0  3  0  0  0  0  0  0
  1  2  1  0  0  0  0
  1 10  1  0  0  0  0
  2 17  1  6  0  0  0
  2 13  1  0  0  0  0
  3  6  1  0  0  0  0
  4  7  1  0  0  0  0
  4  1  1  0  0  0  0
  5  8  1  0  0  0  0
  7 11  1  0  0  0  0
  8  7  2  0  0  0  0
  9  5  2  0  0  0  0
  9 12  1  0  0  0  0
 10  3  1  0  0  0  0
 11 10  2  0  0  0  0
 12  4  2  0  0  0  0
 13 14  1  0  0  0  0
 13  6  1  1  0  0  0
 14 16  1  0  0  0  0
 14 15  1  1  0  0  0
 16 15  1  0  0  0  0
 18 21  1  6  0  0  0
 18 20  1  0  0  0  0
 18 25  1  0  0  0  0
 19 22  1  0  0  0  0
 19 17  1  1  0  0  0
 22 25  1  0  0  0  0
 24 18  1  0  0  0  0
 24 19  1  0  0  0  0
 25 23  1  6  0  0  0
M  END
>  <MODEL>
1

>  <REMARK>
 VINA RESULT:      -9.7      0.000      0.000
  Name = 
  3 active torsions:
  status: ('A' for Active; 'I' for Inactive)
    1  A    between atoms: C_3  and  C_16
    2  A    between atoms: C_6  and  C_16
    3  A    between atoms: C_13  and  C_24
                            x       y       z     vdW  Elec       q    Type
                         _______ _______ _______ _____ _____    ______ ____

>  <TORSDO>
F 3

$$$$
=
 OpenBabel10262419553D

 25 29  0  0  1  0  0  0  0  0999 V2000
  186.1220  178.2230  143.8900 N   0  0  0  0  0  0  0  0  0  0  0  0
  186.0340  178.1090  142.4300 C   0  0  1  0  0  3  0  0  0  0  0  0
  183.8890  179.0770  144.0690 N   0  0  0  0  0  2  0  0  0  0  0  0
  187.0920  177.8630  144.7460 C   0  0  0  0  0  0  0  0  0  0  0  0
  188.7850  177.2900  146.8610 C   0  0  0  0  0  3  0  0  0  0  0  0
  183.6220  178.6790  142.7450 N   0  0  0  0  0  2  0  0  0  0  0  0
  186.7010  178.1380  146.0350 C   0  0  0  0  0  0  0  0  0  0  0  0
  187.5270  177.8640  147.1230 C   0  0  0  0  0  3  0  0  0  0  0  0
  189.1830  177.0050  145.5370 C   0  0  0  0  0  3  0  0  0  0  0  0
  185.1220  178.6820  144.6580 C   0  0  0  0  0  0  0  0  0  0  0  0
  185.4210  178.6740  146.0180 C   0  0  0  0  0  3  0  0  0  0  0  0
  188.3310  177.2900  144.4560 C   0  0  0  0  0  3  0  0  0  0  0  0
  184.8130  178.9150  141.9110 C   0  0  2  0  0  3  0  0  0  0  0  0
  184.4940  178.5450  140.4690 C   0  0  1  0  0  3  0  0  0  0  0  0
  183.2600  179.1980  140.0420 C   0  0  0  0  0  2  0  0  0  0  0  0
  184.5560  179.7550  139.6330 N   0  0  0  0  0  2  0  0  0  0  0  0
  187.3160  178.6370  141.7900 C   0  0  0  0  0  2  0  0  0  0  0  0
  189.9550  177.5600  139.7200 C   0  0  1  0  0  0  0  0  0  0  0  0
  187.7710  177.7340  140.6510 C   0  0  1  0  0  3  0  0  0  0  0  0
  191.2070  178.0120  140.0890 F   0  0  0  0  0  0  0  0  0  0  0  0
  190.0780  176.3550  138.7970 C   0  0  0  0  0  1  0  0  0  0  0  0
  187.7790  178.4580  139.4420 O   0  0  0  0  0  0  0  0  0  0  0  0
  189.3050  178.8210  137.6960 N   0  0  0  0  0  1  0  0  0  0  0  0
  189.1600  177.1780  140.9270 C   0  0  0  0  0  2  0  0  0  0  0  0
  189.1290  178.6880  139.1340 C   0  0  2  0  0  3  0  0  0  0  0  0
  1 10  1  0  0  0  0
  1  4  1  0  0  0  0
  2 17  1  6  0  0  0
  2  1  1  0  0  0  0
  3 10  1  0  0  0  0
  4  7  1  0  0  0  0
  5  8  1  0  0  0  0
  6  3  1  0  0  0  0
  7  8  2  0  0  0  0
  9  5  2  0  0  0  0
 10 11  2  0  0  0  0
 11  7  1  0  0  0  0
 12  4  2  0  0  0  0
 12  9  1  0  0  0  0
 13  2  1  0  0  0  0
 13  6  1  1  0  0  0
 14 15  1  1  0  0  0
 14 13  1  0  0  0  0
 16 15  1  0  0  0  0
 16 14  1  0  0  0  0
 18 21  1  6  0  0  0
 18 20  1  0  0  0  0
 18 24  1  0  0  0  0
 19 24  1  0  0  0  0
 19 17  1  1  0  0  0
 22 19  1  0  0  0  0
 25 23  1  6  0  0  0
 25 22  1  0  0  0  0
 25 18  1  0  0  0  0
M  END
>  <MODEL>
2

>  <REMARK>
 VINA RESULT:      -9.3      2.723      5.201
  Name = 
  3 active torsions:
  status: ('A' for Active; 'I' for Inactive)
    1  A    between atoms: C_3  and  C_16
    2  A    between atoms: C_6  and  C_16
    3  A    between atoms: C_13  and  C_24
                            x       y       z     vdW  Elec       q    Type
                         _______ _______ _______ _____ _____    ______ ____

>  <TORSDO>
F 3

$$$$
=
 OpenBabel10262419553D

 25 29  0  0  1  0  0  0  0  0999 V2000
  188.1060  177.5230  144.8940 N   0  0  0  0  0  0  0  0  0  0  0  0
  187.4860  177.5620  143.5650 C   0  0  1  0  0  3  0  0  0  0  0  0
  186.0850  178.2180  145.9800 N   0  0  0  0  0  2  0  0  0  0  0  0
  189.3300  177.1320  145.2850 C   0  0  0  0  0  0  0  0  0  0  0  0
  191.6940  176.4370  146.5480 C   0  0  0  0  0  3  0  0  0  0  0  0
  185.3530  177.9500  144.8070 N   0  0  0  0  0  2  0  0  0  0  0  0
  189.4390  177.2430  146.6520 C   0  0  0  0  0  0  0  0  0  0  0  0
  190.6130  176.9030  147.3200 C   0  0  0  0  0  3  0  0  0  0  0  0
  191.5780  176.3200  145.1460 C   0  0  0  0  0  3  0  0  0  0  0  0
  187.4540  177.8370  146.0250 C   0  0  0  0  0  0  0  0  0  0  0  0
  188.2350  177.6990  147.1690 C   0  0  0  0  0  3  0  0  0  0  0  0
  190.3830  176.6690  144.4950 C   0  0  0  0  0  3  0  0  0  0  0  0
  186.1470  178.3450  143.6310 C   0  0  2  0  0  3  0  0  0  0  0  0
  185.3230  178.1140  142.3710 C   0  0  1  0  0  3  0  0  0  0  0  0
  184.0440  178.8120  142.4710 C   0  0  0  0  0  2  0  0  0  0  0  0
  185.1310  179.3960  141.6760 N   0  0  0  0  0  2  0  0  0  0  0  0
  188.4320  178.2320  142.5700 C   0  0  0  0  0  2  0  0  0  0  0  0
  190.2100  177.4370  139.6360 C   0  0  1  0  0  0  0  0  0  0  0  0
  188.4600  177.4760  141.2490 C   0  0  1  0  0  3  0  0  0  0  0  0
  191.5260  177.8560  139.6200 F   0  0  0  0  0  0  0  0  0  0  0  0
  189.9880  176.3520  138.5910 C   0  0  0  0  0  1  0  0  0  0  0  0
  188.0910  178.3380  140.1980 O   0  0  0  0  0  0  0  0  0  0  0  0
  188.9670  178.9230  138.1000 N   0  0  0  0  0  1  0  0  0  0  0  0
  189.8460  176.9060  140.9850 C   0  0  0  0  0  2  0  0  0  0  0  0
  189.2700  178.6180  139.4900 C   0  0  2  0  0  3  0  0  0  0  0  0
  1  4  1  0  0  0  0
  1 10  1  0  0  0  0
  2 17  1  6  0  0  0
  2 13  1  0  0  0  0
  2  1  1  0  0  0  0
  3 10  1  0  0  0  0
  4  7  1  0  0  0  0
  5  8  1  0  0  0  0
  6  3  1  0  0  0  0
  7 11  1  0  0  0  0
  7  8  2  0  0  0  0
  9  5  2  0  0  0  0
 10 11  2  0  0  0  0
 12  9  1  0  0  0  0
 12  4  2  0  0  0  0
 13  6  1  1  0  0  0
 14 15  1  1  0  0  0
 14 13  1  0  0  0  0
 16 14  1  0  0  0  0
 16 15  1  0  0  0  0
 18 21  1  6  0  0  0
 18 24  1  0  0  0  0
 19 17  1  1  0  0  0
 20 18  1  0  0  0  0
 22 19  1  0  0  0  0
 24 19  1  0  0  0  0
 25 23  1  6  0  0  0
 25 18  1  0  0  0  0
 25 22  1  0  0  0  0
M  END
>  <MODEL>
3

>  <REMARK>
 VINA RESULT:      -9.2      2.600      5.354
  Name = 
  3 active torsions:
  status: ('A' for Active; 'I' for Inactive)
    1  A    between atoms: C_3  and  C_16
    2  A    between atoms: C_6  and  C_16
    3  A    between atoms: C_13  and  C_24
                            x       y       z     vdW  Elec       q    Type
                         _______ _______ _______ _____ _____    ______ ____

>  <TORSDO>
F 3

$$$$
=
 OpenBabel10262419553D

 25 29  0  0  1  0  0  0  0  0999 V2000
  187.0260  178.0230  144.9370 N   0  0  0  0  0  0  0  0  0  0  0  0
  188.3680  177.9420  144.3490 C   0  0  1  0  0  3  0  0  0  0  0  0
  187.8360  177.5030  147.1330 N   0  0  0  0  0  2  0  0  0  0  0  0
  185.8460  178.3680  144.3970 C   0  0  0  0  0  0  0  0  0  0  0  0
  183.2320  179.0030  143.7390 C   0  0  0  0  0  3  0  0  0  0  0  0
  189.1580  177.7440  146.7110 N   0  0  0  0  0  2  0  0  0  0  0  0
  184.8650  178.3290  145.3600 C   0  0  0  0  0  0  0  0  0  0  0  0
  183.5400  178.6420  145.0640 C   0  0  0  0  0  3  0  0  0  0  0  0
  184.2420  179.0450  142.7530 C   0  0  0  0  0  3  0  0  0  0  0  0
  186.7740  177.8110  146.2380 C   0  0  0  0  0  0  0  0  0  0  0  0
  185.4320  177.9700  146.5740 C   0  0  0  0  0  3  0  0  0  0  0  0
  185.5720  178.7270  143.0770 C   0  0  0  0  0  3  0  0  0  0  0  0
  189.3360  177.2390  145.3390 C   0  0  2  0  0  3  0  0  0  0  0  0
  190.7840  177.4420  144.9150 C   0  0  1  0  0  3  0  0  0  0  0  0
  191.6810  176.7530  145.8390 C   0  0  0  0  0  2  0  0  0  0  0  0
  191.3660  176.1450  144.5390 N   0  0  0  0  0  2  0  0  0  0  0  0
  188.3140  177.1660  143.0350 C   0  0  0  0  0  2  0  0  0  0  0  0
  188.9090  177.4400  139.5740 C   0  0  1  0  0  0  0  0  0  0  0  0
  188.9000  177.9830  141.8920 C   0  0  1  0  0  3  0  0  0  0  0  0
  188.2760  176.4910  138.7970 F   0  0  0  0  0  0  0  0  0  0  0  0
  189.3320  178.6280  138.7200 C   0  0  0  0  0  1  0  0  0  0  0  0
  190.1850  177.5020  141.5710 O   0  0  0  0  0  0  0  0  0  0  0  0
  191.3090  176.8450  139.6180 N   0  0  0  0  0  1  0  0  0  0  0  0
  188.0030  177.9130  140.6650 C   0  0  0  0  0  2  0  0  0  0  0  0
  190.0530  176.8190  140.3530 C   0  0  2  0  0  3  0  0  0  0  0  0
  1 10  1  0  0  0  0
  2 17  1  6  0  0  0
  2  1  1  0  0  0  0
  2 13  1  0  0  0  0
  4  1  1  0  0  0  0
  4  7  1  0  0  0  0
  5  8  1  0  0  0  0
  6  3  1  0  0  0  0
  7 11  1  0  0  0  0
  8  7  2  0  0  0  0
  9 12  1  0  0  0  0
  9  5  2  0  0  0  0
 10 11  2  0  0  0  0
 10  3  1  0  0  0  0
 12  4  2  0  0  0  0
 13  6  1  1  0  0  0
 14 13  1  0  0  0  0
 14 15  1  1  0  0  0
 16 14  1  0  0  0  0
 16 15  1  0  0  0  0
 18 21  1  6  0  0  0
 18 25  1  0  0  0  0
 18 24  1  0  0  0  0
 19 17  1  1  0  0  0
 20 18  1  0  0  0  0
 22 19  1  0  0  0  0
 24 19  1  0  0  0  0
 25 23  1  6  0  0  0
 25 22  1  0  0  0  0
M  END
>  <MODEL>
4

>  <REMARK>
 VINA RESULT:      -9.2      2.399      3.113
  Name = 
  3 active torsions:
  status: ('A' for Active; 'I' for Inactive)
    1  A    between atoms: C_3  and  C_16
    2  A    between atoms: C_6  and  C_16
    3  A    between atoms: C_13  and  C_24
                            x       y       z     vdW  Elec       q    Type
                         _______ _______ _______ _____ _____    ______ ____

>  <TORSDO>
F 3

$$$$
=
 OpenBabel10262419553D

 25 29  0  0  1  0  0  0  0  0999 V2000
  189.5300  177.4550  144.1980 N   0  0  0  0  0  0  0  0  0  0  0  0
  188.9480  177.8120  142.9000 C   0  0  1  0  0  3  0  0  0  0  0  0
  191.6530  176.9170  143.2240 N   0  0  0  0  0  2  0  0  0  0  0  0
  189.0260  177.5280  145.4400 C   0  0  0  0  0  0  0  0  0  0  0  0
  188.4280  177.5030  148.1440 C   0  0  0  0  0  3  0  0  0  0  0  0
  191.2750  177.5560  142.0270 N   0  0  0  0  0  2  0  0  0  0  0  0
  189.9690  177.1100  146.3510 C   0  0  0  0  0  0  0  0  0  0  0  0
  189.7020  177.0840  147.7170 C   0  0  0  0  0  3  0  0  0  0  0  0
  187.4630  177.9360  147.2090 C   0  0  0  0  0  3  0  0  0  0  0  0
  190.7930  177.0290  144.3510 C   0  0  0  0  0  0  0  0  0  0  0  0
  191.1340  176.7760  145.6770 C   0  0  0  0  0  3  0  0  0  0  0  0
  187.7570  177.9540  145.8350 C   0  0  0  0  0  3  0  0  0  0  0  0
  189.8530  177.2860  141.7540 C   0  0  2  0  0  3  0  0  0  0  0  0
  189.4700  177.9240  140.4250 C   0  0  1  0  0  3  0  0  0  0  0  0
  190.3850  177.4870  139.3740 C   0  0  0  0  0  2  0  0  0  0  0  0
  189.0550  176.8720  139.4830 N   0  0  0  0  0  2  0  0  0  0  0  0
  187.5490  177.2130  142.7750 C   0  0  0  0  0  2  0  0  0  0  0  0
  184.2960  178.2160  141.8710 C   0  0  1  0  0  0  0  0  0  0  0  0
  186.4830  178.3000  142.8070 C   0  0  1  0  0  3  0  0  0  0  0  0
  183.5030  177.2160  141.3440 F   0  0  0  0  0  0  0  0  0  0  0  0
  183.4350  179.3780  142.3500 C   0  0  0  0  0  1  0  0  0  0  0  0
  186.5060  179.0260  141.5990 O   0  0  0  0  0  0  0  0  0  0  0  0
  184.9300  179.6940  139.9930 N   0  0  0  0  0  1  0  0  0  0  0  0
  185.1030  177.6950  143.0160 C   0  0  0  0  0  2  0  0  0  0  0  0
  185.3680  178.6280  140.8820 C   0  0  2  0  0  3  0  0  0  0  0  0
  1 10  1  0  0  0  0
  1  4  1  0  0  0  0
  2 17  1  6  0  0  0
  2  1  1  0  0  0  0
  3 10  1  0  0  0  0
  4 12  2  0  0  0  0
  4  7  1  0  0  0  0
  6  3  1  0  0  0  0
  7  8  2  0  0  0  0
  8  5  1  0  0  0  0
  9  5  2  0  0  0  0
 10 11  2  0  0  0  0
 11  7  1  0  0  0  0
 12  9  1  0  0  0  0
 13  6  1  1  0  0  0
 13  2  1  0  0  0  0
 14 15  1  6  0  0  0
 14 13  1  0  0  0  0
 15 16  1  0  0  0  0
 16 14  1  0  0  0  0
 18 21  1  1  0  0  0
 18 24  1  0  0  0  0
 19 17  1  6  0  0  0
 19 24  1  0  0  0  0
 20 18  1  0  0  0  0
 22 19  1  0  0  0  0
 25 23  1  1  0  0  0
 25 22  1  0  0  0  0
 25 18  1  0  0  0  0
M  END
>  <MODEL>
5

>  <REMARK>
 VINA RESULT:      -8.8      2.896      6.615
  Name = 
  3 active torsions:
  status: ('A' for Active; 'I' for Inactive)
    1  A    between atoms: C_3  and  C_16
    2  A    between atoms: C_6  and  C_16
    3  A    between atoms: C_13  and  C_24
                            x       y       z     vdW  Elec       q    Type
                         _______ _______ _______ _____ _____    ______ ____

>  <TORSDO>
F 3

$$$$
=
 OpenBabel10262419553D

 25 29  0  0  1  0  0  0  0  0999 V2000
  186.9120  178.1740  142.2300 N   0  0  0  0  0  0  0  0  0  0  0  0
  188.2220  177.5320  142.3850 C   0  0  1  0  0  3  0  0  0  0  0  0
  187.2210  178.4870  139.8730 N   0  0  0  0  0  2  0  0  0  0  0  0
  185.9210  178.3800  143.1120 C   0  0  0  0  0  0  0  0  0  0  0  0
  183.6380  179.0090  144.5470 C   0  0  0  0  0  3  0  0  0  0  0  0
  188.3100  177.5940  139.8890 N   0  0  0  0  0  2  0  0  0  0  0  0
  184.8610  178.9950  142.4860 C   0  0  0  0  0  0  0  0  0  0  0  0
  183.6990  179.3260  143.1770 C   0  0  0  0  0  3  0  0  0  0  0  0
  184.7250  178.3740  145.1860 C   0  0  0  0  0  3  0  0  0  0  0  0
  186.4450  178.6280  141.0560 C   0  0  0  0  0  0  0  0  0  0  0  0
  185.1670  179.1730  141.1450 C   0  0  0  0  0  3  0  0  0  0  0  0
  185.8870  178.0490  144.4670 C   0  0  0  0  0  3  0  0  0  0  0  0
  189.0890  177.7900  141.1230 C   0  0  2  0  0  3  0  0  0  0  0  0
  190.3010  176.8690  141.1020 C   0  0  1  0  0  3  0  0  0  0  0  0
  191.1090  177.1280  139.9130 C   0  0  0  0  0  2  0  0  0  0  0  0
  191.5260  177.6760  141.2110 N   0  0  0  0  0  2  0  0  0  0  0  0
  188.9270  178.0830  143.6230 C   0  0  0  0  0  2  0  0  0  0  0  0
  189.6980  177.2510  146.9570 C   0  0  1  0  0  0  0  0  0  0  0  0
  189.1590  176.9870  144.6540 C   0  0  1  0  0  3  0  0  0  0  0  0
  189.7080  178.3170  147.8360 F   0  0  0  0  0  0  0  0  0  0  0  0
  189.5730  175.9380  147.7190 C   0  0  0  0  0  1  0  0  0  0  0  0
  190.5410  176.7530  144.7990 O   0  0  0  0  0  0  0  0  0  0  0  0
  192.0550  176.6060  146.5860 N   0  0  0  0  0  1  0  0  0  0  0  0
  188.5590  177.3760  145.9970 C   0  0  0  0  0  2  0  0  0  0  0  0
  190.9020  177.3040  146.0380 C   0  0  2  0  0  3  0  0  0  0  0  0
  1  2  1  0  0  0  0
  1  4  1  0  0  0  0
  2 17  1  1  0  0  0
  3  6  1  0  0  0  0
  3 10  1  0  0  0  0
  4 12  1  0  0  0  0
  5  9  1  0  0  0  0
  7  4  2  0  0  0  0
  7  8  1  0  0  0  0
  8  5  2  0  0  0  0
 10 11  2  0  0  0  0
 10  1  1  0  0  0  0
 11  7  1  0  0  0  0
 12  9  2  0  0  0  0
 13  6  1  6  0  0  0
 13  2  1  0  0  0  0
 14 15  1  6  0  0  0
 14 13  1  0  0  0  0
 14 16  1  0  0  0  0
 15 16  1  0  0  0  0
 18 21  1  1  0  0  0
 18 20  1  0  0  0  0
 19 17  1  6  0  0  0
 19 22  1  0  0  0  0
 19 24  1  0  0  0  0
 22 25  1  0  0  0  0
 24 18  1  0  0  0  0
 25 23  1  1  0  0  0
 25 18  1  0  0  0  0
M  END
>  <MODEL>
6

>  <REMARK>
 VINA RESULT:      -8.6      2.444      4.633
  Name = 
  3 active torsions:
  status: ('A' for Active; 'I' for Inactive)
    1  A    between atoms: C_3  and  C_16
    2  A    between atoms: C_6  and  C_16
    3  A    between atoms: C_13  and  C_24
                            x       y       z     vdW  Elec       q    Type
                         _______ _______ _______ _____ _____    ______ ____

>  <TORSDO>
F 3

$$$$
=
 OpenBabel10262419553D

 25 29  0  0  1  0  0  0  0  0999 V2000
  185.9640  178.4480  142.5480 N   0  0  0  0  0  0  0  0  0  0  0  0
  187.0900  177.9910  141.7250 C   0  0  1  0  0  3  0  0  0  0  0  0
  184.7670  179.2800  140.6450 N   0  0  0  0  0  2  0  0  0  0  0  0
  185.7230  178.3180  143.8620 C   0  0  0  0  0  0  0  0  0  0  0  0
  184.8020  178.2910  146.4740 C   0  0  0  0  0  3  0  0  0  0  0  0
  185.6310  178.5760  139.7830 N   0  0  0  0  0  2  0  0  0  0  0  0
  184.5070  178.8830  144.1700 C   0  0  0  0  0  0  0  0  0  0  0  0
  184.0140  178.8880  145.4720 C   0  0  0  0  0  3  0  0  0  0  0  0
  186.0480  177.7080  146.1550 C   0  0  0  0  0  3  0  0  0  0  0  0
  184.8800  179.0580  142.0450 C   0  0  0  0  0  0  0  0  0  0  0  0
  183.9280  179.3760  143.0100 C   0  0  0  0  0  3  0  0  0  0  0  0
  186.5240  177.7140  144.8330 C   0  0  0  0  0  3  0  0  0  0  0  0
  187.0040  178.6290  140.3130 C   0  0  2  0  0  3  0  0  0  0  0  0
  187.9420  177.9230  139.3420 C   0  0  1  0  0  3  0  0  0  0  0  0
  187.5920  178.2650  137.9660 C   0  0  0  0  0  2  0  0  0  0  0  0
  188.7320  178.9280  138.6140 N   0  0  0  0  0  2  0  0  0  0  0  0
  188.4100  178.3750  142.3910 C   0  0  0  0  0  2  0  0  0  0  0  0
  191.3840  177.0410  143.7240 C   0  0  1  0  0  0  0  0  0  0  0  0
  189.3100  177.1590  142.5620 C   0  0  1  0  0  3  0  0  0  0  0  0
  192.0620  177.8770  144.5900 F   0  0  0  0  0  0  0  0  0  0  0  0
  191.8420  175.6010  143.9130 C   0  0  0  0  0  1  0  0  0  0  0  0
  190.3410  177.1900  141.6010 O   0  0  0  0  0  0  0  0  0  0  0  0
  192.6790  176.9880  141.6180 N   0  0  0  0  0  1  0  0  0  0  0  0
  189.9110  177.1260  143.9590 C   0  0  0  0  0  2  0  0  0  0  0  0
  191.5110  177.5320  142.2950 C   0  0  2  0  0  3  0  0  0  0  0  0
  1  4  1  0  0  0  0
  2 17  1  1  0  0  0
  2  1  1  0  0  0  0
  3 10  1  0  0  0  0
  4  7  2  0  0  0  0
  4 12  1  0  0  0  0
  6  3  1  0  0  0  0
  7  8  1  0  0  0  0
  8  5  2  0  0  0  0
  9  5  1  0  0  0  0
 10  1  1  0  0  0  0
 10 11  2  0  0  0  0
 11  7  1  0  0  0  0
 12  9  2  0  0  0  0
 13  6  1  6  0  0  0
 13  2  1  0  0  0  0
 14 15  1  6  0  0  0
 14 13  1  0  0  0  0
 15 16  1  0  0  0  0
 16 14  1  0  0  0  0
 18 21  1  1  0  0  0
 18 24  1  0  0  0  0
 18 20  1  0  0  0  0
 19 17  1  1  0  0  0
 19 24  1  0  0  0  0
 22 25  1  0  0  0  0
 22 19  1  0  0  0  0
 25 23  1  6  0  0  0
 25 18  1  0  0  0  0
M  END
>  <MODEL>
7

>  <REMARK>
 VINA RESULT:      -8.4      2.536      4.681
  Name = 
  3 active torsions:
  status: ('A' for Active; 'I' for Inactive)
    1  A    between atoms: C_3  and  C_16
    2  A    between atoms: C_6  and  C_16
    3  A    between atoms: C_13  and  C_24
                            x       y       z     vdW  Elec       q    Type
                         _______ _______ _______ _____ _____    ______ ____

>  <TORSDO>
F 3

$$$$
=
 OpenBabel10262419553D

 25 29  0  0  1  0  0  0  0  0999 V2000
  187.7930  177.7470  145.8740 N   0  0  0  0  0  0  0  0  0  0  0  0
  189.1860  177.3690  145.6100 C   0  0  1  0  0  3  0  0  0  0  0  0
  188.1640  177.8850  148.2390 N   0  0  0  0  0  2  0  0  0  0  0  0
  186.7750  178.0020  145.0380 C   0  0  0  0  0  0  0  0  0  0  0  0
  184.4150  178.6160  143.7260 C   0  0  0  0  0  3  0  0  0  0  0  0
  189.5560  177.8650  148.0310 N   0  0  0  0  0  2  0  0  0  0  0  0
  185.6580  178.3560  145.7590 C   0  0  0  0  0  0  0  0  0  0  0  0
  184.4550  178.6700  145.1320 C   0  0  0  0  0  3  0  0  0  0  0  0
  185.5630  178.2570  142.9880 C   0  0  0  0  0  3  0  0  0  0  0  0
  187.3120  177.9820  147.1050 C   0  0  0  0  0  0  0  0  0  0  0  0
  185.9700  178.3530  147.1100 C   0  0  0  0  0  3  0  0  0  0  0  0
  186.7660  177.9450  143.6440 C   0  0  0  0  0  3  0  0  0  0  0  0
  189.8760  176.9370  146.9320 C   0  0  2  0  0  3  0  0  0  0  0  0
  191.3870  176.8700  146.7570 C   0  0  1  0  0  3  0  0  0  0  0  0
  192.0240  176.5060  148.0190 C   0  0  0  0  0  2  0  0  0  0  0  0
  191.8400  175.4880  146.9770 N   0  0  0  0  0  2  0  0  0  0  0  0
  189.2310  176.2220  144.6010 C   0  0  0  0  0  2  0  0  0  0  0  0
  190.4960  177.8610  141.7520 C   0  0  1  0  0  0  0  0  0  0  0  0
  190.3870  176.3970  143.6260 C   0  0  1  0  0  3  0  0  0  0  0  0
  189.7290  178.9160  141.2970 F   0  0  0  0  0  0  0  0  0  0  0  0
  191.9100  177.9560  141.1940 C   0  0  0  0  0  1  0  0  0  0  0  0
  190.1550  175.6280  142.4680 O   0  0  0  0  0  0  0  0  0  0  0  0
  190.1800  176.0030  140.1520 N   0  0  0  0  0  1  0  0  0  0  0  0
  190.5530  177.8610  143.2460 C   0  0  0  0  0  2  0  0  0  0  0  0
  189.8170  176.5380  141.4550 C   0  0  2  0  0  3  0  0  0  0  0  0
  1 10  1  0  0  0  0
  2 17  1  6  0  0  0
  2  1  1  0  0  0  0
  2 13  1  0  0  0  0
  4  7  1  0  0  0  0
  4  1  1  0  0  0  0
  5  8  1  0  0  0  0
  6  3  1  0  0  0  0
  7 11  1  0  0  0  0
  8  7  2  0  0  0  0
  9 12  1  0  0  0  0
  9  5  2  0  0  0  0
 10 11  2  0  0  0  0
 10  3  1  0  0  0  0
 12  4  2  0  0  0  0
 13  6  1  1  0  0  0
 14 13  1  0  0  0  0
 14 16  1  0  0  0  0
 14 15  1  1  0  0  0
 16 15  1  0  0  0  0
 18 21  1  6  0  0  0
 18 24  1  0  0  0  0
 19 17  1  1  0  0  0
 20 18  1  0  0  0  0
 22 19  1  0  0  0  0
 24 19  1  0  0  0  0
 25 23  1  6  0  0  0
 25 18  1  0  0  0  0
 25 22  1  0  0  0  0
M  END
>  <MODEL>
8

>  <REMARK>
 VINA RESULT:      -8.2      2.187      2.981
  Name = 
  3 active torsions:
  status: ('A' for Active; 'I' for Inactive)
    1  A    between atoms: C_3  and  C_16
    2  A    between atoms: C_6  and  C_16
    3  A    between atoms: C_13  and  C_24
                            x       y       z     vdW  Elec       q    Type
                         _______ _______ _______ _____ _____    ______ ____

>  <TORSDO>
F 3

$$$$
=
 OpenBabel10262419553D

 25 29  0  0  1  0  0  0  0  0999 V2000
  189.8580  177.3520  143.0850 N   0  0  0  0  0  0  0  0  0  0  0  0
  188.8460  177.9200  142.1870 C   0  0  1  0  0  3  0  0  0  0  0  0
  191.3200  176.7990  141.2670 N   0  0  0  0  0  2  0  0  0  0  0  0
  189.9160  177.2950  144.4250 C   0  0  0  0  0  0  0  0  0  0  0  0
  190.4710  176.9530  147.1160 C   0  0  0  0  0  3  0  0  0  0  0  0
  190.5680  177.6170  140.4020 N   0  0  0  0  0  2  0  0  0  0  0  0
  191.0890  176.6940  144.8150 C   0  0  0  0  0  0  0  0  0  0  0  0
  191.4010  176.5050  146.1590 C   0  0  0  0  0  3  0  0  0  0  0  0
  189.2690  177.5740  146.7130 C   0  0  0  0  0  3  0  0  0  0  0  0
  191.0130  176.8210  142.6550 C   0  0  0  0  0  0  0  0  0  0  0  0
  191.8310  176.3700  143.6880 C   0  0  0  0  0  3  0  0  0  0  0  0
  188.9780  177.7540  145.3510 C   0  0  0  0  0  3  0  0  0  0  0  0
  189.1360  177.4880  140.7240 C   0  0  2  0  0  3  0  0  0  0  0  0
  188.3250  178.3230  139.7430 C   0  0  1  0  0  3  0  0  0  0  0  0
  189.0260  178.4200  138.4650 C   0  0  0  0  0  2  0  0  0  0  0  0
  187.9100  177.4760  138.6130 N   0  0  0  0  0  2  0  0  0  0  0  0
  187.4560  177.4440  142.6040 C   0  0  0  0  0  2  0  0  0  0  0  0
  184.3850  178.6510  143.8370 C   0  0  1  0  0  0  0  0  0  0  0  0
  186.4910  178.6150  142.7250 C   0  0  1  0  0  3  0  0  0  0  0  0
  183.7310  177.8000  144.7060 F   0  0  0  0  0  0  0  0  0  0  0  0
  183.8500  180.0700  143.9820 C   0  0  0  0  0  1  0  0  0  0  0  0
  185.4860  178.5090  141.7430 O   0  0  0  0  0  0  0  0  0  0  0  0
  183.1410  178.5890  141.7020 N   0  0  0  0  0  1  0  0  0  0  0  0
  185.8560  178.6470  144.1080 C   0  0  0  0  0  2  0  0  0  0  0  0
  184.3180  178.1220  142.4170 C   0  0  2  0  0  3  0  0  0  0  0  0
  1  4  1  0  0  0  0
  2 17  1  1  0  0  0
  2  1  1  0  0  0  0
  3 10  1  0  0  0  0
  4  7  2  0  0  0  0
  4 12  1  0  0  0  0
  6  3  1  0  0  0  0
  7  8  1  0  0  0  0
  8  5  2  0  0  0  0
  9  5  1  0  0  0  0
 10  1  1  0  0  0  0
 10 11  2  0  0  0  0
 11  7  1  0  0  0  0
 12  9  2  0  0  0  0
 13  6  1  6  0  0  0
 13  2  1  0  0  0  0
 14 15  1  6  0  0  0
 14 13  1  0  0  0  0
 15 16  1  0  0  0  0
 16 14  1  0  0  0  0
 18 21  1  1  0  0  0
 18 24  1  0  0  0  0
 18 20  1  0  0  0  0
 19 17  1  1  0  0  0
 19 24  1  0  0  0  0
 22 25  1  0  0  0  0
 22 19  1  0  0  0  0
 25 23  1  6  0  0  0
 25 18  1  0  0  0  0
M  END
>  <MODEL>
9

>  <REMARK>
 VINA RESULT:      -8.0      3.135      7.152
  Name = 
  3 active torsions:
  status: ('A' for Active; 'I' for Inactive)
    1  A    between atoms: C_3  and  C_16
    2  A    between atoms: C_6  and  C_16
    3  A    between atoms: C_13  and  C_24
                            x       y       z     vdW  Elec       q    Type
                         _______ _______ _______ _____ _____    ______ ____

>  <TORSDO>
F 3

$$$$
