=
 OpenBabel10262420553D

 28 31  0  0  1  0  0  0  0  0999 V2000
  187.8330  177.5560  146.7470 C   0  0  0  0  0  0  0  0  0  0  0  0
  188.9040  177.2010  142.0150 C   0  0  0  0  0  2  0  0  0  0  0  0
  184.0330  179.3500  144.3990 O   0  0  0  0  0  0  0  0  0  0  0  0
  187.1560  178.9240  141.4270 C   0  0  2  0  0  3  0  0  0  0  0  0
  186.6970  177.0870  143.1530 C   0  0  1  0  0  3  0  0  0  0  0  0
  188.5990  178.3910  139.7830 C   0  0  2  0  0  3  0  0  0  0  0  0
  187.7380  178.0450  142.5540 C   0  0  1  0  0  3  0  0  0  0  0  0
  185.7220  179.3600  141.7110 C   0  0  0  0  0  2  0  0  0  0  0  0
  187.2550  178.2610  140.1940 O   0  0  0  0  0  0  0  0  0  0  0  0
  185.9340  178.5320  145.5670 C   0  0  0  0  0  0  0  0  0  0  0  0
  187.1350  176.5620  144.5230 C   0  0  0  0  0  2  0  0  0  0  0  0
  184.8940  178.2520  141.9750 O   0  0  0  0  0  0  0  0  0  0  0  0
  186.5840  179.3830  147.7440 C   0  0  0  0  0  3  0  0  0  0  0  0
  185.0360  178.5860  144.3960 C   0  0  0  0  0  0  0  0  0  0  0  0
  185.7470  179.4240  146.6300 C   0  0  0  0  0  3  0  0  0  0  0  0
  188.7980  177.6610  138.4710 C   0  0  0  0  0  1  0  0  0  0  0  0
  189.6070  177.8610  140.8250 C   0  0  0  0  0  2  0  0  0  0  0  0
  185.2760  177.6790  143.2110 C   0  0  2  0  0  3  0  0  0  0  0  0
  187.6170  178.4480  147.8050 C   0  0  0  0  0  3  0  0  0  0  0  0
  186.9870  177.5920  145.6180 C   0  0  0  0  0  0  0  0  0  0  0  0
  188.9340  176.5400  146.8600 C   0  0  0  0  0  2  0  0  0  0  0  0
  190.1930  177.1360  147.4270 C   0  0  0  0  0  3  0  0  0  0  0  0
  191.4110  176.9360  146.9080 C   0  0  0  0  0  3  0  0  0  0  0  0
  191.6460  176.0730  145.7090 C   0  0  0  0  0  2  0  0  0  0  0  0
  191.2770  176.8150  144.4390 C   0  0  0  0  0  2  0  0  0  0  0  0
  192.0150  178.1400  144.3720 C   0  0  0  0  0  2  0  0  0  0  0  0
  189.8560  179.0740  144.7160 F   0  0  0  0  0  0  0  0  0  0  0  0
  191.0470  179.2580  144.0370 C   0  0  0  0  0  2  0  0  0  0  0  0
  1 21  1  0  0  0  0
  1 19  1  0  0  0  0
  4  8  1  1  0  0  0
  4  7  1  0  0  0  0
  5 18  1  0  0  0  0
  5 11  1  1  0  0  0
  6 16  1  6  0  0  0
  6  9  1  0  0  0  0
  6 17  1  0  0  0  0
  7  2  1  6  0  0  0
  7  5  1  0  0  0  0
  8 12  1  0  0  0  0
  9  4  1  0  0  0  0
 10 20  1  0  0  0  0
 10 15  2  0  0  0  0
 11 20  1  0  0  0  0
 13 19  2  0  0  0  0
 14  3  2  0  0  0  0
 14 10  1  0  0  0  0
 15 13  1  0  0  0  0
 17  2  1  0  0  0  0
 18 12  1  6  0  0  0
 18 14  1  0  0  0  0
 20  1  2  0  0  0  0
 21 22  1  0  0  0  0
 23 22  2  0  0  0  0
 24 23  1  0  0  0  0
 25 24  1  0  0  0  0
 26 25  1  0  0  0  0
 28 26  1  0  0  0  0
 28 27  1  0  0  0  0
M  END
>  <MODEL>
1

>  <REMARK>
 VINA RESULT:      -8.1      0.000      0.000
  Name = 
  6 active torsions:
  status: ('A' for Active; 'I' for Inactive)
    1  A    between atoms: C_1  and  C_2
    2  A    between atoms: C_2  and  C_3
    3  A    between atoms: C_6  and  C_7
    4  A    between atoms: C_6  and  C_11
    5  A    between atoms: C_7  and  C_28
    6  A    between atoms: C_8  and  C_11
                            x       y       z     vdW  Elec       q    Type
                         _______ _______ _______ _____ _____    ______ ____

>  <TORSDO>
F 6

$$$$
=
 OpenBabel10262420553D

 28 31  0  0  1  0  0  0  0  0999 V2000
  190.0640  177.4420  142.6520 C   0  0  0  0  0  0  0  0  0  0  0  0
  185.2380  178.0530  142.6190 C   0  0  0  0  0  2  0  0  0  0  0  0
  188.7810  178.0420  147.2530 O   0  0  0  0  0  0  0  0  0  0  0  0
  185.2930  179.1030  144.9130 C   0  0  2  0  0  3  0  0  0  0  0  0
  186.6940  177.0310  144.3560 C   0  0  1  0  0  3  0  0  0  0  0  0
  183.3560  179.3140  143.7840 C   0  0  2  0  0  3  0  0  0  0  0  0
  186.1180  178.3600  143.8420 C   0  0  1  0  0  3  0  0  0  0  0  0
  185.8950  178.9670  146.3080 C   0  0  0  0  0  2  0  0  0  0  0  0
  183.9580  178.6690  144.8860 O   0  0  0  0  0  0  0  0  0  0  0  0
  189.4310  177.8170  144.9780 C   0  0  0  0  0  0  0  0  0  0  0  0
  187.8450  176.5370  143.4750 C   0  0  0  0  0  2  0  0  0  0  0  0
  186.0830  177.6140  146.6540 O   0  0  0  0  0  0  0  0  0  0  0  0
  191.5860  178.5770  144.1640 C   0  0  0  0  0  3  0  0  0  0  0  0
  188.4630  177.6880  146.0850 C   0  0  0  0  0  0  0  0  0  0  0  0
  190.6590  178.4520  145.1980 C   0  0  0  0  0  3  0  0  0  0  0  0
  181.9150  178.8620  143.6620 C   0  0  0  0  0  1  0  0  0  0  0  0
  184.0910  179.0550  142.4520 C   0  0  0  0  0  2  0  0  0  0  0  0
  187.1040  177.0720  145.8400 C   0  0  2  0  0  3  0  0  0  0  0  0
  191.2920  178.0690  142.8990 C   0  0  0  0  0  3  0  0  0  0  0  0
  189.1230  177.3110  143.6960 C   0  0  0  0  0  0  0  0  0  0  0  0
  189.7930  176.8750  141.2870 C   0  0  0  0  0  2  0  0  0  0  0  0
  190.9650  177.0540  140.3620 C   0  0  0  0  0  3  0  0  0  0  0  0
  190.9130  176.8350  139.0420 C   0  0  0  0  0  3  0  0  0  0  0  0
  189.6730  176.3640  138.3500 C   0  0  0  0  0  2  0  0  0  0  0  0
  189.2920  177.3180  137.2340 C   0  0  0  0  0  2  0  0  0  0  0  0
  188.5330  178.5070  137.7960 C   0  0  0  0  0  2  0  0  0  0  0  0
  187.3730  178.4350  139.8710 F   0  0  0  0  0  0  0  0  0  0  0  0
  187.3050  178.0310  138.5490 C   0  0  0  0  0  2  0  0  0  0  0  0
  1 19  2  0  0  0  0
  1 20  1  0  0  0  0
  4  8  1  1  0  0  0
  5 11  1  6  0  0  0
  5 18  1  0  0  0  0
  6 16  1  6  0  0  0
  6  9  1  0  0  0  0
  7  2  1  6  0  0  0
  7  5  1  0  0  0  0
  7  4  1  0  0  0  0
  8 12  1  0  0  0  0
  9  4  1  0  0  0  0
 10 15  1  0  0  0  0
 10 14  1  0  0  0  0
 11 20  1  0  0  0  0
 13 15  2  0  0  0  0
 14  3  2  0  0  0  0
 17  2  1  0  0  0  0
 17  6  1  0  0  0  0
 18 14  1  6  0  0  0
 18 12  1  0  0  0  0
 19 13  1  0  0  0  0
 20 10  2  0  0  0  0
 21  1  1  0  0  0  0
 22 21  1  0  0  0  0
 23 22  2  0  0  0  0
 24 23  1  0  0  0  0
 25 26  1  0  0  0  0
 25 24  1  0  0  0  0
 26 28  1  0  0  0  0
 28 27  1  0  0  0  0
M  END
>  <MODEL>
2

>  <REMARK>
 VINA RESULT:      -8.1      2.164      5.559
  Name = 
  6 active torsions:
  status: ('A' for Active; 'I' for Inactive)
    1  A    between atoms: C_1  and  C_2
    2  A    between atoms: C_2  and  C_3
    3  A    between atoms: C_6  and  C_7
    4  A    between atoms: C_6  and  C_11
    5  A    between atoms: C_7  and  C_28
    6  A    between atoms: C_8  and  C_11
                            x       y       z     vdW  Elec       q    Type
                         _______ _______ _______ _____ _____    ______ ____

>  <TORSDO>
F 6

$$$$
=
 OpenBabel10262420553D

 28 31  0  0  1  0  0  0  0  0999 V2000
  189.9860  177.4180  142.6090 C   0  0  0  0  0  0  0  0  0  0  0  0
  185.1630  178.0280  142.7610 C   0  0  0  0  0  2  0  0  0  0  0  0
  188.8870  178.0610  147.2510 O   0  0  0  0  0  0  0  0  0  0  0  0
  185.3080  179.0990  145.0410 C   0  0  2  0  0  3  0  0  0  0  0  0
  186.6870  177.0230  144.4490 C   0  0  1  0  0  3  0  0  0  0  0  0
  183.3280  179.2990  143.9880 C   0  0  2  0  0  3  0  0  0  0  0  0
  186.0900  178.3460  143.9450 C   0  0  1  0  0  3  0  0  0  0  0  0
  185.9650  178.9770  146.4120 C   0  0  0  0  0  2  0  0  0  0  0  0
  183.9740  178.6660  145.0710 O   0  0  0  0  0  0  0  0  0  0  0  0
  189.4460  177.8140  144.9550 C   0  0  0  0  0  0  0  0  0  0  0  0
  187.8030  176.5210  143.5280 C   0  0  0  0  0  2  0  0  0  0  0  0
  186.1660  177.6280  146.7640 O   0  0  0  0  0  0  0  0  0  0  0  0
  191.5670  178.5680  144.0490 C   0  0  0  0  0  3  0  0  0  0  0  0
  188.5220  177.6960  146.1010 C   0  0  0  0  0  0  0  0  0  0  0  0
  190.6820  178.4520  145.1200 C   0  0  0  0  0  3  0  0  0  0  0  0
  181.8840  178.8470  143.9270 C   0  0  0  0  0  1  0  0  0  0  0  0
  184.0100  179.0280  142.6310 C   0  0  0  0  0  2  0  0  0  0  0  0
  187.1560  177.0780  145.9150 C   0  0  2  0  0  3  0  0  0  0  0  0
  191.2240  178.0470  142.8010 C   0  0  0  0  0  3  0  0  0  0  0  0
  189.0880  177.2960  143.6910 C   0  0  0  0  0  0  0  0  0  0  0  0
  189.6630  176.8380  141.2610 C   0  0  0  0  0  2  0  0  0  0  0  0
  189.0860  177.8680  140.3300 C   0  0  0  0  0  3  0  0  0  0  0  0
  188.9730  177.6960  139.0070 C   0  0  0  0  0  3  0  0  0  0  0  0
  189.4340  176.4540  138.3120 C   0  0  0  0  0  2  0  0  0  0  0  0
  190.6980  176.7270  137.5190 C   0  0  0  0  0  2  0  0  0  0  0  0
  191.8180  175.8160  137.9890 C   0  0  0  0  0  2  0  0  0  0  0  0
  192.6030  177.2110  139.7470 F   0  0  0  0  0  0  0  0  0  0  0  0
  192.9650  176.6430  138.5380 C   0  0  0  0  0  2  0  0  0  0  0  0
  1 19  2  0  0  0  0
  1 20  1  0  0  0  0
  4  9  1  0  0  0  0
  4  8  1  1  0  0  0
  5 11  1  6  0  0  0
  5 18  1  0  0  0  0
  6 16  1  6  0  0  0
  6  9  1  0  0  0  0
  7  2  1  6  0  0  0
  7  5  1  0  0  0  0
  7  4  1  0  0  0  0
  8 12  1  0  0  0  0
 10 15  1  0  0  0  0
 10 14  1  0  0  0  0
 11 20  1  0  0  0  0
 13 15  2  0  0  0  0
 14  3  2  0  0  0  0
 17  2  1  0  0  0  0
 17  6  1  0  0  0  0
 18 14  1  6  0  0  0
 18 12  1  0  0  0  0
 19 13  1  0  0  0  0
 20 10  2  0  0  0  0
 21  1  1  0  0  0  0
 22 21  1  0  0  0  0
 23 22  2  0  0  0  0
 24 23  1  0  0  0  0
 25 26  1  0  0  0  0
 25 24  1  0  0  0  0
 26 28  1  0  0  0  0
 28 27  1  0  0  0  0
M  END
>  <MODEL>
3

>  <REMARK>
 VINA RESULT:      -8.1      2.399      5.590
  Name = 
  6 active torsions:
  status: ('A' for Active; 'I' for Inactive)
    1  A    between atoms: C_1  and  C_2
    2  A    between atoms: C_2  and  C_3
    3  A    between atoms: C_6  and  C_7
    4  A    between atoms: C_6  and  C_11
    5  A    between atoms: C_7  and  C_28
    6  A    between atoms: C_8  and  C_11
                            x       y       z     vdW  Elec       q    Type
                         _______ _______ _______ _____ _____    ______ ____

>  <TORSDO>
F 6

$$$$
=
 OpenBabel10262420553D

 28 31  0  0  1  0  0  0  0  0999 V2000
  186.3060  177.5760  144.8500 C   0  0  0  0  0  0  0  0  0  0  0  0
  182.0220  178.6190  142.7960 C   0  0  0  0  0  2  0  0  0  0  0  0
  187.2570  178.5120  140.2250 O   0  0  0  0  0  0  0  0  0  0  0  0
  182.9460  178.1670  140.4920 C   0  0  2  0  0  3  0  0  0  0  0  0
  184.2920  179.4660  142.2420 C   0  0  1  0  0  3  0  0  0  0  0  0
  180.7070  178.3600  140.6290 C   0  0  2  0  0  3  0  0  0  0  0  0
  183.2950  178.3250  141.9870 C   0  0  1  0  0  3  0  0  0  0  0  0
  184.1480  178.4110  139.5860 C   0  0  0  0  0  2  0  0  0  0  0  0
  181.8710  179.0020  140.1530 O   0  0  0  0  0  0  0  0  0  0  0  0
  186.7860  177.9790  142.4920 C   0  0  0  0  0  0  0  0  0  0  0  0
  184.9630  179.3320  143.6130 C   0  0  0  0  0  2  0  0  0  0  0  0
  184.7370  179.6650  139.8430 O   0  0  0  0  0  0  0  0  0  0  0  0
  188.1080  176.3780  143.7490 C   0  0  0  0  0  3  0  0  0  0  0  0
  186.5010  178.6740  141.2210 C   0  0  0  0  0  0  0  0  0  0  0  0
  187.8220  177.0390  142.5540 C   0  0  0  0  0  3  0  0  0  0  0  0
  179.4990  179.2250  140.3370 C   0  0  0  0  0  1  0  0  0  0  0  0
  180.7620  178.0460  142.1390 C   0  0  0  0  0  2  0  0  0  0  0  0
  185.3370  179.6330  141.1230 C   0  0  2  0  0  3  0  0  0  0  0  0
  187.3570  176.6500  144.8920 C   0  0  0  0  0  3  0  0  0  0  0  0
  186.0160  178.2500  143.6440 C   0  0  0  0  0  0  0  0  0  0  0  0
  185.5410  177.8710  146.1080 C   0  0  0  0  0  2  0  0  0  0  0  0
  186.0560  179.1000  146.8050 C   0  0  0  0  0  3  0  0  0  0  0  0
  187.0060  179.0790  147.7480 C   0  0  0  0  0  3  0  0  0  0  0  0
  187.6460  177.8120  148.2220 C   0  0  0  0  0  2  0  0  0  0  0  0
  189.1570  177.9190  148.1470 C   0  0  0  0  0  2  0  0  0  0  0  0
  189.7280  176.7510  147.3620 C   0  0  0  0  0  2  0  0  0  0  0  0
  190.0980  178.2600  145.5630 F   0  0  0  0  0  0  0  0  0  0  0  0
  190.6920  177.2560  146.3060 C   0  0  0  0  0  2  0  0  0  0  0  0
  1 19  1  0  0  0  0
  1 21  1  0  0  0  0
  3 14  2  0  0  0  0
  4  8  1  6  0  0  0
  4  7  1  0  0  0  0
  5 11  1  1  0  0  0
  6 16  1  1  0  0  0
  6 17  1  0  0  0  0
  7  5  1  0  0  0  0
  7  2  1  1  0  0  0
  8 12  1  0  0  0  0
  9  4  1  0  0  0  0
  9  6  1  0  0  0  0
 10 15  2  0  0  0  0
 10 20  1  0  0  0  0
 11 20  1  0  0  0  0
 13 19  2  0  0  0  0
 14 10  1  0  0  0  0
 15 13  1  0  0  0  0
 17  2  1  0  0  0  0
 18 12  1  6  0  0  0
 18 14  1  0  0  0  0
 18  5  1  0  0  0  0
 20  1  2  0  0  0  0
 21 22  1  0  0  0  0
 22 23  2  0  0  0  0
 23 24  1  0  0  0  0
 25 24  1  0  0  0  0
 26 25  1  0  0  0  0
 27 28  1  0  0  0  0
 28 26  1  0  0  0  0
M  END
>  <MODEL>
4

>  <REMARK>
 VINA RESULT:      -7.2      2.410      4.863
  Name = 
  6 active torsions:
  status: ('A' for Active; 'I' for Inactive)
    1  A    between atoms: C_1  and  C_2
    2  A    between atoms: C_2  and  C_3
    3  A    between atoms: C_6  and  C_7
    4  A    between atoms: C_6  and  C_11
    5  A    between atoms: C_7  and  C_28
    6  A    between atoms: C_8  and  C_11
                            x       y       z     vdW  Elec       q    Type
                         _______ _______ _______ _____ _____    ______ ____

>  <TORSDO>
F 6

$$$$
=
 OpenBabel10262420553D

 28 31  0  0  1  0  0  0  0  0999 V2000
  185.7990  178.2500  143.2650 C   0  0  0  0  0  0  0  0  0  0  0  0
  189.1720  176.8440  146.4750 C   0  0  0  0  0  2  0  0  0  0  0  0
  189.7430  177.2690  140.6860 O   0  0  0  0  0  0  0  0  0  0  0  0
  191.0240  177.3030  144.8240 C   0  0  2  0  0  3  0  0  0  0  0  0
  188.8500  176.1510  144.1100 C   0  0  1  0  0  3  0  0  0  0  0  0
  191.6730  176.9500  146.9510 C   0  0  2  0  0  3  0  0  0  0  0  0
  189.4960  177.2090  145.0180 C   0  0  1  0  0  3  0  0  0  0  0  0
  191.4370  177.1250  143.3670 C   0  0  0  0  0  2  0  0  0  0  0  0
  191.6780  176.3830  145.6580 O   0  0  0  0  0  0  0  0  0  0  0  0
  187.8150  177.8230  141.9590 C   0  0  0  0  0  0  0  0  0  0  0  0
  187.3400  176.3700  143.9760 C   0  0  0  0  0  2  0  0  0  0  0  0
  190.9270  175.9250  142.8340 O   0  0  0  0  0  0  0  0  0  0  0  0
  186.2550  179.5490  141.2660 C   0  0  0  0  0  3  0  0  0  0  0  0
  189.0690  177.0770  141.7340 C   0  0  0  0  0  0  0  0  0  0  0  0
  187.4390  178.8380  141.0700 C   0  0  0  0  0  3  0  0  0  0  0  0
  192.3280  175.9910  147.9240 C   0  0  0  0  0  1  0  0  0  0  0  0
  190.2570  177.3060  147.4530 C   0  0  0  0  0  2  0  0  0  0  0  0
  189.5210  176.0330  142.7280 C   0  0  2  0  0  3  0  0  0  0  0  0
  185.4360  179.2510  142.3540 C   0  0  0  0  0  3  0  0  0  0  0  0
  186.9950  177.5260  143.0690 C   0  0  0  0  0  0  0  0  0  0  0  0
  184.8760  177.9320  144.4070 C   0  0  0  0  0  2  0  0  0  0  0  0
  184.1720  179.1580  144.9200 C   0  0  0  0  0  3  0  0  0  0  0  0
  182.8860  179.4360  144.6730 C   0  0  0  0  0  3  0  0  0  0  0  0
  182.0150  178.5540  143.8360 C   0  0  0  0  0  2  0  0  0  0  0  0
  181.8420  179.1400  142.4480 C   0  0  0  0  0  2  0  0  0  0  0  0
  181.3280  178.0780  141.4910 C   0  0  0  0  0  2  0  0  0  0  0  0
  183.4510  177.2340  140.8370 F   0  0  0  0  0  0  0  0  0  0  0  0
  182.3190  177.8710  140.3620 C   0  0  0  0  0  2  0  0  0  0  0  0
  1 21  1  0  0  0  0
  2 17  1  0  0  0  0
  3 14  2  0  0  0  0
  4  8  1  6  0  0  0
  4  7  1  0  0  0  0
  4  9  1  0  0  0  0
  5 11  1  6  0  0  0
  5  7  1  0  0  0  0
  6 17  1  0  0  0  0
  6 16  1  1  0  0  0
  7  2  1  1  0  0  0
  9  6  1  0  0  0  0
 10 20  2  0  0  0  0
 12  8  1  0  0  0  0
 13 19  1  0  0  0  0
 14 10  1  0  0  0  0
 15 13  2  0  0  0  0
 15 10  1  0  0  0  0
 18 14  1  6  0  0  0
 18 12  1  0  0  0  0
 18  5  1  0  0  0  0
 19  1  2  0  0  0  0
 20  1  1  0  0  0  0
 20 11  1  0  0  0  0
 21 22  1  0  0  0  0
 23 22  2  0  0  0  0
 24 23  1  0  0  0  0
 25 24  1  0  0  0  0
 26 25  1  0  0  0  0
 28 27  1  0  0  0  0
 28 26  1  0  0  0  0
M  END
>  <MODEL>
5

>  <REMARK>
 VINA RESULT:      -6.9      2.854      6.794
  Name = 
  6 active torsions:
  status: ('A' for Active; 'I' for Inactive)
    1  A    between atoms: C_1  and  C_2
    2  A    between atoms: C_2  and  C_3
    3  A    between atoms: C_6  and  C_7
    4  A    between atoms: C_6  and  C_11
    5  A    between atoms: C_7  and  C_28
    6  A    between atoms: C_8  and  C_11
                            x       y       z     vdW  Elec       q    Type
                         _______ _______ _______ _____ _____    ______ ____

>  <TORSDO>
F 6

$$$$
=
 OpenBabel10262420553D

 28 31  0  0  1  0  0  0  0  0999 V2000
  186.9680  178.0360  142.6520 C   0  0  0  0  0  0  0  0  0  0  0  0
  187.4870  177.6620  137.8300 C   0  0  0  0  0  2  0  0  0  0  0  0
  191.4650  176.4790  141.9290 O   0  0  0  0  0  0  0  0  0  0  0  0
  189.4700  176.1240  138.1010 C   0  0  2  0  0  3  0  0  0  0  0  0
  189.1800  178.2040  139.5680 C   0  0  1  0  0  3  0  0  0  0  0  0
  188.6070  176.2560  136.0250 C   0  0  2  0  0  3  0  0  0  0  0  0
  188.4780  177.0510  138.8340 C   0  0  1  0  0  3  0  0  0  0  0  0
  190.7610  175.9170  138.8850 C   0  0  0  0  0  2  0  0  0  0  0  0
  189.7260  176.6100  136.8100 O   0  0  0  0  0  0  0  0  0  0  0  0
  189.2250  177.1790  142.2970 C   0  0  0  0  0  0  0  0  0  0  0  0
  188.2720  178.8310  140.6310 C   0  0  0  0  0  2  0  0  0  0  0  0
  191.3610  177.1490  139.2150 O   0  0  0  0  0  0  0  0  0  0  0  0
  187.9690  176.5250  144.2680 C   0  0  0  0  0  3  0  0  0  0  0  0
  190.4590  177.0990  141.4910 C   0  0  0  0  0  0  0  0  0  0  0  0
  189.1260  176.4570  143.4930 C   0  0  0  0  0  3  0  0  0  0  0  0
  188.7910  176.7870  134.6180 C   0  0  0  0  0  1  0  0  0  0  0  0
  187.2720  176.7740  136.6000 C   0  0  0  0  0  2  0  0  0  0  0  0
  190.5470  177.8140  140.1620 C   0  0  2  0  0  3  0  0  0  0  0  0
  186.8980  177.3160  143.8520 C   0  0  0  0  0  3  0  0  0  0  0  0
  188.1380  177.9720  141.8660 C   0  0  0  0  0  0  0  0  0  0  0  0
  185.8100  178.9050  142.2520 C   0  0  0  0  0  2  0  0  0  0  0  0
  184.4890  178.2230  142.4800 C   0  0  0  0  0  3  0  0  0  0  0  0
  183.6870  178.4820  143.5200 C   0  0  0  0  0  3  0  0  0  0  0  0
  184.0370  179.4750  144.5830 C   0  0  0  0  0  2  0  0  0  0  0  0
  184.3390  178.7690  145.8910 C   0  0  0  0  0  2  0  0  0  0  0  0
  185.6340  179.2940  146.4840 C   0  0  0  0  0  2  0  0  0  0  0  0
  187.7040  178.2900  147.0860 F   0  0  0  0  0  0  0  0  0  0  0  0
  186.3340  178.1950  147.2600 C   0  0  0  0  0  2  0  0  0  0  0  0
  1 19  1  0  0  0  0
  4  7  1  0  0  0  0
  4  8  1  1  0  0  0
  5 18  1  0  0  0  0
  5 11  1  1  0  0  0
  6 16  1  6  0  0  0
  6 17  1  0  0  0  0
  6  9  1  0  0  0  0
  7  2  1  6  0  0  0
  7  5  1  0  0  0  0
  8 12  1  0  0  0  0
  9  4  1  0  0  0  0
 10 15  2  0  0  0  0
 11 20  1  0  0  0  0
 14  3  2  0  0  0  0
 14 10  1  0  0  0  0
 15 13  1  0  0  0  0
 17  2  1  0  0  0  0
 18 12  1  6  0  0  0
 18 14  1  0  0  0  0
 19 13  2  0  0  0  0
 20 10  1  0  0  0  0
 20  1  2  0  0  0  0
 21 22  1  0  0  0  0
 21  1  1  0  0  0  0
 22 23  2  0  0  0  0
 23 24  1  0  0  0  0
 24 25  1  0  0  0  0
 25 26  1  0  0  0  0
 26 28  1  0  0  0  0
 27 28  1  0  0  0  0
M  END
>  <MODEL>
6

>  <REMARK>
 VINA RESULT:      -6.9      2.970      5.774
  Name = 
  6 active torsions:
  status: ('A' for Active; 'I' for Inactive)
    1  A    between atoms: C_1  and  C_2
    2  A    between atoms: C_2  and  C_3
    3  A    between atoms: C_6  and  C_7
    4  A    between atoms: C_6  and  C_11
    5  A    between atoms: C_7  and  C_28
    6  A    between atoms: C_8  and  C_11
                            x       y       z     vdW  Elec       q    Type
                         _______ _______ _______ _____ _____    ______ ____

>  <TORSDO>
F 6

$$$$
=
 OpenBabel10262420553D

 28 31  0  0  1  0  0  0  0  0999 V2000
  188.0340  177.7790  142.5450 C   0  0  0  0  0  0  0  0  0  0  0  0
  186.0770  177.8560  138.0930 C   0  0  0  0  0  2  0  0  0  0  0  0
  191.5310  176.3840  139.5460 O   0  0  0  0  0  0  0  0  0  0  0  0
  187.8880  176.3390  137.2030 C   0  0  2  0  0  3  0  0  0  0  0  0
  188.4240  178.2710  138.7990 C   0  0  1  0  0  3  0  0  0  0  0  0
  186.1120  176.6430  135.8530 C   0  0  2  0  0  3  0  0  0  0  0  0
  187.4180  177.1760  138.4120 C   0  0  1  0  0  3  0  0  0  0  0  0
  189.3920  176.0880  137.2200 C   0  0  0  0  0  2  0  0  0  0  0  0
  187.4820  176.9470  136.0050 O   0  0  0  0  0  0  0  0  0  0  0  0
  189.7900  177.0030  141.0400 C   0  0  0  0  0  0  0  0  0  0  0  0
  188.1830  178.7800  140.2240 C   0  0  0  0  0  2  0  0  0  0  0  0
  190.1110  177.2960  137.3160 O   0  0  0  0  0  0  0  0  0  0  0  0
  189.6620  176.1470  143.3080 C   0  0  0  0  0  3  0  0  0  0  0  0
  190.4580  177.0210  139.7240 C   0  0  0  0  0  0  0  0  0  0  0  0
  190.2790  176.1730  142.0570 C   0  0  0  0  0  3  0  0  0  0  0  0
  185.5870  177.3030  134.5950 C   0  0  0  0  0  1  0  0  0  0  0  0
  185.2550  177.0790  137.0600 C   0  0  0  0  0  2  0  0  0  0  0  0
  189.8940  177.8560  138.5970 C   0  0  2  0  0  3  0  0  0  0  0  0
  188.5490  176.9510  143.5520 C   0  0  0  0  0  3  0  0  0  0  0  0
  188.6560  177.8100  141.2790 C   0  0  0  0  0  0  0  0  0  0  0  0
  186.8550  178.6570  142.8540 C   0  0  0  0  0  2  0  0  0  0  0  0
  185.5490  177.9420  142.6400 C   0  0  0  0  0  3  0  0  0  0  0  0
  184.4190  178.2450  143.2900 C   0  0  0  0  0  3  0  0  0  0  0  0
  184.3450  179.3260  144.3220 C   0  0  0  0  0  2  0  0  0  0  0  0
  184.4320  178.7360  145.7170 C   0  0  0  0  0  2  0  0  0  0  0  0
  185.7100  179.1910  146.4000 C   0  0  0  0  0  2  0  0  0  0  0  0
  186.2020  176.9260  145.8720 F   0  0  0  0  0  0  0  0  0  0  0  0
  186.6330  178.0080  146.6190 C   0  0  0  0  0  2  0  0  0  0  0  0
  1 21  1  0  0  0  0
  1 19  1  0  0  0  0
  3 14  2  0  0  0  0
  4  8  1  6  0  0  0
  4  7  1  0  0  0  0
  5 11  1  1  0  0  0
  6 16  1  6  0  0  0
  6  9  1  0  0  0  0
  6 17  1  0  0  0  0
  7  2  1  6  0  0  0
  7  5  1  0  0  0  0
  8 12  1  0  0  0  0
  9  4  1  0  0  0  0
 10 20  1  0  0  0  0
 10 15  2  0  0  0  0
 11 20  1  0  0  0  0
 13 19  2  0  0  0  0
 14 10  1  0  0  0  0
 15 13  1  0  0  0  0
 17  2  1  0  0  0  0
 18 12  1  6  0  0  0
 18  5  1  0  0  0  0
 18 14  1  0  0  0  0
 20  1  2  0  0  0  0
 22 21  1  0  0  0  0
 22 23  2  0  0  0  0
 23 24  1  0  0  0  0
 24 25  1  0  0  0  0
 25 26  1  0  0  0  0
 26 28  1  0  0  0  0
 27 28  1  0  0  0  0
M  END
>  <MODEL>
7

>  <REMARK>
 VINA RESULT:      -6.8      3.094      6.067
  Name = 
  6 active torsions:
  status: ('A' for Active; 'I' for Inactive)
    1  A    between atoms: C_1  and  C_2
    2  A    between atoms: C_2  and  C_3
    3  A    between atoms: C_6  and  C_7
    4  A    between atoms: C_6  and  C_11
    5  A    between atoms: C_7  and  C_28
    6  A    between atoms: C_8  and  C_11
                            x       y       z     vdW  Elec       q    Type
                         _______ _______ _______ _____ _____    ______ ____

>  <TORSDO>
F 6

$$$$
=
 OpenBabel10262420553D

 28 31  0  0  1  0  0  0  0  0999 V2000
  189.3340  177.2220  146.4830 C   0  0  0  0  0  0  0  0  0  0  0  0
  187.2280  177.8780  142.1480 C   0  0  0  0  0  2  0  0  0  0  0  0
  184.8740  178.7790  147.4080 O   0  0  0  0  0  0  0  0  0  0  0  0
  185.4700  179.3790  143.1590 C   0  0  2  0  0  3  0  0  0  0  0  0
  186.2130  177.2190  144.3190 C   0  0  1  0  0  3  0  0  0  0  0  0
  185.5820  179.3780  140.9100 C   0  0  2  0  0  3  0  0  0  0  0  0
  186.6400  178.4190  143.4600 C   0  0  1  0  0  3  0  0  0  0  0  0
  184.5200  179.5270  144.3430 C   0  0  0  0  0  2  0  0  0  0  0  0
  184.7890  178.9680  142.0030 O   0  0  0  0  0  0  0  0  0  0  0  0
  187.1000  178.0790  146.9590 C   0  0  0  0  0  0  0  0  0  0  0  0
  187.4170  176.5380  144.9750 C   0  0  0  0  0  2  0  0  0  0  0  0
  184.0520  178.2730  144.7830 O   0  0  0  0  0  0  0  0  0  0  0  0
  188.9530  178.6260  148.4270 C   0  0  0  0  0  3  0  0  0  0  0  0
  185.6670  178.1950  146.6210 C   0  0  0  0  0  0  0  0  0  0  0  0
  187.6030  178.7300  148.0920 C   0  0  0  0  0  3  0  0  0  0  0  0
  184.9310  178.9300  139.6190 C   0  0  0  0  0  1  0  0  0  0  0  0
  187.0270  178.8390  140.9720 C   0  0  0  0  0  2  0  0  0  0  0  0
  185.1290  177.5600  145.3590 C   0  0  2  0  0  3  0  0  0  0  0  0
  189.8120  177.8700  147.6300 C   0  0  0  0  0  3  0  0  0  0  0  0
  187.9680  177.3230  146.1420 C   0  0  0  0  0  0  0  0  0  0  0  0
  190.2800  176.3890  145.6660 C   0  0  0  0  0  2  0  0  0  0  0  0
  191.5560  177.1240  145.3590 C   0  0  0  0  0  3  0  0  0  0  0  0
  191.6820  178.0170  144.3710 C   0  0  0  0  0  3  0  0  0  0  0  0
  190.5570  178.3640  143.4470 C   0  0  0  0  0  2  0  0  0  0  0  0
  190.9630  178.1350  142.0040 C   0  0  0  0  0  2  0  0  0  0  0  0
  190.5560  176.7410  141.5590 C   0  0  0  0  0  2  0  0  0  0  0  0
  190.1590  178.0540  139.6170 F   0  0  0  0  0  0  0  0  0  0  0  0
  190.1780  176.7540  140.0900 C   0  0  0  0  0  2  0  0  0  0  0  0
  1 19  1  0  0  0  0
  4  7  1  0  0  0  0
  4  8  1  1  0  0  0
  5 11  1  1  0  0  0
  5 18  1  0  0  0  0
  6 16  1  6  0  0  0
  6 17  1  0  0  0  0
  6  9  1  0  0  0  0
  7  2  1  6  0  0  0
  7  5  1  0  0  0  0
  8 12  1  0  0  0  0
  9  4  1  0  0  0  0
 10 15  2  0  0  0  0
 11 20  1  0  0  0  0
 14 10  1  0  0  0  0
 14  3  2  0  0  0  0
 15 13  1  0  0  0  0
 17  2  1  0  0  0  0
 18 12  1  6  0  0  0
 18 14  1  0  0  0  0
 19 13  2  0  0  0  0
 20  1  2  0  0  0  0
 20 10  1  0  0  0  0
 21  1  1  0  0  0  0
 22 21  1  0  0  0  0
 23 22  2  0  0  0  0
 24 23  1  0  0  0  0
 25 24  1  0  0  0  0
 26 25  1  0  0  0  0
 27 28  1  0  0  0  0
 28 26  1  0  0  0  0
M  END
>  <MODEL>
8

>  <REMARK>
 VINA RESULT:      -6.6      1.628      2.807
  Name = 
  6 active torsions:
  status: ('A' for Active; 'I' for Inactive)
    1  A    between atoms: C_1  and  C_2
    2  A    between atoms: C_2  and  C_3
    3  A    between atoms: C_6  and  C_7
    4  A    between atoms: C_6  and  C_11
    5  A    between atoms: C_7  and  C_28
    6  A    between atoms: C_8  and  C_11
                            x       y       z     vdW  Elec       q    Type
                         _______ _______ _______ _____ _____    ______ ____

>  <TORSDO>
F 6

$$$$
=
 OpenBabel10262420553D

 28 31  0  0  1  0  0  0  0  0999 V2000
  187.6150  177.7270  146.7080 C   0  0  0  0  0  0  0  0  0  0  0  0
  188.9190  177.3420  142.0380 C   0  0  0  0  0  2  0  0  0  0  0  0
  183.8690  179.3470  144.1580 O   0  0  0  0  0  0  0  0  0  0  0  0
  187.1410  178.9900  141.3410 C   0  0  2  0  0  3  0  0  0  0  0  0
  186.6670  177.1640  143.0740 C   0  0  1  0  0  3  0  0  0  0  0  0
  188.6780  178.4860  139.7750 C   0  0  2  0  0  3  0  0  0  0  0  0
  187.7000  178.1500  142.5080 C   0  0  1  0  0  3  0  0  0  0  0  0
  185.6810  179.3780  141.5510 C   0  0  0  0  0  2  0  0  0  0  0  0
  187.3220  178.3140  140.1250 O   0  0  0  0  0  0  0  0  0  0  0  0
  185.7400  178.6160  145.4250 C   0  0  0  0  0  0  0  0  0  0  0  0
  187.0590  176.6760  144.4720 C   0  0  0  0  0  2  0  0  0  0  0  0
  184.8810  178.2450  141.7940 O   0  0  0  0  0  0  0  0  0  0  0  0
  186.2570  179.5220  147.6170 C   0  0  0  0  0  3  0  0  0  0  0  0
  184.8970  178.6200  144.2140 C   0  0  0  0  0  0  0  0  0  0  0  0
  185.4720  179.5160  146.4640 C   0  0  0  0  0  3  0  0  0  0  0  0
  188.9640  177.7450  138.4860 C   0  0  0  0  0  1  0  0  0  0  0  0
  189.6540  178.0090  140.8710 C   0  0  0  0  0  2  0  0  0  0  0  0
  185.2240  177.7050  143.0560 C   0  0  2  0  0  3  0  0  0  0  0  0
  187.3190  178.6270  147.7410 C   0  0  0  0  0  3  0  0  0  0  0  0
  186.8230  177.7160  145.5410 C   0  0  0  0  0  0  0  0  0  0  0  0
  188.7450  176.7540  146.8900 C   0  0  0  0  0  2  0  0  0  0  0  0
  189.8370  176.9640  145.8770 C   0  0  0  0  0  3  0  0  0  0  0  0
  191.1410  176.9830  146.1790 C   0  0  0  0  0  3  0  0  0  0  0  0
  191.6480  176.8160  147.5770 C   0  0  0  0  0  2  0  0  0  0  0  0
  192.5860  175.6270  147.6630 C   0  0  0  0  0  2  0  0  0  0  0  0
  193.3150  175.6300  148.9960 C   0  0  0  0  0  2  0  0  0  0  0  0
  194.3050  177.2020  150.4790 F   0  0  0  0  0  0  0  0  0  0  0  0
  193.2280  177.0030  149.6330 C   0  0  0  0  0  2  0  0  0  0  0  0
  1 21  1  0  0  0  0
  1 19  1  0  0  0  0
  3 14  2  0  0  0  0
  4  8  1  1  0  0  0
  4  7  1  0  0  0  0
  5 11  1  1  0  0  0
  6 16  1  6  0  0  0
  6  9  1  0  0  0  0
  6 17  1  0  0  0  0
  7  2  1  6  0  0  0
  7  5  1  0  0  0  0
  8 12  1  0  0  0  0
  9  4  1  0  0  0  0
 10 20  1  0  0  0  0
 10 15  2  0  0  0  0
 11 20  1  0  0  0  0
 13 19  2  0  0  0  0
 14 10  1  0  0  0  0
 15 13  1  0  0  0  0
 17  2  1  0  0  0  0
 18 12  1  6  0  0  0
 18  5  1  0  0  0  0
 18 14  1  0  0  0  0
 20  1  2  0  0  0  0
 22 23  2  0  0  0  0
 22 21  1  0  0  0  0
 23 24  1  0  0  0  0
 24 25  1  0  0  0  0
 25 26  1  0  0  0  0
 26 28  1  0  0  0  0
 28 27  1  0  0  0  0
M  END
>  <MODEL>
9

>  <REMARK>
 VINA RESULT:      -6.6      1.739      2.305
  Name = 
  6 active torsions:
  status: ('A' for Active; 'I' for Inactive)
    1  A    between atoms: C_1  and  C_2
    2  A    between atoms: C_2  and  C_3
    3  A    between atoms: C_6  and  C_7
    4  A    between atoms: C_6  and  C_11
    5  A    between atoms: C_7  and  C_28
    6  A    between atoms: C_8  and  C_11
                            x       y       z     vdW  Elec       q    Type
                         _______ _______ _______ _____ _____    ______ ____

>  <TORSDO>
F 6

$$$$
