=
 OpenBabel10262423073D

 37 36  0  0  1  0  0  0  0  0999 V2000
  188.7200  175.8160  143.1060 O   0  0  0  0  0  1  0  0  0  0  0  0
  189.4630  176.9990  142.9560 C   0  0  1  0  0  0  0  0  0  0  0  0
  191.2100  175.4480  143.6190 O   0  0  0  0  0  1  0  0  0  0  0  0
  190.8440  176.7970  143.6080 C   0  0  2  0  0  3  0  0  0  0  0  0
  190.9690  177.4020  145.0080 C   0  0  0  0  0  2  0  0  0  0  0  0
  191.7880  176.5250  145.9500 C   0  0  0  0  0  2  0  0  0  0  0  0
  191.4350  177.3720  148.1450 F   0  0  0  0  0  0  0  0  0  0  0  0
  191.0860  176.3460  147.2870 C   0  0  0  0  0  0  0  0  0  0  0  0
  191.4730  175.1420  147.8420 F   0  0  0  0  0  0  0  0  0  0  0  0
  189.7140  176.3390  147.1070 F   0  0  0  0  0  0  0  0  0  0  0  0
  189.6740  177.2870  141.4540 C   0  0  2  0  0  3  0  0  0  0  0  0
  191.7510  177.0330  139.9330 C   0  0  0  0  0  0  0  0  0  0  0  0
  191.0870  177.4950  141.1160 N   0  0  0  0  0  2  0  0  0  0  0  0
  191.0840  176.1950  138.9930 N   0  0  0  0  0  1  0  0  0  0  0  0
  192.9490  177.3560  139.7320 O   0  0  0  0  0  0  0  0  0  0  0  0
  188.7700  178.3850  140.8910 C   0  0  0  0  0  2  0  0  0  0  0  0
  188.0000  177.8610  139.6930 C   0  0  0  0  0  2  0  0  0  0  0  0
  188.5640  178.4460  138.4190 C   0  0  0  0  0  2  0  0  0  0  0  0
  187.3580  178.2160  137.0800 S   0  0  0  0  0  0  0  0  0  0  0  0
  189.2830  177.0990  135.3910 S   0  0  0  0  0  0  0  0  0  0  0  0
  188.2620  176.8440  136.3670 C   0  0  0  0  0  0  0  0  0  0  0  0
  188.1530  175.4920  137.0050 C   0  0  0  0  0  2  0  0  0  0  0  0
  186.3800  173.7480  137.2050 C   0  0  0  0  0  1  0  0  0  0  0  0
  187.2030  174.5840  136.2410 C   0  0  0  0  0  2  0  0  0  0  0  0
  188.8250  178.0900  143.5870 O   0  0  0  0  0  0  0  0  0  0  0  0
  187.8220  177.6040  144.3380 O   0  0  0  0  0  0  0  0  0  0  0  0
  187.4930  178.2210  145.5240 N   0  0  0  0  0  0  0  0  0  0  0  0
  186.2870  178.6200  145.7710 C   0  0  0  0  0  0  0  0  0  0  0  0
  186.0270  179.2520  146.9440 F   0  0  0  0  0  0  0  0  0  0  0  0
  183.9540  178.6690  145.3880 O   0  0  0  0  0  1  0  0  0  0  0  0
  185.1850  178.4070  144.7830 C   0  0  1  0  0  3  0  0  0  0  0  0
  185.3660  179.2690  143.6660 O   0  0  0  0  0  0  0  0  0  0  0  0
  185.3150  178.8050  142.3500 C   0  0  0  0  0  0  0  0  0  0  0  0
  185.6420  177.6140  142.0800 O   0  0  0  0  0  0  0  0  0  0  0  0
  184.8750  179.6640  141.3440 O   0  0  0  0  0  0  0  0  0  0  0  0
  184.5110  179.1830  140.0590 C   0  0  0  0  0  2  0  0  0  0  0  0
  184.4090  180.2540  139.1760 O   0  0  0  0  0  1  0  0  0  0  0  0
  2  1  1  1  0  0  0
  2 25  1  0  0  0  0
  2  4  1  0  0  0  0
  4  3  1  1  0  0  0
  4  5  1  0  0  0  0
  5  6  1  0  0  0  0
  6  8  1  0  0  0  0
  8  9  1  0  0  0  0
  8  7  1  0  0  0  0
 10  8  1  0  0  0  0
 11 16  1  1  0  0  0
 11  2  1  0  0  0  0
 12 13  1  0  0  0  0
 13 11  1  0  0  0  0
 14 12  1  0  0  0  0
 15 12  2  0  0  0  0
 17 16  1  0  0  0  0
 18 17  1  0  0  0  0
 19 18  1  0  0  0  0
 20 21  2  0  0  0  0
 21 22  1  0  0  0  0
 21 19  1  0  0  0  0
 24 22  1  0  0  0  0
 24 23  1  0  0  0  0
 25 26  1  0  0  0  0
 26 27  1  0  0  0  0
 27 28  2  0  0  0  0
 28 29  1  0  0  0  0
 31 30  1  1  0  0  0
 31 28  1  0  0  0  0
 32 31  1  0  0  0  0
 33 32  1  0  0  0  0
 34 33  2  0  0  0  0
 35 33  1  0  0  0  0
 36 35  1  0  0  0  0
 37 36  1  0  0  0  0
M  END
>  <MODEL>
1

>  <REMARK>
 VINA RESULT:      -6.2      0.000      0.000
  Name = 
  21 active torsions:
  status: ('A' for Active; 'I' for Inactive)
    1  A    between atoms: N_1  and  O_36
    2  A    between atoms: C_5  and  C_17
    3  A    between atoms: C_6  and  S_8
    4  A    between atoms: C_6  and  C_31
    5  A    between atoms: C_7  and  O_33
    6  A    between atoms: S_8  and  C_19
    7  A    between atoms: C_10  and  C_14
    8  A    between atoms: C_10  and  C_20
    9  A    between atoms: C_10  and  N_22
   10  A    between atoms: C_11  and  O_26
   11  A    between atoms: C_11  and  O_33
   12  A    between atoms: C_14  and  C_31
   13  A    between atoms: C_16  and  C_21
   14  A    between atoms: C_16  and  C_30
   15  A    between atoms: C_17  and  O_26
   16  A    between atoms: C_18  and  C_19
   17  A    between atoms: C_18  and  C_35
   18  A    between atoms: C_20  and  C_24
   19  A    between atoms: C_20  and  O_29
   20  A    between atoms: C_24  and  C_30
   21  A    between atoms: O_29  and  O_36
                            x       y       z     vdW  Elec       q    Type
                         _______ _______ _______ _____ _____    ______ ____

>  <TORSDO>
F 21

$$$$
=
 OpenBabel10262423073D

 37 36  0  0  1  0  0  0  0  0999 V2000
  189.1340  179.1360  138.7130 O   0  0  0  0  0  1  0  0  0  0  0  0
  188.9980  177.7440  138.8400 C   0  0  1  0  0  0  0  0  0  0  0  0
  188.9770  178.0840  136.4350 O   0  0  0  0  0  1  0  0  0  0  0  0
  188.7290  177.1480  137.4450 C   0  0  2  0  0  3  0  0  0  0  0  0
  187.3360  176.5360  137.2840 C   0  0  0  0  0  2  0  0  0  0  0  0
  186.3680  177.4730  136.5700 C   0  0  0  0  0  2  0  0  0  0  0  0
  184.9180  175.7300  137.2940 F   0  0  0  0  0  0  0  0  0  0  0  0
  184.9480  176.9280  136.6030 C   0  0  0  0  0  0  0  0  0  0  0  0
  184.5170  176.7140  135.3090 F   0  0  0  0  0  0  0  0  0  0  0  0
  184.1030  177.8370  137.2150 F   0  0  0  0  0  0  0  0  0  0  0  0
  190.3170  177.1450  139.3770 C   0  0  2  0  0  3  0  0  0  0  0  0
  192.1210  175.7310  138.1790 C   0  0  0  0  0  0  0  0  0  0  0  0
  190.7730  175.9960  138.5860 N   0  0  0  0  0  2  0  0  0  0  0  0
  193.1640  176.6690  138.4290 N   0  0  0  0  0  1  0  0  0  0  0  0
  192.3840  174.6610  137.5740 O   0  0  0  0  0  0  0  0  0  0  0  0
  190.3100  176.8570  140.8790 C   0  0  0  0  0  2  0  0  0  0  0  0
  191.5160  177.5030  141.5370 C   0  0  0  0  0  2  0  0  0  0  0  0
  191.1980  177.8460  142.9740 C   0  0  0  0  0  2  0  0  0  0  0  0
  189.4450  177.4900  143.2910 S   0  0  0  0  0  0  0  0  0  0  0  0
  191.0610  177.0280  145.5230 S   0  0  0  0  0  0  0  0  0  0  0  0
  189.7200  177.1850  145.0340 C   0  0  0  0  0  0  0  0  0  0  0  0
  188.5880  177.3880  145.9950 C   0  0  0  0  0  2  0  0  0  0  0  0
  186.3380  178.4390  146.2250 C   0  0  0  0  0  1  0  0  0  0  0  0
  187.2960  177.7400  145.2770 C   0  0  0  0  0  2  0  0  0  0  0  0
  187.9180  177.4080  139.6860 O   0  0  0  0  0  0  0  0  0  0  0  0
  187.3260  178.5500  140.0740 O   0  0  0  0  0  0  0  0  0  0  0  0
  186.0380  178.8250  139.6730 N   0  0  0  0  0  0  0  0  0  0  0  0
  185.0650  178.9090  140.5220 C   0  0  0  0  0  0  0  0  0  0  0  0
  183.8090  179.1500  140.0670 F   0  0  0  0  0  0  0  0  0  0  0  0
  185.4050  179.9870  142.6000 O   0  0  0  0  0  1  0  0  0  0  0  0
  185.3020  178.7350  141.9880 C   0  0  1  0  0  3  0  0  0  0  0  0
  184.2270  178.0050  142.5660 O   0  0  0  0  0  0  0  0  0  0  0  0
  183.2040  178.6260  143.2860 C   0  0  0  0  0  0  0  0  0  0  0  0
  183.2650  178.7020  144.5460 O   0  0  0  0  0  0  0  0  0  0  0  0
  182.1310  179.1850  142.5940 O   0  0  0  0  0  0  0  0  0  0  0  0
  180.8640  179.3690  143.2070 C   0  0  0  0  0  2  0  0  0  0  0  0
  180.2400  180.4850  142.6560 O   0  0  0  0  0  1  0  0  0  0  0  0
  2  1  1  6  0  0  0
  2 11  1  0  0  0  0
  2 25  1  0  0  0  0
  4  3  1  6  0  0  0
  4  2  1  0  0  0  0
  5  4  1  0  0  0  0
  6  8  1  0  0  0  0
  6  5  1  0  0  0  0
  8 10  1  0  0  0  0
  8  7  1  0  0  0  0
  9  8  1  0  0  0  0
 11 16  1  1  0  0  0
 12 14  1  0  0  0  0
 12 13  1  0  0  0  0
 13 11  1  0  0  0  0
 15 12  2  0  0  0  0
 16 17  1  0  0  0  0
 17 18  1  0  0  0  0
 18 19  1  0  0  0  0
 19 21  1  0  0  0  0
 21 20  2  0  0  0  0
 21 22  1  0  0  0  0
 24 22  1  0  0  0  0
 24 23  1  0  0  0  0
 25 26  1  0  0  0  0
 27 26  1  0  0  0  0
 27 28  2  0  0  0  0
 28 31  1  0  0  0  0
 29 28  1  0  0  0  0
 31 32  1  0  0  0  0
 31 30  1  1  0  0  0
 32 33  1  0  0  0  0
 33 34  2  0  0  0  0
 35 36  1  0  0  0  0
 35 33  1  0  0  0  0
 37 36  1  0  0  0  0
M  END
>  <MODEL>
2

>  <REMARK>
 VINA RESULT:      -6.1      4.509      7.069
  Name = 
  21 active torsions:
  status: ('A' for Active; 'I' for Inactive)
    1  A    between atoms: N_1  and  O_36
    2  A    between atoms: C_5  and  C_17
    3  A    between atoms: C_6  and  S_8
    4  A    between atoms: C_6  and  C_31
    5  A    between atoms: C_7  and  O_33
    6  A    between atoms: S_8  and  C_19
    7  A    between atoms: C_10  and  C_14
    8  A    between atoms: C_10  and  C_20
    9  A    between atoms: C_10  and  N_22
   10  A    between atoms: C_11  and  O_26
   11  A    between atoms: C_11  and  O_33
   12  A    between atoms: C_14  and  C_31
   13  A    between atoms: C_16  and  C_21
   14  A    between atoms: C_16  and  C_30
   15  A    between atoms: C_17  and  O_26
   16  A    between atoms: C_18  and  C_19
   17  A    between atoms: C_18  and  C_35
   18  A    between atoms: C_20  and  C_24
   19  A    between atoms: C_20  and  O_29
   20  A    between atoms: C_24  and  C_30
   21  A    between atoms: O_29  and  O_36
                            x       y       z     vdW  Elec       q    Type
                         _______ _______ _______ _____ _____    ______ ____

>  <TORSDO>
F 21

$$$$
=
 OpenBabel10262423073D

 37 36  0  0  1  0  0  0  0  0999 V2000
  189.0760  179.1920  139.0640 O   0  0  0  0  0  1  0  0  0  0  0  0
  188.8990  177.8800  139.5330 C   0  0  1  0  0  0  0  0  0  0  0  0
  191.3060  177.5920  139.3820 O   0  0  0  0  0  1  0  0  0  0  0  0
  190.0780  177.0200  139.0370 C   0  0  2  0  0  3  0  0  0  0  0  0
  190.0320  176.6980  137.5420 C   0  0  0  0  0  2  0  0  0  0  0  0
  190.3740  175.2400  137.2510 C   0  0  0  0  0  2  0  0  0  0  0  0
  192.4880  174.5990  138.1370 F   0  0  0  0  0  0  0  0  0  0  0  0
  191.8630  175.0630  136.9940 C   0  0  0  0  0  0  0  0  0  0  0  0
  192.4070  176.2840  136.6460 F   0  0  0  0  0  0  0  0  0  0  0  0
  192.0650  174.1690  135.9580 F   0  0  0  0  0  0  0  0  0  0  0  0
  188.9130  177.8780  141.0770 C   0  0  2  0  0  3  0  0  0  0  0  0
  190.3780  176.2590  142.4640 C   0  0  0  0  0  0  0  0  0  0  0  0
  189.2500  176.5630  141.6330 N   0  0  0  0  0  2  0  0  0  0  0  0
  191.3740  177.2390  142.7400 N   0  0  0  0  0  1  0  0  0  0  0  0
  190.4990  175.1020  142.9410 O   0  0  0  0  0  0  0  0  0  0  0  0
  187.6610  178.4810  141.7160 C   0  0  0  0  0  2  0  0  0  0  0  0
  187.2230  177.6340  142.8970 C   0  0  0  0  0  2  0  0  0  0  0  0
  187.8460  178.1590  144.1700 C   0  0  0  0  0  2  0  0  0  0  0  0
  186.8700  177.5760  145.5870 S   0  0  0  0  0  0  0  0  0  0  0  0
  188.0260  177.6640  148.1300 S   0  0  0  0  0  0  0  0  0  0  0  0
  188.2600  177.6820  146.7130 C   0  0  0  0  0  0  0  0  0  0  0  0
  189.6450  177.4890  146.1770 C   0  0  0  0  0  2  0  0  0  0  0  0
  191.8230  176.3070  146.4610 C   0  0  0  0  0  1  0  0  0  0  0  0
  190.5110  176.6800  147.1270 C   0  0  0  0  0  2  0  0  0  0  0  0
  187.6990  177.3180  139.0450 O   0  0  0  0  0  0  0  0  0  0  0  0
  187.0070  178.2910  138.4290 O   0  0  0  0  0  0  0  0  0  0  0  0
  185.9060  177.9730  137.6660 N   0  0  0  0  0  0  0  0  0  0  0  0
  184.7020  178.2130  138.0760 C   0  0  0  0  0  0  0  0  0  0  0  0
  183.6530  177.8470  137.2970 F   0  0  0  0  0  0  0  0  0  0  0  0
  184.3960  180.2580  139.2230 O   0  0  0  0  0  1  0  0  0  0  0  0
  184.4520  178.8730  139.3940 C   0  0  1  0  0  3  0  0  0  0  0  0
  183.2260  178.4050  139.9420 O   0  0  0  0  0  0  0  0  0  0  0  0
  182.9190  178.5310  141.2990 C   0  0  0  0  0  0  0  0  0  0  0  0
  181.7330  178.7620  141.6670 O   0  0  0  0  0  0  0  0  0  0  0  0
  183.9350  178.3730  142.2410 O   0  0  0  0  0  0  0  0  0  0  0  0
  183.7550  178.7390  143.6010 C   0  0  0  0  0  2  0  0  0  0  0  0
  184.5180  179.8690  143.8820 O   0  0  0  0  0  1  0  0  0  0  0  0
  2  1  1  6  0  0  0
  2 11  1  0  0  0  0
  4  3  1  6  0  0  0
  4  2  1  0  0  0  0
  5  4  1  0  0  0  0
  6  5  1  0  0  0  0
  8  6  1  0  0  0  0
  8  7  1  0  0  0  0
  9  8  1  0  0  0  0
 10  8  1  0  0  0  0
 11 13  1  0  0  0  0
 11 16  1  1  0  0  0
 12 14  1  0  0  0  0
 12 15  2  0  0  0  0
 13 12  1  0  0  0  0
 16 17  1  0  0  0  0
 17 18  1  0  0  0  0
 18 19  1  0  0  0  0
 19 21  1  0  0  0  0
 21 20  2  0  0  0  0
 22 21  1  0  0  0  0
 22 24  1  0  0  0  0
 23 24  1  0  0  0  0
 25  2  1  0  0  0  0
 26 25  1  0  0  0  0
 27 28  2  0  0  0  0
 27 26  1  0  0  0  0
 28 31  1  0  0  0  0
 29 28  1  0  0  0  0
 31 30  1  6  0  0  0
 31 32  1  0  0  0  0
 32 33  1  0  0  0  0
 33 34  2  0  0  0  0
 33 35  1  0  0  0  0
 35 36  1  0  0  0  0
 36 37  1  0  0  0  0
M  END
>  <MODEL>
3

>  <REMARK>
 VINA RESULT:      -6.0      4.679      7.216
  Name = 
  21 active torsions:
  status: ('A' for Active; 'I' for Inactive)
    1  A    between atoms: N_1  and  O_36
    2  A    between atoms: C_5  and  C_17
    3  A    between atoms: C_6  and  S_8
    4  A    between atoms: C_6  and  C_31
    5  A    between atoms: C_7  and  O_33
    6  A    between atoms: S_8  and  C_19
    7  A    between atoms: C_10  and  C_14
    8  A    between atoms: C_10  and  C_20
    9  A    between atoms: C_10  and  N_22
   10  A    between atoms: C_11  and  O_26
   11  A    between atoms: C_11  and  O_33
   12  A    between atoms: C_14  and  C_31
   13  A    between atoms: C_16  and  C_21
   14  A    between atoms: C_16  and  C_30
   15  A    between atoms: C_17  and  O_26
   16  A    between atoms: C_18  and  C_19
   17  A    between atoms: C_18  and  C_35
   18  A    between atoms: C_20  and  C_24
   19  A    between atoms: C_20  and  O_29
   20  A    between atoms: C_24  and  C_30
   21  A    between atoms: O_29  and  O_36
                            x       y       z     vdW  Elec       q    Type
                         _______ _______ _______ _____ _____    ______ ____

>  <TORSDO>
F 21

$$$$
=
 OpenBabel10262423073D

 37 36  0  0  1  0  0  0  0  0999 V2000
  185.4350  180.0110  142.0260 O   0  0  0  0  0  1  0  0  0  0  0  0
  184.8690  178.7290  141.9290 C   0  0  1  0  0  0  0  0  0  0  0  0
  182.6490  178.9590  142.8860 O   0  0  0  0  0  1  0  0  0  0  0  0
  183.9470  178.5070  143.1430 C   0  0  2  0  0  3  0  0  0  0  0  0
  184.4780  179.1020  144.4490 C   0  0  0  0  0  2  0  0  0  0  0  0
  185.5790  178.2490  145.0710 C   0  0  0  0  0  2  0  0  0  0  0  0
  184.4670  178.0830  147.1680 F   0  0  0  0  0  0  0  0  0  0  0  0
  185.6570  178.4630  146.5750 C   0  0  0  0  0  0  0  0  0  0  0  0
  185.8820  179.8020  146.8290 F   0  0  0  0  0  0  0  0  0  0  0  0
  186.6980  177.7230  147.1080 F   0  0  0  0  0  0  0  0  0  0  0  0
  184.0130  178.6410  140.6470 C   0  0  2  0  0  3  0  0  0  0  0  0
  182.2010  176.9190  139.9810 C   0  0  0  0  0  0  0  0  0  0  0  0
  183.5260  177.2810  140.3910 N   0  0  0  0  0  2  0  0  0  0  0  0
  181.1660  177.8940  139.8920 N   0  0  0  0  0  1  0  0  0  0  0  0
  181.9430  175.7180  139.7150 O   0  0  0  0  0  0  0  0  0  0  0  0
  184.6610  179.2720  139.4140 C   0  0  0  0  0  2  0  0  0  0  0  0
  184.9550  178.2040  138.3770 C   0  0  0  0  0  2  0  0  0  0  0  0
  186.3620  178.3670  137.8500 C   0  0  0  0  0  2  0  0  0  0  0  0
  186.9880  176.7430  137.3300 S   0  0  0  0  0  0  0  0  0  0  0  0
  189.0000  178.6750  137.5000 S   0  0  0  0  0  0  0  0  0  0  0  0
  188.6420  177.3650  137.0350 C   0  0  0  0  0  0  0  0  0  0  0  0
  189.7050  176.4130  136.5760 C   0  0  0  0  0  2  0  0  0  0  0  0
  191.4230  174.8250  137.4380 C   0  0  0  0  0  1  0  0  0  0  0  0
  190.0190  175.3670  137.6320 C   0  0  0  0  0  2  0  0  0  0  0  0
  185.8650  177.7270  141.9330 O   0  0  0  0  0  0  0  0  0  0  0  0
  187.0630  178.3340  141.9090 O   0  0  0  0  0  0  0  0  0  0  0  0
  188.0370  177.8960  141.0400 N   0  0  0  0  0  0  0  0  0  0  0  0
  189.0320  177.1720  141.4430 C   0  0  0  0  0  0  0  0  0  0  0  0
  189.9810  176.7960  140.5480 F   0  0  0  0  0  0  0  0  0  0  0  0
  189.8570  175.5530  142.9560 O   0  0  0  0  0  1  0  0  0  0  0  0
  189.1560  176.7580  142.8740 C   0  0  1  0  0  3  0  0  0  0  0  0
  189.8420  177.7650  143.6090 O   0  0  0  0  0  0  0  0  0  0  0  0
  191.2210  177.7230  143.8240 C   0  0  0  0  0  0  0  0  0  0  0  0
  192.0200  177.7480  142.8460 O   0  0  0  0  0  0  0  0  0  0  0  0
  191.7020  177.6790  145.1310 O   0  0  0  0  0  0  0  0  0  0  0  0
  191.3270  176.6460  146.0300 C   0  0  0  0  0  2  0  0  0  0  0  0
  191.9180  176.8720  147.2700 O   0  0  0  0  0  1  0  0  0  0  0  0
  2 25  1  0  0  0  0
  2  1  1  1  0  0  0
  2  4  1  0  0  0  0
  4  3  1  6  0  0  0
  4  5  1  0  0  0  0
  5  6  1  0  0  0  0
  6  8  1  0  0  0  0
  8  9  1  0  0  0  0
  8 10  1  0  0  0  0
  8  7  1  0  0  0  0
 11 16  1  6  0  0  0
 11  2  1  0  0  0  0
 12 13  1  0  0  0  0
 13 11  1  0  0  0  0
 14 12  1  0  0  0  0
 15 12  2  0  0  0  0
 17 16  1  0  0  0  0
 18 17  1  0  0  0  0
 19 18  1  0  0  0  0
 21 19  1  0  0  0  0
 21 20  2  0  0  0  0
 22 21  1  0  0  0  0
 22 24  1  0  0  0  0
 23 24  1  0  0  0  0
 26 25  1  0  0  0  0
 27 28  2  0  0  0  0
 27 26  1  0  0  0  0
 28 31  1  0  0  0  0
 29 28  1  0  0  0  0
 31 30  1  6  0  0  0
 31 32  1  0  0  0  0
 32 33  1  0  0  0  0
 33 35  1  0  0  0  0
 34 33  2  0  0  0  0
 35 36  1  0  0  0  0
 36 37  1  0  0  0  0
M  END
>  <MODEL>
4

>  <REMARK>
 VINA RESULT:      -6.0      2.815      6.402
  Name = 
  21 active torsions:
  status: ('A' for Active; 'I' for Inactive)
    1  A    between atoms: N_1  and  O_36
    2  A    between atoms: C_5  and  C_17
    3  A    between atoms: C_6  and  S_8
    4  A    between atoms: C_6  and  C_31
    5  A    between atoms: C_7  and  O_33
    6  A    between atoms: S_8  and  C_19
    7  A    between atoms: C_10  and  C_14
    8  A    between atoms: C_10  and  C_20
    9  A    between atoms: C_10  and  N_22
   10  A    between atoms: C_11  and  O_26
   11  A    between atoms: C_11  and  O_33
   12  A    between atoms: C_14  and  C_31
   13  A    between atoms: C_16  and  C_21
   14  A    between atoms: C_16  and  C_30
   15  A    between atoms: C_17  and  O_26
   16  A    between atoms: C_18  and  C_19
   17  A    between atoms: C_18  and  C_35
   18  A    between atoms: C_20  and  C_24
   19  A    between atoms: C_20  and  O_29
   20  A    between atoms: C_24  and  C_30
   21  A    between atoms: O_29  and  O_36
                            x       y       z     vdW  Elec       q    Type
                         _______ _______ _______ _____ _____    ______ ____

>  <TORSDO>
F 21

$$$$
=
 OpenBabel10262423073D

 37 36  0  0  1  0  0  0  0  0999 V2000
  188.2680  179.5170  141.9000 O   0  0  0  0  0  1  0  0  0  0  0  0
  187.6070  178.3490  141.4860 C   0  0  1  0  0  0  0  0  0  0  0  0
  185.7000  179.8330  141.7380 O   0  0  0  0  0  1  0  0  0  0  0  0
  186.1070  178.4970  141.8050 C   0  0  2  0  0  3  0  0  0  0  0  0
  185.6850  177.8710  143.1360 C   0  0  0  0  0  2  0  0  0  0  0  0
  184.9760  178.8670  144.0480 C   0  0  0  0  0  2  0  0  0  0  0  0
  186.0800  177.4640  145.6220 F   0  0  0  0  0  0  0  0  0  0  0  0
  185.2880  178.5910  145.5120 C   0  0  0  0  0  0  0  0  0  0  0  0
  184.1050  178.3800  146.1920 F   0  0  0  0  0  0  0  0  0  0  0  0
  185.9420  179.6750  146.0710 F   0  0  0  0  0  0  0  0  0  0  0  0
  187.7640  178.1820  139.9600 C   0  0  2  0  0  3  0  0  0  0  0  0
  186.1930  178.2560  137.9060 C   0  0  0  0  0  0  0  0  0  0  0  0
  186.4780  177.9780  139.2830 N   0  0  0  0  0  2  0  0  0  0  0  0
  187.1540  178.8900  137.0680 N   0  0  0  0  0  1  0  0  0  0  0  0
  185.0670  177.9530  137.4350 O   0  0  0  0  0  0  0  0  0  0  0  0
  188.8140  177.1500  139.5450 C   0  0  0  0  0  2  0  0  0  0  0  0
  189.9870  177.8430  138.8760 C   0  0  0  0  0  2  0  0  0  0  0  0
  190.3270  177.1460  137.5780 C   0  0  0  0  0  2  0  0  0  0  0  0
  189.3720  175.6040  137.4700 S   0  0  0  0  0  0  0  0  0  0  0  0
  190.7270  173.4700  136.2790 S   0  0  0  0  0  0  0  0  0  0  0  0
  190.8260  174.6100  137.1470 C   0  0  0  0  0  0  0  0  0  0  0  0
  192.1710  175.1400  137.5420 C   0  0  0  0  0  2  0  0  0  0  0  0
  194.5530  174.5640  138.0010 C   0  0  0  0  0  1  0  0  0  0  0  0
  193.2660  174.1070  137.3380 C   0  0  0  0  0  2  0  0  0  0  0  0
  188.0990  177.2120  142.1650 O   0  0  0  0  0  0  0  0  0  0  0  0
  189.1280  177.6030  142.9340 O   0  0  0  0  0  0  0  0  0  0  0  0
  190.3960  177.6720  142.4020 N   0  0  0  0  0  0  0  0  0  0  0  0
  191.4060  177.0960  142.9710 C   0  0  0  0  0  0  0  0  0  0  0  0
  192.6380  177.2260  142.4180 F   0  0  0  0  0  0  0  0  0  0  0  0
  192.0240  175.1540  144.1690 O   0  0  0  0  0  1  0  0  0  0  0  0
  191.2350  176.3050  144.2270 C   0  0  1  0  0  3  0  0  0  0  0  0
  191.6160  177.0930  145.3490 O   0  0  0  0  0  0  0  0  0  0  0  0
  191.3320  176.7090  146.6610 C   0  0  0  0  0  0  0  0  0  0  0  0
  192.2690  176.5100  147.4850 O   0  0  0  0  0  0  0  0  0  0  0  0
  190.0020  176.5730  147.0550 O   0  0  0  0  0  0  0  0  0  0  0  0
  189.1060  177.6740  147.0480 C   0  0  0  0  0  2  0  0  0  0  0  0
  188.4380  177.7360  148.2670 O   0  0  0  0  0  1  0  0  0  0  0  0
  2  4  1  0  0  0  0
  2  1  1  1  0  0  0
  2 25  1  0  0  0  0
  4  3  1  1  0  0  0
  4  5  1  0  0  0  0
  5  6  1  0  0  0  0
  6  8  1  0  0  0  0
  8  7  1  0  0  0  0
  8 10  1  0  0  0  0
  8  9  1  0  0  0  0
 11 16  1  1  0  0  0
 11  2  1  0  0  0  0
 12 13  1  0  0  0  0
 13 11  1  0  0  0  0
 14 12  1  0  0  0  0
 15 12  2  0  0  0  0
 17 16  1  0  0  0  0
 18 17  1  0  0  0  0
 19 18  1  0  0  0  0
 20 21  2  0  0  0  0
 21 19  1  0  0  0  0
 21 22  1  0  0  0  0
 24 22  1  0  0  0  0
 24 23  1  0  0  0  0
 25 26  1  0  0  0  0
 27 26  1  0  0  0  0
 27 28  2  0  0  0  0
 28 31  1  0  0  0  0
 29 28  1  0  0  0  0
 31 30  1  6  0  0  0
 31 32  1  0  0  0  0
 32 33  1  0  0  0  0
 33 35  1  0  0  0  0
 33 34  2  0  0  0  0
 36 35  1  0  0  0  0
 36 37  1  0  0  0  0
M  END
>  <MODEL>
5

>  <REMARK>
 VINA RESULT:      -5.8      2.789      6.100
  Name = 
  21 active torsions:
  status: ('A' for Active; 'I' for Inactive)
    1  A    between atoms: N_1  and  O_36
    2  A    between atoms: C_5  and  C_17
    3  A    between atoms: C_6  and  S_8
    4  A    between atoms: C_6  and  C_31
    5  A    between atoms: C_7  and  O_33
    6  A    between atoms: S_8  and  C_19
    7  A    between atoms: C_10  and  C_14
    8  A    between atoms: C_10  and  C_20
    9  A    between atoms: C_10  and  N_22
   10  A    between atoms: C_11  and  O_26
   11  A    between atoms: C_11  and  O_33
   12  A    between atoms: C_14  and  C_31
   13  A    between atoms: C_16  and  C_21
   14  A    between atoms: C_16  and  C_30
   15  A    between atoms: C_17  and  O_26
   16  A    between atoms: C_18  and  C_19
   17  A    between atoms: C_18  and  C_35
   18  A    between atoms: C_20  and  C_24
   19  A    between atoms: C_20  and  O_29
   20  A    between atoms: C_24  and  C_30
   21  A    between atoms: O_29  and  O_36
                            x       y       z     vdW  Elec       q    Type
                         _______ _______ _______ _____ _____    ______ ____

>  <TORSDO>
F 21

$$$$
=
 OpenBabel10262423073D

 37 36  0  0  1  0  0  0  0  0999 V2000
  189.1070  179.2220  138.6440 O   0  0  0  0  0  1  0  0  0  0  0  0
  188.9670  177.8330  138.8020 C   0  0  1  0  0  0  0  0  0  0  0  0
  189.0300  178.1250  136.3910 O   0  0  0  0  0  1  0  0  0  0  0  0
  188.7910  177.1970  137.4090 C   0  0  2  0  0  3  0  0  0  0  0  0
  187.4420  176.5050  137.2030 C   0  0  0  0  0  2  0  0  0  0  0  0
  187.5880  175.0050  136.9660 C   0  0  0  0  0  2  0  0  0  0  0  0
  187.4020  173.2810  135.3370 F   0  0  0  0  0  0  0  0  0  0  0  0
  187.3110  174.6490  135.5130 C   0  0  0  0  0  0  0  0  0  0  0  0
  188.2470  175.2710  134.7100 F   0  0  0  0  0  0  0  0  0  0  0  0
  186.0470  175.0800  135.1490 F   0  0  0  0  0  0  0  0  0  0  0  0
  190.2490  177.2560  139.4400 C   0  0  2  0  0  3  0  0  0  0  0  0
  191.7060  175.5580  138.1430 C   0  0  0  0  0  0  0  0  0  0  0  0
  190.5700  175.9150  138.9390 N   0  0  0  0  0  2  0  0  0  0  0  0
  192.6050  176.5500  137.6550 N   0  0  0  0  0  1  0  0  0  0  0  0
  191.9030  174.3500  137.8530 O   0  0  0  0  0  0  0  0  0  0  0  0
  190.2800  177.3340  140.9670 C   0  0  0  0  0  2  0  0  0  0  0  0
  191.7160  177.3380  141.4580 C   0  0  0  0  0  2  0  0  0  0  0  0
  191.7470  177.2930  142.9680 C   0  0  0  0  0  2  0  0  0  0  0  0
  190.3850  178.3070  143.6150 S   0  0  0  0  0  0  0  0  0  0  0  0
  191.4000  176.8740  145.7880 S   0  0  0  0  0  0  0  0  0  0  0  0
  190.2210  177.3170  145.0990 C   0  0  0  0  0  0  0  0  0  0  0  0
  188.8800  177.2140  145.7590 C   0  0  0  0  0  2  0  0  0  0  0  0
  186.4180  177.5270  145.5110 C   0  0  0  0  0  1  0  0  0  0  0  0
  187.7770  177.7930  144.8890 C   0  0  0  0  0  2  0  0  0  0  0  0
  187.8350  177.5160  139.5850 O   0  0  0  0  0  0  0  0  0  0  0  0
  187.1680  178.6570  139.8280 O   0  0  0  0  0  0  0  0  0  0  0  0
  186.8660  179.0130  141.1230 N   0  0  0  0  0  0  0  0  0  0  0  0
  185.6450  179.0630  141.5480 C   0  0  0  0  0  0  0  0  0  0  0  0
  185.4050  179.4530  142.8260 F   0  0  0  0  0  0  0  0  0  0  0  0
  183.3950  178.3440  141.4240 O   0  0  0  0  0  1  0  0  0  0  0  0
  184.5010  178.7110  140.6530 C   0  0  1  0  0  3  0  0  0  0  0  0
  184.1680  179.8260  139.8340 O   0  0  0  0  0  0  0  0  0  0  0  0
  183.2050  179.7500  138.8250 C   0  0  0  0  0  0  0  0  0  0  0  0
  183.0610  178.6850  138.1600 O   0  0  0  0  0  0  0  0  0  0  0  0
  182.3910  180.8540  138.5810 O   0  0  0  0  0  0  0  0  0  0  0  0
  180.9750  180.7650  138.6460 C   0  0  0  0  0  2  0  0  0  0  0  0
  180.5500  181.0800  139.9330 O   0  0  0  0  0  1  0  0  0  0  0  0
  2  1  1  6  0  0  0
  2 11  1  0  0  0  0
  2 25  1  0  0  0  0
  4  3  1  6  0  0  0
  4  2  1  0  0  0  0
  5  4  1  0  0  0  0
  6  5  1  0  0  0  0
  7  8  1  0  0  0  0
  8  6  1  0  0  0  0
  9  8  1  0  0  0  0
 10  8  1  0  0  0  0
 11 16  1  1  0  0  0
 12 13  1  0  0  0  0
 13 11  1  0  0  0  0
 14 12  1  0  0  0  0
 15 12  2  0  0  0  0
 16 17  1  0  0  0  0
 17 18  1  0  0  0  0
 18 19  1  0  0  0  0
 19 21  1  0  0  0  0
 21 22  1  0  0  0  0
 21 20  2  0  0  0  0
 24 23  1  0  0  0  0
 24 22  1  0  0  0  0
 25 26  1  0  0  0  0
 26 27  1  0  0  0  0
 27 28  2  0  0  0  0
 28 29  1  0  0  0  0
 31 30  1  1  0  0  0
 31 28  1  0  0  0  0
 32 31  1  0  0  0  0
 33 32  1  0  0  0  0
 34 33  2  0  0  0  0
 35 36  1  0  0  0  0
 35 33  1  0  0  0  0
 36 37  1  0  0  0  0
M  END
>  <MODEL>
6

>  <REMARK>
 VINA RESULT:      -5.8      4.693      7.055
  Name = 
  21 active torsions:
  status: ('A' for Active; 'I' for Inactive)
    1  A    between atoms: N_1  and  O_36
    2  A    between atoms: C_5  and  C_17
    3  A    between atoms: C_6  and  S_8
    4  A    between atoms: C_6  and  C_31
    5  A    between atoms: C_7  and  O_33
    6  A    between atoms: S_8  and  C_19
    7  A    between atoms: C_10  and  C_14
    8  A    between atoms: C_10  and  C_20
    9  A    between atoms: C_10  and  N_22
   10  A    between atoms: C_11  and  O_26
   11  A    between atoms: C_11  and  O_33
   12  A    between atoms: C_14  and  C_31
   13  A    between atoms: C_16  and  C_21
   14  A    between atoms: C_16  and  C_30
   15  A    between atoms: C_17  and  O_26
   16  A    between atoms: C_18  and  C_19
   17  A    between atoms: C_18  and  C_35
   18  A    between atoms: C_20  and  C_24
   19  A    between atoms: C_20  and  O_29
   20  A    between atoms: C_24  and  C_30
   21  A    between atoms: O_29  and  O_36
                            x       y       z     vdW  Elec       q    Type
                         _______ _______ _______ _____ _____    ______ ____

>  <TORSDO>
F 21

$$$$
=
 OpenBabel10262423073D

 37 36  0  0  1  0  0  0  0  0999 V2000
  188.7320  176.3770  141.5420 O   0  0  0  0  0  1  0  0  0  0  0  0
  189.6460  177.4440  141.5300 C   0  0  1  0  0  0  0  0  0  0  0  0
  190.8500  175.6680  142.6690 O   0  0  0  0  0  1  0  0  0  0  0  0
  190.9030  177.0190  142.3130 C   0  0  2  0  0  3  0  0  0  0  0  0
  191.2030  177.8890  143.5350 C   0  0  0  0  0  2  0  0  0  0  0  0
  191.1210  177.1050  144.8410 C   0  0  0  0  0  2  0  0  0  0  0  0
  188.8340  176.4530  144.7750 F   0  0  0  0  0  0  0  0  0  0  0  0
  189.7420  177.2290  145.4720 C   0  0  0  0  0  0  0  0  0  0  0  0
  189.3410  178.5490  145.4210 F   0  0  0  0  0  0  0  0  0  0  0  0
  189.7840  176.8200  146.7930 F   0  0  0  0  0  0  0  0  0  0  0  0
  190.0600  177.7500  140.0750 C   0  0  2  0  0  3  0  0  0  0  0  0
  188.5410  178.0970  138.0100 C   0  0  0  0  0  0  0  0  0  0  0  0
  189.0490  177.3200  139.1020 N   0  0  0  0  0  2  0  0  0  0  0  0
  188.9170  179.4610  137.8400 N   0  0  0  0  0  1  0  0  0  0  0  0
  187.7350  177.5720  137.2010 O   0  0  0  0  0  0  0  0  0  0  0  0
  191.4660  177.2710  139.7080 C   0  0  0  0  0  2  0  0  0  0  0  0
  191.3830  176.1210  138.7220 C   0  0  0  0  0  2  0  0  0  0  0  0
  192.5660  176.1590  137.7820 C   0  0  0  0  0  2  0  0  0  0  0  0
  193.1420  174.4600  137.4920 S   0  0  0  0  0  0  0  0  0  0  0  0
  195.0080  173.9570  135.4740 S   0  0  0  0  0  0  0  0  0  0  0  0
  194.2090  174.9480  136.1390 C   0  0  0  0  0  0  0  0  0  0  0  0
  194.0380  176.3070  135.5320 C   0  0  0  0  0  2  0  0  0  0  0  0
  195.8190  177.9780  135.0230 C   0  0  0  0  0  1  0  0  0  0  0  0
  195.1900  176.6610  134.6060 C   0  0  0  0  0  2  0  0  0  0  0  0
  189.1020  178.5930  142.1460 O   0  0  0  0  0  0  0  0  0  0  0  0
  187.7780  178.4080  142.2720 O   0  0  0  0  0  0  0  0  0  0  0  0
  186.9180  178.9430  141.3390 N   0  0  0  0  0  0  0  0  0  0  0  0
  185.6380  178.9700  141.5300 C   0  0  0  0  0  0  0  0  0  0  0  0
  184.8360  179.4810  140.5610 F   0  0  0  0  0  0  0  0  0  0  0  0
  185.9220  177.5500  143.3990 O   0  0  0  0  0  1  0  0  0  0  0  0
  185.0340  178.4390  142.7890 C   0  0  1  0  0  3  0  0  0  0  0  0
  184.7450  179.5140  143.6760 O   0  0  0  0  0  0  0  0  0  0  0  0
  184.5890  179.3260  145.0510 C   0  0  0  0  0  0  0  0  0  0  0  0
  183.4680  178.9860  145.5250 O   0  0  0  0  0  0  0  0  0  0  0  0
  185.6910  179.4920  145.8870 O   0  0  0  0  0  0  0  0  0  0  0  0
  185.9280  178.6290  146.9900 C   0  0  0  0  0  2  0  0  0  0  0  0
  186.4540  177.4250  146.5320 O   0  0  0  0  0  1  0  0  0  0  0  0
  2  1  1  1  0  0  0
  2 25  1  0  0  0  0
  2  4  1  0  0  0  0
  4  3  1  1  0  0  0
  4  5  1  0  0  0  0
  5  6  1  0  0  0  0
  6  8  1  0  0  0  0
  7  8  1  0  0  0  0
  8 10  1  0  0  0  0
  9  8  1  0  0  0  0
 11 16  1  6  0  0  0
 11  2  1  0  0  0  0
 12 13  1  0  0  0  0
 13 11  1  0  0  0  0
 14 12  1  0  0  0  0
 15 12  2  0  0  0  0
 17 16  1  0  0  0  0
 18 17  1  0  0  0  0
 19 18  1  0  0  0  0
 20 21  2  0  0  0  0
 21 19  1  0  0  0  0
 22 21  1  0  0  0  0
 24 23  1  0  0  0  0
 24 22  1  0  0  0  0
 25 26  1  0  0  0  0
 27 28  2  0  0  0  0
 27 26  1  0  0  0  0
 28 31  1  0  0  0  0
 29 28  1  0  0  0  0
 31 30  1  1  0  0  0
 31 32  1  0  0  0  0
 32 33  1  0  0  0  0
 33 34  2  0  0  0  0
 33 35  1  0  0  0  0
 35 36  1  0  0  0  0
 37 36  1  0  0  0  0
M  END
>  <MODEL>
7

>  <REMARK>
 VINA RESULT:      -5.7      3.131      4.639
  Name = 
  21 active torsions:
  status: ('A' for Active; 'I' for Inactive)
    1  A    between atoms: N_1  and  O_36
    2  A    between atoms: C_5  and  C_17
    3  A    between atoms: C_6  and  S_8
    4  A    between atoms: C_6  and  C_31
    5  A    between atoms: C_7  and  O_33
    6  A    between atoms: S_8  and  C_19
    7  A    between atoms: C_10  and  C_14
    8  A    between atoms: C_10  and  C_20
    9  A    between atoms: C_10  and  N_22
   10  A    between atoms: C_11  and  O_26
   11  A    between atoms: C_11  and  O_33
   12  A    between atoms: C_14  and  C_31
   13  A    between atoms: C_16  and  C_21
   14  A    between atoms: C_16  and  C_30
   15  A    between atoms: C_17  and  O_26
   16  A    between atoms: C_18  and  C_19
   17  A    between atoms: C_18  and  C_35
   18  A    between atoms: C_20  and  C_24
   19  A    between atoms: C_20  and  O_29
   20  A    between atoms: C_24  and  C_30
   21  A    between atoms: O_29  and  O_36
                            x       y       z     vdW  Elec       q    Type
                         _______ _______ _______ _____ _____    ______ ____

>  <TORSDO>
F 21

$$$$
=
 OpenBabel10262423073D

 37 36  0  0  1  0  0  0  0  0999 V2000
  189.1170  176.4350  142.3060 O   0  0  0  0  0  1  0  0  0  0  0  0
  189.4030  177.6900  141.7440 C   0  0  1  0  0  0  0  0  0  0  0  0
  191.7710  177.3420  142.1540 O   0  0  0  0  0  1  0  0  0  0  0  0
  190.7060  178.2220  142.3700 C   0  0  2  0  0  3  0  0  0  0  0  0
  190.5890  178.5750  143.8540 C   0  0  0  0  0  2  0  0  0  0  0  0
  191.7370  178.0030  144.6800 C   0  0  0  0  0  2  0  0  0  0  0  0
  189.9250  176.6900  145.4900 F   0  0  0  0  0  0  0  0  0  0  0  0
  191.3050  176.7530  145.4320 C   0  0  0  0  0  0  0  0  0  0  0  0
  191.8090  176.8040  146.7170 F   0  0  0  0  0  0  0  0  0  0  0  0
  191.7940  175.6240  144.8000 F   0  0  0  0  0  0  0  0  0  0  0  0
  189.6230  177.5350  140.2240 C   0  0  2  0  0  3  0  0  0  0  0  0
  188.0640  178.4100  138.3540 C   0  0  0  0  0  0  0  0  0  0  0  0
  188.3650  177.5620  139.4690 N   0  0  0  0  0  2  0  0  0  0  0  0
  188.9710  179.4270  137.9370 N   0  0  0  0  0  1  0  0  0  0  0  0
  186.9730  178.2680  137.7470 O   0  0  0  0  0  0  0  0  0  0  0  0
  190.5130  176.3530  139.8360 C   0  0  0  0  0  2  0  0  0  0  0  0
  190.3560  176.0470  138.3580 C   0  0  0  0  0  2  0  0  0  0  0  0
  191.5450  175.2570  137.8630 C   0  0  0  0  0  2  0  0  0  0  0  0
  193.0260  176.3050  137.9510 S   0  0  0  0  0  0  0  0  0  0  0  0
  194.0190  176.1840  135.3420 S   0  0  0  0  0  0  0  0  0  0  0  0
  193.8160  175.4750  136.5730 C   0  0  0  0  0  0  0  0  0  0  0  0
  194.5110  174.1700  136.8140 C   0  0  0  0  0  2  0  0  0  0  0  0
  195.9930  174.1080  138.8190 C   0  0  0  0  0  1  0  0  0  0  0  0
  195.9270  174.3700  137.3260 C   0  0  0  0  0  2  0  0  0  0  0  0
  188.3690  178.6170  142.0050 O   0  0  0  0  0  0  0  0  0  0  0  0
  187.4210  177.9890  142.7200 O   0  0  0  0  0  0  0  0  0  0  0  0
  186.1350  177.9130  142.2350 N   0  0  0  0  0  0  0  0  0  0  0  0
  185.1370  178.4420  142.8680 C   0  0  0  0  0  0  0  0  0  0  0  0
  183.8850  178.3080  142.3600 F   0  0  0  0  0  0  0  0  0  0  0  0
  184.2860  180.0760  144.3510 O   0  0  0  0  0  1  0  0  0  0  0  0
  185.3420  179.1840  144.1500 C   0  0  1  0  0  3  0  0  0  0  0  0
  185.4090  178.2650  145.2330 O   0  0  0  0  0  0  0  0  0  0  0  0
  186.0650  178.5670  146.4280 C   0  0  0  0  0  0  0  0  0  0  0  0
  185.4820  179.2400  147.3240 O   0  0  0  0  0  0  0  0  0  0  0  0
  187.3610  178.0950  146.6290 O   0  0  0  0  0  0  0  0  0  0  0  0
  187.7800  177.5740  147.8810 C   0  0  0  0  0  2  0  0  0  0  0  0
  188.9350  178.2330  148.2940 O   0  0  0  0  0  1  0  0  0  0  0  0
  2 25  1  0  0  0  0
  2  1  1  1  0  0  0
  2  4  1  0  0  0  0
  4  3  1  1  0  0  0
  4  5  1  0  0  0  0
  5  6  1  0  0  0  0
  6  8  1  0  0  0  0
  8  7  1  0  0  0  0
  8  9  1  0  0  0  0
 10  8  1  0  0  0  0
 11 16  1  1  0  0  0
 11  2  1  0  0  0  0
 12 13  1  0  0  0  0
 13 11  1  0  0  0  0
 14 12  1  0  0  0  0
 15 12  2  0  0  0  0
 17 16  1  0  0  0  0
 18 19  1  0  0  0  0
 18 17  1  0  0  0  0
 20 21  2  0  0  0  0
 21 22  1  0  0  0  0
 21 19  1  0  0  0  0
 22 24  1  0  0  0  0
 24 23  1  0  0  0  0
 25 26  1  0  0  0  0
 27 26  1  0  0  0  0
 27 28  2  0  0  0  0
 28 31  1  0  0  0  0
 29 28  1  0  0  0  0
 31 30  1  1  0  0  0
 31 32  1  0  0  0  0
 32 33  1  0  0  0  0
 33 35  1  0  0  0  0
 33 34  2  0  0  0  0
 35 36  1  0  0  0  0
 36 37  1  0  0  0  0
M  END
>  <MODEL>
8

>  <REMARK>
 VINA RESULT:      -5.7      2.942      4.672
  Name = 
  21 active torsions:
  status: ('A' for Active; 'I' for Inactive)
    1  A    between atoms: N_1  and  O_36
    2  A    between atoms: C_5  and  C_17
    3  A    between atoms: C_6  and  S_8
    4  A    between atoms: C_6  and  C_31
    5  A    between atoms: C_7  and  O_33
    6  A    between atoms: S_8  and  C_19
    7  A    between atoms: C_10  and  C_14
    8  A    between atoms: C_10  and  C_20
    9  A    between atoms: C_10  and  N_22
   10  A    between atoms: C_11  and  O_26
   11  A    between atoms: C_11  and  O_33
   12  A    between atoms: C_14  and  C_31
   13  A    between atoms: C_16  and  C_21
   14  A    between atoms: C_16  and  C_30
   15  A    between atoms: C_17  and  O_26
   16  A    between atoms: C_18  and  C_19
   17  A    between atoms: C_18  and  C_35
   18  A    between atoms: C_20  and  C_24
   19  A    between atoms: C_20  and  O_29
   20  A    between atoms: C_24  and  C_30
   21  A    between atoms: O_29  and  O_36
                            x       y       z     vdW  Elec       q    Type
                         _______ _______ _______ _____ _____    ______ ____

>  <TORSDO>
F 21

$$$$
=
 OpenBabel10262423073D

 37 36  0  0  1  0  0  0  0  0999 V2000
  189.4000  178.9010  137.7170 O   0  0  0  0  0  1  0  0  0  0  0  0
  189.3030  177.5350  138.0310 C   0  0  1  0  0  0  0  0  0  0  0  0
  188.9610  177.5180  135.6260 O   0  0  0  0  0  1  0  0  0  0  0  0
  189.3310  176.7280  136.7190 C   0  0  2  0  0  3  0  0  0  0  0  0
  188.5040  175.4400  136.7590 C   0  0  0  0  0  2  0  0  0  0  0  0
  187.8810  175.1080  135.4070 C   0  0  0  0  0  2  0  0  0  0  0  0
  185.9670  174.7370  136.7720 F   0  0  0  0  0  0  0  0  0  0  0  0
  186.3620  175.0820  135.4930 C   0  0  0  0  0  0  0  0  0  0  0  0
  185.8770  174.1440  134.6020 F   0  0  0  0  0  0  0  0  0  0  0  0
  185.8450  176.3230  135.1660 F   0  0  0  0  0  0  0  0  0  0  0  0
  190.5210  177.1160  138.8830 C   0  0  2  0  0  3  0  0  0  0  0  0
  192.4770  175.6730  138.0000 C   0  0  0  0  0  0  0  0  0  0  0  0
  191.1210  175.8580  138.4240 N   0  0  0  0  0  2  0  0  0  0  0  0
  193.3690  176.7770  137.8790 N   0  0  0  0  0  1  0  0  0  0  0  0
  192.8810  174.5180  137.7110 O   0  0  0  0  0  0  0  0  0  0  0  0
  190.2650  177.1270  140.3910 C   0  0  0  0  0  2  0  0  0  0  0  0
  191.5700  177.3360  141.1380 C   0  0  0  0  0  2  0  0  0  0  0  0
  191.2900  177.8230  142.5410 C   0  0  0  0  0  2  0  0  0  0  0  0
  190.9920  176.3890  143.6140 S   0  0  0  0  0  0  0  0  0  0  0  0
  188.2130  176.6720  143.6810 S   0  0  0  0  0  0  0  0  0  0  0  0
  189.4650  177.0660  144.2620 C   0  0  0  0  0  0  0  0  0  0  0  0
  189.4910  177.7910  145.5730 C   0  0  0  0  0  2  0  0  0  0  0  0
  188.3680  177.0230  147.6630 C   0  0  0  0  0  1  0  0  0  0  0  0
  188.1660  177.6770  146.3080 C   0  0  0  0  0  2  0  0  0  0  0  0
  188.0980  177.2470  138.7090 O   0  0  0  0  0  0  0  0  0  0  0  0
  187.2120  178.2100  138.4040 O   0  0  0  0  0  0  0  0  0  0  0  0
  186.0430  177.8860  137.7550 N   0  0  0  0  0  0  0  0  0  0  0  0
  184.8840  178.0980  138.2920 C   0  0  0  0  0  0  0  0  0  0  0  0
  183.7650  177.7270  137.6190 F   0  0  0  0  0  0  0  0  0  0  0  0
  184.5010  180.0960  139.4970 O   0  0  0  0  0  1  0  0  0  0  0  0
  184.7630  178.7310  139.6400 C   0  0  1  0  0  3  0  0  0  0  0  0
  183.7110  178.1130  140.3710 O   0  0  0  0  0  0  0  0  0  0  0  0
  183.3560  178.5230  141.6580 C   0  0  0  0  0  0  0  0  0  0  0  0
  182.1760  178.9030  141.9040 O   0  0  0  0  0  0  0  0  0  0  0  0
  184.3120  178.4810  142.6710 O   0  0  0  0  0  0  0  0  0  0  0  0
  183.9570  178.6200  144.0380 C   0  0  0  0  0  2  0  0  0  0  0  0
  185.1100  178.6300  144.8180 O   0  0  0  0  0  1  0  0  0  0  0  0
  2  1  1  6  0  0  0
  2 25  1  0  0  0  0
  2 11  1  0  0  0  0
  4  3  1  6  0  0  0
  4  5  1  0  0  0  0
  4  2  1  0  0  0  0
  6  8  1  0  0  0  0
  6  5  1  0  0  0  0
  8  7  1  0  0  0  0
  9  8  1  0  0  0  0
 10  8  1  0  0  0  0
 11 16  1  1  0  0  0
 12 13  1  0  0  0  0
 13 11  1  0  0  0  0
 14 12  1  0  0  0  0
 15 12  2  0  0  0  0
 16 17  1  0  0  0  0
 17 18  1  0  0  0  0
 18 19  1  0  0  0  0
 19 21  1  0  0  0  0
 20 21  2  0  0  0  0
 21 22  1  0  0  0  0
 22 24  1  0  0  0  0
 24 23  1  0  0  0  0
 26 25  1  0  0  0  0
 27 28  2  0  0  0  0
 27 26  1  0  0  0  0
 28 31  1  0  0  0  0
 29 28  1  0  0  0  0
 31 30  1  6  0  0  0
 31 32  1  0  0  0  0
 32 33  1  0  0  0  0
 33 34  2  0  0  0  0
 33 35  1  0  0  0  0
 35 36  1  0  0  0  0
 36 37  1  0  0  0  0
M  END
>  <MODEL>
9

>  <REMARK>
 VINA RESULT:      -5.6      4.893      7.553
  Name = 
  21 active torsions:
  status: ('A' for Active; 'I' for Inactive)
    1  A    between atoms: N_1  and  O_36
    2  A    between atoms: C_5  and  C_17
    3  A    between atoms: C_6  and  S_8
    4  A    between atoms: C_6  and  C_31
    5  A    between atoms: C_7  and  O_33
    6  A    between atoms: S_8  and  C_19
    7  A    between atoms: C_10  and  C_14
    8  A    between atoms: C_10  and  C_20
    9  A    between atoms: C_10  and  N_22
   10  A    between atoms: C_11  and  O_26
   11  A    between atoms: C_11  and  O_33
   12  A    between atoms: C_14  and  C_31
   13  A    between atoms: C_16  and  C_21
   14  A    between atoms: C_16  and  C_30
   15  A    between atoms: C_17  and  O_26
   16  A    between atoms: C_18  and  C_19
   17  A    between atoms: C_18  and  C_35
   18  A    between atoms: C_20  and  C_24
   19  A    between atoms: C_20  and  O_29
   20  A    between atoms: C_24  and  C_30
   21  A    between atoms: O_29  and  O_36
                            x       y       z     vdW  Elec       q    Type
                         _______ _______ _______ _____ _____    ______ ____

>  <TORSDO>
F 21

$$$$
