=
 OpenBabel10262419093D

 34 39  0  0  1  0  0  0  0  0999 V2000
  190.1070  177.1740  146.8970 C   0  0  0  0  0  0  0  0  0  0  0  0
  191.5640  175.8540  145.5110 C   0  0  0  0  0  0  0  0  0  0  0  0
  189.5040  176.9690  144.5260 C   0  0  0  0  0  0  0  0  0  0  0  0
  188.8840  177.0840  142.1750 C   0  0  0  0  0  0  0  0  0  0  0  0
  192.1440  176.3450  147.7530 C   0  0  0  0  0  3  0  0  0  0  0  0
  192.4110  175.7500  146.5670 N   0  0  0  0  0  2  0  0  0  0  0  0
  191.1700  176.7520  142.5190 C   0  0  0  0  0  2  0  0  0  0  0  0
  190.4100  176.6780  145.6030 C   0  0  0  0  0  0  0  0  0  0  0  0
  189.4270  177.0050  140.8040 C   0  0  0  0  0  2  0  0  0  0  0  0
  190.9870  177.0280  147.9190 N   0  0  0  0  0  0  0  0  0  0  0  0
  188.2070  177.4900  144.8420 C   0  0  0  0  0  0  0  0  0  0  0  0
  188.8830  177.7770  147.1570 C   0  0  0  0  0  3  0  0  0  0  0  0
  191.7880  175.1410  144.5010 O   0  0  0  0  0  0  0  0  0  0  0  0
  187.5930  177.4760  142.4860 C   0  0  0  0  0  3  0  0  0  0  0  0
  187.2280  177.6760  143.8230 C   0  0  0  0  0  0  0  0  0  0  0  0
  190.9010  176.6610  141.0160 C   0  0  1  0  0  3  0  0  0  0  0  0
  189.8260  176.8510  143.1480 C   0  0  0  0  0  0  0  0  0  0  0  0
  187.9360  177.9030  146.1520 C   0  0  0  0  0  3  0  0  0  0  0  0
  183.5960  178.6900  143.3340 C   0  0  0  0  0  0  0  0  0  0  0  0
  183.2160  178.9880  144.6450 C   0  0  0  0  0  3  0  0  0  0  0  0
  185.8310  178.1070  144.1030 C   0  0  0  0  0  0  0  0  0  0  0  0
  184.1380  178.8540  145.6850 C   0  0  0  0  0  3  0  0  0  0  0  0
  184.8970  178.2570  143.0640 C   0  0  0  0  0  3  0  0  0  0  0  0
  185.4390  178.4200  145.4150 C   0  0  0  0  0  3  0  0  0  0  0  0
  182.7040  178.8250  142.3230 F   0  0  0  0  0  0  0  0  0  0  0  0
  191.7410  177.6120  140.3100 N   0  0  0  0  0  2  0  0  0  0  0  0
  191.6280  177.3220  138.9440 N   0  0  0  0  0  2  0  0  0  0  0  0
  190.3200  175.0800  137.9500 O   0  0  0  0  0  0  0  0  0  0  0  0
  192.3730  176.0950  138.7080 C   0  0  1  0  0  3  0  0  0  0  0  0
  191.5720  175.1590  137.8370 C   0  0  0  0  0  0  0  0  0  0  0  0
  193.6560  174.4260  136.7570 C   0  0  0  0  0  2  0  0  0  0  0  0
  194.3020  175.1970  137.9100 C   0  0  0  0  0  2  0  0  0  0  0  0
  193.6080  176.4060  138.0980 O   0  0  0  0  0  0  0  0  0  0  0  0
  192.2520  174.2900  136.9810 O   0  0  0  0  0  0  0  0  0  0  0  0
  1 12  1  0  0  0  0
  1 10  1  0  0  0  0
  2  8  1  0  0  0  0
  2  6  1  0  0  0  0
  3 11  1  0  0  0  0
  3  8  1  0  0  0  0
  4 14  2  0  0  0  0
  4 17  1  0  0  0  0
  5 10  2  0  0  0  0
  6  5  1  0  0  0  0
  7 17  1  0  0  0  0
  8  1  2  0  0  0  0
  9 16  1  0  0  0  0
  9  4  1  0  0  0  0
 11 18  1  0  0  0  0
 13  2  2  0  0  0  0
 14 15  1  0  0  0  0
 15 21  1  0  0  0  0
 15 11  2  0  0  0  0
 16 26  1  6  0  0  0
 16  7  1  0  0  0  0
 17  3  2  0  0  0  0
 18 12  2  0  0  0  0
 19 20  1  0  0  0  0
 20 22  2  0  0  0  0
 21 24  2  0  0  0  0
 23 19  2  0  0  0  0
 23 21  1  0  0  0  0
 24 22  1  0  0  0  0
 25 19  1  0  0  0  0
 27 26  1  0  0  0  0
 29 27  1  6  0  0  0
 30 28  2  0  0  0  0
 30 29  1  0  0  0  0
 31 34  1  0  0  0  0
 31 32  1  0  0  0  0
 32 33  1  0  0  0  0
 33 29  1  0  0  0  0
 34 30  1  0  0  0  0
M  END
>  <MODEL>
1

>  <REMARK>
 VINA RESULT:     -11.1      0.000      0.000
  Name = 
  4 active torsions:
  status: ('A' for Active; 'I' for Inactive)
    1  A    between atoms: N_3  and  C_13
    2  A    between atoms: N_3  and  N_17
    3  A    between atoms: C_12  and  C_28
    4  A    between atoms: N_17  and  C_29
                            x       y       z     vdW  Elec       q    Type
                         _______ _______ _______ _____ _____    ______ ____

>  <TORSDO>
F 4

$$$$
=
 OpenBabel10262419093D

 34 39  0  0  1  0  0  0  0  0999 V2000
  185.5690  177.9690  143.5190 C   0  0  0  0  0  0  0  0  0  0  0  0
  185.8700  178.8310  141.2930 C   0  0  0  0  0  0  0  0  0  0  0  0
  187.8250  177.8210  142.5620 C   0  0  0  0  0  0  0  0  0  0  0  0
  190.0540  177.3650  141.6970 C   0  0  0  0  0  0  0  0  0  0  0  0
  183.7110  178.6800  142.2510 C   0  0  0  0  0  3  0  0  0  0  0  0
  184.5270  179.0170  141.2250 N   0  0  0  0  0  2  0  0  0  0  0  0
  188.4150  177.4690  140.0360 C   0  0  0  0  0  2  0  0  0  0  0  0
  186.4430  178.1850  142.4220 C   0  0  0  0  0  0  0  0  0  0  0  0
  190.8140  177.1310  140.4520 C   0  0  0  0  0  2  0  0  0  0  0  0
  184.2360  178.1860  143.3960 N   0  0  0  0  0  0  0  0  0  0  0  0
  188.3280  177.5270  143.8720 C   0  0  0  0  0  0  0  0  0  0  0  0
  186.0670  177.5780  144.7550 C   0  0  0  0  0  3  0  0  0  0  0  0
  186.5810  179.3190  140.3790 O   0  0  0  0  0  0  0  0  0  0  0  0
  190.5660  177.1970  142.9720 C   0  0  0  0  0  3  0  0  0  0  0  0
  189.7170  177.2840  144.0810 C   0  0  0  0  0  0  0  0  0  0  0  0
  189.7740  177.3230  139.3500 C   0  0  1  0  0  3  0  0  0  0  0  0
  188.7280  177.6500  141.4790 C   0  0  0  0  0  0  0  0  0  0  0  0
  187.4290  177.3910  144.9350 C   0  0  0  0  0  3  0  0  0  0  0  0
  190.3640  177.5470  147.8190 C   0  0  0  0  0  0  0  0  0  0  0  0
  191.5060  176.7540  147.9560 C   0  0  0  0  0  3  0  0  0  0  0  0
  190.3160  177.0860  145.4300 C   0  0  0  0  0  0  0  0  0  0  0  0
  192.0590  176.1310  146.8360 C   0  0  0  0  0  3  0  0  0  0  0  0
  189.7770  177.7170  146.5630 C   0  0  0  0  0  3  0  0  0  0  0  0
  191.4710  176.2990  145.5790 C   0  0  0  0  0  3  0  0  0  0  0  0
  189.8300  178.1580  148.9040 F   0  0  0  0  0  0  0  0  0  0  0  0
  189.7570  176.1650  138.4730 N   0  0  0  0  0  2  0  0  0  0  0  0
  191.0600  175.6500  138.4500 N   0  0  0  0  0  2  0  0  0  0  0  0
  193.5450  176.8720  138.6880 O   0  0  0  0  0  0  0  0  0  0  0  0
  191.7120  176.1990  137.2710 C   0  0  1  0  0  3  0  0  0  0  0  0
  193.1700  176.4610  137.5580 C   0  0  0  0  0  0  0  0  0  0  0  0
  193.7140  175.7960  135.2540 C   0  0  0  0  0  2  0  0  0  0  0  0
  192.1960  175.8740  135.0750 C   0  0  0  0  0  2  0  0  0  0  0  0
  191.5730  175.2950  136.1950 O   0  0  0  0  0  0  0  0  0  0  0  0
  194.0900  176.3560  136.5120 O   0  0  0  0  0  0  0  0  0  0  0  0
  1 12  1  0  0  0  0
  2  8  1  0  0  0  0
  3 11  1  0  0  0  0
  4 14  2  0  0  0  0
  5 10  2  0  0  0  0
  6  2  1  0  0  0  0
  6  5  1  0  0  0  0
  7 17  1  0  0  0  0
  8  3  1  0  0  0  0
  8  1  2  0  0  0  0
  9  4  1  0  0  0  0
 10  1  1  0  0  0  0
 11 15  2  0  0  0  0
 11 18  1  0  0  0  0
 12 18  2  0  0  0  0
 13  2  2  0  0  0  0
 14 15  1  0  0  0  0
 15 21  1  0  0  0  0
 16 26  1  6  0  0  0
 16  7  1  0  0  0  0
 16  9  1  0  0  0  0
 17  4  1  0  0  0  0
 17  3  2  0  0  0  0
 19 20  1  0  0  0  0
 19 25  1  0  0  0  0
 21 24  2  0  0  0  0
 21 23  1  0  0  0  0
 22 20  2  0  0  0  0
 23 19  2  0  0  0  0
 24 22  1  0  0  0  0
 27 26  1  0  0  0  0
 29 30  1  0  0  0  0
 29 27  1  1  0  0  0
 30 28  2  0  0  0  0
 31 34  1  0  0  0  0
 32 31  1  0  0  0  0
 32 33  1  0  0  0  0
 33 29  1  0  0  0  0
 34 30  1  0  0  0  0
M  END
>  <MODEL>
2

>  <REMARK>
 VINA RESULT:     -10.8      3.097      5.449
  Name = 
  4 active torsions:
  status: ('A' for Active; 'I' for Inactive)
    1  A    between atoms: N_3  and  C_13
    2  A    between atoms: N_3  and  N_17
    3  A    between atoms: C_12  and  C_28
    4  A    between atoms: N_17  and  C_29
                            x       y       z     vdW  Elec       q    Type
                         _______ _______ _______ _____ _____    ______ ____

>  <TORSDO>
F 4

$$$$
=
 OpenBabel10262419093D

 34 39  0  0  1  0  0  0  0  0999 V2000
  185.4990  178.0180  143.5970 C   0  0  0  0  0  0  0  0  0  0  0  0
  185.7530  178.9580  141.3970 C   0  0  0  0  0  0  0  0  0  0  0  0
  187.7460  177.9520  142.6090 C   0  0  0  0  0  0  0  0  0  0  0  0
  189.9740  177.5750  141.7030 C   0  0  0  0  0  0  0  0  0  0  0  0
  183.6100  178.7270  142.3740 C   0  0  0  0  0  3  0  0  0  0  0  0
  184.4050  179.1160  141.3500 N   0  0  0  0  0  2  0  0  0  0  0  0
  188.3120  177.6950  140.0660 C   0  0  0  0  0  2  0  0  0  0  0  0
  186.3540  178.2890  142.4970 C   0  0  0  0  0  0  0  0  0  0  0  0
  190.7230  177.3980  140.4430 C   0  0  0  0  0  2  0  0  0  0  0  0
  184.1600  178.2090  143.4970 N   0  0  0  0  0  0  0  0  0  0  0  0
  188.2720  177.6290  143.9020 C   0  0  0  0  0  0  0  0  0  0  0  0
  186.0210  177.5990  144.8140 C   0  0  0  0  0  3  0  0  0  0  0  0
  186.4420  179.4910  140.4910 O   0  0  0  0  0  0  0  0  0  0  0  0
  190.5050  177.3780  142.9660 C   0  0  0  0  0  3  0  0  0  0  0  0
  189.6680  177.4110  144.0880 C   0  0  0  0  0  0  0  0  0  0  0  0
  189.6650  177.6020  139.3590 C   0  0  1  0  0  3  0  0  0  0  0  0
  188.6380  177.8360  141.5110 C   0  0  0  0  0  0  0  0  0  0  0  0
  187.3890  177.4380  144.9720 C   0  0  0  0  0  3  0  0  0  0  0  0
  191.9740  176.1290  146.8270 C   0  0  0  0  0  0  0  0  0  0  0  0
  191.4020  176.7100  147.9610 C   0  0  0  0  0  3  0  0  0  0  0  0
  190.2880  177.1830  145.4220 C   0  0  0  0  0  0  0  0  0  0  0  0
  190.2720  177.5210  147.8330 C   0  0  0  0  0  3  0  0  0  0  0  0
  191.4160  176.3590  145.5660 C   0  0  0  0  0  3  0  0  0  0  0  0
  189.7160  177.7530  146.5720 C   0  0  0  0  0  3  0  0  0  0  0  0
  193.0660  175.3370  146.9490 F   0  0  0  0  0  0  0  0  0  0  0  0
  189.6630  176.4720  138.4460 N   0  0  0  0  0  2  0  0  0  0  0  0
  190.7260  175.6410  138.8210 N   0  0  0  0  0  2  0  0  0  0  0  0
  193.3080  176.4220  138.1490 O   0  0  0  0  0  0  0  0  0  0  0  0
  191.3340  175.1500  137.5950 C   0  0  1  0  0  3  0  0  0  0  0  0
  192.8250  175.3850  137.6220 C   0  0  0  0  0  0  0  0  0  0  0  0
  193.1530  173.2590  136.4300 C   0  0  0  0  0  2  0  0  0  0  0  0
  191.6370  173.3480  136.2430 C   0  0  0  0  0  2  0  0  0  0  0  0
  191.0510  173.7750  137.4490 O   0  0  0  0  0  0  0  0  0  0  0  0
  193.6580  174.4910  136.9460 O   0  0  0  0  0  0  0  0  0  0  0  0
  1 12  1  0  0  0  0
  2  8  1  0  0  0  0
  3 11  1  0  0  0  0
  4 14  2  0  0  0  0
  5 10  2  0  0  0  0
  6  2  1  0  0  0  0
  6  5  1  0  0  0  0
  7 17  1  0  0  0  0
  8  3  1  0  0  0  0
  8  1  2  0  0  0  0
  9  4  1  0  0  0  0
 10  1  1  0  0  0  0
 11 15  2  0  0  0  0
 11 18  1  0  0  0  0
 12 18  2  0  0  0  0
 13  2  2  0  0  0  0
 14 15  1  0  0  0  0
 15 21  1  0  0  0  0
 16 26  1  6  0  0  0
 16  7  1  0  0  0  0
 16  9  1  0  0  0  0
 17  4  1  0  0  0  0
 17  3  2  0  0  0  0
 19 25  1  0  0  0  0
 19 20  1  0  0  0  0
 21 23  1  0  0  0  0
 21 24  2  0  0  0  0
 22 20  2  0  0  0  0
 23 19  2  0  0  0  0
 24 22  1  0  0  0  0
 26 27  1  0  0  0  0
 29 30  1  0  0  0  0
 29 27  1  1  0  0  0
 30 28  2  0  0  0  0
 31 34  1  0  0  0  0
 32 31  1  0  0  0  0
 32 33  1  0  0  0  0
 33 29  1  0  0  0  0
 34 30  1  0  0  0  0
M  END
>  <MODEL>
3

>  <REMARK>
 VINA RESULT:     -10.8      3.273      5.537
  Name = 
  4 active torsions:
  status: ('A' for Active; 'I' for Inactive)
    1  A    between atoms: N_3  and  C_13
    2  A    between atoms: N_3  and  N_17
    3  A    between atoms: C_12  and  C_28
    4  A    between atoms: N_17  and  C_29
                            x       y       z     vdW  Elec       q    Type
                         _______ _______ _______ _____ _____    ______ ____

>  <TORSDO>
F 4

$$$$
=
 OpenBabel10262419093D

 34 39  0  0  1  0  0  0  0  0999 V2000
  186.9730  178.5350  147.2680 C   0  0  0  0  0  0  0  0  0  0  0  0
  188.8990  177.1990  146.7270 C   0  0  0  0  0  0  0  0  0  0  0  0
  187.2470  177.8750  144.9200 C   0  0  0  0  0  0  0  0  0  0  0  0
  187.4770  177.5290  142.5210 C   0  0  0  0  0  0  0  0  0  0  0  0
  188.6320  178.1150  148.8930 C   0  0  0  0  0  3  0  0  0  0  0  0
  189.3310  177.3720  148.0030 N   0  0  0  0  0  2  0  0  0  0  0  0
  189.5170  177.5430  143.6590 C   0  0  0  0  0  2  0  0  0  0  0  0
  187.7370  177.8770  146.2700 C   0  0  0  0  0  0  0  0  0  0  0  0
  188.4670  177.2960  141.4500 C   0  0  0  0  0  2  0  0  0  0  0  0
  187.4510  178.6670  148.5320 N   0  0  0  0  0  0  0  0  0  0  0  0
  185.8920  178.2760  144.6810 C   0  0  0  0  0  0  0  0  0  0  0  0
  185.7010  179.0150  146.9860 C   0  0  0  0  0  3  0  0  0  0  0  0
  189.5040  176.3650  146.0070 O   0  0  0  0  0  0  0  0  0  0  0  0
  186.1370  177.8030  142.3050 C   0  0  0  0  0  3  0  0  0  0  0  0
  185.3190  178.1710  143.3800 C   0  0  0  0  0  0  0  0  0  0  0  0
  189.7930  177.1770  142.2000 C   0  0  1  0  0  3  0  0  0  0  0  0
  188.0340  177.5760  143.7770 C   0  0  0  0  0  0  0  0  0  0  0  0
  185.1580  178.8590  145.7210 C   0  0  0  0  0  3  0  0  0  0  0  0
  182.0760  178.8460  141.5130 C   0  0  0  0  0  0  0  0  0  0  0  0
  181.1960  179.0890  142.5700 C   0  0  0  0  0  3  0  0  0  0  0  0
  183.8880  178.4640  143.0930 C   0  0  0  0  0  0  0  0  0  0  0  0
  181.6570  179.0280  143.8880 C   0  0  0  0  0  3  0  0  0  0  0  0
  183.4150  178.5420  141.7730 C   0  0  0  0  0  3  0  0  0  0  0  0
  182.9950  178.7210  144.1470 C   0  0  0  0  0  3  0  0  0  0  0  0
  181.6330  178.9120  140.2340 F   0  0  0  0  0  0  0  0  0  0  0  0
  190.7670  178.0970  141.6400 N   0  0  0  0  0  2  0  0  0  0  0  0
  191.9040  177.3440  141.3190 N   0  0  0  0  0  2  0  0  0  0  0  0
  194.4330  177.1400  140.1850 O   0  0  0  0  0  0  0  0  0  0  0  0
  192.0550  177.4000  139.8740 C   0  0  1  0  0  3  0  0  0  0  0  0
  193.4220  176.9010  139.4730 C   0  0  0  0  0  0  0  0  0  0  0  0
  192.4330  175.8940  137.4590 C   0  0  0  0  0  2  0  0  0  0  0  0
  191.2160  176.7230  137.8730 C   0  0  0  0  0  2  0  0  0  0  0  0
  191.0450  176.6220  139.2660 O   0  0  0  0  0  0  0  0  0  0  0  0
  193.5710  176.2690  138.2370 O   0  0  0  0  0  0  0  0  0  0  0  0
  1 10  1  0  0  0  0
  2  6  1  0  0  0  0
  3  8  1  0  0  0  0
  4 17  1  0  0  0  0
  6  5  1  0  0  0  0
  7 17  1  0  0  0  0
  8  2  1  0  0  0  0
  8  1  2  0  0  0  0
  9 16  1  0  0  0  0
  9  4  1  0  0  0  0
 10  5  2  0  0  0  0
 11  3  1  0  0  0  0
 11 18  1  0  0  0  0
 12  1  1  0  0  0  0
 13  2  2  0  0  0  0
 14  4  2  0  0  0  0
 14 15  1  0  0  0  0
 15 11  2  0  0  0  0
 16 26  1  6  0  0  0
 16  7  1  0  0  0  0
 17  3  2  0  0  0  0
 18 12  2  0  0  0  0
 19 23  2  0  0  0  0
 19 20  1  0  0  0  0
 20 22  2  0  0  0  0
 21 15  1  0  0  0  0
 21 24  2  0  0  0  0
 22 24  1  0  0  0  0
 23 21  1  0  0  0  0
 25 19  1  0  0  0  0
 27 26  1  0  0  0  0
 29 27  1  1  0  0  0
 30 29  1  0  0  0  0
 30 28  2  0  0  0  0
 31 32  1  0  0  0  0
 31 34  1  0  0  0  0
 32 33  1  0  0  0  0
 33 29  1  0  0  0  0
 34 30  1  0  0  0  0
M  END
>  <MODEL>
4

>  <REMARK>
 VINA RESULT:     -10.5      1.747      2.791
  Name = 
  4 active torsions:
  status: ('A' for Active; 'I' for Inactive)
    1  A    between atoms: N_3  and  C_13
    2  A    between atoms: N_3  and  N_17
    3  A    between atoms: C_12  and  C_28
    4  A    between atoms: N_17  and  C_29
                            x       y       z     vdW  Elec       q    Type
                         _______ _______ _______ _____ _____    ______ ____

>  <TORSDO>
F 4

$$$$
=
 OpenBabel10262419093D

 34 39  0  0  1  0  0  0  0  0999 V2000
  185.2600  178.0450  143.6580 C   0  0  0  0  0  0  0  0  0  0  0  0
  185.3940  179.0430  141.4730 C   0  0  0  0  0  0  0  0  0  0  0  0
  187.4430  177.9830  142.5360 C   0  0  0  0  0  0  0  0  0  0  0  0
  189.6090  177.6080  141.4900 C   0  0  0  0  0  0  0  0  0  0  0  0
  183.3100  178.8080  142.5690 C   0  0  0  0  0  3  0  0  0  0  0  0
  184.0480  179.2160  141.5110 N   0  0  0  0  0  2  0  0  0  0  0  0
  187.8550  177.7910  139.9580 C   0  0  0  0  0  2  0  0  0  0  0  0
  186.0510  178.3380  142.5170 C   0  0  0  0  0  0  0  0  0  0  0  0
  190.2800  177.4590  140.1830 C   0  0  0  0  0  2  0  0  0  0  0  0
  183.9190  178.2520  143.6430 N   0  0  0  0  0  0  0  0  0  0  0  0
  188.0400  177.6180  143.7870 C   0  0  0  0  0  0  0  0  0  0  0  0
  185.8470  177.5870  144.8300 C   0  0  0  0  0  3  0  0  0  0  0  0
  186.0350  179.5940  140.5420 O   0  0  0  0  0  0  0  0  0  0  0  0
  190.2120  177.3700  142.7130 C   0  0  0  0  0  3  0  0  0  0  0  0
  189.4430  177.3800  143.8830 C   0  0  0  0  0  0  0  0  0  0  0  0
  189.1620  177.7040  139.1700 C   0  0  1  0  0  3  0  0  0  0  0  0
  188.2680  177.8890  141.3840 C   0  0  0  0  0  0  0  0  0  0  0  0
  187.2200  177.4070  144.9020 C   0  0  0  0  0  3  0  0  0  0  0  0
  190.3120  177.3700  147.5850 C   0  0  0  0  0  0  0  0  0  0  0  0
  191.5050  176.6440  147.5850 C   0  0  0  0  0  3  0  0  0  0  0  0
  190.1380  177.1090  145.1720 C   0  0  0  0  0  0  0  0  0  0  0  0
  192.0220  176.1540  146.3830 C   0  0  0  0  0  3  0  0  0  0  0  0
  189.6360  177.6060  146.3850 C   0  0  0  0  0  3  0  0  0  0  0  0
  191.3450  176.3890  145.1830 C   0  0  0  0  0  3  0  0  0  0  0  0
  189.8120  177.8510  148.7490 F   0  0  0  0  0  0  0  0  0  0  0  0
  189.0920  176.6000  138.2280 N   0  0  0  0  0  2  0  0  0  0  0  0
  190.0130  176.8750  137.2080 N   0  0  0  0  0  2  0  0  0  0  0  0
  191.3700  174.6220  138.1090 O   0  0  0  0  0  0  0  0  0  0  0  0
  190.0830  175.6880  136.3690 C   0  0  1  0  0  3  0  0  0  0  0  0
  190.5220  174.4980  137.1860 C   0  0  0  0  0  0  0  0  0  0  0  0
  189.0270  173.0700  135.8550 C   0  0  0  0  0  2  0  0  0  0  0  0
  188.9390  174.3130  134.9680 C   0  0  0  0  0  2  0  0  0  0  0  0
  188.8200  175.4510  135.7860 O   0  0  0  0  0  0  0  0  0  0  0  0
  190.0630  173.2300  136.8250 O   0  0  0  0  0  0  0  0  0  0  0  0
  1 12  1  0  0  0  0
  2  6  1  0  0  0  0
  2  8  1  0  0  0  0
  3 11  1  0  0  0  0
  4 14  2  0  0  0  0
  5 10  2  0  0  0  0
  6  5  1  0  0  0  0
  7 17  1  0  0  0  0
  8  3  1  0  0  0  0
  8  1  2  0  0  0  0
  9  4  1  0  0  0  0
 10  1  1  0  0  0  0
 11 15  2  0  0  0  0
 11 18  1  0  0  0  0
 12 18  2  0  0  0  0
 13  2  2  0  0  0  0
 14 15  1  0  0  0  0
 15 21  1  0  0  0  0
 16 26  1  6  0  0  0
 16  7  1  0  0  0  0
 16  9  1  0  0  0  0
 17  4  1  0  0  0  0
 17  3  2  0  0  0  0
 19 25  1  0  0  0  0
 20 19  1  0  0  0  0
 21 24  2  0  0  0  0
 21 23  1  0  0  0  0
 22 20  2  0  0  0  0
 23 19  2  0  0  0  0
 24 22  1  0  0  0  0
 27 26  1  0  0  0  0
 29 30  1  0  0  0  0
 29 27  1  1  0  0  0
 30 28  2  0  0  0  0
 31 34  1  0  0  0  0
 32 33  1  0  0  0  0
 32 31  1  0  0  0  0
 33 29  1  0  0  0  0
 34 30  1  0  0  0  0
M  END
>  <MODEL>
5

>  <REMARK>
 VINA RESULT:     -10.4      3.329      5.677
  Name = 
  4 active torsions:
  status: ('A' for Active; 'I' for Inactive)
    1  A    between atoms: N_3  and  C_13
    2  A    between atoms: N_3  and  N_17
    3  A    between atoms: C_12  and  C_28
    4  A    between atoms: N_17  and  C_29
                            x       y       z     vdW  Elec       q    Type
                         _______ _______ _______ _____ _____    ______ ____

>  <TORSDO>
F 4

$$$$
=
 OpenBabel10262419093D

 34 39  0  0  1  0  0  0  0  0999 V2000
  185.8910  178.4540  146.1770 C   0  0  0  0  0  0  0  0  0  0  0  0
  187.7170  177.3480  145.0680 C   0  0  0  0  0  0  0  0  0  0  0  0
  185.7380  178.2240  143.7380 C   0  0  0  0  0  0  0  0  0  0  0  0
  185.5250  178.3110  141.3150 C   0  0  0  0  0  0  0  0  0  0  0  0
  187.8350  177.8610  147.3760 C   0  0  0  0  0  3  0  0  0  0  0  0
  188.3740  177.3260  146.2560 N   0  0  0  0  0  2  0  0  0  0  0  0
  187.7400  178.2510  142.0520 C   0  0  0  0  0  2  0  0  0  0  0  0
  186.4720  178.0240  144.9570 C   0  0  0  0  0  0  0  0  0  0  0  0
  186.3030  178.3250  140.0590 C   0  0  0  0  0  2  0  0  0  0  0  0
  186.5920  178.3950  147.3380 N   0  0  0  0  0  0  0  0  0  0  0  0
  184.3520  178.5780  143.8220 C   0  0  0  0  0  0  0  0  0  0  0  0
  184.5750  178.8980  146.2190 C   0  0  0  0  0  3  0  0  0  0  0  0
  188.1990  176.6880  144.1140 O   0  0  0  0  0  0  0  0  0  0  0  0
  184.1620  178.5370  141.3950 C   0  0  0  0  0  3  0  0  0  0  0  0
  183.5490  178.6650  142.6480 C   0  0  0  0  0  0  0  0  0  0  0  0
  187.7490  178.1580  140.5260 C   0  0  1  0  0  3  0  0  0  0  0  0
  186.3060  178.1750  142.4380 C   0  0  0  0  0  0  0  0  0  0  0  0
  183.8090  178.9300  145.0640 C   0  0  0  0  0  3  0  0  0  0  0  0
  179.9400  178.8410  143.8310 C   0  0  0  0  0  0  0  0  0  0  0  0
  179.3010  179.3350  142.6910 C   0  0  0  0  0  3  0  0  0  0  0  0
  182.0820  178.9170  142.6790 C   0  0  0  0  0  0  0  0  0  0  0  0
  180.0450  179.6150  141.5420 C   0  0  0  0  0  3  0  0  0  0  0  0
  181.3210  178.6270  143.8220 C   0  0  0  0  0  3  0  0  0  0  0  0
  181.4260  179.4030  141.5350 C   0  0  0  0  0  3  0  0  0  0  0  0
  179.2190  178.5620  144.9440 F   0  0  0  0  0  0  0  0  0  0  0  0
  188.5760  179.2180  139.9760 N   0  0  0  0  0  2  0  0  0  0  0  0
  188.7250  178.9520  138.6080 N   0  0  0  0  0  2  0  0  0  0  0  0
  188.9040  177.6790  136.1440 O   0  0  0  0  0  0  0  0  0  0  0  0
  189.4330  177.6860  138.4980 C   0  0  1  0  0  3  0  0  0  0  0  0
  189.7260  177.3780  137.0500 C   0  0  0  0  0  0  0  0  0  0  0  0
  191.8680  176.3790  137.7260 C   0  0  0  0  0  2  0  0  0  0  0  0
  191.2680  176.5020  139.1270 C   0  0  0  0  0  2  0  0  0  0  0  0
  190.6290  177.7500  139.2440 O   0  0  0  0  0  0  0  0  0  0  0  0
  190.8720  176.6440  136.7380 O   0  0  0  0  0  0  0  0  0  0  0  0
  1 12  1  0  0  0  0
  1 10  1  0  0  0  0
  2  6  1  0  0  0  0
  3 11  1  0  0  0  0
  3  8  1  0  0  0  0
  4 14  2  0  0  0  0
  4 17  1  0  0  0  0
  6  5  1  0  0  0  0
  7 17  1  0  0  0  0
  8  2  1  0  0  0  0
  8  1  2  0  0  0  0
  9 16  1  0  0  0  0
  9  4  1  0  0  0  0
 10  5  2  0  0  0  0
 11 18  1  0  0  0  0
 13  2  2  0  0  0  0
 14 15  1  0  0  0  0
 15 21  1  0  0  0  0
 15 11  2  0  0  0  0
 16 26  1  6  0  0  0
 16  7  1  0  0  0  0
 17  3  2  0  0  0  0
 18 12  2  0  0  0  0
 19 25  1  0  0  0  0
 20 19  2  0  0  0  0
 21 23  2  0  0  0  0
 22 20  1  0  0  0  0
 23 19  1  0  0  0  0
 24 22  2  0  0  0  0
 24 21  1  0  0  0  0
 27 26  1  0  0  0  0
 28 30  2  0  0  0  0
 29 27  1  6  0  0  0
 29 33  1  0  0  0  0
 30 29  1  0  0  0  0
 31 32  1  0  0  0  0
 32 33  1  0  0  0  0
 34 30  1  0  0  0  0
 34 31  1  0  0  0  0
M  END
>  <MODEL>
6

>  <REMARK>
 VINA RESULT:     -10.2      2.564      4.010
  Name = 
  4 active torsions:
  status: ('A' for Active; 'I' for Inactive)
    1  A    between atoms: N_3  and  C_13
    2  A    between atoms: N_3  and  N_17
    3  A    between atoms: C_12  and  C_28
    4  A    between atoms: N_17  and  C_29
                            x       y       z     vdW  Elec       q    Type
                         _______ _______ _______ _____ _____    ______ ____

>  <TORSDO>
F 4

$$$$
=
 OpenBabel10262419093D

 34 39  0  0  1  0  0  0  0  0999 V2000
  188.3140  177.3140  146.1460 C   0  0  0  0  0  0  0  0  0  0  0  0
  186.4880  178.6400  146.9790 C   0  0  0  0  0  0  0  0  0  0  0  0
  186.7450  178.2160  144.4880 C   0  0  0  0  0  0  0  0  0  0  0  0
  185.1690  178.8120  142.7300 C   0  0  0  0  0  0  0  0  0  0  0  0
  187.9350  177.5030  148.4680 C   0  0  0  0  0  3  0  0  0  0  0  0
  186.8770  178.3150  148.2390 N   0  0  0  0  0  0  0  0  0  0  0  0
  184.1800  178.6100  144.8370 C   0  0  0  0  0  2  0  0  0  0  0  0
  187.1360  178.0510  145.8600 C   0  0  0  0  0  0  0  0  0  0  0  0
  183.7500  179.1280  142.4730 C   0  0  0  0  0  2  0  0  0  0  0  0
  188.6600  177.0310  147.4270 N   0  0  0  0  0  2  0  0  0  0  0  0
  187.6880  177.8860  143.4610 C   0  0  0  0  0  0  0  0  0  0  0  0
  189.1620  176.9070  145.1240 C   0  0  0  0  0  3  0  0  0  0  0  0
  185.6090  179.5270  146.8430 O   0  0  0  0  0  0  0  0  0  0  0  0
  186.1190  178.6050  141.7440 C   0  0  0  0  0  3  0  0  0  0  0  0
  187.3960  178.1490  142.0910 C   0  0  0  0  0  0  0  0  0  0  0  0
  183.1180  179.1240  143.8640 C   0  0  1  0  0  3  0  0  0  0  0  0
  185.4500  178.6120  144.0610 C   0  0  0  0  0  0  0  0  0  0  0  0
  188.8680  177.2160  143.8050 C   0  0  0  0  0  3  0  0  0  0  0  0
  189.1750  178.3970  138.7390 C   0  0  0  0  0  0  0  0  0  0  0  0
  190.1980  177.4600  138.9020 C   0  0  0  0  0  3  0  0  0  0  0  0
  188.3770  177.9330  140.9910 C   0  0  0  0  0  0  0  0  0  0  0  0
  190.3110  176.7530  140.1010 C   0  0  0  0  0  3  0  0  0  0  0  0
  188.2670  178.6280  139.7750 C   0  0  0  0  0  3  0  0  0  0  0  0
  189.4030  176.9850  141.1380 C   0  0  0  0  0  3  0  0  0  0  0  0
  189.0600  179.0790  137.5740 F   0  0  0  0  0  0  0  0  0  0  0  0
  181.9660  178.2390  143.8860 N   0  0  0  0  0  2  0  0  0  0  0  0
  180.8290  179.0510  143.9830 N   0  0  0  0  0  2  0  0  0  0  0  0
  179.6810  181.0800  142.4670 O   0  0  0  0  0  0  0  0  0  0  0  0
  179.9710  178.7160  142.8560 C   0  0  1  0  0  3  0  0  0  0  0  0
  179.7750  179.9240  141.9740 C   0  0  0  0  0  0  0  0  0  0  0  0
  179.7800  178.4520  140.0050 C   0  0  0  0  0  2  0  0  0  0  0  0
  179.6800  177.3510  141.0620 C   0  0  0  0  0  2  0  0  0  0  0  0
  180.5500  177.6570  142.1250 O   0  0  0  0  0  0  0  0  0  0  0  0
  179.5780  179.7320  140.6050 O   0  0  0  0  0  0  0  0  0  0  0  0
  1 10  1  0  0  0  0
  2  6  1  0  0  0  0
  3  8  2  0  0  0  0
  4 17  2  0  0  0  0
  6  5  2  0  0  0  0
  8  1  1  0  0  0  0
  8  2  1  0  0  0  0
  9  4  1  0  0  0  0
  9 16  1  0  0  0  0
 10  5  1  0  0  0  0
 11 18  2  0  0  0  0
 11  3  1  0  0  0  0
 12  1  2  0  0  0  0
 13  2  2  0  0  0  0
 14 15  2  0  0  0  0
 14  4  1  0  0  0  0
 15 11  1  0  0  0  0
 16 26  1  6  0  0  0
 16  7  1  0  0  0  0
 17  3  1  0  0  0  0
 17  7  1  0  0  0  0
 18 12  1  0  0  0  0
 19 20  2  0  0  0  0
 19 23  1  0  0  0  0
 20 22  1  0  0  0  0
 21 24  1  0  0  0  0
 21 15  1  0  0  0  0
 22 24  2  0  0  0  0
 23 21  2  0  0  0  0
 25 19  1  0  0  0  0
 26 27  1  0  0  0  0
 29 27  1  1  0  0  0
 30 28  2  0  0  0  0
 30 29  1  0  0  0  0
 31 34  1  0  0  0  0
 31 32  1  0  0  0  0
 32 33  1  0  0  0  0
 33 29  1  0  0  0  0
 34 30  1  0  0  0  0
M  END
>  <MODEL>
7

>  <REMARK>
 VINA RESULT:     -10.2      5.205      8.385
  Name = 
  4 active torsions:
  status: ('A' for Active; 'I' for Inactive)
    1  A    between atoms: N_3  and  C_13
    2  A    between atoms: N_3  and  N_17
    3  A    between atoms: C_12  and  C_28
    4  A    between atoms: N_17  and  C_29
                            x       y       z     vdW  Elec       q    Type
                         _______ _______ _______ _____ _____    ______ ____

>  <TORSDO>
F 4

$$$$
=
 OpenBabel10262419093D

 34 39  0  0  1  0  0  0  0  0999 V2000
  191.2240  177.5670  141.4220 C   0  0  0  0  0  0  0  0  0  0  0  0
  189.6910  177.0430  139.6430 C   0  0  0  0  0  0  0  0  0  0  0  0
  188.8290  177.6570  141.9520 C   0  0  0  0  0  0  0  0  0  0  0  0
  186.5130  178.0380  142.5980 C   0  0  0  0  0  0  0  0  0  0  0  0
  192.0120  177.2380  139.2220 C   0  0  0  0  0  3  0  0  0  0  0  0
  190.7510  176.9930  138.7960 N   0  0  0  0  0  2  0  0  0  0  0  0
  186.9050  178.3470  140.3170 C   0  0  0  0  0  2  0  0  0  0  0  0
  189.8770  177.4480  140.9930 C   0  0  0  0  0  0  0  0  0  0  0  0
  185.1810  178.3940  142.0680 C   0  0  0  0  0  2  0  0  0  0  0  0
  192.2440  177.4960  140.5300 N   0  0  0  0  0  0  0  0  0  0  0  0
  189.1700  177.6930  143.3440 C   0  0  0  0  0  0  0  0  0  0  0  0
  191.5290  177.7120  142.7690 C   0  0  0  0  0  3  0  0  0  0  0  0
  188.5770  176.6420  139.2210 O   0  0  0  0  0  0  0  0  0  0  0  0
  186.8250  177.9550  143.9440 C   0  0  0  0  0  3  0  0  0  0  0  0
  188.1550  177.7720  144.3420 C   0  0  0  0  0  0  0  0  0  0  0  0
  185.4010  178.4740  140.5580 C   0  0  1  0  0  3  0  0  0  0  0  0
  187.4720  177.9130  141.6220 C   0  0  0  0  0  0  0  0  0  0  0  0
  190.5180  177.7420  143.7170 C   0  0  0  0  0  3  0  0  0  0  0  0
  189.9400  177.1950  147.6490 C   0  0  0  0  0  0  0  0  0  0  0  0
  188.9290  177.5030  148.5630 C   0  0  0  0  0  3  0  0  0  0  0  0
  188.4380  177.7000  145.8020 C   0  0  0  0  0  0  0  0  0  0  0  0
  187.6720  177.9020  148.1040 C   0  0  0  0  0  3  0  0  0  0  0  0
  189.6940  177.2880  146.2770 C   0  0  0  0  0  3  0  0  0  0  0  0
  187.4270  177.9950  146.7310 C   0  0  0  0  0  3  0  0  0  0  0  0
  191.1580  176.8020  148.0940 F   0  0  0  0  0  0  0  0  0  0  0  0
  184.9310  179.7530  140.0530 N   0  0  0  0  0  2  0  0  0  0  0  0
  184.5550  179.5510  138.7180 N   0  0  0  0  0  2  0  0  0  0  0  0
  182.2820  181.1530  138.7160 O   0  0  0  0  0  0  0  0  0  0  0  0
  183.2360  178.9370  138.7370 C   0  0  1  0  0  3  0  0  0  0  0  0
  182.1840  179.9490  138.3560 C   0  0  0  0  0  0  0  0  0  0  0  0
  180.9420  178.1770  137.1900 C   0  0  0  0  0  2  0  0  0  0  0  0
  181.9350  177.2660  137.9130 C   0  0  0  0  0  2  0  0  0  0  0  0
  183.2170  177.8420  137.8460 O   0  0  0  0  0  0  0  0  0  0  0  0
  181.0340  179.5080  137.6980 O   0  0  0  0  0  0  0  0  0  0  0  0
  1 12  1  0  0  0  0
  2  8  1  0  0  0  0
  3 11  1  0  0  0  0
  4 14  2  0  0  0  0
  5 10  2  0  0  0  0
  6  5  1  0  0  0  0
  6  2  1  0  0  0  0
  7 16  1  0  0  0  0
  7 17  1  0  0  0  0
  8  1  2  0  0  0  0
  8  3  1  0  0  0  0
  9  4  1  0  0  0  0
 10  1  1  0  0  0  0
 11 18  1  0  0  0  0
 11 15  2  0  0  0  0
 12 18  2  0  0  0  0
 13  2  2  0  0  0  0
 14 15  1  0  0  0  0
 15 21  1  0  0  0  0
 16 26  1  1  0  0  0
 16  9  1  0  0  0  0
 17  3  2  0  0  0  0
 17  4  1  0  0  0  0
 19 25  1  0  0  0  0
 19 20  1  0  0  0  0
 21 23  1  0  0  0  0
 21 24  2  0  0  0  0
 22 20  2  0  0  0  0
 23 19  2  0  0  0  0
 24 22  1  0  0  0  0
 27 26  1  0  0  0  0
 29 27  1  6  0  0  0
 30 28  2  0  0  0  0
 30 29  1  0  0  0  0
 31 34  1  0  0  0  0
 31 32  1  0  0  0  0
 33 32  1  0  0  0  0
 33 29  1  0  0  0  0
 34 30  1  0  0  0  0
M  END
>  <MODEL>
8

>  <REMARK>
 VINA RESULT:      -9.9      4.374      7.227
  Name = 
  4 active torsions:
  status: ('A' for Active; 'I' for Inactive)
    1  A    between atoms: N_3  and  C_13
    2  A    between atoms: N_3  and  N_17
    3  A    between atoms: C_12  and  C_28
    4  A    between atoms: N_17  and  C_29
                            x       y       z     vdW  Elec       q    Type
                         _______ _______ _______ _____ _____    ______ ____

>  <TORSDO>
F 4

$$$$
=
 OpenBabel10262419093D

 34 39  0  0  1  0  0  0  0  0999 V2000
  186.5550  178.4990  139.9190 C   0  0  0  0  0  0  0  0  0  0  0  0
  184.4690  177.9370  138.8600 C   0  0  0  0  0  0  0  0  0  0  0  0
  184.5580  178.4580  141.3450 C   0  0  0  0  0  0  0  0  0  0  0  0
  182.6670  178.7090  142.8570 C   0  0  0  0  0  0  0  0  0  0  0  0
  186.4300  178.2560  137.5740 C   0  0  0  0  0  3  0  0  0  0  0  0
  185.1130  177.9580  137.6650 N   0  0  0  0  0  2  0  0  0  0  0  0
  182.1230  179.0870  140.6180 C   0  0  0  0  0  2  0  0  0  0  0  0
  185.1530  178.3220  140.0450 C   0  0  0  0  0  0  0  0  0  0  0  0
  181.2210  179.0110  142.9030 C   0  0  0  0  0  2  0  0  0  0  0  0
  187.1470  178.4970  138.6970 N   0  0  0  0  0  0  0  0  0  0  0  0
  185.4150  178.4810  142.4930 C   0  0  0  0  0  0  0  0  0  0  0  0
  187.3580  178.6290  141.0440 C   0  0  0  0  0  3  0  0  0  0  0  0
  183.2950  177.4910  138.8900 O   0  0  0  0  0  0  0  0  0  0  0  0
  183.4840  178.6130  143.9710 C   0  0  0  0  0  3  0  0  0  0  0  0
  184.8690  178.4880  143.8100 C   0  0  0  0  0  0  0  0  0  0  0  0
  180.8290  179.1340  141.4320 C   0  0  1  0  0  3  0  0  0  0  0  0
  183.1710  178.6540  141.5800 C   0  0  0  0  0  0  0  0  0  0  0  0
  186.7990  178.5890  142.3120 C   0  0  0  0  0  3  0  0  0  0  0  0
  187.6280  177.5120  146.2390 C   0  0  0  0  0  0  0  0  0  0  0  0
  187.2270  178.1870  147.3940 C   0  0  0  0  0  3  0  0  0  0  0  0
  185.7040  178.3980  145.0400 C   0  0  0  0  0  0  0  0  0  0  0  0
  186.0650  178.9630  147.3810 C   0  0  0  0  0  3  0  0  0  0  0  0
  186.8670  177.6120  145.0710 C   0  0  0  0  0  3  0  0  0  0  0  0
  185.3060  179.0640  146.2120 C   0  0  0  0  0  3  0  0  0  0  0  0
  188.7510  176.7540  146.2520 F   0  0  0  0  0  0  0  0  0  0  0  0
  180.1520  180.3980  141.2010 N   0  0  0  0  0  2  0  0  0  0  0  0
  179.7060  180.3860  139.8730 N   0  0  0  0  0  2  0  0  0  0  0  0
  181.4010  180.4650  137.6710 O   0  0  0  0  0  0  0  0  0  0  0  0
  180.0740  181.6660  139.2890 C   0  0  1  0  0  3  0  0  0  0  0  0
  180.6700  181.4610  137.9180 C   0  0  0  0  0  0  0  0  0  0  0  0
  179.5970  183.5440  137.1710 C   0  0  0  0  0  2  0  0  0  0  0  0
  179.3380  183.7250  138.6680 C   0  0  0  0  0  2  0  0  0  0  0  0
  178.9330  182.4940  139.2150 O   0  0  0  0  0  0  0  0  0  0  0  0
  180.4990  182.4580  136.9550 O   0  0  0  0  0  0  0  0  0  0  0  0
  1  8  2  0  0  0  0
  1 12  1  0  0  0  0
  2 13  2  0  0  0  0
  2  8  1  0  0  0  0
  3 17  2  0  0  0  0
  3 11  1  0  0  0  0
  4  9  1  0  0  0  0
  4 14  2  0  0  0  0
  5  6  1  0  0  0  0
  5 10  2  0  0  0  0
  6  2  1  0  0  0  0
  7 16  1  0  0  0  0
  7 17  1  0  0  0  0
  8  3  1  0  0  0  0
 10  1  1  0  0  0  0
 11 15  2  0  0  0  0
 12 18  2  0  0  0  0
 15 14  1  0  0  0  0
 15 21  1  0  0  0  0
 16 26  1  1  0  0  0
 16  9  1  0  0  0  0
 17  4  1  0  0  0  0
 18 11  1  0  0  0  0
 19 25  1  0  0  0  0
 19 20  1  0  0  0  0
 21 23  1  0  0  0  0
 21 24  2  0  0  0  0
 22 20  2  0  0  0  0
 23 19  2  0  0  0  0
 24 22  1  0  0  0  0
 27 26  1  0  0  0  0
 28 30  2  0  0  0  0
 29 27  1  6  0  0  0
 30 29  1  0  0  0  0
 31 32  1  0  0  0  0
 32 33  1  0  0  0  0
 33 29  1  0  0  0  0
 34 31  1  0  0  0  0
 34 30  1  0  0  0  0
M  END
>  <MODEL>
9

>  <REMARK>
 VINA RESULT:      -9.9      6.075      9.576
  Name = 
  4 active torsions:
  status: ('A' for Active; 'I' for Inactive)
    1  A    between atoms: N_3  and  C_13
    2  A    between atoms: N_3  and  N_17
    3  A    between atoms: C_12  and  C_28
    4  A    between atoms: N_17  and  C_29
                            x       y       z     vdW  Elec       q    Type
                         _______ _______ _______ _____ _____    ______ ____

>  <TORSDO>
F 4

$$$$
