=
 OpenBabel10262420213D

 55 61  0  0  1  0  0  0  0  0999 V2000
  189.3120  176.5910  138.6300 C   0  0  0  0  0  2  0  0  0  0  0  0
  184.5290  177.8420  140.9510 O   0  0  0  0  0  0  0  0  0  0  0  0
  187.8990  179.6800  141.2940 C   0  0  0  0  0  1  0  0  0  0  0  0
  190.0740  178.9920  143.2740 C   0  0  0  0  0  2  0  0  0  0  0  0
  190.8680  179.2770  144.5420 C   0  0  0  0  0  2  0  0  0  0  0  0
  189.9830  176.5370  143.9520 C   0  0  1  0  0  3  0  0  0  0  0  0
  190.8880  176.8640  145.1430 C   0  0  0  0  0  2  0  0  0  0  0  0
  187.4180  178.2740  141.6260 C   0  0  2  0  0  3  0  0  0  0  0  0
  191.7580  178.0900  144.8670 C   0  0  0  0  0  2  0  0  0  0  0  0
  186.8690  176.4950  138.0980 O   0  0  0  0  0  0  0  0  0  0  0  0
  189.1960  177.7420  143.4230 C   0  0  2  0  0  3  0  0  0  0  0  0
  186.4500  178.7140  135.6240 C   0  0  0  0  0  3  0  0  0  0  0  0
  188.8530  176.2170  140.0380 C   0  0  0  0  0  2  0  0  0  0  0  0
  188.4790  177.5530  136.5840 C   0  0  0  0  0  3  0  0  0  0  0  0
  190.7200  176.3340  141.4660 C   0  0  1  0  0  3  0  0  0  0  0  0
  184.9960  178.3140  139.7170 C   0  0  0  0  0  2  0  0  0  0  0  0
  190.7000  175.7120  142.8790 C   0  0  0  0  0  2  0  0  0  0  0  0
  184.9750  178.7850  141.8860 C   0  0  0  0  0  2  0  0  0  0  0  0
  186.2400  178.2930  142.5880 C   0  0  0  0  0  2  0  0  0  0  0  0
  185.7490  176.3910  137.2240 C   0  0  0  0  0  2  0  0  0  0  0  0
  184.1280  177.7930  138.5780 C   0  0  2  0  0  3  0  0  0  0  0  0
  188.1590  176.9210  137.7280 C   0  0  0  0  0  0  0  0  0  0  0  0
  188.5360  177.3320  142.0990 C   0  0  2  0  0  3  0  0  0  0  0  0
  189.5130  177.0670  141.0250 N   0  0  2  0  0  0  0  0  0  0  0  0
  184.9140  177.6670  137.2540 C   0  0  1  0  0  3  0  0  0  0  0  0
  185.7510  178.9010  136.9260 C   0  0  0  0  0  2  0  0  0  0  0  0
  187.6360  178.1160  135.5020 C   0  0  0  0  0  3  0  0  0  0  0  0
  181.6220  180.6730  137.9100 C   0  0  1  0  0  3  0  0  0  0  0  0
  178.9570  178.7670  136.4150 C   0  0  0  0  0  3  0  0  0  0  0  0
  179.7420  179.7970  136.6080 C   0  0  0  0  0  0  0  0  0  0  0  0
  182.1800  175.5720  139.0030 O   0  0  0  0  0  0  0  0  0  0  0  0
  182.7820  178.5600  138.5220 C   0  0  2  0  0  0  0  0  0  0  0  0
  179.5250  177.4880  135.8920 C   0  0  0  0  0  2  0  0  0  0  0  0
  179.3930  176.3730  136.9250 C   0  0  0  0  0  2  0  0  0  0  0  0
  181.5410  176.2870  138.2430 C   0  0  0  0  0  0  0  0  0  0  0  0
  182.7310  179.6680  137.5540 C   0  0  1  0  0  3  0  0  0  0  0  0
  181.5330  177.7770  138.4220 C   0  0  2  0  0  3  0  0  0  0  0  0
  182.1930  181.9060  138.1850 F   0  0  0  0  0  0  0  0  0  0  0  0
  180.7350  175.6640  137.1320 C   0  0  0  0  0  2  0  0  0  0  0  0
  182.1320  178.3670  137.2050 N   0  0  2  0  0  0  0  0  0  0  0  0
  180.5780  180.7900  136.8200 C   0  0  0  0  0  0  0  0  0  0  0  0
  180.4190  182.0680  136.0580 C   0  0  0  0  0  2  0  0  0  0  0  0
  178.9310  184.3160  136.4520 O   0  0  0  0  0  0  0  0  0  0  0  0
  181.2960  184.3250  137.5720 O   0  0  0  0  0  1  0  0  0  0  0  0
  179.9240  183.4240  137.1620 P   0  0  0  0  0  0  0  0  0  0  0  0
  179.2180  182.7930  138.5660 O   0  0  0  0  0  1  0  0  0  0  0  0
  192.8150  177.2950  142.0400 O   0  0  0  0  0  0  0  0  0  0  0  0
  191.9880  177.0830  141.1680 C   0  0  0  0  0  0  0  0  0  0  0  0
  192.2480  177.5540  139.7790 C   0  0  0  0  0  2  0  0  0  0  0  0
  193.1920  176.3070  137.7980 C   0  0  0  0  0  0  0  0  0  0  0  0
  193.2680  176.7150  139.1650 N   0  0  0  0  0  2  0  0  0  0  0  0
  192.2080  176.6460  137.0820 O   0  0  0  0  0  0  0  0  0  0  0  0
  194.2450  175.4260  137.2170 C   0  0  0  0  0  3  0  0  0  0  0  0
  193.8920  175.0340  135.7940 C   0  0  0  0  0  1  0  0  0  0  0  0
  194.4340  174.1810  138.0650 C   0  0  0  0  0  1  0  0  0  0  0  0
  1 13  1  0  0  0  0
  2 18  1  0  0  0  0
  4  5  1  0  0  0  0
  5  9  1  0  0  0  0
  6 17  1  6  0  0  0
  6  7  1  0  0  0  0
  8  3  1  1  0  0  0
  8 23  1  0  0  0  0
  8 19  1  0  0  0  0
  9  7  1  0  0  0  0
 11  4  1  6  0  0  0
 11  6  1  0  0  0  0
 12 26  1  0  0  0  0
 13 24  1  0  0  0  0
 14 22  2  0  0  0  0
 15 48  1  1  0  0  0
 15 17  1  0  0  0  0
 16  2  1  0  0  0  0
 18 19  1  0  0  0  0
 20 25  1  0  0  0  0
 20 10  1  0  0  0  0
 21 16  1  1  0  0  0
 22 10  1  0  0  0  0
 22  1  1  0  0  0  0
 23 11  1  0  0  0  0
 24 15  1  0  0  0  0
 24 23  1  0  0  0  0
 25 21  1  0  0  0  0
 26 25  1  0  0  0  0
 27 12  2  0  0  0  0
 27 14  1  0  0  0  0
 28 38  1  0  0  0  0
 29 30  2  0  0  0  0
 30 41  2  0  0  0  0
 32 21  1  0  0  0  0
 33 29  1  0  0  0  0
 33 34  1  0  0  0  0
 34 39  1  0  0  0  0
 35 37  1  0  0  0  0
 35 31  2  0  0  0  0
 36 28  1  0  0  0  0
 36 32  1  0  0  0  0
 37 32  1  0  0  0  0
 39 35  1  0  0  0  0
 40 36  1  0  0  0  0
 40 37  1  0  0  0  0
 40 32  1  0  0  0  0
 41 28  1  0  0  0  0
 42 41  1  0  0  0  0
 42 45  1  0  0  0  0
 43 45  2  0  0  0  0
 45 44  1  0  0  0  0
 45 46  1  0  0  0  0
 48 47  2  0  0  0  0
 49 48  1  0  0  0  0
 50 51  1  0  0  0  0
 51 49  1  0  0  0  0
 52 50  2  0  0  0  0
 53 50  1  0  0  0  0
 53 55  1  0  0  0  0
 54 53  1  0  0  0  0
M  END
>  <MODEL>
1

>  <REMARK>
 VINA RESULT:      -4.5      0.000      0.000
  Name = 
  7 active torsions:
  status: ('A' for Active; 'I' for Inactive)
    1  A    between atoms: C_8  and  C_43
    2  A    between atoms: C_10  and  C_32
    3  A    between atoms: P_29  and  C_38
    4  A    between atoms: C_33  and  C_52
    5  A    between atoms: C_34  and  N_39
    6  A    between atoms: C_34  and  C_52
    7  A    between atoms: C_38  and  C_53
                            x       y       z     vdW  Elec       q    Type
                         _______ _______ _______ _____ _____    ______ ____

>  <TORSDO>
F 7

$$$$
=
 OpenBabel10262420213D

 55 61  0  0  1  0  0  0  0  0999 V2000
  188.4040  178.3960  141.0250 C   0  0  0  0  0  2  0  0  0  0  0  0
  186.1560  177.5570  136.1200 O   0  0  0  0  0  0  0  0  0  0  0  0
  188.2020  175.0890  138.2580 C   0  0  0  0  0  1  0  0  0  0  0  0
  191.2150  174.8680  138.2740 C   0  0  0  0  0  2  0  0  0  0  0  0
  192.5060  174.1480  137.9070 C   0  0  0  0  0  2  0  0  0  0  0  0
  192.3200  177.0660  137.6080 C   0  0  1  0  0  3  0  0  0  0  0  0
  193.6270  176.3030  137.3750 C   0  0  0  0  0  2  0  0  0  0  0  0
  188.4970  176.4420  137.6240 C   0  0  2  0  0  3  0  0  0  0  0  0
  193.6960  175.0360  138.2260 C   0  0  0  0  0  2  0  0  0  0  0  0
  186.3690  179.0720  139.7360 O   0  0  0  0  0  0  0  0  0  0  0  0
  191.0650  176.1900  137.5090 C   0  0  2  0  0  3  0  0  0  0  0  0
  183.8190  177.6190  141.3510 C   0  0  0  0  0  3  0  0  0  0  0  0
  189.0990  178.5070  139.6690 C   0  0  0  0  0  2  0  0  0  0  0  0
  186.2130  178.1170  141.9880 C   0  0  0  0  0  3  0  0  0  0  0  0
  191.2990  177.7070  139.9130 C   0  0  1  0  0  3  0  0  0  0  0  0
  185.5500  177.3100  137.3580 C   0  0  0  0  0  2  0  0  0  0  0  0
  192.3800  177.9710  138.8430 C   0  0  0  0  0  2  0  0  0  0  0  0
  186.7910  176.3530  135.7860 C   0  0  0  0  0  2  0  0  0  0  0  0
  188.2810  176.4180  136.1190 C   0  0  0  0  0  2  0  0  0  0  0  0
  185.0480  179.5890  139.6020 C   0  0  0  0  0  2  0  0  0  0  0  0
  184.3600  178.2380  137.5700 C   0  0  2  0  0  3  0  0  0  0  0  0
  186.9130  178.5110  140.9080 C   0  0  0  0  0  0  0  0  0  0  0  0
  189.8700  177.0170  138.0020 C   0  0  2  0  0  3  0  0  0  0  0  0
  189.9470  177.3390  139.4410 N   0  0  2  0  0  0  0  0  0  0  0  0
  184.0990  178.5230  139.0650 C   0  0  1  0  0  3  0  0  0  0  0  0
  184.1090  177.2650  139.9320 C   0  0  0  0  0  2  0  0  0  0  0  0
  184.7550  177.9940  142.2240 C   0  0  0  0  0  3  0  0  0  0  0  0
  182.1050  175.9190  135.4350 C   0  0  1  0  0  3  0  0  0  0  0  0
  178.9320  176.6390  136.9780 C   0  0  0  0  0  3  0  0  0  0  0  0
  179.8500  175.9150  136.3890 C   0  0  0  0  0  0  0  0  0  0  0  0
  182.3740  180.3810  138.1820 O   0  0  0  0  0  0  0  0  0  0  0  0
  183.1470  177.7730  136.7240 C   0  0  2  0  0  0  0  0  0  0  0  0
  179.1840  177.1880  138.3460 C   0  0  0  0  0  2  0  0  0  0  0  0
  179.2230  178.7130  138.3200 C   0  0  0  0  0  2  0  0  0  0  0  0
  181.6320  179.4160  138.0620 C   0  0  0  0  0  0  0  0  0  0  0  0
  182.9500  176.3160  136.6570 C   0  0  1  0  0  3  0  0  0  0  0  0
  181.8410  178.4240  136.9560 C   0  0  2  0  0  3  0  0  0  0  0  0
  182.8650  175.1210  134.5940 F   0  0  0  0  0  0  0  0  0  0  0  0
  180.4820  179.2340  139.0200 C   0  0  0  0  0  2  0  0  0  0  0  0
  182.1360  177.1190  137.5880 N   0  0  2  0  0  0  0  0  0  0  0  0
  180.8170  175.2260  135.8240 C   0  0  0  0  0  0  0  0  0  0  0  0
  180.5940  173.7890  135.4720 C   0  0  0  0  0  2  0  0  0  0  0  0
  182.5660  172.9930  137.1760 O   0  0  0  0  0  1  0  0  0  0  0  0
  180.9870  171.0900  136.3220 O   0  0  0  0  0  0  0  0  0  0  0  0
  181.1250  172.6990  136.8270 P   0  0  0  0  0  0  0  0  0  0  0  0
  180.1480  172.9550  138.1850 O   0  0  0  0  0  1  0  0  0  0  0  0
  192.9670  176.6330  141.2190 O   0  0  0  0  0  0  0  0  0  0  0  0
  191.7770  176.8250  141.0310 C   0  0  0  0  0  0  0  0  0  0  0  0
  190.7800  176.1920  141.9390 C   0  0  0  0  0  2  0  0  0  0  0  0
  189.6390  176.8480  144.0920 C   0  0  0  0  0  0  0  0  0  0  0  0
  190.7610  176.9020  143.2100 N   0  0  0  0  0  2  0  0  0  0  0  0
  188.6050  176.1950  143.7750 O   0  0  0  0  0  0  0  0  0  0  0  0
  189.6520  177.6120  145.3720 C   0  0  0  0  0  3  0  0  0  0  0  0
  190.5450  176.9310  146.3940 C   0  0  0  0  0  1  0  0  0  0  0  0
  188.2470  177.7570  145.9280 C   0  0  0  0  0  1  0  0  0  0  0  0
  2 16  1  0  0  0  0
  5  9  1  0  0  0  0
  5  4  1  0  0  0  0
  6  7  1  1  0  0  0
  6 17  1  0  0  0  0
  7  9  1  0  0  0  0
  8 23  1  0  0  0  0
  8  3  1  6  0  0  0
 10 22  1  0  0  0  0
 11  6  1  0  0  0  0
 11 23  1  0  0  0  0
 11  4  1  1  0  0  0
 12 27  2  0  0  0  0
 13  1  1  0  0  0  0
 14 27  1  0  0  0  0
 15 48  1  1  0  0  0
 17 15  1  0  0  0  0
 18 19  1  0  0  0  0
 18  2  1  0  0  0  0
 19  8  1  0  0  0  0
 20 10  1  0  0  0  0
 21 16  1  1  0  0  0
 21 25  1  0  0  0  0
 22  1  1  0  0  0  0
 22 14  2  0  0  0  0
 23 24  1  0  0  0  0
 24 13  1  0  0  0  0
 24 15  1  0  0  0  0
 25 20  1  0  0  0  0
 25 26  1  0  0  0  0
 26 12  1  0  0  0  0
 28 41  1  0  0  0  0
 28 36  1  0  0  0  0
 29 33  1  0  0  0  0
 30 29  2  0  0  0  0
 32 37  1  0  0  0  0
 32 21  1  0  0  0  0
 32 40  1  0  0  0  0
 34 33  1  0  0  0  0
 34 39  1  0  0  0  0
 35 31  2  0  0  0  0
 35 39  1  0  0  0  0
 36 32  1  0  0  0  0
 36 40  1  0  0  0  0
 37 40  1  0  0  0  0
 37 35  1  0  0  0  0
 38 28  1  0  0  0  0
 41 30  2  0  0  0  0
 42 41  1  0  0  0  0
 42 45  1  0  0  0  0
 44 45  2  0  0  0  0
 45 43  1  0  0  0  0
 45 46  1  0  0  0  0
 48 47  2  0  0  0  0
 48 49  1  0  0  0  0
 49 51  1  0  0  0  0
 50 53  1  0  0  0  0
 51 50  1  0  0  0  0
 52 50  2  0  0  0  0
 53 55  1  0  0  0  0
 53 54  1  0  0  0  0
M  END
>  <MODEL>
2

>  <REMARK>
 VINA RESULT:      -3.1      2.681      6.128
  Name = 
  7 active torsions:
  status: ('A' for Active; 'I' for Inactive)
    1  A    between atoms: C_8  and  C_43
    2  A    between atoms: C_10  and  C_32
    3  A    between atoms: P_29  and  C_38
    4  A    between atoms: C_33  and  C_52
    5  A    between atoms: C_34  and  N_39
    6  A    between atoms: C_34  and  C_52
    7  A    between atoms: C_38  and  C_53
                            x       y       z     vdW  Elec       q    Type
                         _______ _______ _______ _____ _____    ______ ____

>  <TORSDO>
F 7

$$$$
=
 OpenBabel10262420213D

 55 61  0  0  1  0  0  0  0  0999 V2000
  189.1800  177.9800  139.2830 C   0  0  0  0  0  2  0  0  0  0  0  0
  185.3490  176.9700  135.5240 O   0  0  0  0  0  0  0  0  0  0  0  0
  187.6670  174.4560  137.3010 C   0  0  0  0  0  1  0  0  0  0  0  0
  190.4640  173.7300  136.4200 C   0  0  0  0  0  2  0  0  0  0  0  0
  191.4610  172.7630  135.7960 C   0  0  0  0  0  2  0  0  0  0  0  0
  191.5480  175.6150  135.0910 C   0  0  1  0  0  3  0  0  0  0  0  0
  192.6000  174.6190  134.5940 C   0  0  0  0  0  2  0  0  0  0  0  0
  187.9000  175.6560  136.3930 C   0  0  2  0  0  3  0  0  0  0  0  0
  192.7900  173.4660  135.5790 C   0  0  0  0  0  2  0  0  0  0  0  0
  186.9330  178.8380  138.5940 O   0  0  0  0  0  0  0  0  0  0  0  0
  190.2330  174.9590  135.5310 C   0  0  2  0  0  3  0  0  0  0  0  0
  184.9030  178.0390  141.1350 C   0  0  0  0  0  3  0  0  0  0  0  0
  189.3950  177.8130  137.7800 C   0  0  0  0  0  2  0  0  0  0  0  0
  187.4140  178.1940  140.9090 C   0  0  0  0  0  3  0  0  0  0  0  0
  191.4350  176.6840  137.4590 C   0  0  1  0  0  3  0  0  0  0  0  0
  185.1620  176.9760  136.9120 C   0  0  0  0  0  2  0  0  0  0  0  0
  192.1240  176.6330  136.0780 C   0  0  0  0  0  2  0  0  0  0  0  0
  185.6840  175.6450  135.2150 C   0  0  0  0  0  2  0  0  0  0  0  0
  187.1970  175.4940  135.0540 C   0  0  0  0  0  2  0  0  0  0  0  0
  185.7160  179.5530  138.7910 C   0  0  0  0  0  2  0  0  0  0  0  0
  184.2330  178.1120  137.3260 C   0  0  2  0  0  3  0  0  0  0  0  0
  187.7610  178.3330  139.6150 C   0  0  0  0  0  0  0  0  0  0  0  0
  189.3810  176.0300  136.2260 C   0  0  2  0  0  3  0  0  0  0  0  0
  189.9680  176.4990  137.4960 N   0  0  2  0  0  0  0  0  0  0  0  0
  184.5190  178.6090  138.7590 C   0  0  1  0  0  3  0  0  0  0  0  0
  184.6610  177.4780  139.7760 C   0  0  0  0  0  2  0  0  0  0  0  0
  186.1130  178.3490  141.6010 C   0  0  0  0  0  3  0  0  0  0  0  0
  181.1940  176.0950  136.0140 C   0  0  1  0  0  3  0  0  0  0  0  0
  178.9340  176.6250  138.7670 C   0  0  0  0  0  3  0  0  0  0  0  0
  179.5030  175.9780  137.7800 C   0  0  0  0  0  0  0  0  0  0  0  0
  182.7720  180.1660  138.9230 O   0  0  0  0  0  0  0  0  0  0  0  0
  182.7610  177.7640  136.9860 C   0  0  2  0  0  0  0  0  0  0  0  0
  179.7350  176.9920  139.9740 C   0  0  0  0  0  2  0  0  0  0  0  0
  179.8450  178.5080  140.1110 C   0  0  0  0  0  2  0  0  0  0  0  0
  181.9910  179.2280  138.9980 C   0  0  0  0  0  0  0  0  0  0  0  0
  182.4730  176.3280  136.8340 C   0  0  1  0  0  3  0  0  0  0  0  0
  181.6910  178.3860  137.7930 C   0  0  2  0  0  3  0  0  0  0  0  0
  181.5140  175.4080  134.8530 F   0  0  0  0  0  0  0  0  0  0  0  0
  181.3050  178.9300  140.3070 C   0  0  0  0  0  2  0  0  0  0  0  0
  182.1390  177.0090  138.0990 N   0  0  2  0  0  0  0  0  0  0  0  0
  180.1280  175.3630  136.8010 C   0  0  0  0  0  0  0  0  0  0  0  0
  179.7060  173.9840  136.4030 C   0  0  0  0  0  2  0  0  0  0  0  0
  180.3320  171.3610  136.7950 O   0  0  0  0  0  0  0  0  0  0  0  0
  179.9690  172.7660  138.9730 O   0  0  0  0  0  1  0  0  0  0  0  0
  180.5720  172.7300  137.3920 P   0  0  0  0  0  0  0  0  0  0  0  0
  182.2330  173.0590  137.4100 O   0  0  0  0  0  1  0  0  0  0  0  0
  191.5230  175.1490  139.2680 O   0  0  0  0  0  0  0  0  0  0  0  0
  192.1430  175.8700  138.5040 C   0  0  0  0  0  0  0  0  0  0  0  0
  193.6290  175.9270  138.5920 C   0  0  0  0  0  2  0  0  0  0  0  0
  195.5400  174.2800  138.6210 C   0  0  0  0  0  0  0  0  0  0  0  0
  194.1820  174.6080  138.3220 N   0  0  0  0  0  2  0  0  0  0  0  0
  196.3170  175.1480  139.1090 O   0  0  0  0  0  0  0  0  0  0  0  0
  196.0730  172.9230  138.3030 C   0  0  0  0  0  3  0  0  0  0  0  0
  197.1390  173.0050  137.2260 C   0  0  0  0  0  1  0  0  0  0  0  0
  194.9560  171.9970  137.8580 C   0  0  0  0  0  1  0  0  0  0  0  0
  1 22  1  0  0  0  0
  2 16  1  0  0  0  0
  5  4  1  0  0  0  0
  6  7  1  1  0  0  0
  6 11  1  0  0  0  0
  6 17  1  0  0  0  0
  7  9  1  0  0  0  0
  8  3  1  6  0  0  0
  9  5  1  0  0  0  0
 10 20  1  0  0  0  0
 10 22  1  0  0  0  0
 11 23  1  0  0  0  0
 11  4  1  1  0  0  0
 12 27  2  0  0  0  0
 13  1  1  0  0  0  0
 14 27  1  0  0  0  0
 15 24  1  0  0  0  0
 15 48  1  1  0  0  0
 17 15  1  0  0  0  0
 18  2  1  0  0  0  0
 19 18  1  0  0  0  0
 19  8  1  0  0  0  0
 21 16  1  1  0  0  0
 21 25  1  0  0  0  0
 22 14  2  0  0  0  0
 23  8  1  0  0  0  0
 23 24  1  0  0  0  0
 24 13  1  0  0  0  0
 25 20  1  0  0  0  0
 25 26  1  0  0  0  0
 26 12  1  0  0  0  0
 28 41  1  0  0  0  0
 28 36  1  0  0  0  0
 29 33  1  0  0  0  0
 30 29  2  0  0  0  0
 31 35  2  0  0  0  0
 32 21  1  0  0  0  0
 32 37  1  0  0  0  0
 32 40  1  0  0  0  0
 33 34  1  0  0  0  0
 34 39  1  0  0  0  0
 35 39  1  0  0  0  0
 36 32  1  0  0  0  0
 36 40  1  0  0  0  0
 37 40  1  0  0  0  0
 37 35  1  0  0  0  0
 38 28  1  0  0  0  0
 41 30  2  0  0  0  0
 42 41  1  0  0  0  0
 42 45  1  0  0  0  0
 43 45  2  0  0  0  0
 45 46  1  0  0  0  0
 45 44  1  0  0  0  0
 48 49  1  0  0  0  0
 48 47  2  0  0  0  0
 50 52  2  0  0  0  0
 51 49  1  0  0  0  0
 51 50  1  0  0  0  0
 53 50  1  0  0  0  0
 54 53  1  0  0  0  0
 55 53  1  0  0  0  0
M  END
>  <MODEL>
3

>  <REMARK>
 VINA RESULT:      -2.6      3.310      6.035
  Name = 
  7 active torsions:
  status: ('A' for Active; 'I' for Inactive)
    1  A    between atoms: C_8  and  C_43
    2  A    between atoms: C_10  and  C_32
    3  A    between atoms: P_29  and  C_38
    4  A    between atoms: C_33  and  C_52
    5  A    between atoms: C_34  and  N_39
    6  A    between atoms: C_34  and  C_52
    7  A    between atoms: C_38  and  C_53
                            x       y       z     vdW  Elec       q    Type
                         _______ _______ _______ _____ _____    ______ ____

>  <TORSDO>
F 7

$$$$
=
 OpenBabel10262420213D

 55 61  0  0  1  0  0  0  0  0999 V2000
  191.8780  176.6160  140.9180 C   0  0  0  0  0  2  0  0  0  0  0  0
  187.7070  178.6140  138.0130 O   0  0  0  0  0  0  0  0  0  0  0  0
  189.3600  175.1440  137.7360 C   0  0  0  0  0  1  0  0  0  0  0  0
  191.8030  174.4970  136.0780 C   0  0  0  0  0  2  0  0  0  0  0  0
  192.4640  173.8630  134.8630 C   0  0  0  0  0  2  0  0  0  0  0  0
  193.2760  176.5480  135.7390 C   0  0  1  0  0  3  0  0  0  0  0  0
  193.9900  175.8090  134.6030 C   0  0  0  0  0  2  0  0  0  0  0  0
  189.8550  176.5730  137.5560 C   0  0  2  0  0  3  0  0  0  0  0  0
  193.9190  174.2940  134.7880 C   0  0  0  0  0  2  0  0  0  0  0  0
  189.9100  178.1290  141.2280 O   0  0  0  0  0  0  0  0  0  0  0  0
  191.8610  176.0290  136.0220 C   0  0  2  0  0  3  0  0  0  0  0  0
  187.8890  176.4740  143.3250 C   0  0  0  0  0  3  0  0  0  0  0  0
  191.9540  177.2680  139.5370 C   0  0  0  0  0  2  0  0  0  0  0  0
  190.3330  176.2360  142.7260 C   0  0  0  0  0  3  0  0  0  0  0  0
  193.5920  176.1320  138.2870 C   0  0  1  0  0  3  0  0  0  0  0  0
  187.6090  177.8900  139.2080 C   0  0  0  0  0  2  0  0  0  0  0  0
  194.1610  176.7180  136.9760 C   0  0  0  0  0  2  0  0  0  0  0  0
  187.6550  177.6450  137.0030 C   0  0  0  0  0  2  0  0  0  0  0  0
  189.0580  177.3170  136.4950 C   0  0  0  0  0  2  0  0  0  0  0  0
  188.9450  178.8370  142.0010 C   0  0  0  0  0  2  0  0  0  0  0  0
  187.0460  178.7640  140.3230 C   0  0  2  0  0  3  0  0  0  0  0  0
  190.6280  176.9950  141.6550 C   0  0  0  0  0  0  0  0  0  0  0  0
  191.3700  176.6800  137.3220 C   0  0  2  0  0  3  0  0  0  0  0  0
  192.1340  176.2470  138.5080 N   0  0  2  0  0  0  0  0  0  0  0  0
  187.5380  178.3210  141.7180 C   0  0  1  0  0  3  0  0  0  0  0  0
  187.4270  176.8160  141.9500 C   0  0  0  0  0  2  0  0  0  0  0  0
  189.1630  176.2330  143.6370 C   0  0  0  0  0  3  0  0  0  0  0  0
  183.4580  178.2260  138.9600 C   0  0  1  0  0  3  0  0  0  0  0  0
  181.6590  178.2570  142.0800 C   0  0  0  0  0  3  0  0  0  0  0  0
  181.9370  177.8990  140.8510 C   0  0  0  0  0  0  0  0  0  0  0  0
  186.3860  180.3800  142.7440 O   0  0  0  0  0  0  0  0  0  0  0  0
  185.5180  178.9560  140.1480 C   0  0  2  0  0  0  0  0  0  0  0  0
  182.6160  177.9320  143.1820 C   0  0  0  0  0  2  0  0  0  0  0  0
  183.1850  179.2070  143.7980 C   0  0  0  0  0  2  0  0  0  0  0  0
  185.3660  179.7140  142.6350 C   0  0  0  0  0  0  0  0  0  0  0  0
  184.8020  177.8030  139.5770 C   0  0  1  0  0  3  0  0  0  0  0  0
  184.7430  179.4850  141.2890 C   0  0  2  0  0  3  0  0  0  0  0  0
  183.4750  177.9620  137.6000 F   0  0  0  0  0  0  0  0  0  0  0  0
  184.7140  179.1380  143.8670 C   0  0  0  0  0  2  0  0  0  0  0  0
  184.7770  178.0280  141.0340 N   0  0  2  0  0  0  0  0  0  0  0  0
  182.2780  177.5530  139.6300 C   0  0  0  0  0  0  0  0  0  0  0  0
  181.4340  176.5780  138.8730 C   0  0  0  0  0  2  0  0  0  0  0  0
  178.9340  176.7190  137.7980 O   0  0  0  0  0  1  0  0  0  0  0  0
  180.8800  177.4540  136.2110 O   0  0  0  0  0  0  0  0  0  0  0  0
  180.2610  177.4430  137.7860 P   0  0  0  0  0  0  0  0  0  0  0  0
  180.0460  179.0330  138.3230 O   0  0  0  0  0  1  0  0  0  0  0  0
  193.4060  173.7720  138.4660 O   0  0  0  0  0  0  0  0  0  0  0  0
  194.1130  174.7580  138.5950 C   0  0  0  0  0  0  0  0  0  0  0  0
  195.5240  174.5950  139.0440 C   0  0  0  0  0  2  0  0  0  0  0  0
  197.5580  174.5780  137.5510 C   0  0  0  0  0  0  0  0  0  0  0  0
  196.3130  174.0150  137.9670 N   0  0  0  0  0  2  0  0  0  0  0  0
  198.0010  175.6270  138.0970 O   0  0  0  0  0  0  0  0  0  0  0  0
  198.3210  173.9660  136.4250 C   0  0  0  0  0  3  0  0  0  0  0  0
  198.3040  174.8750  135.2100 C   0  0  0  0  0  1  0  0  0  0  0  0
  197.7490  172.6070  136.0630 C   0  0  0  0  0  1  0  0  0  0  0  0
  1 22  1  0  0  0  0
  2 16  1  0  0  0  0
  5  4  1  0  0  0  0
  6  7  1  6  0  0  0
  6 11  1  0  0  0  0
  6 17  1  0  0  0  0
  7  9  1  0  0  0  0
  8  3  1  6  0  0  0
  9  5  1  0  0  0  0
 10 22  1  0  0  0  0
 10 20  1  0  0  0  0
 11  4  1  1  0  0  0
 11 23  1  0  0  0  0
 12 27  2  0  0  0  0
 13  1  1  0  0  0  0
 14 27  1  0  0  0  0
 15 24  1  0  0  0  0
 15 48  1  6  0  0  0
 17 15  1  0  0  0  0
 18  2  1  0  0  0  0
 19 18  1  0  0  0  0
 19  8  1  0  0  0  0
 21 16  1  6  0  0  0
 21 25  1  0  0  0  0
 22 14  2  0  0  0  0
 23  8  1  0  0  0  0
 23 24  1  0  0  0  0
 24 13  1  0  0  0  0
 25 26  1  0  0  0  0
 25 20  1  0  0  0  0
 26 12  1  0  0  0  0
 28 36  1  0  0  0  0
 28 41  1  0  0  0  0
 29 33  1  0  0  0  0
 30 29  2  0  0  0  0
 32 21  1  0  0  0  0
 32 40  1  0  0  0  0
 32 37  1  0  0  0  0
 33 34  1  0  0  0  0
 34 39  1  0  0  0  0
 35 31  2  0  0  0  0
 35 39  1  0  0  0  0
 36 32  1  0  0  0  0
 36 40  1  0  0  0  0
 37 35  1  0  0  0  0
 38 28  1  0  0  0  0
 40 37  1  0  0  0  0
 41 30  2  0  0  0  0
 42 41  1  0  0  0  0
 44 45  2  0  0  0  0
 45 43  1  0  0  0  0
 45 46  1  0  0  0  0
 45 42  1  0  0  0  0
 47 48  2  0  0  0  0
 48 49  1  0  0  0  0
 50 51  1  0  0  0  0
 50 52  2  0  0  0  0
 51 49  1  0  0  0  0
 53 50  1  0  0  0  0
 54 53  1  0  0  0  0
 55 53  1  0  0  0  0
M  END
>  <MODEL>
4

>  <REMARK>
 VINA RESULT:      -2.3      2.795      6.182
  Name = 
  7 active torsions:
  status: ('A' for Active; 'I' for Inactive)
    1  A    between atoms: C_8  and  C_43
    2  A    between atoms: C_10  and  C_32
    3  A    between atoms: P_29  and  C_38
    4  A    between atoms: C_33  and  C_52
    5  A    between atoms: C_34  and  N_39
    6  A    between atoms: C_34  and  C_52
    7  A    between atoms: C_38  and  C_53
                            x       y       z     vdW  Elec       q    Type
                         _______ _______ _______ _____ _____    ______ ____

>  <TORSDO>
F 7

$$$$
=
 OpenBabel10262420213D

 55 61  0  0  1  0  0  0  0  0999 V2000
  185.7420  177.1110  135.9460 C   0  0  0  0  0  2  0  0  0  0  0  0
  185.6360  179.2500  140.9700 O   0  0  0  0  0  0  0  0  0  0  0  0
  183.6140  176.2670  139.6060 C   0  0  0  0  0  1  0  0  0  0  0  0
  180.9790  176.4630  138.1400 C   0  0  0  0  0  2  0  0  0  0  0  0
  179.4670  176.2980  138.0800 C   0  0  0  0  0  2  0  0  0  0  0  0
  180.7240  178.7100  136.9670 C   0  0  1  0  0  3  0  0  0  0  0  0
  179.2250  178.4310  136.8240 C   0  0  0  0  0  2  0  0  0  0  0  0
  183.7070  177.7420  139.2410 C   0  0  2  0  0  3  0  0  0  0  0  0
  178.9330  176.9310  136.8070 C   0  0  0  0  0  2  0  0  0  0  0  0
  187.3050  178.1840  137.5780 O   0  0  0  0  0  0  0  0  0  0  0  0
  181.3910  177.9410  138.1130 C   0  0  2  0  0  3  0  0  0  0  0  0
  189.4110  175.7380  138.4720 C   0  0  0  0  0  3  0  0  0  0  0  0
  184.7400  178.1310  136.4850 C   0  0  0  0  0  2  0  0  0  0  0  0
  187.8070  176.0220  136.5400 C   0  0  0  0  0  3  0  0  0  0  0  0
  182.6320  177.6360  135.5630 C   0  0  1  0  0  3  0  0  0  0  0  0
  186.4670  178.2100  140.5330 C   0  0  0  0  0  2  0  0  0  0  0  0
  181.4630  178.6430  135.6270 C   0  0  0  0  0  2  0  0  0  0  0  0
  184.4910  178.6100  141.4610 C   0  0  0  0  0  2  0  0  0  0  0  0
  183.3690  178.6380  140.4230 C   0  0  0  0  0  2  0  0  0  0  0  0
  188.5890  178.5020  138.1060 C   0  0  0  0  0  2  0  0  0  0  0  0
  187.9280  178.6450  140.5490 C   0  0  2  0  0  3  0  0  0  0  0  0
  187.0100  177.0870  136.7450 C   0  0  0  0  0  0  0  0  0  0  0  0
  182.9090  178.1210  137.9830 C   0  0  2  0  0  3  0  0  0  0  0  0
  183.4650  177.4790  136.7750 N   0  0  2  0  0  0  0  0  0  0  0  0
  188.7720  177.8970  139.4940 C   0  0  1  0  0  3  0  0  0  0  0  0
  188.5400  176.3880  139.4910 C   0  0  0  0  0  2  0  0  0  0  0  0
  189.0700  175.5980  137.1900 C   0  0  0  0  0  3  0  0  0  0  0  0
  187.9650  178.3670  144.4150 C   0  0  1  0  0  3  0  0  0  0  0  0
  191.0000  176.4700  144.8150 C   0  0  0  0  0  3  0  0  0  0  0  0
  189.7790  176.8630  145.0800 C   0  0  0  0  0  0  0  0  0  0  0  0
  190.8710  178.6160  140.0540 O   0  0  0  0  0  0  0  0  0  0  0  0
  188.4760  178.6650  141.9990 C   0  0  2  0  0  0  0  0  0  0  0  0
  191.2900  175.7640  143.5300 C   0  0  0  0  0  2  0  0  0  0  0  0
  192.2300  176.5910  142.6570 C   0  0  0  0  0  2  0  0  0  0  0  0
  190.8120  177.9610  141.0850 C   0  0  0  0  0  0  0  0  0  0  0  0
  187.6910  177.8930  142.9770 C   0  0  1  0  0  3  0  0  0  0  0  0
  189.9120  178.3860  142.2080 C   0  0  2  0  0  3  0  0  0  0  0  0
  186.7930  178.8660  144.9620 F   0  0  0  0  0  0  0  0  0  0  0  0
  191.6680  176.7300  141.2390 C   0  0  0  0  0  2  0  0  0  0  0  0
  188.9160  177.3080  142.4020 N   0  0  2  0  0  0  0  0  0  0  0  0
  188.5460  177.2710  145.2820 C   0  0  0  0  0  0  0  0  0  0  0  0
  187.7650  176.7270  146.4370 C   0  0  0  0  0  2  0  0  0  0  0  0
  187.6860  178.9990  147.9400 O   0  0  0  0  0  0  0  0  0  0  0  0
  189.8950  177.6080  148.1250 O   0  0  0  0  0  1  0  0  0  0  0  0
  188.2090  177.5810  147.9790 P   0  0  0  0  0  0  0  0  0  0  0  0
  187.5380  176.7640  149.3020 O   0  0  0  0  0  1  0  0  0  0  0  0
  181.0740  176.0420  134.7440 O   0  0  0  0  0  0  0  0  0  0  0  0
  182.2430  176.3170  134.9590 C   0  0  0  0  0  0  0  0  0  0  0  0
  183.3060  175.3390  134.5950 C   0  0  0  0  0  2  0  0  0  0  0  0
  184.4970  173.3850  135.6580 C   0  0  0  0  0  0  0  0  0  0  0  0
  183.4610  174.3680  135.6680 N   0  0  0  0  0  2  0  0  0  0  0  0
  185.3020  173.3120  134.6870 O   0  0  0  0  0  0  0  0  0  0  0  0
  184.6030  172.3920  136.7660 C   0  0  0  0  0  3  0  0  0  0  0  0
  183.2280  171.8930  137.1710 C   0  0  0  0  0  1  0  0  0  0  0  0
  185.3070  172.9980  137.9660 C   0  0  0  0  0  1  0  0  0  0  0  0
  1 13  1  0  0  0  0
  1 22  1  0  0  0  0
  2 18  1  0  0  0  0
  5  4  1  0  0  0  0
  6 17  1  6  0  0  0
  6 11  1  0  0  0  0
  7  6  1  0  0  0  0
  8  3  1  1  0  0  0
  8 19  1  0  0  0  0
  9  7  1  0  0  0  0
  9  5  1  0  0  0  0
 10 20  1  0  0  0  0
 11  4  1  6  0  0  0
 12 26  1  0  0  0  0
 13 24  1  0  0  0  0
 14 22  2  0  0  0  0
 14 27  1  0  0  0  0
 15 48  1  1  0  0  0
 15 17  1  0  0  0  0
 15 24  1  0  0  0  0
 16  2  1  0  0  0  0
 19 18  1  0  0  0  0
 20 25  1  0  0  0  0
 21 16  1  1  0  0  0
 21 32  1  0  0  0  0
 22 10  1  0  0  0  0
 23 11  1  0  0  0  0
 23  8  1  0  0  0  0
 24 23  1  0  0  0  0
 25 21  1  0  0  0  0
 26 25  1  0  0  0  0
 27 12  2  0  0  0  0
 28 38  1  0  0  0  0
 28 41  1  0  0  0  0
 29 30  2  0  0  0  0
 30 41  2  0  0  0  0
 31 35  2  0  0  0  0
 32 37  1  0  0  0  0
 32 40  1  0  0  0  0
 32 36  1  0  0  0  0
 33 29  1  0  0  0  0
 34 33  1  0  0  0  0
 35 39  1  0  0  0  0
 35 37  1  0  0  0  0
 36 28  1  0  0  0  0
 37 40  1  0  0  0  0
 39 34  1  0  0  0  0
 40 36  1  0  0  0  0
 41 42  1  0  0  0  0
 42 45  1  0  0  0  0
 43 45  2  0  0  0  0
 45 44  1  0  0  0  0
 45 46  1  0  0  0  0
 47 48  2  0  0  0  0
 49 48  1  0  0  0  0
 49 51  1  0  0  0  0
 50 51  1  0  0  0  0
 50 53  1  0  0  0  0
 52 50  2  0  0  0  0
 53 54  1  0  0  0  0
 53 55  1  0  0  0  0
M  END
>  <MODEL>
5

>  <REMARK>
 VINA RESULT:      -1.8      3.673      9.879
  Name = 
  7 active torsions:
  status: ('A' for Active; 'I' for Inactive)
    1  A    between atoms: C_8  and  C_43
    2  A    between atoms: C_10  and  C_32
    3  A    between atoms: P_29  and  C_38
    4  A    between atoms: C_33  and  C_52
    5  A    between atoms: C_34  and  N_39
    6  A    between atoms: C_34  and  C_52
    7  A    between atoms: C_38  and  C_53
                            x       y       z     vdW  Elec       q    Type
                         _______ _______ _______ _____ _____    ______ ____

>  <TORSDO>
F 7

$$$$
