=
 OpenBabel10262420003D

 27 31  0  0  1  0  0  0  0  0999 V2000
  188.4820  177.8700  137.1720 C   0  0  2  0  0  0  0  0  0  0  0  0
  186.7820  177.8570  139.0900 C   0  0  2  0  0  3  0  0  0  0  0  0
  189.2500  177.5720  139.5340 O   0  0  0  0  0  0  0  0  0  0  0  0
  185.9880  178.4050  143.0310 C   0  0  0  0  0  3  0  0  0  0  0  0
  186.4690  177.8100  145.3960 C   0  0  0  0  0  1  0  0  0  0  0  0
  185.6400  178.6780  139.4950 N   0  0  0  0  0  0  0  0  0  0  0  0
  188.3290  177.0770  142.1470 C   0  0  0  0  0  2  0  0  0  0  0  0
  190.7010  175.0190  137.9990 C   0  0  0  0  0  1  0  0  0  0  0  0
  188.2170  177.3530  143.6500 C   0  0  0  0  0  2  0  0  0  0  0  0
  191.0000  176.8960  136.3770 C   0  0  0  0  0  2  0  0  0  0  0  0
  188.0530  178.2670  139.8710 C   0  0  2  0  0  3  0  0  0  0  0  0
  186.9860  177.9510  137.5690 C   0  0  2  0  0  3  0  0  0  0  0  0
  186.8810  177.8470  144.0060 N   0  0  0  0  0  0  0  0  0  0  0  0
  186.3870  178.5820  141.7710 C   0  0  0  0  0  0  0  0  0  0  0  0
  189.0480  179.2880  137.1460 C   0  0  0  0  0  1  0  0  0  0  0  0
  187.8230  178.3030  141.3940 C   0  0  1  0  0  3  0  0  0  0  0  0
  190.6180  176.5210  137.8170 C   0  0  1  0  0  3  0  0  0  0  0  0
  185.4210  178.9800  140.7390 C   0  0  0  0  0  3  0  0  0  0  0  0
  189.8660  176.7980  135.4800 N   0  0  0  0  0  0  0  0  0  0  0  0
  188.7070  177.2580  135.8100 C   0  0  0  0  0  3  0  0  0  0  0  0
  189.2180  177.0100  138.2310 C   0  0  2  0  0  3  0  0  0  0  0  0
  184.4220  175.1770  135.5780 N   0  0  0  0  0  0  0  0  0  0  0  0
  186.0860  176.9620  136.8780 C   0  0  0  0  0  0  0  0  0  0  0  0
  186.1370  175.5960  137.1860 C   0  0  0  0  0  3  0  0  0  0  0  0
  185.2880  174.7110  136.5180 C   0  0  0  0  0  3  0  0  0  0  0  0
  184.3570  176.4990  135.2630 C   0  0  0  0  0  3  0  0  0  0  0  0
  185.1890  177.4150  135.9080 C   0  0  0  0  0  3  0  0  0  0  0  0
  1 15  1  1  0  0  0
  1 12  1  0  0  0  0
  1 21  1  0  0  0  0
  2  6  1  1  0  0  0
  2 11  1  0  0  0  0
  4 13  1  0  0  0  0
  6 18  2  0  0  0  0
  7  9  1  0  0  0  0
  9 13  1  0  0  0  0
 10 17  1  0  0  0  0
 11  3  1  1  0  0  0
 11 16  1  0  0  0  0
 12 23  1  6  0  0  0
 12  2  1  0  0  0  0
 13  5  1  0  0  0  0
 14  4  2  0  0  0  0
 16 14  1  0  0  0  0
 16  7  1  6  0  0  0
 17  8  1  6  0  0  0
 17 21  1  0  0  0  0
 18 14  1  0  0  0  0
 19 20  2  0  0  0  0
 19 10  1  0  0  0  0
 20  1  1  0  0  0  0
 21  3  1  1  0  0  0
 22 25  1  0  0  0  0
 23 24  1  0  0  0  0
 25 24  2  0  0  0  0
 26 22  2  0  0  0  0
 26 27  1  0  0  0  0
 27 23  2  0  0  0  0
M  END
>  <MODEL>
1

>  <REMARK>
 VINA RESULT:      -6.7      0.000      0.000
  Name = 
  1 active torsions:
  status: ('A' for Active; 'I' for Inactive)
    1  A    between atoms: C_9  and  C_15
                            x       y       z     vdW  Elec       q    Type
                         _______ _______ _______ _____ _____    ______ ____

>  <TORSDO>
F 1

$$$$
=
 OpenBabel10262420003D

 27 31  0  0  1  0  0  0  0  0999 V2000
  188.6720  177.9190  138.4200 C   0  0  2  0  0  0  0  0  0  0  0  0
  190.8850  176.8110  139.0850 C   0  0  2  0  0  3  0  0  0  0  0  0
  189.7270  176.2150  136.9230 O   0  0  0  0  0  0  0  0  0  0  0  0
  194.2760  174.8810  137.9690 C   0  0  0  0  0  3  0  0  0  0  0  0
  195.3390  172.9520  136.8180 C   0  0  0  0  0  1  0  0  0  0  0  0
  192.1810  177.2620  139.5960 N   0  0  0  0  0  0  0  0  0  0  0  0
  191.7600  174.2710  136.8190 C   0  0  0  0  0  2  0  0  0  0  0  0
  186.6340  175.0650  137.2190 C   0  0  0  0  0  1  0  0  0  0  0  0
  192.9840  173.5800  136.2090 C   0  0  0  0  0  2  0  0  0  0  0  0
  186.2980  177.5270  136.9600 C   0  0  0  0  0  2  0  0  0  0  0  0
  190.9430  176.6100  137.5510 C   0  0  2  0  0  3  0  0  0  0  0  0
  189.7840  177.8020  139.4940 C   0  0  2  0  0  3  0  0  0  0  0  0
  194.1870  173.8090  137.0180 N   0  0  0  0  0  0  0  0  0  0  0  0
  193.2890  175.7710  138.0790 C   0  0  0  0  0  0  0  0  0  0  0  0
  189.0560  179.0360  137.4530 C   0  0  0  0  0  1  0  0  0  0  0  0
  192.1250  175.7220  137.1180 C   0  0  1  0  0  3  0  0  0  0  0  0
  187.3000  176.3700  136.8320 C   0  0  1  0  0  3  0  0  0  0  0  0
  193.2980  176.7530  139.1710 C   0  0  0  0  0  3  0  0  0  0  0  0
  186.2430  178.0420  138.3140 N   0  0  0  0  0  0  0  0  0  0  0  0
  187.3160  178.2520  138.9960 C   0  0  0  0  0  3  0  0  0  0  0  0
  188.5750  176.5630  137.6740 C   0  0  2  0  0  3  0  0  0  0  0  0
  188.4510  176.8410  143.4350 N   0  0  0  0  0  0  0  0  0  0  0  0
  189.3010  177.4730  140.8820 C   0  0  0  0  0  0  0  0  0  0  0  0
  188.3190  178.2490  141.5110 C   0  0  0  0  0  3  0  0  0  0  0  0
  187.9030  177.9120  142.8010 C   0  0  0  0  0  3  0  0  0  0  0  0
  189.4060  176.0750  142.8430 C   0  0  0  0  0  3  0  0  0  0  0  0
  189.8490  176.3780  141.5540 C   0  0  0  0  0  3  0  0  0  0  0  0
  1 15  1  6  0  0  0
  1 20  1  0  0  0  0
  1 12  1  0  0  0  0
  2 12  1  0  0  0  0
  2  6  1  6  0  0  0
  4 14  2  0  0  0  0
  5 13  1  0  0  0  0
  9  7  1  0  0  0  0
  9 13  1  0  0  0  0
 10 19  1  0  0  0  0
 11  3  1  1  0  0  0
 11  2  1  0  0  0  0
 12 23  1  1  0  0  0
 13  4  1  0  0  0  0
 14 18  1  0  0  0  0
 16  7  1  1  0  0  0
 16 11  1  0  0  0  0
 16 14  1  0  0  0  0
 17 10  1  0  0  0  0
 17  8  1  1  0  0  0
 17 21  1  0  0  0  0
 18  6  2  0  0  0  0
 19 20  2  0  0  0  0
 21  3  1  6  0  0  0
 21  1  1  0  0  0  0
 23 24  2  0  0  0  0
 23 27  1  0  0  0  0
 24 25  1  0  0  0  0
 25 22  2  0  0  0  0
 26 22  1  0  0  0  0
 27 26  2  0  0  0  0
M  END
>  <MODEL>
2

>  <REMARK>
 VINA RESULT:      -6.1      2.436      6.793
  Name = 
  1 active torsions:
  status: ('A' for Active; 'I' for Inactive)
    1  A    between atoms: C_9  and  C_15
                            x       y       z     vdW  Elec       q    Type
                         _______ _______ _______ _____ _____    ______ ____

>  <TORSDO>
F 1

$$$$
=
 OpenBabel10262420003D

 27 31  0  0  1  0  0  0  0  0999 V2000
  187.3070  177.8330  137.0110 C   0  0  2  0  0  0  0  0  0  0  0  0
  184.8710  177.2440  137.5460 C   0  0  2  0  0  3  0  0  0  0  0  0
  186.2710  178.5860  139.1600 O   0  0  0  0  0  0  0  0  0  0  0  0
  181.4620  178.0780  139.5840 C   0  0  0  0  0  3  0  0  0  0  0  0
  180.3270  178.4300  141.7660 C   0  0  0  0  0  1  0  0  0  0  0  0
  183.5920  177.2920  136.8360 N   0  0  0  0  0  0  0  0  0  0  0  0
  184.0140  178.2410  140.8050 C   0  0  0  0  0  2  0  0  0  0  0  0
  189.0600  177.1280  140.2000 C   0  0  0  0  0  1  0  0  0  0  0  0
  182.8190  178.7230  141.6340 C   0  0  0  0  0  2  0  0  0  0  0  0
  189.8050  178.3950  138.1790 C   0  0  0  0  0  2  0  0  0  0  0  0
  185.0420  178.4890  138.4480 C   0  0  2  0  0  3  0  0  0  0  0  0
  186.0250  177.0970  136.5420 C   0  0  2  0  0  3  0  0  0  0  0  0
  181.5460  178.3930  140.9820 N   0  0  0  0  0  0  0  0  0  0  0  0
  182.5410  178.1690  138.8040 C   0  0  0  0  0  0  0  0  0  0  0  0
  187.2660  179.2590  136.4690 C   0  0  0  0  0  1  0  0  0  0  0  0
  183.8280  178.7210  139.3690 C   0  0  1  0  0  3  0  0  0  0  0  0
  188.6740  178.2000  139.2010 C   0  0  1  0  0  3  0  0  0  0  0  0
  182.4970  177.6730  137.4230 C   0  0  0  0  0  3  0  0  0  0  0  0
  189.7090  177.4460  137.0870 N   0  0  0  0  0  0  0  0  0  0  0  0
  188.5810  177.1890  136.5190 C   0  0  0  0  0  3  0  0  0  0  0  0
  187.3210  177.8410  138.5610 C   0  0  2  0  0  3  0  0  0  0  0  0
  186.5410  172.9620  135.6080 N   0  0  0  0  0  0  0  0  0  0  0  0
  186.2120  175.6440  136.1970 C   0  0  0  0  0  0  0  0  0  0  0  0
  186.4080  175.2310  134.8730 C   0  0  0  0  0  3  0  0  0  0  0  0
  186.5720  173.8720  134.5970 C   0  0  0  0  0  3  0  0  0  0  0  0
  186.3510  173.3410  136.9010 C   0  0  0  0  0  3  0  0  0  0  0  0
  186.1830  174.6900  137.2190 C   0  0  0  0  0  3  0  0  0  0  0  0
  1 15  1  6  0  0  0
  1 21  1  0  0  0  0
  2  6  1  6  0  0  0
  2 11  1  0  0  0  0
  4 13  1  0  0  0  0
  6 18  2  0  0  0  0
  7  9  1  0  0  0  0
 10 17  1  0  0  0  0
 11  3  1  1  0  0  0
 11 16  1  0  0  0  0
 12 23  1  1  0  0  0
 12  1  1  0  0  0  0
 12  2  1  0  0  0  0
 13  9  1  0  0  0  0
 13  5  1  0  0  0  0
 14 16  1  0  0  0  0
 14  4  2  0  0  0  0
 16  7  1  1  0  0  0
 17  8  1  1  0  0  0
 18 14  1  0  0  0  0
 19 10  1  0  0  0  0
 20  1  1  0  0  0  0
 20 19  2  0  0  0  0
 21  3  1  6  0  0  0
 21 17  1  0  0  0  0
 22 26  1  0  0  0  0
 23 27  1  0  0  0  0
 24 23  2  0  0  0  0
 25 24  1  0  0  0  0
 25 22  2  0  0  0  0
 26 27  2  0  0  0  0
M  END
>  <MODEL>
3

>  <REMARK>
 VINA RESULT:      -5.6      2.549      3.740
  Name = 
  1 active torsions:
  status: ('A' for Active; 'I' for Inactive)
    1  A    between atoms: C_9  and  C_15
                            x       y       z     vdW  Elec       q    Type
                         _______ _______ _______ _____ _____    ______ ____

>  <TORSDO>
F 1

$$$$
=
 OpenBabel10262420003D

 27 31  0  0  1  0  0  0  0  0999 V2000
  187.1390  177.7950  136.9410 C   0  0  2  0  0  0  0  0  0  0  0  0
  184.8030  177.4530  137.9380 C   0  0  2  0  0  3  0  0  0  0  0  0
  186.6410  178.5550  139.2710 O   0  0  0  0  0  0  0  0  0  0  0  0
  181.9830  178.5600  140.6380 C   0  0  0  0  0  3  0  0  0  0  0  0
  181.3480  178.9320  143.0120 C   0  0  0  0  0  1  0  0  0  0  0  0
  183.4240  177.6760  137.5010 N   0  0  0  0  0  0  0  0  0  0  0  0
  184.7260  178.3840  141.3260 C   0  0  0  0  0  2  0  0  0  0  0  0
  189.3890  176.7510  139.6950 C   0  0  0  0  0  1  0  0  0  0  0  0
  183.7820  178.9550  142.3900 C   0  0  0  0  0  2  0  0  0  0  0  0
  189.8660  178.0220  137.5970 C   0  0  0  0  0  2  0  0  0  0  0  0
  185.2930  178.6280  138.8180 C   0  0  2  0  0  3  0  0  0  0  0  0
  185.7130  177.2280  136.7200 C   0  0  2  0  0  3  0  0  0  0  0  0
  182.3760  178.7980  141.9980 N   0  0  0  0  0  0  0  0  0  0  0  0
  182.8910  178.5690  139.6610 C   0  0  0  0  0  0  0  0  0  0  0  0
  187.1600  179.2410  136.4520 C   0  0  0  0  0  1  0  0  0  0  0  0
  184.3200  178.9480  139.9690 C   0  0  1  0  0  3  0  0  0  0  0  0
  188.9430  177.9050  138.8200 C   0  0  1  0  0  3  0  0  0  0  0  0
  182.5190  178.1470  138.3050 C   0  0  0  0  0  3  0  0  0  0  0  0
  189.4470  177.1430  136.5240 N   0  0  0  0  0  0  0  0  0  0  0  0
  188.2070  177.0380  136.1870 C   0  0  0  0  0  3  0  0  0  0  0  0
  187.4570  177.7280  138.4560 C   0  0  2  0  0  3  0  0  0  0  0  0
  185.5510  173.1350  135.5110 N   0  0  0  0  0  0  0  0  0  0  0  0
  185.6560  175.7800  136.3100 C   0  0  0  0  0  0  0  0  0  0  0  0
  185.9350  174.7550  137.2240 C   0  0  0  0  0  3  0  0  0  0  0  0
  185.8760  173.4260  136.8000 C   0  0  0  0  0  3  0  0  0  0  0  0
  185.2780  174.1150  134.6080 C   0  0  0  0  0  3  0  0  0  0  0  0
  185.3260  175.4560  134.9910 C   0  0  0  0  0  3  0  0  0  0  0  0
  1 15  1  6  0  0  0
  1 21  1  0  0  0  0
  2  6  1  6  0  0  0
  2 11  1  0  0  0  0
  4 13  1  0  0  0  0
  6 18  2  0  0  0  0
  7  9  1  0  0  0  0
 10 17  1  0  0  0  0
 11  3  1  1  0  0  0
 11 16  1  0  0  0  0
 12 23  1  1  0  0  0
 12  1  1  0  0  0  0
 12  2  1  0  0  0  0
 13  9  1  0  0  0  0
 13  5  1  0  0  0  0
 14 16  1  0  0  0  0
 14  4  2  0  0  0  0
 16  7  1  1  0  0  0
 17  8  1  6  0  0  0
 18 14  1  0  0  0  0
 19 10  1  0  0  0  0
 20 19  2  0  0  0  0
 20  1  1  0  0  0  0
 21 17  1  0  0  0  0
 21  3  1  1  0  0  0
 22 25  1  0  0  0  0
 23 24  1  0  0  0  0
 25 24  2  0  0  0  0
 26 27  1  0  0  0  0
 26 22  2  0  0  0  0
 27 23  2  0  0  0  0
M  END
>  <MODEL>
4

>  <REMARK>
 VINA RESULT:      -5.6      2.253      3.051
  Name = 
  1 active torsions:
  status: ('A' for Active; 'I' for Inactive)
    1  A    between atoms: C_9  and  C_15
                            x       y       z     vdW  Elec       q    Type
                         _______ _______ _______ _____ _____    ______ ____

>  <TORSDO>
F 1

$$$$
=
 OpenBabel10262420003D

 27 31  0  0  1  0  0  0  0  0999 V2000
  181.6420  177.2330  139.0700 C   0  0  2  0  0  0  0  0  0  0  0  0
  181.2140  179.7420  139.3650 C   0  0  2  0  0  3  0  0  0  0  0  0
  181.0840  178.6570  137.0910 O   0  0  0  0  0  0  0  0  0  0  0  0
  179.5130  183.1610  137.9910 C   0  0  0  0  0  3  0  0  0  0  0  0
  179.2650  184.8180  136.1560 C   0  0  0  0  0  1  0  0  0  0  0  0
  180.4290  180.5810  140.2730 N   0  0  0  0  0  0  0  0  0  0  0  0
  180.8060  181.3300  136.2570 C   0  0  0  0  0  2  0  0  0  0  0  0
  183.8310  177.1010  136.0810 C   0  0  0  0  0  1  0  0  0  0  0  0
  180.0750  182.5060  135.6000 C   0  0  0  0  0  2  0  0  0  0  0  0
  182.5550  175.2950  137.2440 C   0  0  0  0  0  2  0  0  0  0  0  0
  180.4450  179.5000  138.0440 C   0  0  2  0  0  3  0  0  0  0  0  0
  181.5930  178.4250  140.0600 C   0  0  2  0  0  3  0  0  0  0  0  0
  179.6340  183.4880  136.5980 N   0  0  0  0  0  0  0  0  0  0  0  0
  179.7110  181.9110  138.4110 C   0  0  0  0  0  0  0  0  0  0  0  0
  180.2580  176.5910  139.0240 C   0  0  0  0  0  1  0  0  0  0  0  0
  179.9460  180.8100  137.4040 C   0  0  1  0  0  3  0  0  0  0  0  0
  182.4840  176.7130  136.6570 C   0  0  1  0  0  3  0  0  0  0  0  0
  179.7680  181.6150  139.8490 C   0  0  0  0  0  3  0  0  0  0  0  0
  183.0520  175.3030  138.6060 N   0  0  0  0  0  0  0  0  0  0  0  0
  182.6330  176.1650  139.4690 C   0  0  0  0  0  3  0  0  0  0  0  0
  182.0350  177.7790  137.6730 C   0  0  2  0  0  3  0  0  0  0  0  0
  185.1070  178.9870  142.4220 N   0  0  0  0  0  0  0  0  0  0  0  0
  182.8400  178.6280  140.8790 C   0  0  0  0  0  0  0  0  0  0  0  0
  184.0850  178.8260  140.2690 C   0  0  0  0  0  3  0  0  0  0  0  0
  185.2180  179.0050  141.0660 C   0  0  0  0  0  3  0  0  0  0  0  0
  183.9070  178.7960  143.0350 C   0  0  0  0  0  3  0  0  0  0  0  0
  182.7520  178.6120  142.2740 C   0  0  0  0  0  3  0  0  0  0  0  0
  1 15  1  6  0  0  0
  1 20  1  0  0  0  0
  1 12  1  0  0  0  0
  2 12  1  0  0  0  0
  2  6  1  1  0  0  0
  4 14  2  0  0  0  0
  5 13  1  0  0  0  0
  9  7  1  0  0  0  0
  9 13  1  0  0  0  0
 10 19  1  0  0  0  0
 11  3  1  6  0  0  0
 11  2  1  0  0  0  0
 12 23  1  6  0  0  0
 13  4  1  0  0  0  0
 14 18  1  0  0  0  0
 16  7  1  6  0  0  0
 16 11  1  0  0  0  0
 16 14  1  0  0  0  0
 17  8  1  1  0  0  0
 17 10  1  0  0  0  0
 17 21  1  0  0  0  0
 18  6  2  0  0  0  0
 19 20  2  0  0  0  0
 21  3  1  6  0  0  0
 21  1  1  0  0  0  0
 22 26  1  0  0  0  0
 23 27  1  0  0  0  0
 24 23  2  0  0  0  0
 24 25  1  0  0  0  0
 25 22  2  0  0  0  0
 27 26  2  0  0  0  0
M  END
>  <MODEL>
5

>  <REMARK>
 VINA RESULT:      -5.5      5.241      8.341
  Name = 
  1 active torsions:
  status: ('A' for Active; 'I' for Inactive)
    1  A    between atoms: C_9  and  C_15
                            x       y       z     vdW  Elec       q    Type
                         _______ _______ _______ _____ _____    ______ ____

>  <TORSDO>
F 1

$$$$
=
 OpenBabel10262420003D

 27 31  0  0  1  0  0  0  0  0999 V2000
  183.0210  178.6250  138.9210 C   0  0  2  0  0  0  0  0  0  0  0  0
  183.1430  178.2530  141.4540 C   0  0  2  0  0  3  0  0  0  0  0  0
  185.2380  178.3920  140.0550 O   0  0  0  0  0  0  0  0  0  0  0  0
  185.2560  178.5280  144.9070 C   0  0  0  0  0  3  0  0  0  0  0  0
  187.3020  177.9520  146.1950 C   0  0  0  0  0  1  0  0  0  0  0  0
  182.5240  178.8470  142.6400 N   0  0  0  0  0  0  0  0  0  0  0  0
  186.4490  177.6610  142.4880 C   0  0  0  0  0  2  0  0  0  0  0  0
  185.4750  176.1840  137.5960 C   0  0  0  0  0  1  0  0  0  0  0  0
  187.3830  177.8650  143.6850 C   0  0  0  0  0  2  0  0  0  0  0  0
  184.3650  178.1340  136.4980 C   0  0  0  0  0  2  0  0  0  0  0  0
  184.5470  178.8550  141.2110 C   0  0  2  0  0  3  0  0  0  0  0  0
  182.2220  178.4290  140.2360 C   0  0  2  0  0  3  0  0  0  0  0  0
  186.6270  178.1050  144.9200 N   0  0  0  0  0  0  0  0  0  0  0  0
  184.6470  178.8120  143.7550 C   0  0  0  0  0  0  0  0  0  0  0  0
  183.2570  180.1200  138.7230 C   0  0  0  0  0  1  0  0  0  0  0  0
  185.4370  178.8020  142.4680 C   0  0  1  0  0  3  0  0  0  0  0  0
  185.1320  177.6530  137.7380 C   0  0  1  0  0  3  0  0  0  0  0  0
  183.2010  179.0660  143.7270 C   0  0  0  0  0  3  0  0  0  0  0  0
  182.9440  177.8670  136.6090 N   0  0  0  0  0  0  0  0  0  0  0  0
  182.3000  178.1050  137.7000 C   0  0  0  0  0  3  0  0  0  0  0  0
  184.3710  177.8750  139.0580 C   0  0  2  0  0  3  0  0  0  0  0  0
  179.3050  175.3110  140.1580 N   0  0  0  0  0  0  0  0  0  0  0  0
  181.2060  177.3190  140.2070 C   0  0  0  0  0  0  0  0  0  0  0  0
  181.5680  176.0120  139.8540 C   0  0  0  0  0  3  0  0  0  0  0  0
  180.5920  175.0130  139.8350 C   0  0  0  0  0  3  0  0  0  0  0  0
  178.9320  176.5740  140.5030 C   0  0  0  0  0  3  0  0  0  0  0  0
  179.8770  177.6010  140.5340 C   0  0  0  0  0  3  0  0  0  0  0  0
  1 15  1  6  0  0  0
  1 21  1  0  0  0  0
  1 12  1  0  0  0  0
  2  6  1  1  0  0  0
  4 13  1  0  0  0  0
  6 18  2  0  0  0  0
  7  9  1  0  0  0  0
  9 13  1  0  0  0  0
 10 19  1  0  0  0  0
 10 17  1  0  0  0  0
 11  3  1  6  0  0  0
 11  2  1  0  0  0  0
 11 16  1  0  0  0  0
 12 23  1  6  0  0  0
 12  2  1  0  0  0  0
 13  5  1  0  0  0  0
 14  4  2  0  0  0  0
 16  7  1  6  0  0  0
 16 14  1  0  0  0  0
 17  8  1  6  0  0  0
 17 21  1  0  0  0  0
 18 14  1  0  0  0  0
 19 20  2  0  0  0  0
 20  1  1  0  0  0  0
 21  3  1  1  0  0  0
 22 26  1  0  0  0  0
 23 27  1  0  0  0  0
 24 23  2  0  0  0  0
 25 24  1  0  0  0  0
 25 22  2  0  0  0  0
 26 27  2  0  0  0  0
M  END
>  <MODEL>
6

>  <REMARK>
 VINA RESULT:      -5.5      3.501      5.041
  Name = 
  1 active torsions:
  status: ('A' for Active; 'I' for Inactive)
    1  A    between atoms: C_9  and  C_15
                            x       y       z     vdW  Elec       q    Type
                         _______ _______ _______ _____ _____    ______ ____

>  <TORSDO>
F 1

$$$$
=
 OpenBabel10262420003D

 27 31  0  0  1  0  0  0  0  0999 V2000
  184.2500  178.9090  140.0560 C   0  0  2  0  0  0  0  0  0  0  0  0
  186.7110  178.2360  139.8130 C   0  0  2  0  0  3  0  0  0  0  0  0
  184.9730  177.4330  138.1700 O   0  0  0  0  0  0  0  0  0  0  0  0
  189.7500  176.9760  137.4370 C   0  0  0  0  0  3  0  0  0  0  0  0
  190.6440  175.2800  135.8560 C   0  0  0  0  0  1  0  0  0  0  0  0
  188.0040  178.9220  139.8590 N   0  0  0  0  0  0  0  0  0  0  0  0
  187.1360  175.9050  137.2190 C   0  0  0  0  0  2  0  0  0  0  0  0
  182.4490  175.7230  139.4690 C   0  0  0  0  0  1  0  0  0  0  0  0
  188.1570  175.4550  136.1680 C   0  0  0  0  0  2  0  0  0  0  0  0
  181.6170  178.0780  139.5130 C   0  0  0  0  0  2  0  0  0  0  0  0
  186.2440  178.0490  138.3500 C   0  0  2  0  0  3  0  0  0  0  0  0
  185.6780  179.0030  140.6540 C   0  0  2  0  0  3  0  0  0  0  0  0
  189.5110  175.9060  136.5100 N   0  0  0  0  0  0  0  0  0  0  0  0
  188.7300  177.6650  137.9510 C   0  0  0  0  0  0  0  0  0  0  0  0
  184.0560  180.0770  139.0930 C   0  0  0  0  0  1  0  0  0  0  0  0
  187.3250  177.3980  137.4650 C   0  0  1  0  0  3  0  0  0  0  0  0
  182.6900  177.1300  138.9590 C   0  0  1  0  0  3  0  0  0  0  0  0
  188.9620  178.6320  139.0320 C   0  0  0  0  0  3  0  0  0  0  0  0
  181.9660  178.5740  140.8290 N   0  0  0  0  0  0  0  0  0  0  0  0
  183.1590  178.9820  141.0980 C   0  0  0  0  0  3  0  0  0  0  0  0
  184.1290  177.5580  139.3040 C   0  0  2  0  0  3  0  0  0  0  0  0
  186.0540  177.8140  144.7380 N   0  0  0  0  0  0  0  0  0  0  0  0
  185.7960  178.5900  142.0970 C   0  0  0  0  0  0  0  0  0  0  0  0
  184.9320  179.1060  143.0720 C   0  0  0  0  0  3  0  0  0  0  0  0
  185.0790  178.7000  144.4000 C   0  0  0  0  0  3  0  0  0  0  0  0
  186.9040  177.3010  143.8070 C   0  0  0  0  0  3  0  0  0  0  0  0
  186.7900  177.6810  142.4690 C   0  0  0  0  0  3  0  0  0  0  0  0
  1 15  1  6  0  0  0
  1 12  1  0  0  0  0
  1 20  1  0  0  0  0
  2  6  1  6  0  0  0
  2 12  1  0  0  0  0
  4 14  2  0  0  0  0
  5 13  1  0  0  0  0
  9 13  1  0  0  0  0
  9  7  1  0  0  0  0
 10 19  1  0  0  0  0
 11  3  1  1  0  0  0
 11  2  1  0  0  0  0
 12 23  1  1  0  0  0
 13  4  1  0  0  0  0
 14 18  1  0  0  0  0
 16  7  1  1  0  0  0
 16 14  1  0  0  0  0
 16 11  1  0  0  0  0
 17 21  1  0  0  0  0
 17  8  1  1  0  0  0
 17 10  1  0  0  0  0
 18  6  2  0  0  0  0
 19 20  2  0  0  0  0
 21  3  1  6  0  0  0
 21  1  1  0  0  0  0
 23 27  2  0  0  0  0
 23 24  1  0  0  0  0
 24 25  2  0  0  0  0
 25 22  1  0  0  0  0
 26 22  2  0  0  0  0
 27 26  1  0  0  0  0
M  END
>  <MODEL>
7

>  <REMARK>
 VINA RESULT:      -5.4      2.218      6.841
  Name = 
  1 active torsions:
  status: ('A' for Active; 'I' for Inactive)
    1  A    between atoms: C_9  and  C_15
                            x       y       z     vdW  Elec       q    Type
                         _______ _______ _______ _____ _____    ______ ____

>  <TORSDO>
F 1

$$$$
=
 OpenBabel10262420003D

 27 31  0  0  1  0  0  0  0  0999 V2000
  188.3510  177.3590  137.3860 C   0  0  2  0  0  0  0  0  0  0  0  0
  185.8310  176.9220  137.2240 C   0  0  2  0  0  3  0  0  0  0  0  0
  186.7980  178.2880  139.1120 O   0  0  0  0  0  0  0  0  0  0  0  0
  182.0450  178.0420  138.1590 C   0  0  0  0  0  3  0  0  0  0  0  0
  180.3620  178.5800  139.9070 C   0  0  0  0  0  1  0  0  0  0  0  0
  184.8120  176.9910  136.1750 N   0  0  0  0  0  0  0  0  0  0  0  0
  184.1490  178.1530  140.0530 C   0  0  0  0  0  2  0  0  0  0  0  0
  189.0770  176.7600  140.9710 C   0  0  0  0  0  1  0  0  0  0  0  0
  182.8010  178.7420  140.4830 C   0  0  0  0  0  2  0  0  0  0  0  0
  190.4450  177.8660  139.1960 C   0  0  0  0  0  2  0  0  0  0  0  0
  185.8180  178.2100  138.0820 C   0  0  2  0  0  3  0  0  0  0  0  0
  187.2120  176.6600  136.6010 C   0  0  2  0  0  3  0  0  0  0  0  0
  181.7480  178.4360  139.5080 N   0  0  0  0  0  0  0  0  0  0  0  0
  183.3040  178.0340  137.7190 C   0  0  0  0  0  0  0  0  0  0  0  0
  188.5570  178.7500  136.7930 C   0  0  0  0  0  1  0  0  0  0  0  0
  184.4100  178.5550  138.6050 C   0  0  1  0  0  3  0  0  0  0  0  0
  189.0610  177.7890  139.8580 C   0  0  1  0  0  3  0  0  0  0  0  0
  183.6230  177.4600  136.4060 C   0  0  0  0  0  3  0  0  0  0  0  0
  190.6030  176.8600  138.1650 N   0  0  0  0  0  0  0  0  0  0  0  0
  189.6690  176.6240  137.3080 C   0  0  0  0  0  3  0  0  0  0  0  0
  187.9250  177.4580  138.8730 C   0  0  2  0  0  3  0  0  0  0  0  0
  187.7650  172.4740  135.9640 N   0  0  0  0  0  0  0  0  0  0  0  0
  187.3950  175.1810  136.3880 C   0  0  0  0  0  0  0  0  0  0  0  0
  186.8530  174.2460  137.2800 C   0  0  0  0  0  3  0  0  0  0  0  0
  187.0520  172.8830  137.0470 C   0  0  0  0  0  3  0  0  0  0  0  0
  188.3010  173.3640  135.0860 C   0  0  0  0  0  3  0  0  0  0  0  0
  188.1250  174.7350  135.2820 C   0  0  0  0  0  3  0  0  0  0  0  0
  1 15  1  6  0  0  0
  1 21  1  0  0  0  0
  2  6  1  6  0  0  0
  2 11  1  0  0  0  0
  4 13  1  0  0  0  0
  6 18  2  0  0  0  0
  7  9  1  0  0  0  0
 10 17  1  0  0  0  0
 11 16  1  0  0  0  0
 11  3  1  1  0  0  0
 12 23  1  1  0  0  0
 12  2  1  0  0  0  0
 12  1  1  0  0  0  0
 13  5  1  0  0  0  0
 13  9  1  0  0  0  0
 14  4  2  0  0  0  0
 14 16  1  0  0  0  0
 16  7  1  1  0  0  0
 17  8  1  1  0  0  0
 18 14  1  0  0  0  0
 19 10  1  0  0  0  0
 20  1  1  0  0  0  0
 20 19  2  0  0  0  0
 21  3  1  6  0  0  0
 21 17  1  0  0  0  0
 22 25  1  0  0  0  0
 23 24  1  0  0  0  0
 25 24  2  0  0  0  0
 26 27  1  0  0  0  0
 26 22  2  0  0  0  0
 27 23  2  0  0  0  0
M  END
>  <MODEL>
8

>  <REMARK>
 VINA RESULT:      -5.2      2.528      4.069
  Name = 
  1 active torsions:
  status: ('A' for Active; 'I' for Inactive)
    1  A    between atoms: C_9  and  C_15
                            x       y       z     vdW  Elec       q    Type
                         _______ _______ _______ _____ _____    ______ ____

>  <TORSDO>
F 1

$$$$
=
 OpenBabel10262420003D

 27 31  0  0  1  0  0  0  0  0999 V2000
  181.4130  178.3710  140.3750 C   0  0  2  0  0  0  0  0  0  0  0  0
  183.8510  178.0480  139.6550 C   0  0  2  0  0  3  0  0  0  0  0  0
  181.9940  176.7000  138.6060 O   0  0  0  0  0  0  0  0  0  0  0  0
  186.5110  176.8500  136.8340 C   0  0  0  0  0  3  0  0  0  0  0  0
  187.3620  175.0480  135.3490 C   0  0  0  0  0  1  0  0  0  0  0  0
  184.9700  178.9200  139.2930 N   0  0  0  0  0  0  0  0  0  0  0  0
  184.1610  175.3710  137.4000 C   0  0  0  0  0  2  0  0  0  0  0  0
  180.1670  174.8950  140.7000 C   0  0  0  0  0  1  0  0  0  0  0  0
  185.0080  174.8970  136.2140 C   0  0  0  0  0  2  0  0  0  0  0  0
  178.9310  177.0630  140.5980 C   0  0  0  0  0  2  0  0  0  0  0  0
  183.1340  177.5260  138.3880 C   0  0  2  0  0  3  0  0  0  0  0  0
  182.8890  178.7900  140.5970 C   0  0  2  0  0  3  0  0  0  0  0  0
  186.2930  175.6040  136.1560 N   0  0  0  0  0  0  0  0  0  0  0  0
  185.5090  177.4580  137.4700 C   0  0  0  0  0  0  0  0  0  0  0  0
  180.8040  179.2990  139.3270 C   0  0  0  0  0  1  0  0  0  0  0  0
  184.1110  176.8950  137.3760 C   0  0  1  0  0  3  0  0  0  0  0  0
  180.0260  176.2040  139.9490 C   0  0  1  0  0  3  0  0  0  0  0  0
  185.7720  178.6310  138.3130 C   0  0  0  0  0  3  0  0  0  0  0  0
  179.4460  177.8400  141.7080 N   0  0  0  0  0  0  0  0  0  0  0  0
  180.5690  178.4680  141.6240 C   0  0  0  0  0  3  0  0  0  0  0  0
  181.3960  176.9020  139.8770 C   0  0  2  0  0  3  0  0  0  0  0  0
  184.3280  178.4520  144.6030 N   0  0  0  0  0  0  0  0  0  0  0  0
  183.3810  178.6730  142.0150 C   0  0  0  0  0  0  0  0  0  0  0  0
  182.5710  179.0420  143.0970 C   0  0  0  0  0  3  0  0  0  0  0  0
  183.0690  178.9220  144.3960 C   0  0  0  0  0  3  0  0  0  0  0  0
  185.1320  178.0890  143.5660 C   0  0  0  0  0  3  0  0  0  0  0  0
  184.6720  178.1940  142.2530 C   0  0  0  0  0  3  0  0  0  0  0  0
  1 15  1  6  0  0  0
  1 12  1  0  0  0  0
  1 20  1  0  0  0  0
  2  6  1  6  0  0  0
  2 12  1  0  0  0  0
  4 14  2  0  0  0  0
  5 13  1  0  0  0  0
  9  7  1  0  0  0  0
 10 19  1  0  0  0  0
 11  3  1  1  0  0  0
 11  2  1  0  0  0  0
 12 23  1  1  0  0  0
 13  9  1  0  0  0  0
 13  4  1  0  0  0  0
 14 18  1  0  0  0  0
 16  7  1  1  0  0  0
 16 14  1  0  0  0  0
 16 11  1  0  0  0  0
 17 10  1  0  0  0  0
 17  8  1  1  0  0  0
 18  6  2  0  0  0  0
 20 19  2  0  0  0  0
 21  3  1  6  0  0  0
 21 17  1  0  0  0  0
 21  1  1  0  0  0  0
 23 27  2  0  0  0  0
 23 24  1  0  0  0  0
 24 25  2  0  0  0  0
 25 22  1  0  0  0  0
 26 22  2  0  0  0  0
 27 26  1  0  0  0  0
M  END
>  <MODEL>
9

>  <REMARK>
 VINA RESULT:      -5.1      3.806      8.027
  Name = 
  1 active torsions:
  status: ('A' for Active; 'I' for Inactive)
    1  A    between atoms: C_9  and  C_15
                            x       y       z     vdW  Elec       q    Type
                         _______ _______ _______ _____ _____    ______ ____

>  <TORSDO>
F 1

$$$$
