=
 OpenBabel10262420093D

 27 31  0  0  1  0  0  0  0  0999 V2000
  186.4120  178.6460  141.7030 N   0  0  0  0  0  0  0  0  0  0  0  0
  185.9440  178.1350  144.0460 C   0  0  0  0  0  0  0  0  0  0  0  0
  188.0790  177.0090  143.5830 N   0  0  0  0  0  0  0  0  0  0  0  0
  187.1370  178.7310  148.0930 C   0  0  0  0  0  3  0  0  0  0  0  0
  188.6750  178.2890  149.8600 F   0  0  0  0  0  0  0  0  0  0  0  0
  184.9410  178.6960  145.0370 C   0  0  0  0  0  2  0  0  0  0  0  0
  188.6830  177.1440  146.3860 C   0  0  0  0  0  3  0  0  0  0  0  0
  189.8390  176.8830  140.4370 C   0  0  0  0  0  0  0  0  0  0  0  0
  189.0680  177.3190  147.7180 C   0  0  0  0  0  3  0  0  0  0  0  0
  190.8750  176.2110  139.8810 F   0  0  0  0  0  0  0  0  0  0  0  0
  187.5170  177.7550  145.9000 C   0  0  0  0  0  0  0  0  0  0  0  0
  185.5240  177.9350  142.6110 C   0  0  1  0  0  3  0  0  0  0  0  0
  188.2970  178.1140  148.5710 C   0  0  0  0  0  0  0  0  0  0  0  0
  186.7440  178.5420  146.7650 C   0  0  0  0  0  0  0  0  0  0  0  0
  187.6660  178.3510  141.5670 C   0  0  0  0  0  0  0  0  0  0  0  0
  187.1360  177.6460  144.4710 C   0  0  0  0  0  0  0  0  0  0  0  0
  189.4460  176.5670  141.6770 C   0  0  0  0  0  3  0  0  0  0  0  0
  185.5680  179.1700  146.2670 N   0  0  0  0  0  2  0  0  0  0  0  0
  189.1040  177.9100  139.6110 C   0  0  0  0  0  2  0  0  0  0  0  0
  188.4580  178.9950  140.4770 C   0  0  0  0  0  2  0  0  0  0  0  0
  188.3260  177.2640  142.3290 C   0  0  0  0  0  0  0  0  0  0  0  0
  181.4140  178.8670  141.7410 C   0  0  0  0  0  3  0  0  0  0  0  0
  184.0900  178.2780  142.3200 C   0  0  0  0  0  0  0  0  0  0  0  0
  183.5920  178.0870  141.0260 C   0  0  0  0  0  3  0  0  0  0  0  0
  182.2570  178.3820  140.7360 C   0  0  0  0  0  3  0  0  0  0  0  0
  181.9040  179.0550  143.0350 C   0  0  0  0  0  3  0  0  0  0  0  0
  183.2400  178.7600  143.3270 C   0  0  0  0  0  3  0  0  0  0  0  0
  1 12  1  0  0  0  0
  2 16  2  0  0  0  0
  2  6  1  0  0  0  0
  3 16  1  0  0  0  0
  4 13  1  0  0  0  0
  6 18  1  0  0  0  0
  7  9  1  0  0  0  0
  8 17  2  0  0  0  0
  9 13  2  0  0  0  0
 10  8  1  0  0  0  0
 11  7  2  0  0  0  0
 11 14  1  0  0  0  0
 12 23  1  1  0  0  0
 12  2  1  0  0  0  0
 13  5  1  0  0  0  0
 14  4  2  0  0  0  0
 15  1  2  0  0  0  0
 15 21  1  0  0  0  0
 16 11  1  0  0  0  0
 17 21  1  0  0  0  0
 18 14  1  0  0  0  0
 19  8  1  0  0  0  0
 19 20  1  0  0  0  0
 20 15  1  0  0  0  0
 21  3  2  0  0  0  0
 22 26  1  0  0  0  0
 23 27  1  0  0  0  0
 24 23  2  0  0  0  0
 25 24  1  0  0  0  0
 25 22  2  0  0  0  0
 26 27  2  0  0  0  0
M  END
>  <MODEL>
1

>  <REMARK>
 VINA RESULT:     -10.4      0.000      0.000
  Name = 
  1 active torsions:
  status: ('A' for Active; 'I' for Inactive)
    1  A    between atoms: C_9  and  C_15
                            x       y       z     vdW  Elec       q    Type
                         _______ _______ _______ _____ _____    ______ ____

>  <TORSDO>
F 1

$$$$
=
 OpenBabel10262420093D

 27 31  0  0  1  0  0  0  0  0999 V2000
  187.5160  178.5520  141.9370 N   0  0  0  0  0  0  0  0  0  0  0  0
  187.8730  177.5660  144.1440 C   0  0  0  0  0  0  0  0  0  0  0  0
  189.5600  176.4980  142.7100 N   0  0  0  0  0  0  0  0  0  0  0  0
  190.5060  177.2440  147.4790 C   0  0  0  0  0  3  0  0  0  0  0  0
  192.5210  176.3860  148.4210 F   0  0  0  0  0  0  0  0  0  0  0  0
  187.3640  177.9340  145.5260 C   0  0  0  0  0  2  0  0  0  0  0  0
  191.1470  176.0120  145.0510 C   0  0  0  0  0  3  0  0  0  0  0  0
  190.0390  176.9940  139.1690 C   0  0  0  0  0  0  0  0  0  0  0  0
  192.0040  175.8840  146.1480 C   0  0  0  0  0  3  0  0  0  0  0  0
  190.7240  176.4240  138.1490 F   0  0  0  0  0  0  0  0  0  0  0  0
  189.9590  176.7480  145.1640 C   0  0  0  0  0  0  0  0  0  0  0  0
  186.9440  177.6920  142.9630 C   0  0  1  0  0  3  0  0  0  0  0  0
  191.6850  176.5020  147.3600 C   0  0  0  0  0  0  0  0  0  0  0  0
  189.6420  177.3560  146.3860 C   0  0  0  0  0  0  0  0  0  0  0  0
  188.5960  178.2530  141.2860 C   0  0  0  0  0  0  0  0  0  0  0  0
  189.0770  176.9600  143.9900 C   0  0  0  0  0  0  0  0  0  0  0  0
  190.0880  176.4320  140.3830 C   0  0  0  0  0  3  0  0  0  0  0  0
  188.4410  178.1130  146.4940 N   0  0  0  0  0  2  0  0  0  0  0  0
  189.1710  178.1960  138.8880 C   0  0  0  0  0  2  0  0  0  0  0  0
  189.0050  179.0900  140.1200 C   0  0  0  0  0  2  0  0  0  0  0  0
  189.3630  177.0080  141.5270 C   0  0  0  0  0  0  0  0  0  0  0  0
  182.9250  178.9170  143.8950 C   0  0  0  0  0  3  0  0  0  0  0  0
  185.5490  178.1340  143.3020 C   0  0  0  0  0  0  0  0  0  0  0  0
  184.5930  178.2210  142.2830 C   0  0  0  0  0  3  0  0  0  0  0  0
  183.2840  178.6130  142.5780 C   0  0  0  0  0  3  0  0  0  0  0  0
  183.8740  178.8280  144.9170 C   0  0  0  0  0  3  0  0  0  0  0  0
  185.1830  178.4350  144.6230 C   0  0  0  0  0  3  0  0  0  0  0  0
  1 12  1  0  0  0  0
  2  6  1  0  0  0  0
  3 16  1  0  0  0  0
  6 18  1  0  0  0  0
  7 11  2  0  0  0  0
  7  9  1  0  0  0  0
  8 17  2  0  0  0  0
  9 13  2  0  0  0  0
 10  8  1  0  0  0  0
 11 14  1  0  0  0  0
 12 23  1  1  0  0  0
 12  2  1  0  0  0  0
 13  4  1  0  0  0  0
 13  5  1  0  0  0  0
 14 18  1  0  0  0  0
 14  4  2  0  0  0  0
 15 21  1  0  0  0  0
 15  1  2  0  0  0  0
 16  2  2  0  0  0  0
 16 11  1  0  0  0  0
 17 21  1  0  0  0  0
 19  8  1  0  0  0  0
 19 20  1  0  0  0  0
 20 15  1  0  0  0  0
 21  3  2  0  0  0  0
 22 26  1  0  0  0  0
 23 27  1  0  0  0  0
 24 25  1  0  0  0  0
 24 23  2  0  0  0  0
 25 22  2  0  0  0  0
 27 26  2  0  0  0  0
M  END
>  <MODEL>
2

>  <REMARK>
 VINA RESULT:     -10.3      1.797      2.448
  Name = 
  1 active torsions:
  status: ('A' for Active; 'I' for Inactive)
    1  A    between atoms: C_9  and  C_15
                            x       y       z     vdW  Elec       q    Type
                         _______ _______ _______ _____ _____    ______ ____

>  <TORSDO>
F 1

$$$$
=
 OpenBabel10262420093D

 27 31  0  0  1  0  0  0  0  0999 V2000
  189.7490  178.4560  141.7770 N   0  0  0  0  0  0  0  0  0  0  0  0
  187.3300  178.1350  141.6330 C   0  0  0  0  0  0  0  0  0  0  0  0
  187.9270  177.3360  143.8800 N   0  0  0  0  0  0  0  0  0  0  0  0
  183.5170  179.3630  143.0820 C   0  0  0  0  0  3  0  0  0  0  0  0
  181.9020  179.3800  144.8360 F   0  0  0  0  0  0  0  0  0  0  0  0
  186.2880  178.6270  140.6450 C   0  0  0  0  0  2  0  0  0  0  0  0
  185.2350  177.8780  144.7150 C   0  0  0  0  0  3  0  0  0  0  0  0
  191.2270  177.1600  145.3250 C   0  0  0  0  0  0  0  0  0  0  0  0
  183.9760  178.2590  145.1880 C   0  0  0  0  0  3  0  0  0  0  0  0
  191.8320  176.6130  146.4060 F   0  0  0  0  0  0  0  0  0  0  0  0
  185.6390  178.2290  143.4180 C   0  0  0  0  0  0  0  0  0  0  0  0
  188.6840  177.7120  141.1190 C   0  0  1  0  0  3  0  0  0  0  0  0
  183.1190  179.0030  144.3740 C   0  0  0  0  0  0  0  0  0  0  0  0
  184.7690  178.9660  142.6050 C   0  0  0  0  0  0  0  0  0  0  0  0
  189.9980  178.3610  143.0450 C   0  0  0  0  0  0  0  0  0  0  0  0
  187.0000  177.9010  142.9280 C   0  0  0  0  0  0  0  0  0  0  0  0
  189.9270  176.9210  145.1140 C   0  0  0  0  0  3  0  0  0  0  0  0
  185.1860  179.3310  141.2940 N   0  0  0  0  0  2  0  0  0  0  0  0
  192.0550  177.9530  144.3440 C   0  0  0  0  0  2  0  0  0  0  0  0
  191.2250  179.0040  143.6020 C   0  0  0  0  0  2  0  0  0  0  0  0
  189.2190  177.4890  143.9560 C   0  0  0  0  0  0  0  0  0  0  0  0
  189.0890  177.8580  136.8380 C   0  0  0  0  0  3  0  0  0  0  0  0
  188.8420  177.7770  139.6270 C   0  0  0  0  0  0  0  0  0  0  0  0
  188.7480  176.5990  138.8780 C   0  0  0  0  0  3  0  0  0  0  0  0
  188.8730  176.6380  137.4860 C   0  0  0  0  0  3  0  0  0  0  0  0
  189.1790  179.0380  137.5800 C   0  0  0  0  0  3  0  0  0  0  0  0
  189.0540  179.0000  138.9720 C   0  0  0  0  0  3  0  0  0  0  0  0
  1 15  2  0  0  0  0
  2 16  2  0  0  0  0
  3 21  2  0  0  0  0
  4 13  1  0  0  0  0
  6 18  1  0  0  0  0
  6  2  1  0  0  0  0
  7  9  1  0  0  0  0
  8 10  1  0  0  0  0
 11  7  2  0  0  0  0
 12 23  1  6  0  0  0
 12  2  1  0  0  0  0
 12  1  1  0  0  0  0
 13  5  1  0  0  0  0
 13  9  2  0  0  0  0
 14  4  2  0  0  0  0
 14 11  1  0  0  0  0
 15 20  1  0  0  0  0
 15 21  1  0  0  0  0
 16 11  1  0  0  0  0
 16  3  1  0  0  0  0
 17  8  2  0  0  0  0
 18 14  1  0  0  0  0
 19  8  1  0  0  0  0
 20 19  1  0  0  0  0
 21 17  1  0  0  0  0
 22 25  2  0  0  0  0
 22 26  1  0  0  0  0
 24 23  2  0  0  0  0
 25 24  1  0  0  0  0
 26 27  2  0  0  0  0
 27 23  1  0  0  0  0
M  END
>  <MODEL>
3

>  <REMARK>
 VINA RESULT:      -9.8      2.656      5.435
  Name = 
  1 active torsions:
  status: ('A' for Active; 'I' for Inactive)
    1  A    between atoms: C_9  and  C_15
                            x       y       z     vdW  Elec       q    Type
                         _______ _______ _______ _____ _____    ______ ____

>  <TORSDO>
F 1

$$$$
=
 OpenBabel10262420093D

 27 31  0  0  1  0  0  0  0  0999 V2000
  189.5640  176.9300  140.5130 N   0  0  0  0  0  0  0  0  0  0  0  0
  187.7620  178.0660  141.7100 C   0  0  0  0  0  0  0  0  0  0  0  0
  187.4230  178.6810  139.3540 N   0  0  0  0  0  0  0  0  0  0  0  0
  183.5590  178.2870  142.3710 C   0  0  0  0  0  3  0  0  0  0  0  0
  181.3910  178.8880  141.5820 F   0  0  0  0  0  0  0  0  0  0  0  0
  187.2280  177.9340  143.1250 C   0  0  0  0  0  2  0  0  0  0  0  0
  184.6500  179.1350  139.9410 C   0  0  0  0  0  3  0  0  0  0  0  0
  189.4780  177.7470  136.5410 C   0  0  0  0  0  0  0  0  0  0  0  0
  183.2730  179.2300  140.1600 C   0  0  0  0  0  3  0  0  0  0  0  0
  189.6280  178.0850  135.2380 F   0  0  0  0  0  0  0  0  0  0  0  0
  185.4920  178.6240  140.9390 C   0  0  0  0  0  0  0  0  0  0  0  0
  189.2490  177.9760  141.4760 C   0  0  1  0  0  3  0  0  0  0  0  0
  182.7270  178.8040  141.3730 C   0  0  0  0  0  0  0  0  0  0  0  0
  184.9370  178.2080  142.1570 C   0  0  0  0  0  0  0  0  0  0  0  0
  189.1890  176.9740  139.2740 C   0  0  0  0  0  0  0  0  0  0  0  0
  186.9440  178.4420  140.6950 C   0  0  0  0  0  0  0  0  0  0  0  0
  188.5950  178.4160  137.2920 C   0  0  0  0  0  3  0  0  0  0  0  0
  185.7920  177.6790  143.1640 N   0  0  0  0  0  2  0  0  0  0  0  0
  190.3740  176.6840  137.1300 C   0  0  0  0  0  2  0  0  0  0  0  0
  189.7170  175.9640  138.3100 C   0  0  0  0  0  2  0  0  0  0  0  0
  188.3920  178.0910  138.7130 C   0  0  0  0  0  0  0  0  0  0  0  0
  191.6450  177.4560  145.0120 C   0  0  0  0  0  3  0  0  0  0  0  0
  190.0750  177.8110  142.7200 C   0  0  0  0  0  0  0  0  0  0  0  0
  190.3850  176.5220  143.1680 C   0  0  0  0  0  3  0  0  0  0  0  0
  191.1670  176.3440  144.3130 C   0  0  0  0  0  3  0  0  0  0  0  0
  191.3430  178.7450  144.5670 C   0  0  0  0  0  3  0  0  0  0  0  0
  190.5610  178.9240  143.4220 C   0  0  0  0  0  3  0  0  0  0  0  0
  1 12  1  0  0  0  0
  2  6  1  0  0  0  0
  3 16  1  0  0  0  0
  6 18  1  0  0  0  0
  7  9  2  0  0  0  0
  7 11  1  0  0  0  0
  8 19  1  0  0  0  0
  8 17  2  0  0  0  0
  9 13  1  0  0  0  0
 10  8  1  0  0  0  0
 11 14  2  0  0  0  0
 12  2  1  0  0  0  0
 12 23  1  1  0  0  0
 13  5  1  0  0  0  0
 13  4  2  0  0  0  0
 14  4  1  0  0  0  0
 14 18  1  0  0  0  0
 15  1  2  0  0  0  0
 16 11  1  0  0  0  0
 16  2  2  0  0  0  0
 17 21  1  0  0  0  0
 19 20  1  0  0  0  0
 20 15  1  0  0  0  0
 21 15  1  0  0  0  0
 21  3  2  0  0  0  0
 23 24  2  0  0  0  0
 23 27  1  0  0  0  0
 24 25  1  0  0  0  0
 25 22  2  0  0  0  0
 26 22  1  0  0  0  0
 27 26  2  0  0  0  0
M  END
>  <MODEL>
4

>  <REMARK>
 VINA RESULT:      -9.6      3.319      6.438
  Name = 
  1 active torsions:
  status: ('A' for Active; 'I' for Inactive)
    1  A    between atoms: C_9  and  C_15
                            x       y       z     vdW  Elec       q    Type
                         _______ _______ _______ _____ _____    ______ ____

>  <TORSDO>
F 1

$$$$
=
 OpenBabel10262420093D

 27 31  0  0  1  0  0  0  0  0999 V2000
  186.7470  177.5160  143.0570 N   0  0  0  0  0  0  0  0  0  0  0  0
  186.2720  178.3810  140.8210 C   0  0  0  0  0  0  0  0  0  0  0  0
  188.6980  178.6670  141.0920 N   0  0  0  0  0  0  0  0  0  0  0  0
  186.8070  177.8130  136.6320 C   0  0  0  0  0  3  0  0  0  0  0  0
  188.2330  177.8780  134.7230 F   0  0  0  0  0  0  0  0  0  0  0  0
  185.0490  178.2910  139.9250 C   0  0  0  0  0  2  0  0  0  0  0  0
  188.9570  178.6090  138.2340 C   0  0  0  0  0  3  0  0  0  0  0  0
  190.6730  177.8830  144.0060 C   0  0  0  0  0  0  0  0  0  0  0  0
  189.1330  178.4450  136.8570 C   0  0  0  0  0  3  0  0  0  0  0  0
  191.9240  178.1070  144.4730 F   0  0  0  0  0  0  0  0  0  0  0  0
  187.7020  178.3850  138.8180 C   0  0  0  0  0  0  0  0  0  0  0  0
  186.0800  178.5710  142.3050 C   0  0  1  0  0  3  0  0  0  0  0  0
  188.0600  178.0450  136.0570 C   0  0  0  0  0  0  0  0  0  0  0  0
  186.6280  177.9940  138.0060 C   0  0  0  0  0  0  0  0  0  0  0  0
  188.0320  177.3550  143.0590 C   0  0  0  0  0  0  0  0  0  0  0  0
  187.5150  178.4770  140.2860 C   0  0  0  0  0  0  0  0  0  0  0  0
  190.3020  178.4330  142.8430 C   0  0  0  0  0  3  0  0  0  0  0  0
  185.3580  177.7560  138.6030 N   0  0  0  0  0  2  0  0  0  0  0  0
  189.7060  177.0900  144.8520 C   0  0  0  0  0  2  0  0  0  0  0  0
  188.6480  176.3780  144.0050 C   0  0  0  0  0  2  0  0  0  0  0  0
  188.9550  178.2230  142.2900 C   0  0  0  0  0  0  0  0  0  0  0  0
  182.0020  179.0030  143.6060 C   0  0  0  0  0  3  0  0  0  0  0  0
  184.6500  178.7060  142.7450 C   0  0  0  0  0  0  0  0  0  0  0  0
  184.3670  178.8660  144.1060 C   0  0  0  0  0  3  0  0  0  0  0  0
  183.0450  179.0120  144.5370 C   0  0  0  0  0  3  0  0  0  0  0  0
  182.2790  178.8490  142.2460 C   0  0  0  0  0  3  0  0  0  0  0  0
  183.6010  178.7020  141.8140 C   0  0  0  0  0  3  0  0  0  0  0  0
  1 15  2  0  0  0  0
  2 12  1  0  0  0  0
  3 21  2  0  0  0  0
  4 14  1  0  0  0  0
  5 13  1  0  0  0  0
  6  2  1  0  0  0  0
  7 11  1  0  0  0  0
  8 10  1  0  0  0  0
  8 19  1  0  0  0  0
  9  7  2  0  0  0  0
 11 16  1  0  0  0  0
 12 23  1  6  0  0  0
 12  1  1  0  0  0  0
 13  4  2  0  0  0  0
 13  9  1  0  0  0  0
 14 18  1  0  0  0  0
 14 11  2  0  0  0  0
 15 20  1  0  0  0  0
 16  2  2  0  0  0  0
 16  3  1  0  0  0  0
 17  8  2  0  0  0  0
 18  6  1  0  0  0  0
 20 19  1  0  0  0  0
 21 17  1  0  0  0  0
 21 15  1  0  0  0  0
 22 25  1  0  0  0  0
 23 24  1  0  0  0  0
 24 25  2  0  0  0  0
 26 22  2  0  0  0  0
 27 26  1  0  0  0  0
 27 23  2  0  0  0  0
M  END
>  <MODEL>
5

>  <REMARK>
 VINA RESULT:      -8.9      2.607      6.370
  Name = 
  1 active torsions:
  status: ('A' for Active; 'I' for Inactive)
    1  A    between atoms: C_9  and  C_15
                            x       y       z     vdW  Elec       q    Type
                         _______ _______ _______ _____ _____    ______ ____

>  <TORSDO>
F 1

$$$$
=
 OpenBabel10262420093D

 27 31  0  0  1  0  0  0  0  0999 V2000
  188.1710  177.0340  143.7430 N   0  0  0  0  0  0  0  0  0  0  0  0
  186.1180  178.3200  143.4190 C   0  0  0  0  0  0  0  0  0  0  0  0
  187.3650  178.6050  141.3190 N   0  0  0  0  0  0  0  0  0  0  0  0
  182.4460  178.6210  141.2790 C   0  0  0  0  0  3  0  0  0  0  0  0
  181.2940  179.1050  139.2490 F   0  0  0  0  0  0  0  0  0  0  0  0
  184.8140  178.3820  144.1940 C   0  0  0  0  0  2  0  0  0  0  0  0
  184.8760  179.1310  139.9910 C   0  0  0  0  0  3  0  0  0  0  0  0
  190.6330  177.2990  140.5310 C   0  0  0  0  0  0  0  0  0  0  0  0
  183.6730  179.2520  139.2890 C   0  0  0  0  0  3  0  0  0  0  0  0
  191.5850  177.4550  139.5800 F   0  0  0  0  0  0  0  0  0  0  0  0
  184.8710  178.7630  141.3440 C   0  0  0  0  0  0  0  0  0  0  0  0
  187.4170  178.2010  144.1770 C   0  0  1  0  0  3  0  0  0  0  0  0
  182.4590  178.9950  139.9320 C   0  0  0  0  0  0  0  0  0  0  0  0
  183.6490  178.5170  141.9830 C   0  0  0  0  0  0  0  0  0  0  0  0
  188.6490  176.9070  142.5460 C   0  0  0  0  0  0  0  0  0  0  0  0
  186.1400  178.5520  142.0820 C   0  0  0  0  0  0  0  0  0  0  0  0
  189.5340  178.0630  140.4860 C   0  0  0  0  0  3  0  0  0  0  0  0
  183.6480  178.1320  143.3540 N   0  0  0  0  0  2  0  0  0  0  0  0
  190.8770  176.3290  141.6600 C   0  0  0  0  0  2  0  0  0  0  0  0
  189.5730  175.7750  142.2400 C   0  0  0  0  0  2  0  0  0  0  0  0
  188.4690  177.9350  141.4930 C   0  0  0  0  0  0  0  0  0  0  0  0
  187.0780  178.2300  148.4670 C   0  0  0  0  0  3  0  0  0  0  0  0
  187.2770  178.2100  145.6730 C   0  0  0  0  0  0  0  0  0  0  0  0
  188.1900  177.4870  146.4480 C   0  0  0  0  0  3  0  0  0  0  0  0
  188.0900  177.4940  147.8430 C   0  0  0  0  0  3  0  0  0  0  0  0
  186.1670  178.9580  147.6990 C   0  0  0  0  0  3  0  0  0  0  0  0
  186.2650  178.9510  146.3040 C   0  0  0  0  0  3  0  0  0  0  0  0
  1 12  1  0  0  0  0
  2 12  1  0  0  0  0
  2  6  1  0  0  0  0
  3 21  2  0  0  0  0
  3 16  1  0  0  0  0
  4 14  1  0  0  0  0
  5 13  1  0  0  0  0
  7 11  1  0  0  0  0
  8 19  1  0  0  0  0
  9 13  1  0  0  0  0
  9  7  2  0  0  0  0
 10  8  1  0  0  0  0
 11 14  2  0  0  0  0
 11 16  1  0  0  0  0
 12 23  1  1  0  0  0
 13  4  2  0  0  0  0
 14 18  1  0  0  0  0
 15  1  2  0  0  0  0
 16  2  2  0  0  0  0
 17  8  2  0  0  0  0
 17 21  1  0  0  0  0
 18  6  1  0  0  0  0
 19 20  1  0  0  0  0
 20 15  1  0  0  0  0
 21 15  1  0  0  0  0
 23 27  2  0  0  0  0
 23 24  1  0  0  0  0
 24 25  2  0  0  0  0
 25 22  1  0  0  0  0
 26 22  2  0  0  0  0
 27 26  1  0  0  0  0
M  END
>  <MODEL>
6

>  <REMARK>
 VINA RESULT:      -8.6      2.376      5.919
  Name = 
  1 active torsions:
  status: ('A' for Active; 'I' for Inactive)
    1  A    between atoms: C_9  and  C_15
                            x       y       z     vdW  Elec       q    Type
                         _______ _______ _______ _____ _____    ______ ____

>  <TORSDO>
F 1

$$$$
=
 OpenBabel10262420093D

 27 31  0  0  1  0  0  0  0  0999 V2000
  189.8130  176.5640  141.3870 N   0  0  0  0  0  0  0  0  0  0  0  0
  188.2140  177.6560  142.8770 C   0  0  0  0  0  0  0  0  0  0  0  0
  187.8570  178.7290  140.6940 N   0  0  0  0  0  0  0  0  0  0  0  0
  184.1000  178.2240  143.8280 C   0  0  0  0  0  3  0  0  0  0  0  0
  181.9920  179.2020  143.2960 F   0  0  0  0  0  0  0  0  0  0  0  0
  187.7270  177.3270  144.2760 C   0  0  0  0  0  2  0  0  0  0  0  0
  185.1870  179.3780  141.5240 C   0  0  0  0  0  3  0  0  0  0  0  0
  189.6660  178.1040  137.6370 C   0  0  0  0  0  0  0  0  0  0  0  0
  183.8420  179.5850  141.8420 C   0  0  0  0  0  3  0  0  0  0  0  0
  189.8020  178.6570  136.4080 F   0  0  0  0  0  0  0  0  0  0  0  0
  186.0000  178.5990  142.3610 C   0  0  0  0  0  0  0  0  0  0  0  0
  189.6680  177.4430  142.5380 C   0  0  1  0  0  3  0  0  0  0  0  0
  183.2980  179.0070  142.9920 C   0  0  0  0  0  0  0  0  0  0  0  0
  185.4490  178.0320  143.5180 C   0  0  0  0  0  0  0  0  0  0  0  0
  189.3960  176.8780  140.2010 C   0  0  0  0  0  0  0  0  0  0  0  0
  187.4070  178.3030  141.9980 C   0  0  0  0  0  0  0  0  0  0  0  0
  188.9020  178.7180  138.5490 C   0  0  0  0  0  3  0  0  0  0  0  0
  186.2730  177.2330  144.3590 N   0  0  0  0  0  2  0  0  0  0  0  0
  190.4480  176.8560  137.9700 C   0  0  0  0  0  2  0  0  0  0  0  0
  189.7560  176.0090  139.0420 C   0  0  0  0  0  2  0  0  0  0  0  0
  188.7200  178.1620  139.8990 C   0  0  0  0  0  0  0  0  0  0  0  0
  192.0570  176.0760  145.8460 C   0  0  0  0  0  3  0  0  0  0  0  0
  190.5180  176.9600  143.6790 C   0  0  0  0  0  0  0  0  0  0  0  0
  190.5720  177.7130  144.8570 C   0  0  0  0  0  3  0  0  0  0  0  0
  191.3420  177.2740  145.9380 C   0  0  0  0  0  3  0  0  0  0  0  0
  192.0020  175.3170  144.6740 C   0  0  0  0  0  3  0  0  0  0  0  0
  191.2330  175.7560  143.5920 C   0  0  0  0  0  3  0  0  0  0  0  0
  1 12  1  0  0  0  0
  2  6  1  0  0  0  0
  3 16  1  0  0  0  0
  6 18  1  0  0  0  0
  7  9  2  0  0  0  0
  7 11  1  0  0  0  0
  8 19  1  0  0  0  0
  8 17  2  0  0  0  0
  9 13  1  0  0  0  0
 10  8  1  0  0  0  0
 11 14  2  0  0  0  0
 12  2  1  0  0  0  0
 12 23  1  1  0  0  0
 13  5  1  0  0  0  0
 13  4  2  0  0  0  0
 14  4  1  0  0  0  0
 14 18  1  0  0  0  0
 15  1  2  0  0  0  0
 16 11  1  0  0  0  0
 16  2  2  0  0  0  0
 17 21  1  0  0  0  0
 19 20  1  0  0  0  0
 20 15  1  0  0  0  0
 21 15  1  0  0  0  0
 21  3  2  0  0  0  0
 22 25  1  0  0  0  0
 23 24  1  0  0  0  0
 24 25  2  0  0  0  0
 26 22  2  0  0  0  0
 27 23  2  0  0  0  0
 27 26  1  0  0  0  0
M  END
>  <MODEL>
7

>  <REMARK>
 VINA RESULT:      -8.6      2.768      6.114
  Name = 
  1 active torsions:
  status: ('A' for Active; 'I' for Inactive)
    1  A    between atoms: C_9  and  C_15
                            x       y       z     vdW  Elec       q    Type
                         _______ _______ _______ _____ _____    ______ ____

>  <TORSDO>
F 1

$$$$
=
 OpenBabel10262420093D

 27 31  0  0  1  0  0  0  0  0999 V2000
  186.8020  177.5260  142.7730 N   0  0  0  0  0  0  0  0  0  0  0  0
  188.0430  177.9140  140.7030 C   0  0  0  0  0  0  0  0  0  0  0  0
  189.7080  178.2090  142.4880 N   0  0  0  0  0  0  0  0  0  0  0  0
  191.0910  176.4770  138.0970 C   0  0  0  0  0  3  0  0  0  0  0  0
  193.4070  176.1190  137.6570 F   0  0  0  0  0  0  0  0  0  0  0  0
  187.7090  177.6600  139.2440 C   0  0  0  0  0  2  0  0  0  0  0  0
  191.7590  177.5530  140.5910 C   0  0  0  0  0  3  0  0  0  0  0  0
  189.1470  178.0170  146.0450 C   0  0  0  0  0  0  0  0  0  0  0  0
  192.7650  177.1020  139.7310 C   0  0  0  0  0  3  0  0  0  0  0  0
  189.8030  178.3130  147.1930 F   0  0  0  0  0  0  0  0  0  0  0  0
  190.4130  177.4760  140.2050 C   0  0  0  0  0  0  0  0  0  0  0  0
  186.9590  178.4120  141.6270 C   0  0  1  0  0  3  0  0  0  0  0  0
  192.4320  176.5620  138.4860 C   0  0  0  0  0  0  0  0  0  0  0  0
  190.0880  176.9430  138.9510 C   0  0  0  0  0  0  0  0  0  0  0  0
  187.7280  177.3470  143.6600 C   0  0  0  0  0  0  0  0  0  0  0  0
  189.3290  177.8750  141.1350 C   0  0  0  0  0  0  0  0  0  0  0  0
  189.7160  178.3190  144.8710 C   0  0  0  0  0  3  0  0  0  0  0  0
  188.7200  176.8550  138.5670 N   0  0  0  0  0  2  0  0  0  0  0  0
  187.7570  177.4340  146.1250 C   0  0  0  0  0  2  0  0  0  0  0  0
  187.4170  176.5790  144.9020 C   0  0  0  0  0  2  0  0  0  0  0  0
  189.0470  178.0200  143.5950 C   0  0  0  0  0  0  0  0  0  0  0  0
  183.1370  179.1460  139.7930 C   0  0  0  0  0  3  0  0  0  0  0  0
  185.6320  178.6600  140.9680 C   0  0  0  0  0  0  0  0  0  0  0  0
  184.4570  178.4140  141.6870 C   0  0  0  0  0  3  0  0  0  0  0  0
  183.2110  178.6550  141.1000 C   0  0  0  0  0  3  0  0  0  0  0  0
  184.3070  179.3970  139.0730 C   0  0  0  0  0  3  0  0  0  0  0  0
  185.5540  179.1570  139.6580 C   0  0  0  0  0  3  0  0  0  0  0  0
  1 15  2  0  0  0  0
  2 16  2  0  0  0  0
  2 12  1  0  0  0  0
  3 21  2  0  0  0  0
  4 13  2  0  0  0  0
  4 14  1  0  0  0  0
  5 13  1  0  0  0  0
  6  2  1  0  0  0  0
  8 19  1  0  0  0  0
  8 10  1  0  0  0  0
  9  7  2  0  0  0  0
 11  7  1  0  0  0  0
 11 16  1  0  0  0  0
 12 23  1  6  0  0  0
 12  1  1  0  0  0  0
 13  9  1  0  0  0  0
 14 11  2  0  0  0  0
 15 20  1  0  0  0  0
 16  3  1  0  0  0  0
 17  8  2  0  0  0  0
 18 14  1  0  0  0  0
 18  6  1  0  0  0  0
 20 19  1  0  0  0  0
 21 15  1  0  0  0  0
 21 17  1  0  0  0  0
 22 25  1  0  0  0  0
 23 24  1  0  0  0  0
 25 24  2  0  0  0  0
 26 27  1  0  0  0  0
 26 22  2  0  0  0  0
 27 23  2  0  0  0  0
M  END
>  <MODEL>
8

>  <REMARK>
 VINA RESULT:      -8.6      2.074      6.244
  Name = 
  1 active torsions:
  status: ('A' for Active; 'I' for Inactive)
    1  A    between atoms: C_9  and  C_15
                            x       y       z     vdW  Elec       q    Type
                         _______ _______ _______ _____ _____    ______ ____

>  <TORSDO>
F 1

$$$$
=
 OpenBabel10262420093D

 27 31  0  0  1  0  0  0  0  0999 V2000
  184.5360  177.7020  140.3860 N   0  0  0  0  0  0  0  0  0  0  0  0
  186.1790  178.2890  142.0970 C   0  0  0  0  0  0  0  0  0  0  0  0
  184.0320  179.0590  143.0120 N   0  0  0  0  0  0  0  0  0  0  0  0
  187.5870  177.5230  146.0450 C   0  0  0  0  0  3  0  0  0  0  0  0
  187.2820  177.7200  148.4010 F   0  0  0  0  0  0  0  0  0  0  0  0
  187.6320  177.8960  142.3010 C   0  0  0  0  0  2  0  0  0  0  0  0
  185.1510  178.8380  145.6460 C   0  0  0  0  0  3  0  0  0  0  0  0
  180.8000  178.8940  141.4210 C   0  0  0  0  0  0  0  0  0  0  0  0
  185.6180  178.6090  146.9430 C   0  0  0  0  0  3  0  0  0  0  0  0
  179.5530  179.3910  141.6030 F   0  0  0  0  0  0  0  0  0  0  0  0
  185.9030  178.4190  144.5390 C   0  0  0  0  0  0  0  0  0  0  0  0
  185.6800  178.5480  140.6980 C   0  0  1  0  0  3  0  0  0  0  0  0
  186.8340  177.9490  147.1430 C   0  0  0  0  0  0  0  0  0  0  0  0
  187.1260  177.7680  144.7480 C   0  0  0  0  0  0  0  0  0  0  0  0
  183.4010  177.7940  141.0030 C   0  0  0  0  0  0  0  0  0  0  0  0
  185.3870  178.5830  143.1580 C   0  0  0  0  0  0  0  0  0  0  0  0
  181.7810  179.2730  142.2480 C   0  0  0  0  0  3  0  0  0  0  0  0
  187.8830  177.3330  143.6240 N   0  0  0  0  0  2  0  0  0  0  0  0
  181.0640  177.9940  140.2380 C   0  0  0  0  0  2  0  0  0  0  0  0
  182.2240  177.0290  140.4940 C   0  0  0  0  0  2  0  0  0  0  0  0
  183.1540  178.7640  142.0960 C   0  0  0  0  0  0  0  0  0  0  0  0
  188.6350  178.2600  137.5830 C   0  0  0  0  0  3  0  0  0  0  0  0
  186.7240  178.4360  139.6240 C   0  0  0  0  0  0  0  0  0  0  0  0
  186.3240  178.2020  138.3030 C   0  0  0  0  0  3  0  0  0  0  0  0
  187.2760  178.1120  137.2850 C   0  0  0  0  0  3  0  0  0  0  0  0
  189.0400  178.4990  138.8980 C   0  0  0  0  0  3  0  0  0  0  0  0
  188.0880  178.5890  139.9180 C   0  0  0  0  0  3  0  0  0  0  0  0
  1 12  1  0  0  0  0
  1 15  2  0  0  0  0
  2  6  1  0  0  0  0
  2 16  2  0  0  0  0
  3 16  1  0  0  0  0
  4 13  1  0  0  0  0
  6 18  1  0  0  0  0
  7  9  1  0  0  0  0
  8 10  1  0  0  0  0
  8 17  2  0  0  0  0
  9 13  2  0  0  0  0
 11 14  1  0  0  0  0
 11  7  2  0  0  0  0
 12 23  1  6  0  0  0
 12  2  1  0  0  0  0
 13  5  1  0  0  0  0
 14  4  2  0  0  0  0
 15 21  1  0  0  0  0
 16 11  1  0  0  0  0
 18 14  1  0  0  0  0
 19 20  1  0  0  0  0
 19  8  1  0  0  0  0
 20 15  1  0  0  0  0
 21 17  1  0  0  0  0
 21  3  2  0  0  0  0
 22 26  1  0  0  0  0
 23 27  1  0  0  0  0
 24 23  2  0  0  0  0
 25 22  2  0  0  0  0
 25 24  1  0  0  0  0
 26 27  2  0  0  0  0
M  END
>  <MODEL>
9

>  <REMARK>
 VINA RESULT:      -8.5      2.742      5.496
  Name = 
  1 active torsions:
  status: ('A' for Active; 'I' for Inactive)
    1  A    between atoms: C_9  and  C_15
                            x       y       z     vdW  Elec       q    Type
                         _______ _______ _______ _____ _____    ______ ____

>  <TORSDO>
F 1

$$$$
