=
 OpenBabel10262421533D

 30 33  0  0  1  0  0  0  0  0999 V2000
  184.6790  178.0550  143.1920 C   0  0  0  0  0  3  0  0  0  0  0  0
  182.3120  178.3790  142.4130 C   0  0  2  0  0  3  0  0  0  0  0  0
  186.3840  178.7920  139.5390 N   0  0  0  0  0  0  0  0  0  0  0  0
  186.0740  178.0410  142.9890 C   0  0  0  0  0  0  0  0  0  0  0  0
  187.6670  178.6560  139.9620 C   0  0  0  0  0  0  0  0  0  0  0  0
  181.4680  178.2630  141.1410 C   0  0  0  0  0  2  0  0  0  0  0  0
  181.9670  179.6600  143.1550 C   0  0  0  0  0  1  0  0  0  0  0  0
  185.6880  178.5760  140.6660 C   0  0  0  0  0  0  0  0  0  0  0  0
  181.9890  179.2070  140.0610 C   0  0  0  0  0  2  0  0  0  0  0  0
  183.7910  178.3220  142.1270 C   0  0  0  0  0  0  0  0  0  0  0  0
  186.5380  178.3180  141.7020 C   0  0  0  0  0  0  0  0  0  0  0  0
  188.7780  178.8050  139.0860 N   0  0  0  0  0  1  0  0  0  0  0  0
  187.8110  178.3640  141.2780 N   0  0  0  0  0  2  0  0  0  0  0  0
  183.3950  178.7900  139.6450 C   0  0  0  0  0  2  0  0  0  0  0  0
  184.3020  178.5970  140.8310 C   0  0  0  0  0  0  0  0  0  0  0  0
  187.0370  177.7770  144.1140 C   0  0  2  0  0  3  0  0  0  0  0  0
  189.9330  178.5020  144.3060 C   0  0  0  0  0  2  0  0  0  0  0  0
  187.8300  175.6570  143.3270 O   0  0  0  0  0  0  0  0  0  0  0  0
  188.1270  176.8060  143.7560 C   0  0  0  0  0  0  0  0  0  0  0  0
  190.5990  176.3180  143.5040 C   0  0  0  0  0  2  0  0  0  0  0  0
  189.5020  177.1930  143.8610 N   0  0  0  0  0  0  0  0  0  0  0  0
  191.4370  178.5250  144.1100 C   0  0  0  0  0  2  0  0  0  0  0  0
  191.8620  177.0890  143.8380 C   0  0  0  0  0  2  0  0  0  0  0  0
  186.3550  177.4830  145.4530 C   0  0  0  0  0  2  0  0  0  0  0  0
  186.3610  178.6780  146.3990 C   0  0  0  0  0  2  0  0  0  0  0  0
  187.1060  178.3410  147.6770 C   0  0  0  0  0  2  0  0  0  0  0  0
  187.9990  177.1280  147.4700 C   0  0  0  0  0  2  0  0  0  0  0  0
  190.4140  176.8020  147.2810 O   0  0  0  0  0  0  0  0  0  0  0  0
  189.3550  177.4370  147.8850 N   0  0  0  0  0  0  0  0  0  0  0  0
  189.5660  178.3930  148.6590 O   0  0  0  0  0  0  0  0  0  0  0  0
  2  7  1  6  0  0  0
  3  5  2  0  0  0  0
  3  8  1  0  0  0  0
  4  1  1  0  0  0  0
  4 16  1  0  0  0  0
  5 13  1  0  0  0  0
  6  2  1  0  0  0  0
  8 15  2  0  0  0  0
  8 11  1  0  0  0  0
  9  6  1  0  0  0  0
 10  2  1  0  0  0  0
 10  1  2  0  0  0  0
 11  4  2  0  0  0  0
 12  5  1  0  0  0  0
 13 11  1  0  0  0  0
 14  9  1  0  0  0  0
 14 15  1  0  0  0  0
 15 10  1  0  0  0  0
 16 24  1  1  0  0  0
 18 19  2  0  0  0  0
 19 21  1  0  0  0  0
 19 16  1  0  0  0  0
 20 23  1  0  0  0  0
 20 21  1  0  0  0  0
 21 17  1  0  0  0  0
 22 17  1  0  0  0  0
 23 22  1  0  0  0  0
 24 25  1  0  0  0  0
 25 26  1  0  0  0  0
 27 26  1  0  0  0  0
 27 29  1  0  0  0  0
 28 29  2  0  0  0  0
 29 30  2  0  0  0  0
M  END
>  <MODEL>
1

>  <REMARK>
 VINA RESULT:      -8.1      0.000      0.000
  Name = 
  7 active torsions:
  status: ('A' for Active; 'I' for Inactive)
    1  A    between atoms: C_4  and  C_13
    2  A    between atoms: C_7  and  N_15
    3  A    between atoms: C_7  and  C_16
    4  A    between atoms: C_8  and  C_13
    5  A    between atoms: C_13  and  C_27
    6  A    between atoms: C_16  and  C_30
    7  A    between atoms: C_27  and  C_30
                            x       y       z     vdW  Elec       q    Type
                         _______ _______ _______ _____ _____    ______ ____

>  <TORSDO>
F 7

$$$$
=
 OpenBabel10262421533D

 30 33  0  0  1  0  0  0  0  0999 V2000
  186.6390  178.0800  145.5180 C   0  0  0  0  0  3  0  0  0  0  0  0
  188.0720  177.9180  147.5760 C   0  0  2  0  0  3  0  0  0  0  0  0
  189.6310  177.0950  142.8960 N   0  0  0  0  0  0  0  0  0  0  0  0
  186.4260  177.9770  144.1280 C   0  0  0  0  0  0  0  0  0  0  0  0
  188.8530  177.1440  141.7840 C   0  0  0  0  0  0  0  0  0  0  0  0
  189.5350  178.0600  148.0030 C   0  0  0  0  0  2  0  0  0  0  0  0
  187.4530  176.6930  148.2290 C   0  0  0  0  0  1  0  0  0  0  0  0
  188.7570  177.4010  143.8680 C   0  0  0  0  0  0  0  0  0  0  0  0
  190.4090  177.0440  147.2730 C   0  0  0  0  0  2  0  0  0  0  0  0
  187.9140  177.8500  146.0790 C   0  0  0  0  0  0  0  0  0  0  0  0
  187.5200  177.6250  143.3360 C   0  0  0  0  0  0  0  0  0  0  0  0
  189.3660  176.8800  140.4830 N   0  0  0  0  0  1  0  0  0  0  0  0
  187.5540  177.4650  142.0030 N   0  0  0  0  0  2  0  0  0  0  0  0
  190.4010  177.3360  145.7760 C   0  0  0  0  0  2  0  0  0  0  0  0
  189.0030  177.4940  145.2390 C   0  0  0  0  0  0  0  0  0  0  0  0
  185.0720  178.2000  143.5140 C   0  0  2  0  0  3  0  0  0  0  0  0
  183.6040  177.4400  141.0200 C   0  0  0  0  0  2  0  0  0  0  0  0
  185.7970  180.1100  142.2610 O   0  0  0  0  0  0  0  0  0  0  0  0
  185.1060  179.0540  142.2770 C   0  0  0  0  0  0  0  0  0  0  0  0
  184.4050  179.4140  139.8710 C   0  0  0  0  0  2  0  0  0  0  0  0
  184.3900  178.6540  141.1030 N   0  0  0  0  0  0  0  0  0  0  0  0
  183.1640  177.3370  139.5720 C   0  0  0  0  0  2  0  0  0  0  0  0
  183.4670  178.6840  138.9280 C   0  0  0  0  0  2  0  0  0  0  0  0
  183.9960  178.6090  144.5240 C   0  0  0  0  0  2  0  0  0  0  0  0
  182.8620  179.4080  143.8930 C   0  0  0  0  0  2  0  0  0  0  0  0
  181.5610  178.6290  143.9610 C   0  0  0  0  0  2  0  0  0  0  0  0
  180.6970  178.9260  142.7470 C   0  0  0  0  0  2  0  0  0  0  0  0
  179.7100  181.0800  142.1490 O   0  0  0  0  0  0  0  0  0  0  0  0
  179.8040  180.0340  143.0350 N   0  0  0  0  0  0  0  0  0  0  0  0
  179.0030  179.9550  143.9870 O   0  0  0  0  0  0  0  0  0  0  0  0
  1 10  1  0  0  0  0
  2  6  1  0  0  0  0
  2  7  1  1  0  0  0
  3  8  1  0  0  0  0
  4  1  2  0  0  0  0
  5 13  1  0  0  0  0
  5  3  2  0  0  0  0
  8 15  1  0  0  0  0
  9  6  1  0  0  0  0
 10  2  1  0  0  0  0
 11  8  2  0  0  0  0
 11  4  1  0  0  0  0
 12  5  1  0  0  0  0
 13 11  1  0  0  0  0
 14  9  1  0  0  0  0
 15 14  1  0  0  0  0
 15 10  2  0  0  0  0
 16  4  1  0  0  0  0
 16 24  1  1  0  0  0
 17 21  1  0  0  0  0
 18 19  2  0  0  0  0
 19 16  1  0  0  0  0
 20 21  1  0  0  0  0
 21 19  1  0  0  0  0
 22 17  1  0  0  0  0
 23 22  1  0  0  0  0
 23 20  1  0  0  0  0
 25 26  1  0  0  0  0
 25 24  1  0  0  0  0
 27 29  1  0  0  0  0
 27 26  1  0  0  0  0
 28 29  2  0  0  0  0
 29 30  2  0  0  0  0
M  END
>  <MODEL>
2

>  <REMARK>
 VINA RESULT:      -7.9      3.333      7.195
  Name = 
  7 active torsions:
  status: ('A' for Active; 'I' for Inactive)
    1  A    between atoms: C_4  and  C_13
    2  A    between atoms: C_7  and  N_15
    3  A    between atoms: C_7  and  C_16
    4  A    between atoms: C_8  and  C_13
    5  A    between atoms: C_13  and  C_27
    6  A    between atoms: C_16  and  C_30
    7  A    between atoms: C_27  and  C_30
                            x       y       z     vdW  Elec       q    Type
                         _______ _______ _______ _____ _____    ______ ____

>  <TORSDO>
F 7

$$$$
=
 OpenBabel10262421533D

 30 33  0  0  1  0  0  0  0  0999 V2000
  189.8810  177.2080  141.5390 C   0  0  0  0  0  3  0  0  0  0  0  0
  190.4840  176.9410  143.9630 C   0  0  2  0  0  3  0  0  0  0  0  0
  186.1220  178.6820  142.2440 N   0  0  0  0  0  0  0  0  0  0  0  0
  189.0090  177.5900  140.4990 C   0  0  0  0  0  0  0  0  0  0  0  0
  185.8040  178.8640  140.9360 C   0  0  0  0  0  0  0  0  0  0  0  0
  189.8170  176.7060  145.3210 C   0  0  0  0  0  2  0  0  0  0  0  0
  191.5550  178.0140  144.0850 C   0  0  0  0  0  1  0  0  0  0  0  0
  187.3700  178.1920  142.1680 C   0  0  0  0  0  0  0  0  0  0  0  0
  188.8530  177.8430  145.6510 C   0  0  0  0  0  2  0  0  0  0  0  0
  189.4910  177.3120  142.8920 C   0  0  0  0  0  0  0  0  0  0  0  0
  187.7570  178.0880  140.8630 C   0  0  0  0  0  0  0  0  0  0  0  0
  184.5460  179.3810  140.5230 N   0  0  0  0  0  1  0  0  0  0  0  0
  186.7730  178.5130  140.0540 N   0  0  0  0  0  2  0  0  0  0  0  0
  187.7090  177.8590  144.6420 C   0  0  0  0  0  2  0  0  0  0  0  0
  188.2070  177.8220  143.2220 C   0  0  0  0  0  0  0  0  0  0  0  0
  189.4120  177.5050  139.0530 C   0  0  2  0  0  3  0  0  0  0  0  0
  189.5890  175.0390  137.3670 C   0  0  0  0  0  2  0  0  0  0  0  0
  191.7630  177.1900  139.3980 O   0  0  0  0  0  0  0  0  0  0  0  0
  190.7110  176.7800  138.8350 C   0  0  0  0  0  0  0  0  0  0  0  0
  191.9630  174.8410  137.7940 C   0  0  0  0  0  2  0  0  0  0  0  0
  190.7530  175.6020  138.0210 N   0  0  0  0  0  0  0  0  0  0  0  0
  190.0560  173.7310  136.7580 C   0  0  0  0  0  2  0  0  0  0  0  0
  191.5770  173.7370  136.8270 C   0  0  0  0  0  2  0  0  0  0  0  0
  189.3080  178.8360  138.3040 C   0  0  0  0  0  2  0  0  0  0  0  0
  188.9710  178.6620  136.8270 C   0  0  0  0  0  2  0  0  0  0  0  0
  187.4840  178.8600  136.5950 C   0  0  0  0  0  2  0  0  0  0  0  0
  186.8760  177.6270  135.9500 C   0  0  0  0  0  2  0  0  0  0  0  0
  184.8520  177.6480  137.3200 O   0  0  0  0  0  0  0  0  0  0  0  0
  185.9690  176.9790  136.8800 N   0  0  0  0  0  0  0  0  0  0  0  0
  186.1080  175.7670  137.1410 O   0  0  0  0  0  0  0  0  0  0  0  0
  1 10  1  0  0  0  0
  2  7  1  1  0  0  0
  2  6  1  0  0  0  0
  4 11  1  0  0  0  0
  4  1  2  0  0  0  0
  5  3  2  0  0  0  0
  6  9  1  0  0  0  0
  8  3  1  0  0  0  0
  8 15  1  0  0  0  0
 10 15  2  0  0  0  0
 10  2  1  0  0  0  0
 11  8  2  0  0  0  0
 12  5  1  0  0  0  0
 13 11  1  0  0  0  0
 13  5  1  0  0  0  0
 14  9  1  0  0  0  0
 15 14  1  0  0  0  0
 16 24  1  1  0  0  0
 16  4  1  0  0  0  0
 17 21  1  0  0  0  0
 19 16  1  0  0  0  0
 19 18  2  0  0  0  0
 20 21  1  0  0  0  0
 21 19  1  0  0  0  0
 22 23  1  0  0  0  0
 22 17  1  0  0  0  0
 23 20  1  0  0  0  0
 25 24  1  0  0  0  0
 26 25  1  0  0  0  0
 27 26  1  0  0  0  0
 27 29  1  0  0  0  0
 29 30  2  0  0  0  0
 29 28  2  0  0  0  0
M  END
>  <MODEL>
3

>  <REMARK>
 VINA RESULT:      -7.5      3.638      7.588
  Name = 
  7 active torsions:
  status: ('A' for Active; 'I' for Inactive)
    1  A    between atoms: C_4  and  C_13
    2  A    between atoms: C_7  and  N_15
    3  A    between atoms: C_7  and  C_16
    4  A    between atoms: C_8  and  C_13
    5  A    between atoms: C_13  and  C_27
    6  A    between atoms: C_16  and  C_30
    7  A    between atoms: C_27  and  C_30
                            x       y       z     vdW  Elec       q    Type
                         _______ _______ _______ _____ _____    ______ ____

>  <TORSDO>
F 7

$$$$
=
 OpenBabel10262421533D

 30 33  0  0  1  0  0  0  0  0999 V2000
  187.5070  178.5020  140.7830 C   0  0  0  0  0  3  0  0  0  0  0  0
  185.4010  179.0890  142.0230 C   0  0  2  0  0  3  0  0  0  0  0  0
  189.3300  176.6840  143.9730 N   0  0  0  0  0  0  0  0  0  0  0  0
  188.7850  177.9150  140.6930 C   0  0  0  0  0  0  0  0  0  0  0  0
  190.4540  176.3310  143.2980 C   0  0  0  0  0  0  0  0  0  0  0  0
  184.9190  179.3850  143.4460 C   0  0  0  0  0  2  0  0  0  0  0  0
  184.4190  178.1660  141.3200 C   0  0  0  0  0  1  0  0  0  0  0  0
  188.6110  177.3050  143.0230 C   0  0  0  0  0  0  0  0  0  0  0  0
  185.1620  178.1850  144.3570 C   0  0  0  0  0  2  0  0  0  0  0  0
  186.7860  178.4960  141.9980 C   0  0  0  0  0  0  0  0  0  0  0  0
  189.2990  177.3160  141.8450 C   0  0  0  0  0  0  0  0  0  0  0  0
  191.5260  175.6310  143.9180 N   0  0  0  0  0  1  0  0  0  0  0  0
  190.4810  176.6970  141.9930 N   0  0  0  0  0  2  0  0  0  0  0  0
  186.6600  177.9310  144.4890 C   0  0  0  0  0  2  0  0  0  0  0  0
  187.3450  177.8770  143.1490 C   0  0  0  0  0  0  0  0  0  0  0  0
  189.5590  177.8940  139.4040 C   0  0  2  0  0  3  0  0  0  0  0  0
  187.6270  176.3820  137.6910 C   0  0  0  0  0  2  0  0  0  0  0  0
  189.0580  179.7510  137.9740 O   0  0  0  0  0  0  0  0  0  0  0  0
  188.8330  178.5420  138.2580 C   0  0  0  0  0  0  0  0  0  0  0  0
  187.2080  178.3370  136.3270 C   0  0  0  0  0  2  0  0  0  0  0  0
  187.9160  177.7830  137.4620 N   0  0  0  0  0  0  0  0  0  0  0  0
  186.7440  175.9530  136.5350 C   0  0  0  0  0  2  0  0  0  0  0  0
  186.3000  177.2270  135.8300 C   0  0  0  0  0  2  0  0  0  0  0  0
  190.1620  176.5280  139.0670 C   0  0  0  0  0  2  0  0  0  0  0  0
  191.5910  176.6210  138.5460 C   0  0  0  0  0  2  0  0  0  0  0  0
  191.7060  175.9520  137.1880 C   0  0  0  0  0  2  0  0  0  0  0  0
  192.7820  174.8800  137.2100 C   0  0  0  0  0  2  0  0  0  0  0  0
  194.4630  176.4870  136.4600 O   0  0  0  0  0  0  0  0  0  0  0  0
  194.0900  175.4950  137.3350 N   0  0  0  0  0  0  0  0  0  0  0  0
  194.8000  175.2500  138.3310 O   0  0  0  0  0  0  0  0  0  0  0  0
  1 10  1  0  0  0  0
  2  7  1  1  0  0  0
  2  6  1  0  0  0  0
  4  1  2  0  0  0  0
  4 11  1  0  0  0  0
  5 12  1  0  0  0  0
  5  3  2  0  0  0  0
  6  9  1  0  0  0  0
  8 15  1  0  0  0  0
  8  3  1  0  0  0  0
  9 14  1  0  0  0  0
 10  2  1  0  0  0  0
 10 15  2  0  0  0  0
 11 13  1  0  0  0  0
 11  8  2  0  0  0  0
 13  5  1  0  0  0  0
 15 14  1  0  0  0  0
 16 24  1  6  0  0  0
 16  4  1  0  0  0  0
 18 19  2  0  0  0  0
 19 16  1  0  0  0  0
 20 21  1  0  0  0  0
 21 17  1  0  0  0  0
 21 19  1  0  0  0  0
 22 17  1  0  0  0  0
 23 20  1  0  0  0  0
 23 22  1  0  0  0  0
 25 24  1  0  0  0  0
 26 27  1  0  0  0  0
 26 25  1  0  0  0  0
 27 29  1  0  0  0  0
 28 29  2  0  0  0  0
 29 30  2  0  0  0  0
M  END
>  <MODEL>
4

>  <REMARK>
 VINA RESULT:      -7.4      3.966      7.252
  Name = 
  7 active torsions:
  status: ('A' for Active; 'I' for Inactive)
    1  A    between atoms: C_4  and  C_13
    2  A    between atoms: C_7  and  N_15
    3  A    between atoms: C_7  and  C_16
    4  A    between atoms: C_8  and  C_13
    5  A    between atoms: C_13  and  C_27
    6  A    between atoms: C_16  and  C_30
    7  A    between atoms: C_27  and  C_30
                            x       y       z     vdW  Elec       q    Type
                         _______ _______ _______ _____ _____    ______ ____

>  <TORSDO>
F 7

$$$$
=
 OpenBabel10262421533D

 30 33  0  0  1  0  0  0  0  0999 V2000
  188.0830  177.3090  138.9630 C   0  0  0  0  0  3  0  0  0  0  0  0
  187.3400  176.7110  136.6390 C   0  0  2  0  0  3  0  0  0  0  0  0
  192.0770  176.7400  138.2410 N   0  0  0  0  0  0  0  0  0  0  0  0
  189.0700  177.5250  139.9470 C   0  0  0  0  0  0  0  0  0  0  0  0
  192.4890  177.0990  139.4850 C   0  0  0  0  0  0  0  0  0  0  0  0
  187.7850  175.8610  135.4450 C   0  0  0  0  0  2  0  0  0  0  0  0
  186.8570  178.0710  136.1620 C   0  0  0  0  0  1  0  0  0  0  0  0
  190.7460  176.8870  138.3280 C   0  0  0  0  0  0  0  0  0  0  0  0
  189.1420  176.3290  134.9270 C   0  0  0  0  0  2  0  0  0  0  0  0
  188.4310  176.8730  137.6660 C   0  0  0  0  0  0  0  0  0  0  0  0
  190.3990  177.3080  139.5790 C   0  0  0  0  0  0  0  0  0  0  0  0
  193.8600  177.0980  139.8640 N   0  0  0  0  0  1  0  0  0  0  0  0
  191.4970  177.4530  140.3400 N   0  0  0  0  0  2  0  0  0  0  0  0
  190.2070  176.1040  135.9950 C   0  0  0  0  0  2  0  0  0  0  0  0
  189.7950  176.6620  137.3320 C   0  0  0  0  0  0  0  0  0  0  0  0
  188.7220  178.0070  141.3280 C   0  0  2  0  0  3  0  0  0  0  0  0
  190.6650  178.7840  143.4660 C   0  0  0  0  0  2  0  0  0  0  0  0
  188.6790  175.8770  142.4260 O   0  0  0  0  0  0  0  0  0  0  0  0
  189.1320  177.0550  142.4160 C   0  0  0  0  0  0  0  0  0  0  0  0
  190.5250  176.5900  144.4790 C   0  0  0  0  0  2  0  0  0  0  0  0
  190.0660  177.4660  143.4220 N   0  0  0  0  0  0  0  0  0  0  0  0
  191.6950  178.7270  144.5790 C   0  0  0  0  0  2  0  0  0  0  0  0
  191.4300  177.4410  145.3500 C   0  0  0  0  0  2  0  0  0  0  0  0
  187.2860  178.5210  141.4580 C   0  0  0  0  0  2  0  0  0  0  0  0
  186.6220  178.1070  142.7670 C   0  0  0  0  0  2  0  0  0  0  0  0
  185.1270  178.3600  142.7080 C   0  0  0  0  0  2  0  0  0  0  0  0
  184.7350  179.4670  143.6730 C   0  0  0  0  0  2  0  0  0  0  0  0
  184.1200  178.9870  145.9880 O   0  0  0  0  0  0  0  0  0  0  0  0
  183.7950  178.9570  144.6530 N   0  0  0  0  0  0  0  0  0  0  0  0
  182.6350  178.6560  144.3050 O   0  0  0  0  0  0  0  0  0  0  0  0
  1  4  1  0  0  0  0
  2  7  1  6  0  0  0
  2 10  1  0  0  0  0
  3  8  1  0  0  0  0
  3  5  2  0  0  0  0
  4 16  1  0  0  0  0
  5 12  1  0  0  0  0
  5 13  1  0  0  0  0
  6  2  1  0  0  0  0
  8 11  1  0  0  0  0
  9  6  1  0  0  0  0
  9 14  1  0  0  0  0
 10  1  2  0  0  0  0
 11  4  2  0  0  0  0
 11 13  1  0  0  0  0
 14 15  1  0  0  0  0
 15 10  1  0  0  0  0
 15  8  2  0  0  0  0
 16 24  1  6  0  0  0
 16 19  1  0  0  0  0
 17 22  1  0  0  0  0
 19 18  2  0  0  0  0
 19 21  1  0  0  0  0
 20 23  1  0  0  0  0
 21 17  1  0  0  0  0
 21 20  1  0  0  0  0
 22 23  1  0  0  0  0
 24 25  1  0  0  0  0
 26 25  1  0  0  0  0
 26 27  1  0  0  0  0
 27 29  1  0  0  0  0
 29 28  2  0  0  0  0
 30 29  2  0  0  0  0
M  END
>  <MODEL>
5

>  <REMARK>
 VINA RESULT:      -7.3      3.488      5.590
  Name = 
  7 active torsions:
  status: ('A' for Active; 'I' for Inactive)
    1  A    between atoms: C_4  and  C_13
    2  A    between atoms: C_7  and  N_15
    3  A    between atoms: C_7  and  C_16
    4  A    between atoms: C_8  and  C_13
    5  A    between atoms: C_13  and  C_27
    6  A    between atoms: C_16  and  C_30
    7  A    between atoms: C_27  and  C_30
                            x       y       z     vdW  Elec       q    Type
                         _______ _______ _______ _____ _____    ______ ____

>  <TORSDO>
F 7

$$$$
=
 OpenBabel10262421533D

 30 33  0  0  1  0  0  0  0  0999 V2000
  187.2540  177.3970  143.7600 C   0  0  0  0  0  3  0  0  0  0  0  0
  186.0210  177.6680  145.9330 C   0  0  2  0  0  3  0  0  0  0  0  0
  184.4530  179.3440  141.4890 N   0  0  0  0  0  0  0  0  0  0  0  0
  187.4080  177.5970  142.3730 C   0  0  0  0  0  0  0  0  0  0  0  0
  185.1320  179.2340  140.3190 C   0  0  0  0  0  0  0  0  0  0  0  0
  184.5930  177.8320  146.4610 C   0  0  0  0  0  2  0  0  0  0  0  0
  186.9560  178.6330  146.6440 C   0  0  0  0  0  1  0  0  0  0  0  0
  185.2780  178.7350  142.3560 C   0  0  0  0  0  0  0  0  0  0  0  0
  183.9550  179.1000  145.9010 C   0  0  0  0  0  2  0  0  0  0  0  0
  186.1070  177.8610  144.4410 C   0  0  0  0  0  0  0  0  0  0  0  0
  186.3910  178.2840  141.7080 C   0  0  0  0  0  0  0  0  0  0  0  0
  184.6280  179.7520  139.0930 N   0  0  0  0  0  1  0  0  0  0  0  0
  186.3230  178.5910  140.4020 N   0  0  0  0  0  2  0  0  0  0  0  0
  183.8090  178.9800  144.3870 C   0  0  0  0  0  2  0  0  0  0  0  0
  185.0930  178.5540  143.7270 C   0  0  0  0  0  0  0  0  0  0  0  0
  188.6310  177.1280  141.6350 C   0  0  2  0  0  3  0  0  0  0  0  0
  190.3620  178.7620  143.4460 C   0  0  0  0  0  2  0  0  0  0  0  0
  189.8480  175.2530  142.4990 O   0  0  0  0  0  0  0  0  0  0  0  0
  189.6660  176.5010  142.5260 C   0  0  0  0  0  0  0  0  0  0  0  0
  191.5100  176.7840  144.2390 C   0  0  0  0  0  2  0  0  0  0  0  0
  190.4760  177.3200  143.3790 N   0  0  0  0  0  0  0  0  0  0  0  0
  191.5000  179.2200  144.3390 C   0  0  0  0  0  2  0  0  0  0  0  0
  192.0550  177.9710  145.0110 C   0  0  0  0  0  2  0  0  0  0  0  0
  189.1940  178.1600  140.6550 C   0  0  0  0  0  2  0  0  0  0  0  0
  190.2790  177.5890  139.7480 C   0  0  0  0  0  2  0  0  0  0  0  0
  189.6660  176.6990  138.6820 C   0  0  0  0  0  2  0  0  0  0  0  0
  189.6680  177.4010  137.3350 C   0  0  0  0  0  2  0  0  0  0  0  0
  189.0070  179.7530  137.2800 O   0  0  0  0  0  0  0  0  0  0  0  0
  188.6430  178.4280  137.3120 N   0  0  0  0  0  0  0  0  0  0  0  0
  187.4480  178.1110  137.1480 O   0  0  0  0  0  0  0  0  0  0  0  0
  1 10  1  0  0  0  0
  2  6  1  0  0  0  0
  2  7  1  1  0  0  0
  3  8  1  0  0  0  0
  4  1  2  0  0  0  0
  5 13  1  0  0  0  0
  5  3  2  0  0  0  0
  8 15  1  0  0  0  0
  9  6  1  0  0  0  0
 10  2  1  0  0  0  0
 11  8  2  0  0  0  0
 11  4  1  0  0  0  0
 12  5  1  0  0  0  0
 13 11  1  0  0  0  0
 14  9  1  0  0  0  0
 15 14  1  0  0  0  0
 15 10  2  0  0  0  0
 16 24  1  1  0  0  0
 16  4  1  0  0  0  0
 16 19  1  0  0  0  0
 17 22  1  0  0  0  0
 18 19  2  0  0  0  0
 19 21  1  0  0  0  0
 20 23  1  0  0  0  0
 21 17  1  0  0  0  0
 21 20  1  0  0  0  0
 22 23  1  0  0  0  0
 25 24  1  0  0  0  0
 26 25  1  0  0  0  0
 27 26  1  0  0  0  0
 28 29  2  0  0  0  0
 29 27  1  0  0  0  0
 30 29  2  0  0  0  0
M  END
>  <MODEL>
6

>  <REMARK>
 VINA RESULT:      -7.2      2.480      5.495
  Name = 
  7 active torsions:
  status: ('A' for Active; 'I' for Inactive)
    1  A    between atoms: C_4  and  C_13
    2  A    between atoms: C_7  and  N_15
    3  A    between atoms: C_7  and  C_16
    4  A    between atoms: C_8  and  C_13
    5  A    between atoms: C_13  and  C_27
    6  A    between atoms: C_16  and  C_30
    7  A    between atoms: C_27  and  C_30
                            x       y       z     vdW  Elec       q    Type
                         _______ _______ _______ _____ _____    ______ ____

>  <TORSDO>
F 7

$$$$
=
 OpenBabel10262421533D

 30 33  0  0  1  0  0  0  0  0999 V2000
  187.3260  177.3110  143.7810 C   0  0  0  0  0  3  0  0  0  0  0  0
  186.1780  177.5490  146.0040 C   0  0  2  0  0  3  0  0  0  0  0  0
  184.4660  179.3380  141.6590 N   0  0  0  0  0  0  0  0  0  0  0  0
  187.4300  177.5390  142.3930 C   0  0  0  0  0  0  0  0  0  0  0  0
  185.0990  179.2450  140.4610 C   0  0  0  0  0  0  0  0  0  0  0  0
  184.7730  177.7180  146.5880 C   0  0  0  0  0  2  0  0  0  0  0  0
  187.1510  178.4870  146.7000 C   0  0  0  0  0  1  0  0  0  0  0  0
  185.3150  178.7010  142.4800 C   0  0  0  0  0  0  0  0  0  0  0  0
  184.1300  179.0050  146.0790 C   0  0  0  0  0  2  0  0  0  0  0  0
  186.2110  177.7720  144.5140 C   0  0  0  0  0  0  0  0  0  0  0  0
  186.3970  178.2510  141.7820 C   0  0  0  0  0  0  0  0  0  0  0  0
  184.5560  179.7950  139.2670 N   0  0  0  0  0  1  0  0  0  0  0  0
  186.2850  178.5870  140.4860 N   0  0  0  0  0  2  0  0  0  0  0  0
  183.9260  178.9180  144.5700 C   0  0  0  0  0  2  0  0  0  0  0  0
  185.1790  178.4920  143.8540 C   0  0  0  0  0  0  0  0  0  0  0  0
  188.6190  177.0710  141.6000 C   0  0  2  0  0  3  0  0  0  0  0  0
  190.1960  179.0250  143.2270 C   0  0  0  0  0  2  0  0  0  0  0  0
  190.1350  175.4330  142.4720 O   0  0  0  0  0  0  0  0  0  0  0  0
  189.7800  176.6440  142.4540 C   0  0  0  0  0  0  0  0  0  0  0  0
  191.6540  177.2710  144.0360 C   0  0  0  0  0  2  0  0  0  0  0  0
  190.5100  177.6110  143.2180 N   0  0  0  0  0  0  0  0  0  0  0  0
  191.3040  179.6830  144.0270 C   0  0  0  0  0  2  0  0  0  0  0  0
  192.0670  178.5620  144.7190 C   0  0  0  0  0  2  0  0  0  0  0  0
  189.0020  178.0090  140.4520 C   0  0  0  0  0  2  0  0  0  0  0  0
  189.6900  177.2870  139.2990 C   0  0  0  0  0  2  0  0  0  0  0  0
  191.1880  177.2230  139.5300 C   0  0  0  0  0  2  0  0  0  0  0  0
  191.8590  176.3850  138.4550 C   0  0  0  0  0  2  0  0  0  0  0  0
  193.9310  176.7030  137.1990 O   0  0  0  0  0  0  0  0  0  0  0  0
  193.2780  176.6850  138.4080 N   0  0  0  0  0  0  0  0  0  0  0  0
  193.8620  177.0930  139.4320 O   0  0  0  0  0  0  0  0  0  0  0  0
  1 10  1  0  0  0  0
  2  6  1  0  0  0  0
  2  7  1  1  0  0  0
  3  8  1  0  0  0  0
  4  1  2  0  0  0  0
  5 13  1  0  0  0  0
  5  3  2  0  0  0  0
  8 15  1  0  0  0  0
  9  6  1  0  0  0  0
 10  2  1  0  0  0  0
 11  4  1  0  0  0  0
 11  8  2  0  0  0  0
 12  5  1  0  0  0  0
 13 11  1  0  0  0  0
 14  9  1  0  0  0  0
 15 10  2  0  0  0  0
 15 14  1  0  0  0  0
 16 24  1  6  0  0  0
 16  4  1  0  0  0  0
 16 19  1  0  0  0  0
 17 22  1  0  0  0  0
 19 18  2  0  0  0  0
 19 21  1  0  0  0  0
 20 23  1  0  0  0  0
 21 17  1  0  0  0  0
 21 20  1  0  0  0  0
 22 23  1  0  0  0  0
 25 26  1  0  0  0  0
 25 24  1  0  0  0  0
 27 26  1  0  0  0  0
 28 29  2  0  0  0  0
 29 27  1  0  0  0  0
 29 30  2  0  0  0  0
M  END
>  <MODEL>
7

>  <REMARK>
 VINA RESULT:      -7.1      2.912      5.417
  Name = 
  7 active torsions:
  status: ('A' for Active; 'I' for Inactive)
    1  A    between atoms: C_4  and  C_13
    2  A    between atoms: C_7  and  N_15
    3  A    between atoms: C_7  and  C_16
    4  A    between atoms: C_8  and  C_13
    5  A    between atoms: C_13  and  C_27
    6  A    between atoms: C_16  and  C_30
    7  A    between atoms: C_27  and  C_30
                            x       y       z     vdW  Elec       q    Type
                         _______ _______ _______ _____ _____    ______ ____

>  <TORSDO>
F 7

$$$$
=
 OpenBabel10262421533D

 30 33  0  0  1  0  0  0  0  0999 V2000
  184.8940  178.2640  141.6550 C   0  0  0  0  0  3  0  0  0  0  0  0
  182.5300  178.4070  140.8150 C   0  0  2  0  0  3  0  0  0  0  0  0
  183.9460  178.9910  145.5760 N   0  0  0  0  0  0  0  0  0  0  0  0
  185.8640  178.2880  142.6790 C   0  0  0  0  0  0  0  0  0  0  0  0
  185.2160  178.8780  146.0420 C   0  0  0  0  0  0  0  0  0  0  0  0
  181.1960  179.0730  141.1650 C   0  0  0  0  0  2  0  0  0  0  0  0
  182.3030  176.9540  140.4280 C   0  0  0  0  0  1  0  0  0  0  0  0
  184.1030  178.7650  144.2620 C   0  0  0  0  0  0  0  0  0  0  0  0
  180.7160  178.6250  142.5430 C   0  0  0  0  0  2  0  0  0  0  0  0
  183.5300  178.4990  141.9380 C   0  0  0  0  0  0  0  0  0  0  0  0
  185.4180  178.5360  143.9780 C   0  0  0  0  0  0  0  0  0  0  0  0
  185.5410  179.0410  147.4170 N   0  0  0  0  0  1  0  0  0  0  0  0
  186.1530  178.6010  145.1010 N   0  0  0  0  0  2  0  0  0  0  0  0
  181.6930  179.1030  143.6110 C   0  0  0  0  0  2  0  0  0  0  0  0
  183.1170  178.7500  143.2740 C   0  0  0  0  0  0  0  0  0  0  0  0
  187.3170  178.0220  142.4000 C   0  0  2  0  0  3  0  0  0  0  0  0
  189.9590  177.1620  141.2900 C   0  0  0  0  0  2  0  0  0  0  0  0
  186.9470  178.9750  140.2330 O   0  0  0  0  0  0  0  0  0  0  0  0
  187.7200  178.3170  140.9820 C   0  0  0  0  0  0  0  0  0  0  0  0
  189.4560  178.1650  139.1460 C   0  0  0  0  0  2  0  0  0  0  0  0
  188.9950  177.8880  140.4890 N   0  0  0  0  0  0  0  0  0  0  0  0
  191.2060  177.0590  140.4320 C   0  0  0  0  0  2  0  0  0  0  0  0
  190.8020  177.4730  139.0250 C   0  0  0  0  0  2  0  0  0  0  0  0
  187.8060  176.6670  142.9180 C   0  0  0  0  0  2  0  0  0  0  0  0
  188.4310  176.7510  144.3060 C   0  0  0  0  0  2  0  0  0  0  0  0
  189.3690  177.9410  144.3960 C   0  0  0  0  0  2  0  0  0  0  0  0
  190.2360  177.8440  145.6410 C   0  0  0  0  0  2  0  0  0  0  0  0
  191.6810  176.4370  144.2610 O   0  0  0  0  0  0  0  0  0  0  0  0
  191.1790  176.7500  145.5010 N   0  0  0  0  0  0  0  0  0  0  0  0
  191.6620  176.2120  146.5180 O   0  0  0  0  0  0  0  0  0  0  0  0
  1 10  2  0  0  0  0
  1  4  1  0  0  0  0
  2  7  1  1  0  0  0
  2  6  1  0  0  0  0
  2 10  1  0  0  0  0
  3  5  2  0  0  0  0
  4 11  2  0  0  0  0
  5 12  1  0  0  0  0
  6  9  1  0  0  0  0
  8  3  1  0  0  0  0
  9 14  1  0  0  0  0
 10 15  1  0  0  0  0
 11  8  1  0  0  0  0
 11 13  1  0  0  0  0
 13  5  1  0  0  0  0
 15 14  1  0  0  0  0
 15  8  2  0  0  0  0
 16  4  1  0  0  0  0
 16 24  1  6  0  0  0
 18 19  2  0  0  0  0
 19 16  1  0  0  0  0
 20 21  1  0  0  0  0
 21 19  1  0  0  0  0
 21 17  1  0  0  0  0
 22 17  1  0  0  0  0
 23 20  1  0  0  0  0
 23 22  1  0  0  0  0
 24 25  1  0  0  0  0
 25 26  1  0  0  0  0
 26 27  1  0  0  0  0
 28 29  2  0  0  0  0
 29 27  1  0  0  0  0
 29 30  2  0  0  0  0
M  END
>  <MODEL>
8

>  <REMARK>
 VINA RESULT:      -7.1      2.335      3.924
  Name = 
  7 active torsions:
  status: ('A' for Active; 'I' for Inactive)
    1  A    between atoms: C_4  and  C_13
    2  A    between atoms: C_7  and  N_15
    3  A    between atoms: C_7  and  C_16
    4  A    between atoms: C_8  and  C_13
    5  A    between atoms: C_13  and  C_27
    6  A    between atoms: C_16  and  C_30
    7  A    between atoms: C_27  and  C_30
                            x       y       z     vdW  Elec       q    Type
                         _______ _______ _______ _____ _____    ______ ____

>  <TORSDO>
F 7

$$$$
=
 OpenBabel10262421533D

 30 33  0  0  1  0  0  0  0  0999 V2000
  190.4480  177.0470  141.4020 C   0  0  0  0  0  3  0  0  0  0  0  0
  190.6420  176.9180  143.9040 C   0  0  2  0  0  3  0  0  0  0  0  0
  186.6240  178.5200  141.3950 N   0  0  0  0  0  0  0  0  0  0  0  0
  189.7590  177.3630  140.2130 C   0  0  0  0  0  0  0  0  0  0  0  0
  186.5260  178.6270  140.0450 C   0  0  0  0  0  0  0  0  0  0  0  0
  189.7600  176.7510  145.1440 C   0  0  0  0  0  2  0  0  0  0  0  0
  191.6770  178.0060  144.1410 C   0  0  0  0  0  1  0  0  0  0  0  0
  187.8670  178.0390  141.5540 C   0  0  0  0  0  0  0  0  0  0  0  0
  188.7540  177.8940  145.2470 C   0  0  0  0  0  2  0  0  0  0  0  0
  189.8400  177.2200  142.6650 C   0  0  0  0  0  0  0  0  0  0  0  0
  188.4640  177.8680  140.3380 C   0  0  0  0  0  0  0  0  0  0  0  0
  185.3520  179.1090  139.4020 N   0  0  0  0  0  1  0  0  0  0  0  0
  187.6280  178.2390  139.3550 N   0  0  0  0  0  2  0  0  0  0  0  0
  187.7930  177.8440  144.0640 C   0  0  0  0  0  2  0  0  0  0  0  0
  188.5190  177.7350  142.7500 C   0  0  0  0  0  0  0  0  0  0  0  0
  190.3970  177.2040  138.8610 C   0  0  2  0  0  3  0  0  0  0  0  0
  189.0380  177.9810  136.3110 C   0  0  0  0  0  2  0  0  0  0  0  0
  189.6560  174.9850  138.3400 O   0  0  0  0  0  0  0  0  0  0  0  0
  189.7040  176.1960  137.9870 C   0  0  0  0  0  0  0  0  0  0  0  0
  188.3560  175.6960  135.9030 C   0  0  0  0  0  2  0  0  0  0  0  0
  189.0650  176.6090  136.7740 N   0  0  0  0  0  0  0  0  0  0  0  0
  188.1330  177.9850  135.0940 C   0  0  0  0  0  2  0  0  0  0  0  0
  187.9100  176.5270  134.7140 C   0  0  0  0  0  2  0  0  0  0  0  0
  191.9180  177.0440  138.9110 C   0  0  0  0  0  2  0  0  0  0  0  0
  192.4870  176.3770  137.6640 C   0  0  0  0  0  2  0  0  0  0  0  0
  193.0310  175.0000  137.9980 C   0  0  0  0  0  2  0  0  0  0  0  0
  194.5130  174.9190  137.6730 C   0  0  0  0  0  2  0  0  0  0  0  0
  195.4350  175.5480  139.8470 O   0  0  0  0  0  0  0  0  0  0  0  0
  195.2640  174.5950  138.8720 N   0  0  0  0  0  0  0  0  0  0  0  0
  195.6020  173.4150  139.0940 O   0  0  0  0  0  0  0  0  0  0  0  0
  1 10  1  0  0  0  0
  2  7  1  1  0  0  0
  2  6  1  0  0  0  0
  3  8  1  0  0  0  0
  4 11  1  0  0  0  0
  4  1  2  0  0  0  0
  5  3  2  0  0  0  0
  6  9  1  0  0  0  0
  8 15  1  0  0  0  0
 10 15  2  0  0  0  0
 10  2  1  0  0  0  0
 11  8  2  0  0  0  0
 12  5  1  0  0  0  0
 13  5  1  0  0  0  0
 13 11  1  0  0  0  0
 14  9  1  0  0  0  0
 15 14  1  0  0  0  0
 16 24  1  1  0  0  0
 16  4  1  0  0  0  0
 17 21  1  0  0  0  0
 19 18  2  0  0  0  0
 19 16  1  0  0  0  0
 20 21  1  0  0  0  0
 21 19  1  0  0  0  0
 22 17  1  0  0  0  0
 23 22  1  0  0  0  0
 23 20  1  0  0  0  0
 25 26  1  0  0  0  0
 25 24  1  0  0  0  0
 27 26  1  0  0  0  0
 27 29  1  0  0  0  0
 29 30  2  0  0  0  0
 29 28  2  0  0  0  0
M  END
>  <MODEL>
9

>  <REMARK>
 VINA RESULT:      -7.0      4.280      7.820
  Name = 
  7 active torsions:
  status: ('A' for Active; 'I' for Inactive)
    1  A    between atoms: C_4  and  C_13
    2  A    between atoms: C_7  and  N_15
    3  A    between atoms: C_7  and  C_16
    4  A    between atoms: C_8  and  C_13
    5  A    between atoms: C_13  and  C_27
    6  A    between atoms: C_16  and  C_30
    7  A    between atoms: C_27  and  C_30
                            x       y       z     vdW  Elec       q    Type
                         _______ _______ _______ _____ _____    ______ ____

>  <TORSDO>
F 7

$$$$
