=
 OpenBabel10262420583D

 28 31  0  0  1  0  0  0  0  0999 V2000
  186.4740  176.2430  136.2380 C   0  0  2  0  0  0  0  0  0  0  0  0
  185.9740  175.0950  135.3160 C   0  0  2  0  0  3  0  0  0  0  0  0
  187.4800  178.6150  135.8850 C   0  0  0  0  0  2  0  0  0  0  0  0
  183.5840  175.5010  136.0250 C   0  0  1  0  0  3  0  0  0  0  0  0
  184.0380  176.6670  136.8920 C   0  0  0  0  0  2  0  0  0  0  0  0
  188.1830  177.5950  138.6330 C   0  0  2  0  0  3  0  0  0  0  0  0
  185.4620  176.4300  137.3940 C   0  0  0  0  0  2  0  0  0  0  0  0
  189.0950  179.7370  137.9900 O   0  0  0  0  0  1  0  0  0  0  0  0
  189.0340  176.5740  135.9660 C   0  0  1  0  0  0  0  0  0  0  0  0
  188.1240  176.1020  138.2770 C   0  0  0  0  0  2  0  0  0  0  0  0
  190.4090  176.0620  136.3840 C   0  0  0  0  0  1  0  0  0  0  0  0
  188.8890  178.0860  136.2430 C   0  0  2  0  0  3  0  0  0  0  0  0
  188.8970  176.3190  134.5980 O   0  0  0  0  0  1  0  0  0  0  0  0
  182.1840  175.7650  135.5140 C   0  0  0  0  0  1  0  0  0  0  0  0
  189.1650  178.3660  137.7320 C   0  0  2  0  0  3  0  0  0  0  0  0
  186.5040  177.5400  135.3870 C   0  0  0  0  0  2  0  0  0  0  0  0
  187.9130  175.8730  136.7620 C   0  0  1  0  0  3  0  0  0  0  0  0
  184.5330  175.3250  134.8420 C   0  0  0  0  0  2  0  0  0  0  0  0
  189.7250  177.3480  140.6110 C   0  0  0  0  0  3  0  0  0  0  0  0
  187.5510  178.3730  140.9420 C   0  0  0  0  0  0  0  0  0  0  0  0
  189.0690  178.1110  142.8130 C   0  0  0  0  0  0  0  0  0  0  0  0
  188.4950  177.7770  140.0890 C   0  0  0  0  0  0  0  0  0  0  0  0
  187.8410  178.5380  142.2990 C   0  0  0  0  0  3  0  0  0  0  0  0
  186.3240  178.8020  140.4490 O   0  0  0  0  0  1  0  0  0  0  0  0
  189.3470  178.2730  144.1280 F   0  0  0  0  0  0  0  0  0  0  0  0
  190.0110  177.5150  141.9690 C   0  0  0  0  0  3  0  0  0  0  0  0
  186.0890  173.7070  135.9470 C   0  0  0  0  0  2  0  0  0  0  0  0
  185.7460  172.6420  134.9250 C   0  0  0  0  0  1  0  0  0  0  0  0
  1 16  1  6  0  0  0
  1 17  1  0  0  0  0
  1  7  1  0  0  0  0
  2 27  1  1  0  0  0
  2  1  1  0  0  0  0
  4 14  1  6  0  0  0
  4  5  1  0  0  0  0
  5  7  1  0  0  0  0
  6 22  1  1  0  0  0
  9 12  1  0  0  0  0
  9 11  1  1  0  0  0
  9 17  1  0  0  0  0
 10  6  1  0  0  0  0
 12  3  1  1  0  0  0
 12 15  1  0  0  0  0
 13  9  1  0  0  0  0
 15  8  1  6  0  0  0
 15  6  1  0  0  0  0
 16  3  1  0  0  0  0
 17 10  1  1  0  0  0
 18  2  1  0  0  0  0
 18  4  1  0  0  0  0
 19 26  1  0  0  0  0
 20 23  2  0  0  0  0
 21 25  1  0  0  0  0
 22 19  2  0  0  0  0
 22 20  1  0  0  0  0
 23 21  1  0  0  0  0
 24 20  1  0  0  0  0
 26 21  2  0  0  0  0
 28 27  1  0  0  0  0
M  END
>  <MODEL>
1

>  <REMARK>
 VINA RESULT:      -6.0      0.000      0.000
  Name = 
  2 active torsions:
  status: ('A' for Active; 'I' for Inactive)
    1  A    between atoms: C_2  and  C_3
    2  A    between atoms: C_10  and  C_13
                            x       y       z     vdW  Elec       q    Type
                         _______ _______ _______ _____ _____    ______ ____

>  <TORSDO>
F 2

$$$$
=
 OpenBabel10262420583D

 28 31  0  0  1  0  0  0  0  0999 V2000
  181.9730  175.6840  137.7310 C   0  0  2  0  0  0  0  0  0  0  0  0
  182.2670  174.4500  136.8310 C   0  0  2  0  0  3  0  0  0  0  0  0
  181.2240  178.1420  137.3380 C   0  0  0  0  0  2  0  0  0  0  0  0
  180.2050  173.2710  137.6870 C   0  0  1  0  0  3  0  0  0  0  0  0
  179.8600  174.4870  138.5350 C   0  0  0  0  0  2  0  0  0  0  0  0
  182.5580  177.8880  140.0290 C   0  0  2  0  0  3  0  0  0  0  0  0
  181.1350  175.2230  138.9470 C   0  0  0  0  0  2  0  0  0  0  0  0
  181.8670  180.1000  139.3500 O   0  0  0  0  0  1  0  0  0  0  0  0
  183.7220  177.5540  137.3060 C   0  0  1  0  0  0  0  0  0  0  0  0
  183.4420  176.6850  139.6630 C   0  0  0  0  0  2  0  0  0  0  0  0
  185.1290  178.0430  137.6350 C   0  0  0  0  0  1  0  0  0  0  0  0
  182.6650  178.6390  137.6040 C   0  0  2  0  0  3  0  0  0  0  0  0
  183.7060  177.2260  135.9470 O   0  0  0  0  0  1  0  0  0  0  0  0
  178.9310  172.5720  137.2640 C   0  0  0  0  0  1  0  0  0  0  0  0
  182.7780  179.0770  139.0760 C   0  0  2  0  0  3  0  0  0  0  0  0
  181.1280  176.6770  136.8910 C   0  0  0  0  0  2  0  0  0  0  0  0
  183.3450  176.3260  138.1620 C   0  0  1  0  0  3  0  0  0  0  0  0
  180.9850  173.6990  136.4470 C   0  0  0  0  0  2  0  0  0  0  0  0
  184.0500  178.3070  142.0170 C   0  0  0  0  0  3  0  0  0  0  0  0
  181.6540  178.5930  142.2700 C   0  0  0  0  0  0  0  0  0  0  0  0
  183.1310  178.9830  144.1510 C   0  0  0  0  0  0  0  0  0  0  0  0
  182.7600  178.2720  141.4640 C   0  0  0  0  0  0  0  0  0  0  0  0
  181.8430  178.9470  143.6080 C   0  0  0  0  0  3  0  0  0  0  0  0
  180.3660  178.5620  141.7470 O   0  0  0  0  0  1  0  0  0  0  0  0
  183.3090  179.3270  145.4490 F   0  0  0  0  0  0  0  0  0  0  0  0
  184.2340  178.6620  143.3560 C   0  0  0  0  0  3  0  0  0  0  0  0
  183.2700  173.4710  137.4400 C   0  0  0  0  0  2  0  0  0  0  0  0
  183.5960  172.3750  136.4460 C   0  0  0  0  0  1  0  0  0  0  0  0
  1 16  1  6  0  0  0
  1 17  1  0  0  0  0
  1  7  1  0  0  0  0
  2 27  1  1  0  0  0
  2  1  1  0  0  0  0
  4 14  1  6  0  0  0
  4  5  1  0  0  0  0
  5  7  1  0  0  0  0
  6 22  1  1  0  0  0
  9 12  1  0  0  0  0
  9 11  1  1  0  0  0
  9 17  1  0  0  0  0
 10  6  1  0  0  0  0
 12  3  1  1  0  0  0
 12 15  1  0  0  0  0
 13  9  1  0  0  0  0
 15  8  1  1  0  0  0
 15  6  1  0  0  0  0
 16  3  1  0  0  0  0
 17 10  1  1  0  0  0
 18  2  1  0  0  0  0
 18  4  1  0  0  0  0
 19 26  1  0  0  0  0
 20 23  2  0  0  0  0
 21 25  1  0  0  0  0
 22 19  2  0  0  0  0
 22 20  1  0  0  0  0
 23 21  1  0  0  0  0
 24 20  1  0  0  0  0
 26 21  2  0  0  0  0
 28 27  1  0  0  0  0
M  END
>  <MODEL>
2

>  <REMARK>
 VINA RESULT:      -5.7      4.067      5.499
  Name = 
  2 active torsions:
  status: ('A' for Active; 'I' for Inactive)
    1  A    between atoms: C_2  and  C_3
    2  A    between atoms: C_10  and  C_13
                            x       y       z     vdW  Elec       q    Type
                         _______ _______ _______ _____ _____    ______ ____

>  <TORSDO>
F 2

$$$$
=
 OpenBabel10262420583D

 28 31  0  0  1  0  0  0  0  0999 V2000
  180.6810  177.0970  138.7770 C   0  0  2  0  0  0  0  0  0  0  0  0
  180.7370  176.4370  137.3710 C   0  0  2  0  0  3  0  0  0  0  0  0
  179.1060  178.7740  139.9890 C   0  0  0  0  0  2  0  0  0  0  0  0
  180.1640  174.1820  138.3530 C   0  0  1  0  0  3  0  0  0  0  0  0
  180.0460  174.8120  139.7340 C   0  0  0  0  0  2  0  0  0  0  0  0
  181.8050  178.7390  141.3310 C   0  0  2  0  0  3  0  0  0  0  0  0
  180.9780  176.0180  139.8460 C   0  0  0  0  0  2  0  0  0  0  0  0
  180.1750  180.3060  142.1820 O   0  0  0  0  0  1  0  0  0  0  0  0
  181.0710  179.6570  138.5930 C   0  0  1  0  0  0  0  0  0  0  0  0
  182.6030  178.3140  140.0900 C   0  0  0  0  0  2  0  0  0  0  0  0
  182.1260  180.7510  138.4660 C   0  0  0  0  0  1  0  0  0  0  0  0
  180.1450  179.9060  139.8030 C   0  0  2  0  0  3  0  0  0  0  0  0
  180.3280  179.6600  137.4090 O   0  0  0  0  0  1  0  0  0  0  0  0
  179.2150  173.0070  138.2490 C   0  0  0  0  0  1  0  0  0  0  0  0
  180.9910  180.0230  141.0840 C   0  0  2  0  0  3  0  0  0  0  0  0
  179.2350  177.6210  138.9850 C   0  0  0  0  0  2  0  0  0  0  0  0
  181.7250  178.2760  138.8180 C   0  0  1  0  0  3  0  0  0  0  0  0
  179.8220  175.2080  137.2750 C   0  0  0  0  0  2  0  0  0  0  0  0
  184.0700  179.1680  142.3490 C   0  0  0  0  0  3  0  0  0  0  0  0
  182.2010  178.6780  143.8170 C   0  0  0  0  0  0  0  0  0  0  0  0
  184.4000  179.0970  144.7460 C   0  0  0  0  0  0  0  0  0  0  0  0
  182.7100  178.8670  142.5200 C   0  0  0  0  0  0  0  0  0  0  0  0
  183.0470  178.7940  144.9230 C   0  0  0  0  0  3  0  0  0  0  0  0
  180.8580  178.3750  144.0120 O   0  0  0  0  0  1  0  0  0  0  0  0
  185.2150  179.2090  145.8210 F   0  0  0  0  0  0  0  0  0  0  0  0
  184.9120  179.2840  143.4590 C   0  0  0  0  0  3  0  0  0  0  0  0
  182.1490  176.0590  136.9260 C   0  0  0  0  0  2  0  0  0  0  0  0
  182.4630  176.7010  135.5900 C   0  0  0  0  0  1  0  0  0  0  0  0
  1 17  1  0  0  0  0
  1 16  1  1  0  0  0
  1  7  1  0  0  0  0
  2 27  1  1  0  0  0
  2  1  1  0  0  0  0
  4 14  1  1  0  0  0
  4  5  1  0  0  0  0
  5  7  1  0  0  0  0
  6 22  1  1  0  0  0
  9 11  1  6  0  0  0
  9 17  1  0  0  0  0
  9 12  1  0  0  0  0
 10  6  1  0  0  0  0
 12  3  1  1  0  0  0
 12 15  1  0  0  0  0
 13  9  1  0  0  0  0
 15  6  1  0  0  0  0
 15  8  1  1  0  0  0
 16  3  1  0  0  0  0
 17 10  1  1  0  0  0
 18  2  1  0  0  0  0
 18  4  1  0  0  0  0
 19 22  2  0  0  0  0
 19 26  1  0  0  0  0
 20 24  1  0  0  0  0
 20 23  2  0  0  0  0
 21 23  1  0  0  0  0
 21 25  1  0  0  0  0
 22 20  1  0  0  0  0
 26 21  2  0  0  0  0
 28 27  1  0  0  0  0
M  END
>  <MODEL>
3

>  <REMARK>
 VINA RESULT:      -5.3      5.427      6.925
  Name = 
  2 active torsions:
  status: ('A' for Active; 'I' for Inactive)
    1  A    between atoms: C_2  and  C_3
    2  A    between atoms: C_10  and  C_13
                            x       y       z     vdW  Elec       q    Type
                         _______ _______ _______ _____ _____    ______ ____

>  <TORSDO>
F 2

$$$$
=
 OpenBabel10262420583D

 28 31  0  0  1  0  0  0  0  0999 V2000
  189.9410  176.4640  137.4030 C   0  0  2  0  0  0  0  0  0  0  0  0
  191.0470  177.0060  138.3520 C   0  0  2  0  0  3  0  0  0  0  0  0
  188.8020  177.2760  135.2110 C   0  0  0  0  0  2  0  0  0  0  0  0
  192.6350  175.1830  137.6230 C   0  0  1  0  0  3  0  0  0  0  0  0
  191.5920  174.6640  136.6430 C   0  0  0  0  0  2  0  0  0  0  0  0
  187.0410  175.2660  136.6060 C   0  0  2  0  0  3  0  0  0  0  0  0
  190.1850  174.9550  137.1650 C   0  0  0  0  0  2  0  0  0  0  0  0
  186.1710  176.2800  134.5940 O   0  0  0  0  0  1  0  0  0  0  0  0
  187.8480  177.9970  137.4820 C   0  0  1  0  0  0  0  0  0  0  0  0
  187.5610  175.5450  138.0240 C   0  0  0  0  0  2  0  0  0  0  0  0
  186.5780  178.3340  138.2570 C   0  0  0  0  0  1  0  0  0  0  0  0
  187.5370  177.6830  136.0030 C   0  0  2  0  0  3  0  0  0  0  0  0
  188.6940  179.1060  137.5710 O   0  0  0  0  0  1  0  0  0  0  0  0
  194.0210  174.9130  137.0760 C   0  0  0  0  0  1  0  0  0  0  0  0
  186.5080  176.5390  135.9240 C   0  0  2  0  0  3  0  0  0  0  0  0
  190.0850  177.2110  136.0510 C   0  0  0  0  0  2  0  0  0  0  0  0
  188.5370  176.7430  138.0610 C   0  0  1  0  0  3  0  0  0  0  0  0
  192.4560  176.6840  137.8360 C   0  0  0  0  0  2  0  0  0  0  0  0
  184.7650  174.3770  137.2220 C   0  0  0  0  0  3  0  0  0  0  0  0
  186.3130  172.9200  136.0530 C   0  0  0  0  0  0  0  0  0  0  0  0
  184.1120  172.1130  136.6690 C   0  0  0  0  0  0  0  0  0  0  0  0
  186.0180  174.1690  136.6260 C   0  0  0  0  0  0  0  0  0  0  0  0
  185.3600  171.8980  136.0760 C   0  0  0  0  0  3  0  0  0  0  0  0
  187.5490  172.6880  135.4600 O   0  0  0  0  0  1  0  0  0  0  0  0
  183.1920  171.1200  136.6890 F   0  0  0  0  0  0  0  0  0  0  0  0
  183.8150  173.3520  137.2430 C   0  0  0  0  0  3  0  0  0  0  0  0
  190.9080  176.5230  139.7950 C   0  0  0  0  0  2  0  0  0  0  0  0
  191.6630  177.4490  140.7280 C   0  0  0  0  0  1  0  0  0  0  0  0
  1 16  1  6  0  0  0
  1 17  1  0  0  0  0
  1  2  1  0  0  0  0
  2 27  1  1  0  0  0
  3 16  1  0  0  0  0
  4 14  1  6  0  0  0
  4 18  1  0  0  0  0
  5  7  1  0  0  0  0
  5  4  1  0  0  0  0
  6 22  1  1  0  0  0
  6 10  1  0  0  0  0
  7  1  1  0  0  0  0
  9 13  1  0  0  0  0
  9 17  1  0  0  0  0
  9 11  1  1  0  0  0
 12  3  1  6  0  0  0
 12  9  1  0  0  0  0
 15  8  1  6  0  0  0
 15 12  1  0  0  0  0
 15  6  1  0  0  0  0
 17 10  1  6  0  0  0
 18  2  1  0  0  0  0
 19 26  1  0  0  0  0
 20 23  2  0  0  0  0
 20 22  1  0  0  0  0
 21 25  1  0  0  0  0
 21 26  2  0  0  0  0
 22 19  2  0  0  0  0
 23 21  1  0  0  0  0
 24 20  1  0  0  0  0
 27 28  1  0  0  0  0
M  END
>  <MODEL>
4

>  <REMARK>
 VINA RESULT:      -5.1      3.071      6.832
  Name = 
  2 active torsions:
  status: ('A' for Active; 'I' for Inactive)
    1  A    between atoms: C_2  and  C_3
    2  A    between atoms: C_10  and  C_13
                            x       y       z     vdW  Elec       q    Type
                         _______ _______ _______ _____ _____    ______ ____

>  <TORSDO>
F 2

$$$$
=
 OpenBabel10262420583D

 28 31  0  0  1  0  0  0  0  0999 V2000
  181.8380  178.3310  140.6710 C   0  0  2  0  0  0  0  0  0  0  0  0
  181.2040  178.9160  141.9640 C   0  0  2  0  0  3  0  0  0  0  0  0
  182.4740  179.2520  138.3240 C   0  0  0  0  0  2  0  0  0  0  0  0
  183.3990  178.7030  143.1950 C   0  0  1  0  0  3  0  0  0  0  0  0
  184.0610  178.1810  141.9280 C   0  0  0  0  0  2  0  0  0  0  0  0
  182.1790  176.2540  138.2100 C   0  0  2  0  0  3  0  0  0  0  0  0
  183.0400  177.4400  141.0650 C   0  0  0  0  0  2  0  0  0  0  0  0
  182.6520  177.3910  136.1320 O   0  0  0  0  0  1  0  0  0  0  0  0
  180.1120  178.3360  138.7320 C   0  0  1  0  0  0  0  0  0  0  0  0
  181.1870  176.1400  139.3770 C   0  0  0  0  0  2  0  0  0  0  0  0
  178.9310  177.5950  138.1130 C   0  0  0  0  0  1  0  0  0  0  0  0
  181.2390  178.5590  137.7010 C   0  0  2  0  0  3  0  0  0  0  0  0
  179.6320  179.5650  139.1950 O   0  0  0  0  0  1  0  0  0  0  0  0
  184.4160  179.4590  144.0230 C   0  0  0  0  0  1  0  0  0  0  0  0
  181.6720  177.2040  137.1100 C   0  0  2  0  0  3  0  0  0  0  0  0
  182.3590  179.5260  139.8290 C   0  0  0  0  0  2  0  0  0  0  0  0
  180.7310  177.5260  139.8910 C   0  0  1  0  0  3  0  0  0  0  0  0
  182.2410  179.6330  142.8400 C   0  0  0  0  0  2  0  0  0  0  0  0
  181.5010  173.9540  137.4350 C   0  0  0  0  0  3  0  0  0  0  0  0
  183.8520  174.5550  137.4020 C   0  0  0  0  0  0  0  0  0  0  0  0
  183.1480  172.3550  136.6680 C   0  0  0  0  0  0  0  0  0  0  0  0
  182.5150  174.8960  137.6700 C   0  0  0  0  0  0  0  0  0  0  0  0
  184.1630  173.2880  136.9020 C   0  0  0  0  0  3  0  0  0  0  0  0
  184.8740  175.4700  137.6290 O   0  0  0  0  0  1  0  0  0  0  0  0
  183.4550  171.1280  136.1830 F   0  0  0  0  0  0  0  0  0  0  0  0
  181.8180  172.6880  136.9350 C   0  0  0  0  0  3  0  0  0  0  0  0
  180.4540  177.8810  142.8020 C   0  0  0  0  0  2  0  0  0  0  0  0
  179.7780  178.5570  143.9790 C   0  0  0  0  0  1  0  0  0  0  0  0
  1 16  1  6  0  0  0
  1  7  1  0  0  0  0
  1  2  1  0  0  0  0
  2 27  1  1  0  0  0
  2 18  1  0  0  0  0
  3 16  1  0  0  0  0
  4 14  1  1  0  0  0
  5  4  1  0  0  0  0
  6 22  1  6  0  0  0
  6 10  1  0  0  0  0
  7  5  1  0  0  0  0
  9 11  1  6  0  0  0
  9 13  1  0  0  0  0
  9 17  1  0  0  0  0
 12  3  1  1  0  0  0
 12  9  1  0  0  0  0
 15  8  1  6  0  0  0
 15 12  1  0  0  0  0
 15  6  1  0  0  0  0
 17 10  1  6  0  0  0
 17  1  1  0  0  0  0
 18  4  1  0  0  0  0
 19 22  1  0  0  0  0
 20 24  1  0  0  0  0
 20 22  2  0  0  0  0
 21 23  2  0  0  0  0
 21 26  1  0  0  0  0
 23 20  1  0  0  0  0
 25 21  1  0  0  0  0
 26 19  2  0  0  0  0
 27 28  1  0  0  0  0
M  END
>  <MODEL>
5

>  <REMARK>
 VINA RESULT:      -5.0      5.062      8.544
  Name = 
  2 active torsions:
  status: ('A' for Active; 'I' for Inactive)
    1  A    between atoms: C_2  and  C_3
    2  A    between atoms: C_10  and  C_13
                            x       y       z     vdW  Elec       q    Type
                         _______ _______ _______ _____ _____    ______ ____

>  <TORSDO>
F 2

$$$$
=
 OpenBabel10262420583D

 28 31  0  0  1  0  0  0  0  0999 V2000
  181.0950  177.2700  138.7410 C   0  0  2  0  0  0  0  0  0  0  0  0
  181.0170  177.3270  137.1890 C   0  0  2  0  0  3  0  0  0  0  0  0
  179.3930  176.9790  140.6840 C   0  0  0  0  0  2  0  0  0  0  0  0
  182.1770  175.0910  137.0000 C   0  0  1  0  0  3  0  0  0  0  0  0
  182.2160  174.9820  138.5180 C   0  0  0  0  0  2  0  0  0  0  0  0
  181.9170  178.2680  141.7090 C   0  0  2  0  0  3  0  0  0  0  0  0
  182.2890  176.3730  139.1470 C   0  0  0  0  0  2  0  0  0  0  0  0
  180.1090  177.9860  143.2860 O   0  0  0  0  0  1  0  0  0  0  0  0
  179.9050  179.3270  139.7840 C   0  0  1  0  0  0  0  0  0  0  0  0
  182.3270  178.9140  140.3770 C   0  0  0  0  0  2  0  0  0  0  0  0
  180.0500  180.8030  140.1440 C   0  0  0  0  0  1  0  0  0  0  0  0
  179.4850  178.4880  141.0100 C   0  0  2  0  0  3  0  0  0  0  0  0
  178.9310  179.2400  138.7840 O   0  0  0  0  0  1  0  0  0  0  0  0
  182.0760  173.7080  136.3950 C   0  0  0  0  0  1  0  0  0  0  0  0
  180.5030  178.6920  142.1470 C   0  0  2  0  0  3  0  0  0  0  0  0
  179.7830  176.6130  139.2460 C   0  0  0  0  0  2  0  0  0  0  0  0
  181.2430  178.7400  139.2880 C   0  0  1  0  0  3  0  0  0  0  0  0
  180.9750  175.9260  136.5630 C   0  0  0  0  0  2  0  0  0  0  0  0
  182.5510  179.0380  144.0240 C   0  0  0  0  0  3  0  0  0  0  0  0
  184.3050  178.3310  142.5040 C   0  0  0  0  0  0  0  0  0  0  0  0
  184.8620  179.0820  144.7400 C   0  0  0  0  0  0  0  0  0  0  0  0
  182.9420  178.5490  142.7680 C   0  0  0  0  0  0  0  0  0  0  0  0
  185.2590  178.5970  143.4900 C   0  0  0  0  0  3  0  0  0  0  0  0
  184.7180  177.8510  141.2660 O   0  0  0  0  0  1  0  0  0  0  0  0
  185.7900  179.3370  145.6930 F   0  0  0  0  0  0  0  0  0  0  0  0
  183.5090  179.3020  145.0070 C   0  0  0  0  0  3  0  0  0  0  0  0
  182.1410  178.1400  136.5470 C   0  0  0  0  0  2  0  0  0  0  0  0
  182.0580  178.0410  135.0370 C   0  0  0  0  0  1  0  0  0  0  0  0
  1  7  1  1  0  0  0
  1 16  1  0  0  0  0
  1 17  1  0  0  0  0
  2 27  1  6  0  0  0
  2  1  1  0  0  0  0
  4 14  1  6  0  0  0
  4  5  1  0  0  0  0
  5  7  1  0  0  0  0
  6 15  1  0  0  0  0
  6 22  1  1  0  0  0
  9 11  1  1  0  0  0
  9 12  1  0  0  0  0
 10  6  1  0  0  0  0
 12  3  1  6  0  0  0
 12 15  1  0  0  0  0
 13  9  1  0  0  0  0
 15  8  1  1  0  0  0
 16  3  1  0  0  0  0
 17  9  1  0  0  0  0
 17 10  1  1  0  0  0
 18  4  1  0  0  0  0
 18  2  1  0  0  0  0
 19 26  1  0  0  0  0
 20 22  1  0  0  0  0
 20 23  2  0  0  0  0
 21 26  2  0  0  0  0
 21 25  1  0  0  0  0
 22 19  2  0  0  0  0
 23 21  1  0  0  0  0
 24 20  1  0  0  0  0
 28 27  1  0  0  0  0
M  END
>  <MODEL>
6

>  <REMARK>
 VINA RESULT:      -5.0      4.989      7.110
  Name = 
  2 active torsions:
  status: ('A' for Active; 'I' for Inactive)
    1  A    between atoms: C_2  and  C_3
    2  A    between atoms: C_10  and  C_13
                            x       y       z     vdW  Elec       q    Type
                         _______ _______ _______ _____ _____    ______ ____

>  <TORSDO>
F 2

$$$$
=
 OpenBabel10262420583D

 28 31  0  0  1  0  0  0  0  0999 V2000
  183.1710  178.4710  140.7440 C   0  0  2  0  0  0  0  0  0  0  0  0
  184.5180  178.0880  141.4200 C   0  0  2  0  0  3  0  0  0  0  0  0
  181.0920  177.1800  139.8670 C   0  0  0  0  0  2  0  0  0  0  0  0
  183.7710  179.1160  143.6030 C   0  0  1  0  0  3  0  0  0  0  0  0
  182.4220  179.4520  142.9840 C   0  0  0  0  0  2  0  0  0  0  0  0
  181.2420  179.8980  138.5710 C   0  0  2  0  0  3  0  0  0  0  0  0
  182.5740  179.6920  141.4830 C   0  0  0  0  0  2  0  0  0  0  0  0
  179.4650  178.4310  137.8450 O   0  0  0  0  0  1  0  0  0  0  0  0
  183.0920  177.5770  138.3090 C   0  0  1  0  0  0  0  0  0  0  0  0
  182.7660  180.0550  138.6890 C   0  0  0  0  0  2  0  0  0  0  0  0
  183.5280  177.8380  136.8700 C   0  0  0  0  0  1  0  0  0  0  0  0
  181.5640  177.3830  138.4070 C   0  0  2  0  0  3  0  0  0  0  0  0
  183.7540  176.4220  138.7380 O   0  0  0  0  0  1  0  0  0  0  0  0
  183.5980  178.8530  145.0840 C   0  0  0  0  0  1  0  0  0  0  0  0
  180.8500  178.6130  137.8170 C   0  0  2  0  0  3  0  0  0  0  0  0
  182.2090  177.2660  140.9150 C   0  0  0  0  0  2  0  0  0  0  0  0
  183.4430  178.7710  139.2220 C   0  0  1  0  0  3  0  0  0  0  0  0
  184.3640  177.8780  142.9330 C   0  0  0  0  0  2  0  0  0  0  0  0
  180.8590  181.4200  136.5990 C   0  0  0  0  0  3  0  0  0  0  0  0
  179.8370  181.9810  138.7270 C   0  0  0  0  0  0  0  0  0  0  0  0
  179.5010  183.4130  136.8010 C   0  0  0  0  0  0  0  0  0  0  0  0
  180.6330  181.1200  137.9510 C   0  0  0  0  0  0  0  0  0  0  0  0
  179.2740  183.1220  138.1490 C   0  0  0  0  0  3  0  0  0  0  0  0
  179.6020  181.7070  140.0700 O   0  0  0  0  0  1  0  0  0  0  0  0
  178.9520  184.5200  136.2460 F   0  0  0  0  0  0  0  0  0  0  0  0
  180.2930  182.5630  136.0260 C   0  0  0  0  0  3  0  0  0  0  0  0
  185.6440  179.0870  141.1550 C   0  0  0  0  0  2  0  0  0  0  0  0
  186.9410  178.5800  141.7530 C   0  0  0  0  0  1  0  0  0  0  0  0
  1 16  1  1  0  0  0
  1  2  1  0  0  0  0
  1  7  1  0  0  0  0
  2 27  1  1  0  0  0
  2 18  1  0  0  0  0
  3 16  1  0  0  0  0
  4 14  1  1  0  0  0
  5  4  1  0  0  0  0
  6 22  1  6  0  0  0
  6 10  1  0  0  0  0
  7  5  1  0  0  0  0
  9 11  1  6  0  0  0
  9 12  1  0  0  0  0
  9 13  1  0  0  0  0
  9 17  1  0  0  0  0
 12  3  1  1  0  0  0
 15  8  1  1  0  0  0
 15 12  1  0  0  0  0
 15  6  1  0  0  0  0
 17 10  1  6  0  0  0
 17  1  1  0  0  0  0
 18  4  1  0  0  0  0
 19 22  1  0  0  0  0
 20 24  1  0  0  0  0
 21 23  2  0  0  0  0
 22 20  2  0  0  0  0
 23 20  1  0  0  0  0
 25 21  1  0  0  0  0
 26 19  2  0  0  0  0
 26 21  1  0  0  0  0
 27 28  1  0  0  0  0
M  END
>  <MODEL>
7

>  <REMARK>
 VINA RESULT:      -4.9      5.642      8.668
  Name = 
  2 active torsions:
  status: ('A' for Active; 'I' for Inactive)
    1  A    between atoms: C_2  and  C_3
    2  A    between atoms: C_10  and  C_13
                            x       y       z     vdW  Elec       q    Type
                         _______ _______ _______ _____ _____    ______ ____

>  <TORSDO>
F 2

$$$$
=
 OpenBabel10262420583D

 28 31  0  0  1  0  0  0  0  0999 V2000
  181.4180  177.7230  138.0360 C   0  0  2  0  0  0  0  0  0  0  0  0
  180.1270  177.5820  138.8910 C   0  0  2  0  0  3  0  0  0  0  0  0
  181.9620  177.9240  135.5020 C   0  0  0  0  0  2  0  0  0  0  0  0
  180.4200  179.9180  139.8070 C   0  0  1  0  0  3  0  0  0  0  0  0
  181.6550  180.1060  138.9370 C   0  0  0  0  0  2  0  0  0  0  0  0
  184.3920  176.9660  137.0060 C   0  0  2  0  0  3  0  0  0  0  0  0
  182.3480  178.7630  138.7060 C   0  0  0  0  0  2  0  0  0  0  0  0
  184.5810  177.1290  134.6040 O   0  0  0  0  0  1  0  0  0  0  0  0
  181.7770  175.6040  136.5820 C   0  0  1  0  0  0  0  0  0  0  0  0
  183.6240  176.3040  138.1600 C   0  0  0  0  0  2  0  0  0  0  0  0
  182.3040  174.1720  136.5740 C   0  0  0  0  0  1  0  0  0  0  0  0
  182.4340  176.4510  135.4720 C   0  0  2  0  0  3  0  0  0  0  0  0
  180.3950  175.5360  136.3820 O   0  0  0  0  0  1  0  0  0  0  0  0
  179.7310  181.2520  140.0010 C   0  0  0  0  0  1  0  0  0  0  0  0
  183.9660  176.4140  135.6340 C   0  0  2  0  0  3  0  0  0  0  0  0
  180.9930  178.2590  136.6430 C   0  0  0  0  0  2  0  0  0  0  0  0
  182.0960  176.3070  137.9180 C   0  0  1  0  0  3  0  0  0  0  0  0
  179.4540  178.9380  139.1450 C   0  0  0  0  0  2  0  0  0  0  0  0
  186.5690  175.7170  136.7760 C   0  0  0  0  0  3  0  0  0  0  0  0
  186.5690  177.8740  137.8870 C   0  0  0  0  0  0  0  0  0  0  0  0
  188.6360  176.6320  137.6420 C   0  0  0  0  0  0  0  0  0  0  0  0
  185.8720  176.8500  137.2240 C   0  0  0  0  0  0  0  0  0  0  0  0
  187.9470  177.7620  138.0930 C   0  0  0  0  0  3  0  0  0  0  0  0
  185.9000  179.0040  138.3440 O   0  0  0  0  0  1  0  0  0  0  0  0
  189.9710  176.5290  137.8430 F   0  0  0  0  0  0  0  0  0  0  0  0
  187.9470  175.6100  136.9840 C   0  0  0  0  0  3  0  0  0  0  0  0
  180.3480  176.8650  140.2230 C   0  0  0  0  0  2  0  0  0  0  0  0
  179.4300  175.6640  140.3250 C   0  0  0  0  0  1  0  0  0  0  0  0
  1 16  1  6  0  0  0
  1  7  1  0  0  0  0
  1  2  1  0  0  0  0
  2 18  1  0  0  0  0
  2 27  1  1  0  0  0
  3 16  1  0  0  0  0
  4 14  1  6  0  0  0
  5  4  1  0  0  0  0
  6 22  1  1  0  0  0
  6 10  1  0  0  0  0
  7  5  1  0  0  0  0
  9 11  1  6  0  0  0
  9 17  1  0  0  0  0
 12  3  1  1  0  0  0
 12 15  1  0  0  0  0
 12  9  1  0  0  0  0
 13  9  1  0  0  0  0
 15  8  1  6  0  0  0
 15  6  1  0  0  0  0
 17  1  1  0  0  0  0
 17 10  1  6  0  0  0
 18  4  1  0  0  0  0
 19 26  2  0  0  0  0
 19 22  1  0  0  0  0
 20 23  1  0  0  0  0
 20 24  1  0  0  0  0
 21 25  1  0  0  0  0
 21 23  2  0  0  0  0
 22 20  2  0  0  0  0
 26 21  1  0  0  0  0
 27 28  1  0  0  0  0
M  END
>  <MODEL>
8

>  <REMARK>
 VINA RESULT:      -4.8      3.734      6.141
  Name = 
  2 active torsions:
  status: ('A' for Active; 'I' for Inactive)
    1  A    between atoms: C_2  and  C_3
    2  A    between atoms: C_10  and  C_13
                            x       y       z     vdW  Elec       q    Type
                         _______ _______ _______ _____ _____    ______ ____

>  <TORSDO>
F 2

$$$$
=
 OpenBabel10262420583D

 28 31  0  0  1  0  0  0  0  0999 V2000
  182.6160  177.1470  137.8830 C   0  0  2  0  0  0  0  0  0  0  0  0
  183.0610  177.0010  136.4010 C   0  0  2  0  0  3  0  0  0  0  0  0
  180.3550  177.4520  139.1300 C   0  0  0  0  0  2  0  0  0  0  0  0
  183.6910  174.5840  136.7770 C   0  0  1  0  0  3  0  0  0  0  0  0
  183.2090  174.6820  138.2180 C   0  0  0  0  0  2  0  0  0  0  0  0
  182.6300  178.3790  140.8770 C   0  0  2  0  0  3  0  0  0  0  0  0
  183.3820  176.1100  138.7380 C   0  0  0  0  0  2  0  0  0  0  0  0
  180.3930  178.6610  141.7440 O   0  0  0  0  0  1  0  0  0  0  0  0
  181.6400  179.5150  138.3070 C   0  0  1  0  0  0  0  0  0  0  0  0
  183.5830  178.7450  139.7300 C   0  0  0  0  0  2  0  0  0  0  0  0
  181.9860  180.9730  138.5940 C   0  0  0  0  0  1  0  0  0  0  0  0
  180.6700  178.9490  139.3650 C   0  0  2  0  0  3  0  0  0  0  0  0
  181.0500  179.4720  137.0400 O   0  0  0  0  0  1  0  0  0  0  0  0
  183.4860  173.1730  136.2700 C   0  0  0  0  0  1  0  0  0  0  0  0
  181.2820  179.1160  140.7680 C   0  0  2  0  0  3  0  0  0  0  0  0
  181.1000  176.8230  137.9450 C   0  0  0  0  0  2  0  0  0  0  0  0
  182.9010  178.6260  138.3470 C   0  0  1  0  0  3  0  0  0  0  0  0
  182.9140  175.5590  135.8960 C   0  0  0  0  0  2  0  0  0  0  0  0
  182.5250  178.9570  143.3280 C   0  0  0  0  0  3  0  0  0  0  0  0
  184.6850  178.4850  142.3270 C   0  0  0  0  0  0  0  0  0  0  0  0
  184.5310  179.0470  144.6800 C   0  0  0  0  0  0  0  0  0  0  0  0
  183.2900  178.6090  142.2040 C   0  0  0  0  0  0  0  0  0  0  0  0
  185.2990  178.7030  143.5640 C   0  0  0  0  0  3  0  0  0  0  0  0
  185.4640  178.1450  141.2280 O   0  0  0  0  0  1  0  0  0  0  0  0
  185.1310  179.2570  145.8760 F   0  0  0  0  0  0  0  0  0  0  0  0
  183.1450  179.1740  144.5620 C   0  0  0  0  0  3  0  0  0  0  0  0
  184.4830  177.4930  136.1350 C   0  0  0  0  0  2  0  0  0  0  0  0
  184.8440  177.2780  134.6790 C   0  0  0  0  0  1  0  0  0  0  0  0
  1 16  1  1  0  0  0
  1 17  1  0  0  0  0
  1  7  1  0  0  0  0
  2 27  1  1  0  0  0
  2  1  1  0  0  0  0
  4 14  1  6  0  0  0
  4  5  1  0  0  0  0
  5  7  1  0  0  0  0
  6 22  1  1  0  0  0
  9 17  1  0  0  0  0
  9 11  1  1  0  0  0
  9 12  1  0  0  0  0
 10  6  1  0  0  0  0
 12  3  1  6  0  0  0
 12 15  1  0  0  0  0
 13  9  1  0  0  0  0
 15  6  1  0  0  0  0
 15  8  1  1  0  0  0
 16  3  1  0  0  0  0
 17 10  1  1  0  0  0
 18  2  1  0  0  0  0
 18  4  1  0  0  0  0
 19 26  1  0  0  0  0
 20 23  2  0  0  0  0
 21 25  1  0  0  0  0
 22 20  1  0  0  0  0
 22 19  2  0  0  0  0
 23 21  1  0  0  0  0
 24 20  1  0  0  0  0
 26 21  2  0  0  0  0
 28 27  1  0  0  0  0
M  END
>  <MODEL>
9

>  <REMARK>
 VINA RESULT:      -4.5      3.883      5.984
  Name = 
  2 active torsions:
  status: ('A' for Active; 'I' for Inactive)
    1  A    between atoms: C_2  and  C_3
    2  A    between atoms: C_10  and  C_13
                            x       y       z     vdW  Elec       q    Type
                         _______ _______ _______ _____ _____    ______ ____

>  <TORSDO>
F 2

$$$$
