=
 OpenBabel10262423333D

 34 38  0  0  1  0  0  0  0  0999 V2000
  189.9970  176.2730  144.1660 C   0  0  1  0  0  3  0  0  0  0  0  0
  187.1810  177.9310  146.2740 C   0  0  0  0  0  2  0  0  0  0  0  0
  184.8220  179.0880  144.0560 C   0  0  0  0  0  0  0  0  0  0  0  0
  189.4640  177.3030  146.7780 N   0  0  0  0  0  2  0  0  0  0  0  0
  190.7870  177.5350  142.1950 N   0  0  0  0  0  0  0  0  0  0  0  0
  190.3700  176.2170  142.6780 C   0  0  0  0  0  2  0  0  0  0  0  0
  191.7420  178.1390  144.3740 C   0  0  2  0  0  3  0  0  0  0  0  0
  190.8630  179.2100  144.5620 O   0  0  0  0  0  1  0  0  0  0  0  0
  184.0210  179.6020  145.1160 N   0  0  0  0  0  1  0  0  0  0  0  0
  192.0120  177.9500  142.8830 C   0  0  0  0  0  2  0  0  0  0  0  0
  190.8150  177.0080  146.4180 C   0  0  0  0  0  0  0  0  0  0  0  0
  191.1780  176.8380  144.9750 C   0  0  1  0  0  3  0  0  0  0  0  0
  191.7490  177.1290  147.3010 N   0  0  0  0  0  2  0  0  0  0  0  0
  185.8720  177.4770  145.6490 C   0  0  0  0  0  2  0  0  0  0  0  0
  184.7090  179.5860  142.9040 O   0  0  0  0  0  0  0  0  0  0  0  0
  185.7460  178.0150  144.2960 N   0  0  0  0  0  0  0  0  0  0  0  0
  186.5600  177.5180  143.1800 C   0  0  0  0  0  2  0  0  0  0  0  0
  188.3260  176.9900  145.9180 C   0  0  2  0  0  3  0  0  0  0  0  0
  187.5650  176.4480  143.5920 C   0  0  0  0  0  2  0  0  0  0  0  0
  188.6950  177.0540  144.4220 C   0  0  2  0  0  3  0  0  0  0  0  0
  191.0050  177.4980  140.7410 C   0  0  0  0  0  2  0  0  0  0  0  0
  187.6140  178.5120  139.3790 N   0  0  0  0  0  0  0  0  0  0  0  0
  189.5830  176.4830  138.8390 C   0  0  0  0  0  2  0  0  0  0  0  0
  186.0570  175.9770  136.1260 C   0  0  0  0  0  2  0  0  0  0  0  0
  186.4730  178.2290  137.2750 C   0  0  0  0  0  2  0  0  0  0  0  0
  187.2410  177.5180  138.3790 C   0  0  1  0  0  3  0  0  0  0  0  0
  185.4630  177.3080  136.5970 C   0  0  0  0  0  2  0  0  0  0  0  0
  188.5220  176.0990  136.7070 C   0  0  0  0  0  3  0  0  0  0  0  0
  188.4660  176.7690  137.8750 C   0  0  0  0  0  0  0  0  0  0  0  0
  187.4950  176.0730  135.6050 C   0  0  2  0  0  3  0  0  0  0  0  0
  189.7430  177.5160  139.9200 C   0  0  2  0  0  3  0  0  0  0  0  0
  188.8170  178.4470  140.1480 C   0  0  0  0  0  3  0  0  0  0  0  0
  187.7190  177.1930  134.5950 C   0  0  0  0  0  2  0  0  0  0  0  0
  189.0570  177.5860  134.6060 O   0  0  0  0  0  1  0  0  0  0  0  0
  1  6  1  6  0  0  0
  1 20  1  0  0  0  0
  1 12  1  0  0  0  0
  3 16  1  0  0  0  0
  3  9  1  0  0  0  0
  5  6  1  0  0  0  0
  5 10  1  0  0  0  0
  7  8  1  6  0  0  0
  7 12  1  0  0  0  0
 10  7  1  0  0  0  0
 11  4  1  0  0  0  0
 11 13  2  0  0  0  0
 12 11  1  1  0  0  0
 14  2  1  0  0  0  0
 15  3  2  0  0  0  0
 16 14  1  0  0  0  0
 17 19  1  0  0  0  0
 17 16  1  0  0  0  0
 18  2  1  6  0  0  0
 18  4  1  0  0  0  0
 20 19  1  6  0  0  0
 20 18  1  0  0  0  0
 21  5  1  0  0  0  0
 22 32  2  0  0  0  0
 23 31  1  0  0  0  0
 24 27  1  0  0  0  0
 26 25  1  6  0  0  0
 26 22  1  0  0  0  0
 27 25  1  0  0  0  0
 28 29  2  0  0  0  0
 29 26  1  0  0  0  0
 29 23  1  0  0  0  0
 30 33  1  1  0  0  0
 30 24  1  0  0  0  0
 30 28  1  0  0  0  0
 31 32  1  0  0  0  0
 31 21  1  6  0  0  0
 33 34  1  0  0  0  0
M  END
>  <MODEL>
1

>  <REMARK>
 VINA RESULT:     -10.0      0.000      0.000
  Name = 
  3 active torsions:
  status: ('A' for Active; 'I' for Inactive)
    1  A    between atoms: C_7  and  C_29
    2  A    between atoms: N_8  and  C_18
    3  A    between atoms: C_18  and  C_30
                            x       y       z     vdW  Elec       q    Type
                         _______ _______ _______ _____ _____    ______ ____

>  <TORSDO>
F 3

$$$$
=
 OpenBabel10262423333D

 34 38  0  0  1  0  0  0  0  0999 V2000
  189.9740  176.1880  143.8850 C   0  0  1  0  0  3  0  0  0  0  0  0
  187.4600  177.8230  146.3620 C   0  0  0  0  0  2  0  0  0  0  0  0
  184.8900  179.1070  144.4750 C   0  0  0  0  0  0  0  0  0  0  0  0
  189.7710  177.1310  146.5760 N   0  0  0  0  0  2  0  0  0  0  0  0
  190.5610  177.5060  141.8800 N   0  0  0  0  0  0  0  0  0  0  0  0
  190.1710  176.1790  142.3630 C   0  0  0  0  0  2  0  0  0  0  0  0
  191.7750  178.0100  143.9530 C   0  0  2  0  0  3  0  0  0  0  0  0
  190.9500  179.0910  144.2790 O   0  0  0  0  0  1  0  0  0  0  0  0
  184.2290  179.5980  145.6380 N   0  0  0  0  0  1  0  0  0  0  0  0
  191.8660  177.8710  142.4360 C   0  0  0  0  0  2  0  0  0  0  0  0
  191.0630  176.8230  146.0510 C   0  0  0  0  0  0  0  0  0  0  0  0
  191.2530  176.6990  144.5710 C   0  0  1  0  0  3  0  0  0  0  0  0
  192.0960  176.8920  146.8220 N   0  0  0  0  0  2  0  0  0  0  0  0
  186.0780  177.4180  145.8780 C   0  0  0  0  0  2  0  0  0  0  0  0
  184.6560  179.6490  143.3620 O   0  0  0  0  0  0  0  0  0  0  0  0
  185.8090  178.0080  144.5680 N   0  0  0  0  0  0  0  0  0  0  0  0
  186.4770  177.5370  143.3490 C   0  0  0  0  0  2  0  0  0  0  0  0
  188.5340  176.8730  145.8430 C   0  0  2  0  0  3  0  0  0  0  0  0
  187.4970  176.4330  143.6040 C   0  0  0  0  0  2  0  0  0  0  0  0
  188.7290  176.9850  144.3170 C   0  0  2  0  0  3  0  0  0  0  0  0
  190.6080  177.5190  140.4110 C   0  0  0  0  0  2  0  0  0  0  0  0
  187.7310  176.9780  138.0010 N   0  0  0  0  0  0  0  0  0  0  0  0
  188.2440  178.5540  140.3530 C   0  0  0  0  0  2  0  0  0  0  0  0
  184.1220  179.3770  138.8090 C   0  0  0  0  0  2  0  0  0  0  0  0
  185.3370  177.2270  138.1280 C   0  0  0  0  0  2  0  0  0  0  0  0
  186.6730  177.9060  138.3830 C   0  0  1  0  0  3  0  0  0  0  0  0
  184.2380  178.2320  137.7980 C   0  0  0  0  0  2  0  0  0  0  0  0
  185.8650  178.8850  140.5830 C   0  0  0  0  0  3  0  0  0  0  0  0
  186.8500  178.3670  139.8220 C   0  0  0  0  0  0  0  0  0  0  0  0
  184.3960  178.9710  140.2610 C   0  0  2  0  0  3  0  0  0  0  0  0
  189.2640  177.6340  139.7430 C   0  0  2  0  0  3  0  0  0  0  0  0
  189.0000  176.9130  138.6540 C   0  0  0  0  0  3  0  0  0  0  0  0
  183.6410  177.7260  140.7140 C   0  0  0  0  0  2  0  0  0  0  0  0
  182.3290  178.0590  141.0480 O   0  0  0  0  0  1  0  0  0  0  0  0
  1  6  1  6  0  0  0
  1 20  1  0  0  0  0
  1 12  1  0  0  0  0
  3 16  1  0  0  0  0
  3  9  1  0  0  0  0
  5  6  1  0  0  0  0
  5 10  1  0  0  0  0
  7  8  1  6  0  0  0
  7 12  1  0  0  0  0
 10  7  1  0  0  0  0
 11  4  1  0  0  0  0
 11 13  2  0  0  0  0
 12 11  1  1  0  0  0
 14  2  1  0  0  0  0
 15  3  2  0  0  0  0
 16 14  1  0  0  0  0
 17 19  1  0  0  0  0
 17 16  1  0  0  0  0
 18  2  1  1  0  0  0
 18  4  1  0  0  0  0
 20 19  1  6  0  0  0
 20 18  1  0  0  0  0
 21  5  1  0  0  0  0
 22 26  1  0  0  0  0
 22 32  2  0  0  0  0
 24 30  1  0  0  0  0
 26 25  1  1  0  0  0
 26 29  1  0  0  0  0
 27 25  1  0  0  0  0
 27 24  1  0  0  0  0
 29 23  1  0  0  0  0
 29 28  2  0  0  0  0
 30 28  1  0  0  0  0
 30 33  1  6  0  0  0
 31 23  1  0  0  0  0
 31 21  1  1  0  0  0
 32 31  1  0  0  0  0
 33 34  1  0  0  0  0
M  END
>  <MODEL>
2

>  <REMARK>
 VINA RESULT:      -9.7      2.025      2.820
  Name = 
  3 active torsions:
  status: ('A' for Active; 'I' for Inactive)
    1  A    between atoms: C_7  and  C_29
    2  A    between atoms: N_8  and  C_18
    3  A    between atoms: C_18  and  C_30
                            x       y       z     vdW  Elec       q    Type
                         _______ _______ _______ _____ _____    ______ ____

>  <TORSDO>
F 3

$$$$
=
 OpenBabel10262423333D

 34 38  0  0  1  0  0  0  0  0999 V2000
  189.8680  176.3270  143.3660 C   0  0  1  0  0  3  0  0  0  0  0  0
  187.4900  177.6140  146.1620 C   0  0  0  0  0  2  0  0  0  0  0  0
  184.7810  179.0360  144.5940 C   0  0  0  0  0  0  0  0  0  0  0  0
  189.8210  176.9600  146.1540 N   0  0  0  0  0  2  0  0  0  0  0  0
  190.3010  177.8740  141.4900 N   0  0  0  0  0  0  0  0  0  0  0  0
  189.9670  176.4920  141.8440 C   0  0  0  0  0  2  0  0  0  0  0  0
  191.6370  178.1740  143.5280 C   0  0  2  0  0  3  0  0  0  0  0  0
  190.8160  179.1910  144.0240 O   0  0  0  0  0  1  0  0  0  0  0  0
  184.1870  179.3780  145.8440 N   0  0  0  0  0  1  0  0  0  0  0  0
  191.6330  178.2070  142.0020 C   0  0  0  0  0  2  0  0  0  0  0  0
  191.0820  176.7440  145.5190 C   0  0  0  0  0  0  0  0  0  0  0  0
  191.1790  176.7900  144.0250 C   0  0  1  0  0  3  0  0  0  0  0  0
  192.1610  176.7530  146.2280 N   0  0  0  0  0  2  0  0  0  0  0  0
  186.0860  177.2310  145.7220 C   0  0  0  0  0  2  0  0  0  0  0  0
  184.4670  179.6930  143.5650 O   0  0  0  0  0  0  0  0  0  0  0  0
  185.7230  177.9570  144.5060 N   0  0  0  0  0  0  0  0  0  0  0  0
  186.3200  177.6400  143.2030 C   0  0  0  0  0  2  0  0  0  0  0  0
  188.5440  176.7540  145.4740 C   0  0  2  0  0  3  0  0  0  0  0  0
  187.3740  176.5400  143.2680 C   0  0  0  0  0  2  0  0  0  0  0  0
  188.6390  177.0400  143.9620 C   0  0  2  0  0  3  0  0  0  0  0  0
  190.2540  178.0510  140.0320 C   0  0  0  0  0  2  0  0  0  0  0  0
  190.3750  174.8870  137.9440 N   0  0  0  0  0  0  0  0  0  0  0  0
  192.2630  176.7530  139.0570 C   0  0  0  0  0  2  0  0  0  0  0  0
  194.4190  173.4810  136.8910 C   0  0  0  0  0  2  0  0  0  0  0  0
  191.9500  173.9390  136.3840 C   0  0  0  0  0  2  0  0  0  0  0  0
  191.7820  174.5440  137.7690 C   0  0  1  0  0  3  0  0  0  0  0  0
  193.0990  172.9380  136.3320 C   0  0  0  0  0  2  0  0  0  0  0  0
  193.9320  175.8800  137.5500 C   0  0  0  0  0  3  0  0  0  0  0  0
  192.6700  175.7580  138.0070 C   0  0  0  0  0  0  0  0  0  0  0  0
  194.6660  174.9660  136.6040 C   0  0  2  0  0  3  0  0  0  0  0  0
  190.7770  176.8790  139.2430 C   0  0  2  0  0  3  0  0  0  0  0  0
  189.9230  176.0030  138.7150 C   0  0  0  0  0  3  0  0  0  0  0  0
  194.4500  175.3640  135.1480 C   0  0  0  0  0  2  0  0  0  0  0  0
  194.5550  176.7490  135.0120 O   0  0  0  0  0  1  0  0  0  0  0  0
  1  6  1  6  0  0  0
  1 20  1  0  0  0  0
  1 12  1  0  0  0  0
  3  9  1  0  0  0  0
  5  6  1  0  0  0  0
  5 10  1  0  0  0  0
  7  8  1  1  0  0  0
  7 12  1  0  0  0  0
 10  7  1  0  0  0  0
 11  4  1  0  0  0  0
 11 13  2  0  0  0  0
 12 11  1  1  0  0  0
 14  2  1  0  0  0  0
 15  3  2  0  0  0  0
 16  3  1  0  0  0  0
 16 14  1  0  0  0  0
 17 19  1  0  0  0  0
 17 16  1  0  0  0  0
 18  4  1  0  0  0  0
 18  2  1  1  0  0  0
 20 19  1  6  0  0  0
 20 18  1  0  0  0  0
 21  5  1  0  0  0  0
 22 32  2  0  0  0  0
 23 31  1  0  0  0  0
 26 25  1  6  0  0  0
 26 22  1  0  0  0  0
 26 29  1  0  0  0  0
 27 25  1  0  0  0  0
 27 24  1  0  0  0  0
 28 29  2  0  0  0  0
 29 23  1  0  0  0  0
 30 33  1  6  0  0  0
 30 24  1  0  0  0  0
 30 28  1  0  0  0  0
 31 21  1  6  0  0  0
 32 31  1  0  0  0  0
 34 33  1  0  0  0  0
M  END
>  <MODEL>
3

>  <REMARK>
 VINA RESULT:      -7.8      2.809      3.715
  Name = 
  3 active torsions:
  status: ('A' for Active; 'I' for Inactive)
    1  A    between atoms: C_7  and  C_29
    2  A    between atoms: N_8  and  C_18
    3  A    between atoms: C_18  and  C_30
                            x       y       z     vdW  Elec       q    Type
                         _______ _______ _______ _____ _____    ______ ____

>  <TORSDO>
F 3

$$$$
=
 OpenBabel10262423333D

 34 38  0  0  1  0  0  0  0  0999 V2000
  189.2030  177.2380  136.9420 C   0  0  1  0  0  3  0  0  0  0  0  0
  188.6220  173.7020  135.4290 C   0  0  0  0  0  2  0  0  0  0  0  0
  185.5700  172.6140  136.5770 C   0  0  0  0  0  0  0  0  0  0  0  0
  190.5960  175.0810  135.6850 N   0  0  0  0  0  2  0  0  0  0  0  0
  188.7150  177.5000  139.3490 N   0  0  0  0  0  0  0  0  0  0  0  0
  188.5320  178.0960  138.0230 C   0  0  0  0  0  2  0  0  0  0  0  0
  190.9070  176.5790  138.7400 C   0  0  2  0  0  3  0  0  0  0  0  0
  190.5000  175.2530  138.9210 O   0  0  0  0  0  1  0  0  0  0  0  0
  185.7030  171.3790  135.8780 N   0  0  0  0  0  1  0  0  0  0  0  0
  190.1390  177.4890  139.6950 C   0  0  0  0  0  2  0  0  0  0  0  0
  191.3540  176.1180  136.3090 C   0  0  0  0  0  0  0  0  0  0  0  0
  190.6900  177.0390  137.2860 C   0  0  1  0  0  3  0  0  0  0  0  0
  192.6420  176.1060  136.2190 N   0  0  0  0  0  2  0  0  0  0  0  0
  187.1700  173.6760  134.9820 C   0  0  0  0  0  2  0  0  0  0  0  0
  184.8160  172.6690  137.5860 O   0  0  0  0  0  0  0  0  0  0  0  0
  186.2830  173.7800  136.1390 N   0  0  0  0  0  0  0  0  0  0  0  0
  186.1270  175.0310  136.8910 C   0  0  0  0  0  2  0  0  0  0  0  0
  189.1420  175.1300  135.5530 C   0  0  2  0  0  3  0  0  0  0  0  0
  187.0120  176.1620  136.3790 C   0  0  0  0  0  2  0  0  0  0  0  0
  188.4790  175.8980  136.7140 C   0  0  2  0  0  3  0  0  0  0  0  0
  187.9500  178.2540  140.3540 C   0  0  0  0  0  2  0  0  0  0  0  0
  190.0830  178.0870  143.4850 N   0  0  0  0  0  2  0  0  0  0  0  0
  187.3620  177.5000  142.7520 C   0  0  0  0  0  2  0  0  0  0  0  0
  188.0440  176.5310  147.0700 C   0  0  0  0  0  2  0  0  0  0  0  0
  189.6330  178.1290  145.8530 C   0  0  0  0  0  2  0  0  0  0  0  0
  189.2640  177.4800  144.5280 C   0  0  1  0  0  3  0  0  0  0  0  0
  189.4310  177.1810  147.0300 C   0  0  0  0  0  2  0  0  0  0  0  0
  186.7880  177.5060  145.0960 C   0  0  0  0  0  3  0  0  0  0  0  0
  187.7840  177.5960  144.1920 C   0  0  0  0  0  0  0  0  0  0  0  0
  186.9040  177.4390  146.5960 C   0  0  2  0  0  3  0  0  0  0  0  0
  188.3830  178.0150  141.7760 C   0  0  0  0  0  0  0  0  0  0  0  0
  189.6360  178.2810  142.1410 C   0  0  0  0  0  3  0  0  0  0  0  0
  186.9070  178.8260  147.2280 C   0  0  0  0  0  2  0  0  0  0  0  0
  185.6790  179.4510  147.0110 O   0  0  0  0  0  1  0  0  0  0  0  0
  1 12  1  0  0  0  0
  1  6  1  1  0  0  0
  3 15  2  0  0  0  0
  4 11  1  0  0  0  0
  5 10  1  0  0  0  0
  5 21  1  0  0  0  0
  6  5  1  0  0  0  0
  7  8  1  6  0  0  0
  7 10  1  0  0  0  0
  9  3  1  0  0  0  0
 12 11  1  6  0  0  0
 12  7  1  0  0  0  0
 13 11  2  0  0  0  0
 14  2  1  0  0  0  0
 14 16  1  0  0  0  0
 16  3  1  0  0  0  0
 16 17  1  0  0  0  0
 18  2  1  1  0  0  0
 18  4  1  0  0  0  0
 18 20  1  0  0  0  0
 19 17  1  0  0  0  0
 20 19  1  6  0  0  0
 20  1  1  0  0  0  0
 21 31  1  0  0  0  0
 22 26  1  0  0  0  0
 23 29  1  0  0  0  0
 25 27  1  0  0  0  0
 26 25  1  1  0  0  0
 27 24  1  0  0  0  0
 28 30  1  0  0  0  0
 29 26  1  0  0  0  0
 29 28  2  0  0  0  0
 30 24  1  0  0  0  0
 30 33  1  6  0  0  0
 31 32  2  0  0  0  0
 31 23  1  0  0  0  0
 32 22  1  0  0  0  0
 34 33  1  0  0  0  0
M  END
>  <MODEL>
4

>  <REMARK>
 VINA RESULT:      -7.4      3.186      8.696
  Name = 
  3 active torsions:
  status: ('A' for Active; 'I' for Inactive)
    1  A    between atoms: C_7  and  C_29
    2  A    between atoms: N_8  and  C_18
    3  A    between atoms: C_18  and  C_30
                            x       y       z     vdW  Elec       q    Type
                         _______ _______ _______ _____ _____    ______ ____

>  <TORSDO>
F 3

$$$$
=
 OpenBabel10262423333D

 34 38  0  0  1  0  0  0  0  0999 V2000
  185.3790  177.7890  136.5910 C   0  0  1  0  0  3  0  0  0  0  0  0
  182.0670  177.6800  138.6280 C   0  0  0  0  0  2  0  0  0  0  0  0
  182.8360  178.6430  141.8380 C   0  0  0  0  0  0  0  0  0  0  0  0
  182.7270  176.7250  136.5040 N   0  0  0  0  0  2  0  0  0  0  0  0
  187.3620  176.7730  137.6570 N   0  0  0  0  0  0  0  0  0  0  0  0
  186.8700  177.9410  136.9220 C   0  0  0  0  0  2  0  0  0  0  0  0
  185.8160  175.2660  136.4900 C   0  0  2  0  0  3  0  0  0  0  0  0
  185.1440  174.9020  137.6610 O   0  0  0  0  0  1  0  0  0  0  0  0
  181.4830  178.4780  142.2530 N   0  0  0  0  0  1  0  0  0  0  0  0
  187.2740  175.5810  136.8090 C   0  0  0  0  0  2  0  0  0  0  0  0
  183.6920  176.2440  135.5670 C   0  0  0  0  0  0  0  0  0  0  0  0
  185.1500  176.4800  135.8150 C   0  0  1  0  0  3  0  0  0  0  0  0
  183.3290  175.4100  134.6510 N   0  0  0  0  0  2  0  0  0  0  0  0
  182.0640  178.9380  139.4820 C   0  0  0  0  0  2  0  0  0  0  0  0
  183.7550  178.5720  142.6970 O   0  0  0  0  0  0  0  0  0  0  0  0
  183.1500  178.8880  140.4580 N   0  0  0  0  0  0  0  0  0  0  0  0
  184.5560  179.0430  140.0680 C   0  0  0  0  0  2  0  0  0  0  0  0
  182.9960  177.8230  137.4280 C   0  0  2  0  0  3  0  0  0  0  0  0
  184.7550  179.2010  138.5640 C   0  0  0  0  0  2  0  0  0  0  0  0
  184.4810  177.8850  137.8390 C   0  0  2  0  0  3  0  0  0  0  0  0
  188.7500  176.9930  138.0890 C   0  0  0  0  0  2  0  0  0  0  0  0
  187.9150  177.9920  141.6510 N   0  0  0  0  0  2  0  0  0  0  0  0
  190.2830  177.3970  140.1270 C   0  0  0  0  0  2  0  0  0  0  0  0
  191.3830  178.5010  144.3240 C   0  0  0  0  0  2  0  0  0  0  0  0
  188.9990  177.7320  143.7880 C   0  0  0  0  0  2  0  0  0  0  0  0
  189.1820  178.1860  142.3480 C   0  0  1  0  0  3  0  0  0  0  0  0
  189.9100  178.4910  144.7470 C   0  0  0  0  0  2  0  0  0  0  0  0
  191.4820  177.1180  142.2020 C   0  0  0  0  0  3  0  0  0  0  0  0
  190.3120  177.4660  141.6280 C   0  0  0  0  0  0  0  0  0  0  0  0
  191.8600  177.2060  143.6570 C   0  0  2  0  0  3  0  0  0  0  0  0
  188.9000  177.3710  139.5390 C   0  0  0  0  0  0  0  0  0  0  0  0
  187.8190  177.6480  140.2670 C   0  0  0  0  0  3  0  0  0  0  0  0
  191.4880  175.9390  144.4190 C   0  0  0  0  0  2  0  0  0  0  0  0
  192.0440  175.9700  145.6980 O   0  0  0  0  0  1  0  0  0  0  0  0
  1  6  1  1  0  0  0
  1 20  1  0  0  0  0
  2 14  1  0  0  0  0
  3  9  1  0  0  0  0
  3 15  2  0  0  0  0
  4 18  1  0  0  0  0
  5 21  1  0  0  0  0
  6  5  1  0  0  0  0
  7 10  1  0  0  0  0
  7  8  1  1  0  0  0
 10  5  1  0  0  0  0
 11  4  1  0  0  0  0
 12 11  1  1  0  0  0
 12  7  1  0  0  0  0
 12  1  1  0  0  0  0
 13 11  2  0  0  0  0
 14 16  1  0  0  0  0
 16  3  1  0  0  0  0
 17 16  1  0  0  0  0
 18 20  1  0  0  0  0
 18  2  1  1  0  0  0
 19 17  1  0  0  0  0
 20 19  1  6  0  0  0
 21 31  1  0  0  0  0
 22 26  1  0  0  0  0
 23 29  1  0  0  0  0
 24 27  1  0  0  0  0
 25 27  1  0  0  0  0
 26 25  1  1  0  0  0
 28 30  1  0  0  0  0
 29 28  2  0  0  0  0
 29 26  1  0  0  0  0
 30 24  1  0  0  0  0
 30 33  1  1  0  0  0
 31 23  1  0  0  0  0
 31 32  2  0  0  0  0
 32 22  1  0  0  0  0
 33 34  1  0  0  0  0
M  END
>  <MODEL>
5

>  <REMARK>
 VINA RESULT:      -7.3      2.890      8.019
  Name = 
  3 active torsions:
  status: ('A' for Active; 'I' for Inactive)
    1  A    between atoms: C_7  and  C_29
    2  A    between atoms: N_8  and  C_18
    3  A    between atoms: C_18  and  C_30
                            x       y       z     vdW  Elec       q    Type
                         _______ _______ _______ _____ _____    ______ ____

>  <TORSDO>
F 3

$$$$
=
 OpenBabel10262423333D

 34 38  0  0  1  0  0  0  0  0999 V2000
  188.7290  177.7510  137.0780 C   0  0  1  0  0  3  0  0  0  0  0  0
  185.1800  176.3230  136.3770 C   0  0  0  0  0  2  0  0  0  0  0  0
  183.2450  177.0670  139.1190 C   0  0  0  0  0  0  0  0  0  0  0  0
  187.3490  175.9090  135.3830 N   0  0  0  0  0  2  0  0  0  0  0  0
  189.6760  177.3010  139.3150 N   0  0  0  0  0  0  0  0  0  0  0  0
  189.4620  178.3310  138.2960 C   0  0  0  0  0  2  0  0  0  0  0  0
  189.9010  175.5370  137.6230 C   0  0  2  0  0  3  0  0  0  0  0  0
  188.7840  174.8310  138.0820 O   0  0  0  0  0  1  0  0  0  0  0  0
  182.1110  176.4240  138.5430 N   0  0  0  0  0  1  0  0  0  0  0  0
  190.5660  176.2630  138.7890 C   0  0  0  0  0  2  0  0  0  0  0  0
  188.7770  175.8870  135.4020 C   0  0  0  0  0  0  0  0  0  0  0  0
  189.5140  176.5470  136.5270 C   0  0  1  0  0  3  0  0  0  0  0  0
  189.4120  175.1040  134.5960 N   0  0  0  0  0  2  0  0  0  0  0  0
  184.2040  177.3940  136.8380 C   0  0  0  0  0  2  0  0  0  0  0  0
  183.3110  177.1880  140.3720 O   0  0  0  0  0  0  0  0  0  0  0  0
  184.2980  177.5730  138.2850 N   0  0  0  0  0  0  0  0  0  0  0  0
  185.4530  178.2210  138.9170 C   0  0  0  0  0  2  0  0  0  0  0  0
  186.5600  176.9090  136.0980 C   0  0  2  0  0  3  0  0  0  0  0  0
  186.5400  178.6240  137.9260 C   0  0  0  0  0  2  0  0  0  0  0  0
  187.2630  177.3930  137.3820 C   0  0  2  0  0  3  0  0  0  0  0  0
  190.2490  177.9000  140.5290 C   0  0  0  0  0  2  0  0  0  0  0  0
  187.2820  177.1660  142.7740 N   0  0  0  0  0  2  0  0  0  0  0  0
  189.8770  178.3820  143.0390 C   0  0  0  0  0  2  0  0  0  0  0  0
  187.6950  178.5310  146.9450 C   0  0  0  0  0  2  0  0  0  0  0  0
  186.9800  176.8540  145.1450 C   0  0  0  0  0  2  0  0  0  0  0  0
  187.5740  177.7570  144.0750 C   0  0  1  0  0  3  0  0  0  0  0  0
  186.5810  177.6340  146.3940 C   0  0  0  0  0  2  0  0  0  0  0  0
  189.6890  178.1340  145.4310 C   0  0  0  0  0  3  0  0  0  0  0  0
  189.0690  177.9870  144.2430 C   0  0  0  0  0  0  0  0  0  0  0  0
  189.1050  177.9480  146.8070 C   0  0  2  0  0  3  0  0  0  0  0  0
  189.3570  177.8300  141.7400 C   0  0  0  0  0  0  0  0  0  0  0  0
  188.1520  177.2700  141.6450 C   0  0  0  0  0  3  0  0  0  0  0  0
  189.2350  176.5080  147.2900 C   0  0  0  0  0  2  0  0  0  0  0  0
  190.5680  176.1010  147.2230 O   0  0  0  0  0  1  0  0  0  0  0  0
  1 20  1  0  0  0  0
  1  6  1  1  0  0  0
  2 14  1  0  0  0  0
  3 15  2  0  0  0  0
  4 11  1  0  0  0  0
  4 18  1  0  0  0  0
  5 21  1  0  0  0  0
  6  5  1  0  0  0  0
  7  8  1  1  0  0  0
  7 10  1  0  0  0  0
  9  3  1  0  0  0  0
 10  5  1  0  0  0  0
 12 11  1  6  0  0  0
 12  1  1  0  0  0  0
 12  7  1  0  0  0  0
 13 11  2  0  0  0  0
 14 16  1  0  0  0  0
 16 17  1  0  0  0  0
 16  3  1  0  0  0  0
 18  2  1  1  0  0  0
 18 20  1  0  0  0  0
 19 17  1  0  0  0  0
 20 19  1  6  0  0  0
 21 31  1  0  0  0  0
 22 26  1  0  0  0  0
 23 29  1  0  0  0  0
 25 27  1  0  0  0  0
 26 29  1  0  0  0  0
 26 25  1  1  0  0  0
 27 24  1  0  0  0  0
 28 30  1  0  0  0  0
 29 28  2  0  0  0  0
 30 24  1  0  0  0  0
 30 33  1  6  0  0  0
 31 23  1  0  0  0  0
 32 31  2  0  0  0  0
 32 22  1  0  0  0  0
 34 33  1  0  0  0  0
M  END
>  <MODEL>
6

>  <REMARK>
 VINA RESULT:      -7.3      2.602      8.081
  Name = 
  3 active torsions:
  status: ('A' for Active; 'I' for Inactive)
    1  A    between atoms: C_7  and  C_29
    2  A    between atoms: N_8  and  C_18
    3  A    between atoms: C_18  and  C_30
                            x       y       z     vdW  Elec       q    Type
                         _______ _______ _______ _____ _____    ______ ____

>  <TORSDO>
F 3

$$$$
=
 OpenBabel10262423333D

 34 38  0  0  1  0  0  0  0  0999 V2000
  188.9320  178.5280  142.0810 C   0  0  1  0  0  3  0  0  0  0  0  0
  190.6310  176.3230  139.3640 C   0  0  0  0  0  2  0  0  0  0  0  0
  188.2800  175.7640  136.9180 C   0  0  0  0  0  0  0  0  0  0  0  0
  191.1930  176.8290  141.6630 N   0  0  0  0  0  2  0  0  0  0  0  0
  186.6660  177.8490  142.7920 N   0  0  0  0  0  0  0  0  0  0  0  0
  187.5000  178.9840  142.3900 C   0  0  0  0  0  2  0  0  0  0  0  0
  188.5650  176.7010  143.8410 C   0  0  2  0  0  3  0  0  0  0  0  0
  188.4950  175.6050  142.9760 O   0  0  0  0  0  1  0  0  0  0  0  0
  189.1950  174.9720  136.1650 N   0  0  0  0  0  1  0  0  0  0  0  0
  187.1690  177.2850  144.0460 C   0  0  0  0  0  2  0  0  0  0  0  0
  190.8720  177.2310  142.9960 C   0  0  0  0  0  0  0  0  0  0  0  0
  189.5140  177.7850  143.2970 C   0  0  1  0  0  3  0  0  0  0  0  0
  191.6520  176.8940  143.9670 N   0  0  0  0  0  2  0  0  0  0  0  0
  190.2020  176.9070  138.0280 C   0  0  0  0  0  2  0  0  0  0  0  0
  187.0420  175.5890  136.7590 O   0  0  0  0  0  0  0  0  0  0  0  0
  188.7610  176.7480  137.8460 N   0  0  0  0  0  0  0  0  0  0  0  0
  187.7870  177.5370  138.6110 C   0  0  0  0  0  2  0  0  0  0  0  0
  190.4940  177.3430  140.4890 C   0  0  2  0  0  3  0  0  0  0  0  0
  188.4290  178.4740  139.6280 C   0  0  0  0  0  2  0  0  0  0  0  0
  189.0210  177.6860  140.7940 C   0  0  2  0  0  3  0  0  0  0  0  0
  185.2680  178.2760  142.9470 C   0  0  0  0  0  2  0  0  0  0  0  0
  184.5480  179.1680  139.3330 N   0  0  0  0  0  0  0  0  0  0  0  0
  183.0680  178.1860  141.5980 C   0  0  0  0  0  2  0  0  0  0  0  0
  180.3440  178.7130  138.0840 C   0  0  0  0  0  2  0  0  0  0  0  0
  182.8740  178.5220  137.7230 C   0  0  0  0  0  2  0  0  0  0  0  0
  183.1090  179.0300  139.1370 C   0  0  1  0  0  3  0  0  0  0  0  0
  181.5360  178.9920  137.1610 C   0  0  0  0  0  2  0  0  0  0  0  0
  181.3160  177.5010  140.0870 C   0  0  0  0  0  3  0  0  0  0  0  0
  182.4990  178.1360  140.2070 C   0  0  0  0  0  0  0  0  0  0  0  0
  180.4420  177.3980  138.8650 C   0  0  2  0  0  3  0  0  0  0  0  0
  184.5360  178.5050  141.6520 C   0  0  2  0  0  3  0  0  0  0  0  0
  185.1990  178.9560  140.5870 C   0  0  0  0  0  3  0  0  0  0  0  0
  180.8040  176.1890  138.0090 C   0  0  0  0  0  2  0  0  0  0  0  0
  181.2470  175.1450  138.8220 O   0  0  0  0  0  1  0  0  0  0  0  0
  1  6  1  1  0  0  0
  1 12  1  0  0  0  0
  3 16  1  0  0  0  0
  4 11  1  0  0  0  0
  5 21  1  0  0  0  0
  5 10  1  0  0  0  0
  6  5  1  0  0  0  0
  7  8  1  6  0  0  0
  7 10  1  0  0  0  0
  9  3  1  0  0  0  0
 11 13  2  0  0  0  0
 12 11  1  6  0  0  0
 12  7  1  0  0  0  0
 14  2  1  0  0  0  0
 15  3  2  0  0  0  0
 16 14  1  0  0  0  0
 16 17  1  0  0  0  0
 17 19  1  0  0  0  0
 18  2  1  6  0  0  0
 18 20  1  0  0  0  0
 18  4  1  0  0  0  0
 20 19  1  6  0  0  0
 20  1  1  0  0  0  0
 22 32  2  0  0  0  0
 23 31  1  0  0  0  0
 24 30  1  0  0  0  0
 26 25  1  6  0  0  0
 26 22  1  0  0  0  0
 26 29  1  0  0  0  0
 27 25  1  0  0  0  0
 27 24  1  0  0  0  0
 28 29  2  0  0  0  0
 29 23  1  0  0  0  0
 30 33  1  6  0  0  0
 30 28  1  0  0  0  0
 31 21  1  6  0  0  0
 32 31  1  0  0  0  0
 33 34  1  0  0  0  0
M  END
>  <MODEL>
7

>  <REMARK>
 VINA RESULT:      -7.3      3.247      6.094
  Name = 
  3 active torsions:
  status: ('A' for Active; 'I' for Inactive)
    1  A    between atoms: C_7  and  C_29
    2  A    between atoms: N_8  and  C_18
    3  A    between atoms: C_18  and  C_30
                            x       y       z     vdW  Elec       q    Type
                         _______ _______ _______ _____ _____    ______ ____

>  <TORSDO>
F 3

$$$$
=
 OpenBabel10262423333D

 34 38  0  0  1  0  0  0  0  0999 V2000
  188.4360  177.7510  137.1290 C   0  0  1  0  0  3  0  0  0  0  0  0
  184.6900  176.7030  137.1440 C   0  0  0  0  0  2  0  0  0  0  0  0
  183.4090  177.6200  140.2000 C   0  0  0  0  0  0  0  0  0  0  0  0
  186.5710  176.0750  135.7550 N   0  0  0  0  0  2  0  0  0  0  0  0
  189.7460  177.1870  139.1460 N   0  0  0  0  0  0  0  0  0  0  0  0
  189.4460  178.2420  138.1750 C   0  0  0  0  0  2  0  0  0  0  0  0
  189.4570  175.4230  137.4630 C   0  0  2  0  0  3  0  0  0  0  0  0
  188.3830  174.8320  138.1370 O   0  0  0  0  0  1  0  0  0  0  0  0
  182.1260  177.1020  139.8610 N   0  0  0  0  0  1  0  0  0  0  0  0
  190.4060  176.0670  138.4700 C   0  0  0  0  0  2  0  0  0  0  0  0
  187.9660  175.9060  135.4970 C   0  0  0  0  0  0  0  0  0  0  0  0
  188.9710  176.4770  136.4500 C   0  0  1  0  0  3  0  0  0  0  0  0
  188.3490  175.0680  134.5940 N   0  0  0  0  0  2  0  0  0  0  0  0
  183.9370  177.8640  137.7720 C   0  0  0  0  0  2  0  0  0  0  0  0
  183.7290  177.7230  141.4150 O   0  0  0  0  0  0  0  0  0  0  0  0
  184.3270  178.0210  139.1720 N   0  0  0  0  0  0  0  0  0  0  0  0
  185.6440  178.5410  139.5600 C   0  0  0  0  0  2  0  0  0  0  0  0
  186.0430  177.1460  136.5970 C   0  0  2  0  0  3  0  0  0  0  0  0
  186.5540  178.8380  138.3740 C   0  0  0  0  0  2  0  0  0  0  0  0
  187.0270  177.5440  137.7150 C   0  0  2  0  0  3  0  0  0  0  0  0
  190.6020  177.7130  140.2190 C   0  0  0  0  0  2  0  0  0  0  0  0
  190.2510  177.6980  143.9950 N   0  0  0  0  0  2  0  0  0  0  0  0
  188.5190  177.4080  141.7140 C   0  0  0  0  0  2  0  0  0  0  0  0
  186.1690  176.9880  145.5020 C   0  0  0  0  0  2  0  0  0  0  0  0
  188.4530  178.1480  145.5370 C   0  0  0  0  0  2  0  0  0  0  0  0
  188.8600  177.3730  144.2930 C   0  0  1  0  0  3  0  0  0  0  0  0
  187.3790  177.4200  146.3380 C   0  0  0  0  0  2  0  0  0  0  0  0
  186.6350  177.8360  143.1590 C   0  0  0  0  0  3  0  0  0  0  0  0
  187.9690  177.6510  143.0920 C   0  0  0  0  0  0  0  0  0  0  0  0
  185.7810  177.9720  144.3930 C   0  0  2  0  0  3  0  0  0  0  0  0
  190.0020  177.6230  141.5970 C   0  0  0  0  0  0  0  0  0  0  0  0
  190.7820  177.7570  142.6690 C   0  0  0  0  0  3  0  0  0  0  0  0
  185.6750  179.4210  144.8540 C   0  0  0  0  0  2  0  0  0  0  0  0
  184.5630  180.0270  144.2680 O   0  0  0  0  0  1  0  0  0  0  0  0
  1 20  1  0  0  0  0
  1  6  1  1  0  0  0
  2 14  1  0  0  0  0
  3 15  2  0  0  0  0
  4 18  1  0  0  0  0
  5 21  1  0  0  0  0
  6  5  1  0  0  0  0
  7  8  1  1  0  0  0
  7 10  1  0  0  0  0
  9  3  1  0  0  0  0
 10  5  1  0  0  0  0
 11  4  1  0  0  0  0
 12 11  1  1  0  0  0
 12  1  1  0  0  0  0
 12  7  1  0  0  0  0
 13 11  2  0  0  0  0
 14 16  1  0  0  0  0
 16 17  1  0  0  0  0
 16  3  1  0  0  0  0
 18  2  1  1  0  0  0
 18 20  1  0  0  0  0
 19 17  1  0  0  0  0
 20 19  1  6  0  0  0
 21 31  1  0  0  0  0
 22 26  1  0  0  0  0
 23 29  1  0  0  0  0
 24 27  1  0  0  0  0
 25 27  1  0  0  0  0
 26 25  1  1  0  0  0
 28 30  1  0  0  0  0
 29 28  2  0  0  0  0
 29 26  1  0  0  0  0
 30 33  1  1  0  0  0
 30 24  1  0  0  0  0
 31 23  1  0  0  0  0
 31 32  2  0  0  0  0
 32 22  1  0  0  0  0
 34 33  1  0  0  0  0
M  END
>  <MODEL>
8

>  <REMARK>
 VINA RESULT:      -7.3      2.406      7.553
  Name = 
  3 active torsions:
  status: ('A' for Active; 'I' for Inactive)
    1  A    between atoms: C_7  and  C_29
    2  A    between atoms: N_8  and  C_18
    3  A    between atoms: C_18  and  C_30
                            x       y       z     vdW  Elec       q    Type
                         _______ _______ _______ _____ _____    ______ ____

>  <TORSDO>
F 3

$$$$
=
 OpenBabel10262423333D

 34 38  0  0  1  0  0  0  0  0999 V2000
  183.6260  179.3160  139.9900 C   0  0  1  0  0  3  0  0  0  0  0  0
  183.9680  178.2530  143.7160 C   0  0  0  0  0  2  0  0  0  0  0  0
  187.1990  177.1600  144.1500 C   0  0  0  0  0  0  0  0  0  0  0  0
  182.0560  178.6480  142.2840 N   0  0  0  0  0  2  0  0  0  0  0  0
  184.5540  177.7600  138.3110 N   0  0  0  0  0  0  0  0  0  0  0  0
  184.4750  179.1640  138.7200 C   0  0  0  0  0  2  0  0  0  0  0  0
  182.3010  177.2840  139.1620 C   0  0  2  0  0  3  0  0  0  0  0  0
  182.7560  176.3550  140.1030 O   0  0  0  0  0  1  0  0  0  0  0  0
  186.9560  176.8650  145.5240 N   0  0  0  0  0  1  0  0  0  0  0  0
  183.2210  177.2750  137.9440 C   0  0  0  0  0  2  0  0  0  0  0  0
  181.4120  178.7350  141.0120 C   0  0  0  0  0  0  0  0  0  0  0  0
  182.2340  178.7010  139.7600 C   0  0  1  0  0  3  0  0  0  0  0  0
  180.1310  178.5970  140.9370 N   0  0  0  0  0  2  0  0  0  0  0  0
  185.3110  178.7930  144.1800 C   0  0  0  0  0  2  0  0  0  0  0  0
  188.1270  176.5570  143.5480 O   0  0  0  0  0  0  0  0  0  0  0  0
  186.3970  178.1310  143.4610 N   0  0  0  0  0  0  0  0  0  0  0  0
  186.6720  178.4000  142.0440 C   0  0  0  0  0  2  0  0  0  0  0  0
  183.4580  179.0030  142.4900 C   0  0  2  0  0  3  0  0  0  0  0  0
  185.6890  179.3780  141.4100 C   0  0  0  0  0  2  0  0  0  0  0  0
  184.3160  178.7320  141.2370 C   0  0  2  0  0  3  0  0  0  0  0  0
  185.4820  177.6120  137.1800 C   0  0  0  0  0  2  0  0  0  0  0  0
  188.6610  177.5560  139.2460 N   0  0  0  0  0  2  0  0  0  0  0  0
  187.8990  176.9770  136.5310 C   0  0  0  0  0  2  0  0  0  0  0  0
  192.3040  176.3780  137.0600 C   0  0  0  0  0  2  0  0  0  0  0  0
  190.7600  176.3780  139.1050 C   0  0  0  0  0  2  0  0  0  0  0  0
  189.7540  177.2230  138.3380 C   0  0  1  0  0  3  0  0  0  0  0  0
  192.1790  176.5600  138.5770 C   0  0  0  0  0  2  0  0  0  0  0  0
  189.9750  175.7770  136.2620 C   0  0  0  0  0  3  0  0  0  0  0  0
  189.2290  176.5440  137.0820 C   0  0  0  0  0  0  0  0  0  0  0  0
  191.3870  175.2990  136.4740 C   0  0  2  0  0  3  0  0  0  0  0  0
  186.9260  177.4530  137.5730 C   0  0  0  0  0  0  0  0  0  0  0  0
  187.3040  177.7120  138.8250 C   0  0  0  0  0  3  0  0  0  0  0  0
  191.4320  173.9700  137.2180 C   0  0  0  0  0  2  0  0  0  0  0  0
  190.1670  173.3810  137.2190 O   0  0  0  0  0  1  0  0  0  0  0  0
  1  6  1  6  0  0  0
  1 20  1  0  0  0  0
  2 14  1  0  0  0  0
  3  9  1  0  0  0  0
  4 18  1  0  0  0  0
  5  6  1  0  0  0  0
  7 12  1  0  0  0  0
  7  8  1  1  0  0  0
 10  5  1  0  0  0  0
 10  7  1  0  0  0  0
 11  4  1  0  0  0  0
 12  1  1  0  0  0  0
 12 11  1  1  0  0  0
 13 11  2  0  0  0  0
 15  3  2  0  0  0  0
 16  3  1  0  0  0  0
 16 14  1  0  0  0  0
 17 16  1  0  0  0  0
 18  2  1  1  0  0  0
 19 17  1  0  0  0  0
 20 19  1  1  0  0  0
 20 18  1  0  0  0  0
 21 31  1  0  0  0  0
 21  5  1  0  0  0  0
 23 29  1  0  0  0  0
 23 31  1  0  0  0  0
 24 27  1  0  0  0  0
 26 25  1  1  0  0  0
 26 22  1  0  0  0  0
 27 25  1  0  0  0  0
 28 30  1  0  0  0  0
 28 29  2  0  0  0  0
 29 26  1  0  0  0  0
 30 24  1  0  0  0  0
 30 33  1  1  0  0  0
 31 32  2  0  0  0  0
 32 22  1  0  0  0  0
 33 34  1  0  0  0  0
M  END
>  <MODEL>
9

>  <REMARK>
 VINA RESULT:      -7.0      2.923      6.437
  Name = 
  3 active torsions:
  status: ('A' for Active; 'I' for Inactive)
    1  A    between atoms: C_7  and  C_29
    2  A    between atoms: N_8  and  C_18
    3  A    between atoms: C_18  and  C_30
                            x       y       z     vdW  Elec       q    Type
                         _______ _______ _______ _____ _____    ______ ____

>  <TORSDO>
F 3

$$$$
