=
 OpenBabel10262421043D

 32 38  0  0  1  0  0  0  0  0999 V2000
  189.7670  175.9330  143.4780 C   0  0  1  0  0  3  0  0  0  0  0  0
  188.6530  177.5650  144.8080 C   0  0  1  0  0  0  0  0  0  0  0  0
  189.0180  178.0220  139.2230 C   0  0  1  0  0  3  0  0  0  0  0  0
  190.8410  176.0030  142.5010 N   0  0  0  0  0  2  0  0  0  0  0  0
  190.0090  176.9690  144.5640 C   0  0  1  0  0  3  0  0  0  0  0  0
  188.3680  178.2550  146.0880 C   0  0  2  0  0  3  0  0  0  0  0  0
  188.6830  179.3250  138.5170 C   0  0  0  0  0  1  0  0  0  0  0  0
  187.8490  177.5510  143.5260 C   0  0  1  0  0  3  0  0  0  0  0  0
  189.5650  178.2410  147.0710 C   0  0  1  0  0  3  0  0  0  0  0  0
  190.5350  177.7030  139.1130 C   0  0  1  0  0  3  0  0  0  0  0  0
  190.3320  176.5080  141.2850 C   0  0  0  0  0  0  0  0  0  0  0  0
  187.9510  176.9260  145.8530 O   0  0  0  0  0  0  0  0  0  0  0  0
  190.6060  176.4220  145.7770 N   0  0  0  0  0  0  0  0  0  0  0  0
  191.1090  176.9730  140.3070 C   0  0  0  0  0  3  0  0  0  0  0  0
  188.4790  178.0220  140.6620 C   0  0  2  0  0  3  0  0  0  0  0  0
  189.0280  179.0900  141.3840 O   0  0  0  0  0  1  0  0  0  0  0  0
  188.4640  176.3750  142.7460 C   0  0  1  0  0  3  0  0  0  0  0  0
  188.9860  178.3680  148.4710 C   0  0  0  0  0  1  0  0  0  0  0  0
  188.8650  176.6770  141.2900 C   0  0  2  0  0  3  0  0  0  0  0  0
  190.4840  177.0140  146.9310 C   0  0  0  0  0  0  0  0  0  0  0  0
  184.4660  178.8620  144.4020 C   0  0  0  0  0  2  0  0  0  0  0  0
  184.3000  178.6170  142.9060 C   0  0  2  0  0  3  0  0  0  0  0  0
  185.5010  177.8220  142.4260 C   0  0  2  0  0  3  0  0  0  0  0  0
  186.3170  177.4900  143.6800 C   0  0  2  0  0  3  0  0  0  0  0  0
  185.4010  179.3120  142.1300 C   0  0  0  0  0  2  0  0  0  0  0  0
  185.8280  178.3480  144.8260 C   0  0  0  0  0  2  0  0  0  0  0  0
  191.2350  176.5080  148.0000 O   0  0  0  0  0  0  0  0  0  0  0  0
  192.4180  175.7410  147.8360 C   0  0  0  0  0  2  0  0  0  0  0  0
  193.3230  175.9450  149.0330 C   0  0  0  0  0  1  0  0  0  0  0  0
  190.8200  176.8930  137.8570 C   0  0  0  0  0  2  0  0  0  0  0  0
  190.5320  174.5350  137.9170 O   0  0  0  0  0  1  0  0  0  0  0  0
  189.8490  175.7340  137.7330 C   0  0  0  0  0  2  0  0  0  0  0  0
  1  4  1  6  0  0  0
  1  5  1  0  0  0  0
  2 12  1  1  0  0  0
  2  6  1  0  0  0  0
  3  7  1  1  0  0  0
  3 15  1  0  0  0  0
  5  2  1  0  0  0  0
  5 13  1  1  0  0  0
  6 12  1  1  0  0  0
  6  9  1  0  0  0  0
  8 24  1  1  0  0  0
  8  2  1  0  0  0  0
  9 18  1  1  0  0  0
 10 30  1  6  0  0  0
 10  3  1  0  0  0  0
 10 14  1  0  0  0  0
 11 19  1  0  0  0  0
 11  4  1  0  0  0  0
 13 20  2  0  0  0  0
 14 11  2  0  0  0  0
 15 19  1  0  0  0  0
 15 16  1  1  0  0  0
 17  1  1  0  0  0  0
 17  8  1  0  0  0  0
 19 17  1  0  0  0  0
 20  9  1  0  0  0  0
 20 27  1  0  0  0  0
 21 26  1  0  0  0  0
 22 21  1  0  0  0  0
 23 22  1  0  0  0  0
 23 24  1  0  0  0  0
 24 26  1  0  0  0  0
 25 23  1  0  0  0  0
 25 22  1  0  0  0  0
 28 27  1  0  0  0  0
 28 29  1  0  0  0  0
 32 30  1  0  0  0  0
 32 31  1  0  0  0  0
M  END
>  <MODEL>
1

>  <REMARK>
 VINA RESULT:      -8.1      0.000      0.000
  Name = 
  5 active torsions:
  status: ('A' for Active; 'I' for Inactive)
    1  A    between atoms: C_10  and  C_28
    2  A    between atoms: O_14  and  C_21
    3  A    between atoms: O_14  and  C_29
    4  A    between atoms: C_15  and  C_19
    5  A    between atoms: C_19  and  C_26
                            x       y       z     vdW  Elec       q    Type
                         _______ _______ _______ _____ _____    ______ ____

>  <TORSDO>
F 5

$$$$
=
 OpenBabel10262421043D

 32 38  0  0  1  0  0  0  0  0999 V2000
  190.8060  177.8530  141.2840 C   0  0  1  0  0  3  0  0  0  0  0  0
  189.1110  177.0630  139.8100 C   0  0  1  0  0  0  0  0  0  0  0  0
  188.3340  177.3400  145.3650 C   0  0  1  0  0  3  0  0  0  0  0  0
  191.4500  177.2920  142.4600 N   0  0  0  0  0  2  0  0  0  0  0  0
  190.4900  176.7340  140.3050 C   0  0  1  0  0  3  0  0  0  0  0  0
  188.6350  176.5050  138.5220 C   0  0  2  0  0  3  0  0  0  0  0  0
  187.1610  176.6420  146.0310 C   0  0  0  0  0  1  0  0  0  0  0  0
  188.3280  177.7610  140.9010 C   0  0  1  0  0  3  0  0  0  0  0  0
  189.6950  175.6340  137.8030 C   0  0  1  0  0  3  0  0  0  0  0  0
  189.6800  176.6780  145.7700 C   0  0  1  0  0  3  0  0  0  0  0  0
  190.5750  177.3970  143.5640 C   0  0  0  0  0  0  0  0  0  0  0  0
  189.1200  177.8280  138.6240 O   0  0  0  0  0  0  0  0  0  0  0  0
  191.4580  176.6080  139.2210 N   0  0  0  0  0  0  0  0  0  0  0  0
  190.7420  176.7110  144.6950 C   0  0  0  0  0  3  0  0  0  0  0  0
  188.1190  177.4490  143.8470 C   0  0  2  0  0  3  0  0  0  0  0  0
  187.9670  176.1740  143.2870 O   0  0  0  0  0  1  0  0  0  0  0  0
  189.4320  178.4180  141.7510 C   0  0  1  0  0  3  0  0  0  0  0  0
  189.3650  175.6750  136.3200 C   0  0  0  0  0  1  0  0  0  0  0  0
  189.3470  178.1620  143.2670 C   0  0  2  0  0  3  0  0  0  0  0  0
  191.1500  176.0470  138.0860 C   0  0  0  0  0  0  0  0  0  0  0  0
  184.9970  178.6730  139.4860 C   0  0  0  0  0  2  0  0  0  0  0  0
  184.8830  179.2600  140.8890 C   0  0  2  0  0  3  0  0  0  0  0  0
  186.2610  179.2200  141.5260 C   0  0  2  0  0  3  0  0  0  0  0  0
  187.2160  178.7220  140.4360 C   0  0  2  0  0  3  0  0  0  0  0  0
  185.2000  178.2060  141.9310 C   0  0  0  0  0  2  0  0  0  0  0  0
  186.4040  178.1410  139.2990 C   0  0  0  0  0  2  0  0  0  0  0  0
  192.1910  175.8180  137.1760 O   0  0  0  0  0  0  0  0  0  0  0  0
  193.5480  175.6570  137.5590 C   0  0  0  0  0  2  0  0  0  0  0  0
  193.9130  174.1880  137.5220 C   0  0  0  0  0  1  0  0  0  0  0  0
  190.2350  177.3240  147.0300 C   0  0  0  0  0  2  0  0  0  0  0  0
  192.1350  177.3670  148.4570 O   0  0  0  0  0  1  0  0  0  0  0  0
  191.4730  176.5900  147.5100 C   0  0  0  0  0  2  0  0  0  0  0  0
  1 17  1  0  0  0  0
  1  4  1  1  0  0  0
  2 12  1  6  0  0  0
  2  5  1  0  0  0  0
  2  8  1  0  0  0  0
  3 10  1  0  0  0  0
  3  7  1  6  0  0  0
  4 11  1  0  0  0  0
  5 13  1  6  0  0  0
  5  1  1  0  0  0  0
  6 12  1  6  0  0  0
  6  2  1  0  0  0  0
  8 24  1  6  0  0  0
  8 17  1  0  0  0  0
  9 18  1  6  0  0  0
  9 20  1  0  0  0  0
  9  6  1  0  0  0  0
 10 30  1  1  0  0  0
 11 14  2  0  0  0  0
 14 10  1  0  0  0  0
 15 16  1  6  0  0  0
 15  3  1  0  0  0  0
 17 19  1  0  0  0  0
 19 11  1  0  0  0  0
 19 15  1  0  0  0  0
 20 13  2  0  0  0  0
 21 22  1  0  0  0  0
 22 23  1  0  0  0  0
 22 25  1  0  0  0  0
 23 25  1  0  0  0  0
 24 23  1  0  0  0  0
 26 21  1  0  0  0  0
 26 24  1  0  0  0  0
 27 28  1  0  0  0  0
 27 20  1  0  0  0  0
 29 28  1  0  0  0  0
 30 32  1  0  0  0  0
 32 31  1  0  0  0  0
M  END
>  <MODEL>
2

>  <REMARK>
 VINA RESULT:      -7.3      1.825      6.859
  Name = 
  5 active torsions:
  status: ('A' for Active; 'I' for Inactive)
    1  A    between atoms: C_10  and  C_28
    2  A    between atoms: O_14  and  C_21
    3  A    between atoms: O_14  and  C_29
    4  A    between atoms: C_15  and  C_19
    5  A    between atoms: C_19  and  C_26
                            x       y       z     vdW  Elec       q    Type
                         _______ _______ _______ _____ _____    ______ ____

>  <TORSDO>
F 5

$$$$
=
 OpenBabel10262421043D

 32 38  0  0  1  0  0  0  0  0999 V2000
  192.3150  177.5300  139.8870 C   0  0  1  0  0  3  0  0  0  0  0  0
  191.4270  175.9510  138.3430 C   0  0  1  0  0  0  0  0  0  0  0  0
  188.7420  177.3140  143.0840 C   0  0  1  0  0  3  0  0  0  0  0  0
  192.6120  177.4810  141.3100 N   0  0  0  0  0  2  0  0  0  0  0  0
  192.5860  176.1680  139.2720 C   0  0  1  0  0  3  0  0  0  0  0  0
  191.5450  174.9870  137.2240 C   0  0  2  0  0  3  0  0  0  0  0  0
  187.5750  176.4840  143.5930 C   0  0  0  0  0  1  0  0  0  0  0  0
  190.1930  176.6310  138.8970 C   0  0  1  0  0  3  0  0  0  0  0  0
  192.9400  174.3170  137.1390 C   0  0  1  0  0  3  0  0  0  0  0  0
  189.9690  177.1900  144.0300 C   0  0  1  0  0  3  0  0  0  0  0  0
  191.4080  177.5880  142.0400 C   0  0  0  0  0  0  0  0  0  0  0  0
  191.6910  176.3780  137.0240 O   0  0  0  0  0  0  0  0  0  0  0  0
  193.8730  176.0730  138.5920 N   0  0  0  0  0  0  0  0  0  0  0  0
  191.3080  177.2720  143.3310 C   0  0  0  0  0  3  0  0  0  0  0  0
  189.0470  176.9880  141.6130 C   0  0  2  0  0  3  0  0  0  0  0  0
  189.3550  175.6280  141.4730 O   0  0  0  0  0  1  0  0  0  0  0  0
  190.7800  177.7650  139.7570 C   0  0  1  0  0  3  0  0  0  0  0  0
  193.1400  173.9030  135.6900 C   0  0  0  0  0  1  0  0  0  0  0  0
  190.2310  177.8670  141.1920 C   0  0  2  0  0  3  0  0  0  0  0  0
  194.0950  175.1910  137.6580 C   0  0  0  0  0  0  0  0  0  0  0  0
  186.8200  176.7350  137.3030 C   0  0  0  0  0  2  0  0  0  0  0  0
  186.9710  178.1850  137.7490 C   0  0  2  0  0  3  0  0  0  0  0  0
  188.4110  178.3940  138.1810 C   0  0  2  0  0  3  0  0  0  0  0  0
  189.1420  177.0840  137.8650 C   0  0  2  0  0  3  0  0  0  0  0  0
  187.3110  178.2530  139.2240 C   0  0  0  0  0  2  0  0  0  0  0  0
  188.1180  176.0060  137.5870 C   0  0  0  0  0  2  0  0  0  0  0  0
  195.4080  175.0650  137.1890 O   0  0  0  0  0  0  0  0  0  0  0  0
  196.4650  174.5020  137.9520 C   0  0  0  0  0  2  0  0  0  0  0  0
  196.3300  172.9940  137.9670 C   0  0  0  0  0  1  0  0  0  0  0  0
  189.9140  178.2530  145.1160 C   0  0  0  0  0  2  0  0  0  0  0  0
  188.2990  177.7680  146.7920 O   0  0  0  0  0  1  0  0  0  0  0  0
  189.6460  177.6230  146.4700 C   0  0  0  0  0  2  0  0  0  0  0  0
  1  4  1  1  0  0  0
  2 12  1  6  0  0  0
  2  8  1  0  0  0  0
  2  5  1  0  0  0  0
  3  7  1  1  0  0  0
  3 10  1  0  0  0  0
  4 11  1  0  0  0  0
  5 13  1  6  0  0  0
  5  1  1  0  0  0  0
  6 12  1  6  0  0  0
  6  2  1  0  0  0  0
  8 24  1  6  0  0  0
  8 17  1  0  0  0  0
  9 18  1  6  0  0  0
  9  6  1  0  0  0  0
  9 20  1  0  0  0  0
 10 30  1  1  0  0  0
 11 14  2  0  0  0  0
 14 10  1  0  0  0  0
 15 16  1  1  0  0  0
 15  3  1  0  0  0  0
 17  1  1  0  0  0  0
 17 19  1  0  0  0  0
 19 15  1  0  0  0  0
 19 11  1  0  0  0  0
 20 13  2  0  0  0  0
 21 26  1  0  0  0  0
 21 22  1  0  0  0  0
 22 23  1  0  0  0  0
 22 25  1  0  0  0  0
 23 25  1  0  0  0  0
 24 23  1  0  0  0  0
 26 24  1  0  0  0  0
 27 20  1  0  0  0  0
 27 28  1  0  0  0  0
 28 29  1  0  0  0  0
 30 32  1  0  0  0  0
 32 31  1  0  0  0  0
M  END
>  <MODEL>
3

>  <REMARK>
 VINA RESULT:      -7.0      2.811      7.518
  Name = 
  5 active torsions:
  status: ('A' for Active; 'I' for Inactive)
    1  A    between atoms: C_10  and  C_28
    2  A    between atoms: O_14  and  C_21
    3  A    between atoms: O_14  and  C_29
    4  A    between atoms: C_15  and  C_19
    5  A    between atoms: C_19  and  C_26
                            x       y       z     vdW  Elec       q    Type
                         _______ _______ _______ _____ _____    ______ ____

>  <TORSDO>
F 5

$$$$
=
 OpenBabel10262421043D

 32 38  0  0  1  0  0  0  0  0999 V2000
  186.2670  178.9540  139.9000 C   0  0  1  0  0  3  0  0  0  0  0  0
  184.4280  178.0500  141.1140 C   0  0  1  0  0  0  0  0  0  0  0  0
  189.7410  177.3410  142.7920 C   0  0  1  0  0  3  0  0  0  0  0  0
  187.4750  178.3740  139.3360 N   0  0  0  0  0  2  0  0  0  0  0  0
  185.1320  177.9490  139.7920 C   0  0  1  0  0  3  0  0  0  0  0  0
  183.0230  177.5990  141.2410 C   0  0  2  0  0  3  0  0  0  0  0  0
  190.0990  176.3220  143.8610 C   0  0  0  0  0  1  0  0  0  0  0  0
  185.4250  178.4010  142.1980 C   0  0  1  0  0  3  0  0  0  0  0  0
  182.4220  177.0850  139.9080 C   0  0  1  0  0  3  0  0  0  0  0  0
  190.3140  176.9240  141.4100 C   0  0  1  0  0  3  0  0  0  0  0  0
  188.4030  178.1300  140.3720 C   0  0  0  0  0  0  0  0  0  0  0  0
  183.3540  178.9650  141.0980 O   0  0  0  0  0  0  0  0  0  0  0  0
  184.2380  178.1890  138.6640 N   0  0  0  0  0  0  0  0  0  0  0  0
  189.4640  177.3360  140.2290 C   0  0  0  0  0  3  0  0  0  0  0  0
  188.2300  177.6240  142.7870 C   0  0  2  0  0  3  0  0  0  0  0  0
  187.5180  176.4410  142.5490 O   0  0  0  0  0  1  0  0  0  0  0  0
  186.5300  179.1430  141.4240 C   0  0  1  0  0  3  0  0  0  0  0  0
  180.9170  177.2720  140.0030 C   0  0  0  0  0  1  0  0  0  0  0  0
  187.9670  178.6560  141.6830 C   0  0  2  0  0  3  0  0  0  0  0  0
  183.0120  177.7480  138.6510 C   0  0  0  0  0  0  0  0  0  0  0  0
  183.5290  178.7890  145.3900 C   0  0  0  0  0  2  0  0  0  0  0  0
  184.9420  179.1310  145.8520 C   0  0  2  0  0  3  0  0  0  0  0  0
  185.8120  179.2900  144.6180 C   0  0  2  0  0  3  0  0  0  0  0  0
  184.8690  179.1640  143.4170 C   0  0  2  0  0  3  0  0  0  0  0  0
  185.9070  178.0280  145.4650 C   0  0  0  0  0  2  0  0  0  0  0  0
  183.5480  178.5950  143.8870 C   0  0  0  0  0  2  0  0  0  0  0  0
  182.2910  177.8780  137.4570 O   0  0  0  0  0  0  0  0  0  0  0  0
  182.6710  177.2580  136.2380 C   0  0  0  0  0  2  0  0  0  0  0  0
  182.5740  175.7540  136.3850 C   0  0  0  0  0  1  0  0  0  0  0  0
  191.7170  177.4810  141.2240 C   0  0  0  0  0  2  0  0  0  0  0  0
  193.6040  177.2970  139.7910 O   0  0  0  0  0  1  0  0  0  0  0  0
  192.2140  177.2260  139.8130 C   0  0  0  0  0  2  0  0  0  0  0  0
  1  4  1  6  0  0  0
  1 17  1  0  0  0  0
  2 12  1  6  0  0  0
  2  6  1  0  0  0  0
  2  8  1  0  0  0  0
  3  7  1  1  0  0  0
  4 11  1  0  0  0  0
  5 13  1  6  0  0  0
  5  1  1  0  0  0  0
  5  2  1  0  0  0  0
  6 12  1  6  0  0  0
  8 24  1  1  0  0  0
  9 18  1  1  0  0  0
  9  6  1  0  0  0  0
 10 30  1  6  0  0  0
 10  3  1  0  0  0  0
 11 19  1  0  0  0  0
 14 11  2  0  0  0  0
 14 10  1  0  0  0  0
 15 16  1  6  0  0  0
 15  3  1  0  0  0  0
 17 19  1  0  0  0  0
 17  8  1  0  0  0  0
 19 15  1  0  0  0  0
 20 13  2  0  0  0  0
 20  9  1  0  0  0  0
 21 22  1  0  0  0  0
 23 25  1  0  0  0  0
 23 22  1  0  0  0  0
 24 26  1  0  0  0  0
 24 23  1  0  0  0  0
 25 22  1  0  0  0  0
 26 21  1  0  0  0  0
 27 20  1  0  0  0  0
 28 29  1  0  0  0  0
 28 27  1  0  0  0  0
 31 32  1  0  0  0  0
 32 30  1  0  0  0  0
M  END
>  <MODEL>
4

>  <REMARK>
 VINA RESULT:      -7.0      3.575      7.073
  Name = 
  5 active torsions:
  status: ('A' for Active; 'I' for Inactive)
    1  A    between atoms: C_10  and  C_28
    2  A    between atoms: O_14  and  C_21
    3  A    between atoms: O_14  and  C_29
    4  A    between atoms: C_15  and  C_19
    5  A    between atoms: C_19  and  C_26
                            x       y       z     vdW  Elec       q    Type
                         _______ _______ _______ _____ _____    ______ ____

>  <TORSDO>
F 5

$$$$
=
 OpenBabel10262421043D

 32 38  0  0  1  0  0  0  0  0999 V2000
  188.0560  178.5070  139.2990 C   0  0  1  0  0  3  0  0  0  0  0  0
  189.6840  176.8960  139.9480 C   0  0  1  0  0  0  0  0  0  0  0  0
  186.1110  175.9800  135.7130 C   0  0  1  0  0  3  0  0  0  0  0  0
  186.6110  178.4620  139.1380 N   0  0  0  0  0  2  0  0  0  0  0  0
  188.4600  177.6040  140.4520 C   0  0  1  0  0  3  0  0  0  0  0  0
  190.6400  176.2970  140.9080 C   0  0  2  0  0  3  0  0  0  0  0  0
  185.9290  174.5910  135.1240 C   0  0  0  0  0  1  0  0  0  0  0  0
  189.5870  176.7110  138.4490 C   0  0  1  0  0  3  0  0  0  0  0  0
  190.2440  176.5230  142.3890 C   0  0  1  0  0  3  0  0  0  0  0  0
  184.8260  176.4430  136.4550 C   0  0  1  0  0  3  0  0  0  0  0  0
  186.2970  177.8000  137.9310 C   0  0  0  0  0  0  0  0  0  0  0  0
  190.8830  177.5500  140.3010 O   0  0  0  0  0  0  0  0  0  0  0  0
  188.7020  178.3170  141.7020 N   0  0  0  0  0  0  0  0  0  0  0  0
  185.0810  177.3320  137.6510 C   0  0  0  0  0  3  0  0  0  0  0  0
  187.3890  176.0530  136.5630 C   0  0  2  0  0  3  0  0  0  0  0  0
  187.3310  175.1160  137.6050 O   0  0  0  0  0  1  0  0  0  0  0  0
  188.6700  177.8700  138.0170 C   0  0  1  0  0  3  0  0  0  0  0  0
  191.5270  176.4630  143.2010 C   0  0  0  0  0  1  0  0  0  0  0  0
  187.4850  177.4810  137.1130 C   0  0  2  0  0  3  0  0  0  0  0  0
  189.4560  177.8210  142.6410 C   0  0  0  0  0  0  0  0  0  0  0  0
  192.3880  174.9930  136.6790 C   0  0  0  0  0  2  0  0  0  0  0  0
  191.8270  175.8570  135.5550 C   0  0  2  0  0  3  0  0  0  0  0  0
  190.8410  176.8370  136.1670 C   0  0  2  0  0  3  0  0  0  0  0  0
  190.9220  176.6270  137.6830 C   0  0  2  0  0  3  0  0  0  0  0  0
  190.3380  175.6220  135.4000 C   0  0  0  0  0  2  0  0  0  0  0  0
  191.6550  175.3330  137.9620 C   0  0  0  0  0  2  0  0  0  0  0  0
  189.4870  178.4960  143.8680 O   0  0  0  0  0  0  0  0  0  0  0  0
  189.0850  177.9130  145.0980 C   0  0  0  0  0  2  0  0  0  0  0  0
  187.6240  177.5200  145.0160 C   0  0  0  0  0  1  0  0  0  0  0  0
  183.8870  177.1620  135.4980 C   0  0  0  0  0  2  0  0  0  0  0  0
  182.3890  175.4180  136.1010 O   0  0  0  0  0  1  0  0  0  0  0  0
  182.4460  176.7670  135.7630 C   0  0  0  0  0  2  0  0  0  0  0  0
  1  4  1  6  0  0  0
  1  5  1  0  0  0  0
  2 12  1  6  0  0  0
  2  5  1  0  0  0  0
  2  6  1  0  0  0  0
  3  7  1  1  0  0  0
  3 10  1  0  0  0  0
  3 15  1  0  0  0  0
  5 13  1  1  0  0  0
  6 12  1  1  0  0  0
  6  9  1  0  0  0  0
  8 24  1  6  0  0  0
  8  2  1  0  0  0  0
  9 20  1  0  0  0  0
  9 18  1  1  0  0  0
 10 30  1  6  0  0  0
 10 14  1  0  0  0  0
 11  4  1  0  0  0  0
 13 20  2  0  0  0  0
 14 11  2  0  0  0  0
 15 19  1  0  0  0  0
 15 16  1  1  0  0  0
 17  8  1  0  0  0  0
 17  1  1  0  0  0  0
 19 11  1  0  0  0  0
 19 17  1  0  0  0  0
 20 27  1  0  0  0  0
 21 26  1  0  0  0  0
 22 23  1  0  0  0  0
 22 21  1  0  0  0  0
 23 24  1  0  0  0  0
 24 26  1  0  0  0  0
 25 22  1  0  0  0  0
 25 23  1  0  0  0  0
 27 28  1  0  0  0  0
 29 28  1  0  0  0  0
 30 32  1  0  0  0  0
 32 31  1  0  0  0  0
M  END
>  <MODEL>
5

>  <REMARK>
 VINA RESULT:      -7.0      3.458      6.702
  Name = 
  5 active torsions:
  status: ('A' for Active; 'I' for Inactive)
    1  A    between atoms: C_10  and  C_28
    2  A    between atoms: O_14  and  C_21
    3  A    between atoms: O_14  and  C_29
    4  A    between atoms: C_15  and  C_19
    5  A    between atoms: C_19  and  C_26
                            x       y       z     vdW  Elec       q    Type
                         _______ _______ _______ _____ _____    ______ ____

>  <TORSDO>
F 5

$$$$
=
 OpenBabel10262421043D

 32 38  0  0  1  0  0  0  0  0999 V2000
  190.3680  177.8760  139.9860 C   0  0  1  0  0  3  0  0  0  0  0  0
  188.3210  177.1030  139.0460 C   0  0  1  0  0  0  0  0  0  0  0  0
  189.1110  177.4390  144.5970 C   0  0  1  0  0  3  0  0  0  0  0  0
  191.3030  177.3130  140.9460 N   0  0  0  0  0  2  0  0  0  0  0  0
  189.7770  176.7550  139.1470 C   0  0  1  0  0  3  0  0  0  0  0  0
  187.5000  176.5430  137.9480 C   0  0  2  0  0  3  0  0  0  0  0  0
  188.1570  176.7660  145.5690 C   0  0  0  0  0  1  0  0  0  0  0  0
  187.8790  177.8230  140.3030 C   0  0  1  0  0  3  0  0  0  0  0  0
  188.3080  175.6480  136.9750 C   0  0  1  0  0  3  0  0  0  0  0  0
  190.5070  176.7570  144.6240 C   0  0  1  0  0  3  0  0  0  0  0  0
  190.7690  177.4420  142.2470 C   0  0  0  0  0  0  0  0  0  0  0  0
  188.0130  177.8580  137.8950 O   0  0  0  0  0  0  0  0  0  0  0  0
  190.4070  176.6030  137.8390 N   0  0  0  0  0  0  0  0  0  0  0  0
  191.2320  176.7630  143.2960 C   0  0  0  0  0  3  0  0  0  0  0  0
  188.4870  177.5390  143.1960 C   0  0  2  0  0  3  0  0  0  0  0  0
  188.1680  176.2620  142.7160 O   0  0  0  0  0  1  0  0  0  0  0  0
  189.1830  178.4680  140.8070 C   0  0  1  0  0  3  0  0  0  0  0  0
  187.5810  175.6820  135.6400 C   0  0  0  0  0  1  0  0  0  0  0  0
  189.5170  178.2260  142.2900 C   0  0  2  0  0  3  0  0  0  0  0  0
  189.7900  176.0380  136.8400 C   0  0  0  0  0  0  0  0  0  0  0  0
  184.3080  178.7810  139.7970 C   0  0  0  0  0  2  0  0  0  0  0  0
  184.5600  179.3450  141.1910 C   0  0  2  0  0  3  0  0  0  0  0  0
  186.0550  179.2860  141.4550 C   0  0  2  0  0  3  0  0  0  0  0  0
  186.6960  178.7990  140.1510 C   0  0  2  0  0  3  0  0  0  0  0  0
  185.1220  178.2710  142.1020 C   0  0  0  0  0  2  0  0  0  0  0  0
  185.6150  178.2430  139.2500 C   0  0  0  0  0  2  0  0  0  0  0  0
  190.5360  175.7840  135.6820 O   0  0  0  0  0  0  0  0  0  0  0  0
  191.6790  174.9420  135.6510 C   0  0  0  0  0  2  0  0  0  0  0  0
  191.3500  173.6190  136.3110 C   0  0  0  0  0  1  0  0  0  0  0  0
  191.3970  177.4040  145.6730 C   0  0  0  0  0  2  0  0  0  0  0  0
  191.6780  177.1260  148.0170 O   0  0  0  0  0  1  0  0  0  0  0  0
  191.6810  176.4370  146.8070 C   0  0  0  0  0  2  0  0  0  0  0  0
  1 17  1  0  0  0  0
  1  4  1  1  0  0  0
  2 12  1  6  0  0  0
  2  5  1  0  0  0  0
  2  8  1  0  0  0  0
  3 10  1  0  0  0  0
  3  7  1  1  0  0  0
  4 11  1  0  0  0  0
  5 13  1  6  0  0  0
  5  1  1  0  0  0  0
  6 12  1  6  0  0  0
  6  2  1  0  0  0  0
  8 24  1  6  0  0  0
  8 17  1  0  0  0  0
  9 18  1  6  0  0  0
  9  6  1  0  0  0  0
 10 30  1  1  0  0  0
 11 19  1  0  0  0  0
 11 14  2  0  0  0  0
 14 10  1  0  0  0  0
 15 16  1  6  0  0  0
 15  3  1  0  0  0  0
 17 19  1  0  0  0  0
 19 15  1  0  0  0  0
 20  9  1  0  0  0  0
 20 13  2  0  0  0  0
 21 22  1  0  0  0  0
 22 23  1  0  0  0  0
 22 25  1  0  0  0  0
 23 25  1  0  0  0  0
 24 23  1  0  0  0  0
 26 21  1  0  0  0  0
 26 24  1  0  0  0  0
 27 20  1  0  0  0  0
 28 27  1  0  0  0  0
 28 29  1  0  0  0  0
 30 32  1  0  0  0  0
 32 31  1  0  0  0  0
M  END
>  <MODEL>
6

>  <REMARK>
 VINA RESULT:      -6.7      2.086      7.165
  Name = 
  5 active torsions:
  status: ('A' for Active; 'I' for Inactive)
    1  A    between atoms: C_10  and  C_28
    2  A    between atoms: O_14  and  C_21
    3  A    between atoms: O_14  and  C_29
    4  A    between atoms: C_15  and  C_19
    5  A    between atoms: C_19  and  C_26
                            x       y       z     vdW  Elec       q    Type
                         _______ _______ _______ _____ _____    ______ ____

>  <TORSDO>
F 5

$$$$
=
 OpenBabel10262421043D

 32 38  0  0  1  0  0  0  0  0999 V2000
  184.5350  179.1420  138.8230 C   0  0  1  0  0  3  0  0  0  0  0  0
  185.0390  177.1930  137.5520 C   0  0  1  0  0  0  0  0  0  0  0  0
  180.2940  177.6700  140.5190 C   0  0  1  0  0  3  0  0  0  0  0  0
  184.1900  179.3660  140.2180 N   0  0  0  0  0  2  0  0  0  0  0  0
  185.5200  177.9890  138.7300 C   0  0  1  0  0  3  0  0  0  0  0  0
  185.9670  176.2790  136.8470 C   0  0  2  0  0  3  0  0  0  0  0  0
  179.4150  176.4610  140.7970 C   0  0  0  0  0  1  0  0  0  0  0  0
  183.5330  177.3040  137.4410 C   0  0  1  0  0  3  0  0  0  0  0  0
  187.4020  176.2930  137.4320 C   0  0  1  0  0  3  0  0  0  0  0  0
  180.9490  178.1940  141.8270 C   0  0  1  0  0  3  0  0  0  0  0  0
  182.8430  178.9970  140.4290 C   0  0  0  0  0  0  0  0  0  0  0  0
  185.6650  177.5640  136.3430 O   0  0  0  0  0  0  0  0  0  0  0  0
  186.9090  178.4110  138.5890 N   0  0  0  0  0  0  0  0  0  0  0  0
  182.3240  178.7950  141.6400 C   0  0  0  0  0  3  0  0  0  0  0  0
  181.2940  177.3740  139.3900 C   0  0  2  0  0  3  0  0  0  0  0  0
  182.1060  176.2850  139.7370 O   0  0  0  0  0  1  0  0  0  0  0  0
  183.2360  178.6570  138.1120 C   0  0  1  0  0  3  0  0  0  0  0  0
  188.3380  175.8740  136.3110 C   0  0  0  0  0  1  0  0  0  0  0  0
  182.1320  178.6420  139.1840 C   0  0  2  0  0  3  0  0  0  0  0  0
  187.8140  177.6340  138.0640 C   0  0  0  0  0  0  0  0  0  0  0  0
  181.1560  175.9840  134.8830 C   0  0  0  0  0  2  0  0  0  0  0  0
  180.8530  177.4770  134.8130 C   0  0  2  0  0  3  0  0  0  0  0  0
  181.9260  178.2100  135.5990 C   0  0  2  0  0  3  0  0  0  0  0  0
  182.9390  177.1430  136.0280 C   0  0  2  0  0  3  0  0  0  0  0  0
  180.5370  178.0190  136.1930 C   0  0  0  0  0  2  0  0  0  0  0  0
  182.3270  175.7740  135.8230 C   0  0  0  0  0  2  0  0  0  0  0  0
  189.1470  178.0590  138.1300 O   0  0  0  0  0  0  0  0  0  0  0  0
  189.9750  177.8770  139.2690 C   0  0  0  0  0  2  0  0  0  0  0  0
  190.7440  176.5800  139.1320 C   0  0  0  0  0  1  0  0  0  0  0  0
  180.0500  179.2210  142.4990 C   0  0  0  0  0  2  0  0  0  0  0  0
  179.6810  177.5150  144.1120 O   0  0  0  0  0  1  0  0  0  0  0  0
  179.8590  178.8890  143.9670 C   0  0  0  0  0  2  0  0  0  0  0  0
  1  4  1  1  0  0  0
  2 12  1  6  0  0  0
  2  5  1  0  0  0  0
  3  7  1  1  0  0  0
  3 10  1  0  0  0  0
  4 11  1  0  0  0  0
  5 13  1  6  0  0  0
  5  1  1  0  0  0  0
  6 12  1  6  0  0  0
  6  9  1  0  0  0  0
  6  2  1  0  0  0  0
  8 24  1  6  0  0  0
  8  2  1  0  0  0  0
  8 17  1  0  0  0  0
  9 18  1  6  0  0  0
  9 20  1  0  0  0  0
 10 30  1  6  0  0  0
 11 14  2  0  0  0  0
 14 10  1  0  0  0  0
 15 16  1  1  0  0  0
 15  3  1  0  0  0  0
 17  1  1  0  0  0  0
 17 19  1  0  0  0  0
 19 15  1  0  0  0  0
 19 11  1  0  0  0  0
 20 27  1  0  0  0  0
 20 13  2  0  0  0  0
 21 26  1  0  0  0  0
 22 21  1  0  0  0  0
 22 23  1  0  0  0  0
 22 25  1  0  0  0  0
 23 24  1  0  0  0  0
 23 25  1  0  0  0  0
 26 24  1  0  0  0  0
 27 28  1  0  0  0  0
 29 28  1  0  0  0  0
 30 32  1  0  0  0  0
 32 31  1  0  0  0  0
M  END
>  <MODEL>
7

>  <REMARK>
 VINA RESULT:      -6.7      5.508      9.303
  Name = 
  5 active torsions:
  status: ('A' for Active; 'I' for Inactive)
    1  A    between atoms: C_10  and  C_28
    2  A    between atoms: O_14  and  C_21
    3  A    between atoms: O_14  and  C_29
    4  A    between atoms: C_15  and  C_19
    5  A    between atoms: C_19  and  C_26
                            x       y       z     vdW  Elec       q    Type
                         _______ _______ _______ _____ _____    ______ ____

>  <TORSDO>
F 5

$$$$
=
 OpenBabel10262421043D

 32 38  0  0  1  0  0  0  0  0999 V2000
  185.1900  178.6170  138.5190 C   0  0  1  0  0  3  0  0  0  0  0  0
  183.6520  177.1380  137.4630 C   0  0  1  0  0  0  0  0  0  0  0  0
  182.8240  179.0760  142.6680 C   0  0  1  0  0  3  0  0  0  0  0  0
  185.9140  178.5750  139.7790 N   0  0  0  0  0  2  0  0  0  0  0  0
  185.0640  177.2060  137.9670 C   0  0  1  0  0  3  0  0  0  0  0  0
  183.2770  176.1250  136.4480 C   0  0  2  0  0  3  0  0  0  0  0  0
  181.7780  178.4570  143.5810 C   0  0  0  0  0  1  0  0  0  0  0  0
  182.7620  178.0210  138.3110 C   0  0  1  0  0  3  0  0  0  0  0  0
  184.4680  175.2450  135.9930 C   0  0  1  0  0  3  0  0  0  0  0  0
  184.2580  178.7990  143.1970 C   0  0  1  0  0  3  0  0  0  0  0  0
  185.0300  178.8950  140.8340 C   0  0  0  0  0  0  0  0  0  0  0  0
  183.5390  177.4690  136.0960 O   0  0  0  0  0  0  0  0  0  0  0  0
  186.0430  176.8880  136.9330 N   0  0  0  0  0  0  0  0  0  0  0  0
  185.3040  178.6470  142.1150 C   0  0  0  0  0  3  0  0  0  0  0  0
  182.5980  178.6520  141.2090 C   0  0  2  0  0  3  0  0  0  0  0  0
  182.6590  177.2570  141.0950 O   0  0  0  0  0  1  0  0  0  0  0  0
  183.7400  179.0810  138.8490 C   0  0  1  0  0  3  0  0  0  0  0  0
  184.1390  174.7510  134.5940 C   0  0  0  0  0  1  0  0  0  0  0  0
  183.6950  179.3200  140.3690 C   0  0  2  0  0  3  0  0  0  0  0  0
  185.8350  175.9480  136.0550 C   0  0  0  0  0  0  0  0  0  0  0  0
  179.1980  179.1080  138.0940 C   0  0  0  0  0  2  0  0  0  0  0  0
  179.9170  180.4260  137.8270 C   0  0  2  0  0  3  0  0  0  0  0  0
  181.3880  180.1210  137.6060 C   0  0  2  0  0  3  0  0  0  0  0  0
  181.5090  178.5930  137.6200 C   0  0  2  0  0  3  0  0  0  0  0  0
  180.9180  180.7160  138.9270 C   0  0  0  0  0  2  0  0  0  0  0  0
  180.2330  178.0040  138.1810 C   0  0  0  0  0  2  0  0  0  0  0  0
  186.9010  175.6020  135.2160 O   0  0  0  0  0  0  0  0  0  0  0  0
  188.1190  175.0420  135.6820 C   0  0  0  0  0  2  0  0  0  0  0  0
  187.8310  173.7540  136.4240 C   0  0  0  0  0  1  0  0  0  0  0  0
  184.6960  179.8970  144.1530 C   0  0  0  0  0  2  0  0  0  0  0  0
  184.1460  178.9290  146.2530 O   0  0  0  0  0  1  0  0  0  0  0  0
  185.2180  179.3050  145.4480 C   0  0  0  0  0  2  0  0  0  0  0  0
  1 17  1  0  0  0  0
  1  4  1  1  0  0  0
  2 12  1  6  0  0  0
  2  5  1  0  0  0  0
  2  8  1  0  0  0  0
  3 10  1  0  0  0  0
  3  7  1  1  0  0  0
  4 11  1  0  0  0  0
  5 13  1  6  0  0  0
  5  1  1  0  0  0  0
  6 12  1  6  0  0  0
  6  2  1  0  0  0  0
  8 24  1  6  0  0  0
  8 17  1  0  0  0  0
  9 18  1  6  0  0  0
  9 20  1  0  0  0  0
  9  6  1  0  0  0  0
 10 30  1  1  0  0  0
 11 14  2  0  0  0  0
 14 10  1  0  0  0  0
 15 16  1  1  0  0  0
 15  3  1  0  0  0  0
 17 19  1  0  0  0  0
 19 11  1  0  0  0  0
 19 15  1  0  0  0  0
 20 13  2  0  0  0  0
 21 26  1  0  0  0  0
 22 21  1  0  0  0  0
 22 25  1  0  0  0  0
 23 24  1  0  0  0  0
 23 22  1  0  0  0  0
 23 25  1  0  0  0  0
 24 26  1  0  0  0  0
 27 28  1  0  0  0  0
 27 20  1  0  0  0  0
 28 29  1  0  0  0  0
 30 32  1  0  0  0  0
 32 31  1  0  0  0  0
M  END
>  <MODEL>
8

>  <REMARK>
 VINA RESULT:      -6.7      4.925      9.280
  Name = 
  5 active torsions:
  status: ('A' for Active; 'I' for Inactive)
    1  A    between atoms: C_10  and  C_28
    2  A    between atoms: O_14  and  C_21
    3  A    between atoms: O_14  and  C_29
    4  A    between atoms: C_15  and  C_19
    5  A    between atoms: C_19  and  C_26
                            x       y       z     vdW  Elec       q    Type
                         _______ _______ _______ _____ _____    ______ ____

>  <TORSDO>
F 5

$$$$
=
 OpenBabel10262421043D

 32 38  0  0  1  0  0  0  0  0999 V2000
  191.6170  177.4910  140.4710 C   0  0  1  0  0  3  0  0  0  0  0  0
  190.1740  176.5330  138.8360 C   0  0  1  0  0  0  0  0  0  0  0  0
  188.4420  177.6180  144.0670 C   0  0  1  0  0  3  0  0  0  0  0  0
  192.0160  177.0910  141.8100 N   0  0  0  0  0  2  0  0  0  0  0  0
  191.4270  176.2510  139.6140 C   0  0  1  0  0  3  0  0  0  0  0  0
  189.9070  175.8060  137.5730 C   0  0  2  0  0  3  0  0  0  0  0  0
  187.1380  177.0460  144.5990 C   0  0  0  0  0  1  0  0  0  0  0  0
  189.2430  177.3960  139.6620 C   0  0  1  0  0  3  0  0  0  0  0  0
  191.0370  174.8200  137.1840 C   0  0  1  0  0  3  0  0  0  0  0  0
  189.6630  176.9930  144.7970 C   0  0  1  0  0  3  0  0  0  0  0  0
  190.9660  177.3710  142.7120 C   0  0  0  0  0  0  0  0  0  0  0  0
  190.4270  177.1200  137.5780 O   0  0  0  0  0  0  0  0  0  0  0  0
  192.5640  175.9510  138.7510 N   0  0  0  0  0  0  0  0  0  0  0  0
  190.8990  176.8500  143.9370 C   0  0  0  0  0  3  0  0  0  0  0  0
  188.5040  177.5130  142.5360 C   0  0  2  0  0  3  0  0  0  0  0  0
  188.3950  176.1740  142.1380 O   0  0  0  0  0  1  0  0  0  0  0  0
  190.2080  178.1450  140.5990 C   0  0  1  0  0  3  0  0  0  0  0  0
  190.9760  174.6550  135.6750 C   0  0  0  0  0  1  0  0  0  0  0  0
  189.8460  178.1100  142.0950 C   0  0  2  0  0  3  0  0  0  0  0  0
  192.4370  175.2390  137.6670 C   0  0  0  0  0  0  0  0  0  0  0  0
  187.7800  178.9650  136.6080 C   0  0  0  0  0  2  0  0  0  0  0  0
  186.5810  178.1790  137.1290 C   0  0  2  0  0  3  0  0  0  0  0  0
  186.9150  177.6890  138.5270 C   0  0  2  0  0  3  0  0  0  0  0  0
  188.2760  178.3020  138.8760 C   0  0  2  0  0  3  0  0  0  0  0  0
  186.9540  176.7270  137.3480 C   0  0  0  0  0  2  0  0  0  0  0  0
  188.9080  178.8460  137.6130 C   0  0  0  0  0  2  0  0  0  0  0  0
  193.6100  174.8610  137.0010 O   0  0  0  0  0  0  0  0  0  0  0  0
  194.8660  174.7080  137.6450 C   0  0  0  0  0  2  0  0  0  0  0  0
  194.9920  173.2960  138.1760 C   0  0  0  0  0  1  0  0  0  0  0  0
  190.0160  177.8020  146.0360 C   0  0  0  0  0  2  0  0  0  0  0  0
  191.7460  176.9270  147.4110 O   0  0  0  0  0  1  0  0  0  0  0  0
  190.3710  176.8870  147.1920 C   0  0  0  0  0  2  0  0  0  0  0  0
  1 17  1  0  0  0  0
  1  4  1  1  0  0  0
  2 12  1  6  0  0  0
  2  5  1  0  0  0  0
  2  8  1  0  0  0  0
  3  7  1  1  0  0  0
  3 10  1  0  0  0  0
  4 11  1  0  0  0  0
  5 13  1  6  0  0  0
  5  1  1  0  0  0  0
  6 12  1  6  0  0  0
  6  2  1  0  0  0  0
  8 24  1  6  0  0  0
  8 17  1  0  0  0  0
  9 18  1  6  0  0  0
  9  6  1  0  0  0  0
  9 20  1  0  0  0  0
 10 30  1  1  0  0  0
 11 14  2  0  0  0  0
 14 10  1  0  0  0  0
 15 16  1  1  0  0  0
 15  3  1  0  0  0  0
 17 19  1  0  0  0  0
 19 15  1  0  0  0  0
 19 11  1  0  0  0  0
 20 13  2  0  0  0  0
 21 22  1  0  0  0  0
 21 26  1  0  0  0  0
 22 25  1  0  0  0  0
 22 23  1  0  0  0  0
 23 24  1  0  0  0  0
 25 23  1  0  0  0  0
 26 24  1  0  0  0  0
 27 28  1  0  0  0  0
 27 20  1  0  0  0  0
 28 29  1  0  0  0  0
 30 32  1  0  0  0  0
 32 31  1  0  0  0  0
M  END
>  <MODEL>
9

>  <REMARK>
 VINA RESULT:      -6.6      2.248      7.322
  Name = 
  5 active torsions:
  status: ('A' for Active; 'I' for Inactive)
    1  A    between atoms: C_10  and  C_28
    2  A    between atoms: O_14  and  C_21
    3  A    between atoms: O_14  and  C_29
    4  A    between atoms: C_15  and  C_19
    5  A    between atoms: C_19  and  C_26
                            x       y       z     vdW  Elec       q    Type
                         _______ _______ _______ _____ _____    ______ ____

>  <TORSDO>
F 5

$$$$
