=
 OpenBabel10262419493D

 25 28  0  0  1  0  0  0  0  0999 V2000
  187.4430  177.7480  146.0110 C   0  0  0  0  0  0  0  0  0  0  0  0
  188.6330  177.1570  145.9040 C   0  0  0  0  0  0  0  0  0  0  0  0
  187.7880  178.2880  148.4540 C   0  0  0  0  0  3  0  0  0  0  0  0
  186.4240  178.1040  145.0440 C   0  0  0  0  0  0  0  0  0  0  0  0
  190.5700  177.4160  144.3780 C   0  0  2  0  0  0  0  0  0  0  0  0
  184.3120  179.2610  143.6010 C   0  0  0  0  0  3  0  0  0  0  0  0
  188.9750  177.6670  148.3960 C   0  0  0  0  0  3  0  0  0  0  0  0
  185.4850  178.7490  145.7280 C   0  0  0  0  0  0  0  0  0  0  0  0
  184.1850  179.1660  145.1070 C   0  0  0  0  0  2  0  0  0  0  0  0
  190.9230  177.1100  146.8950 C   0  0  0  0  0  0  0  0  0  0  0  0
  191.7410  177.0860  147.8530 O   0  0  0  0  0  0  0  0  0  0  0  0
  189.2010  176.7510  144.5820 C   0  0  0  0  0  2  0  0  0  0  0  0
  185.2640  178.5940  142.9180 C   0  0  0  0  0  3  0  0  0  0  0  0
  186.9560  178.2960  147.2520 C   0  0  0  0  0  0  0  0  0  0  0  0
  185.8160  178.8950  147.1150 N   0  0  0  0  0  0  0  0  0  0  0  0
  191.4200  177.2110  145.5520 N   0  0  0  0  0  2  0  0  0  0  0  0
  186.2720  177.7010  143.6070 C   0  0  0  0  0  2  0  0  0  0  0  0
  190.3930  178.9150  144.1590 C   0  0  0  0  0  1  0  0  0  0  0  0
  189.4550  176.9100  147.1580 C   0  0  2  0  0  3  0  0  0  0  0  0
  191.2710  176.8020  143.1670 C   0  0  0  0  0  2  0  0  0  0  0  0
  190.3310  175.9990  142.2770 C   0  0  0  0  0  2  0  0  0  0  0  0
  189.5510  177.4880  140.4020 C   0  0  0  0  0  0  0  0  0  0  0  0
  189.6960  177.9450  138.9950 C   0  0  0  0  0  1  0  0  0  0  0  0
  188.6580  177.9910  141.1330 O   0  0  0  0  0  0  0  0  0  0  0  0
  190.4280  176.4830  140.9100 N   0  0  0  0  0  2  0  0  0  0  0  0
  1 14  1  0  0  0  0
  2  1  2  0  0  0  0
  2 19  1  0  0  0  0
  4  8  2  0  0  0  0
  4  1  1  0  0  0  0
  5 18  1  6  0  0  0
  5 12  1  0  0  0  0
  5 16  1  0  0  0  0
  6  9  1  0  0  0  0
  7  3  2  0  0  0  0
  8 15  1  0  0  0  0
  9  8  1  0  0  0  0
 10 19  1  0  0  0  0
 10 11  2  0  0  0  0
 12  2  1  0  0  0  0
 13  6  2  0  0  0  0
 13 17  1  0  0  0  0
 14  3  1  0  0  0  0
 15 14  2  0  0  0  0
 16 10  1  0  0  0  0
 17  4  1  0  0  0  0
 19  7  1  1  0  0  0
 20  5  1  0  0  0  0
 21 20  1  0  0  0  0
 22 25  1  0  0  0  0
 22 24  2  0  0  0  0
 23 22  1  0  0  0  0
 25 21  1  0  0  0  0
M  END
>  <MODEL>
1

>  <REMARK>
 VINA RESULT:     -11.0      0.000      0.000
  Name = 
  3 active torsions:
  status: ('A' for Active; 'I' for Inactive)
    1  A    between atoms: C_6  and  C_15
    2  A    between atoms: C_15  and  C_25
    3  A    between atoms: N_21  and  C_25
                            x       y       z     vdW  Elec       q    Type
                         _______ _______ _______ _____ _____    ______ ____

>  <TORSDO>
F 3

$$$$
=
 OpenBabel10262419493D

 25 28  0  0  1  0  0  0  0  0999 V2000
  187.5490  177.6840  145.8580 C   0  0  0  0  0  0  0  0  0  0  0  0
  188.7340  177.0810  145.7460 C   0  0  0  0  0  0  0  0  0  0  0  0
  187.9110  178.2260  148.2980 C   0  0  0  0  0  3  0  0  0  0  0  0
  186.5290  178.0470  144.8950 C   0  0  0  0  0  0  0  0  0  0  0  0
  190.6650  177.3210  144.2100 C   0  0  2  0  0  0  0  0  0  0  0  0
  184.4200  179.2200  143.4600 C   0  0  0  0  0  3  0  0  0  0  0  0
  189.0930  177.5940  148.2360 C   0  0  0  0  0  3  0  0  0  0  0  0
  185.5990  178.7020  145.5830 C   0  0  0  0  0  0  0  0  0  0  0  0
  184.2990  179.1290  144.9670 C   0  0  0  0  0  2  0  0  0  0  0  0
  191.0280  177.0160  146.7260 C   0  0  0  0  0  0  0  0  0  0  0  0
  191.8510  176.9870  147.6800 O   0  0  0  0  0  0  0  0  0  0  0  0
  189.2910  176.6680  144.4230 C   0  0  0  0  0  2  0  0  0  0  0  0
  185.3620  178.5420  142.7740 C   0  0  0  0  0  3  0  0  0  0  0  0
  187.0730  178.2390  147.1000 C   0  0  0  0  0  0  0  0  0  0  0  0
  185.9380  178.8480  146.9680 N   0  0  0  0  0  0  0  0  0  0  0  0
  191.5190  177.1110  145.3810 N   0  0  0  0  0  2  0  0  0  0  0  0
  186.3660  177.6420  143.4610 C   0  0  0  0  0  2  0  0  0  0  0  0
  190.5000  178.8210  143.9890 C   0  0  0  0  0  1  0  0  0  0  0  0
  189.5600  176.8300  146.9970 C   0  0  2  0  0  3  0  0  0  0  0  0
  191.3540  176.6970  142.9970 C   0  0  0  0  0  2  0  0  0  0  0  0
  191.7310  177.7200  141.9330 C   0  0  0  0  0  2  0  0  0  0  0  0
  192.3210  177.0210  139.5880 C   0  0  0  0  0  0  0  0  0  0  0  0
  191.8840  176.5020  138.2660 C   0  0  0  0  0  1  0  0  0  0  0  0
  193.5380  177.2820  139.7840 O   0  0  0  0  0  0  0  0  0  0  0  0
  191.3580  177.2160  140.6220 N   0  0  0  0  0  2  0  0  0  0  0  0
  1 14  1  0  0  0  0
  2  1  2  0  0  0  0
  2 19  1  0  0  0  0
  4  8  2  0  0  0  0
  4  1  1  0  0  0  0
  5 18  1  6  0  0  0
  5 12  1  0  0  0  0
  5 16  1  0  0  0  0
  6  9  1  0  0  0  0
  7  3  2  0  0  0  0
  8 15  1  0  0  0  0
  9  8  1  0  0  0  0
 10 19  1  0  0  0  0
 10 11  2  0  0  0  0
 12  2  1  0  0  0  0
 13  6  2  0  0  0  0
 13 17  1  0  0  0  0
 14  3  1  0  0  0  0
 15 14  2  0  0  0  0
 16 10  1  0  0  0  0
 17  4  1  0  0  0  0
 19  7  1  1  0  0  0
 20  5  1  0  0  0  0
 21 20  1  0  0  0  0
 22 24  2  0  0  0  0
 22 25  1  0  0  0  0
 23 22  1  0  0  0  0
 25 21  1  0  0  0  0
M  END
>  <MODEL>
2

>  <REMARK>
 VINA RESULT:     -10.6      1.364      1.406
  Name = 
  3 active torsions:
  status: ('A' for Active; 'I' for Inactive)
    1  A    between atoms: C_6  and  C_15
    2  A    between atoms: C_15  and  C_25
    3  A    between atoms: N_21  and  C_25
                            x       y       z     vdW  Elec       q    Type
                         _______ _______ _______ _____ _____    ______ ____

>  <TORSDO>
F 3

$$$$
=
 OpenBabel10262419493D

 25 28  0  0  1  0  0  0  0  0999 V2000
  187.1440  177.6010  144.9360 C   0  0  0  0  0  0  0  0  0  0  0  0
  188.2530  177.0100  144.4910 C   0  0  0  0  0  0  0  0  0  0  0  0
  188.1480  178.0630  147.2070 C   0  0  0  0  0  3  0  0  0  0  0  0
  185.9040  177.9910  144.2940 C   0  0  0  0  0  0  0  0  0  0  0  0
  189.7030  177.3130  142.5020 C   0  0  2  0  0  0  0  0  0  0  0  0
  183.4920  179.1990  143.5180 C   0  0  0  0  0  3  0  0  0  0  0  0
  189.2680  177.4400  146.8090 C   0  0  0  0  0  3  0  0  0  0  0  0
  185.1950  178.6170  145.2280 C   0  0  0  0  0  0  0  0  0  0  0  0
  183.7790  179.0570  144.9980 C   0  0  0  0  0  2  0  0  0  0  0  0
  190.7260  176.9260  144.8170 C   0  0  0  0  0  0  0  0  0  0  0  0
  191.7740  176.8690  145.5140 O   0  0  0  0  0  0  0  0  0  0  0  0
  188.4340  176.6450  143.0530 C   0  0  0  0  0  2  0  0  0  0  0  0
  184.2130  178.5510  142.5820 C   0  0  0  0  0  3  0  0  0  0  0  0
  187.0200  178.1110  146.2780 C   0  0  0  0  0  0  0  0  0  0  0  0
  185.8930  178.7170  146.4760 N   0  0  0  0  0  0  0  0  0  0  0  0
  190.8390  177.0680  143.3930 N   0  0  0  0  0  2  0  0  0  0  0  0
  185.3620  177.6340  142.9430 C   0  0  0  0  0  2  0  0  0  0  0  0
  189.4900  178.8180  142.3850 C   0  0  0  0  0  1  0  0  0  0  0  0
  189.3830  176.7220  145.4650 C   0  0  2  0  0  3  0  0  0  0  0  0
  190.0400  176.7350  141.1290 C   0  0  0  0  0  2  0  0  0  0  0  0
  189.9900  177.7730  140.0150 C   0  0  0  0  0  2  0  0  0  0  0  0
  187.8100  177.7660  138.7560 C   0  0  0  0  0  0  0  0  0  0  0  0
  186.9870  177.2370  137.6370 C   0  0  0  0  0  1  0  0  0  0  0  0
  187.3250  178.6320  139.5320 O   0  0  0  0  0  0  0  0  0  0  0  0
  189.1420  177.2890  138.9380 N   0  0  0  0  0  2  0  0  0  0  0  0
  1 14  1  0  0  0  0
  2  1  2  0  0  0  0
  2 19  1  0  0  0  0
  4  1  1  0  0  0  0
  4  8  2  0  0  0  0
  5 18  1  6  0  0  0
  5 12  1  0  0  0  0
  5 16  1  0  0  0  0
  6  9  1  0  0  0  0
  7  3  2  0  0  0  0
  8 15  1  0  0  0  0
  9  8  1  0  0  0  0
 10 19  1  0  0  0  0
 10 11  2  0  0  0  0
 12  2  1  0  0  0  0
 13 17  1  0  0  0  0
 13  6  2  0  0  0  0
 14 15  2  0  0  0  0
 14  3  1  0  0  0  0
 16 10  1  0  0  0  0
 17  4  1  0  0  0  0
 19  7  1  1  0  0  0
 20  5  1  0  0  0  0
 21 20  1  0  0  0  0
 22 25  1  0  0  0  0
 22 24  2  0  0  0  0
 23 22  1  0  0  0  0
 25 21  1  0  0  0  0
M  END
>  <MODEL>
3

>  <REMARK>
 VINA RESULT:      -9.2      1.490      1.826
  Name = 
  3 active torsions:
  status: ('A' for Active; 'I' for Inactive)
    1  A    between atoms: C_6  and  C_15
    2  A    between atoms: C_15  and  C_25
    3  A    between atoms: N_21  and  C_25
                            x       y       z     vdW  Elec       q    Type
                         _______ _______ _______ _____ _____    ______ ____

>  <TORSDO>
F 3

$$$$
=
 OpenBabel10262419493D

 25 28  0  0  1  0  0  0  0  0999 V2000
  189.0770  176.9680  144.7870 C   0  0  0  0  0  0  0  0  0  0  0  0
  188.8560  176.7640  143.4870 C   0  0  0  0  0  0  0  0  0  0  0  0
  191.5380  176.4350  144.5810 C   0  0  0  0  0  3  0  0  0  0  0  0
  188.2530  177.4790  145.8630 C   0  0  2  0  0  3  0  0  0  0  0  0
  187.8050  178.0920  141.6770 C   0  0  2  0  0  0  0  0  0  0  0  0
  187.2280  178.6540  148.1970 C   0  0  0  0  0  3  0  0  0  0  0  0
  191.3470  176.1830  143.2770 C   0  0  0  0  0  3  0  0  0  0  0  0
  189.0430  177.5300  146.9310 C   0  0  0  0  0  0  0  0  0  0  0  0
  188.5250  177.8790  148.2950 C   0  0  0  0  0  2  0  0  0  0  0  0
  189.9700  176.7930  141.2540 C   0  0  0  0  0  0  0  0  0  0  0  0
  190.9070  176.5300  140.4540 O   0  0  0  0  0  0  0  0  0  0  0  0
  187.5570  177.1200  142.8400 C   0  0  0  0  0  2  0  0  0  0  0  0
  186.4310  178.5860  147.1120 C   0  0  0  0  0  3  0  0  0  0  0  0
  190.3740  176.7890  145.3910 C   0  0  0  0  0  0  0  0  0  0  0  0
  190.3850  177.1180  146.6440 N   0  0  0  0  0  0  0  0  0  0  0  0
  188.8620  177.5840  140.8000 N   0  0  0  0  0  2  0  0  0  0  0  0
  186.7750  177.7280  145.9140 C   0  0  0  0  0  2  0  0  0  0  0  0
  188.2320  179.4530  142.2170 C   0  0  0  0  0  1  0  0  0  0  0  0
  189.9630  176.1780  142.6280 C   0  0  0  0  0  0  0  0  0  0  0  0
  186.5300  178.2470  140.8480 C   0  0  0  0  0  2  0  0  0  0  0  0
  185.6280  179.3700  141.3440 C   0  0  0  0  0  2  0  0  0  0  0  0
  184.2550  179.2370  143.4500 C   0  0  0  0  0  0  0  0  0  0  0  0
  183.1220  178.6270  144.1950 C   0  0  0  0  0  1  0  0  0  0  0  0
  184.9560  180.1270  143.9990 O   0  0  0  0  0  0  0  0  0  0  0  0
  184.5340  178.8080  142.1180 N   0  0  0  0  0  2  0  0  0  0  0  0
  1 14  2  0  0  0  0
  1  4  1  0  0  0  0
  2  1  1  0  0  0  0
  3 14  1  0  0  0  0
  4 17  1  1  0  0  0
  4  8  1  0  0  0  0
  5 18  1  1  0  0  0
  5 12  1  0  0  0  0
  6  9  1  0  0  0  0
  7  3  2  0  0  0  0
  8  9  1  0  0  0  0
 10 19  1  0  0  0  0
 11 10  2  0  0  0  0
 12  2  1  0  0  0  0
 13  6  2  0  0  0  0
 14 15  1  0  0  0  0
 15  8  2  0  0  0  0
 16 10  1  0  0  0  0
 16  5  1  0  0  0  0
 17 13  1  0  0  0  0
 19  7  1  0  0  0  0
 19  2  2  0  0  0  0
 20 21  1  0  0  0  0
 20  5  1  0  0  0  0
 21 25  1  0  0  0  0
 22 24  2  0  0  0  0
 22 23  1  0  0  0  0
 25 22  1  0  0  0  0
M  END
>  <MODEL>
4

>  <REMARK>
 VINA RESULT:      -8.5      2.237      5.047
  Name = 
  3 active torsions:
  status: ('A' for Active; 'I' for Inactive)
    1  A    between atoms: C_6  and  C_15
    2  A    between atoms: C_15  and  C_25
    3  A    between atoms: N_21  and  C_25
                            x       y       z     vdW  Elec       q    Type
                         _______ _______ _______ _____ _____    ______ ____

>  <TORSDO>
F 3

$$$$
=
 OpenBabel10262419493D

 25 28  0  0  1  0  0  0  0  0999 V2000
  189.1550  176.9450  144.8280 C   0  0  0  0  0  0  0  0  0  0  0  0
  189.0020  176.7290  143.5210 C   0  0  0  0  0  0  0  0  0  0  0  0
  191.6310  176.4510  144.7490 C   0  0  0  0  0  3  0  0  0  0  0  0
  188.2700  177.4510  145.8580 C   0  0  2  0  0  3  0  0  0  0  0  0
  188.0210  178.0270  141.6500 C   0  0  2  0  0  0  0  0  0  0  0  0
  187.1120  178.6260  148.1290 C   0  0  0  0  0  3  0  0  0  0  0  0
  191.5090  176.1870  143.4390 C   0  0  0  0  0  3  0  0  0  0  0  0
  189.0050  177.5220  146.9630 C   0  0  0  0  0  0  0  0  0  0  0  0
  188.4150  177.8720  148.2970 C   0  0  0  0  0  2  0  0  0  0  0  0
  190.2250  176.7600  141.3460 C   0  0  0  0  0  0  0  0  0  0  0  0
  191.2050  176.5070  140.5950 O   0  0  0  0  0  0  0  0  0  0  0  0
  187.7310  177.0590  142.8060 C   0  0  0  0  0  2  0  0  0  0  0  0
  186.3710  178.5370  147.0060 C   0  0  0  0  0  3  0  0  0  0  0  0
  190.4220  176.7920  145.4970 C   0  0  0  0  0  0  0  0  0  0  0  0
  190.3670  177.1300  146.7460 N   0  0  0  0  0  0  0  0  0  0  0  0
  189.1290  177.5300  140.8310 N   0  0  0  0  0  2  0  0  0  0  0  0
  186.7880  177.6760  145.8330 C   0  0  0  0  0  2  0  0  0  0  0  0
  188.3990  179.3980  142.2000 C   0  0  0  0  0  1  0  0  0  0  0  0
  190.1600  176.1550  142.7220 C   0  0  0  0  0  0  0  0  0  0  0  0
  186.7870  178.1550  140.7580 C   0  0  0  0  0  2  0  0  0  0  0  0
  185.7030  179.0380  141.3620 C   0  0  0  0  0  2  0  0  0  0  0  0
  183.8870  179.3330  139.6440 C   0  0  0  0  0  0  0  0  0  0  0  0
  182.5620  178.9230  139.1080 C   0  0  0  0  0  1  0  0  0  0  0  0
  184.5320  180.2530  139.0760 O   0  0  0  0  0  0  0  0  0  0  0  0
  184.4130  178.6770  140.7970 N   0  0  0  0  0  2  0  0  0  0  0  0
  1 14  2  0  0  0  0
  1  4  1  0  0  0  0
  2  1  1  0  0  0  0
  3 14  1  0  0  0  0
  4 17  1  1  0  0  0
  4  8  1  0  0  0  0
  5 18  1  1  0  0  0
  5 12  1  0  0  0  0
  6  9  1  0  0  0  0
  7  3  2  0  0  0  0
  8  9  1  0  0  0  0
 10 19  1  0  0  0  0
 11 10  2  0  0  0  0
 12  2  1  0  0  0  0
 13  6  2  0  0  0  0
 14 15  1  0  0  0  0
 15  8  2  0  0  0  0
 16 10  1  0  0  0  0
 16  5  1  0  0  0  0
 17 13  1  0  0  0  0
 19  7  1  0  0  0  0
 19  2  2  0  0  0  0
 20 21  1  0  0  0  0
 20  5  1  0  0  0  0
 22 25  1  0  0  0  0
 23 22  1  0  0  0  0
 24 22  2  0  0  0  0
 25 21  1  0  0  0  0
M  END
>  <MODEL>
5

>  <REMARK>
 VINA RESULT:      -8.3      2.468      4.876
  Name = 
  3 active torsions:
  status: ('A' for Active; 'I' for Inactive)
    1  A    between atoms: C_6  and  C_15
    2  A    between atoms: C_15  and  C_25
    3  A    between atoms: N_21  and  C_25
                            x       y       z     vdW  Elec       q    Type
                         _______ _______ _______ _____ _____    ______ ____

>  <TORSDO>
F 3

$$$$
=
 OpenBabel10262419493D

 25 28  0  0  1  0  0  0  0  0999 V2000
  187.9450  177.6260  142.3110 C   0  0  0  0  0  0  0  0  0  0  0  0
  188.2310  177.2670  143.5630 C   0  0  0  0  0  0  0  0  0  0  0  0
  185.7480  178.6780  142.9810 C   0  0  0  0  0  3  0  0  0  0  0  0
  188.6970  177.5890  141.0740 C   0  0  0  0  0  0  0  0  0  0  0  0
  190.1780  177.6000  145.0620 C   0  0  2  0  0  0  0  0  0  0  0  0
  189.7760  178.0200  138.5180 C   0  0  0  0  0  3  0  0  0  0  0  0
  185.9830  178.2980  144.2460 C   0  0  0  0  0  3  0  0  0  0  0  0
  187.9190  178.1590  140.1590 C   0  0  0  0  0  0  0  0  0  0  0  0
  188.2830  178.1910  138.7040 C   0  0  0  0  0  2  0  0  0  0  0  0
  187.7890  177.8530  145.9480 C   0  0  0  0  0  0  0  0  0  0  0  0
  187.0480  178.1700  146.9170 O   0  0  0  0  0  0  0  0  0  0  0  0
  189.5740  176.7340  143.9470 C   0  0  0  0  0  2  0  0  0  0  0  0
  190.5530  177.4320  139.4500 C   0  0  0  0  0  3  0  0  0  0  0  0
  186.7190  178.2960  141.9570 C   0  0  0  0  0  0  0  0  0  0  0  0
  186.6790  178.6270  140.7050 N   0  0  0  0  0  0  0  0  0  0  0  0
  189.2090  177.7910  146.1450 N   0  0  0  0  0  2  0  0  0  0  0  0
  189.9880  176.8980  140.7480 C   0  0  0  0  0  2  0  0  0  0  0  0
  190.5650  178.9680  144.5090 C   0  0  0  0  0  1  0  0  0  0  0  0
  187.1740  177.4270  144.6430 C   0  0  2  0  0  3  0  0  0  0  0  0
  191.4130  176.9140  145.6430 C   0  0  0  0  0  2  0  0  0  0  0  0
  191.1540  176.2620  146.9950 C   0  0  0  0  0  2  0  0  0  0  0  0
  192.8960  176.3150  148.8130 C   0  0  0  0  0  0  0  0  0  0  0  0
  193.6300  177.0840  149.8510 C   0  0  0  0  0  1  0  0  0  0  0  0
  193.1580  175.0950  148.6370 O   0  0  0  0  0  0  0  0  0  0  0  0
  191.9010  176.9670  148.0240 N   0  0  0  0  0  2  0  0  0  0  0  0
  1  2  2  0  0  0  0
  2 12  1  0  0  0  0
  2 19  1  0  0  0  0
  3  7  2  0  0  0  0
  4  1  1  0  0  0  0
  5 18  1  6  0  0  0
  5 20  1  0  0  0  0
  5 16  1  0  0  0  0
  6  9  1  0  0  0  0
  6 13  2  0  0  0  0
  8 15  1  0  0  0  0
  8  4  2  0  0  0  0
  9  8  1  0  0  0  0
 10 16  1  0  0  0  0
 10 11  2  0  0  0  0
 12  5  1  0  0  0  0
 13 17  1  0  0  0  0
 14  1  1  0  0  0  0
 14  3  1  0  0  0  0
 15 14  2  0  0  0  0
 17  4  1  0  0  0  0
 19  7  1  6  0  0  0
 19 10  1  0  0  0  0
 20 21  1  0  0  0  0
 21 25  1  0  0  0  0
 22 23  1  0  0  0  0
 24 22  2  0  0  0  0
 25 22  1  0  0  0  0
M  END
>  <MODEL>
6

>  <REMARK>
 VINA RESULT:      -8.3      2.224      5.753
  Name = 
  3 active torsions:
  status: ('A' for Active; 'I' for Inactive)
    1  A    between atoms: C_6  and  C_15
    2  A    between atoms: C_15  and  C_25
    3  A    between atoms: N_21  and  C_25
                            x       y       z     vdW  Elec       q    Type
                         _______ _______ _______ _____ _____    ______ ____

>  <TORSDO>
F 3

$$$$
=
 OpenBabel10262419493D

 25 28  0  0  1  0  0  0  0  0999 V2000
  187.1310  177.7850  142.9610 C   0  0  0  0  0  0  0  0  0  0  0  0
  186.8610  177.5080  144.2380 C   0  0  0  0  0  0  0  0  0  0  0  0
  185.1330  179.3160  142.7390 C   0  0  0  0  0  3  0  0  0  0  0  0
  188.2480  177.4710  142.0950 C   0  0  0  0  0  0  0  0  0  0  0  0
  188.1620  177.6020  146.3460 C   0  0  2  0  0  0  0  0  0  0  0  0
  190.2390  177.4120  140.1160 C   0  0  0  0  0  3  0  0  0  0  0  0
  184.8070  179.0310  144.0090 C   0  0  0  0  0  3  0  0  0  0  0  0
  187.9980  178.0860  140.9430 C   0  0  0  0  0  0  0  0  0  0  0  0
  188.8570  177.8940  139.7280 C   0  0  0  0  0  2  0  0  0  0  0  0
  185.7350  178.4140  146.2720 C   0  0  0  0  0  0  0  0  0  0  0  0
  184.7860  178.9710  146.8870 O   0  0  0  0  0  0  0  0  0  0  0  0
  187.8220  176.7620  145.1060 C   0  0  0  0  0  2  0  0  0  0  0  0
  190.4780  176.7800  141.2830 C   0  0  0  0  0  3  0  0  0  0  0  0
  186.2960  178.6450  142.1600 C   0  0  0  0  0  0  0  0  0  0  0  0
  186.7820  178.8450  140.9770 N   0  0  0  0  0  0  0  0  0  0  0  0
  186.9380  178.0920  146.9850 N   0  0  0  0  0  2  0  0  0  0  0  0
  189.3800  176.5070  142.2890 C   0  0  0  0  0  2  0  0  0  0  0  0
  189.0160  178.8000  145.9460 C   0  0  0  0  0  1  0  0  0  0  0  0
  185.5510  177.9860  144.8410 C   0  0  2  0  0  3  0  0  0  0  0  0
  188.9200  176.7480  147.3610 C   0  0  0  0  0  2  0  0  0  0  0  0
  190.4300  176.9350  147.2880 C   0  0  0  0  0  2  0  0  0  0  0  0
  191.6050  176.2230  145.1790 C   0  0  0  0  0  0  0  0  0  0  0  0
  192.1790  175.1340  144.3460 C   0  0  0  0  0  1  0  0  0  0  0  0
  191.6540  177.4130  144.7690 O   0  0  0  0  0  0  0  0  0  0  0  0
  191.0060  175.9090  146.4350 N   0  0  0  0  0  2  0  0  0  0  0  0
  1  2  2  0  0  0  0
  2 19  1  0  0  0  0
  2 12  1  0  0  0  0
  3  7  2  0  0  0  0
  4 17  1  0  0  0  0
  4  1  1  0  0  0  0
  5 18  1  6  0  0  0
  5 16  1  0  0  0  0
  5 20  1  0  0  0  0
  6 13  2  0  0  0  0
  8 15  1  0  0  0  0
  8  4  2  0  0  0  0
  9  6  1  0  0  0  0
  9  8  1  0  0  0  0
 10 11  2  0  0  0  0
 10 16  1  0  0  0  0
 12  5  1  0  0  0  0
 13 17  1  0  0  0  0
 14  3  1  0  0  0  0
 14  1  1  0  0  0  0
 15 14  2  0  0  0  0
 19  7  1  6  0  0  0
 19 10  1  0  0  0  0
 21 20  1  0  0  0  0
 22 25  1  0  0  0  0
 23 22  1  0  0  0  0
 24 22  2  0  0  0  0
 25 21  1  0  0  0  0
M  END
>  <MODEL>
7

>  <REMARK>
 VINA RESULT:      -8.3      2.135      5.171
  Name = 
  3 active torsions:
  status: ('A' for Active; 'I' for Inactive)
    1  A    between atoms: C_6  and  C_15
    2  A    between atoms: C_15  and  C_25
    3  A    between atoms: N_21  and  C_25
                            x       y       z     vdW  Elec       q    Type
                         _______ _______ _______ _____ _____    ______ ____

>  <TORSDO>
F 3

$$$$
=
 OpenBabel10262419493D

 25 28  0  0  1  0  0  0  0  0999 V2000
  188.8630  177.1800  144.9120 C   0  0  0  0  0  0  0  0  0  0  0  0
  189.2580  176.8500  143.6810 C   0  0  0  0  0  0  0  0  0  0  0  0
  191.2190  177.1180  145.8220 C   0  0  0  0  0  3  0  0  0  0  0  0
  187.5900  177.5940  145.4650 C   0  0  0  0  0  0  0  0  0  0  0  0
  188.9130  177.8260  141.4280 C   0  0  2  0  0  0  0  0  0  0  0  0
  185.4970  178.7050  146.9710 C   0  0  0  0  0  3  0  0  0  0  0  0
  191.6490  176.7470  144.6060 C   0  0  0  0  0  3  0  0  0  0  0  0
  187.8220  177.8680  146.7440 C   0  0  0  0  0  0  0  0  0  0  0  0
  186.7210  178.2020  147.7060 C   0  0  0  0  0  2  0  0  0  0  0  0
  191.2110  176.9420  142.1310 C   0  0  0  0  0  0  0  0  0  0  0  0
  192.4300  176.8120  141.8370 O   0  0  0  0  0  0  0  0  0  0  0  0
  188.3310  176.9050  142.5100 C   0  0  0  0  0  2  0  0  0  0  0  0
  185.2670  178.4120  145.6750 C   0  0  0  0  0  3  0  0  0  0  0  0
  189.7810  177.2950  146.0170 C   0  0  1  0  0  3  0  0  0  0  0  0
  189.2010  177.7030  147.1010 N   0  0  0  0  0  0  0  0  0  0  0  0
  190.3070  177.4730  141.1500 N   0  0  0  0  0  2  0  0  0  0  0  0
  186.2170  177.5570  144.8630 C   0  0  0  0  0  2  0  0  0  0  0  0
  188.8620  179.2770  141.8960 C   0  0  0  0  0  1  0  0  0  0  0  0
  190.7000  176.4320  143.4510 C   0  0  0  0  0  0  0  0  0  0  0  0
  188.1160  177.6770  140.1340 C   0  0  0  0  0  2  0  0  0  0  0  0
  188.9580  177.1730  138.9680 C   0  0  0  0  0  2  0  0  0  0  0  0
  188.0180  178.3040  136.9250 C   0  0  0  0  0  0  0  0  0  0  0  0
  187.1800  178.2280  135.6990 C   0  0  0  0  0  1  0  0  0  0  0  0
  188.6030  179.3810  137.2150 O   0  0  0  0  0  0  0  0  0  0  0  0
  188.1510  177.1540  137.7600 N   0  0  0  0  0  2  0  0  0  0  0  0
  1  4  2  0  0  0  0
  1 14  1  0  0  0  0
  2  1  1  0  0  0  0
  4  8  1  0  0  0  0
  5 18  1  1  0  0  0
  5 12  1  0  0  0  0
  6  9  1  0  0  0  0
  7  3  2  0  0  0  0
  8 15  2  0  0  0  0
  8  9  1  0  0  0  0
 10 19  1  0  0  0  0
 11 10  2  0  0  0  0
 12  2  1  0  0  0  0
 13  6  2  0  0  0  0
 14  3  1  6  0  0  0
 14 15  1  0  0  0  0
 16  5  1  0  0  0  0
 16 10  1  0  0  0  0
 17  4  1  0  0  0  0
 17 13  1  0  0  0  0
 19  2  2  0  0  0  0
 19  7  1  0  0  0  0
 20  5  1  0  0  0  0
 21 20  1  0  0  0  0
 22 24  2  0  0  0  0
 22 25  1  0  0  0  0
 23 22  1  0  0  0  0
 25 21  1  0  0  0  0
M  END
>  <MODEL>
8

>  <REMARK>
 VINA RESULT:      -8.2      2.129      3.686
  Name = 
  3 active torsions:
  status: ('A' for Active; 'I' for Inactive)
    1  A    between atoms: C_6  and  C_15
    2  A    between atoms: C_15  and  C_25
    3  A    between atoms: N_21  and  C_25
                            x       y       z     vdW  Elec       q    Type
                         _______ _______ _______ _____ _____    ______ ____

>  <TORSDO>
F 3

$$$$
=
 OpenBabel10262419493D

 25 28  0  0  1  0  0  0  0  0999 V2000
  186.0890  177.8560  144.5470 C   0  0  0  0  0  0  0  0  0  0  0  0
  187.2670  177.3420  144.1890 C   0  0  0  0  0  0  0  0  0  0  0  0
  186.8710  178.3370  146.9000 C   0  0  0  0  0  3  0  0  0  0  0  0
  184.8850  178.1800  143.8090 C   0  0  0  0  0  0  0  0  0  0  0  0
  188.8540  177.7690  142.3330 C   0  0  2  0  0  0  0  0  0  0  0  0
  182.4750  179.2520  142.8490 C   0  0  0  0  0  3  0  0  0  0  0  0
  188.0570  177.7910  146.5890 C   0  0  0  0  0  3  0  0  0  0  0  0
  184.0630  178.7440  144.6870 C   0  0  0  0  0  0  0  0  0  0  0  0
  182.6460  179.1010  144.3460 C   0  0  0  0  0  2  0  0  0  0  0  0
  189.7040  177.4040  144.7200 C   0  0  0  0  0  0  0  0  0  0  0  0
  190.6920  177.3990  145.5020 O   0  0  0  0  0  0  0  0  0  0  0  0
  187.5890  177.0150  142.7670 C   0  0  0  0  0  2  0  0  0  0  0  0
  183.3100  178.6660  141.9680 C   0  0  0  0  0  3  0  0  0  0  0  0
  185.8230  178.3330  145.8810 C   0  0  0  0  0  0  0  0  0  0  0  0
  184.6470  178.8650  145.9910 N   0  0  0  0  0  0  0  0  0  0  0  0
  189.9260  177.5790  143.3130 N   0  0  0  0  0  2  0  0  0  0  0  0
  184.4800  177.8150  142.4120 C   0  0  0  0  0  2  0  0  0  0  0  0
  188.5580  179.2610  142.2180 C   0  0  0  0  0  1  0  0  0  0  0  0
  188.3280  177.1060  145.2500 C   0  0  2  0  0  3  0  0  0  0  0  0
  189.3400  177.2380  140.9850 C   0  0  0  0  0  2  0  0  0  0  0  0
  190.7960  176.7910  141.0090 C   0  0  0  0  0  2  0  0  0  0  0  0
  191.2840  176.2440  138.6010 C   0  0  0  0  0  0  0  0  0  0  0  0
  191.9430  176.6100  137.3200 C   0  0  0  0  0  1  0  0  0  0  0  0
  190.6100  175.1820  138.6750 O   0  0  0  0  0  0  0  0  0  0  0  0
  191.4200  177.1010  139.7340 N   0  0  0  0  0  2  0  0  0  0  0  0
  1 14  1  0  0  0  0
  2  1  2  0  0  0  0
  2 19  1  0  0  0  0
  4  1  1  0  0  0  0
  4  8  2  0  0  0  0
  5 18  1  6  0  0  0
  5 12  1  0  0  0  0
  5 16  1  0  0  0  0
  6  9  1  0  0  0  0
  7  3  2  0  0  0  0
  8 15  1  0  0  0  0
  9  8  1  0  0  0  0
 10 19  1  0  0  0  0
 10 11  2  0  0  0  0
 12  2  1  0  0  0  0
 13 17  1  0  0  0  0
 13  6  2  0  0  0  0
 14 15  2  0  0  0  0
 14  3  1  0  0  0  0
 16 10  1  0  0  0  0
 17  4  1  0  0  0  0
 19  7  1  1  0  0  0
 20 21  1  0  0  0  0
 20  5  1  0  0  0  0
 22 24  2  0  0  0  0
 22 25  1  0  0  0  0
 23 22  1  0  0  0  0
 25 21  1  0  0  0  0
M  END
>  <MODEL>
9

>  <REMARK>
 VINA RESULT:      -8.2      1.873      2.368
  Name = 
  3 active torsions:
  status: ('A' for Active; 'I' for Inactive)
    1  A    between atoms: C_6  and  C_15
    2  A    between atoms: C_15  and  C_25
    3  A    between atoms: N_21  and  C_25
                            x       y       z     vdW  Elec       q    Type
                         _______ _______ _______ _____ _____    ______ ____

>  <TORSDO>
F 3

$$$$
