=
 OpenBabel10262420363D

 55 59  0  0  1  0  0  0  0  0999 V2000
  184.6810  179.1950  145.2450 C   0  0  0  0  0  3  0  0  0  0  0  0
  186.5630  177.5510  143.9810 C   0  0  0  0  0  0  0  0  0  0  0  0
  185.4380  177.9960  143.2820 C   0  0  0  0  0  3  0  0  0  0  0  0
  185.8130  178.7590  145.9430 C   0  0  0  0  0  3  0  0  0  0  0  0
  184.4900  178.8090  143.9140 C   0  0  0  0  0  0  0  0  0  0  0  0
  186.7490  177.9310  145.3150 C   0  0  0  0  0  3  0  0  0  0  0  0
  187.5160  176.6090  143.3240 C   0  0  0  0  0  2  0  0  0  0  0  0
  188.9220  177.1970  143.2700 C   0  0  0  0  0  2  0  0  0  0  0  0
  190.0510  176.1030  142.3530 S   0  0  0  0  0  0  0  0  0  0  0  0
  191.4400  177.6740  142.0080 S   0  0  0  0  0  0  0  0  0  0  0  0
  191.4450  177.3860  140.2140 C   0  0  0  0  0  2  0  0  0  0  0  0
  190.1840  175.6340  138.3330 C   0  0  0  0  0  1  0  0  0  0  0  0
  189.5530  176.9310  138.7790 C   0  0  0  0  0  0  0  0  0  0  0  0
  190.1500  177.6840  139.6470 N   0  0  0  0  0  0  0  0  0  0  0  0
  187.1010  177.0900  135.0750 C   0  0  2  0  0  3  0  0  0  0  0  0
  188.1900  178.3070  137.1140 C   0  0  1  0  0  3  0  0  0  0  0  0
  187.5160  177.9580  139.3540 F   0  0  0  0  0  0  0  0  0  0  0  0
  186.2840  178.1130  134.5950 O   0  0  0  0  0  1  0  0  0  0  0  0
  186.1350  176.4450  137.3160 O   0  0  0  0  0  0  0  0  0  0  0  0
  186.2610  176.1360  135.9460 C   0  0  2  0  0  3  0  0  0  0  0  0
  188.1610  177.3220  138.3060 C   0  0  2  0  0  0  0  0  0  0  0  0
  189.0820  179.3660  137.3120 O   0  0  0  0  0  1  0  0  0  0  0  0
  187.3330  176.0840  137.9500 C   0  0  0  0  0  2  0  0  0  0  0  0
  188.3580  177.7010  135.7130 C   0  0  1  0  0  3  0  0  0  0  0  0
  189.6370  176.9740  135.4440 C   0  0  0  0  0  0  0  0  0  0  0  0
  189.6380  175.6590  135.0030 O   0  0  0  0  0  0  0  0  0  0  0  0
  190.7310  177.5710  135.6110 O   0  0  0  0  0  1  0  0  0  0  0  0
  185.3940  173.9230  136.3850 O   0  0  0  0  0  1  0  0  0  0  0  0
  186.2660  174.6510  135.5740 C   0  0  0  0  0  2  0  0  0  0  0  0
  183.2660  179.2390  143.1780 C   0  0  0  0  0  2  0  0  0  0  0  0
  182.9640  178.2430  142.0660 C   0  0  0  0  0  2  0  0  0  0  0  0
  179.4250  175.9510  140.7910 C   0  0  0  0  0  2  0  0  0  0  0  0
  179.4330  174.9440  139.6610 C   0  0  0  0  0  2  0  0  0  0  0  0
  182.5320  176.4750  138.9280 C   0  0  0  0  0  3  0  0  0  0  0  0
  181.0600  176.4300  139.2030 C   0  0  1  0  0  3  0  0  0  0  0  0
  180.5360  175.1870  138.8180 O   0  0  0  0  0  0  0  0  0  0  0  0
  180.7430  176.6560  140.6640 C   0  0  1  0  0  3  0  0  0  0  0  0
  182.7550  178.8950  139.6220 C   0  0  2  0  0  3  0  0  0  0  0  0
  183.2790  177.5730  139.1060 C   0  0  0  0  0  3  0  0  0  0  0  0
  180.6680  178.1730  140.9630 C   0  0  2  0  0  3  0  0  0  0  0  0
  182.0550  178.8500  140.9950 C   0  0  1  0  0  3  0  0  0  0  0  0
  181.7980  181.0850  138.9070 C   0  0  0  0  0  3  0  0  0  0  0  0
  180.7970  181.4050  136.7170 C   0  0  0  0  0  0  0  0  0  0  0  0
  181.6920  179.2370  137.3470 C   0  0  0  0  0  3  0  0  0  0  0  0
  181.0610  180.0620  136.4120 C   0  0  0  0  0  3  0  0  0  0  0  0
  181.1660  181.9100  137.9710 C   0  0  0  0  0  3  0  0  0  0  0  0
  182.0690  179.7470  138.5970 C   0  0  0  0  0  0  0  0  0  0  0  0
  180.1410  182.2810  135.7340 C   0  0  0  0  0  0  0  0  0  0  0  0
  179.7590  181.8200  134.6250 O   0  0  0  0  0  0  0  0  0  0  0  0
  179.9340  183.6250  136.0210 O   0  0  0  0  0  1  0  0  0  0  0  0
  179.8310  178.6040  142.1880 C   0  0  1  0  0  3  0  0  0  0  0  0
  180.0660  177.7170  143.3990 C   0  0  0  0  0  1  0  0  0  0  0  0
  179.7180  181.0100  141.5380 O   0  0  0  0  0  0  0  0  0  0  0  0
  180.0880  180.4360  143.7250 O   0  0  0  0  0  1  0  0  0  0  0  0
  179.8940  180.0610  142.5380 C   0  0  0  0  0  0  0  0  0  0  0  0
  1  4  1  0  0  0  0
  2  6  1  0  0  0  0
  3  5  1  0  0  0  0
  3  2  2  0  0  0  0
  5  1  2  0  0  0  0
  6  4  2  0  0  0  0
  7  2  1  0  0  0  0
  8  7  1  0  0  0  0
  9  8  1  0  0  0  0
 10  9  1  0  0  0  0
 11 10  1  0  0  0  0
 12 13  1  0  0  0  0
 13 14  2  0  0  0  0
 14 11  1  0  0  0  0
 15 18  1  1  0  0  0
 15 24  1  0  0  0  0
 15 20  1  0  0  0  0
 16 22  1  1  0  0  0
 16 21  1  0  0  0  0
 19 23  1  0  0  0  0
 20 29  1  1  0  0  0
 20 19  1  0  0  0  0
 21 13  1  0  0  0  0
 21 17  1  1  0  0  0
 23 21  1  0  0  0  0
 24 25  1  1  0  0  0
 24 16  1  0  0  0  0
 25 27  1  0  0  0  0
 26 25  2  0  0  0  0
 29 28  1  0  0  0  0
 30  5  1  0  0  0  0
 31 30  1  0  0  0  0
 33 32  1  0  0  0  0
 34 39  2  0  0  0  0
 35 34  1  1  0  0  0
 35 37  1  0  0  0  0
 36 35  1  0  0  0  0
 36 33  1  0  0  0  0
 37 32  1  6  0  0  0
 37 40  1  0  0  0  0
 38 47  1  6  0  0  0
 38 41  1  0  0  0  0
 39 38  1  0  0  0  0
 40 41  1  0  0  0  0
 40 51  1  1  0  0  0
 41 31  1  1  0  0  0
 43 46  1  0  0  0  0
 44 47  2  0  0  0  0
 45 43  2  0  0  0  0
 45 44  1  0  0  0  0
 46 42  2  0  0  0  0
 47 42  1  0  0  0  0
 48 50  1  0  0  0  0
 48 43  1  0  0  0  0
 49 48  2  0  0  0  0
 51 55  1  0  0  0  0
 51 52  1  1  0  0  0
 53 55  2  0  0  0  0
 55 54  1  0  0  0  0
M  END
>  <MODEL>
1

>  <REMARK>
 VINA RESULT:      -7.3      0.000      0.000
  Name = 
  16 active torsions:
  status: ('A' for Active; 'I' for Inactive)
    1  A    between atoms: C_1  and  C_53
    2  A    between atoms: C_2  and  C_28
    3  A    between atoms: C_2  and  C_44
    4  A    between atoms: C_8  and  N_22
    5  A    between atoms: C_8  and  S_35
    6  A    between atoms: C_10  and  C_32
    7  A    between atoms: C_19  and  C_40
    8  A    between atoms: C_19  and  C_45
    9  A    between atoms: C_20  and  C_42
   10  A    between atoms: C_25  and  C_38
   11  A    between atoms: C_27  and  C_54
   12  A    between atoms: C_28  and  C_49
   13  A    between atoms: C_33  and  C_52
   14  A    between atoms: S_35  and  S_43
   15  A    between atoms: S_43  and  C_51
   16  A    between atoms: C_51  and  C_54
                            x       y       z     vdW  Elec       q    Type
                         _______ _______ _______ _____ _____    ______ ____

>  <TORSDO>
F 16

$$$$
=
 OpenBabel10262420363D

 55 59  0  0  1  0  0  0  0  0999 V2000
  184.0110  178.6140  141.8150 C   0  0  0  0  0  3  0  0  0  0  0  0
  184.0860  178.6050  144.6150 C   0  0  0  0  0  0  0  0  0  0  0  0
  182.8850  178.8560  143.9460 C   0  0  0  0  0  3  0  0  0  0  0  0
  185.2120  178.3510  142.4840 C   0  0  0  0  0  3  0  0  0  0  0  0
  182.8460  178.8710  142.5470 C   0  0  0  0  0  0  0  0  0  0  0  0
  185.2520  178.3550  143.8820 C   0  0  0  0  0  3  0  0  0  0  0  0
  184.1330  178.6840  146.1040 C   0  0  0  0  0  2  0  0  0  0  0  0
  185.4710  178.1880  146.6410 C   0  0  0  0  0  2  0  0  0  0  0  0
  186.5060  179.5780  147.1960 S   0  0  0  0  0  0  0  0  0  0  0  0
  188.0370  178.2780  147.8920 S   0  0  0  0  0  0  0  0  0  0  0  0
  187.9300  177.2270  146.4130 C   0  0  0  0  0  2  0  0  0  0  0  0
  187.7380  176.1570  143.7650 C   0  0  0  0  0  1  0  0  0  0  0  0
  188.5190  177.4100  144.0750 C   0  0  0  0  0  0  0  0  0  0  0  0
  188.5630  177.8700  145.2840 N   0  0  0  0  0  0  0  0  0  0  0  0
  191.7950  177.1090  141.0850 C   0  0  2  0  0  3  0  0  0  0  0  0
  190.7070  178.3250  143.1260 C   0  0  1  0  0  3  0  0  0  0  0  0
  188.6590  179.5000  143.0040 F   0  0  0  0  0  0  0  0  0  0  0  0
  192.7780  178.0390  140.7500 O   0  0  0  0  0  1  0  0  0  0  0  0
  189.5940  178.2370  140.5790 O   0  0  0  0  0  0  0  0  0  0  0  0
  190.5730  177.3100  140.1680 C   0  0  2  0  0  3  0  0  0  0  0  0
  189.1730  178.2150  142.9620 C   0  0  2  0  0  0  0  0  0  0  0  0
  191.0870  178.6710  144.4270 O   0  0  0  0  0  1  0  0  0  0  0  0
  188.8280  177.6340  141.5870 C   0  0  0  0  0  2  0  0  0  0  0  0
  191.5490  177.1530  142.6020 C   0  0  1  0  0  3  0  0  0  0  0  0
  191.3410  175.8260  143.2600 C   0  0  0  0  0  0  0  0  0  0  0  0
  192.0060  175.4920  144.4310 O   0  0  0  0  0  1  0  0  0  0  0  0
  190.5400  175.0040  142.7470 O   0  0  0  0  0  0  0  0  0  0  0  0
  191.0950  175.5680  138.5750 O   0  0  0  0  0  1  0  0  0  0  0  0
  190.0800  176.0980  139.3730 C   0  0  0  0  0  2  0  0  0  0  0  0
  181.5720  179.1900  141.8400 C   0  0  0  0  0  2  0  0  0  0  0  0
  181.2330  178.0680  140.8680 C   0  0  0  0  0  2  0  0  0  0  0  0
  179.2580  177.9370  136.9340 C   0  0  0  0  0  2  0  0  0  0  0  0
  178.9440  176.6580  136.1880 C   0  0  0  0  0  2  0  0  0  0  0  0
  181.1600  175.2680  138.5630 C   0  0  0  0  0  3  0  0  0  0  0  0
  180.7280  176.2170  137.4880 C   0  0  1  0  0  3  0  0  0  0  0  0
  179.7550  175.6140  136.6750 O   0  0  0  0  0  0  0  0  0  0  0  0
  180.1570  177.4990  138.0510 C   0  0  1  0  0  3  0  0  0  0  0  0
  182.9370  176.8280  139.4540 C   0  0  2  0  0  3  0  0  0  0  0  0
  182.1470  175.5380  139.4270 C   0  0  0  0  0  3  0  0  0  0  0  0
  181.2990  178.4990  138.3580 C   0  0  2  0  0  3  0  0  0  0  0  0
  182.1100  178.1190  139.6160 C   0  0  1  0  0  3  0  0  0  0  0  0
  184.2320  175.8460  137.5610 C   0  0  0  0  0  3  0  0  0  0  0  0
  186.0890  177.0160  136.5200 C   0  0  0  0  0  0  0  0  0  0  0  0
  184.8870  178.0300  138.3710 C   0  0  0  0  0  3  0  0  0  0  0  0
  185.9040  178.0810  137.4130 C   0  0  0  0  0  3  0  0  0  0  0  0
  185.2480  175.8970  136.6020 C   0  0  0  0  0  3  0  0  0  0  0  0
  184.0420  176.9140  138.4450 C   0  0  0  0  0  0  0  0  0  0  0  0
  187.1500  177.0670  135.5040 C   0  0  0  0  0  0  0  0  0  0  0  0
  187.7740  176.0200  135.1820 O   0  0  0  0  0  1  0  0  0  0  0  0
  187.4750  178.2700  134.8880 O   0  0  0  0  0  0  0  0  0  0  0  0
  180.9270  179.9980  138.3900 C   0  0  1  0  0  3  0  0  0  0  0  0
  179.8090  180.3020  139.3720 C   0  0  0  0  0  1  0  0  0  0  0  0
  183.3370  180.4530  138.8470 O   0  0  0  0  0  1  0  0  0  0  0  0
  181.9220  182.1880  138.3650 O   0  0  0  0  0  0  0  0  0  0  0  0
  182.0770  180.9500  138.5360 C   0  0  0  0  0  0  0  0  0  0  0  0
  1  4  2  0  0  0  0
  1  5  1  0  0  0  0
  2  7  1  0  0  0  0
  3  2  1  0  0  0  0
  4  6  1  0  0  0  0
  5  3  2  0  0  0  0
  6  2  2  0  0  0  0
  7  8  1  0  0  0  0
  8  9  1  0  0  0  0
  9 10  1  0  0  0  0
 11 10  1  0  0  0  0
 12 13  1  0  0  0  0
 13 14  2  0  0  0  0
 14 11  1  0  0  0  0
 15 18  1  6  0  0  0
 15 24  1  0  0  0  0
 16 22  1  1  0  0  0
 19 23  1  0  0  0  0
 20 29  1  1  0  0  0
 20 19  1  0  0  0  0
 20 15  1  0  0  0  0
 21 17  1  1  0  0  0
 21 16  1  0  0  0  0
 21 13  1  0  0  0  0
 23 21  1  0  0  0  0
 24 16  1  0  0  0  0
 24 25  1  6  0  0  0
 25 26  1  0  0  0  0
 27 25  2  0  0  0  0
 28 29  1  0  0  0  0
 30  5  1  0  0  0  0
 31 30  1  0  0  0  0
 33 36  1  0  0  0  0
 33 32  1  0  0  0  0
 34 39  2  0  0  0  0
 35 37  1  0  0  0  0
 35 34  1  1  0  0  0
 36 35  1  0  0  0  0
 37 32  1  6  0  0  0
 37 40  1  0  0  0  0
 38 47  1  6  0  0  0
 38 41  1  0  0  0  0
 39 38  1  0  0  0  0
 40 51  1  1  0  0  0
 40 41  1  0  0  0  0
 41 31  1  1  0  0  0
 42 47  1  0  0  0  0
 43 46  1  0  0  0  0
 43 45  2  0  0  0  0
 44 47  2  0  0  0  0
 45 44  1  0  0  0  0
 46 42  2  0  0  0  0
 48 43  1  0  0  0  0
 49 48  1  0  0  0  0
 50 48  2  0  0  0  0
 51 55  1  0  0  0  0
 51 52  1  1  0  0  0
 54 55  2  0  0  0  0
 55 53  1  0  0  0  0
M  END
>  <MODEL>
2

>  <REMARK>
 VINA RESULT:      -6.4      3.048      5.557
  Name = 
  16 active torsions:
  status: ('A' for Active; 'I' for Inactive)
    1  A    between atoms: C_1  and  C_53
    2  A    between atoms: C_2  and  C_28
    3  A    between atoms: C_2  and  C_44
    4  A    between atoms: C_8  and  N_22
    5  A    between atoms: C_8  and  S_35
    6  A    between atoms: C_10  and  C_32
    7  A    between atoms: C_19  and  C_40
    8  A    between atoms: C_19  and  C_45
    9  A    between atoms: C_20  and  C_42
   10  A    between atoms: C_25  and  C_38
   11  A    between atoms: C_27  and  C_54
   12  A    between atoms: C_28  and  C_49
   13  A    between atoms: C_33  and  C_52
   14  A    between atoms: S_35  and  S_43
   15  A    between atoms: S_43  and  C_51
   16  A    between atoms: C_51  and  C_54
                            x       y       z     vdW  Elec       q    Type
                         _______ _______ _______ _____ _____    ______ ____

>  <TORSDO>
F 16

$$$$
=
 OpenBabel10262420363D

 55 59  0  0  1  0  0  0  0  0999 V2000
  187.1120  178.6530  136.1860 C   0  0  0  0  0  3  0  0  0  0  0  0
  189.3050  177.0650  135.4710 C   0  0  0  0  0  0  0  0  0  0  0  0
  188.0660  176.8680  134.8560 C   0  0  0  0  0  3  0  0  0  0  0  0
  188.3550  178.8590  136.7950 C   0  0  0  0  0  3  0  0  0  0  0  0
  186.9650  177.6530  135.2190 C   0  0  0  0  0  0  0  0  0  0  0  0
  189.4490  178.0600  136.4450 C   0  0  0  0  0  3  0  0  0  0  0  0
  190.4450  176.1590  135.1430 C   0  0  0  0  0  2  0  0  0  0  0  0
  191.4960  176.1730  136.2480 C   0  0  0  0  0  2  0  0  0  0  0  0
  190.9160  175.2600  137.7110 S   0  0  0  0  0  0  0  0  0  0  0  0
  191.9520  176.5530  139.0420 S   0  0  0  0  0  0  0  0  0  0  0  0
  190.4060  177.2110  139.7350 C   0  0  0  0  0  2  0  0  0  0  0  0
  188.5000  178.3510  141.5420 C   0  0  0  0  0  1  0  0  0  0  0  0
  189.3000  177.1180  141.8830 C   0  0  0  0  0  0  0  0  0  0  0  0
  190.1370  176.6250  141.0290 N   0  0  0  0  0  0  0  0  0  0  0  0
  190.1060  177.4570  146.2420 C   0  0  2  0  0  3  0  0  0  0  0  0
  190.3570  176.1450  143.9960 C   0  0  1  0  0  3  0  0  0  0  0  0
  188.5440  175.1220  142.8740 F   0  0  0  0  0  0  0  0  0  0  0  0
  190.5830  176.4960  147.1330 O   0  0  0  0  0  1  0  0  0  0  0  0
  187.9460  176.5230  145.3290 O   0  0  0  0  0  0  0  0  0  0  0  0
  188.5660  177.4150  146.2270 C   0  0  2  0  0  3  0  0  0  0  0  0
  189.0580  176.3690  143.1860 C   0  0  2  0  0  0  0  0  0  0  0  0
  191.4080  175.6650  143.2080 O   0  0  0  0  0  1  0  0  0  0  0  0
  188.0140  177.0860  144.0470 C   0  0  0  0  0  2  0  0  0  0  0  0
  190.8260  177.3000  144.8930 C   0  0  1  0  0  3  0  0  0  0  0  0
  191.1980  178.5760  144.2080 C   0  0  0  0  0  0  0  0  0  0  0  0
  190.4130  179.7130  144.3300 O   0  0  0  0  0  1  0  0  0  0  0  0
  192.2470  178.6200  143.5160 O   0  0  0  0  0  0  0  0  0  0  0  0
  186.5990  178.4760  147.1500 O   0  0  0  0  0  1  0  0  0  0  0  0
  187.8220  178.7200  146.5220 C   0  0  0  0  0  2  0  0  0  0  0  0
  185.6330  177.4040  134.5950 C   0  0  0  0  0  2  0  0  0  0  0  0
  185.0180  176.1460  135.1920 C   0  0  0  0  0  2  0  0  0  0  0  0
  182.5430  173.1350  137.2430 C   0  0  0  0  0  2  0  0  0  0  0  0
  181.0480  173.2660  137.4470 C   0  0  0  0  0  2  0  0  0  0  0  0
  181.6780  176.6190  136.5270 C   0  0  0  0  0  3  0  0  0  0  0  0
  181.8620  175.3610  137.3190 C   0  0  1  0  0  3  0  0  0  0  0  0
  180.6710  174.6180  137.3260 O   0  0  0  0  0  0  0  0  0  0  0  0
  182.9690  174.4920  136.7680 C   0  0  1  0  0  3  0  0  0  0  0  0
  183.9840  177.4950  137.0750 C   0  0  2  0  0  3  0  0  0  0  0  0
  182.6190  177.5680  136.4290 C   0  0  0  0  0  3  0  0  0  0  0  0
  184.3350  174.9490  137.3350 C   0  0  2  0  0  3  0  0  0  0  0  0
  184.8380  176.2670  136.7060 C   0  0  1  0  0  3  0  0  0  0  0  0
  182.8990  177.5860  139.3200 C   0  0  0  0  0  3  0  0  0  0  0  0
  184.0170  178.5280  141.2600 C   0  0  0  0  0  0  0  0  0  0  0  0
  185.1320  178.4920  139.1030 C   0  0  0  0  0  3  0  0  0  0  0  0
  185.1320  178.8190  140.4620 C   0  0  0  0  0  3  0  0  0  0  0  0
  182.8990  177.9130  140.6800 C   0  0  0  0  0  3  0  0  0  0  0  0
  184.0170  177.8680  138.5280 C   0  0  0  0  0  0  0  0  0  0  0  0
  184.0130  178.8610  142.6920 C   0  0  0  0  0  0  0  0  0  0  0  0
  185.0770  179.2220  143.2650 O   0  0  0  0  0  0  0  0  0  0  0  0
  182.8360  178.7820  143.4280 O   0  0  0  0  0  1  0  0  0  0  0  0
  185.4680  173.8990  137.3620 C   0  0  1  0  0  3  0  0  0  0  0  0
  185.1630  172.6870  136.4970 C   0  0  0  0  0  1  0  0  0  0  0  0
  187.3610  175.4090  137.9620 O   0  0  0  0  0  1  0  0  0  0  0  0
  187.5600  173.9870  136.1770 O   0  0  0  0  0  0  0  0  0  0  0  0
  186.8510  174.4280  137.1200 C   0  0  0  0  0  0  0  0  0  0  0  0
  1  4  1  0  0  0  0
  2  6  1  0  0  0  0
  3  5  1  0  0  0  0
  3  2  2  0  0  0  0
  5  1  2  0  0  0  0
  6  4  2  0  0  0  0
  7  2  1  0  0  0  0
  7  8  1  0  0  0  0
  8  9  1  0  0  0  0
  9 10  1  0  0  0  0
 10 11  1  0  0  0  0
 11 14  1  0  0  0  0
 12 13  1  0  0  0  0
 13 21  1  0  0  0  0
 14 13  2  0  0  0  0
 15 18  1  1  0  0  0
 16 22  1  6  0  0  0
 16 24  1  0  0  0  0
 19 20  1  0  0  0  0
 20 15  1  0  0  0  0
 20 29  1  6  0  0  0
 21 17  1  6  0  0  0
 21 16  1  0  0  0  0
 21 23  1  0  0  0  0
 23 19  1  0  0  0  0
 24 25  1  6  0  0  0
 24 15  1  0  0  0  0
 25 26  1  0  0  0  0
 27 25  2  0  0  0  0
 29 28  1  0  0  0  0
 30 31  1  0  0  0  0
 30  5  1  0  0  0  0
 32 33  1  0  0  0  0
 35 34  1  6  0  0  0
 35 36  1  0  0  0  0
 36 33  1  0  0  0  0
 37 32  1  1  0  0  0
 37 35  1  0  0  0  0
 37 40  1  0  0  0  0
 38 47  1  1  0  0  0
 39 34  2  0  0  0  0
 39 38  1  0  0  0  0
 40 51  1  6  0  0  0
 41 31  1  6  0  0  0
 41 38  1  0  0  0  0
 41 40  1  0  0  0  0
 42 46  1  0  0  0  0
 43 48  1  0  0  0  0
 44 45  2  0  0  0  0
 45 43  1  0  0  0  0
 46 43  2  0  0  0  0
 47 44  1  0  0  0  0
 47 42  2  0  0  0  0
 48 49  2  0  0  0  0
 48 50  1  0  0  0  0
 51 52  1  6  0  0  0
 54 55  2  0  0  0  0
 55 51  1  0  0  0  0
 55 53  1  0  0  0  0
M  END
>  <MODEL>
3

>  <REMARK>
 VINA RESULT:      -6.3      3.426      7.712
  Name = 
  16 active torsions:
  status: ('A' for Active; 'I' for Inactive)
    1  A    between atoms: C_1  and  C_53
    2  A    between atoms: C_2  and  C_28
    3  A    between atoms: C_2  and  C_44
    4  A    between atoms: C_8  and  N_22
    5  A    between atoms: C_8  and  S_35
    6  A    between atoms: C_10  and  C_32
    7  A    between atoms: C_19  and  C_40
    8  A    between atoms: C_19  and  C_45
    9  A    between atoms: C_20  and  C_42
   10  A    between atoms: C_25  and  C_38
   11  A    between atoms: C_27  and  C_54
   12  A    between atoms: C_28  and  C_49
   13  A    between atoms: C_33  and  C_52
   14  A    between atoms: S_35  and  S_43
   15  A    between atoms: S_43  and  C_51
   16  A    between atoms: C_51  and  C_54
                            x       y       z     vdW  Elec       q    Type
                         _______ _______ _______ _____ _____    ______ ____

>  <TORSDO>
F 16

$$$$
=
 OpenBabel10262420363D

 55 59  0  0  1  0  0  0  0  0999 V2000
  184.8450  178.9710  145.2650 C   0  0  0  0  0  3  0  0  0  0  0  0
  186.8140  177.3430  144.1170 C   0  0  0  0  0  0  0  0  0  0  0  0
  185.6280  177.6040  143.4250 C   0  0  0  0  0  3  0  0  0  0  0  0
  186.0370  178.7210  145.9530 C   0  0  0  0  0  3  0  0  0  0  0  0
  184.6370  178.4090  144.0010 C   0  0  0  0  0  0  0  0  0  0  0  0
  187.0180  177.9000  145.3840 C   0  0  0  0  0  3  0  0  0  0  0  0
  187.8200  176.4090  143.5320 C   0  0  0  0  0  2  0  0  0  0  0  0
  189.1140  177.1380  143.1860 C   0  0  0  0  0  2  0  0  0  0  0  0
  190.2150  176.0780  142.1980 S   0  0  0  0  0  0  0  0  0  0  0  0
  191.8470  177.4230  142.4070 S   0  0  0  0  0  0  0  0  0  0  0  0
  192.0550  177.5780  140.6080 C   0  0  0  0  0  2  0  0  0  0  0  0
  191.2500  175.6830  138.6180 C   0  0  0  0  0  1  0  0  0  0  0  0
  190.3750  176.8400  139.0330 C   0  0  0  0  0  0  0  0  0  0  0  0
  190.7700  177.6620  139.9510 N   0  0  0  0  0  0  0  0  0  0  0  0
  188.0200  175.8990  135.3820 C   0  0  2  0  0  3  0  0  0  0  0  0
  188.9660  177.6590  137.0660 C   0  0  1  0  0  3  0  0  0  0  0  0
  188.2560  177.8240  139.3160 F   0  0  0  0  0  0  0  0  0  0  0  0
  187.1470  176.7090  134.6560 O   0  0  0  0  0  1  0  0  0  0  0  0
  187.0400  175.7570  137.7040 O   0  0  0  0  0  0  0  0  0  0  0  0
  187.2250  175.1300  136.4540 C   0  0  2  0  0  3  0  0  0  0  0  0
  188.9730  176.9990  138.4650 C   0  0  2  0  0  0  0  0  0  0  0  0
  189.7760  178.7970  137.0030 O   0  0  0  0  0  1  0  0  0  0  0  0
  188.2420  175.6530  138.4190 C   0  0  0  0  0  2  0  0  0  0  0  0
  189.2140  176.7400  135.8610 C   0  0  1  0  0  3  0  0  0  0  0  0
  190.5470  176.0660  135.7920 C   0  0  0  0  0  0  0  0  0  0  0  0
  191.6890  176.7670  135.4300 O   0  0  0  0  0  0  0  0  0  0  0  0
  190.6350  174.8450  136.0770 O   0  0  0  0  0  1  0  0  0  0  0  0
  186.5170  173.0360  137.4350 O   0  0  0  0  0  1  0  0  0  0  0  0
  187.3430  173.6040  136.4630 C   0  0  0  0  0  2  0  0  0  0  0  0
  183.3530  178.6410  143.2790 C   0  0  0  0  0  2  0  0  0  0  0  0
  183.6400  179.1910  141.8890 C   0  0  0  0  0  2  0  0  0  0  0  0
  182.0580  181.3960  138.4200 C   0  0  0  0  0  2  0  0  0  0  0  0
  180.6750  182.0090  138.3680 C   0  0  0  0  0  2  0  0  0  0  0  0
  180.1630  179.9740  141.2110 C   0  0  0  0  0  3  0  0  0  0  0  0
  180.5500  180.2730  139.7950 C   0  0  1  0  0  3  0  0  0  0  0  0
  179.8490  181.3960  139.3310 O   0  0  0  0  0  0  0  0  0  0  0  0
  182.0310  180.5350  139.6480 C   0  0  1  0  0  3  0  0  0  0  0  0
  181.5520  177.8660  141.3190 C   0  0  2  0  0  3  0  0  0  0  0  0
  180.6030  178.9010  141.8810 C   0  0  0  0  0  3  0  0  0  0  0  0
  182.7940  179.1970  139.4860 C   0  0  2  0  0  3  0  0  0  0  0  0
  182.9030  178.4020  140.8050 C   0  0  1  0  0  3  0  0  0  0  0  0
  181.7360  175.9360  139.7490 C   0  0  0  0  0  3  0  0  0  0  0  0
  179.7820  174.8620  138.7860 C   0  0  0  0  0  0  0  0  0  0  0  0
  179.5220  176.7470  140.2940 C   0  0  0  0  0  3  0  0  0  0  0  0
  178.9600  175.7660  139.4720 C   0  0  0  0  0  3  0  0  0  0  0  0
  181.1730  174.9550  138.9270 C   0  0  0  0  0  3  0  0  0  0  0  0
  180.9140  176.8320  140.4410 C   0  0  0  0  0  0  0  0  0  0  0  0
  179.1970  173.8220  137.9260 C   0  0  0  0  0  0  0  0  0  0  0  0
  178.9330  174.0680  136.7190 O   0  0  0  0  0  0  0  0  0  0  0  0
  178.9300  172.5570  138.4380 O   0  0  0  0  0  1  0  0  0  0  0  0
  184.1660  179.2560  138.7780 C   0  0  1  0  0  3  0  0  0  0  0  0
  185.3240  178.9890  139.7240 C   0  0  0  0  0  1  0  0  0  0  0  0
  183.1590  177.7980  137.0220 O   0  0  0  0  0  1  0  0  0  0  0  0
  185.3670  178.3900  136.8820 O   0  0  0  0  0  0  0  0  0  0  0  0
  184.2790  178.4570  137.5130 C   0  0  0  0  0  0  0  0  0  0  0  0
  1  4  1  0  0  0  0
  2  6  1  0  0  0  0
  3  5  1  0  0  0  0
  3  2  2  0  0  0  0
  5  1  2  0  0  0  0
  6  4  2  0  0  0  0
  7  2  1  0  0  0  0
  8  7  1  0  0  0  0
  9 10  1  0  0  0  0
  9  8  1  0  0  0  0
 11 10  1  0  0  0  0
 12 13  1  0  0  0  0
 13 14  2  0  0  0  0
 14 11  1  0  0  0  0
 15 18  1  1  0  0  0
 15 24  1  0  0  0  0
 15 20  1  0  0  0  0
 16 22  1  1  0  0  0
 16 21  1  0  0  0  0
 19 23  1  0  0  0  0
 20 29  1  1  0  0  0
 20 19  1  0  0  0  0
 21 13  1  0  0  0  0
 21 17  1  1  0  0  0
 23 21  1  0  0  0  0
 24 25  1  1  0  0  0
 24 16  1  0  0  0  0
 25 27  1  0  0  0  0
 26 25  2  0  0  0  0
 29 28  1  0  0  0  0
 30  5  1  0  0  0  0
 31 30  1  0  0  0  0
 33 32  1  0  0  0  0
 33 36  1  0  0  0  0
 34 39  2  0  0  0  0
 35 34  1  1  0  0  0
 36 35  1  0  0  0  0
 37 32  1  6  0  0  0
 37 35  1  0  0  0  0
 38 47  1  6  0  0  0
 38 39  1  0  0  0  0
 40 51  1  1  0  0  0
 40 37  1  0  0  0  0
 40 41  1  0  0  0  0
 41 38  1  0  0  0  0
 41 31  1  1  0  0  0
 42 47  1  0  0  0  0
 43 46  1  0  0  0  0
 43 45  2  0  0  0  0
 44 47  2  0  0  0  0
 45 44  1  0  0  0  0
 46 42  2  0  0  0  0
 48 50  1  0  0  0  0
 48 43  1  0  0  0  0
 49 48  2  0  0  0  0
 51 52  1  1  0  0  0
 53 55  1  0  0  0  0
 54 55  2  0  0  0  0
 55 51  1  0  0  0  0
M  END
>  <MODEL>
4

>  <REMARK>
 VINA RESULT:      -5.2      1.619      4.194
  Name = 
  16 active torsions:
  status: ('A' for Active; 'I' for Inactive)
    1  A    between atoms: C_1  and  C_53
    2  A    between atoms: C_2  and  C_28
    3  A    between atoms: C_2  and  C_44
    4  A    between atoms: C_8  and  N_22
    5  A    between atoms: C_8  and  S_35
    6  A    between atoms: C_10  and  C_32
    7  A    between atoms: C_19  and  C_40
    8  A    between atoms: C_19  and  C_45
    9  A    between atoms: C_20  and  C_42
   10  A    between atoms: C_25  and  C_38
   11  A    between atoms: C_27  and  C_54
   12  A    between atoms: C_28  and  C_49
   13  A    between atoms: C_33  and  C_52
   14  A    between atoms: S_35  and  S_43
   15  A    between atoms: S_43  and  C_51
   16  A    between atoms: C_51  and  C_54
                            x       y       z     vdW  Elec       q    Type
                         _______ _______ _______ _____ _____    ______ ____

>  <TORSDO>
F 16

$$$$
=
 OpenBabel10262420363D

 55 59  0  0  1  0  0  0  0  0999 V2000
  184.5140  178.8150  141.6060 C   0  0  0  0  0  3  0  0  0  0  0  0
  183.9930  178.6810  144.3550 C   0  0  0  0  0  0  0  0  0  0  0  0
  182.9500  178.5360  143.4350 C   0  0  0  0  0  3  0  0  0  0  0  0
  185.5600  178.9490  142.5260 C   0  0  0  0  0  3  0  0  0  0  0  0
  183.2060  178.6130  142.0610 C   0  0  0  0  0  0  0  0  0  0  0  0
  185.2990  178.8910  143.9000 C   0  0  0  0  0  3  0  0  0  0  0  0
  183.6920  178.6900  145.8170 C   0  0  0  0  0  2  0  0  0  0  0  0
  184.8800  178.1850  146.6270 C   0  0  0  0  0  2  0  0  0  0  0  0
  186.0860  179.5180  146.9150 S   0  0  0  0  0  0  0  0  0  0  0  0
  187.4650  178.1940  147.8430 S   0  0  0  0  0  0  0  0  0  0  0  0
  187.5520  177.1260  146.3750 C   0  0  0  0  0  2  0  0  0  0  0  0
  190.4010  177.1610  146.0890 C   0  0  0  0  0  1  0  0  0  0  0  0
  189.4820  177.8730  145.1260 C   0  0  0  0  0  0  0  0  0  0  0  0
  188.1990  177.8150  145.2820 N   0  0  0  0  0  0  0  0  0  0  0  0
  190.7790  177.0060  140.9630 C   0  0  2  0  0  3  0  0  0  0  0  0
  191.3230  177.9060  143.3540 C   0  0  1  0  0  3  0  0  0  0  0  0
  190.3660  179.8720  144.2560 F   0  0  0  0  0  0  0  0  0  0  0  0
  191.9230  177.4250  140.2840 O   0  0  0  0  0  1  0  0  0  0  0  0
  189.5490  179.1180  141.5890 O   0  0  0  0  0  0  0  0  0  0  0  0
  189.6430  178.0160  140.7150 C   0  0  2  0  0  3  0  0  0  0  0  0
  190.0380  178.5760  143.8960 C   0  0  2  0  0  0  0  0  0  0  0  0
  192.2510  177.6270  144.3630 O   0  0  0  0  0  1  0  0  0  0  0  0
  188.9820  178.6680  142.7900 C   0  0  0  0  0  2  0  0  0  0  0  0
  191.1400  176.6980  142.4250 C   0  0  1  0  0  3  0  0  0  0  0  0
  190.4800  175.4910  143.0120 C   0  0  0  0  0  0  0  0  0  0  0  0
  189.1350  175.2300  142.7970 O   0  0  0  0  0  0  0  0  0  0  0  0
  191.1620  174.6940  143.7070 O   0  0  0  0  0  1  0  0  0  0  0  0
  187.5560  178.4990  139.5940 O   0  0  0  0  0  1  0  0  0  0  0  0
  188.3280  177.4760  140.1470 C   0  0  0  0  0  2  0  0  0  0  0  0
  182.0820  178.5090  141.0860 C   0  0  0  0  0  2  0  0  0  0  0  0
  182.6120  178.7040  139.6730 C   0  0  0  0  0  2  0  0  0  0  0  0
  181.2630  179.8120  135.6290 C   0  0  0  0  0  2  0  0  0  0  0  0
  179.8320  180.1690  135.2840 C   0  0  0  0  0  2  0  0  0  0  0  0
  179.1940  178.7530  138.4580 C   0  0  0  0  0  3  0  0  0  0  0  0
  179.7350  178.7920  137.0610 C   0  0  1  0  0  3  0  0  0  0  0  0
  178.9660  179.6590  136.2700 O   0  0  0  0  0  0  0  0  0  0  0  0
  181.1750  179.2490  137.0170 C   0  0  1  0  0  3  0  0  0  0  0  0
  180.8170  176.9700  139.2130 C   0  0  2  0  0  3  0  0  0  0  0  0
  179.6710  177.9370  139.4070 C   0  0  0  0  0  3  0  0  0  0  0  0
  182.1220  178.0470  137.2600 C   0  0  2  0  0  3  0  0  0  0  0  0
  182.1450  177.5890  138.7350 C   0  0  1  0  0  3  0  0  0  0  0  0
  181.3460  175.1200  137.6230 C   0  0  0  0  0  3  0  0  0  0  0  0
  179.8300  173.2570  137.2570 C   0  0  0  0  0  0  0  0  0  0  0  0
  179.2380  175.0290  138.8090 C   0  0  0  0  0  3  0  0  0  0  0  0
  178.9310  173.8240  138.1710 C   0  0  0  0  0  3  0  0  0  0  0  0
  181.0380  173.9140  136.9860 C   0  0  0  0  0  3  0  0  0  0  0  0
  180.4510  175.6800  138.5420 C   0  0  0  0  0  0  0  0  0  0  0  0
  179.5180  171.9850  136.5890 C   0  0  0  0  0  0  0  0  0  0  0  0
  179.1900  171.9690  135.3720 O   0  0  0  0  0  0  0  0  0  0  0  0
  179.5810  170.7890  137.2940 O   0  0  0  0  0  1  0  0  0  0  0  0
  183.5610  178.1680  136.7110 C   0  0  1  0  0  3  0  0  0  0  0  0
  184.6120  178.1010  137.8050 C   0  0  0  0  0  1  0  0  0  0  0  0
  185.2240  177.0500  135.2260 O   0  0  0  0  0  1  0  0  0  0  0  0
  182.9850  176.6970  134.8960 O   0  0  0  0  0  0  0  0  0  0  0  0
  183.8930  177.2680  135.5570 C   0  0  0  0  0  0  0  0  0  0  0  0
  1  5  2  0  0  0  0
  1  4  1  0  0  0  0
  2  7  1  0  0  0  0
  3  2  2  0  0  0  0
  4  6  2  0  0  0  0
  5  3  1  0  0  0  0
  6  2  1  0  0  0  0
  7  8  1  0  0  0  0
  8  9  1  0  0  0  0
  9 10  1  0  0  0  0
 11 10  1  0  0  0  0
 13 14  2  0  0  0  0
 13 12  1  0  0  0  0
 14 11  1  0  0  0  0
 15 18  1  6  0  0  0
 15 24  1  0  0  0  0
 16 21  1  0  0  0  0
 16 22  1  1  0  0  0
 19 23  1  0  0  0  0
 20 29  1  1  0  0  0
 20 15  1  0  0  0  0
 20 19  1  0  0  0  0
 21 17  1  1  0  0  0
 21 13  1  0  0  0  0
 23 21  1  0  0  0  0
 24 25  1  1  0  0  0
 24 16  1  0  0  0  0
 25 27  1  0  0  0  0
 26 25  2  0  0  0  0
 28 29  1  0  0  0  0
 30  5  1  0  0  0  0
 31 30  1  0  0  0  0
 33 32  1  0  0  0  0
 33 36  1  0  0  0  0
 34 39  2  0  0  0  0
 35 34  1  1  0  0  0
 36 35  1  0  0  0  0
 37 32  1  6  0  0  0
 37 35  1  0  0  0  0
 37 40  1  0  0  0  0
 38 47  1  6  0  0  0
 38 39  1  0  0  0  0
 40 51  1  1  0  0  0
 40 41  1  0  0  0  0
 41 38  1  0  0  0  0
 41 31  1  1  0  0  0
 42 47  1  0  0  0  0
 43 45  2  0  0  0  0
 45 44  1  0  0  0  0
 46 43  1  0  0  0  0
 46 42  2  0  0  0  0
 47 44  2  0  0  0  0
 48 43  1  0  0  0  0
 48 50  1  0  0  0  0
 49 48  2  0  0  0  0
 51 52  1  1  0  0  0
 53 55  1  0  0  0  0
 54 55  2  0  0  0  0
 55 51  1  0  0  0  0
M  END
>  <MODEL>
5

>  <REMARK>
 VINA RESULT:      -5.0      3.284      6.509
  Name = 
  16 active torsions:
  status: ('A' for Active; 'I' for Inactive)
    1  A    between atoms: C_1  and  C_53
    2  A    between atoms: C_2  and  C_28
    3  A    between atoms: C_2  and  C_44
    4  A    between atoms: C_8  and  N_22
    5  A    between atoms: C_8  and  S_35
    6  A    between atoms: C_10  and  C_32
    7  A    between atoms: C_19  and  C_40
    8  A    between atoms: C_19  and  C_45
    9  A    between atoms: C_20  and  C_42
   10  A    between atoms: C_25  and  C_38
   11  A    between atoms: C_27  and  C_54
   12  A    between atoms: C_28  and  C_49
   13  A    between atoms: C_33  and  C_52
   14  A    between atoms: S_35  and  S_43
   15  A    between atoms: S_43  and  C_51
   16  A    between atoms: C_51  and  C_54
                            x       y       z     vdW  Elec       q    Type
                         _______ _______ _______ _____ _____    ______ ____

>  <TORSDO>
F 16

$$$$
=
 OpenBabel10262420363D

 55 59  0  0  1  0  0  0  0  0999 V2000
  186.9880  178.6440  136.1310 C   0  0  0  0  0  3  0  0  0  0  0  0
  189.1270  176.8760  135.7470 C   0  0  0  0  0  0  0  0  0  0  0  0
  187.9180  176.6720  135.0750 C   0  0  0  0  0  3  0  0  0  0  0  0
  188.2020  178.8560  136.7950 C   0  0  0  0  0  3  0  0  0  0  0  0
  186.8440  177.5480  135.2730 C   0  0  0  0  0  0  0  0  0  0  0  0
  189.2680  177.9690  136.6110 C   0  0  0  0  0  3  0  0  0  0  0  0
  190.2310  175.8830  135.5980 C   0  0  0  0  0  2  0  0  0  0  0  0
  191.2680  176.0430  136.7050 C   0  0  0  0  0  2  0  0  0  0  0  0
  190.6310  175.4120  138.2890 S   0  0  0  0  0  0  0  0  0  0  0  0
  191.7940  176.7930  139.4100 S   0  0  0  0  0  0  0  0  0  0  0  0
  190.3760  177.2770  140.4390 C   0  0  0  0  0  2  0  0  0  0  0  0
  190.4170  175.5610  142.7310 C   0  0  0  0  0  1  0  0  0  0  0  0
  190.8370  177.0090  142.7970 C   0  0  0  0  0  0  0  0  0  0  0  0
  190.8210  177.7440  141.7320 N   0  0  0  0  0  0  0  0  0  0  0  0
  189.6250  177.8440  146.9930 C   0  0  2  0  0  3  0  0  0  0  0  0
  190.4780  178.7020  144.6770 C   0  0  1  0  0  3  0  0  0  0  0  0
  192.6120  178.1830  143.7990 F   0  0  0  0  0  0  0  0  0  0  0  0
  189.8060  178.9970  147.7550 O   0  0  0  0  0  1  0  0  0  0  0  0
  191.9460  177.0650  146.3790 O   0  0  0  0  0  0  0  0  0  0  0  0
  190.8200  176.8980  147.2120 C   0  0  2  0  0  3  0  0  0  0  0  0
  191.3890  177.6000  144.0860 C   0  0  2  0  0  0  0  0  0  0  0  0
  190.0610  179.6290  143.7160 O   0  0  0  0  0  1  0  0  0  0  0  0
  191.6430  176.5070  145.1290 C   0  0  0  0  0  2  0  0  0  0  0  0
  189.2980  178.2390  145.5440 C   0  0  1  0  0  3  0  0  0  0  0  0
  188.2520  177.4110  144.8690 C   0  0  0  0  0  0  0  0  0  0  0  0
  187.7360  177.7720  143.6320 O   0  0  0  0  0  0  0  0  0  0  0  0
  187.8390  176.3640  145.4300 O   0  0  0  0  0  1  0  0  0  0  0  0
  191.6600  174.6710  147.6410 O   0  0  0  0  0  1  0  0  0  0  0  0
  190.5170  175.4710  147.6760 C   0  0  0  0  0  2  0  0  0  0  0  0
  185.5410  177.2960  134.5940 C   0  0  0  0  0  2  0  0  0  0  0  0
  184.8840  176.0590  135.1910 C   0  0  0  0  0  2  0  0  0  0  0  0
  182.2460  173.1770  137.2240 C   0  0  0  0  0  2  0  0  0  0  0  0
  180.7570  173.3790  137.4090 C   0  0  0  0  0  2  0  0  0  0  0  0
  181.5550  176.6950  136.4850 C   0  0  0  0  0  3  0  0  0  0  0  0
  181.6700  175.4330  137.2840 C   0  0  1  0  0  3  0  0  0  0  0  0
  180.4460  174.7460  137.2790 O   0  0  0  0  0  0  0  0  0  0  0  0
  182.7410  174.5100  136.7480 C   0  0  1  0  0  3  0  0  0  0  0  0
  183.8930  177.4640  137.0580 C   0  0  2  0  0  3  0  0  0  0  0  0
  182.5400  177.5980  136.3940 C   0  0  0  0  0  3  0  0  0  0  0  0
  184.1210  174.9050  137.3300 C   0  0  2  0  0  3  0  0  0  0  0  0
  184.6930  176.1950  136.7030 C   0  0  1  0  0  3  0  0  0  0  0  0
  182.7470  177.7470  139.2560 C   0  0  0  0  0  3  0  0  0  0  0  0
  183.9210  178.5180  141.2370 C   0  0  0  0  0  0  0  0  0  0  0  0
  185.1030  178.2850  139.1280 C   0  0  0  0  0  3  0  0  0  0  0  0
  185.1000  178.6200  140.4840 C   0  0  0  0  0  3  0  0  0  0  0  0
  182.7450  178.0820  140.6130 C   0  0  0  0  0  3  0  0  0  0  0  0
  183.9260  177.8400  138.5090 C   0  0  0  0  0  0  0  0  0  0  0  0
  183.9140  178.8620  142.6670 C   0  0  0  0  0  0  0  0  0  0  0  0
  184.8640  179.5210  143.1680 O   0  0  0  0  0  0  0  0  0  0  0  0
  182.8580  178.4630  143.4770 O   0  0  0  0  0  1  0  0  0  0  0  0
  185.2020  173.8020  137.3740 C   0  0  1  0  0  3  0  0  0  0  0  0
  184.9010  172.6490  136.4320 C   0  0  0  0  0  1  0  0  0  0  0  0
  187.4890  173.6040  136.3960 O   0  0  0  0  0  0  0  0  0  0  0  0
  187.0280  175.2840  137.8830 O   0  0  0  0  0  1  0  0  0  0  0  0
  186.6200  174.2770  137.2460 C   0  0  0  0  0  0  0  0  0  0  0  0
  1  4  1  0  0  0  0
  2  6  1  0  0  0  0
  3  5  1  0  0  0  0
  3  2  2  0  0  0  0
  5  1  2  0  0  0  0
  6  4  2  0  0  0  0
  7  2  1  0  0  0  0
  7  8  1  0  0  0  0
  8  9  1  0  0  0  0
  9 10  1  0  0  0  0
 10 11  1  0  0  0  0
 11 14  1  0  0  0  0
 12 13  1  0  0  0  0
 13 21  1  0  0  0  0
 14 13  2  0  0  0  0
 15 20  1  0  0  0  0
 15 18  1  1  0  0  0
 16 22  1  6  0  0  0
 16 24  1  0  0  0  0
 19 20  1  0  0  0  0
 20 29  1  6  0  0  0
 21 17  1  6  0  0  0
 21 16  1  0  0  0  0
 21 23  1  0  0  0  0
 23 19  1  0  0  0  0
 24 25  1  6  0  0  0
 24 15  1  0  0  0  0
 25 27  1  0  0  0  0
 26 25  2  0  0  0  0
 28 29  1  0  0  0  0
 30 31  1  0  0  0  0
 30  5  1  0  0  0  0
 32 33  1  0  0  0  0
 35 34  1  6  0  0  0
 36 35  1  0  0  0  0
 36 33  1  0  0  0  0
 37 32  1  1  0  0  0
 37 35  1  0  0  0  0
 37 40  1  0  0  0  0
 38 47  1  1  0  0  0
 39 34  2  0  0  0  0
 39 38  1  0  0  0  0
 40 51  1  6  0  0  0
 41 31  1  6  0  0  0
 41 38  1  0  0  0  0
 41 40  1  0  0  0  0
 42 46  1  0  0  0  0
 43 48  1  0  0  0  0
 44 45  2  0  0  0  0
 45 43  1  0  0  0  0
 46 43  2  0  0  0  0
 47 44  1  0  0  0  0
 47 42  2  0  0  0  0
 48 49  2  0  0  0  0
 48 50  1  0  0  0  0
 51 52  1  6  0  0  0
 53 55  2  0  0  0  0
 55 51  1  0  0  0  0
 55 54  1  0  0  0  0
M  END
>  <MODEL>
6

>  <REMARK>
 VINA RESULT:      -4.6      3.874      7.959
  Name = 
  16 active torsions:
  status: ('A' for Active; 'I' for Inactive)
    1  A    between atoms: C_1  and  C_53
    2  A    between atoms: C_2  and  C_28
    3  A    between atoms: C_2  and  C_44
    4  A    between atoms: C_8  and  N_22
    5  A    between atoms: C_8  and  S_35
    6  A    between atoms: C_10  and  C_32
    7  A    between atoms: C_19  and  C_40
    8  A    between atoms: C_19  and  C_45
    9  A    between atoms: C_20  and  C_42
   10  A    between atoms: C_25  and  C_38
   11  A    between atoms: C_27  and  C_54
   12  A    between atoms: C_28  and  C_49
   13  A    between atoms: C_33  and  C_52
   14  A    between atoms: S_35  and  S_43
   15  A    between atoms: S_43  and  C_51
   16  A    between atoms: C_51  and  C_54
                            x       y       z     vdW  Elec       q    Type
                         _______ _______ _______ _____ _____    ______ ____

>  <TORSDO>
F 16

$$$$
=
 OpenBabel10262420363D

 55 59  0  0  1  0  0  0  0  0999 V2000
  186.3420  178.1370  145.2630 C   0  0  0  0  0  3  0  0  0  0  0  0
  183.6740  178.7230  144.6430 C   0  0  0  0  0  0  0  0  0  0  0  0
  184.5130  178.1660  143.6750 C   0  0  0  0  0  3  0  0  0  0  0  0
  185.4990  178.6850  146.2370 C   0  0  0  0  0  3  0  0  0  0  0  0
  185.8500  177.8810  143.9780 C   0  0  0  0  0  0  0  0  0  0  0  0
  184.1680  178.9860  145.9260 C   0  0  0  0  0  3  0  0  0  0  0  0
  182.2790  179.1080  144.2780 C   0  0  0  0  0  2  0  0  0  0  0  0
  182.0560  179.0080  142.7730 C   0  0  0  0  0  2  0  0  0  0  0  0
  180.4210  179.6630  142.3120 S   0  0  0  0  0  0  0  0  0  0  0  0
  179.7240  177.7480  141.7090 S   0  0  0  0  0  0  0  0  0  0  0  0
  179.0430  178.3950  140.1530 C   0  0  0  0  0  2  0  0  0  0  0  0
  179.6420  176.7310  137.9020 C   0  0  0  0  0  1  0  0  0  0  0  0
  180.4220  177.9840  138.2100 C   0  0  0  0  0  0  0  0  0  0  0  0
  180.1050  178.7180  139.2280 N   0  0  0  0  0  0  0  0  0  0  0  0
  184.3810  176.7350  136.6200 C   0  0  2  0  0  3  0  0  0  0  0  0
  182.9180  178.4550  137.9350 C   0  0  1  0  0  3  0  0  0  0  0  0
  181.2380  179.7780  136.9250 F   0  0  0  0  0  0  0  0  0  0  0  0
  185.5600  177.4700  136.4960 O   0  0  0  0  0  1  0  0  0  0  0  0
  182.6730  177.9470  135.2120 O   0  0  0  0  0  0  0  0  0  0  0  0
  183.5660  176.8600  135.3200 C   0  0  2  0  0  3  0  0  0  0  0  0
  181.5200  178.4680  137.2740 C   0  0  2  0  0  0  0  0  0  0  0  0
  182.9170  179.0270  139.2110 O   0  0  0  0  0  1  0  0  0  0  0  0
  181.5380  177.6490  135.9790 C   0  0  0  0  0  2  0  0  0  0  0  0
  183.6780  177.1210  137.9310 C   0  0  1  0  0  3  0  0  0  0  0  0
  183.0550  175.9900  138.6860 C   0  0  0  0  0  0  0  0  0  0  0  0
  182.9560  174.7220  138.1310 O   0  0  0  0  0  0  0  0  0  0  0  0
  182.6220  176.1910  139.8490 O   0  0  0  0  0  1  0  0  0  0  0  0
  183.9560  174.4940  135.0180 O   0  0  0  0  0  1  0  0  0  0  0  0
  183.1580  175.5650  134.6140 C   0  0  0  0  0  2  0  0  0  0  0  0
  186.7530  177.3340  142.9260 C   0  0  0  0  0  2  0  0  0  0  0  0
  187.8240  176.4660  143.5730 C   0  0  0  0  0  2  0  0  0  0  0  0
  191.3850  178.6500  144.9720 C   0  0  0  0  0  2  0  0  0  0  0  0
  191.6850  180.0900  144.6170 C   0  0  0  0  0  2  0  0  0  0  0  0
  189.1670  179.5450  142.2000 C   0  0  0  0  0  3  0  0  0  0  0  0
  190.4440  179.2650  142.9320 C   0  0  1  0  0  3  0  0  0  0  0  0
  190.9660  180.4540  143.4630 O   0  0  0  0  0  0  0  0  0  0  0  0
  190.2540  178.2760  144.0590 C   0  0  1  0  0  3  0  0  0  0  0  0
  188.9170  177.1640  141.3910 C   0  0  2  0  0  3  0  0  0  0  0  0
  188.4970  178.6120  141.5110 C   0  0  0  0  0  3  0  0  0  0  0  0
  190.3460  176.8280  143.5180 C   0  0  2  0  0  3  0  0  0  0  0  0
  189.0930  176.4030  142.7210 C   0  0  1  0  0  3  0  0  0  0  0  0
  189.6060  176.3790  139.1250 C   0  0  0  0  0  3  0  0  0  0  0  0
  191.9260  176.3790  138.4070 C   0  0  0  0  0  0  0  0  0  0  0  0
  191.3360  177.1420  140.6350 C   0  0  0  0  0  3  0  0  0  0  0  0
  192.3020  176.8870  139.6580 C   0  0  0  0  0  3  0  0  0  0  0  0
  190.5730  176.1240  138.1480 C   0  0  0  0  0  3  0  0  0  0  0  0
  189.9820  176.8950  140.3700 C   0  0  0  0  0  0  0  0  0  0  0  0
  192.9360  176.1170  137.3710 C   0  0  0  0  0  0  0  0  0  0  0  0
  192.6390  175.4440  136.3470 O   0  0  0  0  0  0  0  0  0  0  0  0
  194.2290  176.6090  137.5120 O   0  0  0  0  0  1  0  0  0  0  0  0
  190.7400  175.7270  144.5270 C   0  0  1  0  0  3  0  0  0  0  0  0
  192.0550  175.0530  144.1720 C   0  0  0  0  0  1  0  0  0  0  0  0
  191.8290  176.0190  146.7520 O   0  0  0  0  0  1  0  0  0  0  0  0
  189.6180  176.5570  146.4860 O   0  0  0  0  0  0  0  0  0  0  0  0
  190.6830  176.1210  145.9730 C   0  0  0  0  0  0  0  0  0  0  0  0
  1  4  1  0  0  0  0
  2  6  1  0  0  0  0
  3  5  1  0  0  0  0
  3  2  2  0  0  0  0
  5  1  2  0  0  0  0
  6  4  2  0  0  0  0
  7  2  1  0  0  0  0
  8  7  1  0  0  0  0
  9  8  1  0  0  0  0
 10  9  1  0  0  0  0
 11 10  1  0  0  0  0
 12 13  1  0  0  0  0
 13 14  2  0  0  0  0
 14 11  1  0  0  0  0
 15 18  1  6  0  0  0
 15 24  1  0  0  0  0
 16 22  1  1  0  0  0
 19 20  1  0  0  0  0
 19 23  1  0  0  0  0
 20 29  1  1  0  0  0
 20 15  1  0  0  0  0
 21 17  1  6  0  0  0
 21 16  1  0  0  0  0
 21 13  1  0  0  0  0
 23 21  1  0  0  0  0
 24 16  1  0  0  0  0
 24 25  1  6  0  0  0
 25 27  1  0  0  0  0
 26 25  2  0  0  0  0
 29 28  1  0  0  0  0
 30 31  1  0  0  0  0
 30  5  1  0  0  0  0
 33 32  1  0  0  0  0
 35 34  1  1  0  0  0
 35 36  1  0  0  0  0
 35 37  1  0  0  0  0
 36 33  1  0  0  0  0
 37 32  1  1  0  0  0
 38 47  1  1  0  0  0
 38 39  1  0  0  0  0
 38 41  1  0  0  0  0
 39 34  2  0  0  0  0
 40 37  1  0  0  0  0
 40 51  1  1  0  0  0
 41 40  1  0  0  0  0
 41 31  1  1  0  0  0
 42 47  1  0  0  0  0
 43 45  2  0  0  0  0
 45 44  1  0  0  0  0
 46 43  1  0  0  0  0
 46 42  2  0  0  0  0
 47 44  2  0  0  0  0
 48 50  1  0  0  0  0
 48 43  1  0  0  0  0
 49 48  2  0  0  0  0
 51 52  1  6  0  0  0
 51 55  1  0  0  0  0
 55 54  2  0  0  0  0
 55 53  1  0  0  0  0
M  END
>  <MODEL>
7

>  <REMARK>
 VINA RESULT:      -4.4      3.928      9.024
  Name = 
  16 active torsions:
  status: ('A' for Active; 'I' for Inactive)
    1  A    between atoms: C_1  and  C_53
    2  A    between atoms: C_2  and  C_28
    3  A    between atoms: C_2  and  C_44
    4  A    between atoms: C_8  and  N_22
    5  A    between atoms: C_8  and  S_35
    6  A    between atoms: C_10  and  C_32
    7  A    between atoms: C_19  and  C_40
    8  A    between atoms: C_19  and  C_45
    9  A    between atoms: C_20  and  C_42
   10  A    between atoms: C_25  and  C_38
   11  A    between atoms: C_27  and  C_54
   12  A    between atoms: C_28  and  C_49
   13  A    between atoms: C_33  and  C_52
   14  A    between atoms: S_35  and  S_43
   15  A    between atoms: S_43  and  C_51
   16  A    between atoms: C_51  and  C_54
                            x       y       z     vdW  Elec       q    Type
                         _______ _______ _______ _____ _____    ______ ____

>  <TORSDO>
F 16

$$$$
