=
 OpenBabel10262421083D

 32 36  0  0  1  0  0  0  0  0999 V2000
  187.8420  177.2030  143.1280 C   0  0  1  0  0  3  0  0  0  0  0  0
  187.1810  178.0650  140.8690 C   0  0  0  0  0  0  0  0  0  0  0  0
  187.6580  177.6830  144.5690 C   0  0  0  0  0  2  0  0  0  0  0  0
  186.9080  177.9280  142.1810 C   0  0  0  0  0  0  0  0  0  0  0  0
  186.1600  178.6650  139.9420 C   0  0  0  0  0  0  0  0  0  0  0  0
  189.5190  174.9950  136.0800 C   0  0  0  0  0  1  0  0  0  0  0  0
  188.5540  177.7000  140.3130 C   0  0  1  0  0  3  0  0  0  0  0  0
  187.5760  176.9730  136.5580 S   0  0  0  0  0  0  0  0  0  0  0  0
  187.4640  177.7080  138.0620 C   0  0  0  0  0  0  0  0  0  0  0  0
  185.6180  178.4250  142.6960 C   0  0  0  0  0  0  0  0  0  0  0  0
  186.5020  178.7790  138.4710 C   0  0  0  0  0  2  0  0  0  0  0  0
  184.7360  179.0550  141.8180 O   0  0  0  0  0  0  0  0  0  0  0  0
  185.3010  178.3050  143.9880 C   0  0  0  0  0  3  0  0  0  0  0  0
  189.3760  176.7690  141.2170 C   0  0  0  0  0  2  0  0  0  0  0  0
  189.3050  177.2160  142.6750 C   0  0  1  0  0  3  0  0  0  0  0  0
  188.4280  177.1870  138.9070 C   0  0  0  0  0  0  0  0  0  0  0  0
  184.9850  179.1350  140.4410 C   0  0  0  0  0  0  0  0  0  0  0  0
  186.1860  177.5710  144.9610 C   0  0  0  0  0  2  0  0  0  0  0  0
  188.8620  175.9720  136.9880 C   0  0  0  0  0  0  0  0  0  0  0  0
  189.2300  176.2050  138.3060 C   0  0  0  0  0  3  0  0  0  0  0  0
  183.9740  179.7230  139.6590 O   0  0  0  0  0  0  0  0  0  0  0  0
  182.6210  179.2900  139.5990 C   0  0  0  0  0  1  0  0  0  0  0  0
  189.9790  178.5720  142.8890 C   0  0  0  0  0  2  0  0  0  0  0  0
  191.3990  178.3760  143.3870 C   0  0  0  0  0  2  0  0  0  0  0  0
  191.3950  177.8530  144.8150 C   0  0  0  0  0  2  0  0  0  0  0  0
  191.7820  176.4050  144.8690 C   0  0  0  0  0  0  0  0  0  0  0  0
  192.4210  175.7220  148.4090 O   0  0  0  0  0  0  0  0  0  0  0  0
  191.7740  175.7140  143.8150 O   0  0  0  0  0  0  0  0  0  0  0  0
  192.1650  175.7820  146.1010 N   0  0  0  0  0  2  0  0  0  0  0  0
  191.8270  176.2310  147.4210 C   0  0  0  0  0  0  0  0  0  0  0  0
  190.7160  177.2060  147.6590 C   0  0  0  0  0  2  0  0  0  0  0  0
  189.3680  176.5210  147.5520 C   0  0  0  0  0  1  0  0  0  0  0  0
  1  3  1  1  0  0  0
  2  4  2  0  0  0  0
  3 18  1  0  0  0  0
  4 10  1  0  0  0  0
  4  1  1  0  0  0  0
  5 17  2  0  0  0  0
  5  2  1  0  0  0  0
  6 19  1  0  0  0  0
  7  2  1  0  0  0  0
  7 14  1  1  0  0  0
  8 19  1  0  0  0  0
  8  9  1  0  0  0  0
  9 11  1  0  0  0  0
  9 16  2  0  0  0  0
 10 13  2  0  0  0  0
 11  5  1  0  0  0  0
 12 10  1  0  0  0  0
 13 18  1  0  0  0  0
 14 15  1  0  0  0  0
 15 23  1  6  0  0  0
 15  1  1  0  0  0  0
 16  7  1  0  0  0  0
 17 12  1  0  0  0  0
 19 20  2  0  0  0  0
 20 16  1  0  0  0  0
 21 17  1  0  0  0  0
 22 21  1  0  0  0  0
 23 24  1  0  0  0  0
 24 25  1  0  0  0  0
 25 26  1  0  0  0  0
 26 29  1  0  0  0  0
 28 26  2  0  0  0  0
 29 30  1  0  0  0  0
 30 31  1  0  0  0  0
 30 27  2  0  0  0  0
 32 31  1  0  0  0  0
M  END
>  <MODEL>
1

>  <REMARK>
 VINA RESULT:      -8.2      0.000      0.000
  Name = 
  6 active torsions:
  status: ('A' for Active; 'I' for Inactive)
    1  A    between atoms: C_3  and  C_22
    2  A    between atoms: O_13  and  C_29
    3  A    between atoms: C_15  and  C_26
    4  A    between atoms: C_16  and  C_23
    5  A    between atoms: C_16  and  C_27
    6  A    between atoms: C_22  and  C_23
                            x       y       z     vdW  Elec       q    Type
                         _______ _______ _______ _____ _____    ______ ____

>  <TORSDO>
F 6

$$$$
=
 OpenBabel10262421083D

 32 36  0  0  1  0  0  0  0  0999 V2000
  188.2900  177.1680  142.2440 C   0  0  1  0  0  3  0  0  0  0  0  0
  188.9210  177.7330  139.8850 C   0  0  0  0  0  0  0  0  0  0  0  0
  187.4400  177.8330  143.3280 C   0  0  0  0  0  2  0  0  0  0  0  0
  188.0150  177.7700  140.8810 C   0  0  0  0  0  0  0  0  0  0  0  0
  188.5540  178.2150  138.5090 C   0  0  0  0  0  0  0  0  0  0  0  0
  193.1260  174.0510  137.3190 C   0  0  0  0  0  1  0  0  0  0  0  0
  190.3570  177.2900  140.1490 C   0  0  1  0  0  3  0  0  0  0  0  0
  191.3550  176.0880  136.5230 S   0  0  0  0  0  0  0  0  0  0  0  0
  190.5540  177.0130  137.6710 C   0  0  0  0  0  0  0  0  0  0  0  0
  186.6820  178.3390  140.6100 C   0  0  0  0  0  0  0  0  0  0  0  0
  189.5970  178.1350  137.4140 C   0  0  0  0  0  2  0  0  0  0  0  0
  186.4100  178.8560  139.3430 O   0  0  0  0  0  0  0  0  0  0  0  0
  185.7490  178.3900  141.5650 C   0  0  0  0  0  3  0  0  0  0  0  0
  190.5420  176.4790  141.4400 C   0  0  0  0  0  2  0  0  0  0  0  0
  189.7790  177.1120  142.6000 C   0  0  1  0  0  3  0  0  0  0  0  0
  190.9200  176.6000  138.9400 C   0  0  0  0  0  0  0  0  0  0  0  0
  187.3240  178.7540  138.2860 C   0  0  0  0  0  0  0  0  0  0  0  0
  185.9670  177.7830  142.9260 C   0  0  0  0  0  2  0  0  0  0  0  0
  192.1740  175.1420  137.6530 C   0  0  0  0  0  0  0  0  0  0  0  0
  191.8430  175.5420  138.9420 C   0  0  0  0  0  3  0  0  0  0  0  0
  186.8910  179.2420  137.0400 O   0  0  0  0  0  0  0  0  0  0  0  0
  186.6790  178.4560  135.8740 C   0  0  0  0  0  1  0  0  0  0  0  0
  190.3480  178.4800  142.9790 C   0  0  0  0  0  2  0  0  0  0  0  0
  190.8480  178.4590  144.4110 C   0  0  0  0  0  2  0  0  0  0  0  0
  190.3440  177.2180  145.1320 C   0  0  0  0  0  2  0  0  0  0  0  0
  191.0360  177.0310  146.4500 C   0  0  0  0  0  0  0  0  0  0  0  0
  188.6930  178.3250  148.9480 O   0  0  0  0  0  0  0  0  0  0  0  0
  192.1650  176.4710  146.4920 O   0  0  0  0  0  0  0  0  0  0  0  0
  190.4410  177.4790  147.6740 N   0  0  0  0  0  2  0  0  0  0  0  0
  189.0450  177.7170  147.9030 C   0  0  0  0  0  0  0  0  0  0  0  0
  187.9940  177.1670  146.9880 C   0  0  0  0  0  2  0  0  0  0  0  0
  186.8030  178.1010  146.9150 C   0  0  0  0  0  1  0  0  0  0  0  0
  1 15  1  0  0  0  0
  1  3  1  1  0  0  0
  2  7  1  0  0  0  0
  2  4  2  0  0  0  0
  4  1  1  0  0  0  0
  5  2  1  0  0  0  0
  6 19  1  0  0  0  0
  7 14  1  1  0  0  0
  8 19  1  0  0  0  0
  8  9  1  0  0  0  0
  9 16  2  0  0  0  0
 10  4  1  0  0  0  0
 10 13  2  0  0  0  0
 11  9  1  0  0  0  0
 11  5  1  0  0  0  0
 12 10  1  0  0  0  0
 13 18  1  0  0  0  0
 14 15  1  0  0  0  0
 15 23  1  6  0  0  0
 16 20  1  0  0  0  0
 16  7  1  0  0  0  0
 17  5  2  0  0  0  0
 17 12  1  0  0  0  0
 18  3  1  0  0  0  0
 19 20  2  0  0  0  0
 21 17  1  0  0  0  0
 22 21  1  0  0  0  0
 23 24  1  0  0  0  0
 24 25  1  0  0  0  0
 25 26  1  0  0  0  0
 26 28  2  0  0  0  0
 26 29  1  0  0  0  0
 29 30  1  0  0  0  0
 30 27  2  0  0  0  0
 31 30  1  0  0  0  0
 32 31  1  0  0  0  0
M  END
>  <MODEL>
2

>  <REMARK>
 VINA RESULT:      -7.7      2.122      2.817
  Name = 
  6 active torsions:
  status: ('A' for Active; 'I' for Inactive)
    1  A    between atoms: C_3  and  C_22
    2  A    between atoms: O_13  and  C_29
    3  A    between atoms: C_15  and  C_26
    4  A    between atoms: C_16  and  C_23
    5  A    between atoms: C_16  and  C_27
    6  A    between atoms: C_22  and  C_23
                            x       y       z     vdW  Elec       q    Type
                         _______ _______ _______ _____ _____    ______ ____

>  <TORSDO>
F 6

$$$$
=
 OpenBabel10262421083D

 32 36  0  0  1  0  0  0  0  0999 V2000
  186.1680  179.2520  145.4880 C   0  0  1  0  0  3  0  0  0  0  0  0
  187.7770  177.6750  144.3890 C   0  0  0  0  0  0  0  0  0  0  0  0
  185.4520  179.3030  146.8390 C   0  0  0  0  0  2  0  0  0  0  0  0
  187.3150  178.2630  145.5100 C   0  0  0  0  0  0  0  0  0  0  0  0
  189.0070  176.8110  144.4390 C   0  0  0  0  0  0  0  0  0  0  0  0
  189.0140  178.8520  138.4810 C   0  0  0  0  0  1  0  0  0  0  0  0
  187.0180  177.7980  143.0710 C   0  0  1  0  0  3  0  0  0  0  0  0
  189.9880  177.2000  140.5400 S   0  0  0  0  0  0  0  0  0  0  0  0
  189.1300  177.0330  141.9720 C   0  0  0  0  0  0  0  0  0  0  0  0
  188.0040  178.0000  146.7870 C   0  0  0  0  0  0  0  0  0  0  0  0
  189.5020  176.1880  143.1500 C   0  0  0  0  0  2  0  0  0  0  0  0
  189.0880  177.1220  146.8050 O   0  0  0  0  0  0  0  0  0  0  0  0
  187.5860  178.5650  147.9240 C   0  0  0  0  0  3  0  0  0  0  0  0
  186.0240  178.9680  143.0200 C   0  0  0  0  0  2  0  0  0  0  0  0
  185.2110  179.0550  144.3090 C   0  0  1  0  0  3  0  0  0  0  0  0
  187.9770  177.7950  141.9160 C   0  0  0  0  0  0  0  0  0  0  0  0
  189.6150  176.5660  145.6310 C   0  0  0  0  0  0  0  0  0  0  0  0
  186.4680  179.5730  147.9470 C   0  0  0  0  0  2  0  0  0  0  0  0
  188.8830  178.2630  139.8390 C   0  0  0  0  0  0  0  0  0  0  0  0
  187.8230  178.4930  140.7080 C   0  0  0  0  0  3  0  0  0  0  0  0
  190.7600  175.7640  145.7830 O   0  0  0  0  0  0  0  0  0  0  0  0
  191.9050  176.0980  146.5560 C   0  0  0  0  0  1  0  0  0  0  0  0
  184.2950  177.8430  144.4870 C   0  0  0  0  0  2  0  0  0  0  0  0
  182.8550  178.2970  144.6410 C   0  0  0  0  0  2  0  0  0  0  0  0
  182.4610  179.2170  143.4960 C   0  0  0  0  0  2  0  0  0  0  0  0
  181.0920  178.8900  142.9760 C   0  0  0  0  0  0  0  0  0  0  0  0
  181.3960  179.0470  139.3310 O   0  0  0  0  0  0  0  0  0  0  0  0
  180.1710  178.5920  143.7830 O   0  0  0  0  0  0  0  0  0  0  0  0
  180.8050  178.9090  141.5730 N   0  0  0  0  0  2  0  0  0  0  0  0
  181.7570  178.7820  140.5080 C   0  0  0  0  0  0  0  0  0  0  0  0
  183.1330  178.2410  140.7460 C   0  0  0  0  0  2  0  0  0  0  0  0
  184.1670  179.0450  139.9840 C   0  0  0  0  0  1  0  0  0  0  0  0
  1  4  1  0  0  0  0
  1  3  1  1  0  0  0
  2  5  1  0  0  0  0
  2  4  2  0  0  0  0
  3 18  1  0  0  0  0
  4 10  1  0  0  0  0
  5 17  2  0  0  0  0
  6 19  1  0  0  0  0
  7 14  1  1  0  0  0
  7  2  1  0  0  0  0
  8  9  1  0  0  0  0
  9 11  1  0  0  0  0
 10 12  1  0  0  0  0
 10 13  2  0  0  0  0
 11  5  1  0  0  0  0
 13 18  1  0  0  0  0
 14 15  1  0  0  0  0
 15 23  1  1  0  0  0
 15  1  1  0  0  0  0
 16  9  2  0  0  0  0
 16  7  1  0  0  0  0
 17 21  1  0  0  0  0
 17 12  1  0  0  0  0
 19  8  1  0  0  0  0
 19 20  2  0  0  0  0
 20 16  1  0  0  0  0
 21 22  1  0  0  0  0
 23 24  1  0  0  0  0
 25 24  1  0  0  0  0
 26 25  1  0  0  0  0
 26 28  2  0  0  0  0
 27 30  2  0  0  0  0
 29 26  1  0  0  0  0
 30 31  1  0  0  0  0
 30 29  1  0  0  0  0
 32 31  1  0  0  0  0
M  END
>  <MODEL>
3

>  <REMARK>
 VINA RESULT:      -7.4      3.180      7.621
  Name = 
  6 active torsions:
  status: ('A' for Active; 'I' for Inactive)
    1  A    between atoms: C_3  and  C_22
    2  A    between atoms: O_13  and  C_29
    3  A    between atoms: C_15  and  C_26
    4  A    between atoms: C_16  and  C_23
    5  A    between atoms: C_16  and  C_27
    6  A    between atoms: C_22  and  C_23
                            x       y       z     vdW  Elec       q    Type
                         _______ _______ _______ _____ _____    ______ ____

>  <TORSDO>
F 6

$$$$
=
 OpenBabel10262421083D

 32 36  0  0  1  0  0  0  0  0999 V2000
  188.4940  176.7220  142.3700 C   0  0  1  0  0  3  0  0  0  0  0  0
  187.1860  177.9660  144.1080 C   0  0  0  0  0  0  0  0  0  0  0  0
  189.9780  176.4400  142.1240 C   0  0  0  0  0  2  0  0  0  0  0  0
  188.2530  177.2090  143.7830 C   0  0  0  0  0  0  0  0  0  0  0  0
  186.9100  178.3070  145.5470 C   0  0  0  0  0  0  0  0  0  0  0  0
  181.1770  178.5860  142.9540 C   0  0  0  0  0  1  0  0  0  0  0  0
  186.2920  178.5640  143.0260 C   0  0  1  0  0  3  0  0  0  0  0  0
  182.9570  179.0030  145.0930 S   0  0  0  0  0  0  0  0  0  0  0  0
  184.6150  178.9310  144.8460 C   0  0  0  0  0  0  0  0  0  0  0  0
  189.1680  176.7710  144.8540 C   0  0  0  0  0  0  0  0  0  0  0  0
  185.6880  179.1410  145.8670 C   0  0  0  0  0  2  0  0  0  0  0  0
  188.9240  177.1830  146.1640 O   0  0  0  0  0  0  0  0  0  0  0  0
  190.2350  176.0150  144.5800 C   0  0  0  0  0  3  0  0  0  0  0  0
  186.4090  177.8780  141.6580 C   0  0  0  0  0  2  0  0  0  0  0  0
  187.8690  177.6180  141.2970 C   0  0  1  0  0  3  0  0  0  0  0  0
  184.8750  178.6560  143.5140 C   0  0  0  0  0  0  0  0  0  0  0  0
  187.7780  177.9090  146.5160 C   0  0  0  0  0  0  0  0  0  0  0  0
  190.5010  175.4860  143.1960 C   0  0  0  0  0  2  0  0  0  0  0  0
  182.5620  178.6730  143.4880 C   0  0  0  0  0  0  0  0  0  0  0  0
  183.7170  178.5140  142.7340 C   0  0  0  0  0  3  0  0  0  0  0  0
  187.6150  178.1880  147.8850 O   0  0  0  0  0  0  0  0  0  0  0  0
  188.6620  178.2530  148.8450 C   0  0  0  0  0  1  0  0  0  0  0  0
  188.6450  178.9190  141.0870 C   0  0  0  0  0  2  0  0  0  0  0  0
  189.1640  178.9930  139.6640 C   0  0  0  0  0  2  0  0  0  0  0  0
  188.3880  178.0450  138.7630 C   0  0  0  0  0  2  0  0  0  0  0  0
  188.2150  178.6160  137.3860 C   0  0  0  0  0  0  0  0  0  0  0  0
  185.0660  177.2050  136.1610 O   0  0  0  0  0  0  0  0  0  0  0  0
  189.0560  179.4410  136.9390 O   0  0  0  0  0  0  0  0  0  0  0  0
  187.1060  178.2420  136.5590 N   0  0  0  0  0  2  0  0  0  0  0  0
  185.8560  177.7010  137.0080 C   0  0  0  0  0  0  0  0  0  0  0  0
  185.4200  177.8100  138.4370 C   0  0  0  0  0  2  0  0  0  0  0  0
  184.5060  179.0030  138.6310 C   0  0  0  0  0  1  0  0  0  0  0  0
  1  3  1  6  0  0  0
  1  4  1  0  0  0  0
  2  5  1  0  0  0  0
  3 18  1  0  0  0  0
  4  2  2  0  0  0  0
  4 10  1  0  0  0  0
  5 11  1  0  0  0  0
  5 17  2  0  0  0  0
  6 19  1  0  0  0  0
  7 14  1  6  0  0  0
  7 16  1  0  0  0  0
  7  2  1  0  0  0  0
  9  8  1  0  0  0  0
  9 11  1  0  0  0  0
 10 12  1  0  0  0  0
 12 17  1  0  0  0  0
 13 10  2  0  0  0  0
 15 23  1  1  0  0  0
 15 14  1  0  0  0  0
 15  1  1  0  0  0  0
 16  9  2  0  0  0  0
 17 21  1  0  0  0  0
 18 13  1  0  0  0  0
 19  8  1  0  0  0  0
 20 19  2  0  0  0  0
 20 16  1  0  0  0  0
 21 22  1  0  0  0  0
 24 23  1  0  0  0  0
 25 24  1  0  0  0  0
 26 25  1  0  0  0  0
 27 30  2  0  0  0  0
 28 26  2  0  0  0  0
 29 30  1  0  0  0  0
 29 26  1  0  0  0  0
 30 31  1  0  0  0  0
 31 32  1  0  0  0  0
M  END
>  <MODEL>
4

>  <REMARK>
 VINA RESULT:      -7.3      3.566      7.681
  Name = 
  6 active torsions:
  status: ('A' for Active; 'I' for Inactive)
    1  A    between atoms: C_3  and  C_22
    2  A    between atoms: O_13  and  C_29
    3  A    between atoms: C_15  and  C_26
    4  A    between atoms: C_16  and  C_23
    5  A    between atoms: C_16  and  C_27
    6  A    between atoms: C_22  and  C_23
                            x       y       z     vdW  Elec       q    Type
                         _______ _______ _______ _____ _____    ______ ____

>  <TORSDO>
F 6

$$$$
=
 OpenBabel10262421083D

 32 36  0  0  1  0  0  0  0  0999 V2000
  186.8130  178.8610  141.3470 C   0  0  1  0  0  3  0  0  0  0  0  0
  184.6100  178.0200  140.4980 C   0  0  0  0  0  0  0  0  0  0  0  0
  188.2780  178.4870  141.1160 C   0  0  0  0  0  2  0  0  0  0  0  0
  185.9170  178.2640  140.2820 C   0  0  0  0  0  0  0  0  0  0  0  0
  183.7280  177.5610  139.3700 C   0  0  0  0  0  0  0  0  0  0  0  0
  179.6400  180.4140  143.2190 C   0  0  0  0  0  1  0  0  0  0  0  0
  184.0170  178.1170  141.9010 C   0  0  1  0  0  3  0  0  0  0  0  0
  180.2440  178.8240  140.9770 S   0  0  0  0  0  0  0  0  0  0  0  0
  181.7850  178.1900  140.7750 C   0  0  0  0  0  0  0  0  0  0  0  0
  186.4740  178.0200  138.9380 C   0  0  0  0  0  0  0  0  0  0  0  0
  182.2600  177.3210  139.6540 C   0  0  0  0  0  2  0  0  0  0  0  0
  185.6410  177.5100  137.9420 O   0  0  0  0  0  0  0  0  0  0  0  0
  187.7630  178.2530  138.6750 C   0  0  0  0  0  3  0  0  0  0  0  0
  184.8610  178.9340  142.8900 C   0  0  0  0  0  2  0  0  0  0  0  0
  186.3400  178.5760  142.7760 C   0  0  1  0  0  3  0  0  0  0  0  0
  182.5890  178.5780  141.8320 C   0  0  0  0  0  0  0  0  0  0  0  0
  184.2670  177.3240  138.1430 C   0  0  0  0  0  0  0  0  0  0  0  0
  188.6850  178.8690  139.6940 C   0  0  0  0  0  2  0  0  0  0  0  0
  180.6050  179.6090  142.4240 C   0  0  0  0  0  0  0  0  0  0  0  0
  181.9280  179.3780  142.7770 C   0  0  0  0  0  3  0  0  0  0  0  0
  183.5290  176.8820  137.0290 O   0  0  0  0  0  0  0  0  0  0  0  0
  183.8630  177.1270  135.6690 C   0  0  0  0  0  1  0  0  0  0  0  0
  186.6130  177.1350  143.2130 C   0  0  0  0  0  2  0  0  0  0  0  0
  187.1640  177.1140  144.6260 C   0  0  0  0  0  2  0  0  0  0  0  0
  188.4780  177.8750  144.6970 C   0  0  0  0  0  2  0  0  0  0  0  0
  189.6520  176.9620  144.4910 C   0  0  0  0  0  0  0  0  0  0  0  0
  191.4280  176.9600  147.6930 O   0  0  0  0  0  0  0  0  0  0  0  0
  189.7950  176.3640  143.3910 O   0  0  0  0  0  0  0  0  0  0  0  0
  190.6220  176.7530  145.5240 N   0  0  0  0  0  2  0  0  0  0  0  0
  190.4260  176.9620  146.9300 C   0  0  0  0  0  0  0  0  0  0  0  0
  189.0550  177.0710  147.5230 C   0  0  0  0  0  2  0  0  0  0  0  0
  188.9720  178.2530  148.4690 C   0  0  0  0  0  1  0  0  0  0  0  0
  1  3  1  1  0  0  0
  1 15  1  0  0  0  0
  2  7  1  0  0  0  0
  4  2  2  0  0  0  0
  4  1  1  0  0  0  0
  5 11  1  0  0  0  0
  5  2  1  0  0  0  0
  7 14  1  1  0  0  0
  8 19  1  0  0  0  0
  9  8  1  0  0  0  0
  9 16  2  0  0  0  0
 10  4  1  0  0  0  0
 11  9  1  0  0  0  0
 12 17  1  0  0  0  0
 12 10  1  0  0  0  0
 13 10  2  0  0  0  0
 13 18  1  0  0  0  0
 15 14  1  0  0  0  0
 15 23  1  6  0  0  0
 16  7  1  0  0  0  0
 16 20  1  0  0  0  0
 17  5  2  0  0  0  0
 18  3  1  0  0  0  0
 19 20  2  0  0  0  0
 19  6  1  0  0  0  0
 21 17  1  0  0  0  0
 22 21  1  0  0  0  0
 23 24  1  0  0  0  0
 24 25  1  0  0  0  0
 26 25  1  0  0  0  0
 26 29  1  0  0  0  0
 28 26  2  0  0  0  0
 29 30  1  0  0  0  0
 30 31  1  0  0  0  0
 30 27  2  0  0  0  0
 31 32  1  0  0  0  0
M  END
>  <MODEL>
5

>  <REMARK>
 VINA RESULT:      -7.2      2.652      5.225
  Name = 
  6 active torsions:
  status: ('A' for Active; 'I' for Inactive)
    1  A    between atoms: C_3  and  C_22
    2  A    between atoms: O_13  and  C_29
    3  A    between atoms: C_15  and  C_26
    4  A    between atoms: C_16  and  C_23
    5  A    between atoms: C_16  and  C_27
    6  A    between atoms: C_22  and  C_23
                            x       y       z     vdW  Elec       q    Type
                         _______ _______ _______ _____ _____    ______ ____

>  <TORSDO>
F 6

$$$$
=
 OpenBabel10262421083D

 32 36  0  0  1  0  0  0  0  0999 V2000
  184.1280  177.9460  141.9130 C   0  0  1  0  0  3  0  0  0  0  0  0
  186.3530  178.3150  140.8210 C   0  0  0  0  0  0  0  0  0  0  0  0
  182.7400  178.5790  141.7890 C   0  0  0  0  0  2  0  0  0  0  0  0
  185.0080  178.3140  140.7370 C   0  0  0  0  0  0  0  0  0  0  0  0
  187.1880  178.5480  139.5910 C   0  0  0  0  0  0  0  0  0  0  0  0
  191.0410  175.1530  143.2370 C   0  0  0  0  0  1  0  0  0  0  0  0
  187.0530  178.1730  142.1690 C   0  0  1  0  0  3  0  0  0  0  0  0
  190.5220  176.7240  140.9610 S   0  0  0  0  0  0  0  0  0  0  0  0
  189.1120  177.6270  140.8570 C   0  0  0  0  0  0  0  0  0  0  0  0
  184.3760  178.5960  139.4350 C   0  0  0  0  0  0  0  0  0  0  0  0
  188.6960  178.5190  139.7290 C   0  0  0  0  0  2  0  0  0  0  0  0
  185.1850  178.8940  138.3380 O   0  0  0  0  0  0  0  0  0  0  0  0
  183.0460  178.6000  139.3020 C   0  0  0  0  0  3  0  0  0  0  0  0
  186.1750  177.5760  143.2780 C   0  0  0  0  0  2  0  0  0  0  0  0
  184.7830  178.2020  143.2730 C   0  0  1  0  0  3  0  0  0  0  0  0
  188.3580  177.4480  142.0030 C   0  0  0  0  0  0  0  0  0  0  0  0
  186.5830  178.8260  138.4040 C   0  0  0  0  0  0  0  0  0  0  0  0
  182.1320  178.2160  140.4350 C   0  0  0  0  0  2  0  0  0  0  0  0
  190.1680  176.0890  142.4820 C   0  0  0  0  0  0  0  0  0  0  0  0
  188.9510  176.5820  142.9350 C   0  0  0  0  0  3  0  0  0  0  0  0
  187.2760  179.0690  137.2040 O   0  0  0  0  0  0  0  0  0  0  0  0
  187.4920  178.1180  136.1690 C   0  0  0  0  0  1  0  0  0  0  0  0
  184.8250  179.6860  143.6400 C   0  0  0  0  0  2  0  0  0  0  0  0
  184.9680  179.8490  145.1420 C   0  0  0  0  0  2  0  0  0  0  0  0
  185.9610  178.8380  145.6940 C   0  0  0  0  0  2  0  0  0  0  0  0
  186.2380  179.0810  147.1490 C   0  0  0  0  0  0  0  0  0  0  0  0
  188.6340  176.4840  148.1080 O   0  0  0  0  0  0  0  0  0  0  0  0
  185.7060  180.0630  147.7330 O   0  0  0  0  0  0  0  0  0  0  0  0
  187.1000  178.2160  147.8970 N   0  0  0  0  0  2  0  0  0  0  0  0
  188.1130  177.3540  147.3600 C   0  0  0  0  0  0  0  0  0  0  0  0
  188.6430  177.5350  145.9710 C   0  0  0  0  0  2  0  0  0  0  0  0
  190.1580  177.5630  145.9720 C   0  0  0  0  0  1  0  0  0  0  0  0
  1  3  1  1  0  0  0
  1 15  1  0  0  0  0
  2  7  1  0  0  0  0
  4  2  2  0  0  0  0
  4  1  1  0  0  0  0
  5 11  1  0  0  0  0
  5  2  1  0  0  0  0
  7 14  1  1  0  0  0
  8 19  1  0  0  0  0
  9  8  1  0  0  0  0
  9 16  2  0  0  0  0
 10  4  1  0  0  0  0
 11  9  1  0  0  0  0
 12 17  1  0  0  0  0
 12 10  1  0  0  0  0
 13 10  2  0  0  0  0
 13 18  1  0  0  0  0
 15 14  1  0  0  0  0
 15 23  1  6  0  0  0
 16  7  1  0  0  0  0
 16 20  1  0  0  0  0
 17  5  2  0  0  0  0
 18  3  1  0  0  0  0
 19 20  2  0  0  0  0
 19  6  1  0  0  0  0
 21 17  1  0  0  0  0
 22 21  1  0  0  0  0
 23 24  1  0  0  0  0
 24 25  1  0  0  0  0
 25 26  1  0  0  0  0
 26 28  2  0  0  0  0
 26 29  1  0  0  0  0
 30 29  1  0  0  0  0
 30 27  2  0  0  0  0
 31 32  1  0  0  0  0
 31 30  1  0  0  0  0
M  END
>  <MODEL>
6

>  <REMARK>
 VINA RESULT:      -7.2      2.517      4.703
  Name = 
  6 active torsions:
  status: ('A' for Active; 'I' for Inactive)
    1  A    between atoms: C_3  and  C_22
    2  A    between atoms: O_13  and  C_29
    3  A    between atoms: C_15  and  C_26
    4  A    between atoms: C_16  and  C_23
    5  A    between atoms: C_16  and  C_27
    6  A    between atoms: C_22  and  C_23
                            x       y       z     vdW  Elec       q    Type
                         _______ _______ _______ _____ _____    ______ ____

>  <TORSDO>
F 6

$$$$
=
 OpenBabel10262421083D

 32 36  0  0  1  0  0  0  0  0999 V2000
  183.7910  177.6720  138.2790 C   0  0  1  0  0  3  0  0  0  0  0  0
  186.1360  178.1900  138.9950 C   0  0  0  0  0  0  0  0  0  0  0  0
  182.9890  177.8410  136.9880 C   0  0  0  0  0  2  0  0  0  0  0  0
  185.2780  177.8130  138.0280 C   0  0  0  0  0  0  0  0  0  0  0  0
  187.6180  178.1780  138.7390 C   0  0  0  0  0  0  0  0  0  0  0  0
  187.3080  177.4050  144.9820 C   0  0  0  0  0  1  0  0  0  0  0  0
  185.6260  178.7180  140.3320 C   0  0  1  0  0  3  0  0  0  0  0  0
  188.7410  177.8790  142.6070 S   0  0  0  0  0  0  0  0  0  0  0  0
  187.9340  178.2930  141.1960 C   0  0  0  0  0  0  0  0  0  0  0  0
  185.8140  177.4440  136.7040 C   0  0  0  0  0  0  0  0  0  0  0  0
  188.5470  178.5890  139.8620 C   0  0  0  0  0  2  0  0  0  0  0  0
  187.1880  177.5320  136.4810 O   0  0  0  0  0  0  0  0  0  0  0  0
  185.0010  177.0590  135.7160 C   0  0  0  0  0  3  0  0  0  0  0  0
  184.1680  178.3480  140.6440 C   0  0  0  0  0  2  0  0  0  0  0  0
  183.2760  178.5520  139.4230 C   0  0  1  0  0  3  0  0  0  0  0  0
  186.5730  178.3430  141.4360 C   0  0  0  0  0  0  0  0  0  0  0  0
  188.0900  177.8540  137.5040 C   0  0  0  0  0  0  0  0  0  0  0  0
  183.5210  176.8790  135.9260 C   0  0  0  0  0  2  0  0  0  0  0  0
  187.3410  177.7550  143.5370 C   0  0  0  0  0  0  0  0  0  0  0  0
  186.2250  178.0460  142.7630 C   0  0  0  0  0  3  0  0  0  0  0  0
  189.4540  177.8260  137.1630 O   0  0  0  0  0  0  0  0  0  0  0  0
  190.1730  176.6770  136.7320 C   0  0  0  0  0  1  0  0  0  0  0  0
  183.1720  180.0270  139.0330 C   0  0  0  0  0  2  0  0  0  0  0  0
  181.7210  180.4710  139.0550 C   0  0  0  0  0  2  0  0  0  0  0  0
  180.9290  179.6510  140.0610 C   0  0  0  0  0  2  0  0  0  0  0  0
  179.9960  180.5140  140.8590 C   0  0  0  0  0  0  0  0  0  0  0  0
  179.7970  178.9150  144.1470 O   0  0  0  0  0  0  0  0  0  0  0  0
  179.5240  181.5650  140.3480 O   0  0  0  0  0  0  0  0  0  0  0  0
  179.6250  180.1690  142.1990 N   0  0  0  0  0  2  0  0  0  0  0  0
  180.3540  179.3120  143.0890 C   0  0  0  0  0  0  0  0  0  0  0  0
  181.7920  178.9690  142.8470 C   0  0  0  0  0  2  0  0  0  0  0  0
  182.5640  178.9390  144.1500 C   0  0  0  0  0  1  0  0  0  0  0  0
  1  3  1  6  0  0  0
  1 15  1  0  0  0  0
  2  7  1  0  0  0  0
  4  1  1  0  0  0  0
  4  2  2  0  0  0  0
  5  2  1  0  0  0  0
  5 11  1  0  0  0  0
  7 14  1  1  0  0  0
  7 16  1  0  0  0  0
  8 19  1  0  0  0  0
  9 16  2  0  0  0  0
  9  8  1  0  0  0  0
 10  4  1  0  0  0  0
 11  9  1  0  0  0  0
 12 10  1  0  0  0  0
 12 17  1  0  0  0  0
 13 18  1  0  0  0  0
 13 10  2  0  0  0  0
 15 23  1  6  0  0  0
 15 14  1  0  0  0  0
 16 20  1  0  0  0  0
 17  5  2  0  0  0  0
 18  3  1  0  0  0  0
 19  6  1  0  0  0  0
 20 19  2  0  0  0  0
 21 17  1  0  0  0  0
 22 21  1  0  0  0  0
 23 24  1  0  0  0  0
 24 25  1  0  0  0  0
 25 26  1  0  0  0  0
 26 29  1  0  0  0  0
 28 26  2  0  0  0  0
 29 30  1  0  0  0  0
 30 27  2  0  0  0  0
 31 30  1  0  0  0  0
 31 32  1  0  0  0  0
M  END
>  <MODEL>
7

>  <REMARK>
 VINA RESULT:      -7.2      4.436      8.349
  Name = 
  6 active torsions:
  status: ('A' for Active; 'I' for Inactive)
    1  A    between atoms: C_3  and  C_22
    2  A    between atoms: O_13  and  C_29
    3  A    between atoms: C_15  and  C_26
    4  A    between atoms: C_16  and  C_23
    5  A    between atoms: C_16  and  C_27
    6  A    between atoms: C_22  and  C_23
                            x       y       z     vdW  Elec       q    Type
                         _______ _______ _______ _____ _____    ______ ____

>  <TORSDO>
F 6

$$$$
=
 OpenBabel10262421083D

 32 36  0  0  1  0  0  0  0  0999 V2000
  186.6800  178.9440  141.6940 C   0  0  1  0  0  3  0  0  0  0  0  0
  184.5290  178.1080  140.7150 C   0  0  0  0  0  0  0  0  0  0  0  0
  188.1580  178.5840  141.5320 C   0  0  0  0  0  2  0  0  0  0  0  0
  185.8450  178.3630  140.5720 C   0  0  0  0  0  0  0  0  0  0  0  0
  183.7110  177.6670  139.5330 C   0  0  0  0  0  0  0  0  0  0  0  0
  179.4090  180.4190  143.2180 C   0  0  0  0  0  1  0  0  0  0  0  0
  183.8640  178.1740  142.0860 C   0  0  1  0  0  3  0  0  0  0  0  0
  180.1400  178.8780  140.9810 S   0  0  0  0  0  0  0  0  0  0  0  0
  181.6930  178.2570  140.8470 C   0  0  0  0  0  0  0  0  0  0  0  0
  186.4720  178.1500  139.2550 C   0  0  0  0  0  0  0  0  0  0  0  0
  182.2320  177.4130  139.7350 C   0  0  0  0  0  2  0  0  0  0  0  0
  185.6960  177.6550  138.2060 O   0  0  0  0  0  0  0  0  0  0  0  0
  187.7720  178.3960  139.0640 C   0  0  0  0  0  3  0  0  0  0  0  0
  184.6500  178.9760  143.1340 C   0  0  0  0  0  2  0  0  0  0  0  0
  186.1350  178.6280  143.0910 C   0  0  1  0  0  3  0  0  0  0  0  0
  182.4380  178.6270  141.9520 C   0  0  0  0  0  0  0  0  0  0  0  0
  184.3150  177.4570  138.3310 C   0  0  0  0  0  0  0  0  0  0  0  0
  188.6350  178.9970  140.1410 C   0  0  0  0  0  2  0  0  0  0  0  0
  180.4190  179.6350  142.4600 C   0  0  0  0  0  0  0  0  0  0  0  0
  181.7240  179.4050  142.8770 C   0  0  0  0  0  3  0  0  0  0  0  0
  183.6390  177.0340  137.1720 O   0  0  0  0  0  0  0  0  0  0  0  0
  184.1400  177.1280  135.8450 C   0  0  0  0  0  1  0  0  0  0  0  0
  186.3940  177.1810  143.5120 C   0  0  0  0  0  2  0  0  0  0  0  0
  186.7990  177.1280  144.9740 C   0  0  0  0  0  2  0  0  0  0  0  0
  188.2590  177.5190  145.1360 C   0  0  0  0  0  2  0  0  0  0  0  0
  188.6840  177.4670  146.5740 C   0  0  0  0  0  0  0  0  0  0  0  0
  192.0550  176.0390  146.5190 O   0  0  0  0  0  0  0  0  0  0  0  0
  187.9230  177.9220  147.4690 O   0  0  0  0  0  0  0  0  0  0  0  0
  189.9450  176.9060  146.9580 N   0  0  0  0  0  2  0  0  0  0  0  0
  191.0980  176.7540  146.1180 C   0  0  0  0  0  0  0  0  0  0  0  0
  191.2380  177.5080  144.8320 C   0  0  0  0  0  2  0  0  0  0  0  0
  191.5040  176.5600  143.6800 C   0  0  0  0  0  1  0  0  0  0  0  0
  1  3  1  1  0  0  0
  1 15  1  0  0  0  0
  2  7  1  0  0  0  0
  4  2  2  0  0  0  0
  4  1  1  0  0  0  0
  5 11  1  0  0  0  0
  5  2  1  0  0  0  0
  7 14  1  1  0  0  0
  8 19  1  0  0  0  0
  9  8  1  0  0  0  0
  9 16  2  0  0  0  0
 10  4  1  0  0  0  0
 11  9  1  0  0  0  0
 12 17  1  0  0  0  0
 12 10  1  0  0  0  0
 13 10  2  0  0  0  0
 13 18  1  0  0  0  0
 15 14  1  0  0  0  0
 15 23  1  6  0  0  0
 16  7  1  0  0  0  0
 16 20  1  0  0  0  0
 17  5  2  0  0  0  0
 18  3  1  0  0  0  0
 19 20  2  0  0  0  0
 19  6  1  0  0  0  0
 21 17  1  0  0  0  0
 22 21  1  0  0  0  0
 23 24  1  0  0  0  0
 24 25  1  0  0  0  0
 25 26  1  0  0  0  0
 26 29  1  0  0  0  0
 26 28  2  0  0  0  0
 30 27  2  0  0  0  0
 30 29  1  0  0  0  0
 31 30  1  0  0  0  0
 32 31  1  0  0  0  0
M  END
>  <MODEL>
8

>  <REMARK>
 VINA RESULT:      -7.2      2.797      5.442
  Name = 
  6 active torsions:
  status: ('A' for Active; 'I' for Inactive)
    1  A    between atoms: C_3  and  C_22
    2  A    between atoms: O_13  and  C_29
    3  A    between atoms: C_15  and  C_26
    4  A    between atoms: C_16  and  C_23
    5  A    between atoms: C_16  and  C_27
    6  A    between atoms: C_22  and  C_23
                            x       y       z     vdW  Elec       q    Type
                         _______ _______ _______ _____ _____    ______ ____

>  <TORSDO>
F 6

$$$$
=
 OpenBabel10262421083D

 32 36  0  0  1  0  0  0  0  0999 V2000
  188.6260  176.7020  142.3580 C   0  0  1  0  0  3  0  0  0  0  0  0
  187.2900  177.9520  144.0720 C   0  0  0  0  0  0  0  0  0  0  0  0
  190.1130  176.4190  142.1380 C   0  0  0  0  0  2  0  0  0  0  0  0
  188.3610  177.1940  143.7660 C   0  0  0  0  0  0  0  0  0  0  0  0
  186.9900  178.2970  145.5040 C   0  0  0  0  0  0  0  0  0  0  0  0
  181.3010  178.5720  142.8160 C   0  0  0  0  0  1  0  0  0  0  0  0
  186.4140  178.5480  142.9730 C   0  0  1  0  0  3  0  0  0  0  0  0
  183.0450  178.9940  144.9830 S   0  0  0  0  0  0  0  0  0  0  0  0
  184.7070  178.9200  144.7630 C   0  0  0  0  0  0  0  0  0  0  0  0
  189.2570  176.7580  144.8530 C   0  0  0  0  0  0  0  0  0  0  0  0
  185.7630  179.1330  145.8020 C   0  0  0  0  0  2  0  0  0  0  0  0
  188.9930  177.1740  146.1580 O   0  0  0  0  0  0  0  0  0  0  0  0
  190.3280  176.0000  144.5990 C   0  0  0  0  0  3  0  0  0  0  0  0
  186.5530  177.8580  141.6090 C   0  0  0  0  0  2  0  0  0  0  0  0
  188.0190  177.5960  141.2730 C   0  0  1  0  0  3  0  0  0  0  0  0
  184.9890  178.6420  143.4370 C   0  0  0  0  0  0  0  0  0  0  0  0
  187.8410  177.9010  146.4890 C   0  0  0  0  0  0  0  0  0  0  0  0
  190.6180  175.4670  143.2210 C   0  0  0  0  0  2  0  0  0  0  0  0
  182.6760  178.6600  143.3730 C   0  0  0  0  0  0  0  0  0  0  0  0
  183.8440  178.4980  142.6380 C   0  0  0  0  0  3  0  0  0  0  0  0
  187.6550  178.1830  147.8540 O   0  0  0  0  0  0  0  0  0  0  0  0
  188.6790  178.2000  148.8410 C   0  0  0  0  0  1  0  0  0  0  0  0
  188.7990  178.8960  141.0730 C   0  0  0  0  0  2  0  0  0  0  0  0
  189.2150  179.0370  139.6210 C   0  0  0  0  0  2  0  0  0  0  0  0
  188.8820  177.7710  138.8460 C   0  0  0  0  0  2  0  0  0  0  0  0
  188.3670  178.0880  137.4730 C   0  0  0  0  0  0  0  0  0  0  0  0
  190.6620  176.3880  135.1810 O   0  0  0  0  0  0  0  0  0  0  0  0
  187.3140  178.7670  137.3390 O   0  0  0  0  0  0  0  0  0  0  0  0
  189.0510  177.6350  136.2990 N   0  0  0  0  0  2  0  0  0  0  0  0
  189.9620  176.5290  136.2190 C   0  0  0  0  0  0  0  0  0  0  0  0
  190.0200  175.4810  137.2880 C   0  0  0  0  0  2  0  0  0  0  0  0
  191.4560  175.1100  137.5990 C   0  0  0  0  0  1  0  0  0  0  0  0
  1  3  1  6  0  0  0
  1  4  1  0  0  0  0
  2  5  1  0  0  0  0
  3 18  1  0  0  0  0
  4  2  2  0  0  0  0
  4 10  1  0  0  0  0
  5 11  1  0  0  0  0
  5 17  2  0  0  0  0
  6 19  1  0  0  0  0
  7 14  1  6  0  0  0
  7 16  1  0  0  0  0
  7  2  1  0  0  0  0
  9  8  1  0  0  0  0
  9 11  1  0  0  0  0
 10 12  1  0  0  0  0
 12 17  1  0  0  0  0
 13 10  2  0  0  0  0
 15 23  1  1  0  0  0
 15 14  1  0  0  0  0
 15  1  1  0  0  0  0
 16  9  2  0  0  0  0
 17 21  1  0  0  0  0
 18 13  1  0  0  0  0
 19  8  1  0  0  0  0
 20 19  2  0  0  0  0
 20 16  1  0  0  0  0
 21 22  1  0  0  0  0
 24 23  1  0  0  0  0
 25 24  1  0  0  0  0
 26 25  1  0  0  0  0
 27 30  2  0  0  0  0
 28 26  2  0  0  0  0
 29 26  1  0  0  0  0
 30 29  1  0  0  0  0
 30 31  1  0  0  0  0
 31 32  1  0  0  0  0
M  END
>  <MODEL>
9

>  <REMARK>
 VINA RESULT:      -7.2      3.597      7.505
  Name = 
  6 active torsions:
  status: ('A' for Active; 'I' for Inactive)
    1  A    between atoms: C_3  and  C_22
    2  A    between atoms: O_13  and  C_29
    3  A    between atoms: C_15  and  C_26
    4  A    between atoms: C_16  and  C_23
    5  A    between atoms: C_16  and  C_27
    6  A    between atoms: C_22  and  C_23
                            x       y       z     vdW  Elec       q    Type
                         _______ _______ _______ _____ _____    ______ ____

>  <TORSDO>
F 6

$$$$
