=
 OpenBabel10262421183D

 32 35  0  0  1  0  0  0  0  0999 V2000
  186.1240  177.8180  142.0750 O   0  0  0  0  0  0  0  0  0  0  0  0
  185.3190  178.4460  143.0550 C   0  0  2  0  0  3  0  0  0  0  0  0
  185.9010  178.3670  144.4430 C   0  0  0  0  0  0  0  0  0  0  0  0
  185.1980  178.9440  145.5070 C   0  0  0  0  0  3  0  0  0  0  0  0
  189.5000  177.2090  147.4770 C   0  0  0  0  0  3  0  0  0  0  0  0
  187.1630  177.7960  144.6710 C   0  0  0  0  0  3  0  0  0  0  0  0
  187.5360  178.3590  148.3150 C   0  0  0  0  0  3  0  0  0  0  0  0
  186.9880  178.3620  147.0290 C   0  0  0  0  0  0  0  0  0  0  0  0
  185.7360  178.9380  146.7960 C   0  0  0  0  0  3  0  0  0  0  0  0
  187.7060  177.7850  145.9570 C   0  0  0  0  0  0  0  0  0  0  0  0
  188.7910  177.7830  148.5380 C   0  0  0  0  0  3  0  0  0  0  0  0
  188.9590  177.2110  146.1870 C   0  0  0  0  0  3  0  0  0  0  0  0
  183.0060  179.3180  142.7810 C   0  0  1  0  0  3  0  0  0  0  0  0
  183.8400  178.0650  142.9620 C   0  0  1  0  0  3  0  0  0  0  0  0
  183.3030  178.4270  141.5920 C   0  0  0  0  0  2  0  0  0  0  0  0
  180.7640  180.0920  142.8920 O   0  0  0  0  0  1  0  0  0  0  0  0
  181.6020  179.0490  143.2790 C   0  0  0  0  0  2  0  0  0  0  0  0
  186.5810  178.7940  141.1680 C   0  0  0  0  0  2  0  0  0  0  0  0
  186.7940  178.1970  139.7790 C   0  0  1  0  0  3  0  0  0  0  0  0
  186.0750  178.9190  138.8250 O   0  0  0  0  0  1  0  0  0  0  0  0
  188.2660  178.0850  139.3660 C   0  0  1  0  0  3  0  0  0  0  0  0
  188.6810  179.2290  138.6800 O   0  0  0  0  0  1  0  0  0  0  0  0
  189.1980  177.8280  140.5500 C   0  0  0  0  0  2  0  0  0  0  0  0
  190.6020  177.3710  140.1440 C   0  0  1  0  0  3  0  0  0  0  0  0
  191.5740  177.4070  141.3160 C   0  0  0  0  0  2  0  0  0  0  0  0
  190.8160  177.3290  142.6270 C   0  0  0  0  0  3  0  0  0  0  0  0
  191.7190  177.8060  143.7470 C   0  0  0  0  0  2  0  0  0  0  0  0
  191.4960  176.3270  143.5370 C   0  0  0  0  0  2  0  0  0  0  0  0
  190.5590  176.0390  139.5600 N   0  0  0  0  0  2  0  0  0  0  0  0
  191.5790  174.6290  138.0690 O   0  0  0  0  0  0  0  0  0  0  0  0
  191.1060  176.7120  137.3050 O   0  0  0  0  0  0  0  0  0  0  0  0
  191.1140  175.7630  138.3010 N   0  0  0  0  0  0  0  0  0  0  0  0
  2  1  1  6  0  0  0
  2  3  1  0  0  0  0
  3  6  2  0  0  0  0
  3  4  1  0  0  0  0
  4  9  2  0  0  0  0
  5 11  1  0  0  0  0
  6 10  1  0  0  0  0
  7 11  2  0  0  0  0
  8  7  1  0  0  0  0
  9  8  1  0  0  0  0
 10 12  1  0  0  0  0
 10  8  2  0  0  0  0
 12  5  2  0  0  0  0
 13 14  1  0  0  0  0
 13 17  1  1  0  0  0
 14  2  1  6  0  0  0
 15 13  1  0  0  0  0
 15 14  1  0  0  0  0
 16 17  1  0  0  0  0
 18  1  1  0  0  0  0
 19 20  1  6  0  0  0
 19 18  1  0  0  0  0
 21 22  1  1  0  0  0
 21 19  1  0  0  0  0
 21 23  1  0  0  0  0
 24 23  1  1  0  0  0
 24 25  1  0  0  0  0
 25 26  1  0  0  0  0
 26 28  1  0  0  0  0
 26 27  1  0  0  0  0
 28 27  1  0  0  0  0
 29 24  1  0  0  0  0
 30 32  2  0  0  0  0
 31 32  2  0  0  0  0
 32 29  1  0  0  0  0
M  END
>  <MODEL>
1

>  <REMARK>
 VINA RESULT:      -8.2      0.000      0.000
  Name = 
  13 active torsions:
  status: ('A' for Active; 'I' for Inactive)
    1  A    between atoms: O_1  and  C_5
    2  A    between atoms: O_1  and  C_30
    3  A    between atoms: C_2  and  C_5
    4  A    between atoms: C_3  and  C_8
    5  A    between atoms: C_3  and  C_20
    6  A    between atoms: C_4  and  C_24
    7  A    between atoms: C_4  and  C_30
    8  A    between atoms: C_5  and  C_14
    9  A    between atoms: C_13  and  C_29
   10  A    between atoms: N_15  and  C_20
   11  A    between atoms: N_15  and  N_26
   12  A    between atoms: C_16  and  C_20
   13  A    between atoms: C_16  and  C_24
                            x       y       z     vdW  Elec       q    Type
                         _______ _______ _______ _____ _____    ______ ____

>  <TORSDO>
F 13

$$$$
=
 OpenBabel10262421183D

 32 35  0  0  1  0  0  0  0  0999 V2000
  189.2300  178.2730  141.8200 O   0  0  0  0  0  0  0  0  0  0  0  0
  188.2190  178.5390  140.8670 C   0  0  2  0  0  3  0  0  0  0  0  0
  186.8350  178.5790  141.4620 C   0  0  0  0  0  0  0  0  0  0  0  0
  185.7340  178.7250  140.6110 C   0  0  0  0  0  3  0  0  0  0  0  0
  183.8640  178.7100  145.2910 C   0  0  0  0  0  3  0  0  0  0  0  0
  186.6400  178.5490  142.8530 C   0  0  0  0  0  3  0  0  0  0  0  0
  182.9550  178.8870  143.0490 C   0  0  0  0  0  3  0  0  0  0  0  0
  184.2440  178.7830  142.5180 C   0  0  0  0  0  0  0  0  0  0  0  0
  184.4420  178.8220  141.1350 C   0  0  0  0  0  3  0  0  0  0  0  0
  185.3520  178.6440  143.3830 C   0  0  0  0  0  0  0  0  0  0  0  0
  182.7660  178.8510  144.4350 C   0  0  0  0  0  3  0  0  0  0  0  0
  185.1570  178.6080  144.7660 C   0  0  0  0  0  3  0  0  0  0  0  0
  188.5640  178.6010  138.4050 C   0  0  1  0  0  3  0  0  0  0  0  0
  188.3420  177.6930  139.5980 C   0  0  1  0  0  3  0  0  0  0  0  0
  189.7300  177.8480  139.0110 C   0  0  0  0  0  2  0  0  0  0  0  0
  189.0740  177.9910  136.1670 O   0  0  0  0  0  1  0  0  0  0  0  0
  188.0950  177.8890  137.1530 C   0  0  0  0  0  2  0  0  0  0  0  0
  189.2410  176.8940  142.1020 C   0  0  0  0  0  2  0  0  0  0  0  0
  190.6530  176.4090  142.4210 C   0  0  1  0  0  3  0  0  0  0  0  0
  191.6000  177.2970  141.9100 O   0  0  0  0  0  1  0  0  0  0  0  0
  190.9050  176.1600  143.9120 C   0  0  1  0  0  3  0  0  0  0  0  0
  191.9980  175.3110  144.1000 O   0  0  0  0  0  1  0  0  0  0  0  0
  191.1140  177.4510  144.7040 C   0  0  0  0  0  2  0  0  0  0  0  0
  190.4460  177.4480  146.0820 C   0  0  1  0  0  3  0  0  0  0  0  0
  188.9280  177.4960  145.9790 C   0  0  0  0  0  2  0  0  0  0  0  0
  188.3000  177.1490  147.3160 C   0  0  0  0  0  3  0  0  0  0  0  0
  187.2540  178.1910  147.6540 C   0  0  0  0  0  2  0  0  0  0  0  0
  188.6120  178.2460  148.3130 C   0  0  0  0  0  2  0  0  0  0  0  0
  190.8670  176.2860  146.8530 N   0  0  0  0  0  2  0  0  0  0  0  0
  192.2610  177.1700  148.4430 O   0  0  0  0  0  0  0  0  0  0  0  0
  192.9850  175.2770  147.4250 O   0  0  0  0  0  0  0  0  0  0  0  0
  192.0590  176.2800  147.5930 N   0  0  0  0  0  0  0  0  0  0  0  0
  1 18  1  0  0  0  0
  2  3  1  0  0  0  0
  2  1  1  1  0  0  0
  3  6  1  0  0  0  0
  4  9  1  0  0  0  0
  4  3  2  0  0  0  0
  6 10  2  0  0  0  0
  7 11  2  0  0  0  0
  8  7  1  0  0  0  0
  8 10  1  0  0  0  0
  9  8  2  0  0  0  0
 10 12  1  0  0  0  0
 11  5  1  0  0  0  0
 12  5  2  0  0  0  0
 13 17  1  6  0  0  0
 13 15  1  0  0  0  0
 13 14  1  0  0  0  0
 14  2  1  1  0  0  0
 15 14  1  0  0  0  0
 16 17  1  0  0  0  0
 18 19  1  0  0  0  0
 19 20  1  1  0  0  0
 19 21  1  0  0  0  0
 21 22  1  6  0  0  0
 21 23  1  0  0  0  0
 24 23  1  6  0  0  0
 24 29  1  0  0  0  0
 25 24  1  0  0  0  0
 25 26  1  0  0  0  0
 26 27  1  0  0  0  0
 26 28  1  0  0  0  0
 27 28  1  0  0  0  0
 29 32  1  0  0  0  0
 31 32  2  0  0  0  0
 32 30  2  0  0  0  0
M  END
>  <MODEL>
2

>  <REMARK>
 VINA RESULT:      -8.1      3.485      6.472
  Name = 
  13 active torsions:
  status: ('A' for Active; 'I' for Inactive)
    1  A    between atoms: O_1  and  C_5
    2  A    between atoms: O_1  and  C_30
    3  A    between atoms: C_2  and  C_5
    4  A    between atoms: C_3  and  C_8
    5  A    between atoms: C_3  and  C_20
    6  A    between atoms: C_4  and  C_24
    7  A    between atoms: C_4  and  C_30
    8  A    between atoms: C_5  and  C_14
    9  A    between atoms: C_13  and  C_29
   10  A    between atoms: N_15  and  C_20
   11  A    between atoms: N_15  and  N_26
   12  A    between atoms: C_16  and  C_20
   13  A    between atoms: C_16  and  C_24
                            x       y       z     vdW  Elec       q    Type
                         _______ _______ _______ _____ _____    ______ ____

>  <TORSDO>
F 13

$$$$
=
 OpenBabel10262421183D

 32 35  0  0  1  0  0  0  0  0999 V2000
  187.9190  178.8600  141.3410 O   0  0  0  0  0  0  0  0  0  0  0  0
  188.7450  177.7110  141.3170 C   0  0  2  0  0  3  0  0  0  0  0  0
  189.4950  177.4890  142.6050 C   0  0  0  0  0  0  0  0  0  0  0  0
  190.8650  177.2080  142.5530 C   0  0  0  0  0  3  0  0  0  0  0  0
  189.5900  176.9500  147.4220 C   0  0  0  0  0  3  0  0  0  0  0  0
  188.8310  177.4840  143.8420 C   0  0  0  0  0  3  0  0  0  0  0  0
  191.6260  176.6720  146.1340 C   0  0  0  0  0  3  0  0  0  0  0  0
  190.9210  176.9450  144.9590 C   0  0  0  0  0  0  0  0  0  0  0  0
  191.5780  176.9410  143.7250 C   0  0  0  0  0  3  0  0  0  0  0  0
  189.5360  177.2200  145.0170 C   0  0  0  0  0  0  0  0  0  0  0  0
  190.9600  176.6740  147.3640 C   0  0  0  0  0  3  0  0  0  0  0  0
  188.8770  177.2210  146.2490 C   0  0  0  0  0  3  0  0  0  0  0  0
  188.7700  177.0340  138.9240 C   0  0  1  0  0  3  0  0  0  0  0  0
  189.6030  177.6050  140.0540 C   0  0  1  0  0  3  0  0  0  0  0  0
  189.0510  178.5210  138.9810 C   0  0  0  0  0  2  0  0  0  0  0  0
  189.0150  175.3560  137.2600 O   0  0  0  0  0  1  0  0  0  0  0  0
  189.6940  176.3810  137.9160 C   0  0  0  0  0  2  0  0  0  0  0  0
  186.6410  178.4920  141.8020 C   0  0  0  0  0  2  0  0  0  0  0  0
  185.5450  179.1470  140.9640 C   0  0  1  0  0  3  0  0  0  0  0  0
  185.6690  178.7740  139.6250 O   0  0  0  0  0  1  0  0  0  0  0  0
  184.1240  178.8680  141.4670 C   0  0  1  0  0  3  0  0  0  0  0  0
  183.3890  178.1570  140.5160 O   0  0  0  0  0  1  0  0  0  0  0  0
  184.1010  178.1200  142.8000 C   0  0  0  0  0  2  0  0  0  0  0  0
  183.0330  178.6250  143.7740 C   0  0  1  0  0  3  0  0  0  0  0  0
  183.6380  179.0970  145.0890 C   0  0  0  0  0  2  0  0  0  0  0  0
  184.9130  178.3310  145.3830 C   0  0  0  0  0  3  0  0  0  0  0  0
  185.1310  178.2960  146.8820 C   0  0  0  0  0  2  0  0  0  0  0  0
  185.9170  179.2640  146.0290 C   0  0  0  0  0  2  0  0  0  0  0  0
  182.2450  179.6880  143.1660 N   0  0  0  0  0  2  0  0  0  0  0  0
  180.3440  178.4270  142.9590 O   0  0  0  0  0  0  0  0  0  0  0  0
  180.0720  180.6720  142.7890 O   0  0  0  0  0  0  0  0  0  0  0  0
  180.8640  179.5600  142.9540 N   0  0  0  0  0  0  0  0  0  0  0  0
  1 18  1  0  0  0  0
  2  1  1  1  0  0  0
  2  3  1  0  0  0  0
  3  6  1  0  0  0  0
  4  3  2  0  0  0  0
  4  9  1  0  0  0  0
  6 10  2  0  0  0  0
  7 11  2  0  0  0  0
  8 10  1  0  0  0  0
  8  7  1  0  0  0  0
  9  8  2  0  0  0  0
 10 12  1  0  0  0  0
 11  5  1  0  0  0  0
 12  5  2  0  0  0  0
 13 17  1  6  0  0  0
 13 15  1  0  0  0  0
 13 14  1  0  0  0  0
 14  2  1  1  0  0  0
 15 14  1  0  0  0  0
 16 17  1  0  0  0  0
 19 20  1  6  0  0  0
 19 21  1  0  0  0  0
 19 18  1  0  0  0  0
 21 22  1  6  0  0  0
 21 23  1  0  0  0  0
 24 23  1  6  0  0  0
 24 25  1  0  0  0  0
 25 26  1  0  0  0  0
 26 28  1  0  0  0  0
 26 27  1  0  0  0  0
 28 27  1  0  0  0  0
 29 24  1  0  0  0  0
 31 32  2  0  0  0  0
 32 30  2  0  0  0  0
 32 29  1  0  0  0  0
M  END
>  <MODEL>
3

>  <REMARK>
 VINA RESULT:      -8.0      2.954      6.855
  Name = 
  13 active torsions:
  status: ('A' for Active; 'I' for Inactive)
    1  A    between atoms: O_1  and  C_5
    2  A    between atoms: O_1  and  C_30
    3  A    between atoms: C_2  and  C_5
    4  A    between atoms: C_3  and  C_8
    5  A    between atoms: C_3  and  C_20
    6  A    between atoms: C_4  and  C_24
    7  A    between atoms: C_4  and  C_30
    8  A    between atoms: C_5  and  C_14
    9  A    between atoms: C_13  and  C_29
   10  A    between atoms: N_15  and  C_20
   11  A    between atoms: N_15  and  N_26
   12  A    between atoms: C_16  and  C_20
   13  A    between atoms: C_16  and  C_24
                            x       y       z     vdW  Elec       q    Type
                         _______ _______ _______ _____ _____    ______ ____

>  <TORSDO>
F 13

$$$$
=
 OpenBabel10262421183D

 32 35  0  0  1  0  0  0  0  0999 V2000
  189.7460  177.8230  142.8850 O   0  0  0  0  0  0  0  0  0  0  0  0
  189.2500  177.3850  144.1360 C   0  0  2  0  0  3  0  0  0  0  0  0
  187.8230  177.7960  144.3880 C   0  0  0  0  0  0  0  0  0  0  0  0
  187.3920  177.9810  145.7070 C   0  0  0  0  0  3  0  0  0  0  0  0
  183.3270  178.7070  142.8180 C   0  0  0  0  0  3  0  0  0  0  0  0
  186.9040  177.9240  143.3330 C   0  0  0  0  0  3  0  0  0  0  0  0
  183.8120  178.7630  145.1940 C   0  0  0  0  0  3  0  0  0  0  0  0
  185.1470  178.4430  144.9300 C   0  0  0  0  0  0  0  0  0  0  0  0
  186.0610  178.3070  145.9780 C   0  0  0  0  0  3  0  0  0  0  0  0
  185.5740  178.2510  143.5960 C   0  0  0  0  0  0  0  0  0  0  0  0
  182.9030  178.8940  144.1390 C   0  0  0  0  0  3  0  0  0  0  0  0
  184.6610  178.3840  142.5470 C   0  0  0  0  0  3  0  0  0  0  0  0
  191.2010  176.5190  145.4120 C   0  0  1  0  0  3  0  0  0  0  0  0
  190.2070  177.6580  145.2990 C   0  0  1  0  0  3  0  0  0  0  0  0
  191.6170  177.8290  144.7730 C   0  0  0  0  0  2  0  0  0  0  0  0
  192.5220  175.3330  146.9900 O   0  0  0  0  0  1  0  0  0  0  0  0
  191.7200  176.4620  146.8340 C   0  0  0  0  0  2  0  0  0  0  0  0
  189.8710  176.7110  142.0300 C   0  0  0  0  0  2  0  0  0  0  0  0
  189.9180  177.1450  140.5670 C   0  0  1  0  0  3  0  0  0  0  0  0
  190.4350  176.1220  139.7720 O   0  0  0  0  0  1  0  0  0  0  0  0
  188.5690  177.6190  140.0140 C   0  0  1  0  0  3  0  0  0  0  0  0
  188.4300  179.0020  140.1530 O   0  0  0  0  0  1  0  0  0  0  0  0
  188.3520  177.2240  138.5540 C   0  0  0  0  0  2  0  0  0  0  0  0
  188.4030  178.4050  137.5790 C   0  0  1  0  0  3  0  0  0  0  0  0
  189.3240  178.1290  136.3990 C   0  0  0  0  0  2  0  0  0  0  0  0
  189.5420  176.6370  136.2410 C   0  0  0  0  0  3  0  0  0  0  0  0
  190.4010  176.3910  135.0170 C   0  0  0  0  0  2  0  0  0  0  0  0
  188.9070  176.1740  134.9460 C   0  0  0  0  0  2  0  0  0  0  0  0
  187.0660  178.7440  137.1130 N   0  0  0  0  0  2  0  0  0  0  0  0
  185.3580  177.2390  137.3770 O   0  0  0  0  0  0  0  0  0  0  0  0
  185.4170  178.9490  138.8660 O   0  0  0  0  0  0  0  0  0  0  0  0
  185.9130  178.2850  137.7680 N   0  0  0  0  0  0  0  0  0  0  0  0
  2  1  1  6  0  0  0
  2  3  1  0  0  0  0
  3  4  1  0  0  0  0
  4  9  2  0  0  0  0
  5 11  1  0  0  0  0
  6 10  1  0  0  0  0
  6  3  2  0  0  0  0
  8  7  1  0  0  0  0
  8  9  1  0  0  0  0
 10  8  2  0  0  0  0
 11  7  2  0  0  0  0
 12  5  2  0  0  0  0
 12 10  1  0  0  0  0
 13 17  1  1  0  0  0
 14  2  1  6  0  0  0
 14 13  1  0  0  0  0
 15 14  1  0  0  0  0
 15 13  1  0  0  0  0
 17 16  1  0  0  0  0
 18  1  1  0  0  0  0
 19 20  1  6  0  0  0
 19 18  1  0  0  0  0
 21 22  1  6  0  0  0
 21 19  1  0  0  0  0
 23 21  1  0  0  0  0
 24 25  1  6  0  0  0
 24 23  1  0  0  0  0
 26 25  1  0  0  0  0
 27 26  1  0  0  0  0
 28 27  1  0  0  0  0
 28 26  1  0  0  0  0
 29 24  1  0  0  0  0
 29 32  1  0  0  0  0
 30 32  2  0  0  0  0
 32 31  2  0  0  0  0
M  END
>  <MODEL>
4

>  <REMARK>
 VINA RESULT:      -7.9      2.870      6.117
  Name = 
  13 active torsions:
  status: ('A' for Active; 'I' for Inactive)
    1  A    between atoms: O_1  and  C_5
    2  A    between atoms: O_1  and  C_30
    3  A    between atoms: C_2  and  C_5
    4  A    between atoms: C_3  and  C_8
    5  A    between atoms: C_3  and  C_20
    6  A    between atoms: C_4  and  C_24
    7  A    between atoms: C_4  and  C_30
    8  A    between atoms: C_5  and  C_14
    9  A    between atoms: C_13  and  C_29
   10  A    between atoms: N_15  and  C_20
   11  A    between atoms: N_15  and  N_26
   12  A    between atoms: C_16  and  C_20
   13  A    between atoms: C_16  and  C_24
                            x       y       z     vdW  Elec       q    Type
                         _______ _______ _______ _____ _____    ______ ____

>  <TORSDO>
F 13

$$$$
=
 OpenBabel10262421183D

 32 35  0  0  1  0  0  0  0  0999 V2000
  189.1370  176.9250  143.6300 O   0  0  0  0  0  0  0  0  0  0  0  0
  188.4460  177.1020  144.8520 C   0  0  2  0  0  3  0  0  0  0  0  0
  187.0580  177.6640  144.6760 C   0  0  0  0  0  0  0  0  0  0  0  0
  186.3630  178.1210  145.8010 C   0  0  0  0  0  3  0  0  0  0  0  0
  183.1840  178.6190  141.9230 C   0  0  0  0  0  3  0  0  0  0  0  0
  186.4280  177.6660  143.4210 C   0  0  0  0  0  3  0  0  0  0  0  0
  183.1160  179.0730  144.3040 C   0  0  0  0  0  3  0  0  0  0  0  0
  184.4280  178.6070  144.4310 C   0  0  0  0  0  0  0  0  0  0  0  0
  185.0550  178.5950  145.6800 C   0  0  0  0  0  3  0  0  0  0  0  0
  185.1220  178.1400  143.2920 C   0  0  0  0  0  0  0  0  0  0  0  0
  182.4950  179.0780  143.0510 C   0  0  0  0  0  3  0  0  0  0  0  0
  184.4960  178.1480  142.0430 C   0  0  0  0  0  3  0  0  0  0  0  0
  189.0790  177.0950  147.2570 C   0  0  1  0  0  3  0  0  0  0  0  0
  189.2820  177.7970  145.9290 C   0  0  1  0  0  3  0  0  0  0  0  0
  190.3380  176.8440  146.4520 C   0  0  0  0  0  2  0  0  0  0  0  0
  188.2470  178.2190  149.1770 O   0  0  0  0  0  1  0  0  0  0  0  0
  189.3790  178.0690  148.3770 C   0  0  0  0  0  2  0  0  0  0  0  0
  189.9690  178.0390  143.4120 C   0  0  0  0  0  2  0  0  0  0  0  0
  191.2930  177.6210  142.7770 C   0  0  1  0  0  3  0  0  0  0  0  0
  191.6560  176.3440  143.2070 O   0  0  0  0  0  1  0  0  0  0  0  0
  191.3000  177.6900  141.2460 C   0  0  1  0  0  3  0  0  0  0  0  0
  192.6030  177.6190  140.7480 O   0  0  0  0  0  1  0  0  0  0  0  0
  190.4410  176.6050  140.5960 C   0  0  0  0  0  2  0  0  0  0  0  0
  190.0490  176.9110  139.1470 C   0  0  1  0  0  3  0  0  0  0  0  0
  190.6420  175.9030  138.1720 C   0  0  0  0  0  2  0  0  0  0  0  0
  191.9270  176.4440  137.5770 C   0  0  0  0  0  3  0  0  0  0  0  0
  192.3280  175.5770  136.4010 C   0  0  0  0  0  2  0  0  0  0  0  0
  193.0230  175.4090  137.7320 C   0  0  0  0  0  2  0  0  0  0  0  0
  188.6010  176.9620  139.0080 N   0  0  0  0  0  2  0  0  0  0  0  0
  187.2100  178.6160  138.2460 O   0  0  0  0  0  0  0  0  0  0  0  0
  187.8660  178.7860  140.4110 O   0  0  0  0  0  0  0  0  0  0  0  0
  187.8800  178.1520  139.1900 N   0  0  0  0  0  0  0  0  0  0  0  0
  2  1  1  6  0  0  0
  3  2  1  0  0  0  0
  3  4  1  0  0  0  0
  5 12  2  0  0  0  0
  5 11  1  0  0  0  0
  6  3  2  0  0  0  0
  7  8  1  0  0  0  0
  8  9  1  0  0  0  0
  9  4  2  0  0  0  0
 10  6  1  0  0  0  0
 10  8  2  0  0  0  0
 11  7  2  0  0  0  0
 12 10  1  0  0  0  0
 13 17  1  1  0  0  0
 14  2  1  6  0  0  0
 14 15  1  0  0  0  0
 14 13  1  0  0  0  0
 15 13  1  0  0  0  0
 17 16  1  0  0  0  0
 18  1  1  0  0  0  0
 19 20  1  6  0  0  0
 19 18  1  0  0  0  0
 21 22  1  6  0  0  0
 21 19  1  0  0  0  0
 23 21  1  0  0  0  0
 24 25  1  6  0  0  0
 24 23  1  0  0  0  0
 26 28  1  0  0  0  0
 26 25  1  0  0  0  0
 27 26  1  0  0  0  0
 27 28  1  0  0  0  0
 29 24  1  0  0  0  0
 29 32  1  0  0  0  0
 30 32  2  0  0  0  0
 32 31  2  0  0  0  0
M  END
>  <MODEL>
5

>  <REMARK>
 VINA RESULT:      -7.9      2.531      5.602
  Name = 
  13 active torsions:
  status: ('A' for Active; 'I' for Inactive)
    1  A    between atoms: O_1  and  C_5
    2  A    between atoms: O_1  and  C_30
    3  A    between atoms: C_2  and  C_5
    4  A    between atoms: C_3  and  C_8
    5  A    between atoms: C_3  and  C_20
    6  A    between atoms: C_4  and  C_24
    7  A    between atoms: C_4  and  C_30
    8  A    between atoms: C_5  and  C_14
    9  A    between atoms: C_13  and  C_29
   10  A    between atoms: N_15  and  C_20
   11  A    between atoms: N_15  and  N_26
   12  A    between atoms: C_16  and  C_20
   13  A    between atoms: C_16  and  C_24
                            x       y       z     vdW  Elec       q    Type
                         _______ _______ _______ _____ _____    ______ ____

>  <TORSDO>
F 13

$$$$
=
 OpenBabel10262421183D

 32 35  0  0  1  0  0  0  0  0999 V2000
  189.7490  177.6700  143.0700 O   0  0  0  0  0  0  0  0  0  0  0  0
  189.2370  177.3110  144.3400 C   0  0  2  0  0  3  0  0  0  0  0  0
  187.8120  177.7510  144.5530 C   0  0  0  0  0  0  0  0  0  0  0  0
  187.3540  177.9580  145.8600 C   0  0  0  0  0  3  0  0  0  0  0  0
  183.3720  178.7230  142.8660 C   0  0  0  0  0  3  0  0  0  0  0  0
  186.9220  177.8820  143.4750 C   0  0  0  0  0  3  0  0  0  0  0  0
  183.8010  178.7980  145.2520 C   0  0  0  0  0  3  0  0  0  0  0  0
  185.1360  178.4510  145.0230 C   0  0  0  0  0  0  0  0  0  0  0  0
  186.0220  178.3110  146.0950 C   0  0  0  0  0  3  0  0  0  0  0  0
  185.5910  178.2360  143.7030 C   0  0  0  0  0  0  0  0  0  0  0  0
  182.9210  178.9320  144.1730 C   0  0  0  0  0  3  0  0  0  0  0  0
  184.7060  178.3740  142.6300 C   0  0  0  0  0  3  0  0  0  0  0  0
  191.0510  176.4370  145.7990 C   0  0  1  0  0  3  0  0  0  0  0  0
  190.1860  177.6430  145.4940 C   0  0  1  0  0  3  0  0  0  0  0  0
  191.6200  177.5970  145.0080 C   0  0  0  0  0  2  0  0  0  0  0  0
  192.5750  175.6310  147.4330 O   0  0  0  0  0  1  0  0  0  0  0  0
  191.5220  176.5230  147.2360 C   0  0  0  0  0  2  0  0  0  0  0  0
  189.9320  176.5010  142.3070 C   0  0  0  0  0  2  0  0  0  0  0  0
  189.9260  176.8140  140.8120 C   0  0  1  0  0  3  0  0  0  0  0  0
  188.8460  177.6370  140.4920 O   0  0  0  0  0  1  0  0  0  0  0  0
  191.2340  177.4280  140.2980 C   0  0  1  0  0  3  0  0  0  0  0  0
  192.1970  177.4700  141.3090 O   0  0  0  0  0  1  0  0  0  0  0  0
  191.7970  176.6950  139.0810 C   0  0  0  0  0  2  0  0  0  0  0  0
  190.7420  175.9330  138.2740 C   0  0  1  0  0  3  0  0  0  0  0  0
  190.3560  176.6710  137.0000 C   0  0  0  0  0  2  0  0  0  0  0  0
  188.9210  177.1550  137.0890 C   0  0  0  0  0  3  0  0  0  0  0  0
  188.5470  177.8310  135.7860 C   0  0  0  0  0  2  0  0  0  0  0  0
  188.8970  178.6660  136.9950 C   0  0  0  0  0  2  0  0  0  0  0  0
  191.2070  174.5890  137.9610 N   0  0  0  0  0  2  0  0  0  0  0  0
  191.2190  173.2930  136.0720 O   0  0  0  0  0  0  0  0  0  0  0  0
  189.2230  173.4880  137.1320 O   0  0  0  0  0  0  0  0  0  0  0  0
  190.5610  173.7830  137.0120 N   0  0  0  0  0  0  0  0  0  0  0  0
  2  1  1  6  0  0  0
  2  3  1  0  0  0  0
  3  4  1  0  0  0  0
  4  9  2  0  0  0  0
  5 11  1  0  0  0  0
  6 10  1  0  0  0  0
  6  3  2  0  0  0  0
  8  7  1  0  0  0  0
  8  9  1  0  0  0  0
 10  8  2  0  0  0  0
 11  7  2  0  0  0  0
 12  5  2  0  0  0  0
 12 10  1  0  0  0  0
 13 17  1  1  0  0  0
 14  2  1  6  0  0  0
 14 13  1  0  0  0  0
 15 14  1  0  0  0  0
 15 13  1  0  0  0  0
 17 16  1  0  0  0  0
 18  1  1  0  0  0  0
 19 20  1  1  0  0  0
 19 18  1  0  0  0  0
 21 19  1  0  0  0  0
 21 22  1  1  0  0  0
 23 21  1  0  0  0  0
 24 25  1  6  0  0  0
 24 23  1  0  0  0  0
 25 26  1  0  0  0  0
 27 28  1  0  0  0  0
 27 26  1  0  0  0  0
 28 26  1  0  0  0  0
 29 24  1  0  0  0  0
 30 32  2  0  0  0  0
 32 31  2  0  0  0  0
 32 29  1  0  0  0  0
M  END
>  <MODEL>
6

>  <REMARK>
 VINA RESULT:      -7.8      2.551      5.727
  Name = 
  13 active torsions:
  status: ('A' for Active; 'I' for Inactive)
    1  A    between atoms: O_1  and  C_5
    2  A    between atoms: O_1  and  C_30
    3  A    between atoms: C_2  and  C_5
    4  A    between atoms: C_3  and  C_8
    5  A    between atoms: C_3  and  C_20
    6  A    between atoms: C_4  and  C_24
    7  A    between atoms: C_4  and  C_30
    8  A    between atoms: C_5  and  C_14
    9  A    between atoms: C_13  and  C_29
   10  A    between atoms: N_15  and  C_20
   11  A    between atoms: N_15  and  N_26
   12  A    between atoms: C_16  and  C_20
   13  A    between atoms: C_16  and  C_24
                            x       y       z     vdW  Elec       q    Type
                         _______ _______ _______ _____ _____    ______ ____

>  <TORSDO>
F 13

$$$$
=
 OpenBabel10262421183D

 32 35  0  0  1  0  0  0  0  0999 V2000
  188.9590  176.8430  143.8270 O   0  0  0  0  0  0  0  0  0  0  0  0
  188.2620  177.0850  145.0350 C   0  0  2  0  0  3  0  0  0  0  0  0
  186.8880  177.6660  144.8240 C   0  0  0  0  0  0  0  0  0  0  0  0
  186.1800  178.1540  145.9290 C   0  0  0  0  0  3  0  0  0  0  0  0
  183.0820  178.6390  141.9840 C   0  0  0  0  0  3  0  0  0  0  0  0
  186.2810  177.6580  143.5580 C   0  0  0  0  0  3  0  0  0  0  0  0
  182.9780  179.1340  144.3560 C   0  0  0  0  0  3  0  0  0  0  0  0
  184.2790  178.6480  144.5150 C   0  0  0  0  0  0  0  0  0  0  0  0
  184.8820  178.6470  145.7760 C   0  0  0  0  0  3  0  0  0  0  0  0
  184.9850  178.1510  143.3970 C   0  0  0  0  0  0  0  0  0  0  0  0
  182.3800  179.1280  143.0920 C   0  0  0  0  0  3  0  0  0  0  0  0
  184.3830  178.1490  142.1370 C   0  0  0  0  0  3  0  0  0  0  0  0
  189.0080  177.0670  147.4080 C   0  0  1  0  0  3  0  0  0  0  0  0
  189.1050  177.8080  146.0890 C   0  0  1  0  0  3  0  0  0  0  0  0
  190.2400  176.9120  146.5400 C   0  0  0  0  0  2  0  0  0  0  0  0
  188.1450  178.2280  149.2920 O   0  0  0  0  0  1  0  0  0  0  0  0
  189.3000  178.0340  148.5360 C   0  0  0  0  0  2  0  0  0  0  0  0
  189.7030  177.9910  143.4920 C   0  0  0  0  0  2  0  0  0  0  0  0
  190.6520  177.7110  142.3300 C   0  0  1  0  0  3  0  0  0  0  0  0
  191.6230  176.7840  142.7080 O   0  0  0  0  0  1  0  0  0  0  0  0
  189.9490  177.2540  141.0470 C   0  0  1  0  0  3  0  0  0  0  0  0
  188.8980  178.1130  140.7190 O   0  0  0  0  0  1  0  0  0  0  0  0
  190.9010  177.1290  139.8580 C   0  0  0  0  0  2  0  0  0  0  0  0
  190.3450  176.2870  138.7050 C   0  0  1  0  0  3  0  0  0  0  0  0
  190.1000  177.1230  137.4560 C   0  0  0  0  0  2  0  0  0  0  0  0
  188.6320  177.4840  137.3470 C   0  0  0  0  0  3  0  0  0  0  0  0
  188.3410  177.9410  135.9320 C   0  0  0  0  0  2  0  0  0  0  0  0
  188.5030  178.9610  137.0350 C   0  0  0  0  0  2  0  0  0  0  0  0
  191.2360  175.1750  138.4060 N   0  0  0  0  0  2  0  0  0  0  0  0
  190.1230  173.4720  137.3510 O   0  0  0  0  0  0  0  0  0  0  0  0
  191.7700  174.4740  136.1570 O   0  0  0  0  0  0  0  0  0  0  0  0
  191.0250  174.3310  137.3040 N   0  0  0  0  0  0  0  0  0  0  0  0
  2  1  1  6  0  0  0
  3  2  1  0  0  0  0
  3  4  1  0  0  0  0
  5 12  2  0  0  0  0
  5 11  1  0  0  0  0
  6  3  2  0  0  0  0
  7  8  1  0  0  0  0
  8  9  1  0  0  0  0
  9  4  2  0  0  0  0
 10  6  1  0  0  0  0
 10  8  2  0  0  0  0
 11  7  2  0  0  0  0
 12 10  1  0  0  0  0
 13 17  1  1  0  0  0
 14  2  1  6  0  0  0
 14 15  1  0  0  0  0
 14 13  1  0  0  0  0
 15 13  1  0  0  0  0
 17 16  1  0  0  0  0
 18  1  1  0  0  0  0
 19 20  1  1  0  0  0
 19 18  1  0  0  0  0
 21 22  1  6  0  0  0
 21 19  1  0  0  0  0
 23 21  1  0  0  0  0
 24 25  1  6  0  0  0
 24 23  1  0  0  0  0
 26 25  1  0  0  0  0
 27 28  1  0  0  0  0
 27 26  1  0  0  0  0
 28 26  1  0  0  0  0
 29 24  1  0  0  0  0
 31 32  2  0  0  0  0
 32 30  2  0  0  0  0
 32 29  1  0  0  0  0
M  END
>  <MODEL>
7

>  <REMARK>
 VINA RESULT:      -7.7      2.255      5.444
  Name = 
  13 active torsions:
  status: ('A' for Active; 'I' for Inactive)
    1  A    between atoms: O_1  and  C_5
    2  A    between atoms: O_1  and  C_30
    3  A    between atoms: C_2  and  C_5
    4  A    between atoms: C_3  and  C_8
    5  A    between atoms: C_3  and  C_20
    6  A    between atoms: C_4  and  C_24
    7  A    between atoms: C_4  and  C_30
    8  A    between atoms: C_5  and  C_14
    9  A    between atoms: C_13  and  C_29
   10  A    between atoms: N_15  and  C_20
   11  A    between atoms: N_15  and  N_26
   12  A    between atoms: C_16  and  C_20
   13  A    between atoms: C_16  and  C_24
                            x       y       z     vdW  Elec       q    Type
                         _______ _______ _______ _____ _____    ______ ____

>  <TORSDO>
F 13

$$$$
=
 OpenBabel10262421183D

 32 35  0  0  1  0  0  0  0  0999 V2000
  189.4830  178.0490  142.4290 O   0  0  0  0  0  0  0  0  0  0  0  0
  189.1300  177.5480  143.7040 C   0  0  2  0  0  3  0  0  0  0  0  0
  187.7260  177.9050  144.1170 C   0  0  0  0  0  0  0  0  0  0  0  0
  187.4220  177.9990  145.4800 C   0  0  0  0  0  3  0  0  0  0  0  0
  183.0800  178.7820  143.0440 C   0  0  0  0  0  3  0  0  0  0  0  0
  186.7070  178.0680  143.1650 C   0  0  0  0  0  3  0  0  0  0  0  0
  183.7930  178.7120  145.3610 C   0  0  0  0  0  3  0  0  0  0  0  0
  185.1020  178.4450  144.9510 C   0  0  0  0  0  0  0  0  0  0  0  0
  186.1170  178.2730  145.8970 C   0  0  0  0  0  3  0  0  0  0  0  0
  185.4010  178.3430  143.5740 C   0  0  0  0  0  0  0  0  0  0  0  0
  182.7830  178.8790  144.4080 C   0  0  0  0  0  3  0  0  0  0  0  0
  184.3880  178.5130  142.6270 C   0  0  0  0  0  3  0  0  0  0  0  0
  190.9850  176.5350  145.0160 C   0  0  1  0  0  3  0  0  0  0  0  0
  190.1940  177.8050  144.7750 C   0  0  1  0  0  3  0  0  0  0  0  0
  191.5750  177.6480  144.1740 C   0  0  0  0  0  2  0  0  0  0  0  0
  192.3290  175.4320  146.6350 O   0  0  0  0  0  1  0  0  0  0  0  0
  191.5780  176.5850  146.4090 C   0  0  0  0  0  2  0  0  0  0  0  0
  189.2750  177.0400  141.4700 C   0  0  0  0  0  2  0  0  0  0  0  0
  190.2610  177.1720  140.3110 C   0  0  1  0  0  3  0  0  0  0  0  0
  191.0300  176.0140  140.1920 O   0  0  0  0  0  1  0  0  0  0  0  0
  189.6030  177.5150  138.9690 C   0  0  1  0  0  3  0  0  0  0  0  0
  189.1340  176.3640  138.3330 O   0  0  0  0  0  1  0  0  0  0  0  0
  188.4660  178.5280  139.1050 C   0  0  0  0  0  2  0  0  0  0  0  0
  187.1690  178.0980  138.4140 C   0  0  1  0  0  3  0  0  0  0  0  0
  185.9480  178.3480  139.2880 C   0  0  0  0  0  2  0  0  0  0  0  0
  184.7240  178.5850  138.4240 C   0  0  0  0  0  3  0  0  0  0  0  0
  183.8050  179.5620  139.1290 C   0  0  0  0  0  2  0  0  0  0  0  0
  183.4940  178.0830  139.1520 C   0  0  0  0  0  2  0  0  0  0  0  0
  187.0230  178.7730  137.1320 N   0  0  0  0  0  2  0  0  0  0  0  0
  188.3670  177.9060  135.4920 O   0  0  0  0  0  0  0  0  0  0  0  0
  186.1360  177.6150  135.2070 O   0  0  0  0  0  0  0  0  0  0  0  0
  187.2100  178.1010  135.9140 N   0  0  0  0  0  0  0  0  0  0  0  0
  2  1  1  6  0  0  0
  2  3  1  0  0  0  0
  3  4  1  0  0  0  0
  4  9  2  0  0  0  0
  5 11  1  0  0  0  0
  6 10  1  0  0  0  0
  6  3  2  0  0  0  0
  8  7  1  0  0  0  0
  8  9  1  0  0  0  0
 10  8  2  0  0  0  0
 11  7  2  0  0  0  0
 12  5  2  0  0  0  0
 12 10  1  0  0  0  0
 13 17  1  1  0  0  0
 14  2  1  6  0  0  0
 14 13  1  0  0  0  0
 15 14  1  0  0  0  0
 15 13  1  0  0  0  0
 17 16  1  0  0  0  0
 18  1  1  0  0  0  0
 19 20  1  6  0  0  0
 19 18  1  0  0  0  0
 21 22  1  1  0  0  0
 21 23  1  0  0  0  0
 21 19  1  0  0  0  0
 24 23  1  1  0  0  0
 24 25  1  0  0  0  0
 26 27  1  0  0  0  0
 26 28  1  0  0  0  0
 26 25  1  0  0  0  0
 27 28  1  0  0  0  0
 29 24  1  0  0  0  0
 30 32  2  0  0  0  0
 31 32  2  0  0  0  0
 32 29  1  0  0  0  0
M  END
>  <MODEL>
8

>  <REMARK>
 VINA RESULT:      -7.7      2.709      6.074
  Name = 
  13 active torsions:
  status: ('A' for Active; 'I' for Inactive)
    1  A    between atoms: O_1  and  C_5
    2  A    between atoms: O_1  and  C_30
    3  A    between atoms: C_2  and  C_5
    4  A    between atoms: C_3  and  C_8
    5  A    between atoms: C_3  and  C_20
    6  A    between atoms: C_4  and  C_24
    7  A    between atoms: C_4  and  C_30
    8  A    between atoms: C_5  and  C_14
    9  A    between atoms: C_13  and  C_29
   10  A    between atoms: N_15  and  C_20
   11  A    between atoms: N_15  and  N_26
   12  A    between atoms: C_16  and  C_20
   13  A    between atoms: C_16  and  C_24
                            x       y       z     vdW  Elec       q    Type
                         _______ _______ _______ _____ _____    ______ ____

>  <TORSDO>
F 13

$$$$
=
 OpenBabel10262421183D

 32 35  0  0  1  0  0  0  0  0999 V2000
  184.8090  177.8870  140.6320 O   0  0  0  0  0  0  0  0  0  0  0  0
  183.9640  178.6370  141.4840 C   0  0  2  0  0  3  0  0  0  0  0  0
  184.3770  178.5820  142.9320 C   0  0  0  0  0  0  0  0  0  0  0  0
  183.4660  178.9880  143.9140 C   0  0  0  0  0  3  0  0  0  0  0  0
  187.7190  177.8490  146.3670 C   0  0  0  0  0  3  0  0  0  0  0  0
  185.6780  178.2030  143.3040 C   0  0  0  0  0  3  0  0  0  0  0  0
  185.5090  178.6350  146.9800 C   0  0  0  0  0  3  0  0  0  0  0  0
  185.1280  178.6170  145.6350 C   0  0  0  0  0  0  0  0  0  0  0  0
  183.8380  179.0020  145.2610 C   0  0  0  0  0  3  0  0  0  0  0  0
  186.0550  178.2130  144.6480 C   0  0  0  0  0  0  0  0  0  0  0  0
  186.8040  178.2520  147.3450 C   0  0  0  0  0  3  0  0  0  0  0  0
  187.3470  177.8310  145.0190 C   0  0  0  0  0  3  0  0  0  0  0  0
  181.9770  179.3310  140.1600 C   0  0  1  0  0  3  0  0  0  0  0  0
  182.4740  178.3880  141.2370 C   0  0  1  0  0  3  0  0  0  0  0  0
  182.2670  177.8820  139.8250 C   0  0  0  0  0  2  0  0  0  0  0  0
  180.0920  180.6980  139.6870 O   0  0  0  0  0  1  0  0  0  0  0  0
  180.4840  179.5240  140.3290 C   0  0  0  0  0  2  0  0  0  0  0  0
  185.9020  178.6890  140.2530 C   0  0  0  0  0  2  0  0  0  0  0  0
  186.7410  178.0020  139.1790 C   0  0  1  0  0  3  0  0  0  0  0  0
  186.5500  178.6200  137.9420 O   0  0  0  0  0  1  0  0  0  0  0  0
  188.2360  177.9240  139.5110 C   0  0  1  0  0  3  0  0  0  0  0  0
  188.9170  179.0390  139.0170 O   0  0  0  0  0  1  0  0  0  0  0  0
  188.5060  177.7780  141.0080 C   0  0  0  0  0  2  0  0  0  0  0  0
  189.9080  177.2550  141.3360 C   0  0  1  0  0  3  0  0  0  0  0  0
  189.9300  176.4560  142.6320 C   0  0  0  0  0  2  0  0  0  0  0  0
  191.2480  176.6600  143.3520 C   0  0  0  0  0  3  0  0  0  0  0  0
  190.9750  177.2330  144.7270 C   0  0  0  0  0  2  0  0  0  0  0  0
  191.4500  178.1380  143.6150 C   0  0  0  0  0  2  0  0  0  0  0  0
  190.4270  176.4540  140.2360 N   0  0  0  0  0  2  0  0  0  0  0  0
  191.6940  176.5500  138.3300 O   0  0  0  0  0  0  0  0  0  0  0  0
  192.6090  177.4900  140.1800 O   0  0  0  0  0  0  0  0  0  0  0  0
  191.5940  176.8120  139.5450 N   0  0  0  0  0  0  0  0  0  0  0  0
  2  1  1  6  0  0  0
  2  3  1  0  0  0  0
  3  6  2  0  0  0  0
  3  4  1  0  0  0  0
  4  9  2  0  0  0  0
  5 11  1  0  0  0  0
  6 10  1  0  0  0  0
  7 11  2  0  0  0  0
  8  7  1  0  0  0  0
  9  8  1  0  0  0  0
 10 12  1  0  0  0  0
 10  8  2  0  0  0  0
 12  5  2  0  0  0  0
 13 17  1  1  0  0  0
 13 14  1  0  0  0  0
 14  2  1  6  0  0  0
 15 13  1  0  0  0  0
 15 14  1  0  0  0  0
 16 17  1  0  0  0  0
 18  1  1  0  0  0  0
 19 20  1  6  0  0  0
 19 21  1  0  0  0  0
 19 18  1  0  0  0  0
 21 22  1  1  0  0  0
 21 23  1  0  0  0  0
 24 23  1  6  0  0  0
 24 25  1  0  0  0  0
 25 26  1  0  0  0  0
 26 28  1  0  0  0  0
 26 27  1  0  0  0  0
 28 27  1  0  0  0  0
 29 24  1  0  0  0  0
 30 32  2  0  0  0  0
 32 31  2  0  0  0  0
 32 29  1  0  0  0  0
M  END
>  <MODEL>
9

>  <REMARK>
 VINA RESULT:      -7.7      1.420      2.044
  Name = 
  13 active torsions:
  status: ('A' for Active; 'I' for Inactive)
    1  A    between atoms: O_1  and  C_5
    2  A    between atoms: O_1  and  C_30
    3  A    between atoms: C_2  and  C_5
    4  A    between atoms: C_3  and  C_8
    5  A    between atoms: C_3  and  C_20
    6  A    between atoms: C_4  and  C_24
    7  A    between atoms: C_4  and  C_30
    8  A    between atoms: C_5  and  C_14
    9  A    between atoms: C_13  and  C_29
   10  A    between atoms: N_15  and  C_20
   11  A    between atoms: N_15  and  N_26
   12  A    between atoms: C_16  and  C_20
   13  A    between atoms: C_16  and  C_24
                            x       y       z     vdW  Elec       q    Type
                         _______ _______ _______ _____ _____    ______ ____

>  <TORSDO>
F 13

$$$$
