=
 OpenBabel10252415043D

 34 38  0  0  1  0  0  0  0  0999 V2000
  190.8230  176.2980  136.4680 C   0  0  0  0  0  0  0  0  0  0  0  0
  193.0440  176.1860  137.4910 C   0  0  0  0  0  0  0  0  0  0  0  0
  190.8820  176.4970  138.9410 C   0  0  2  0  0  3  0  0  0  0  0  0
  190.9560  177.1790  141.2030 C   0  0  1  0  0  3  0  0  0  0  0  0
  192.9100  175.8930  135.0840 C   0  0  0  0  0  3  0  0  0  0  0  0
  193.6510  175.9000  136.1890 C   0  0  0  0  0  3  0  0  0  0  0  0
  191.5760  176.3850  137.5920 C   0  0  0  0  0  0  0  0  0  0  0  0
  191.4430  176.2240  135.0920 C   0  0  0  0  0  2  0  0  0  0  0  0
  189.5330  177.2070  138.8160 C   0  0  2  0  0  3  0  0  0  0  0  0
  189.3910  176.3920  136.5440 N   0  0  0  0  0  2  0  0  0  0  0  0
  193.7800  176.2190  138.5120 O   0  0  0  0  0  0  0  0  0  0  0  0
  189.7870  177.9600  141.0900 O   0  0  0  0  0  0  0  0  0  0  0  0
  188.9110  177.2850  140.2150 C   0  0  1  0  0  3  0  0  0  0  0  0
  191.6980  177.1860  139.9380 N   0  0  0  0  0  2  0  0  0  0  0  0
  188.6850  176.4310  137.8200 C   0  0  0  0  0  2  0  0  0  0  0  0
  185.8410  179.2070  141.3420 C   0  0  0  0  0  0  0  0  0  0  0  0
  185.0820  179.3180  140.1360 N   0  0  0  0  0  0  0  0  0  0  0  0
  187.5930  177.9910  140.1910 C   0  0  0  0  0  0  0  0  0  0  0  0
  185.5070  178.8270  139.0110 C   0  0  0  0  0  3  0  0  0  0  0  0
  187.1280  178.5100  141.3280 C   0  0  0  0  0  3  0  0  0  0  0  0
  186.8300  178.1100  138.8890 C   0  0  0  0  0  2  0  0  0  0  0  0
  185.4020  179.7010  142.4120 O   0  0  0  0  0  0  0  0  0  0  0  0
  191.8340  177.7070  142.3360 C   0  0  0  0  0  2  0  0  0  0  0  0
  191.6770  175.8250  143.7940 O   0  0  0  0  0  0  0  0  0  0  0  0
  190.9500  177.8550  144.6950 N   0  0  0  0  0  2  0  0  0  0  0  0
  191.5040  177.0640  143.6440 C   0  0  0  0  0  0  0  0  0  0  0  0
  190.4940  177.2810  145.9490 C   0  0  0  0  0  2  0  0  0  0  0  0
  189.2080  178.1130  148.3900 O   0  0  0  0  0  1  0  0  0  0  0  0
  189.0170  177.4530  146.0610 C   0  0  0  0  0  0  0  0  0  0  0  0
  188.4290  177.8770  147.2640 C   0  0  0  0  0  0  0  0  0  0  0  0
  186.2490  177.8450  146.2060 C   0  0  0  0  0  3  0  0  0  0  0  0
  186.8340  177.4300  145.0070 C   0  0  0  0  0  3  0  0  0  0  0  0
  188.2160  177.2380  144.9340 C   0  0  0  0  0  3  0  0  0  0  0  0
  187.0450  178.0690  147.3320 C   0  0  0  0  0  3  0  0  0  0  0  0
  1 10  1  0  0  0  0
  1  7  2  0  0  0  0
  2  7  1  0  0  0  0
  2 11  2  0  0  0  0
  3  7  1  6  0  0  0
  3 14  1  0  0  0  0
  4 23  1  1  0  0  0
  5  8  1  0  0  0  0
  5  6  2  0  0  0  0
  6  2  1  0  0  0  0
  8  1  1  0  0  0  0
  9 15  1  6  0  0  0
  9  3  1  0  0  0  0
  9 13  1  0  0  0  0
 10 15  1  0  0  0  0
 12  4  1  0  0  0  0
 13 18  1  6  0  0  0
 13 12  1  0  0  0  0
 14  4  1  0  0  0  0
 16 22  2  0  0  0  0
 17 16  1  0  0  0  0
 18 20  2  0  0  0  0
 19 17  2  0  0  0  0
 20 16  1  0  0  0  0
 21 19  1  0  0  0  0
 21 18  1  0  0  0  0
 23 26  1  0  0  0  0
 25 27  1  0  0  0  0
 26 24  2  0  0  0  0
 26 25  1  0  0  0  0
 27 29  1  0  0  0  0
 29 30  1  0  0  0  0
 30 34  2  0  0  0  0
 30 28  1  0  0  0  0
 31 34  1  0  0  0  0
 32 31  2  0  0  0  0
 33 32  1  0  0  0  0
 33 29  2  0  0  0  0
M  END
>  <MODEL>
1

>  <REMARK>
 VINA RESULT:     -10.1      0.000      0.000
  Name = 
  5 active torsions:
  status: ('A' for Active; 'I' for Inactive)
    1  A    between atoms: C_3  and  C_13
    2  A    between atoms: C_3  and  N_17
    3  A    between atoms: C_5  and  C_18
    4  A    between atoms: C_12  and  C_28
    5  A    between atoms: C_18  and  C_29
                            x       y       z     vdW  Elec       q    Type
                         _______ _______ _______ _____ _____    ______ ____

>  <TORSDO>
F 5

$$$$
=
 OpenBabel10252415043D

 34 38  0  0  1  0  0  0  0  0999 V2000
  182.8250  178.6980  140.5750 C   0  0  0  0  0  0  0  0  0  0  0  0
  181.3980  178.8280  142.5600 C   0  0  0  0  0  0  0  0  0  0  0  0
  184.0120  178.8980  142.7450 C   0  0  2  0  0  3  0  0  0  0  0  0
  185.1490  178.5880  144.7940 C   0  0  1  0  0  3  0  0  0  0  0  0
  180.2940  178.7360  140.3980 C   0  0  0  0  0  3  0  0  0  0  0  0
  180.1980  178.8590  141.7190 C   0  0  0  0  0  3  0  0  0  0  0  0
  182.7390  178.7450  141.9270 C   0  0  0  0  0  0  0  0  0  0  0  0
  181.6080  178.5070  139.7010 C   0  0  0  0  0  2  0  0  0  0  0  0
  185.2100  178.2670  142.0340 C   0  0  2  0  0  3  0  0  0  0  0  0
  184.1080  178.7120  139.9280 N   0  0  0  0  0  2  0  0  0  0  0  0
  181.2680  178.9130  143.8090 O   0  0  0  0  0  0  0  0  0  0  0  0
  186.2080  177.8770  144.1910 O   0  0  0  0  0  0  0  0  0  0  0  0
  186.4410  178.4580  142.9280 C   0  0  1  0  0  3  0  0  0  0  0  0
  183.8930  178.3270  144.0840 N   0  0  0  0  0  2  0  0  0  0  0  0
  185.3460  178.9260  140.6700 C   0  0  0  0  0  2  0  0  0  0  0  0
  189.3780  176.1330  142.3230 C   0  0  0  0  0  0  0  0  0  0  0  0
  189.9880  176.6970  141.1600 N   0  0  0  0  0  0  0  0  0  0  0  0
  187.6620  177.8450  142.3170 C   0  0  0  0  0  0  0  0  0  0  0  0
  189.5040  177.7510  140.5750 C   0  0  0  0  0  3  0  0  0  0  0  0
  188.1830  176.7590  142.8910 C   0  0  0  0  0  3  0  0  0  0  0  0
  188.2650  178.4560  141.0710 C   0  0  0  0  0  2  0  0  0  0  0  0
  189.8680  175.1070  142.8590 O   0  0  0  0  0  0  0  0  0  0  0  0
  185.0200  178.1940  146.2640 C   0  0  0  0  0  2  0  0  0  0  0  0
  186.4340  179.5350  147.6400 O   0  0  0  0  0  0  0  0  0  0  0  0
  187.3250  177.4730  146.9980 N   0  0  0  0  0  2  0  0  0  0  0  0
  186.2830  178.4480  147.0230 C   0  0  0  0  0  0  0  0  0  0  0  0
  188.6230  177.7000  147.6100 C   0  0  0  0  0  2  0  0  0  0  0  0
  190.8350  175.8530  147.5850 O   0  0  0  0  0  1  0  0  0  0  0  0
  189.6710  177.7160  146.5500 C   0  0  0  0  0  0  0  0  0  0  0  0
  190.7250  176.7870  146.5630 C   0  0  0  0  0  0  0  0  0  0  0  0
  191.5720  177.7260  144.4950 C   0  0  0  0  0  3  0  0  0  0  0  0
  190.5200  178.6450  144.4770 C   0  0  0  0  0  3  0  0  0  0  0  0
  189.5700  178.6380  145.5020 C   0  0  0  0  0  3  0  0  0  0  0  0
  191.6740  176.7980  145.5350 C   0  0  0  0  0  3  0  0  0  0  0  0
  1  7  2  0  0  0  0
  2 11  2  0  0  0  0
  3  7  1  6  0  0  0
  3 14  1  0  0  0  0
  4 23  1  1  0  0  0
  5  6  2  0  0  0  0
  6  2  1  0  0  0  0
  7  2  1  0  0  0  0
  8  5  1  0  0  0  0
  8  1  1  0  0  0  0
  9 15  1  6  0  0  0
  9  3  1  0  0  0  0
  9 13  1  0  0  0  0
 10  1  1  0  0  0  0
 10 15  1  0  0  0  0
 12  4  1  0  0  0  0
 13 18  1  6  0  0  0
 13 12  1  0  0  0  0
 14  4  1  0  0  0  0
 16 22  2  0  0  0  0
 16 20  1  0  0  0  0
 17 16  1  0  0  0  0
 18 20  2  0  0  0  0
 19 21  1  0  0  0  0
 19 17  2  0  0  0  0
 21 18  1  0  0  0  0
 23 26  1  0  0  0  0
 25 26  1  0  0  0  0
 25 27  1  0  0  0  0
 26 24  2  0  0  0  0
 29 30  1  0  0  0  0
 29 27  1  0  0  0  0
 30 28  1  0  0  0  0
 31 34  1  0  0  0  0
 32 31  2  0  0  0  0
 32 33  1  0  0  0  0
 33 29  2  0  0  0  0
 34 30  2  0  0  0  0
M  END
>  <MODEL>
2

>  <REMARK>
 VINA RESULT:     -10.0      3.181      7.341
  Name = 
  5 active torsions:
  status: ('A' for Active; 'I' for Inactive)
    1  A    between atoms: C_3  and  C_13
    2  A    between atoms: C_3  and  N_17
    3  A    between atoms: C_5  and  C_18
    4  A    between atoms: C_12  and  C_28
    5  A    between atoms: C_18  and  C_29
                            x       y       z     vdW  Elec       q    Type
                         _______ _______ _______ _____ _____    ______ ____

>  <TORSDO>
F 5

$$$$
=
 OpenBabel10252415043D

 34 38  0  0  1  0  0  0  0  0999 V2000
  186.8640  178.3720  138.5090 C   0  0  0  0  0  0  0  0  0  0  0  0
  186.3170  178.4820  140.8920 C   0  0  0  0  0  0  0  0  0  0  0  0
  188.7420  177.9260  140.0690 C   0  0  2  0  0  3  0  0  0  0  0  0
  190.3940  177.0220  141.4980 C   0  0  1  0  0  3  0  0  0  0  0  0
  184.5460  179.0110  139.3160 C   0  0  0  0  0  3  0  0  0  0  0  0
  184.9560  178.9260  140.5790 C   0  0  0  0  0  3  0  0  0  0  0  0
  187.2730  178.2060  139.7910 C   0  0  0  0  0  0  0  0  0  0  0  0
  185.4160  178.6130  138.1560 C   0  0  0  0  0  2  0  0  0  0  0  0
  189.3940  177.1700  138.9090 C   0  0  2  0  0  3  0  0  0  0  0  0
  187.7910  178.2040  137.4240 N   0  0  0  0  0  2  0  0  0  0  0  0
  186.6610  178.3800  142.0990 O   0  0  0  0  0  0  0  0  0  0  0  0
  190.9370  176.2030  140.4870 O   0  0  0  0  0  0  0  0  0  0  0  0
  190.8620  176.9220  139.2760 C   0  0  1  0  0  3  0  0  0  0  0  0
  188.9480  177.1780  141.3060 N   0  0  0  0  0  2  0  0  0  0  0  0
  189.2180  178.0030  137.6500 C   0  0  0  0  0  2  0  0  0  0  0  0
  193.5150  175.8510  136.7840 C   0  0  0  0  0  0  0  0  0  0  0  0
  192.9110  174.7190  136.1530 N   0  0  0  0  0  0  0  0  0  0  0  0
  191.5740  176.1610  138.2030 C   0  0  0  0  0  0  0  0  0  0  0  0
  191.7320  174.2930  136.4920 C   0  0  0  0  0  3  0  0  0  0  0  0
  192.7890  176.5690  137.8330 C   0  0  0  0  0  3  0  0  0  0  0  0
  190.9130  174.9530  137.5760 C   0  0  0  0  0  2  0  0  0  0  0  0
  194.6620  176.2300  136.4370 O   0  0  0  0  0  0  0  0  0  0  0  0
  190.6850  176.4230  142.8730 C   0  0  0  0  0  2  0  0  0  0  0  0
  190.5520  178.5680  143.9110 O   0  0  0  0  0  0  0  0  0  0  0  0
  189.6140  176.8060  145.1260 N   0  0  0  0  0  2  0  0  0  0  0  0
  190.2750  177.3410  143.9800 C   0  0  0  0  0  0  0  0  0  0  0  0
  189.2930  177.6130  146.2910 C   0  0  0  0  0  2  0  0  0  0  0  0
  187.9320  178.5780  148.6410 O   0  0  0  0  0  1  0  0  0  0  0  0
  187.8250  177.8740  146.3190 C   0  0  0  0  0  0  0  0  0  0  0  0
  187.2010  178.3610  147.4790 C   0  0  0  0  0  0  0  0  0  0  0  0
  185.0810  178.4310  146.3050 C   0  0  0  0  0  3  0  0  0  0  0  0
  185.7030  177.9550  145.1480 C   0  0  0  0  0  3  0  0  0  0  0  0
  187.0730  177.6790  145.1550 C   0  0  0  0  0  3  0  0  0  0  0  0
  185.8290  178.6350  147.4680 C   0  0  0  0  0  3  0  0  0  0  0  0
  1  7  2  0  0  0  0
  2 11  2  0  0  0  0
  3  7  1  6  0  0  0
  3 14  1  0  0  0  0
  4 23  1  1  0  0  0
  5  6  2  0  0  0  0
  6  2  1  0  0  0  0
  7  2  1  0  0  0  0
  8  1  1  0  0  0  0
  8  5  1  0  0  0  0
  9 15  1  6  0  0  0
  9 13  1  0  0  0  0
  9  3  1  0  0  0  0
 10 15  1  0  0  0  0
 10  1  1  0  0  0  0
 12  4  1  0  0  0  0
 13 18  1  6  0  0  0
 13 12  1  0  0  0  0
 14  4  1  0  0  0  0
 16 20  1  0  0  0  0
 17 19  2  0  0  0  0
 17 16  1  0  0  0  0
 19 21  1  0  0  0  0
 20 18  2  0  0  0  0
 21 18  1  0  0  0  0
 22 16  2  0  0  0  0
 23 26  1  0  0  0  0
 24 26  2  0  0  0  0
 25 27  1  0  0  0  0
 26 25  1  0  0  0  0
 27 29  1  0  0  0  0
 29 30  1  0  0  0  0
 30 28  1  0  0  0  0
 31 34  1  0  0  0  0
 32 33  1  0  0  0  0
 32 31  2  0  0  0  0
 33 29  2  0  0  0  0
 34 30  2  0  0  0  0
M  END
>  <MODEL>
3

>  <REMARK>
 VINA RESULT:      -9.9      1.628      5.395
  Name = 
  5 active torsions:
  status: ('A' for Active; 'I' for Inactive)
    1  A    between atoms: C_3  and  C_13
    2  A    between atoms: C_3  and  N_17
    3  A    between atoms: C_5  and  C_18
    4  A    between atoms: C_12  and  C_28
    5  A    between atoms: C_18  and  C_29
                            x       y       z     vdW  Elec       q    Type
                         _______ _______ _______ _____ _____    ______ ____

>  <TORSDO>
F 5

$$$$
=
 OpenBabel10252415043D

 34 38  0  0  1  0  0  0  0  0999 V2000
  188.8680  177.4410  137.3640 C   0  0  0  0  0  0  0  0  0  0  0  0
  186.4970  177.8990  136.9600 C   0  0  0  0  0  0  0  0  0  0  0  0
  187.5990  178.3390  139.2990 C   0  0  2  0  0  3  0  0  0  0  0  0
  186.3240  178.7090  141.2540 C   0  0  1  0  0  3  0  0  0  0  0  0
  187.8180  177.1180  135.0770 C   0  0  0  0  0  3  0  0  0  0  0  0
  186.6540  177.5640  135.5420 C   0  0  0  0  0  3  0  0  0  0  0  0
  187.6690  177.8230  137.8690 C   0  0  0  0  0  0  0  0  0  0  0  0
  189.0070  176.8830  135.9670 C   0  0  0  0  0  2  0  0  0  0  0  0
  188.6770  177.6990  140.1740 C   0  0  2  0  0  3  0  0  0  0  0  0
  190.0410  177.4460  138.1940 N   0  0  0  0  0  2  0  0  0  0  0  0
  185.3740  178.2860  137.3740 O   0  0  0  0  0  0  0  0  0  0  0  0
  187.2290  178.0050  142.0750 O   0  0  0  0  0  0  0  0  0  0  0  0
  188.5280  178.2650  141.5920 C   0  0  1  0  0  3  0  0  0  0  0  0
  186.2910  178.1220  139.9110 N   0  0  0  0  0  2  0  0  0  0  0  0
  190.0290  177.9970  139.5450 C   0  0  0  0  0  2  0  0  0  0  0  0
  191.2930  177.9510  144.1700 C   0  0  0  0  0  0  0  0  0  0  0  0
  191.4480  176.5350  144.2910 N   0  0  0  0  0  0  0  0  0  0  0  0
  189.5330  177.6710  142.5280 C   0  0  0  0  0  0  0  0  0  0  0  0
  190.7170  175.7050  143.6090 C   0  0  0  0  0  3  0  0  0  0  0  0
  190.2980  178.4950  143.2450 C   0  0  0  0  0  3  0  0  0  0  0  0
  189.6500  176.1670  142.6470 C   0  0  0  0  0  2  0  0  0  0  0  0
  192.0130  178.7250  144.8510 O   0  0  0  0  0  0  0  0  0  0  0  0
  184.9280  178.6940  141.8750 C   0  0  0  0  0  2  0  0  0  0  0  0
  185.1830  180.3920  143.5320 O   0  0  0  0  0  0  0  0  0  0  0  0
  184.7260  178.2510  144.3510 N   0  0  0  0  0  2  0  0  0  0  0  0
  184.9410  179.1800  143.2880 C   0  0  0  0  0  0  0  0  0  0  0  0
  184.8420  178.6240  145.7500 C   0  0  0  0  0  2  0  0  0  0  0  0
  185.9840  179.8280  148.1070 O   0  0  0  0  0  1  0  0  0  0  0  0
  186.2130  178.2970  146.2360 C   0  0  0  0  0  0  0  0  0  0  0  0
  186.7280  178.8910  147.3990 C   0  0  0  0  0  0  0  0  0  0  0  0
  188.7600  177.5910  147.1600 C   0  0  0  0  0  3  0  0  0  0  0  0
  188.2450  176.9930  146.0080 C   0  0  0  0  0  3  0  0  0  0  0  0
  186.9720  177.3430  145.5480 C   0  0  0  0  0  3  0  0  0  0  0  0
  188.0020  178.5380  147.8560 C   0  0  0  0  0  3  0  0  0  0  0  0
  1  7  2  0  0  0  0
  1 10  1  0  0  0  0
  2 11  2  0  0  0  0
  2  7  1  0  0  0  0
  3  7  1  6  0  0  0
  3 14  1  0  0  0  0
  3  9  1  0  0  0  0
  4 23  1  1  0  0  0
  4 12  1  0  0  0  0
  5  6  2  0  0  0  0
  5  8  1  0  0  0  0
  6  2  1  0  0  0  0
  8  1  1  0  0  0  0
  9 15  1  6  0  0  0
  9 13  1  0  0  0  0
 10 15  1  0  0  0  0
 13 12  1  0  0  0  0
 13 18  1  1  0  0  0
 14  4  1  0  0  0  0
 16 17  1  0  0  0  0
 16 22  2  0  0  0  0
 18 21  1  0  0  0  0
 18 20  2  0  0  0  0
 19 17  2  0  0  0  0
 20 16  1  0  0  0  0
 21 19  1  0  0  0  0
 23 26  1  0  0  0  0
 25 27  1  0  0  0  0
 26 24  2  0  0  0  0
 26 25  1  0  0  0  0
 27 29  1  0  0  0  0
 29 30  1  0  0  0  0
 30 34  2  0  0  0  0
 30 28  1  0  0  0  0
 31 34  1  0  0  0  0
 32 31  2  0  0  0  0
 33 32  1  0  0  0  0
 33 29  2  0  0  0  0
M  END
>  <MODEL>
4

>  <REMARK>
 VINA RESULT:      -9.8      2.445      5.029
  Name = 
  5 active torsions:
  status: ('A' for Active; 'I' for Inactive)
    1  A    between atoms: C_3  and  C_13
    2  A    between atoms: C_3  and  N_17
    3  A    between atoms: C_5  and  C_18
    4  A    between atoms: C_12  and  C_28
    5  A    between atoms: C_18  and  C_29
                            x       y       z     vdW  Elec       q    Type
                         _______ _______ _______ _____ _____    ______ ____

>  <TORSDO>
F 5

$$$$
=
 OpenBabel10252415043D

 34 38  0  0  1  0  0  0  0  0999 V2000
  189.0460  177.5550  146.2070 C   0  0  0  0  0  0  0  0  0  0  0  0
  186.8200  178.1500  147.0370 C   0  0  0  0  0  0  0  0  0  0  0  0
  187.2150  177.4810  144.5330 C   0  0  2  0  0  3  0  0  0  0  0  0
  185.6120  177.8830  142.8430 C   0  0  1  0  0  3  0  0  0  0  0  0
  188.6350  178.1020  148.6500 C   0  0  0  0  0  3  0  0  0  0  0  0
  187.3370  178.2550  148.4040 C   0  0  0  0  0  3  0  0  0  0  0  0
  187.7390  177.7850  145.9290 C   0  0  0  0  0  0  0  0  0  0  0  0
  189.6430  177.8700  147.5580 C   0  0  0  0  0  2  0  0  0  0  0  0
  188.3080  177.6570  143.4780 C   0  0  2  0  0  3  0  0  0  0  0  0
  189.9400  177.1090  145.1750 N   0  0  0  0  0  2  0  0  0  0  0  0
  185.5920  178.3340  146.8350 O   0  0  0  0  0  0  0  0  0  0  0  0
  186.5900  178.1890  141.8740 O   0  0  0  0  0  0  0  0  0  0  0  0
  187.6940  177.3430  142.1080 C   0  0  1  0  0  3  0  0  0  0  0  0
  186.0620  178.3040  144.1730 N   0  0  0  0  0  2  0  0  0  0  0  0
  189.4650  176.7420  143.8450 C   0  0  0  0  0  2  0  0  0  0  0  0
  189.3390  178.5170  138.8970 C   0  0  0  0  0  0  0  0  0  0  0  0
  190.5890  177.8240  138.9150 N   0  0  0  0  0  0  0  0  0  0  0  0
  188.6930  177.5150  141.0080 C   0  0  0  0  0  0  0  0  0  0  0  0
  190.9190  177.0320  139.8900 C   0  0  0  0  0  3  0  0  0  0  0  0
  188.3880  178.3250  139.9930 C   0  0  0  0  0  3  0  0  0  0  0  0
  190.0160  176.7850  141.0740 C   0  0  0  0  0  2  0  0  0  0  0  0
  189.0550  179.2840  137.9410 O   0  0  0  0  0  0  0  0  0  0  0  0
  184.2910  178.5640  142.4900 C   0  0  0  0  0  2  0  0  0  0  0  0
  184.5300  179.7500  140.4330 O   0  0  0  0  0  0  0  0  0  0  0  0
  183.4390  177.6900  140.2810 N   0  0  0  0  0  2  0  0  0  0  0  0
  184.1170  178.7110  141.0130 C   0  0  0  0  0  0  0  0  0  0  0  0
  183.1270  177.8170  138.8680 C   0  0  0  0  0  2  0  0  0  0  0  0
  182.8430  175.0990  137.9520 O   0  0  0  0  0  1  0  0  0  0  0  0
  184.1770  177.1240  138.0670 C   0  0  0  0  0  0  0  0  0  0  0  0
  183.9940  175.8040  137.6240 C   0  0  0  0  0  0  0  0  0  0  0  0
  186.1370  175.8910  136.4940 C   0  0  0  0  0  3  0  0  0  0  0  0
  186.3160  177.2070  136.9280 C   0  0  0  0  0  3  0  0  0  0  0  0
  185.3360  177.8230  137.7110 C   0  0  0  0  0  3  0  0  0  0  0  0
  184.9780  175.1910  136.8410 C   0  0  0  0  0  3  0  0  0  0  0  0
  1  8  1  0  0  0  0
  2  6  1  0  0  0  0
  3 14  1  6  0  0  0
  3  7  1  0  0  0  0
  4 23  1  6  0  0  0
  4 14  1  0  0  0  0
  6  5  2  0  0  0  0
  7  1  2  0  0  0  0
  7  2  1  0  0  0  0
  8  5  1  0  0  0  0
  9 15  1  1  0  0  0
  9  3  1  0  0  0  0
 10  1  1  0  0  0  0
 11  2  2  0  0  0  0
 12 13  1  0  0  0  0
 12  4  1  0  0  0  0
 13 18  1  6  0  0  0
 13  9  1  0  0  0  0
 15 10  1  0  0  0  0
 16 17  1  0  0  0  0
 16 20  1  0  0  0  0
 17 19  2  0  0  0  0
 18 21  1  0  0  0  0
 19 21  1  0  0  0  0
 20 18  2  0  0  0  0
 22 16  2  0  0  0  0
 24 26  2  0  0  0  0
 25 26  1  0  0  0  0
 26 23  1  0  0  0  0
 27 25  1  0  0  0  0
 29 27  1  0  0  0  0
 30 28  1  0  0  0  0
 30 29  2  0  0  0  0
 31 34  2  0  0  0  0
 31 32  1  0  0  0  0
 32 33  2  0  0  0  0
 33 29  1  0  0  0  0
 34 30  1  0  0  0  0
M  END
>  <MODEL>
5

>  <REMARK>
 VINA RESULT:      -9.7      2.770      8.636
  Name = 
  5 active torsions:
  status: ('A' for Active; 'I' for Inactive)
    1  A    between atoms: C_3  and  C_13
    2  A    between atoms: C_3  and  N_17
    3  A    between atoms: C_5  and  C_18
    4  A    between atoms: C_12  and  C_28
    5  A    between atoms: C_18  and  C_29
                            x       y       z     vdW  Elec       q    Type
                         _______ _______ _______ _____ _____    ______ ____

>  <TORSDO>
F 5

$$$$
=
 OpenBabel10252415043D

 34 38  0  0  1  0  0  0  0  0999 V2000
  187.2950  177.7710  137.6580 C   0  0  0  0  0  0  0  0  0  0  0  0
  186.7960  178.4060  139.9690 C   0  0  0  0  0  0  0  0  0  0  0  0
  189.2450  177.8920  139.1890 C   0  0  2  0  0  3  0  0  0  0  0  0
  191.0120  177.5180  140.7140 C   0  0  1  0  0  3  0  0  0  0  0  0
  184.9440  178.3710  138.3980 C   0  0  0  0  0  3  0  0  0  0  0  0
  185.3900  178.6340  139.6240 C   0  0  0  0  0  3  0  0  0  0  0  0
  187.7490  177.9600  138.9220 C   0  0  0  0  0  0  0  0  0  0  0  0
  185.8220  177.7850  137.3270 C   0  0  0  0  0  2  0  0  0  0  0  0
  189.9420  176.9400  138.2150 C   0  0  2  0  0  3  0  0  0  0  0  0
  188.2080  177.4300  136.6030 N   0  0  0  0  0  2  0  0  0  0  0  0
  187.1770  178.6330  141.1470 O   0  0  0  0  0  0  0  0  0  0  0  0
  191.6110  176.5320  139.9030 O   0  0  0  0  0  0  0  0  0  0  0  0
  191.4360  176.9250  138.5600 C   0  0  1  0  0  3  0  0  0  0  0  0
  189.5550  177.4890  140.5590 N   0  0  0  0  0  2  0  0  0  0  0  0
  189.6540  177.4220  136.8020 C   0  0  0  0  0  2  0  0  0  0  0  0
  194.1610  175.4960  136.3420 C   0  0  0  0  0  0  0  0  0  0  0  0
  193.6220  174.2270  135.9620 N   0  0  0  0  0  0  0  0  0  0  0  0
  192.1950  175.9950  137.6680 C   0  0  0  0  0  0  0  0  0  0  0  0
  192.4630  173.8210  136.3860 C   0  0  0  0  0  3  0  0  0  0  0  0
  193.3900  176.3780  137.2180 C   0  0  0  0  0  3  0  0  0  0  0  0
  191.6020  174.6490  137.3090 C   0  0  0  0  0  2  0  0  0  0  0  0
  195.2910  175.8530  135.9200 O   0  0  0  0  0  0  0  0  0  0  0  0
  191.3950  177.3010  142.1770 C   0  0  0  0  0  2  0  0  0  0  0  0
  190.1000  175.4360  142.9110 O   0  0  0  0  0  0  0  0  0  0  0  0
  189.4060  177.5180  143.7150 N   0  0  0  0  0  2  0  0  0  0  0  0
  190.2820  176.6820  142.9590 C   0  0  0  0  0  0  0  0  0  0  0  0
  188.2340  177.0030  144.4010 C   0  0  0  0  0  2  0  0  0  0  0  0
  185.9230  177.9680  145.8270 O   0  0  0  0  0  1  0  0  0  0  0  0
  188.2850  177.4080  145.8350 C   0  0  0  0  0  0  0  0  0  0  0  0
  187.1330  177.8570  146.5010 C   0  0  0  0  0  0  0  0  0  0  0  0
  188.4070  178.0790  148.5510 C   0  0  0  0  0  3  0  0  0  0  0  0
  189.5520  177.6250  147.8920 C   0  0  0  0  0  3  0  0  0  0  0  0
  189.4910  177.2870  146.5370 C   0  0  0  0  0  3  0  0  0  0  0  0
  187.1990  178.1940  147.8570 C   0  0  0  0  0  3  0  0  0  0  0  0
  1  7  2  0  0  0  0
  2 11  2  0  0  0  0
  3  7  1  1  0  0  0
  3 14  1  0  0  0  0
  4 23  1  1  0  0  0
  5  6  2  0  0  0  0
  6  2  1  0  0  0  0
  7  2  1  0  0  0  0
  8  1  1  0  0  0  0
  8  5  1  0  0  0  0
  9 15  1  6  0  0  0
  9 13  1  0  0  0  0
  9  3  1  0  0  0  0
 10 15  1  0  0  0  0
 10  1  1  0  0  0  0
 12  4  1  0  0  0  0
 13 18  1  6  0  0  0
 13 12  1  0  0  0  0
 14  4  1  0  0  0  0
 16 20  1  0  0  0  0
 17 16  1  0  0  0  0
 17 19  2  0  0  0  0
 19 21  1  0  0  0  0
 20 18  2  0  0  0  0
 21 18  1  0  0  0  0
 22 16  2  0  0  0  0
 23 26  1  0  0  0  0
 24 26  2  0  0  0  0
 25 27  1  0  0  0  0
 26 25  1  0  0  0  0
 27 29  1  0  0  0  0
 28 30  1  0  0  0  0
 29 30  2  0  0  0  0
 29 33  1  0  0  0  0
 30 34  1  0  0  0  0
 32 31  1  0  0  0  0
 33 32  2  0  0  0  0
 34 31  2  0  0  0  0
M  END
>  <MODEL>
6

>  <REMARK>
 VINA RESULT:      -9.7      1.815      5.523
  Name = 
  5 active torsions:
  status: ('A' for Active; 'I' for Inactive)
    1  A    between atoms: C_3  and  C_13
    2  A    between atoms: C_3  and  N_17
    3  A    between atoms: C_5  and  C_18
    4  A    between atoms: C_12  and  C_28
    5  A    between atoms: C_18  and  C_29
                            x       y       z     vdW  Elec       q    Type
                         _______ _______ _______ _____ _____    ______ ____

>  <TORSDO>
F 5

$$$$
=
 OpenBabel10252415043D

 34 38  0  0  1  0  0  0  0  0999 V2000
  185.6890  178.1620  143.6130 C   0  0  0  0  0  0  0  0  0  0  0  0
  185.9880  178.6270  141.2280 C   0  0  0  0  0  0  0  0  0  0  0  0
  187.8380  177.4070  142.6270 C   0  0  2  0  0  3  0  0  0  0  0  0
  190.0510  177.1340  141.8440 C   0  0  1  0  0  3  0  0  0  0  0  0
  183.8630  179.2490  142.2270 C   0  0  0  0  0  3  0  0  0  0  0  0
  184.6210  179.1490  141.1390 C   0  0  0  0  0  3  0  0  0  0  0  0
  186.5010  178.1260  142.5280 C   0  0  0  0  0  0  0  0  0  0  0  0
  184.3670  178.8920  143.5990 C   0  0  0  0  0  2  0  0  0  0  0  0
  188.3950  177.4620  144.0510 C   0  0  2  0  0  3  0  0  0  0  0  0
  186.1220  177.6010  144.8630 N   0  0  0  0  0  2  0  0  0  0  0  0
  186.6890  178.5780  140.1850 O   0  0  0  0  0  0  0  0  0  0  0  0
  190.6140  177.3190  143.1240 O   0  0  0  0  0  0  0  0  0  0  0  0
  189.7400  176.7260  144.0580 C   0  0  1  0  0  3  0  0  0  0  0  0
  188.8340  177.9390  141.7010 N   0  0  0  0  0  2  0  0  0  0  0  0
  187.3640  176.8440  144.9820 C   0  0  0  0  0  2  0  0  0  0  0  0
  190.3670  177.5050  147.7180 C   0  0  0  0  0  0  0  0  0  0  0  0
  191.5890  176.8090  147.9810 N   0  0  0  0  0  0  0  0  0  0  0  0
  190.3720  176.7530  145.4140 C   0  0  0  0  0  0  0  0  0  0  0  0
  192.1920  176.1150  147.0640 C   0  0  0  0  0  3  0  0  0  0  0  0
  189.7770  177.4540  146.3800 C   0  0  0  0  0  3  0  0  0  0  0  0
  191.6520  175.9830  145.6600 C   0  0  0  0  0  2  0  0  0  0  0  0
  189.8060  178.1620  148.6320 O   0  0  0  0  0  0  0  0  0  0  0  0
  191.0650  177.5090  140.7640 C   0  0  0  0  0  2  0  0  0  0  0  0
  190.9300  175.8090  139.0940 O   0  0  0  0  0  0  0  0  0  0  0  0
  190.0190  177.8760  138.4970 N   0  0  0  0  0  2  0  0  0  0  0  0
  190.6620  176.9960  139.4190 C   0  0  0  0  0  0  0  0  0  0  0  0
  189.7060  177.4860  137.1330 C   0  0  0  0  0  2  0  0  0  0  0  0
  187.5500  179.3770  136.8430 O   0  0  0  0  0  1  0  0  0  0  0  0
  188.2770  177.0700  137.0550 C   0  0  0  0  0  0  0  0  0  0  0  0
  187.2550  178.0200  136.8950 C   0  0  0  0  0  0  0  0  0  0  0  0
  185.6120  176.2390  136.8270 C   0  0  0  0  0  3  0  0  0  0  0  0
  186.6290  175.2920  136.9770 C   0  0  0  0  0  3  0  0  0  0  0  0
  187.9590  175.7070  137.0880 C   0  0  0  0  0  3  0  0  0  0  0  0
  185.9250  177.6010  136.7850 C   0  0  0  0  0  3  0  0  0  0  0  0
  1 10  1  0  0  0  0
  2  7  1  0  0  0  0
  3 14  1  6  0  0  0
  3  9  1  0  0  0  0
  4 23  1  6  0  0  0
  4 12  1  0  0  0  0
  5  8  1  0  0  0  0
  6  2  1  0  0  0  0
  6  5  2  0  0  0  0
  7  3  1  0  0  0  0
  7  1  2  0  0  0  0
  8  1  1  0  0  0  0
  9 13  1  0  0  0  0
  9 15  1  1  0  0  0
 10 15  1  0  0  0  0
 11  2  2  0  0  0  0
 12 13  1  0  0  0  0
 13 18  1  1  0  0  0
 14  4  1  0  0  0  0
 16 17  1  0  0  0  0
 16 22  2  0  0  0  0
 18 21  1  0  0  0  0
 18 20  2  0  0  0  0
 19 17  2  0  0  0  0
 20 16  1  0  0  0  0
 21 19  1  0  0  0  0
 24 26  2  0  0  0  0
 25 26  1  0  0  0  0
 26 23  1  0  0  0  0
 27 25  1  0  0  0  0
 28 30  1  0  0  0  0
 29 33  1  0  0  0  0
 29 27  1  0  0  0  0
 30 29  2  0  0  0  0
 31 32  1  0  0  0  0
 32 33  2  0  0  0  0
 34 31  2  0  0  0  0
 34 30  1  0  0  0  0
M  END
>  <MODEL>
7

>  <REMARK>
 VINA RESULT:      -9.6      2.278      8.037
  Name = 
  5 active torsions:
  status: ('A' for Active; 'I' for Inactive)
    1  A    between atoms: C_3  and  C_13
    2  A    between atoms: C_3  and  N_17
    3  A    between atoms: C_5  and  C_18
    4  A    between atoms: C_12  and  C_28
    5  A    between atoms: C_18  and  C_29
                            x       y       z     vdW  Elec       q    Type
                         _______ _______ _______ _____ _____    ______ ____

>  <TORSDO>
F 5

$$$$
=
 OpenBabel10252415043D

 34 38  0  0  1  0  0  0  0  0999 V2000
  189.1740  177.4940  146.2950 C   0  0  0  0  0  0  0  0  0  0  0  0
  186.9840  178.1500  147.1710 C   0  0  0  0  0  0  0  0  0  0  0  0
  187.3110  177.4880  144.6560 C   0  0  2  0  0  3  0  0  0  0  0  0
  185.6890  177.9500  142.9990 C   0  0  1  0  0  3  0  0  0  0  0  0
  188.8270  178.0350  148.7490 C   0  0  0  0  0  3  0  0  0  0  0  0
  187.5290  178.2290  148.5290 C   0  0  0  0  0  3  0  0  0  0  0  0
  187.8700  177.7650  146.0430 C   0  0  0  0  0  0  0  0  0  0  0  0
  189.8060  177.7810  147.6370 C   0  0  0  0  0  2  0  0  0  0  0  0
  188.3890  177.6390  143.5810 C   0  0  2  0  0  3  0  0  0  0  0  0
  190.0360  177.0300  145.2430 N   0  0  0  0  0  2  0  0  0  0  0  0
  185.7580  178.3720  146.9940 O   0  0  0  0  0  0  0  0  0  0  0  0
  186.6580  178.2330  142.0140 O   0  0  0  0  0  0  0  0  0  0  0  0
  187.7400  177.3530  142.2220 C   0  0  1  0  0  3  0  0  0  0  0  0
  186.1770  178.3470  144.3240 N   0  0  0  0  0  2  0  0  0  0  0  0
  189.5250  176.6870  143.9200 C   0  0  0  0  0  2  0  0  0  0  0  0
  189.3450  178.4790  138.9730 C   0  0  0  0  0  0  0  0  0  0  0  0
  190.5880  177.7720  138.9780 N   0  0  0  0  0  0  0  0  0  0  0  0
  188.7220  177.5040  141.1030 C   0  0  0  0  0  0  0  0  0  0  0  0
  190.9250  176.9840  139.9540 C   0  0  0  0  0  3  0  0  0  0  0  0
  188.4100  178.3080  140.0860 C   0  0  0  0  0  3  0  0  0  0  0  0
  190.0390  176.7590  141.1550 C   0  0  0  0  0  2  0  0  0  0  0  0
  189.0550  179.2400  138.0150 O   0  0  0  0  0  0  0  0  0  0  0  0
  184.3830  178.6730  142.6760 C   0  0  0  0  0  2  0  0  0  0  0  0
  183.2920  177.4370  140.9510 O   0  0  0  0  0  0  0  0  0  0  0  0
  184.3690  179.3920  140.2570 N   0  0  0  0  0  2  0  0  0  0  0  0
  183.9630  178.4580  141.2580 C   0  0  0  0  0  0  0  0  0  0  0  0
  184.1010  179.1880  138.8440 C   0  0  0  0  0  2  0  0  0  0  0  0
  182.0330  177.4360  137.8650 O   0  0  0  0  0  1  0  0  0  0  0  0
  182.7250  179.6670  138.5290 C   0  0  0  0  0  0  0  0  0  0  0  0
  181.7380  178.7780  138.0710 C   0  0  0  0  0  0  0  0  0  0  0  0
  180.1290  180.5900  138.0310 C   0  0  0  0  0  3  0  0  0  0  0  0
  181.1070  181.4730  138.4950 C   0  0  0  0  0  3  0  0  0  0  0  0
  182.4020  181.0120  138.7460 C   0  0  0  0  0  3  0  0  0  0  0  0
  180.4440  179.2450  137.8200 C   0  0  0  0  0  3  0  0  0  0  0  0
  1  8  1  0  0  0  0
  2  6  1  0  0  0  0
  3 14  1  6  0  0  0
  3  7  1  0  0  0  0
  4 23  1  6  0  0  0
  4 14  1  0  0  0  0
  6  5  2  0  0  0  0
  7  1  2  0  0  0  0
  7  2  1  0  0  0  0
  8  5  1  0  0  0  0
  9 15  1  1  0  0  0
  9  3  1  0  0  0  0
 10  1  1  0  0  0  0
 11  2  2  0  0  0  0
 12 13  1  0  0  0  0
 12  4  1  0  0  0  0
 13 18  1  6  0  0  0
 13  9  1  0  0  0  0
 15 10  1  0  0  0  0
 16 17  1  0  0  0  0
 16 20  1  0  0  0  0
 17 19  2  0  0  0  0
 18 21  1  0  0  0  0
 19 21  1  0  0  0  0
 20 18  2  0  0  0  0
 22 16  2  0  0  0  0
 24 26  2  0  0  0  0
 25 26  1  0  0  0  0
 26 23  1  0  0  0  0
 27 25  1  0  0  0  0
 28 30  1  0  0  0  0
 29 33  1  0  0  0  0
 29 27  1  0  0  0  0
 30 29  2  0  0  0  0
 31 32  1  0  0  0  0
 32 33  2  0  0  0  0
 34 31  2  0  0  0  0
 34 30  1  0  0  0  0
M  END
>  <MODEL>
8

>  <REMARK>
 VINA RESULT:      -9.6      2.786      8.805
  Name = 
  5 active torsions:
  status: ('A' for Active; 'I' for Inactive)
    1  A    between atoms: C_3  and  C_13
    2  A    between atoms: C_3  and  N_17
    3  A    between atoms: C_5  and  C_18
    4  A    between atoms: C_12  and  C_28
    5  A    between atoms: C_18  and  C_29
                            x       y       z     vdW  Elec       q    Type
                         _______ _______ _______ _____ _____    ______ ____

>  <TORSDO>
F 5

$$$$
=
 OpenBabel10252415043D

 34 38  0  0  1  0  0  0  0  0999 V2000
  190.7120  176.6980  145.0810 C   0  0  0  0  0  0  0  0  0  0  0  0
  188.9000  177.4530  146.5450 C   0  0  0  0  0  0  0  0  0  0  0  0
  188.5220  177.0800  143.9770 C   0  0  2  0  0  3  0  0  0  0  0  0
  186.6200  177.9030  142.8400 C   0  0  1  0  0  3  0  0  0  0  0  0
  191.0400  176.9610  147.5830 C   0  0  0  0  0  3  0  0  0  0  0  0
  189.7630  177.3080  147.7200 C   0  0  0  0  0  3  0  0  0  0  0  0
  189.4300  177.1260  145.1970 C   0  0  0  0  0  0  0  0  0  0  0  0
  191.6810  176.7510  146.2390 C   0  0  0  0  0  2  0  0  0  0  0  0
  189.3180  177.2560  142.6830 C   0  0  2  0  0  3  0  0  0  0  0  0
  191.2270  176.2840  143.8060 N   0  0  0  0  0  2  0  0  0  0  0  0
  187.7060  177.8160  146.7070 O   0  0  0  0  0  0  0  0  0  0  0  0
  187.3500  178.2090  141.6730 O   0  0  0  0  0  0  0  0  0  0  0  0
  188.3290  177.2070  141.5130 C   0  0  1  0  0  3  0  0  0  0  0  0
  187.4600  178.0820  144.0280 N   0  0  0  0  0  2  0  0  0  0  0  0
  190.3720  176.1610  142.6290 C   0  0  0  0  0  2  0  0  0  0  0  0
  189.2970  178.6270  138.1300 C   0  0  0  0  0  0  0  0  0  0  0  0
  190.3360  177.7420  137.7060 N   0  0  0  0  0  0  0  0  0  0  0  0
  189.0230  177.3980  140.2010 C   0  0  0  0  0  0  0  0  0  0  0  0
  190.7330  176.7480  138.4420 C   0  0  0  0  0  3  0  0  0  0  0  0
  188.6430  178.4110  139.4210 C   0  0  0  0  0  3  0  0  0  0  0  0
  190.1350  176.4550  139.7970 C   0  0  0  0  0  2  0  0  0  0  0  0
  188.9440  179.5850  137.3950 O   0  0  0  0  0  0  0  0  0  0  0  0
  185.3770  178.7870  142.9310 C   0  0  0  0  0  2  0  0  0  0  0  0
  185.1150  179.7530  140.7650 O   0  0  0  0  0  0  0  0  0  0  0  0
  183.5300  178.1360  141.3400 N   0  0  0  0  0  2  0  0  0  0  0  0
  184.6910  178.9210  141.6100 C   0  0  0  0  0  0  0  0  0  0  0  0
  182.7410  178.2960  140.1310 C   0  0  0  0  0  2  0  0  0  0  0  0
  182.6800  175.6100  139.0890 O   0  0  0  0  0  1  0  0  0  0  0  0
  181.5310  177.4300  140.2130 C   0  0  0  0  0  0  0  0  0  0  0  0
  181.5450  176.1190  139.7090 C   0  0  0  0  0  0  0  0  0  0  0  0
  179.2630  175.8070  140.4630 C   0  0  0  0  0  3  0  0  0  0  0  0
  179.2500  177.1080  140.9720 C   0  0  0  0  0  3  0  0  0  0  0  0
  180.3830  177.9170  140.8490 C   0  0  0  0  0  3  0  0  0  0  0  0
  180.4090  175.3130  139.8340 C   0  0  0  0  0  3  0  0  0  0  0  0
  1  7  2  0  0  0  0
  1  8  1  0  0  0  0
  2 11  2  0  0  0  0
  2  6  1  0  0  0  0
  3 14  1  1  0  0  0
  3  7  1  0  0  0  0
  4 23  1  1  0  0  0
  4 14  1  0  0  0  0
  5  6  2  0  0  0  0
  7  2  1  0  0  0  0
  8  5  1  0  0  0  0
  9 15  1  6  0  0  0
  9  3  1  0  0  0  0
 10  1  1  0  0  0  0
 12  4  1  0  0  0  0
 13 18  1  6  0  0  0
 13 12  1  0  0  0  0
 13  9  1  0  0  0  0
 15 10  1  0  0  0  0
 16 20  1  0  0  0  0
 17 16  1  0  0  0  0
 17 19  2  0  0  0  0
 19 21  1  0  0  0  0
 20 18  2  0  0  0  0
 21 18  1  0  0  0  0
 22 16  2  0  0  0  0
 24 26  2  0  0  0  0
 25 26  1  0  0  0  0
 26 23  1  0  0  0  0
 27 29  1  0  0  0  0
 27 25  1  0  0  0  0
 28 30  1  0  0  0  0
 29 33  1  0  0  0  0
 30 34  1  0  0  0  0
 30 29  2  0  0  0  0
 31 32  1  0  0  0  0
 33 32  2  0  0  0  0
 34 31  2  0  0  0  0
M  END
>  <MODEL>
9

>  <REMARK>
 VINA RESULT:      -9.4      3.178      7.918
  Name = 
  5 active torsions:
  status: ('A' for Active; 'I' for Inactive)
    1  A    between atoms: C_3  and  C_13
    2  A    between atoms: C_3  and  N_17
    3  A    between atoms: C_5  and  C_18
    4  A    between atoms: C_12  and  C_28
    5  A    between atoms: C_18  and  C_29
                            x       y       z     vdW  Elec       q    Type
                         _______ _______ _______ _____ _____    ______ ____

>  <TORSDO>
F 5

$$$$
