=
 OpenBabel10262420023D

 27 31  0  0  0  0  0  0  0  0999 V2000
  186.0290  178.5820  140.4610 C   0  0  0  0  0  0  0  0  0  0  0  0
  187.8980  177.8330  141.3680 C   0  0  0  0  0  0  0  0  0  0  0  0
  185.8180  178.5290  141.8070 N   0  0  0  0  0  0  0  0  0  0  0  0
  188.9660  177.1590  145.3250 C   0  0  0  0  0  3  0  0  0  0  0  0
  188.4540  177.1410  147.7680 C   0  0  0  0  0  1  0  0  0  0  0  0
  189.1750  177.3730  141.6810 C   0  0  0  0  0  3  0  0  0  0  0  0
  186.3840  178.0940  144.7490 C   0  0  0  0  0  3  0  0  0  0  0  0
  182.3590  179.3080  141.9470 O   0  0  0  0  0  0  0  0  0  0  0  0
  186.7680  177.8560  146.0710 C   0  0  0  0  0  3  0  0  0  0  0  0
  183.3210  177.3410  141.2380 O   0  0  0  0  0  0  0  0  0  0  0  0
  186.9720  178.0810  142.3500 C   0  0  0  0  0  0  0  0  0  0  0  0
  187.3230  178.1450  140.1460 C   0  0  0  0  0  0  0  0  0  0  0  0
  188.0540  177.3920  146.3590 C   0  0  0  0  0  0  0  0  0  0  0  0
  188.5950  177.3920  143.9980 C   0  0  0  0  0  0  0  0  0  0  0  0
  184.9690  178.9390  139.4570 C   0  0  0  0  0  2  0  0  0  0  0  0
  187.2880  177.8670  143.7030 C   0  0  0  0  0  0  0  0  0  0  0  0
  183.3690  178.5550  141.9150 C   0  0  0  0  0  0  0  0  0  0  0  0
  189.4900  177.1620  142.9910 N   0  0  0  0  0  0  0  0  0  0  0  0
  182.8510  177.2940  139.9020 C   0  0  0  0  0  2  0  0  0  0  0  0
  184.2530  177.4200  138.7360 S   0  0  0  0  0  0  0  0  0  0  0  0
  184.6420  179.0040  142.5460 C   0  0  0  0  0  2  0  0  0  0  0  0
  189.1640  177.8370  136.2760 C   0  0  0  0  0  3  0  0  0  0  0  0
  187.9560  178.0430  138.8070 C   0  0  0  0  0  0  0  0  0  0  0  0
  187.7880  176.8890  138.0260 C   0  0  0  0  0  3  0  0  0  0  0  0
  188.3880  176.7850  136.7670 C   0  0  0  0  0  3  0  0  0  0  0  0
  189.3420  178.9900  137.0430 C   0  0  0  0  0  3  0  0  0  0  0  0
  188.7420  179.0900  138.3020 C   0  0  0  0  0  3  0  0  0  0  0  0
  1  3  1  0  0  0  0
  2  6  2  0  0  0  0
  2 11  1  0  0  0  0
  3 11  1  0  0  0  0
  3 21  1  0  0  0  0
  4 13  2  0  0  0  0
  6 18  1  0  0  0  0
  7  9  2  0  0  0  0
  9 13  1  0  0  0  0
 10 17  1  0  0  0  0
 11 16  2  0  0  0  0
 12  1  2  0  0  0  0
 12  2  1  0  0  0  0
 13  5  1  0  0  0  0
 14  4  1  0  0  0  0
 15  1  1  0  0  0  0
 16 14  1  0  0  0  0
 16  7  1  0  0  0  0
 17  8  2  0  0  0  0
 17 21  1  0  0  0  0
 18 14  2  0  0  0  0
 19 10  1  0  0  0  0
 20 15  1  0  0  0  0
 20 19  1  0  0  0  0
 22 25  2  0  0  0  0
 22 26  1  0  0  0  0
 23 12  1  0  0  0  0
 24 23  2  0  0  0  0
 25 24  1  0  0  0  0
 26 27  2  0  0  0  0
 27 23  1  0  0  0  0
M  END
>  <MODEL>
1

>  <REMARK>
 VINA RESULT:      -8.4      0.000      0.000
  Name = 
  1 active torsions:
  status: ('A' for Active; 'I' for Inactive)
    1  A    between atoms: C_9  and  C_15
                            x       y       z     vdW  Elec       q    Type
                         _______ _______ _______ _____ _____    ______ ____

>  <TORSDO>
F 1

$$$$
=
 OpenBabel10262420023D

 27 31  0  0  0  0  0  0  0  0999 V2000
  189.1050  178.0820  143.1920 C   0  0  0  0  0  0  0  0  0  0  0  0
  187.5120  177.8000  144.6970 C   0  0  0  0  0  0  0  0  0  0  0  0
  187.9290  178.4090  142.5850 N   0  0  0  0  0  0  0  0  0  0  0  0
  183.4090  178.4190  144.5190 C   0  0  0  0  0  3  0  0  0  0  0  0
  181.3360  179.0780  143.2940 C   0  0  0  0  0  1  0  0  0  0  0  0
  186.7190  177.5660  145.8180 C   0  0  0  0  0  3  0  0  0  0  0  0
  184.9640  178.9130  142.2360 C   0  0  0  0  0  3  0  0  0  0  0  0
  189.0390  178.8890  139.2490 O   0  0  0  0  0  0  0  0  0  0  0  0
  183.5810  179.1100  142.2020 C   0  0  0  0  0  3  0  0  0  0  0  0
  188.7990  176.8930  140.3690 O   0  0  0  0  0  0  0  0  0  0  0  0
  186.9650  178.2450  143.5190 C   0  0  0  0  0  0  0  0  0  0  0  0
  188.8820  177.6870  144.5180 C   0  0  0  0  0  0  0  0  0  0  0  0
  182.8060  178.8650  143.3380 C   0  0  0  0  0  0  0  0  0  0  0  0
  184.7910  178.2170  144.5660 C   0  0  0  0  0  0  0  0  0  0  0  0
  190.4300  178.0330  142.4860 C   0  0  0  0  0  2  0  0  0  0  0  0
  185.5820  178.4680  143.4120 C   0  0  0  0  0  0  0  0  0  0  0  0
  188.5450  178.2530  140.2180 C   0  0  0  0  0  0  0  0  0  0  0  0
  185.3750  177.7800  145.7220 N   0  0  0  0  0  0  0  0  0  0  0  0
  190.1330  176.4130  140.3240 C   0  0  0  0  0  2  0  0  0  0  0  0
  190.8240  176.3120  142.0120 S   0  0  0  0  0  0  0  0  0  0  0  0
  187.7440  178.9770  141.2440 C   0  0  0  0  0  2  0  0  0  0  0  0
  191.7740  176.4080  147.4290 C   0  0  0  0  0  3  0  0  0  0  0  0
  189.8830  177.2500  145.5250 C   0  0  0  0  0  0  0  0  0  0  0  0
  190.9790  176.4610  145.1440 C   0  0  0  0  0  3  0  0  0  0  0  0
  191.9210  176.0420  146.0890 C   0  0  0  0  0  3  0  0  0  0  0  0
  190.6860  177.1900  147.8230 C   0  0  0  0  0  3  0  0  0  0  0  0
  189.7470  177.6070  146.8760 C   0  0  0  0  0  3  0  0  0  0  0  0
  1 12  2  0  0  0  0
  2  6  1  0  0  0  0
  3  1  1  0  0  0  0
  3 11  1  0  0  0  0
  4 14  1  0  0  0  0
  5 13  1  0  0  0  0
  7 16  1  0  0  0  0
  8 17  2  0  0  0  0
  9  7  2  0  0  0  0
  9 13  1  0  0  0  0
 11  2  2  0  0  0  0
 12  2  1  0  0  0  0
 12 23  1  0  0  0  0
 13  4  2  0  0  0  0
 14 18  1  0  0  0  0
 15  1  1  0  0  0  0
 16 11  1  0  0  0  0
 16 14  2  0  0  0  0
 17 10  1  0  0  0  0
 17 21  1  0  0  0  0
 18  6  2  0  0  0  0
 19 10  1  0  0  0  0
 19 20  1  0  0  0  0
 20 15  1  0  0  0  0
 21  3  1  0  0  0  0
 22 26  1  0  0  0  0
 23 27  1  0  0  0  0
 24 23  2  0  0  0  0
 24 25  1  0  0  0  0
 25 22  2  0  0  0  0
 27 26  2  0  0  0  0
M  END
>  <MODEL>
2

>  <REMARK>
 VINA RESULT:      -8.3      2.961      6.441
  Name = 
  1 active torsions:
  status: ('A' for Active; 'I' for Inactive)
    1  A    between atoms: C_9  and  C_15
                            x       y       z     vdW  Elec       q    Type
                         _______ _______ _______ _____ _____    ______ ____

>  <TORSDO>
F 1

$$$$
=
 OpenBabel10262420023D

 27 31  0  0  0  0  0  0  0  0999 V2000
  185.8560  178.4820  139.9310 C   0  0  0  0  0  0  0  0  0  0  0  0
  187.6890  177.8510  140.9900 C   0  0  0  0  0  0  0  0  0  0  0  0
  185.5650  178.4970  141.2620 N   0  0  0  0  0  0  0  0  0  0  0  0
  188.5340  177.4420  145.0360 C   0  0  0  0  0  3  0  0  0  0  0  0
  187.8740  177.5460  147.4410 C   0  0  0  0  0  1  0  0  0  0  0  0
  188.9590  177.4550  141.4040 C   0  0  0  0  0  3  0  0  0  0  0  0
  185.9640  178.2520  144.2530 C   0  0  0  0  0  3  0  0  0  0  0  0
  182.0820  179.1610  141.1510 O   0  0  0  0  0  0  0  0  0  0  0  0
  186.2730  178.1030  145.6080 C   0  0  0  0  0  3  0  0  0  0  0  0
  183.1470  177.1920  140.6180 O   0  0  0  0  0  0  0  0  0  0  0  0
  186.6970  178.1230  141.8990 C   0  0  0  0  0  0  0  0  0  0  0  0
  187.1810  178.0730  139.7200 C   0  0  0  0  0  0  0  0  0  0  0  0
  187.5530  177.7020  145.9990 C   0  0  0  0  0  0  0  0  0  0  0  0
  188.2380  177.5870  143.6780 C   0  0  0  0  0  0  0  0  0  0  0  0
  184.8500  178.7430  138.8470 C   0  0  0  0  0  2  0  0  0  0  0  0
  186.9370  177.9980  143.2780 C   0  0  0  0  0  0  0  0  0  0  0  0
  183.1150  178.4440  141.2230 C   0  0  0  0  0  0  0  0  0  0  0  0
  189.2000  177.3310  142.7410 N   0  0  0  0  0  0  0  0  0  0  0  0
  182.7620  177.0530  139.2610 C   0  0  0  0  0  2  0  0  0  0  0  0
  184.2270  177.1610  138.1750 S   0  0  0  0  0  0  0  0  0  0  0  0
  184.3320  178.9730  141.9010 C   0  0  0  0  0  2  0  0  0  0  0  0
  189.2460  177.6360  135.9770 C   0  0  0  0  0  3  0  0  0  0  0  0
  187.8980  177.9170  138.4280 C   0  0  0  0  0  0  0  0  0  0  0  0
  188.7090  178.9510  137.9360 C   0  0  0  0  0  3  0  0  0  0  0  0
  189.3810  178.8130  136.7170 C   0  0  0  0  0  3  0  0  0  0  0  0
  188.4400  176.6000  136.4530 C   0  0  0  0  0  3  0  0  0  0  0  0
  187.7690  176.7420  137.6710 C   0  0  0  0  0  3  0  0  0  0  0  0
  1  3  1  0  0  0  0
  2  6  2  0  0  0  0
  2 11  1  0  0  0  0
  3 11  1  0  0  0  0
  3 21  1  0  0  0  0
  4 13  2  0  0  0  0
  6 18  1  0  0  0  0
  7  9  2  0  0  0  0
  8 17  2  0  0  0  0
  9 13  1  0  0  0  0
 10 17  1  0  0  0  0
 11 16  2  0  0  0  0
 12  1  2  0  0  0  0
 12  2  1  0  0  0  0
 13  5  1  0  0  0  0
 14  4  1  0  0  0  0
 15  1  1  0  0  0  0
 16 14  1  0  0  0  0
 16  7  1  0  0  0  0
 17 21  1  0  0  0  0
 18 14  2  0  0  0  0
 19 10  1  0  0  0  0
 20 15  1  0  0  0  0
 20 19  1  0  0  0  0
 22 26  2  0  0  0  0
 22 25  1  0  0  0  0
 23 12  1  0  0  0  0
 24 23  1  0  0  0  0
 25 24  2  0  0  0  0
 26 27  1  0  0  0  0
 27 23  2  0  0  0  0
M  END
>  <MODEL>
3

>  <REMARK>
 VINA RESULT:      -8.1      0.579      1.096
  Name = 
  1 active torsions:
  status: ('A' for Active; 'I' for Inactive)
    1  A    between atoms: C_9  and  C_15
                            x       y       z     vdW  Elec       q    Type
                         _______ _______ _______ _____ _____    ______ ____

>  <TORSDO>
F 1

$$$$
=
 OpenBabel10262420023D

 27 31  0  0  0  0  0  0  0  0999 V2000
  189.3470  176.8510  141.0340 C   0  0  0  0  0  0  0  0  0  0  0  0
  187.4530  177.9680  141.2380 C   0  0  0  0  0  0  0  0  0  0  0  0
  189.0200  176.8300  142.3570 N   0  0  0  0  0  0  0  0  0  0  0  0
  185.0690  178.7760  144.5420 C   0  0  0  0  0  3  0  0  0  0  0  0
  184.5760  178.6330  146.9850 C   0  0  0  0  0  1  0  0  0  0  0  0
  186.2680  178.6870  141.0890 C   0  0  0  0  0  3  0  0  0  0  0  0
  187.4400  177.3160  144.8940 C   0  0  0  0  0  3  0  0  0  0  0  0
  191.9290  175.3190  143.7160 O   0  0  0  0  0  0  0  0  0  0  0  0
  186.6220  177.6050  145.9900 C   0  0  0  0  0  3  0  0  0  0  0  0
  191.7170  177.4620  142.9030 O   0  0  0  0  0  0  0  0  0  0  0  0
  187.8540  177.5050  142.4670 C   0  0  0  0  0  0  0  0  0  0  0  0
  188.3890  177.5640  140.3000 C   0  0  0  0  0  0  0  0  0  0  0  0
  185.4400  178.3310  145.8150 C   0  0  0  0  0  0  0  0  0  0  0  0
  185.8790  178.4950  143.4380 C   0  0  0  0  0  0  0  0  0  0  0  0
  190.6260  176.2940  140.4760 C   0  0  0  0  0  2  0  0  0  0  0  0
  187.0790  177.7550  143.6130 C   0  0  0  0  0  0  0  0  0  0  0  0
  191.1760  176.2720  143.3820 C   0  0  0  0  0  0  0  0  0  0  0  0
  185.5120  178.9340  142.1970 N   0  0  0  0  0  0  0  0  0  0  0  0
  192.6720  177.4330  141.8560 C   0  0  0  0  0  2  0  0  0  0  0  0
  191.8440  177.6360  140.2400 S   0  0  0  0  0  0  0  0  0  0  0  0
  189.6970  176.0970  143.4340 C   0  0  0  0  0  2  0  0  0  0  0  0
  188.3250  178.3110  136.0680 C   0  0  0  0  0  3  0  0  0  0  0  0
  188.3640  177.8270  138.8380 C   0  0  0  0  0  0  0  0  0  0  0  0
  187.6870  176.9570  137.9700 C   0  0  0  0  0  3  0  0  0  0  0  0
  187.6660  177.1960  136.5920 C   0  0  0  0  0  3  0  0  0  0  0  0
  189.0050  179.1840  136.9210 C   0  0  0  0  0  3  0  0  0  0  0  0
  189.0240  178.9410  138.2970 C   0  0  0  0  0  3  0  0  0  0  0  0
  1  3  1  0  0  0  0
  2 11  1  0  0  0  0
  3 11  1  0  0  0  0
  3 21  1  0  0  0  0
  4 13  2  0  0  0  0
  6  2  2  0  0  0  0
  6 18  1  0  0  0  0
  7  9  2  0  0  0  0
 10 17  1  0  0  0  0
 11 16  2  0  0  0  0
 12  1  2  0  0  0  0
 12  2  1  0  0  0  0
 13  9  1  0  0  0  0
 13  5  1  0  0  0  0
 14 16  1  0  0  0  0
 14  4  1  0  0  0  0
 15  1  1  0  0  0  0
 16  7  1  0  0  0  0
 17 21  1  0  0  0  0
 17  8  2  0  0  0  0
 18 14  2  0  0  0  0
 19 10  1  0  0  0  0
 20 15  1  0  0  0  0
 20 19  1  0  0  0  0
 22 25  2  0  0  0  0
 22 26  1  0  0  0  0
 23 12  1  0  0  0  0
 24 23  2  0  0  0  0
 25 24  1  0  0  0  0
 26 27  2  0  0  0  0
 27 23  1  0  0  0  0
M  END
>  <MODEL>
4

>  <REMARK>
 VINA RESULT:      -8.1      3.211      4.735
  Name = 
  1 active torsions:
  status: ('A' for Active; 'I' for Inactive)
    1  A    between atoms: C_9  and  C_15
                            x       y       z     vdW  Elec       q    Type
                         _______ _______ _______ _____ _____    ______ ____

>  <TORSDO>
F 1

$$$$
=
 OpenBabel10262420023D

 27 31  0  0  0  0  0  0  0  0999 V2000
  187.7290  177.1550  143.0200 C   0  0  0  0  0  0  0  0  0  0  0  0
  187.7900  177.5100  145.1990 C   0  0  0  0  0  0  0  0  0  0  0  0
  188.9630  176.7640  143.4470 N   0  0  0  0  0  0  0  0  0  0  0  0
  190.7470  176.8020  148.0270 C   0  0  0  0  0  3  0  0  0  0  0  0
  193.0280  176.0200  148.6750 C   0  0  0  0  0  1  0  0  0  0  0  0
  187.5610  177.8060  146.5410 C   0  0  0  0  0  3  0  0  0  0  0  0
  191.2540  176.1810  145.3380 C   0  0  0  0  0  3  0  0  0  0  0  0
  190.5310  176.0760  140.3390 O   0  0  0  0  0  0  0  0  0  0  0  0
  192.2330  175.9550  146.3090 C   0  0  0  0  0  3  0  0  0  0  0  0
  190.0270  178.1400  141.2230 O   0  0  0  0  0  0  0  0  0  0  0  0
  188.9830  176.9740  144.7820 C   0  0  0  0  0  0  0  0  0  0  0  0
  186.9650  177.6370  144.0920 C   0  0  0  0  0  0  0  0  0  0  0  0
  191.9820  176.2630  147.6490 C   0  0  0  0  0  0  0  0  0  0  0  0
  189.7600  177.0330  147.0660 C   0  0  0  0  0  0  0  0  0  0  0  0
  187.3070  177.1810  141.5780 C   0  0  0  0  0  2  0  0  0  0  0  0
  190.0130  176.7180  145.7030 C   0  0  0  0  0  0  0  0  0  0  0  0
  190.2270  176.7690  141.3470 C   0  0  0  0  0  0  0  0  0  0  0  0
  188.5560  177.5600  147.4420 N   0  0  0  0  0  0  0  0  0  0  0  0
  189.1570  178.6410  140.2230 C   0  0  0  0  0  2  0  0  0  0  0  0
  187.4770  178.8720  140.9050 S   0  0  0  0  0  0  0  0  0  0  0  0
  190.0110  176.1020  142.6620 C   0  0  0  0  0  2  0  0  0  0  0  0
  182.9400  179.1400  144.0260 C   0  0  0  0  0  3  0  0  0  0  0  0
  185.5760  178.1610  144.0660 C   0  0  0  0  0  0  0  0  0  0  0  0
  184.9430  178.5620  145.2530 C   0  0  0  0  0  3  0  0  0  0  0  0
  183.6330  179.0490  145.2350 C   0  0  0  0  0  3  0  0  0  0  0  0
  183.5560  178.7430  142.8370 C   0  0  0  0  0  3  0  0  0  0  0  0
  184.8660  178.2550  142.8590 C   0  0  0  0  0  3  0  0  0  0  0  0
  1  3  1  0  0  0  0
  1 12  2  0  0  0  0
  2  6  1  0  0  0  0
  3 11  1  0  0  0  0
  6 18  2  0  0  0  0
  7 16  2  0  0  0  0
  7  9  1  0  0  0  0
  8 17  2  0  0  0  0
  9 13  2  0  0  0  0
 10 17  1  0  0  0  0
 11  2  2  0  0  0  0
 11 16  1  0  0  0  0
 12  2  1  0  0  0  0
 13  4  1  0  0  0  0
 13  5  1  0  0  0  0
 14 18  1  0  0  0  0
 14  4  2  0  0  0  0
 15  1  1  0  0  0  0
 16 14  1  0  0  0  0
 17 21  1  0  0  0  0
 19 20  1  0  0  0  0
 19 10  1  0  0  0  0
 20 15  1  0  0  0  0
 21  3  1  0  0  0  0
 22 25  1  0  0  0  0
 23 12  1  0  0  0  0
 23 24  1  0  0  0  0
 25 24  2  0  0  0  0
 26 27  1  0  0  0  0
 26 22  2  0  0  0  0
 27 23  2  0  0  0  0
M  END
>  <MODEL>
5

>  <REMARK>
 VINA RESULT:      -8.1      2.998      5.895
  Name = 
  1 active torsions:
  status: ('A' for Active; 'I' for Inactive)
    1  A    between atoms: C_9  and  C_15
                            x       y       z     vdW  Elec       q    Type
                         _______ _______ _______ _____ _____    ______ ____

>  <TORSDO>
F 1

$$$$
=
 OpenBabel10262420023D

 27 31  0  0  0  0  0  0  0  0999 V2000
  187.8610  178.2530  139.9020 C   0  0  0  0  0  0  0  0  0  0  0  0
  188.6480  177.3760  141.7710 C   0  0  0  0  0  0  0  0  0  0  0  0
  186.9500  178.5260  140.8790 N   0  0  0  0  0  0  0  0  0  0  0  0
  187.1680  177.3690  145.6510 C   0  0  0  0  0  3  0  0  0  0  0  0
  185.4330  177.9670  147.3430 C   0  0  0  0  0  1  0  0  0  0  0  0
  189.3670  176.7620  142.7940 C   0  0  0  0  0  3  0  0  0  0  0  0
  185.6870  178.6280  143.6280 C   0  0  0  0  0  3  0  0  0  0  0  0
  184.3410  179.9520  138.9420 O   0  0  0  0  0  0  0  0  0  0  0  0
  185.2090  178.6080  144.9410 C   0  0  0  0  0  3  0  0  0  0  0  0
  184.9480  177.7350  139.0530 O   0  0  0  0  0  0  0  0  0  0  0  0
  187.4490  177.9960  142.0180 C   0  0  0  0  0  0  0  0  0  0  0  0
  188.9390  177.5240  140.4240 C   0  0  0  0  0  0  0  0  0  0  0  0
  185.9470  177.9830  145.9500 C   0  0  0  0  0  0  0  0  0  0  0  0
  187.6560  177.3810  144.3420 C   0  0  0  0  0  0  0  0  0  0  0  0
  187.6620  178.5810  138.4500 C   0  0  0  0  0  2  0  0  0  0  0  0
  186.9090  178.0190  143.3150 C   0  0  0  0  0  0  0  0  0  0  0  0
  184.9540  179.0340  139.5500 C   0  0  0  0  0  0  0  0  0  0  0  0
  188.8490  176.7780  144.0560 N   0  0  0  0  0  0  0  0  0  0  0  0
  185.2860  177.4940  137.6970 C   0  0  0  0  0  2  0  0  0  0  0  0
  187.0650  177.1050  137.5500 S   0  0  0  0  0  0  0  0  0  0  0  0
  185.7470  179.3600  140.7690 C   0  0  0  0  0  2  0  0  0  0  0  0
  192.4160  176.0920  138.3440 C   0  0  0  0  0  3  0  0  0  0  0  0
  190.1400  177.0230  139.7070 C   0  0  0  0  0  0  0  0  0  0  0  0
  191.4170  177.5030  140.0360 C   0  0  0  0  0  3  0  0  0  0  0  0
  192.5500  177.0400  139.3600 C   0  0  0  0  0  3  0  0  0  0  0  0
  191.1510  175.6080  138.0030 C   0  0  0  0  0  3  0  0  0  0  0  0
  190.0210  176.0730  138.6810 C   0  0  0  0  0  3  0  0  0  0  0  0
  1 12  2  0  0  0  0
  1  3  1  0  0  0  0
  2 11  2  0  0  0  0
  2  6  1  0  0  0  0
  3 11  1  0  0  0  0
  4 13  1  0  0  0  0
  6 18  2  0  0  0  0
  7  9  1  0  0  0  0
  8 17  2  0  0  0  0
  9 13  2  0  0  0  0
 10 17  1  0  0  0  0
 11 16  1  0  0  0  0
 12  2  1  0  0  0  0
 13  5  1  0  0  0  0
 14  4  2  0  0  0  0
 15  1  1  0  0  0  0
 16  7  2  0  0  0  0
 16 14  1  0  0  0  0
 17 21  1  0  0  0  0
 18 14  1  0  0  0  0
 19 10  1  0  0  0  0
 20 19  1  0  0  0  0
 20 15  1  0  0  0  0
 21  3  1  0  0  0  0
 22 25  1  0  0  0  0
 23 24  1  0  0  0  0
 23 12  1  0  0  0  0
 25 24  2  0  0  0  0
 26 22  2  0  0  0  0
 26 27  1  0  0  0  0
 27 23  2  0  0  0  0
M  END
>  <MODEL>
6

>  <REMARK>
 VINA RESULT:      -8.0      2.095      2.686
  Name = 
  1 active torsions:
  status: ('A' for Active; 'I' for Inactive)
    1  A    between atoms: C_9  and  C_15
                            x       y       z     vdW  Elec       q    Type
                         _______ _______ _______ _____ _____    ______ ____

>  <TORSDO>
F 1

$$$$
=
 OpenBabel10262420023D

 27 31  0  0  0  0  0  0  0  0999 V2000
  188.0410  178.2870  140.4660 C   0  0  0  0  0  0  0  0  0  0  0  0
  186.8400  178.1450  142.3150 C   0  0  0  0  0  0  0  0  0  0  0  0
  186.7410  178.4850  140.1060 N   0  0  0  0  0  0  0  0  0  0  0  0
  182.7660  178.5760  142.9960 C   0  0  0  0  0  3  0  0  0  0  0  0
  180.4350  178.9860  142.2010 C   0  0  0  0  0  1  0  0  0  0  0  0
  186.3290  178.0320  143.6060 C   0  0  0  0  0  3  0  0  0  0  0  0
  183.7450  178.8230  140.3780 C   0  0  0  0  0  3  0  0  0  0  0  0
  187.0570  178.5600  136.5720 O   0  0  0  0  0  0  0  0  0  0  0  0
  182.3780  178.9600  140.6340 C   0  0  0  0  0  3  0  0  0  0  0  0
  187.2040  176.7220  137.9500 O   0  0  0  0  0  0  0  0  0  0  0  0
  186.0190  178.4090  141.2460 C   0  0  0  0  0  0  0  0  0  0  0  0
  188.1420  178.0620  141.8460 C   0  0  0  0  0  0  0  0  0  0  0  0
  181.8890  178.8390  141.9380 C   0  0  0  0  0  0  0  0  0  0  0  0
  184.1350  178.4360  142.7540 C   0  0  0  0  0  0  0  0  0  0  0  0
  189.1790  178.1960  139.4900 C   0  0  0  0  0  2  0  0  0  0  0  0
  184.6340  178.5620  141.4290 C   0  0  0  0  0  0  0  0  0  0  0  0
  186.8320  178.0390  137.6970 C   0  0  0  0  0  0  0  0  0  0  0  0
  184.9860  178.1790  143.7910 N   0  0  0  0  0  0  0  0  0  0  0  0
  188.5250  176.2930  137.6630 C   0  0  0  0  0  2  0  0  0  0  0  0
  189.5750  176.4440  139.1500 S   0  0  0  0  0  0  0  0  0  0  0  0
  186.2290  178.8620  138.7830 C   0  0  0  0  0  2  0  0  0  0  0  0
  191.6750  177.3020  144.1710 C   0  0  0  0  0  3  0  0  0  0  0  0
  189.3660  177.8030  142.6460 C   0  0  0  0  0  0  0  0  0  0  0  0
  189.8070  176.4880  142.8670 C   0  0  0  0  0  3  0  0  0  0  0  0
  190.9550  176.2380  143.6240 C   0  0  0  0  0  3  0  0  0  0  0  0
  191.2460  178.6150  143.9620 C   0  0  0  0  0  3  0  0  0  0  0  0
  190.0980  178.8620  143.2050 C   0  0  0  0  0  3  0  0  0  0  0  0
  1 12  2  0  0  0  0
  2  6  1  0  0  0  0
  3  1  1  0  0  0  0
  3 11  1  0  0  0  0
  6 18  2  0  0  0  0
  7  9  2  0  0  0  0
  7 16  1  0  0  0  0
  8 17  2  0  0  0  0
  9 13  1  0  0  0  0
 11 16  1  0  0  0  0
 11  2  2  0  0  0  0
 12  2  1  0  0  0  0
 12 23  1  0  0  0  0
 13  5  1  0  0  0  0
 13  4  2  0  0  0  0
 14  4  1  0  0  0  0
 14 18  1  0  0  0  0
 15  1  1  0  0  0  0
 16 14  2  0  0  0  0
 17 10  1  0  0  0  0
 17 21  1  0  0  0  0
 19 10  1  0  0  0  0
 19 20  1  0  0  0  0
 20 15  1  0  0  0  0
 21  3  1  0  0  0  0
 23 24  2  0  0  0  0
 23 27  1  0  0  0  0
 24 25  1  0  0  0  0
 25 22  2  0  0  0  0
 26 22  1  0  0  0  0
 27 26  2  0  0  0  0
M  END
>  <MODEL>
7

>  <REMARK>
 VINA RESULT:      -7.9      2.743      5.516
  Name = 
  1 active torsions:
  status: ('A' for Active; 'I' for Inactive)
    1  A    between atoms: C_9  and  C_15
                            x       y       z     vdW  Elec       q    Type
                         _______ _______ _______ _____ _____    ______ ____

>  <TORSDO>
F 1

$$$$
=
 OpenBabel10262420023D

 27 31  0  0  0  0  0  0  0  0999 V2000
  188.2740  178.2190  143.1690 C   0  0  0  0  0  0  0  0  0  0  0  0
  186.1660  178.1810  143.8260 C   0  0  0  0  0  0  0  0  0  0  0  0
  187.5120  178.3870  142.0510 N   0  0  0  0  0  0  0  0  0  0  0  0
  182.6130  178.6280  141.7210 C   0  0  0  0  0  3  0  0  0  0  0  0
  181.3430  178.9760  139.6000 C   0  0  0  0  0  1  0  0  0  0  0  0
  184.9440  178.1430  144.4950 C   0  0  0  0  0  3  0  0  0  0  0  0
  185.0470  178.7230  140.3270 C   0  0  0  0  0  3  0  0  0  0  0  0
  190.0140  178.2530  139.5400 O   0  0  0  0  0  0  0  0  0  0  0  0
  183.8370  178.8670  139.6420 C   0  0  0  0  0  3  0  0  0  0  0  0
  189.1860  176.5020  140.7820 O   0  0  0  0  0  0  0  0  0  0  0  0
  186.2260  178.3750  142.4680 C   0  0  0  0  0  0  0  0  0  0  0  0
  187.4630  178.0780  144.3030 C   0  0  0  0  0  0  0  0  0  0  0  0
  182.6250  178.8210  140.3360 C   0  0  0  0  0  0  0  0  0  0  0  0
  183.8160  178.4820  142.4180 C   0  0  0  0  0  0  0  0  0  0  0  0
  189.7700  178.0760  143.1530 C   0  0  0  0  0  2  0  0  0  0  0  0
  185.0500  178.5310  141.7140 C   0  0  0  0  0  0  0  0  0  0  0  0
  189.1060  177.7990  140.2840 C   0  0  0  0  0  0  0  0  0  0  0  0
  183.7980  178.2920  143.7710 N   0  0  0  0  0  0  0  0  0  0  0  0
  190.3690  176.0640  141.4270 C   0  0  0  0  0  2  0  0  0  0  0  0
  190.2320  176.3090  143.2330 S   0  0  0  0  0  0  0  0  0  0  0  0
  187.9760  178.6810  140.6900 C   0  0  0  0  0  2  0  0  0  0  0  0
  188.6850  177.5050  148.3830 C   0  0  0  0  0  3  0  0  0  0  0  0
  187.8840  177.8740  145.7130 C   0  0  0  0  0  0  0  0  0  0  0  0
  187.1450  178.4360  146.7650 C   0  0  0  0  0  3  0  0  0  0  0  0
  187.5420  178.2530  148.0940 C   0  0  0  0  0  3  0  0  0  0  0  0
  189.4320  176.9420  147.3450 C   0  0  0  0  0  3  0  0  0  0  0  0
  189.0330  177.1280  146.0190 C   0  0  0  0  0  3  0  0  0  0  0  0
  1 12  2  0  0  0  0
  2 12  1  0  0  0  0
  2  6  1  0  0  0  0
  3 11  1  0  0  0  0
  3  1  1  0  0  0  0
  4 14  1  0  0  0  0
  5 13  1  0  0  0  0
  7 16  1  0  0  0  0
  8 17  2  0  0  0  0
  9  7  2  0  0  0  0
  9 13  1  0  0  0  0
 10 19  1  0  0  0  0
 11  2  2  0  0  0  0
 12 23  1  0  0  0  0
 13  4  2  0  0  0  0
 14 18  1  0  0  0  0
 15  1  1  0  0  0  0
 15 20  1  0  0  0  0
 16 14  2  0  0  0  0
 16 11  1  0  0  0  0
 17 21  1  0  0  0  0
 17 10  1  0  0  0  0
 18  6  2  0  0  0  0
 19 20  1  0  0  0  0
 21  3  1  0  0  0  0
 23 27  2  0  0  0  0
 23 24  1  0  0  0  0
 24 25  2  0  0  0  0
 25 22  1  0  0  0  0
 26 22  2  0  0  0  0
 27 26  1  0  0  0  0
M  END
>  <MODEL>
8

>  <REMARK>
 VINA RESULT:      -7.8      2.937      7.048
  Name = 
  1 active torsions:
  status: ('A' for Active; 'I' for Inactive)
    1  A    between atoms: C_9  and  C_15
                            x       y       z     vdW  Elec       q    Type
                         _______ _______ _______ _____ _____    ______ ____

>  <TORSDO>
F 1

$$$$
=
 OpenBabel10262420023D

 27 31  0  0  0  0  0  0  0  0999 V2000
  189.1560  177.1480  142.3320 C   0  0  0  0  0  0  0  0  0  0  0  0
  187.3760  177.9040  141.2650 C   0  0  0  0  0  0  0  0  0  0  0  0
  188.2050  177.3920  143.2780 N   0  0  0  0  0  0  0  0  0  0  0  0
  183.6180  179.0340  142.6240 C   0  0  0  0  0  3  0  0  0  0  0  0
  181.9620  179.4040  144.4550 C   0  0  0  0  0  1  0  0  0  0  0  0
  186.4030  178.3280  140.3620 C   0  0  0  0  0  3  0  0  0  0  0  0
  185.5410  178.1790  144.4800 C   0  0  0  0  0  3  0  0  0  0  0  0
  190.0830  176.8360  146.2370 O   0  0  0  0  0  0  0  0  0  0  0  0
  184.2690  178.5680  144.9120 C   0  0  0  0  0  3  0  0  0  0  0  0
  190.2270  178.6340  144.8070 O   0  0  0  0  0  0  0  0  0  0  0  0
  187.1180  177.8410  142.6110 C   0  0  0  0  0  0  0  0  0  0  0  0
  188.6740  177.4660  141.0550 C   0  0  0  0  0  0  0  0  0  0  0  0
  183.3110  178.9930  143.9880 C   0  0  0  0  0  0  0  0  0  0  0  0
  184.8850  178.6490  142.1790 C   0  0  0  0  0  0  0  0  0  0  0  0
  190.5630  176.7230  142.6440 C   0  0  0  0  0  2  0  0  0  0  0  0
  185.8610  178.2140  143.1170 C   0  0  0  0  0  0  0  0  0  0  0  0
  189.5660  177.5190  145.3130 C   0  0  0  0  0  0  0  0  0  0  0  0
  185.1800  178.6920  140.8450 N   0  0  0  0  0  0  0  0  0  0  0  0
  191.5810  178.5300  144.4010 C   0  0  0  0  0  2  0  0  0  0  0  0
  191.6780  178.1710  142.6120 S   0  0  0  0  0  0  0  0  0  0  0  0
  188.2730  177.0860  144.7120 C   0  0  0  0  0  2  0  0  0  0  0  0
  190.7070  177.1360  137.2830 C   0  0  0  0  0  3  0  0  0  0  0  0
  189.3820  177.3530  139.7540 C   0  0  0  0  0  0  0  0  0  0  0  0
  189.0750  178.2250  138.6980 C   0  0  0  0  0  3  0  0  0  0  0  0
  189.7330  178.1190  137.4690 C   0  0  0  0  0  3  0  0  0  0  0  0
  191.0210  176.2590  138.3240 C   0  0  0  0  0  3  0  0  0  0  0  0
  190.3610  176.3670  139.5510 C   0  0  0  0  0  3  0  0  0  0  0  0
  1 15  1  0  0  0  0
  1  3  1  0  0  0  0
  2 11  1  0  0  0  0
  3 21  1  0  0  0  0
  4 13  2  0  0  0  0
  6 18  1  0  0  0  0
  6  2  2  0  0  0  0
  7  9  2  0  0  0  0
 10 17  1  0  0  0  0
 11 16  2  0  0  0  0
 11  3  1  0  0  0  0
 12  2  1  0  0  0  0
 12  1  2  0  0  0  0
 13  5  1  0  0  0  0
 13  9  1  0  0  0  0
 14  4  1  0  0  0  0
 14 16  1  0  0  0  0
 16  7  1  0  0  0  0
 17  8  2  0  0  0  0
 18 14  2  0  0  0  0
 19 10  1  0  0  0  0
 20 15  1  0  0  0  0
 20 19  1  0  0  0  0
 21 17  1  0  0  0  0
 22 25  2  0  0  0  0
 22 26  1  0  0  0  0
 23 12  1  0  0  0  0
 24 23  2  0  0  0  0
 25 24  1  0  0  0  0
 26 27  2  0  0  0  0
 27 23  1  0  0  0  0
M  END
>  <MODEL>
9

>  <REMARK>
 VINA RESULT:      -7.8      3.164      5.073
  Name = 
  1 active torsions:
  status: ('A' for Active; 'I' for Inactive)
    1  A    between atoms: C_9  and  C_15
                            x       y       z     vdW  Elec       q    Type
                         _______ _______ _______ _____ _____    ______ ____

>  <TORSDO>
F 1

$$$$
