=
 OpenBabel10262420103D

 27 30  0  0  1  0  0  0  0  0999 V2000
  188.3860  177.6970  142.2670 C   0  0  2  0  0  3  0  0  0  0  0  0
  188.7340  179.3390  140.6990 O   0  0  0  0  0  0  0  0  0  0  0  0
  187.7320  178.6110  141.3230 N   0  0  0  0  0  0  0  0  0  0  0  0
  188.1070  178.4150  139.9240 C   0  0  2  0  0  3  0  0  0  0  0  0
  189.7920  175.5960  137.9310 C   0  0  0  0  0  2  0  0  0  0  0  0
  191.0490  176.2240  137.8520 O   0  0  0  0  0  0  0  0  0  0  0  0
  188.7170  176.6230  138.2850 C   0  0  0  0  0  2  0  0  0  0  0  0
  191.4050  176.5870  139.1650 C   0  0  0  0  0  2  0  0  0  0  0  0
  190.5070  177.7220  139.6550 C   0  0  0  0  0  2  0  0  0  0  0  0
  189.0540  177.2460  139.6380 C   0  0  0  0  0  3  0  0  0  0  0  0
  187.9640  175.5940  143.3770 O   0  0  0  0  0  1  0  0  0  0  0  0
  187.3530  176.7580  142.9080 C   0  0  1  0  0  3  0  0  0  0  0  0
  185.1990  178.9760  145.9430 C   0  0  0  0  0  3  0  0  0  0  0  0
  183.2700  179.2770  144.4820 C   0  0  0  0  0  1  0  0  0  0  0  0
  185.4100  178.0850  143.6770 C   0  0  0  0  0  0  0  0  0  0  0  0
  184.9600  178.1390  142.3600 O   0  0  0  0  0  1  0  0  0  0  0  0
  186.5300  177.4070  143.9870 C   0  0  0  0  0  0  0  0  0  0  0  0
  184.6520  178.7900  144.7380 C   0  0  0  0  0  0  0  0  0  0  0  0
  186.9450  177.2770  145.4340 C   0  0  0  0  0  2  0  0  0  0  0  0
  186.6170  178.5550  146.2090 C   0  0  0  0  0  2  0  0  0  0  0  0
  189.1680  178.4780  143.3250 C   0  0  0  0  0  2  0  0  0  0  0  0
  191.9460  175.9390  145.3810 C   0  0  0  0  0  3  0  0  0  0  0  0
  190.1390  177.6030  144.0420 C   0  0  0  0  0  0  0  0  0  0  0  0
  190.9230  176.6960  143.3210 C   0  0  0  0  0  3  0  0  0  0  0  0
  191.8270  175.8650  143.9900 C   0  0  0  0  0  3  0  0  0  0  0  0
  191.1630  176.8440  146.1030 C   0  0  0  0  0  3  0  0  0  0  0  0
  190.2600  177.6760  145.4350 C   0  0  0  0  0  3  0  0  0  0  0  0
  1 12  1  0  0  0  0
  1 21  1  1  0  0  0
  2  3  1  0  0  0  0
  3  1  1  0  0  0  0
  4 10  1  1  0  0  0
  4  2  1  0  0  0  0
  4  3  1  0  0  0  0
  5  7  1  0  0  0  0
  6  5  1  0  0  0  0
  6  8  1  0  0  0  0
  7 10  1  0  0  0  0
  8  9  1  0  0  0  0
 10  9  1  0  0  0  0
 12 11  1  1  0  0  0
 12 17  1  0  0  0  0
 13 20  1  0  0  0  0
 14 18  1  0  0  0  0
 15 17  2  0  0  0  0
 15 18  1  0  0  0  0
 16 15  1  0  0  0  0
 17 19  1  0  0  0  0
 18 13  2  0  0  0  0
 19 20  1  0  0  0  0
 21 23  1  0  0  0  0
 22 26  1  0  0  0  0
 23 27  1  0  0  0  0
 24 25  1  0  0  0  0
 24 23  2  0  0  0  0
 25 22  2  0  0  0  0
 27 26  2  0  0  0  0
M  END
>  <MODEL>
1

>  <REMARK>
 VINA RESULT:      -7.7      0.000      0.000
  Name = 
  6 active torsions:
  status: ('A' for Active; 'I' for Inactive)
    1  A    between atoms: C_2  and  C_6
    2  A    between atoms: C_2  and  N_15
    3  A    between atoms: C_2  and  C_19
    4  A    between atoms: C_6  and  C_9
    5  A    between atoms: C_14  and  C_19
    6  A    between atoms: C_18  and  C_26
                            x       y       z     vdW  Elec       q    Type
                         _______ _______ _______ _____ _____    ______ ____

>  <TORSDO>
F 6

$$$$
=
 OpenBabel10262420103D

 27 30  0  0  1  0  0  0  0  0999 V2000
  189.1970  177.3380  143.4240 C   0  0  2  0  0  3  0  0  0  0  0  0
  187.6390  175.7210  143.9090 O   0  0  0  0  0  0  0  0  0  0  0  0
  188.1310  176.4970  142.8690 N   0  0  0  0  0  0  0  0  0  0  0  0
  186.8130  176.7050  143.4670 C   0  0  2  0  0  3  0  0  0  0  0  0
  185.3110  179.6640  145.4020 C   0  0  0  0  0  2  0  0  0  0  0  0
  185.1050  178.9490  146.5960 O   0  0  0  0  0  0  0  0  0  0  0  0
  185.4990  178.6930  144.2380 C   0  0  0  0  0  2  0  0  0  0  0  0
  186.3300  178.3340  146.9180 C   0  0  0  0  0  2  0  0  0  0  0  0
  186.6310  177.2160  145.9200 C   0  0  0  0  0  2  0  0  0  0  0  0
  186.7180  177.8160  144.5160 C   0  0  0  0  0  3  0  0  0  0  0  0
  190.7130  179.1260  142.8410 O   0  0  0  0  0  1  0  0  0  0  0  0
  189.5340  178.4830  142.4570 C   0  0  1  0  0  3  0  0  0  0  0  0
  189.5500  176.9020  138.4230 C   0  0  0  0  0  3  0  0  0  0  0  0
  187.5490  178.1610  137.8260 C   0  0  0  0  0  1  0  0  0  0  0  0
  188.5310  178.2230  140.2100 C   0  0  0  0  0  0  0  0  0  0  0  0
  187.3780  178.8460  140.6820 O   0  0  0  0  0  1  0  0  0  0  0  0
  189.5960  178.0610  141.0150 C   0  0  0  0  0  0  0  0  0  0  0  0
  188.5750  177.7280  138.8130 C   0  0  0  0  0  0  0  0  0  0  0  0
  190.8710  177.4740  140.4540 C   0  0  0  0  0  2  0  0  0  0  0  0
  190.5600  176.3950  139.4150 C   0  0  0  0  0  2  0  0  0  0  0  0
  190.4330  176.5010  143.7560 C   0  0  0  0  0  2  0  0  0  0  0  0
  191.3980  176.7010  147.9310 C   0  0  0  0  0  3  0  0  0  0  0  0
  190.7710  176.5800  145.2070 C   0  0  0  0  0  0  0  0  0  0  0  0
  191.8810  175.8860  145.7010 C   0  0  0  0  0  3  0  0  0  0  0  0
  192.1950  175.9470  147.0630 C   0  0  0  0  0  3  0  0  0  0  0  0
  190.2890  177.3940  147.4380 C   0  0  0  0  0  3  0  0  0  0  0  0
  189.9750  177.3340  146.0770 C   0  0  0  0  0  3  0  0  0  0  0  0
  1 21  1  6  0  0  0
  3  1  1  0  0  0  0
  3  4  1  0  0  0  0
  3  2  1  0  0  0  0
  4  2  1  0  0  0  0
  4 10  1  1  0  0  0
  5  6  1  0  0  0  0
  6  8  1  0  0  0  0
  7 10  1  0  0  0  0
  7  5  1  0  0  0  0
  9  8  1  0  0  0  0
 10  9  1  0  0  0  0
 12 11  1  1  0  0  0
 12  1  1  0  0  0  0
 13 18  2  0  0  0  0
 13 20  1  0  0  0  0
 14 18  1  0  0  0  0
 15 16  1  0  0  0  0
 15 17  2  0  0  0  0
 17 12  1  0  0  0  0
 18 15  1  0  0  0  0
 19 17  1  0  0  0  0
 20 19  1  0  0  0  0
 21 23  1  0  0  0  0
 23 24  2  0  0  0  0
 23 27  1  0  0  0  0
 24 25  1  0  0  0  0
 25 22  2  0  0  0  0
 26 22  1  0  0  0  0
 27 26  2  0  0  0  0
M  END
>  <MODEL>
2

>  <REMARK>
 VINA RESULT:      -7.5      1.626      5.778
  Name = 
  6 active torsions:
  status: ('A' for Active; 'I' for Inactive)
    1  A    between atoms: C_2  and  C_6
    2  A    between atoms: C_2  and  N_15
    3  A    between atoms: C_2  and  C_19
    4  A    between atoms: C_6  and  C_9
    5  A    between atoms: C_14  and  C_19
    6  A    between atoms: C_18  and  C_26
                            x       y       z     vdW  Elec       q    Type
                         _______ _______ _______ _____ _____    ______ ____

>  <TORSDO>
F 6

$$$$
=
 OpenBabel10262420103D

 27 30  0  0  1  0  0  0  0  0999 V2000
  188.5240  177.2030  141.7340 C   0  0  2  0  0  3  0  0  0  0  0  0
  190.2440  176.2800  140.5220 O   0  0  0  0  0  0  0  0  0  0  0  0
  189.8840  177.4200  141.2280 N   0  0  0  0  0  0  0  0  0  0  0  0
  190.0060  177.3870  139.7710 C   0  0  2  0  0  3  0  0  0  0  0  0
  187.2220  178.2070  137.2540 C   0  0  0  0  0  2  0  0  0  0  0  0
  187.5190  177.1460  136.3800 O   0  0  0  0  0  0  0  0  0  0  0  0
  188.4130  178.4740  138.1730 C   0  0  0  0  0  2  0  0  0  0  0  0
  187.5580  175.9750  137.1610 C   0  0  0  0  0  2  0  0  0  0  0  0
  188.7860  175.9960  138.0710 C   0  0  0  0  0  2  0  0  0  0  0  0
  188.7000  177.2160  138.9890 C   0  0  0  0  0  3  0  0  0  0  0  0
  188.5590  179.6160  141.6490 O   0  0  0  0  0  1  0  0  0  0  0  0
  187.9240  178.5220  142.2400 C   0  0  1  0  0  3  0  0  0  0  0  0
  183.6230  178.3670  141.7420 C   0  0  0  0  0  3  0  0  0  0  0  0
  183.2440  178.7410  144.1220 C   0  0  0  0  0  1  0  0  0  0  0  0
  185.6190  178.5220  143.1440 C   0  0  0  0  0  0  0  0  0  0  0  0
  186.1510  178.4120  144.4260 O   0  0  0  0  0  1  0  0  0  0  0  0
  186.4310  178.6130  142.0750 C   0  0  0  0  0  0  0  0  0  0  0  0
  184.1490  178.5300  142.9600 C   0  0  0  0  0  0  0  0  0  0  0  0
  185.8360  178.8340  140.7040 C   0  0  0  0  0  2  0  0  0  0  0  0
  184.5100  178.0850  140.5620 C   0  0  0  0  0  2  0  0  0  0  0  0
  188.5160  176.1270  142.8220 C   0  0  0  0  0  2  0  0  0  0  0  0
  191.1700  177.1020  146.0470 C   0  0  0  0  0  3  0  0  0  0  0  0
  189.4380  176.4760  143.9410 C   0  0  0  0  0  0  0  0  0  0  0  0
  190.7970  176.1590  143.8480 C   0  0  0  0  0  3  0  0  0  0  0  0
  191.6630  176.4730  144.9000 C   0  0  0  0  0  3  0  0  0  0  0  0
  189.8110  177.4190  146.1420 C   0  0  0  0  0  3  0  0  0  0  0  0
  188.9450  177.1060  145.0900 C   0  0  0  0  0  3  0  0  0  0  0  0
  1 12  1  0  0  0  0
  1 21  1  1  0  0  0
  2  3  1  0  0  0  0
  3  1  1  0  0  0  0
  4 10  1  6  0  0  0
  4  2  1  0  0  0  0
  4  3  1  0  0  0  0
  5  7  1  0  0  0  0
  6  8  1  0  0  0  0
  6  5  1  0  0  0  0
  7 10  1  0  0  0  0
  8  9  1  0  0  0  0
  9 10  1  0  0  0  0
 12 11  1  6  0  0  0
 13 18  2  0  0  0  0
 15 16  1  0  0  0  0
 17 12  1  0  0  0  0
 17 15  2  0  0  0  0
 18 15  1  0  0  0  0
 18 14  1  0  0  0  0
 19 17  1  0  0  0  0
 20 19  1  0  0  0  0
 20 13  1  0  0  0  0
 21 23  1  0  0  0  0
 22 26  1  0  0  0  0
 23 27  1  0  0  0  0
 24 23  2  0  0  0  0
 24 25  1  0  0  0  0
 25 22  2  0  0  0  0
 27 26  2  0  0  0  0
M  END
>  <MODEL>
3

>  <REMARK>
 VINA RESULT:      -7.3      1.818      2.870
  Name = 
  6 active torsions:
  status: ('A' for Active; 'I' for Inactive)
    1  A    between atoms: C_2  and  C_6
    2  A    between atoms: C_2  and  N_15
    3  A    between atoms: C_2  and  C_19
    4  A    between atoms: C_6  and  C_9
    5  A    between atoms: C_14  and  C_19
    6  A    between atoms: C_18  and  C_26
                            x       y       z     vdW  Elec       q    Type
                         _______ _______ _______ _____ _____    ______ ____

>  <TORSDO>
F 6

$$$$
=
 OpenBabel10262420103D

 27 30  0  0  1  0  0  0  0  0999 V2000
  186.9130  177.9050  142.6930 C   0  0  2  0  0  3  0  0  0  0  0  0
  185.8000  179.8900  142.3790 O   0  0  0  0  0  0  0  0  0  0  0  0
  185.9490  178.8440  143.2790 N   0  0  0  0  0  0  0  0  0  0  0  0
  184.7370  179.0500  142.4860 C   0  0  2  0  0  3  0  0  0  0  0  0
  183.0550  176.8860  139.7940 C   0  0  0  0  0  2  0  0  0  0  0  0
  183.1630  177.8450  138.7700 O   0  0  0  0  0  0  0  0  0  0  0  0
  183.2300  177.5560  141.1560 C   0  0  0  0  0  2  0  0  0  0  0  0
  184.5110  178.2490  138.7310 C   0  0  0  0  0  2  0  0  0  0  0  0
  184.8460  179.0690  139.9770 C   0  0  0  0  0  2  0  0  0  0  0  0
  184.6120  178.2040  141.2160 C   0  0  0  0  0  3  0  0  0  0  0  0
  187.6720  175.6290  142.9690 O   0  0  0  0  0  1  0  0  0  0  0  0
  187.1810  176.7400  143.6570 C   0  0  1  0  0  3  0  0  0  0  0  0
  189.7410  178.1740  146.8450 C   0  0  0  0  0  3  0  0  0  0  0  0
  187.9290  178.0610  148.4730 C   0  0  0  0  0  1  0  0  0  0  0  0
  187.5570  177.4910  145.9850 C   0  0  0  0  0  0  0  0  0  0  0  0
  186.1770  177.5030  146.1750 O   0  0  0  0  0  1  0  0  0  0  0  0
  188.0790  177.1010  144.8090 C   0  0  0  0  0  0  0  0  0  0  0  0
  188.4510  177.9230  147.0860 C   0  0  0  0  0  0  0  0  0  0  0  0
  189.5790  176.9990  144.6570 C   0  0  0  0  0  2  0  0  0  0  0  0
  190.2800  178.1080  145.4430 C   0  0  0  0  0  2  0  0  0  0  0  0
  188.2060  178.6250  142.3070 C   0  0  0  0  0  2  0  0  0  0  0  0
  189.8970  177.0430  138.6970 C   0  0  0  0  0  3  0  0  0  0  0  0
  188.7870  178.0680  141.0510 C   0  0  0  0  0  0  0  0  0  0  0  0
  189.9990  177.3710  141.0940 C   0  0  0  0  0  3  0  0  0  0  0  0
  190.5540  176.8580  139.9170 C   0  0  0  0  0  3  0  0  0  0  0  0
  188.6860  177.7400  138.6520 C   0  0  0  0  0  3  0  0  0  0  0  0
  188.1310  178.2530  139.8290 C   0  0  0  0  0  3  0  0  0  0  0  0
  1 21  1  1  0  0  0
  1  3  1  0  0  0  0
  1 12  1  0  0  0  0
  2  4  1  0  0  0  0
  2  3  1  0  0  0  0
  4 10  1  6  0  0  0
  4  3  1  0  0  0  0
  5  7  1  0  0  0  0
  6  5  1  0  0  0  0
  7 10  1  0  0  0  0
  8  6  1  0  0  0  0
  8  9  1  0  0  0  0
  9 10  1  0  0  0  0
 12 11  1  6  0  0  0
 12 17  1  0  0  0  0
 13 18  2  0  0  0  0
 15 16  1  0  0  0  0
 15 18  1  0  0  0  0
 17 15  2  0  0  0  0
 18 14  1  0  0  0  0
 19 17  1  0  0  0  0
 19 20  1  0  0  0  0
 20 13  1  0  0  0  0
 22 25  1  0  0  0  0
 23 24  1  0  0  0  0
 23 21  1  0  0  0  0
 25 24  2  0  0  0  0
 26 22  2  0  0  0  0
 26 27  1  0  0  0  0
 27 23  2  0  0  0  0
M  END
>  <MODEL>
4

>  <REMARK>
 VINA RESULT:      -7.3      2.271      4.808
  Name = 
  6 active torsions:
  status: ('A' for Active; 'I' for Inactive)
    1  A    between atoms: C_2  and  C_6
    2  A    between atoms: C_2  and  N_15
    3  A    between atoms: C_2  and  C_19
    4  A    between atoms: C_6  and  C_9
    5  A    between atoms: C_14  and  C_19
    6  A    between atoms: C_18  and  C_26
                            x       y       z     vdW  Elec       q    Type
                         _______ _______ _______ _____ _____    ______ ____

>  <TORSDO>
F 6

$$$$
=
 OpenBabel10262420103D

 27 30  0  0  1  0  0  0  0  0999 V2000
  188.7080  177.2310  141.7290 C   0  0  2  0  0  3  0  0  0  0  0  0
  190.5190  176.3810  140.6010 O   0  0  0  0  0  0  0  0  0  0  0  0
  190.0830  177.5010  141.2950 N   0  0  0  0  0  0  0  0  0  0  0  0
  190.2810  177.4840  139.8460 C   0  0  2  0  0  3  0  0  0  0  0  0
  187.6630  178.1690  137.1200 C   0  0  0  0  0  2  0  0  0  0  0  0
  188.0040  177.0570  136.3280 O   0  0  0  0  0  0  0  0  0  0  0  0
  188.7970  178.4840  138.0940 C   0  0  0  0  0  2  0  0  0  0  0  0
  187.9870  175.9340  137.1760 C   0  0  0  0  0  2  0  0  0  0  0  0
  189.1570  176.0030  138.1570 C   0  0  0  0  0  2  0  0  0  0  0  0
  189.0240  177.2740  138.9970 C   0  0  0  0  0  3  0  0  0  0  0  0
  188.3070  179.5850  141.3700 O   0  0  0  0  0  1  0  0  0  0  0  0
  188.0420  178.5200  142.2330 C   0  0  1  0  0  3  0  0  0  0  0  0
  183.7850  178.5340  143.0370 C   0  0  0  0  0  3  0  0  0  0  0  0
  183.2450  178.5300  140.6590 C   0  0  0  0  0  1  0  0  0  0  0  0
  185.6810  178.6280  141.4980 C   0  0  0  0  0  0  0  0  0  0  0  0
  186.1230  178.9450  140.2160 O   0  0  0  0  0  1  0  0  0  0  0  0
  186.5650  178.3830  142.4820 C   0  0  0  0  0  0  0  0  0  0  0  0
  184.2270  178.5700  141.7770 C   0  0  0  0  0  0  0  0  0  0  0  0
  186.0660  177.9420  143.8380 C   0  0  0  0  0  2  0  0  0  0  0  0
  184.7500  178.6410  144.1850 C   0  0  0  0  0  2  0  0  0  0  0  0
  188.6800  176.1310  142.7920 C   0  0  0  0  0  2  0  0  0  0  0  0
  191.1130  177.1280  146.1810 C   0  0  0  0  0  3  0  0  0  0  0  0
  189.5250  176.4870  143.9680 C   0  0  0  0  0  0  0  0  0  0  0  0
  190.8870  176.1670  143.9690 C   0  0  0  0  0  3  0  0  0  0  0  0
  191.6800  176.4880  145.0740 C   0  0  0  0  0  3  0  0  0  0  0  0
  189.7510  177.4480  146.1810 C   0  0  0  0  0  3  0  0  0  0  0  0
  188.9570  177.1280  145.0760 C   0  0  0  0  0  3  0  0  0  0  0  0
  1 12  1  0  0  0  0
  1 21  1  1  0  0  0
  2  3  1  0  0  0  0
  3  1  1  0  0  0  0
  4 10  1  6  0  0  0
  4  2  1  0  0  0  0
  4  3  1  0  0  0  0
  5  7  1  0  0  0  0
  6  5  1  0  0  0  0
  6  8  1  0  0  0  0
  7 10  1  0  0  0  0
  8  9  1  0  0  0  0
  9 10  1  0  0  0  0
 12 11  1  6  0  0  0
 12 17  1  0  0  0  0
 13 20  1  0  0  0  0
 14 18  1  0  0  0  0
 15 18  1  0  0  0  0
 15 17  2  0  0  0  0
 16 15  1  0  0  0  0
 17 19  1  0  0  0  0
 18 13  2  0  0  0  0
 19 20  1  0  0  0  0
 21 23  1  0  0  0  0
 22 26  1  0  0  0  0
 23 24  2  0  0  0  0
 23 27  1  0  0  0  0
 24 25  1  0  0  0  0
 25 22  2  0  0  0  0
 27 26  2  0  0  0  0
M  END
>  <MODEL>
5

>  <REMARK>
 VINA RESULT:      -7.3      1.788      2.571
  Name = 
  6 active torsions:
  status: ('A' for Active; 'I' for Inactive)
    1  A    between atoms: C_2  and  C_6
    2  A    between atoms: C_2  and  N_15
    3  A    between atoms: C_2  and  C_19
    4  A    between atoms: C_6  and  C_9
    5  A    between atoms: C_14  and  C_19
    6  A    between atoms: C_18  and  C_26
                            x       y       z     vdW  Elec       q    Type
                         _______ _______ _______ _____ _____    ______ ____

>  <TORSDO>
F 6

$$$$
=
 OpenBabel10262420103D

 27 30  0  0  1  0  0  0  0  0999 V2000
  189.5150  177.5250  142.3570 C   0  0  2  0  0  3  0  0  0  0  0  0
  189.4940  175.7300  140.9240 O   0  0  0  0  0  0  0  0  0  0  0  0
  190.3500  176.5610  141.6330 N   0  0  0  0  0  0  0  0  0  0  0  0
  190.2150  176.6060  140.1780 C   0  0  2  0  0  3  0  0  0  0  0  0
  188.9760  179.3520  137.7940 C   0  0  0  0  0  2  0  0  0  0  0  0
  187.8810  178.6160  137.3040 O   0  0  0  0  0  0  0  0  0  0  0  0
  189.9810  178.4130  138.4590 C   0  0  0  0  0  2  0  0  0  0  0  0
  187.1630  178.1600  138.4260 C   0  0  0  0  0  2  0  0  0  0  0  0
  187.9690  177.0890  139.1610 C   0  0  0  0  0  2  0  0  0  0  0  0
  189.2950  177.6960  139.6210 C   0  0  0  0  0  3  0  0  0  0  0  0
  190.0250  179.7140  143.2400 O   0  0  0  0  0  1  0  0  0  0  0  0
  190.3720  178.3640  143.3150 C   0  0  1  0  0  3  0  0  0  0  0  0
  190.0240  176.6680  147.2870 C   0  0  0  0  0  3  0  0  0  0  0  0
  192.1810  175.5480  147.0960 C   0  0  0  0  0  1  0  0  0  0  0  0
  191.1810  176.9100  145.1480 C   0  0  0  0  0  0  0  0  0  0  0  0
  192.1360  176.3900  144.2770 O   0  0  0  0  0  1  0  0  0  0  0  0
  190.3420  177.8790  144.7390 C   0  0  0  0  0  0  0  0  0  0  0  0
  191.0870  176.3820  146.5300 C   0  0  0  0  0  0  0  0  0  0  0  0
  189.3830  178.5000  145.7280 C   0  0  0  0  0  2  0  0  0  0  0  0
  188.8730  177.4520  146.7190 C   0  0  0  0  0  2  0  0  0  0  0  0
  188.3790  176.8140  143.0950 C   0  0  0  0  0  2  0  0  0  0  0  0
  184.8230  179.2110  143.1440 C   0  0  0  0  0  3  0  0  0  0  0  0
  187.1370  177.6390  143.1110 C   0  0  0  0  0  0  0  0  0  0  0  0
  186.8320  178.4600  142.0200 C   0  0  0  0  0  3  0  0  0  0  0  0
  185.6750  179.2450  142.0360 C   0  0  0  0  0  3  0  0  0  0  0  0
  185.1270  178.3910  144.2360 C   0  0  0  0  0  3  0  0  0  0  0  0
  186.2830  177.6060  144.2200 C   0  0  0  0  0  3  0  0  0  0  0  0
  1 21  1  1  0  0  0
  1 12  1  0  0  0  0
  2  3  1  0  0  0  0
  3  1  1  0  0  0  0
  4 10  1  1  0  0  0
  4  2  1  0  0  0  0
  4  3  1  0  0  0  0
  5  7  1  0  0  0  0
  6  5  1  0  0  0  0
  6  8  1  0  0  0  0
  7 10  1  0  0  0  0
  8  9  1  0  0  0  0
  9 10  1  0  0  0  0
 12 11  1  1  0  0  0
 12 17  1  0  0  0  0
 15 18  1  0  0  0  0
 16 15  1  0  0  0  0
 17 15  2  0  0  0  0
 17 19  1  0  0  0  0
 18 14  1  0  0  0  0
 18 13  2  0  0  0  0
 19 20  1  0  0  0  0
 20 13  1  0  0  0  0
 21 23  1  0  0  0  0
 22 26  1  0  0  0  0
 23 27  1  0  0  0  0
 24 25  1  0  0  0  0
 24 23  2  0  0  0  0
 25 22  2  0  0  0  0
 27 26  2  0  0  0  0
M  END
>  <MODEL>
6

>  <REMARK>
 VINA RESULT:      -7.0      2.025      4.908
  Name = 
  6 active torsions:
  status: ('A' for Active; 'I' for Inactive)
    1  A    between atoms: C_2  and  C_6
    2  A    between atoms: C_2  and  N_15
    3  A    between atoms: C_2  and  C_19
    4  A    between atoms: C_6  and  C_9
    5  A    between atoms: C_14  and  C_19
    6  A    between atoms: C_18  and  C_26
                            x       y       z     vdW  Elec       q    Type
                         _______ _______ _______ _____ _____    ______ ____

>  <TORSDO>
F 6

$$$$
=
 OpenBabel10262420103D

 27 30  0  0  1  0  0  0  0  0999 V2000
  184.3700  178.6570  140.8520 C   0  0  2  0  0  3  0  0  0  0  0  0
  184.9300  180.1270  139.1790 O   0  0  0  0  0  0  0  0  0  0  0  0
  183.8410  179.5770  139.8390 N   0  0  0  0  0  0  0  0  0  0  0  0
  184.1950  179.2380  138.4610 C   0  0  2  0  0  3  0  0  0  0  0  0
  185.1870  175.8580  136.9280 C   0  0  0  0  0  2  0  0  0  0  0  0
  186.4010  176.3130  136.3820 O   0  0  0  0  0  0  0  0  0  0  0  0
  184.2830  177.0460  137.2520 C   0  0  0  0  0  2  0  0  0  0  0  0
  187.1050  176.9450  137.4250 C   0  0  0  0  0  2  0  0  0  0  0  0
  186.4110  178.2530  137.8040 C   0  0  0  0  0  2  0  0  0  0  0  0
  184.9880  177.9420  138.2690 C   0  0  0  0  0  3  0  0  0  0  0  0
  183.1400  178.6370  142.9300 O   0  0  0  0  0  1  0  0  0  0  0  0
  183.2240  178.0430  141.6690 C   0  0  1  0  0  3  0  0  0  0  0  0
  179.5820  178.3440  139.3410 C   0  0  0  0  0  3  0  0  0  0  0  0
  179.7610  176.0290  138.5960 C   0  0  0  0  0  1  0  0  0  0  0  0
  181.5640  177.1200  140.0830 C   0  0  0  0  0  0  0  0  0  0  0  0
  182.4210  176.0470  139.8520 O   0  0  0  0  0  1  0  0  0  0  0  0
  181.8930  178.0770  140.9690 C   0  0  0  0  0  0  0  0  0  0  0  0
  180.2860  177.2080  139.3370 C   0  0  0  0  0  0  0  0  0  0  0  0
  180.9040  179.1770  141.2790 C   0  0  0  0  0  2  0  0  0  0  0  0
  180.1210  179.5700  140.0250 C   0  0  0  0  0  2  0  0  0  0  0  0
  185.3850  179.3650  141.7510 C   0  0  0  0  0  2  0  0  0  0  0  0
  188.6640  176.7730  142.7150 C   0  0  0  0  0  3  0  0  0  0  0  0
  186.5280  178.4700  142.0930 C   0  0  0  0  0  0  0  0  0  0  0  0
  187.6120  178.3570  141.2150 C   0  0  0  0  0  3  0  0  0  0  0  0
  188.6800  177.5100  141.5270 C   0  0  0  0  0  3  0  0  0  0  0  0
  187.5820  176.8850  143.5930 C   0  0  0  0  0  3  0  0  0  0  0  0
  186.5140  177.7320  143.2830 C   0  0  0  0  0  3  0  0  0  0  0  0
  1 12  1  0  0  0  0
  1 21  1  1  0  0  0
  2  3  1  0  0  0  0
  3  1  1  0  0  0  0
  4 10  1  1  0  0  0
  4  2  1  0  0  0  0
  4  3  1  0  0  0  0
  5  7  1  0  0  0  0
  6  5  1  0  0  0  0
  6  8  1  0  0  0  0
  7 10  1  0  0  0  0
  8  9  1  0  0  0  0
  9 10  1  0  0  0  0
 12 11  1  1  0  0  0
 13 20  1  0  0  0  0
 14 18  1  0  0  0  0
 15 17  2  0  0  0  0
 16 15  1  0  0  0  0
 17 19  1  0  0  0  0
 17 12  1  0  0  0  0
 18 13  2  0  0  0  0
 18 15  1  0  0  0  0
 20 19  1  0  0  0  0
 21 23  1  0  0  0  0
 22 26  1  0  0  0  0
 23 27  1  0  0  0  0
 24 25  1  0  0  0  0
 24 23  2  0  0  0  0
 25 22  2  0  0  0  0
 27 26  2  0  0  0  0
M  END
>  <MODEL>
7

>  <REMARK>
 VINA RESULT:      -6.8      3.912      5.380
  Name = 
  6 active torsions:
  status: ('A' for Active; 'I' for Inactive)
    1  A    between atoms: C_2  and  C_6
    2  A    between atoms: C_2  and  N_15
    3  A    between atoms: C_2  and  C_19
    4  A    between atoms: C_6  and  C_9
    5  A    between atoms: C_14  and  C_19
    6  A    between atoms: C_18  and  C_26
                            x       y       z     vdW  Elec       q    Type
                         _______ _______ _______ _____ _____    ______ ____

>  <TORSDO>
F 6

$$$$
=
 OpenBabel10262420103D

 27 30  0  0  1  0  0  0  0  0999 V2000
  180.7870  178.8760  141.9590 C   0  0  2  0  0  3  0  0  0  0  0  0
  178.9310  177.7600  141.1960 O   0  0  0  0  0  0  0  0  0  0  0  0
  179.8860  177.7440  142.2030 N   0  0  0  0  0  0  0  0  0  0  0  0
  179.8420  176.7550  141.1270 C   0  0  2  0  0  3  0  0  0  0  0  0
  182.5610  175.9860  138.5240 C   0  0  0  0  0  2  0  0  0  0  0  0
  181.6930  176.0050  137.4170 O   0  0  0  0  0  0  0  0  0  0  0  0
  181.7600  175.8210  139.8140 C   0  0  0  0  0  2  0  0  0  0  0  0
  180.9790  177.2170  137.4810 C   0  0  0  0  0  2  0  0  0  0  0  0
  180.0030  177.1870  138.6570 C   0  0  0  0  0  2  0  0  0  0  0  0
  180.7940  176.9960  139.9520 C   0  0  0  0  0  3  0  0  0  0  0  0
  181.0920  178.5570  144.3330 O   0  0  0  0  0  1  0  0  0  0  0  0
  181.6490  179.1520  143.2000 C   0  0  1  0  0  3  0  0  0  0  0  0
  185.8860  178.4160  142.6770 C   0  0  0  0  0  3  0  0  0  0  0  0
  186.2330  178.1750  145.0780 C   0  0  0  0  0  1  0  0  0  0  0  0
  183.9260  178.7740  144.0920 C   0  0  0  0  0  0  0  0  0  0  0  0
  183.4520  179.0940  145.3620 O   0  0  0  0  0  1  0  0  0  0  0  0
  183.0910  178.7560  143.0380 C   0  0  0  0  0  0  0  0  0  0  0  0
  185.3630  178.4620  143.9050 C   0  0  0  0  0  0  0  0  0  0  0  0
  183.6040  178.3080  141.6890 C   0  0  0  0  0  2  0  0  0  0  0  0
  185.0480  178.7670  141.4790 C   0  0  0  0  0  2  0  0  0  0  0  0
  179.9990  180.1160  141.5350 C   0  0  0  0  0  2  0  0  0  0  0  0
  180.8250  181.1710  137.4600 C   0  0  0  0  0  3  0  0  0  0  0  0
  180.2910  180.4910  140.1210 C   0  0  0  0  0  0  0  0  0  0  0  0
  179.2530  180.9150  139.2850 C   0  0  0  0  0  3  0  0  0  0  0  0
  179.5200  181.2560  137.9550 C   0  0  0  0  0  3  0  0  0  0  0  0
  181.8640  180.7470  138.2950 C   0  0  0  0  0  3  0  0  0  0  0  0
  181.5970  180.4070  139.6250 C   0  0  0  0  0  3  0  0  0  0  0  0
  1 21  1  1  0  0  0
  1  3  1  0  0  0  0
  1 12  1  0  0  0  0
  2  3  1  0  0  0  0
  4 10  1  6  0  0  0
  4  2  1  0  0  0  0
  4  3  1  0  0  0  0
  5  7  1  0  0  0  0
  6  8  1  0  0  0  0
  6  5  1  0  0  0  0
  7 10  1  0  0  0  0
  8  9  1  0  0  0  0
  9 10  1  0  0  0  0
 12 11  1  1  0  0  0
 13 18  2  0  0  0  0
 15 16  1  0  0  0  0
 17 12  1  0  0  0  0
 17 15  2  0  0  0  0
 18 15  1  0  0  0  0
 18 14  1  0  0  0  0
 19 17  1  0  0  0  0
 20 19  1  0  0  0  0
 20 13  1  0  0  0  0
 22 25  2  0  0  0  0
 22 26  1  0  0  0  0
 23 21  1  0  0  0  0
 24 23  2  0  0  0  0
 25 24  1  0  0  0  0
 26 27  2  0  0  0  0
 27 23  1  0  0  0  0
M  END
>  <MODEL>
8

>  <REMARK>
 VINA RESULT:      -6.8      5.209      8.750
  Name = 
  6 active torsions:
  status: ('A' for Active; 'I' for Inactive)
    1  A    between atoms: C_2  and  C_6
    2  A    between atoms: C_2  and  N_15
    3  A    between atoms: C_2  and  C_19
    4  A    between atoms: C_6  and  C_9
    5  A    between atoms: C_14  and  C_19
    6  A    between atoms: C_18  and  C_26
                            x       y       z     vdW  Elec       q    Type
                         _______ _______ _______ _____ _____    ______ ____

>  <TORSDO>
F 6

$$$$
=
 OpenBabel10262420103D

 27 30  0  0  1  0  0  0  0  0999 V2000
  187.1410  177.9410  141.6880 C   0  0  2  0  0  3  0  0  0  0  0  0
  189.3880  177.9620  141.2160 O   0  0  0  0  0  0  0  0  0  0  0  0
  188.3110  178.7990  141.4710 N   0  0  0  0  0  0  0  0  0  0  0  0
  188.9280  178.6680  140.1510 C   0  0  2  0  0  3  0  0  0  0  0  0
  187.1830  177.5450  136.9180 C   0  0  0  0  0  2  0  0  0  0  0  0
  188.2240  176.7000  136.4940 O   0  0  0  0  0  0  0  0  0  0  0  0
  187.7000  178.5220  137.9730 C   0  0  0  0  0  2  0  0  0  0  0  0
  188.5170  175.8440  137.5720 C   0  0  0  0  0  2  0  0  0  0  0  0
  189.1820  176.6330  138.7000 C   0  0  0  0  0  2  0  0  0  0  0  0
  188.2230  177.7280  139.1690 C   0  0  0  0  0  3  0  0  0  0  0  0
  186.3300  180.1040  142.3940 O   0  0  0  0  0  1  0  0  0  0  0  0
  185.9630  178.7680  142.2240 C   0  0  1  0  0  3  0  0  0  0  0  0
  182.4060  178.0280  139.8640 C   0  0  0  0  0  3  0  0  0  0  0  0
  180.9420  178.5320  141.7470 C   0  0  0  0  0  1  0  0  0  0  0  0
  183.5100  178.5430  141.9830 C   0  0  0  0  0  0  0  0  0  0  0  0
  183.3950  178.5990  143.3690 O   0  0  0  0  0  1  0  0  0  0  0  0
  184.7140  178.6550  141.3930 C   0  0  0  0  0  0  0  0  0  0  0  0
  182.2950  178.3500  141.1560 C   0  0  0  0  0  0  0  0  0  0  0  0
  184.8040  178.6940  139.8850 C   0  0  0  0  0  2  0  0  0  0  0  0
  183.7570  177.7730  139.2560 C   0  0  0  0  0  2  0  0  0  0  0  0
  187.4840  176.7800  142.6230 C   0  0  0  0  0  2  0  0  0  0  0  0
  187.7590  178.0510  146.7100 C   0  0  0  0  0  3  0  0  0  0  0  0
  187.5760  177.2310  144.0410 C   0  0  0  0  0  0  0  0  0  0  0  0
  188.8300  177.4430  144.6250 C   0  0  0  0  0  3  0  0  0  0  0  0
  188.9210  177.8530  145.9580 C   0  0  0  0  0  3  0  0  0  0  0  0
  186.5050  177.8390  146.1290 C   0  0  0  0  0  3  0  0  0  0  0  0
  186.4130  177.4290  144.7950 C   0  0  0  0  0  3  0  0  0  0  0  0
  1 12  1  0  0  0  0
  1 21  1  1  0  0  0
  2  3  1  0  0  0  0
  3  1  1  0  0  0  0
  4 10  1  6  0  0  0
  4  2  1  0  0  0  0
  4  3  1  0  0  0  0
  5  7  1  0  0  0  0
  6  5  1  0  0  0  0
  6  8  1  0  0  0  0
  7 10  1  0  0  0  0
  8  9  1  0  0  0  0
  9 10  1  0  0  0  0
 12 11  1  6  0  0  0
 13 18  2  0  0  0  0
 15 16  1  0  0  0  0
 17 15  2  0  0  0  0
 17 12  1  0  0  0  0
 18 14  1  0  0  0  0
 18 15  1  0  0  0  0
 19 17  1  0  0  0  0
 20 13  1  0  0  0  0
 20 19  1  0  0  0  0
 21 23  1  0  0  0  0
 23 24  2  0  0  0  0
 23 27  1  0  0  0  0
 24 25  1  0  0  0  0
 25 22  2  0  0  0  0
 26 22  1  0  0  0  0
 27 26  2  0  0  0  0
M  END
>  <MODEL>
9

>  <REMARK>
 VINA RESULT:      -6.6      2.289      3.705
  Name = 
  6 active torsions:
  status: ('A' for Active; 'I' for Inactive)
    1  A    between atoms: C_2  and  C_6
    2  A    between atoms: C_2  and  N_15
    3  A    between atoms: C_2  and  C_19
    4  A    between atoms: C_6  and  C_9
    5  A    between atoms: C_14  and  C_19
    6  A    between atoms: C_18  and  C_26
                            x       y       z     vdW  Elec       q    Type
                         _______ _______ _______ _____ _____    ______ ____

>  <TORSDO>
F 6

$$$$
