=
 OpenBabel10262423233D

 34 40  0  0  1  0  0  0  0  0999 V2000
  186.9040  178.1920  140.5490 C   0  0  0  0  0  0  0  0  0  0  0  0
  189.8550  176.6080  142.0090 C   0  0  0  0  0  2  0  0  0  0  0  0
  183.0270  175.9330  139.4020 C   0  0  0  0  0  3  0  0  0  0  0  0
  188.8780  177.5090  139.8280 C   0  0  0  0  0  0  0  0  0  0  0  0
  183.7900  177.6320  137.1310 C   0  0  0  0  0  2  0  0  0  0  0  0
  183.7860  173.3340  136.7710 C   0  0  0  0  0  0  0  0  0  0  0  0
  185.0950  178.9150  139.0090 C   0  0  2  0  0  0  0  0  0  0  0  0
  185.5430  178.8210  140.4890 C   0  0  0  0  0  2  0  0  0  0  0  0
  187.4460  178.5540  138.1810 C   0  0  0  0  0  0  0  0  0  0  0  0
  188.4520  178.3720  137.2150 C   0  0  0  0  0  3  0  0  0  0  0  0
  183.4010  173.9340  137.9780 C   0  0  0  0  0  3  0  0  0  0  0  0
  183.4230  175.3240  138.1180 C   0  0  0  0  0  0  0  0  0  0  0  0
  186.1380  179.2480  137.9100 C   0  0  0  0  0  2  0  0  0  0  0  0
  183.7410  179.5760  138.8070 C   0  0  0  0  0  2  0  0  0  0  0  0
  189.8990  177.3010  138.8990 C   0  0  0  0  0  3  0  0  0  0  0  0
  187.7200  178.1190  139.4640 C   0  0  0  0  0  0  0  0  0  0  0  0
  189.6720  177.7440  137.5740 C   0  0  0  0  0  3  0  0  0  0  0  0
  189.3910  176.0830  143.3610 C   0  0  0  0  0  2  0  0  0  0  0  0
  189.0040  177.2230  144.2550 C   0  0  0  0  0  0  0  0  0  0  0  0
  184.2070  175.5350  135.8290 C   0  0  0  0  0  3  0  0  0  0  0  0
  187.8630  177.8800  144.0360 C   0  0  0  0  0  3  0  0  0  0  0  0
  183.8340  176.1330  137.0350 C   0  0  0  0  0  0  0  0  0  0  0  0
  184.1890  174.1430  135.6990 C   0  0  0  0  0  3  0  0  0  0  0  0
  183.8910  178.0790  138.5910 C   0  0  1  0  0  0  0  0  0  0  0  0
  183.2170  177.2320  139.6330 C   0  0  0  0  0  3  0  0  0  0  0  0
  188.7530  177.2100  141.1770 C   0  0  0  0  0  0  0  0  0  0  0  0
  186.9230  177.4900  142.9380 C   0  0  0  0  0  2  0  0  0  0  0  0
  187.5360  177.6610  141.6210 N   0  0  0  0  0  0  0  0  0  0  0  0
  189.9110  177.6470  145.3380 C   0  0  0  0  0  0  0  0  0  0  0  0
  191.3150  177.7140  145.1120 N   0  0  0  0  0  1  0  0  0  0  0  0
  189.4540  177.9530  146.4730 O   0  0  0  0  0  0  0  0  0  0  0  0
  183.7660  171.8680  136.6300 C   0  0  0  0  0  0  0  0  0  0  0  0
  182.9050  171.1810  137.2410 O   0  0  0  0  0  0  0  0  0  0  0  0
  184.7200  171.2100  135.8010 N   0  0  0  0  0  1  0  0  0  0  0  0
  1 28  1  0  0  0  0
  2 18  1  0  0  0  0
  3 25  2  0  0  0  0
  4 26  2  0  0  0  0
  6 11  1  0  0  0  0
  7 13  1  6  0  0  0
  7  8  1  0  0  0  0
  8  1  1  0  0  0  0
  9 16  1  0  0  0  0
 10 17  1  0  0  0  0
 10  9  2  0  0  0  0
 11 12  2  0  0  0  0
 12  3  1  0  0  0  0
 13  9  1  0  0  0  0
 14  7  1  0  0  0  0
 15  4  1  0  0  0  0
 16  4  1  0  0  0  0
 16  1  2  0  0  0  0
 17 15  2  0  0  0  0
 18 19  1  0  0  0  0
 19 29  1  0  0  0  0
 20 22  2  0  0  0  0
 21 19  2  0  0  0  0
 22  5  1  0  0  0  0
 22 12  1  0  0  0  0
 23 20  1  0  0  0  0
 23  6  2  0  0  0  0
 24  5  1  6  0  0  0
 24 14  1  0  0  0  0
 24  7  1  0  0  0  0
 24 25  1  0  0  0  0
 26 28  1  0  0  0  0
 26  2  1  0  0  0  0
 27 21  1  0  0  0  0
 28 27  1  0  0  0  0
 29 31  2  0  0  0  0
 30 29  1  0  0  0  0
 32  6  1  0  0  0  0
 32 33  2  0  0  0  0
 34 32  1  0  0  0  0
M  END
>  <MODEL>
1

>  <REMARK>
 VINA RESULT:      -7.1      0.000      0.000
  Name = 
  2 active torsions:
  status: ('A' for Active; 'I' for Inactive)
    1  A    between atoms: C_3  and  C_25
    2  A    between atoms: C_7  and  C_11
                            x       y       z     vdW  Elec       q    Type
                         _______ _______ _______ _____ _____    ______ ____

>  <TORSDO>
F 2

$$$$
=
 OpenBabel10262423233D

 34 40  0  0  1  0  0  0  0  0999 V2000
  184.1670  177.3820  137.9340 C   0  0  0  0  0  0  0  0  0  0  0  0
  187.6100  178.5310  138.3470 C   0  0  0  0  0  2  0  0  0  0  0  0
  180.8970  179.7110  135.6250 C   0  0  0  0  0  3  0  0  0  0  0  0
  185.3520  178.3550  139.5260 C   0  0  0  0  0  0  0  0  0  0  0  0
  179.7700  178.8920  138.2120 C   0  0  0  0  0  2  0  0  0  0  0  0
  180.3120  183.0630  137.2590 C   0  0  0  0  0  0  0  0  0  0  0  0
  181.7010  177.1240  138.0710 C   0  0  2  0  0  0  0  0  0  0  0  0
  182.9760  176.7460  137.2780 C   0  0  0  0  0  2  0  0  0  0  0  0
  183.0500  177.8460  140.0720 C   0  0  0  0  0  0  0  0  0  0  0  0
  183.2540  178.3820  141.3560 C   0  0  0  0  0  3  0  0  0  0  0  0
  180.6580  182.0820  136.3200 C   0  0  0  0  0  3  0  0  0  0  0  0
  180.5130  180.7260  136.6240 C   0  0  0  0  0  0  0  0  0  0  0  0
  181.7570  177.2200  139.6190 C   0  0  0  0  0  2  0  0  0  0  0  0
  180.4220  176.5040  137.5310 C   0  0  0  0  0  2  0  0  0  0  0  0
  185.5940  178.9050  140.7860 C   0  0  0  0  0  3  0  0  0  0  0  0
  184.1320  177.8460  139.2120 C   0  0  0  0  0  0  0  0  0  0  0  0
  184.5210  178.9130  141.7090 C   0  0  0  0  0  3  0  0  0  0  0  0
  188.1870  178.5590  136.9370 C   0  0  0  0  0  2  0  0  0  0  0  0
  188.2410  177.1720  136.3710 C   0  0  0  0  0  0  0  0  0  0  0  0
  179.6570  181.3180  138.8190 C   0  0  0  0  0  3  0  0  0  0  0  0
  187.1160  176.5720  135.9780 C   0  0  0  0  0  3  0  0  0  0  0  0
  180.0120  180.3390  137.8870 C   0  0  0  0  0  0  0  0  0  0  0  0
  179.8110  182.6720  138.5090 C   0  0  0  0  0  3  0  0  0  0  0  0
  180.6710  177.9940  137.3610 C   0  0  1  0  0  0  0  0  0  0  0  0
  180.9530  178.4180  135.9470 C   0  0  0  0  0  3  0  0  0  0  0  0
  186.1450  178.1870  138.4000 C   0  0  0  0  0  0  0  0  0  0  0  0
  185.7870  177.2580  136.0470 C   0  0  0  0  0  2  0  0  0  0  0  0
  185.4090  177.5590  137.4280 N   0  0  0  0  0  0  0  0  0  0  0  0
  189.5290  176.4570  136.3020 C   0  0  0  0  0  0  0  0  0  0  0  0
  190.5500  176.7250  137.2580 N   0  0  0  0  0  1  0  0  0  0  0  0
  189.7400  175.6040  135.3970 O   0  0  0  0  0  0  0  0  0  0  0  0
  180.4720  184.4920  136.9350 C   0  0  0  0  0  0  0  0  0  0  0  0
  181.5040  184.8970  136.3370 O   0  0  0  0  0  0  0  0  0  0  0  0
  179.4610  185.4300  137.2950 N   0  0  0  0  0  1  0  0  0  0  0  0
  1 16  2  0  0  0  0
  2 26  1  0  0  0  0
  3 25  2  0  0  0  0
  3 12  1  0  0  0  0
  4 15  1  0  0  0  0
  6 23  1  0  0  0  0
  7  8  1  6  0  0  0
  7 13  1  0  0  0  0
  8  1  1  0  0  0  0
  9 10  2  0  0  0  0
 10 17  1  0  0  0  0
 11 12  1  0  0  0  0
 11  6  2  0  0  0  0
 12 22  2  0  0  0  0
 13  9  1  0  0  0  0
 14  7  1  0  0  0  0
 15 17  2  0  0  0  0
 16  4  1  0  0  0  0
 16  9  1  0  0  0  0
 18  2  1  0  0  0  0
 19 18  1  0  0  0  0
 21 27  1  0  0  0  0
 21 19  2  0  0  0  0
 22  5  1  0  0  0  0
 22 20  1  0  0  0  0
 23 20  2  0  0  0  0
 24 25  1  6  0  0  0
 24 14  1  0  0  0  0
 24  7  1  0  0  0  0
 24  5  1  0  0  0  0
 26  4  2  0  0  0  0
 27 28  1  0  0  0  0
 28  1  1  0  0  0  0
 28 26  1  0  0  0  0
 29 19  1  0  0  0  0
 29 30  1  0  0  0  0
 31 29  2  0  0  0  0
 32  6  1  0  0  0  0
 32 34  1  0  0  0  0
 33 32  2  0  0  0  0
M  END
>  <MODEL>
2

>  <REMARK>
 VINA RESULT:      -6.8      4.595      7.519
  Name = 
  2 active torsions:
  status: ('A' for Active; 'I' for Inactive)
    1  A    between atoms: C_3  and  C_25
    2  A    between atoms: C_7  and  C_11
                            x       y       z     vdW  Elec       q    Type
                         _______ _______ _______ _____ _____    ______ ____

>  <TORSDO>
F 2

$$$$
=
 OpenBabel10262423233D

 34 40  0  0  1  0  0  0  0  0999 V2000
  188.8120  177.7990  138.9630 C   0  0  0  0  0  0  0  0  0  0  0  0
  190.6320  176.1910  141.6920 C   0  0  0  0  0  2  0  0  0  0  0  0
  184.7410  176.3290  137.3160 C   0  0  0  0  0  3  0  0  0  0  0  0
  190.5310  176.4240  139.1510 C   0  0  0  0  0  0  0  0  0  0  0  0
  186.5240  176.8030  135.0310 C   0  0  0  0  0  2  0  0  0  0  0  0
  185.1010  172.8340  135.9370 C   0  0  0  0  0  0  0  0  0  0  0  0
  187.7510  178.3230  136.7800 C   0  0  2  0  0  0  0  0  0  0  0  0
  187.8040  178.6800  138.2860 C   0  0  0  0  0  2  0  0  0  0  0  0
  189.9490  177.1000  136.9020 C   0  0  0  0  0  0  0  0  0  0  0  0
  191.0140  176.3220  136.4100 C   0  0  0  0  0  3  0  0  0  0  0  0
  184.6970  173.9180  136.7270 C   0  0  0  0  0  3  0  0  0  0  0  0
  185.1700  175.2050  136.4620 C   0  0  0  0  0  0  0  0  0  0  0  0
  189.0580  177.9470  136.0330 C   0  0  0  0  0  2  0  0  0  0  0  0
  186.7910  179.1780  135.9680 C   0  0  0  0  0  2  0  0  0  0  0  0
  191.5920  175.6330  138.7060 C   0  0  0  0  0  3  0  0  0  0  0  0
  189.7670  177.1230  138.2720 C   0  0  0  0  0  0  0  0  0  0  0  0
  191.8290  175.5900  137.3110 C   0  0  0  0  0  3  0  0  0  0  0  0
  189.7320  176.3450  142.9110 C   0  0  0  0  0  2  0  0  0  0  0  0
  189.5810  177.7950  143.2640 C   0  0  0  0  0  0  0  0  0  0  0  0
  186.4580  174.3390  134.5940 C   0  0  0  0  0  3  0  0  0  0  0  0
  188.8180  178.5860  142.5070 C   0  0  0  0  0  3  0  0  0  0  0  0
  186.0620  175.4180  135.3880 C   0  0  0  0  0  0  0  0  0  0  0  0
  185.9850  173.0530  134.8690 C   0  0  0  0  0  3  0  0  0  0  0  0
  186.4530  177.7240  136.2510 C   0  0  1  0  0  0  0  0  0  0  0  0
  185.3170  177.5270  137.2140 C   0  0  0  0  0  3  0  0  0  0  0  0
  190.0190  176.6930  140.4110 C   0  0  0  0  0  0  0  0  0  0  0  0
  188.0640  178.0630  141.3240 C   0  0  0  0  0  2  0  0  0  0  0  0
  188.9690  177.5680  140.2870 N   0  0  0  0  0  0  0  0  0  0  0  0
  190.3190  178.3500  144.4130 C   0  0  0  0  0  0  0  0  0  0  0  0
  191.5660  179.0090  144.2140 N   0  0  0  0  0  1  0  0  0  0  0  0
  189.8560  178.2480  145.5810 O   0  0  0  0  0  0  0  0  0  0  0  0
  184.6030  171.4770  136.2230 C   0  0  0  0  0  0  0  0  0  0  0  0
  185.1820  170.4700  135.7340 O   0  0  0  0  0  0  0  0  0  0  0  0
  183.4630  171.2880  137.0560 N   0  0  0  0  0  1  0  0  0  0  0  0
  1 28  1  0  0  0  0
  2 18  1  0  0  0  0
  4 26  2  0  0  0  0
  5 22  1  0  0  0  0
  6 32  1  0  0  0  0
  6 11  1  0  0  0  0
  7 14  1  6  0  0  0
  7  8  1  0  0  0  0
  8  1  1  0  0  0  0
  9 16  1  0  0  0  0
 10  9  2  0  0  0  0
 10 17  1  0  0  0  0
 12 11  2  0  0  0  0
 12  3  1  0  0  0  0
 13  7  1  0  0  0  0
 13  9  1  0  0  0  0
 14 24  1  0  0  0  0
 15  4  1  0  0  0  0
 16  1  2  0  0  0  0
 16  4  1  0  0  0  0
 17 15  2  0  0  0  0
 18 19  1  0  0  0  0
 19 29  1  0  0  0  0
 20 23  1  0  0  0  0
 20 22  2  0  0  0  0
 21 19  2  0  0  0  0
 22 12  1  0  0  0  0
 23  6  2  0  0  0  0
 24  5  1  6  0  0  0
 24  7  1  0  0  0  0
 24 25  1  0  0  0  0
 25  3  2  0  0  0  0
 26  2  1  0  0  0  0
 27 21  1  0  0  0  0
 28 26  1  0  0  0  0
 28 27  1  0  0  0  0
 29 31  2  0  0  0  0
 30 29  1  0  0  0  0
 32 34  1  0  0  0  0
 33 32  2  0  0  0  0
M  END
>  <MODEL>
3

>  <REMARK>
 VINA RESULT:      -6.8      1.705      2.529
  Name = 
  2 active torsions:
  status: ('A' for Active; 'I' for Inactive)
    1  A    between atoms: C_3  and  C_25
    2  A    between atoms: C_7  and  C_11
                            x       y       z     vdW  Elec       q    Type
                         _______ _______ _______ _____ _____    ______ ____

>  <TORSDO>
F 2

$$$$
=
 OpenBabel10262423233D

 34 40  0  0  1  0  0  0  0  0999 V2000
  186.1930  175.6540  136.5000 C   0  0  0  0  0  0  0  0  0  0  0  0
  183.5950  173.2640  137.4420 C   0  0  0  0  0  2  0  0  0  0  0  0
  190.2360  176.1210  138.7100 C   0  0  0  0  0  3  0  0  0  0  0  0
  184.2770  175.7200  137.5990 C   0  0  0  0  0  0  0  0  0  0  0  0
  189.0860  178.8000  138.3500 C   0  0  0  0  0  2  0  0  0  0  0  0
  189.6290  177.1410  142.2930 C   0  0  0  0  0  0  0  0  0  0  0  0
  187.7700  177.5710  136.4430 C   0  0  2  0  0  0  0  0  0  0  0  0
  187.4510  176.1700  135.8650 C   0  0  0  0  0  2  0  0  0  0  0  0
  185.4310  177.8310  137.3410 C   0  0  0  0  0  0  0  0  0  0  0  0
  184.3870  178.4680  138.0370 C   0  0  0  0  0  3  0  0  0  0  0  0
  190.0210  176.4060  141.1660 C   0  0  0  0  0  3  0  0  0  0  0  0
  189.8270  176.9180  139.8820 C   0  0  0  0  0  0  0  0  0  0  0  0
  186.6120  178.5570  136.7530 C   0  0  0  0  0  2  0  0  0  0  0  0
  189.0050  178.2270  135.8480 C   0  0  0  0  0  2  0  0  0  0  0  0
  183.2250  176.3100  138.3020 C   0  0  0  0  0  3  0  0  0  0  0  0
  185.3140  176.4690  137.1410 C   0  0  0  0  0  0  0  0  0  0  0  0
  183.2910  177.7070  138.5190 C   0  0  0  0  0  3  0  0  0  0  0  0
  184.2240  171.8940  137.2280 C   0  0  0  0  0  2  0  0  0  0  0  0
  184.5250  171.6820  135.7740 C   0  0  0  0  0  0  0  0  0  0  0  0
  188.8520  178.9270  140.8380 C   0  0  0  0  0  3  0  0  0  0  0  0
  185.5490  172.3220  135.2080 C   0  0  0  0  0  3  0  0  0  0  0  0
  189.2330  178.1890  139.7150 C   0  0  0  0  0  0  0  0  0  0  0  0
  189.0430  178.4040  142.1210 C   0  0  0  0  0  3  0  0  0  0  0  0
  189.0380  177.7090  137.2770 C   0  0  1  0  0  0  0  0  0  0  0  0
  189.8940  176.4900  137.4750 C   0  0  0  0  0  3  0  0  0  0  0  0
  184.5420  174.4140  137.2160 C   0  0  0  0  0  0  0  0  0  0  0  0
  186.4470  173.2280  135.9920 C   0  0  0  0  0  2  0  0  0  0  0  0
  185.7190  174.3860  136.5120 N   0  0  0  0  0  0  0  0  0  0  0  0
  183.6540  170.8090  134.9650 C   0  0  0  0  0  0  0  0  0  0  0  0
  182.3480  171.2420  134.5950 N   0  0  0  0  0  1  0  0  0  0  0  0
  184.0540  169.6720  134.5940 O   0  0  0  0  0  0  0  0  0  0  0  0
  189.8310  176.5940  143.6460 C   0  0  0  0  0  0  0  0  0  0  0  0
  190.9110  176.0160  143.9450 O   0  0  0  0  0  0  0  0  0  0  0  0
  188.8090  176.7110  144.6320 N   0  0  0  0  0  1  0  0  0  0  0  0
  1 28  1  0  0  0  0
  1 16  2  0  0  0  0
  3 12  1  0  0  0  0
  4 15  1  0  0  0  0
  5 22  1  0  0  0  0
  6 32  1  0  0  0  0
  7 14  1  6  0  0  0
  7 13  1  0  0  0  0
  7 24  1  0  0  0  0
  8  7  1  0  0  0  0
  8  1  1  0  0  0  0
  9 10  2  0  0  0  0
 10 17  1  0  0  0  0
 11  6  2  0  0  0  0
 12 11  1  0  0  0  0
 13  9  1  0  0  0  0
 15 17  2  0  0  0  0
 16  9  1  0  0  0  0
 16  4  1  0  0  0  0
 18  2  1  0  0  0  0
 19 18  1  0  0  0  0
 20 23  2  0  0  0  0
 21 19  2  0  0  0  0
 21 27  1  0  0  0  0
 22 12  2  0  0  0  0
 22 20  1  0  0  0  0
 23  6  1  0  0  0  0
 24 14  1  6  0  0  0
 24 25  1  0  0  0  0
 24  5  1  0  0  0  0
 25  3  2  0  0  0  0
 26  2  1  0  0  0  0
 26  4  2  0  0  0  0
 27 28  1  0  0  0  0
 28 26  1  0  0  0  0
 29 19  1  0  0  0  0
 30 29  1  0  0  0  0
 31 29  2  0  0  0  0
 32 33  2  0  0  0  0
 32 34  1  0  0  0  0
M  END
>  <MODEL>
4

>  <REMARK>
 VINA RESULT:      -6.6      1.792      8.336
  Name = 
  2 active torsions:
  status: ('A' for Active; 'I' for Inactive)
    1  A    between atoms: C_3  and  C_25
    2  A    between atoms: C_7  and  C_11
                            x       y       z     vdW  Elec       q    Type
                         _______ _______ _______ _____ _____    ______ ____

>  <TORSDO>
F 2

$$$$
=
 OpenBabel10262423233D

 34 40  0  0  1  0  0  0  0  0999 V2000
  187.6620  178.1420  140.2820 C   0  0  0  0  0  0  0  0  0  0  0  0
  188.2470  176.6950  143.5850 C   0  0  0  0  0  2  0  0  0  0  0  0
  185.4360  175.9830  136.8420 C   0  0  0  0  0  3  0  0  0  0  0  0
  189.3500  177.1780  141.3320 C   0  0  0  0  0  0  0  0  0  0  0  0
  187.9270  177.0960  135.7510 C   0  0  0  0  0  2  0  0  0  0  0  0
  187.2870  172.8330  135.8940 C   0  0  0  0  0  0  0  0  0  0  0  0
  187.7130  178.6510  137.8520 C   0  0  2  0  0  0  0  0  0  0  0  0
  186.9300  178.8430  139.1740 C   0  0  0  0  0  2  0  0  0  0  0  0
  189.7960  177.9490  139.0830 C   0  0  0  0  0  0  0  0  0  0  0  0
  191.1200  177.4910  139.2060 C   0  0  0  0  0  3  0  0  0  0  0  0
  186.2910  173.7040  136.3550 C   0  0  0  0  0  3  0  0  0  0  0  0
  186.4940  175.0860  136.3400 C   0  0  0  0  0  0  0  0  0  0  0  0
  189.2650  178.6640  137.8680 C   0  0  0  0  0  2  0  0  0  0  0  0
  187.0960  179.3520  136.6530 C   0  0  0  0  0  2  0  0  0  0  0  0
  190.6520  176.7010  141.4940 C   0  0  0  0  0  3  0  0  0  0  0  0
  188.9670  177.7790  140.1760 C   0  0  0  0  0  0  0  0  0  0  0  0
  191.5430  176.8660  140.4070 C   0  0  0  0  0  3  0  0  0  0  0  0
  186.8600  176.5070  144.1840 C   0  0  0  0  0  2  0  0  0  0  0  0
  186.1980  177.8370  144.3870 C   0  0  0  0  0  0  0  0  0  0  0  0
  188.7010  174.7440  135.3850 C   0  0  0  0  0  3  0  0  0  0  0  0
  185.7330  178.5140  143.3350 C   0  0  0  0  0  3  0  0  0  0  0  0
  187.7120  175.6120  135.8540 C   0  0  0  0  0  0  0  0  0  0  0  0
  188.4930  173.3620  135.4100 C   0  0  0  0  0  3  0  0  0  0  0  0
  187.0390  177.8370  136.7540 C   0  0  1  0  0  0  0  0  0  0  0  0
  185.6670  177.2840  137.0210 C   0  0  0  0  0  3  0  0  0  0  0  0
  188.2370  177.1840  142.1600 C   0  0  0  0  0  0  0  0  0  0  0  0
  185.8140  177.9690  141.9440 C   0  0  0  0  0  2  0  0  0  0  0  0
  187.2020  177.8090  141.5100 N   0  0  0  0  0  0  0  0  0  0  0  0
  186.1130  178.4150  145.7410 C   0  0  0  0  0  0  0  0  0  0  0  0
  184.8830  178.9560  146.2140 N   0  0  0  0  0  1  0  0  0  0  0  0
  187.1250  178.4360  146.4930 O   0  0  0  0  0  0  0  0  0  0  0  0
  187.0710  171.3760  135.9160 C   0  0  0  0  0  0  0  0  0  0  0  0
  188.0350  170.5920  136.1280 O   0  0  0  0  0  0  0  0  0  0  0  0
  185.7700  170.8370  135.7000 N   0  0  0  0  0  1  0  0  0  0  0  0
  1 28  1  0  0  0  0
  2 18  1  0  0  0  0
  3 25  2  0  0  0  0
  4 15  1  0  0  0  0
  4 26  2  0  0  0  0
  5 22  1  0  0  0  0
  6 32  1  0  0  0  0
  6 11  1  0  0  0  0
  7 14  1  6  0  0  0
  7 13  1  0  0  0  0
  7  8  1  0  0  0  0
  8  1  1  0  0  0  0
  9 10  2  0  0  0  0
  9 16  1  0  0  0  0
 10 17  1  0  0  0  0
 12 11  2  0  0  0  0
 12  3  1  0  0  0  0
 13  9  1  0  0  0  0
 14 24  1  0  0  0  0
 16  1  2  0  0  0  0
 16  4  1  0  0  0  0
 17 15  2  0  0  0  0
 18 19  1  0  0  0  0
 19 29  1  0  0  0  0
 20 23  1  0  0  0  0
 20 22  2  0  0  0  0
 21 19  2  0  0  0  0
 22 12  1  0  0  0  0
 23  6  2  0  0  0  0
 24  5  1  6  0  0  0
 24 25  1  0  0  0  0
 24  7  1  0  0  0  0
 26  2  1  0  0  0  0
 27 21  1  0  0  0  0
 28 27  1  0  0  0  0
 28 26  1  0  0  0  0
 29 30  1  0  0  0  0
 29 31  2  0  0  0  0
 32 33  2  0  0  0  0
 34 32  1  0  0  0  0
M  END
>  <MODEL>
5

>  <REMARK>
 VINA RESULT:      -6.5      2.357      3.296
  Name = 
  2 active torsions:
  status: ('A' for Active; 'I' for Inactive)
    1  A    between atoms: C_3  and  C_25
    2  A    between atoms: C_7  and  C_11
                            x       y       z     vdW  Elec       q    Type
                         _______ _______ _______ _____ _____    ______ ____

>  <TORSDO>
F 2

$$$$
=
 OpenBabel10262423233D

 34 40  0  0  1  0  0  0  0  0999 V2000
  184.9350  178.7560  141.2490 C   0  0  0  0  0  0  0  0  0  0  0  0
  187.2920  177.4190  143.7000 C   0  0  0  0  0  2  0  0  0  0  0  0
  181.6510  176.2540  139.1510 C   0  0  0  0  0  3  0  0  0  0  0  0
  187.0450  178.0980  141.2510 C   0  0  0  0  0  0  0  0  0  0  0  0
  183.0730  177.7920  137.0910 C   0  0  0  0  0  2  0  0  0  0  0  0
  183.2370  173.4830  137.1390 C   0  0  0  0  0  0  0  0  0  0  0  0
  183.6980  179.2760  139.1600 C   0  0  2  0  0  0  0  0  0  0  0  0
  183.6550  179.3220  140.7080 C   0  0  0  0  0  2  0  0  0  0  0  0
  186.1950  178.9450  139.1500 C   0  0  0  0  0  0  0  0  0  0  0  0
  187.4580  178.7260  138.5700 C   0  0  0  0  0  3  0  0  0  0  0  0
  182.4820  174.1640  138.1040 C   0  0  0  0  0  3  0  0  0  0  0  0
  182.4410  175.5600  138.1170 C   0  0  0  0  0  0  0  0  0  0  0  0
  185.0310  179.5610  138.4190 C   0  0  0  0  0  2  0  0  0  0  0  0
  182.4700  179.8630  138.4840 C   0  0  0  0  0  2  0  0  0  0  0  0
  188.3100  177.8560  140.7130 C   0  0  0  0  0  3  0  0  0  0  0  0
  186.0540  178.6280  140.4880 C   0  0  0  0  0  0  0  0  0  0  0  0
  188.5090  178.1800  139.3490 C   0  0  0  0  0  3  0  0  0  0  0  0
  186.4300  176.9880  144.8800 C   0  0  0  0  0  2  0  0  0  0  0  0
  185.7650  178.1800  145.5000 C   0  0  0  0  0  0  0  0  0  0  0  0
  183.9070  175.6150  136.1810 C   0  0  0  0  0  3  0  0  0  0  0  0
  184.7440  178.7690  144.8750 C   0  0  0  0  0  3  0  0  0  0  0  0
  183.1630  176.2930  137.1500 C   0  0  0  0  0  0  0  0  0  0  0  0
  183.9490  174.2170  136.1790 C   0  0  0  0  0  3  0  0  0  0  0  0
  182.6990  178.3610  138.4620 C   0  0  1  0  0  0  0  0  0  0  0  0
  181.7410  177.5750  139.3120 C   0  0  0  0  0  3  0  0  0  0  0  0
  186.5030  177.9050  142.5130 C   0  0  0  0  0  0  0  0  0  0  0  0
  184.2060  178.2530  143.5770 C   0  0  0  0  0  2  0  0  0  0  0  0
  185.2020  178.3410  142.5090 N   0  0  0  0  0  0  0  0  0  0  0  0
  186.2770  178.7270  146.7700 C   0  0  0  0  0  0  0  0  0  0  0  0
  187.4530  178.1850  147.3620 N   0  0  0  0  0  1  0  0  0  0  0  0
  185.6810  179.6790  147.3440 O   0  0  0  0  0  0  0  0  0  0  0  0
  183.2820  172.0100  137.1320 C   0  0  0  0  0  0  0  0  0  0  0  0
  182.3190  171.3420  137.5940 O   0  0  0  0  0  0  0  0  0  0  0  0
  184.4140  171.3250  136.6030 N   0  0  0  0  0  1  0  0  0  0  0  0
  1 28  1  0  0  0  0
  2 18  1  0  0  0  0
  3 25  2  0  0  0  0
  4 26  2  0  0  0  0
  5 22  1  0  0  0  0
  6 11  1  0  0  0  0
  7 13  1  6  0  0  0
  7  8  1  0  0  0  0
  8  1  1  0  0  0  0
  9 16  1  0  0  0  0
 10  9  2  0  0  0  0
 10 17  1  0  0  0  0
 11 12  2  0  0  0  0
 12  3  1  0  0  0  0
 13  9  1  0  0  0  0
 14  7  1  0  0  0  0
 15  4  1  0  0  0  0
 16  1  2  0  0  0  0
 16  4  1  0  0  0  0
 17 15  2  0  0  0  0
 18 19  1  0  0  0  0
 19 29  1  0  0  0  0
 20 22  2  0  0  0  0
 21 19  2  0  0  0  0
 22 12  1  0  0  0  0
 23 20  1  0  0  0  0
 23  6  2  0  0  0  0
 24  5  1  6  0  0  0
 24 14  1  0  0  0  0
 24  7  1  0  0  0  0
 24 25  1  0  0  0  0
 26  2  1  0  0  0  0
 27 21  1  0  0  0  0
 28 26  1  0  0  0  0
 28 27  1  0  0  0  0
 29 31  2  0  0  0  0
 29 30  1  0  0  0  0
 32  6  1  0  0  0  0
 32 33  2  0  0  0  0
 34 32  1  0  0  0  0
M  END
>  <MODEL>
6

>  <REMARK>
 VINA RESULT:      -6.4      1.784      2.269
  Name = 
  2 active torsions:
  status: ('A' for Active; 'I' for Inactive)
    1  A    between atoms: C_3  and  C_25
    2  A    between atoms: C_7  and  C_11
                            x       y       z     vdW  Elec       q    Type
                         _______ _______ _______ _____ _____    ______ ____

>  <TORSDO>
F 2

$$$$
=
 OpenBabel10262423233D

 34 40  0  0  1  0  0  0  0  0999 V2000
  182.9190  178.9780  141.7160 C   0  0  0  0  0  0  0  0  0  0  0  0
  186.1200  177.8670  143.0830 C   0  0  0  0  0  2  0  0  0  0  0  0
  179.4360  176.1410  140.5890 C   0  0  0  0  0  3  0  0  0  0  0  0
  184.9610  178.6410  140.9430 C   0  0  0  0  0  0  0  0  0  0  0  0
  179.8620  177.9880  138.3440 C   0  0  0  0  0  2  0  0  0  0  0  0
  180.5480  173.7550  137.8840 C   0  0  0  0  0  0  0  0  0  0  0  0
  180.9820  179.4280  140.2280 C   0  0  2  0  0  0  0  0  0  0  0  0
  181.4730  179.3780  141.6960 C   0  0  0  0  0  2  0  0  0  0  0  0
  183.3420  179.4710  139.3480 C   0  0  0  0  0  0  0  0  0  0  0  0
  184.3430  179.4750  138.3590 C   0  0  0  0  0  3  0  0  0  0  0  0
  180.0980  174.2600  139.1120 C   0  0  0  0  0  3  0  0  0  0  0  0
  179.8970  175.6310  139.2840 C   0  0  0  0  0  0  0  0  0  0  0  0
  181.9330  179.9490  139.1170 C   0  0  0  0  0  2  0  0  0  0  0  0
  179.5360  179.8640  140.0670 C   0  0  0  0  0  2  0  0  0  0  0  0
  185.9820  178.6200  139.9900 C   0  0  0  0  0  3  0  0  0  0  0  0
  183.7120  179.0610  140.6150 C   0  0  0  0  0  0  0  0  0  0  0  0
  185.6570  179.0470  138.6810 C   0  0  0  0  0  3  0  0  0  0  0  0
  185.7770  177.2460  144.4310 C   0  0  0  0  0  2  0  0  0  0  0  0
  185.2300  178.2900  145.3590 C   0  0  0  0  0  0  0  0  0  0  0  0
  180.5850  176.0130  136.9860 C   0  0  0  0  0  3  0  0  0  0  0  0
  183.9940  178.7560  145.1770 C   0  0  0  0  0  3  0  0  0  0  0  0
  180.1460  176.5180  138.2130 C   0  0  0  0  0  0  0  0  0  0  0  0
  180.7900  174.6400  136.8240 C   0  0  0  0  0  3  0  0  0  0  0  0
  179.9210  178.4160  139.8130 C   0  0  1  0  0  0  0  0  0  0  0  0
  179.4180  177.4500  140.8470 C   0  0  0  0  0  3  0  0  0  0  0  0
  184.9160  178.2980  142.2860 C   0  0  0  0  0  0  0  0  0  0  0  0
  183.1050  178.2400  144.0880 C   0  0  0  0  0  2  0  0  0  0  0  0
  183.6520  178.5360  142.7640 N   0  0  0  0  0  0  0  0  0  0  0  0
  186.0800  178.8330  146.4340 C   0  0  0  0  0  0  0  0  0  0  0  0
  187.3830  178.3020  146.6570 N   0  0  0  0  0  1  0  0  0  0  0  0
  185.6650  179.7720  147.1660 O   0  0  0  0  0  0  0  0  0  0  0  0
  180.7630  172.3080  137.7090 C   0  0  0  0  0  0  0  0  0  0  0  0
  179.7810  171.5210  137.6420 O   0  0  0  0  0  0  0  0  0  0  0  0
  182.0840  171.7820  137.6130 N   0  0  0  0  0  1  0  0  0  0  0  0
  1 28  1  0  0  0  0
  2 18  1  0  0  0  0
  3 25  2  0  0  0  0
  4 26  2  0  0  0  0
  6 11  1  0  0  0  0
  7 13  1  6  0  0  0
  7  8  1  0  0  0  0
  8  1  1  0  0  0  0
  9 16  1  0  0  0  0
 10 17  1  0  0  0  0
 10  9  2  0  0  0  0
 11 12  2  0  0  0  0
 12  3  1  0  0  0  0
 13  9  1  0  0  0  0
 14  7  1  0  0  0  0
 15  4  1  0  0  0  0
 16  4  1  0  0  0  0
 16  1  2  0  0  0  0
 17 15  2  0  0  0  0
 18 19  1  0  0  0  0
 19 29  1  0  0  0  0
 20 22  2  0  0  0  0
 21 19  2  0  0  0  0
 22  5  1  0  0  0  0
 22 12  1  0  0  0  0
 23 20  1  0  0  0  0
 23  6  2  0  0  0  0
 24  5  1  6  0  0  0
 24 14  1  0  0  0  0
 24  7  1  0  0  0  0
 24 25  1  0  0  0  0
 26 28  1  0  0  0  0
 26  2  1  0  0  0  0
 27 21  1  0  0  0  0
 28 27  1  0  0  0  0
 29 30  1  0  0  0  0
 29 31  2  0  0  0  0
 32  6  1  0  0  0  0
 33 32  2  0  0  0  0
 34 32  1  0  0  0  0
M  END
>  <MODEL>
7

>  <REMARK>
 VINA RESULT:      -6.3      3.041      4.032
  Name = 
  2 active torsions:
  status: ('A' for Active; 'I' for Inactive)
    1  A    between atoms: C_3  and  C_25
    2  A    between atoms: C_7  and  C_11
                            x       y       z     vdW  Elec       q    Type
                         _______ _______ _______ _____ _____    ______ ____

>  <TORSDO>
F 2

$$$$
=
 OpenBabel10262423233D

 34 40  0  0  1  0  0  0  0  0999 V2000
  182.5760  176.8260  138.5160 C   0  0  0  0  0  0  0  0  0  0  0  0
  185.9330  177.0100  137.0860 C   0  0  0  0  0  2  0  0  0  0  0  0
  178.9310  179.2040  136.9360 C   0  0  0  0  0  3  0  0  0  0  0  0
  184.4750  177.8420  139.0100 C   0  0  0  0  0  0  0  0  0  0  0  0
  179.0370  179.5420  139.8520 C   0  0  0  0  0  2  0  0  0  0  0  0
  179.5960  182.9090  137.2160 C   0  0  0  0  0  0  0  0  0  0  0  0
  180.4440  177.3350  139.6820 C   0  0  2  0  0  0  0  0  0  0  0  0
  181.1480  176.3920  138.6750 C   0  0  0  0  0  2  0  0  0  0  0  0
  182.6450  178.1970  140.5520 C   0  0  0  0  0  0  0  0  0  0  0  0
  183.4860  179.0060  141.3380 C   0  0  0  0  0  3  0  0  0  0  0  0
  179.3410  181.6390  136.6820 C   0  0  0  0  0  3  0  0  0  0  0  0
  179.1840  180.5340  137.5220 C   0  0  0  0  0  0  0  0  0  0  0  0
  181.2220  177.8630  140.9160 C   0  0  0  0  0  2  0  0  0  0  0  0
  178.9940  176.9770  139.9650 C   0  0  0  0  0  2  0  0  0  0  0  0
  185.3410  178.6450  139.7550 C   0  0  0  0  0  3  0  0  0  0  0  0
  183.1960  177.6350  139.4160 C   0  0  0  0  0  0  0  0  0  0  0  0
  184.8270  179.2310  140.9370 C   0  0  0  0  0  3  0  0  0  0  0  0
  185.7900  176.4550  135.6740 C   0  0  0  0  0  2  0  0  0  0  0  0
  185.4000  175.0080  135.7230 C   0  0  0  0  0  0  0  0  0  0  0  0
  179.5240  181.9640  139.4550 C   0  0  0  0  0  3  0  0  0  0  0  0
  184.1560  174.6670  136.0620 C   0  0  0  0  0  3  0  0  0  0  0  0
  179.2800  180.6960  138.9220 C   0  0  0  0  0  0  0  0  0  0  0  0
  179.6860  183.0640  138.6070 C   0  0  0  0  0  3  0  0  0  0  0  0
  179.3200  178.2140  139.1450 C   0  0  1  0  0  0  0  0  0  0  0  0
  178.9670  178.1040  137.6890 C   0  0  0  0  0  3  0  0  0  0  0  0
  184.6290  177.1300  137.8300 C   0  0  0  0  0  0  0  0  0  0  0  0
  183.1080  175.6930  136.3630 C   0  0  0  0  0  2  0  0  0  0  0  0
  183.4530  176.4820  137.5450 N   0  0  0  0  0  0  0  0  0  0  0  0
  186.4090  173.9670  135.4470 C   0  0  0  0  0  0  0  0  0  0  0  0
  187.7960  174.2900  135.4650 N   0  0  0  0  0  1  0  0  0  0  0  0
  186.0550  172.7840  135.1940 O   0  0  0  0  0  0  0  0  0  0  0  0
  179.7650  184.0710  136.3260 C   0  0  0  0  0  0  0  0  0  0  0  0
  179.1610  184.1200  135.2210 O   0  0  0  0  0  0  0  0  0  0  0  0
  180.6140  185.1510  136.7040 N   0  0  0  0  0  1  0  0  0  0  0  0
  1  8  1  0  0  0  0
  1 16  2  0  0  0  0
  2 26  1  0  0  0  0
  3 12  1  0  0  0  0
  3 25  2  0  0  0  0
  4 16  1  0  0  0  0
  4 15  1  0  0  0  0
  6 23  1  0  0  0  0
  7  8  1  6  0  0  0
  7 14  1  0  0  0  0
  7 13  1  0  0  0  0
  9 13  1  0  0  0  0
  9 10  2  0  0  0  0
 11  6  2  0  0  0  0
 11 12  1  0  0  0  0
 12 22  2  0  0  0  0
 15 17  2  0  0  0  0
 16  9  1  0  0  0  0
 17 10  1  0  0  0  0
 18 19  1  0  0  0  0
 18  2  1  0  0  0  0
 19 21  2  0  0  0  0
 21 27  1  0  0  0  0
 22 20  1  0  0  0  0
 22  5  1  0  0  0  0
 23 20  2  0  0  0  0
 24 25  1  6  0  0  0
 24  7  1  0  0  0  0
 24  5  1  0  0  0  0
 24 14  1  0  0  0  0
 26  4  2  0  0  0  0
 27 28  1  0  0  0  0
 28 26  1  0  0  0  0
 28  1  1  0  0  0  0
 29 30  1  0  0  0  0
 29 19  1  0  0  0  0
 31 29  2  0  0  0  0
 32 34  1  0  0  0  0
 32  6  1  0  0  0  0
 33 32  2  0  0  0  0
M  END
>  <MODEL>
8

>  <REMARK>
 VINA RESULT:      -5.0      4.643      8.175
  Name = 
  2 active torsions:
  status: ('A' for Active; 'I' for Inactive)
    1  A    between atoms: C_3  and  C_25
    2  A    between atoms: C_7  and  C_11
                            x       y       z     vdW  Elec       q    Type
                         _______ _______ _______ _____ _____    ______ ____

>  <TORSDO>
F 2

$$$$
