=
 OpenBabel10262420003D

 27 31  0  0  1  0  0  0  0  0999 V2000
  188.2040  176.0050  143.2120 C   0  0  0  0  0  2  0  0  0  0  0  0
  186.8350  177.5340  144.5780 C   0  0  0  0  0  0  0  0  0  0  0  0
  186.8190  178.4820  142.2870 N   0  0  0  0  0  2  0  0  0  0  0  0
  183.0530  179.1300  145.2140 N   0  0  0  0  0  0  0  0  0  0  0  0
  181.2800  178.9750  143.5410 C   0  0  0  0  0  1  0  0  0  0  0  0
  186.1260  177.3400  145.8770 C   0  0  0  0  0  3  0  0  0  0  0  0
  183.8500  178.8250  143.1000 C   0  0  2  0  0  3  0  0  0  0  0  0
  189.6170  178.2370  139.8470 C   0  0  0  0  0  3  0  0  0  0  0  0
  183.7920  178.3650  141.6820 C   0  0  0  0  0  1  0  0  0  0  0  0
  190.2880  177.0900  140.2730 C   0  0  0  0  0  0  0  0  0  0  0  0
  184.9210  178.8280  143.8790 C   0  0  1  0  0  3  0  0  0  0  0  0
  188.0840  176.8590  144.3810 N   0  0  0  0  0  0  0  0  0  0  0  0
  182.7040  179.0180  143.9740 C   0  0  0  0  0  0  0  0  0  0  0  0
  184.5090  179.1110  145.2860 C   0  0  2  0  0  3  0  0  0  0  0  0
  188.6800  176.8140  142.0670 C   0  0  0  0  0  0  0  0  0  0  0  0
  186.2340  178.2280  143.5790 C   0  0  0  0  0  0  0  0  0  0  0  0
  188.4810  178.6750  140.5310 C   0  0  0  0  0  3  0  0  0  0  0  0
  185.0200  178.0280  146.1940 C   0  0  0  0  0  3  0  0  0  0  0  0
  191.4970  176.6220  139.5480 C   0  0  0  0  0  1  0  0  0  0  0  0
  189.8160  176.3790  141.3770 C   0  0  0  0  0  3  0  0  0  0  0  0
  188.0070  177.9820  141.6510 C   0  0  0  0  0  0  0  0  0  0  0  0
  191.3730  176.8160  147.1530 C   0  0  0  0  0  2  0  0  0  0  0  0
  189.1970  177.0030  145.2910 C   0  0  0  0  0  0  0  0  0  0  0  0
  188.9770  177.2780  146.5890 C   0  0  0  0  0  3  0  0  0  0  0  0
  190.0790  177.4920  147.5880 C   0  0  0  0  0  2  0  0  0  0  0  0
  191.6920  177.2510  145.7310 C   0  0  0  0  0  2  0  0  0  0  0  0
  190.6030  176.7480  144.7860 C   0  0  0  0  0  2  0  0  0  0  0  0
  1 12  1  0  0  0  0
  2  6  1  0  0  0  0
  3 16  1  0  0  0  0
  4 14  1  0  0  0  0
  5 13  1  0  0  0  0
  6 18  2  0  0  0  0
  7  9  1  1  0  0  0
  7 11  1  0  0  0  0
  7 13  1  0  0  0  0
  8 10  2  0  0  0  0
  8 17  1  0  0  0  0
 10 20  1  0  0  0  0
 11 16  1  1  0  0  0
 11 14  1  0  0  0  0
 12  2  1  0  0  0  0
 12 23  1  0  0  0  0
 13  4  2  0  0  0  0
 14 18  1  1  0  0  0
 15  1  1  0  0  0  0
 16  2  2  0  0  0  0
 17 21  2  0  0  0  0
 19 10  1  0  0  0  0
 20 15  2  0  0  0  0
 21 15  1  0  0  0  0
 21  3  1  0  0  0  0
 22 25  1  0  0  0  0
 23 24  2  0  0  0  0
 24 25  1  0  0  0  0
 26 22  1  0  0  0  0
 27 23  1  0  0  0  0
 27 26  1  0  0  0  0
M  END
>  <MODEL>
1

>  <REMARK>
 VINA RESULT:     -10.6      0.000      0.000
  Name = 
  1 active torsions:
  status: ('A' for Active; 'I' for Inactive)
    1  A    between atoms: C_9  and  N_15
                            x       y       z     vdW  Elec       q    Type
                         _______ _______ _______ _____ _____    ______ ____

>  <TORSDO>
F 1

$$$$
=
 OpenBabel10262420003D

 27 31  0  0  1  0  0  0  0  0999 V2000
  187.4080  179.4200  141.1840 C   0  0  0  0  0  2  0  0  0  0  0  0
  186.3170  178.4330  143.1620 C   0  0  0  0  0  0  0  0  0  0  0  0
  188.4540  177.2050  142.8920 N   0  0  0  0  0  2  0  0  0  0  0  0
  186.5350  177.8130  147.2650 N   0  0  0  0  0  0  0  0  0  0  0  0
  188.6090  178.1230  148.5160 C   0  0  0  0  0  1  0  0  0  0  0  0
  185.2600  178.9560  144.0780 C   0  0  0  0  0  3  0  0  0  0  0  0
  188.3950  177.6410  145.9580 C   0  0  2  0  0  3  0  0  0  0  0  0
  190.1170  176.4900  139.6420 C   0  0  0  0  0  3  0  0  0  0  0  0
  189.8140  177.9020  145.5770 C   0  0  0  0  0  1  0  0  0  0  0  0
  189.6270  177.5080  138.8230 C   0  0  0  0  0  0  0  0  0  0  0  0
  187.3720  177.5090  145.1270 C   0  0  1  0  0  3  0  0  0  0  0  0
  186.2440  178.7830  141.7740 N   0  0  0  0  0  0  0  0  0  0  0  0
  187.8280  177.8270  147.2840 C   0  0  0  0  0  0  0  0  0  0  0  0
  186.0980  177.5210  145.9040 C   0  0  2  0  0  3  0  0  0  0  0  0
  188.3280  178.3760  140.6760 C   0  0  0  0  0  0  0  0  0  0  0  0
  187.3770  177.7580  143.6740 C   0  0  0  0  0  0  0  0  0  0  0  0
  189.7100  176.4110  140.9750 C   0  0  0  0  0  3  0  0  0  0  0  0
  185.1790  178.5790  145.3620 C   0  0  0  0  0  3  0  0  0  0  0  0
  190.0580  177.5940  137.4030 C   0  0  0  0  0  1  0  0  0  0  0  0
  188.7400  178.4510  139.3420 C   0  0  0  0  0  3  0  0  0  0  0  0
  188.8060  177.3400  141.5050 C   0  0  0  0  0  0  0  0  0  0  0  0
  182.9240  177.5690  139.3240 C   0  0  0  0  0  2  0  0  0  0  0  0
  185.0740  178.5240  140.9680 C   0  0  0  0  0  0  0  0  0  0  0  0
  185.0930  178.7790  139.6470 C   0  0  0  0  0  3  0  0  0  0  0  0
  183.9030  178.5850  138.7500 C   0  0  0  0  0  2  0  0  0  0  0  0
  182.5990  177.9660  140.7550 C   0  0  0  0  0  2  0  0  0  0  0  0
  183.8620  177.8780  141.6100 C   0  0  0  0  0  2  0  0  0  0  0  0
  1 12  1  0  0  0  0
  2 16  2  0  0  0  0
  2  6  1  0  0  0  0
  3 16  1  0  0  0  0
  4 13  2  0  0  0  0
  6 18  2  0  0  0  0
  7  9  1  6  0  0  0
  7 13  1  0  0  0  0
  8 17  1  0  0  0  0
 10 20  1  0  0  0  0
 10  8  2  0  0  0  0
 11 16  1  6  0  0  0
 11 14  1  0  0  0  0
 11  7  1  0  0  0  0
 12  2  1  0  0  0  0
 13  5  1  0  0  0  0
 14 18  1  6  0  0  0
 14  4  1  0  0  0  0
 15  1  1  0  0  0  0
 15 21  1  0  0  0  0
 17 21  2  0  0  0  0
 19 10  1  0  0  0  0
 20 15  2  0  0  0  0
 21  3  1  0  0  0  0
 22 26  1  0  0  0  0
 23 27  1  0  0  0  0
 23 12  1  0  0  0  0
 24 23  2  0  0  0  0
 25 22  1  0  0  0  0
 25 24  1  0  0  0  0
 26 27  1  0  0  0  0
M  END
>  <MODEL>
2

>  <REMARK>
 VINA RESULT:      -9.2      1.636      5.559
  Name = 
  1 active torsions:
  status: ('A' for Active; 'I' for Inactive)
    1  A    between atoms: C_9  and  N_15
                            x       y       z     vdW  Elec       q    Type
                         _______ _______ _______ _____ _____    ______ ____

>  <TORSDO>
F 1

$$$$
=
 OpenBabel10262420003D

 27 31  0  0  1  0  0  0  0  0999 V2000
  187.9860  176.3930  143.5280 C   0  0  0  0  0  2  0  0  0  0  0  0
  187.3330  177.8650  141.6620 C   0  0  0  0  0  0  0  0  0  0  0  0
  189.7880  178.1220  141.8920 N   0  0  0  0  0  2  0  0  0  0  0  0
  187.6830  178.6280  137.5930 N   0  0  0  0  0  0  0  0  0  0  0  0
  189.4300  177.6070  136.2260 C   0  0  0  0  0  1  0  0  0  0  0  0
  186.1340  177.8690  140.7720 C   0  0  0  0  0  3  0  0  0  0  0  0
  189.4870  177.9570  138.8140 C   0  0  2  0  0  3  0  0  0  0  0  0
  191.6740  177.8930  145.0910 C   0  0  0  0  0  3  0  0  0  0  0  0
  190.6930  177.1290  139.1100 C   0  0  0  0  0  1  0  0  0  0  0  0
  190.8390  177.1000  145.8770 C   0  0  0  0  0  0  0  0  0  0  0  0
  188.6220  178.4270  139.7000 C   0  0  1  0  0  3  0  0  0  0  0  0
  187.1590  177.4790  143.0310 N   0  0  0  0  0  0  0  0  0  0  0  0
  188.8620  178.1030  137.5090 C   0  0  0  0  0  0  0  0  0  0  0  0
  187.4310  178.9750  138.9870 C   0  0  2  0  0  3  0  0  0  0  0  0
  189.2570  176.9480  144.0460 C   0  0  0  0  0  0  0  0  0  0  0  0
  188.5620  178.0970  141.1360 C   0  0  0  0  0  0  0  0  0  0  0  0
  191.3020  178.2180  143.7850 C   0  0  0  0  0  3  0  0  0  0  0  0
  186.1800  178.3340  139.5160 C   0  0  0  0  0  3  0  0  0  0  0  0
  191.2320  176.7530  147.2670 C   0  0  0  0  0  1  0  0  0  0  0  0
  189.6360  176.6240  145.3520 C   0  0  0  0  0  3  0  0  0  0  0  0
  190.0900  177.7640  143.2510 C   0  0  0  0  0  0  0  0  0  0  0  0
  184.0710  179.0030  145.6080 C   0  0  0  0  0  2  0  0  0  0  0  0
  186.2090  178.1240  143.9060 C   0  0  0  0  0  0  0  0  0  0  0  0
  185.2340  178.8970  143.3920 C   0  0  0  0  0  3  0  0  0  0  0  0
  184.2380  179.6420  144.2360 C   0  0  0  0  0  2  0  0  0  0  0  0
  185.4470  178.8280  146.2310 C   0  0  0  0  0  2  0  0  0  0  0  0
  186.2670  177.8470  145.3950 C   0  0  0  0  0  2  0  0  0  0  0  0
  1 15  1  0  0  0  0
  2 12  1  0  0  0  0
  3 21  1  0  0  0  0
  4 14  1  0  0  0  0
  5 13  1  0  0  0  0
  6  2  1  0  0  0  0
  7  9  1  1  0  0  0
  7 11  1  0  0  0  0
  8 10  1  0  0  0  0
 10 19  1  0  0  0  0
 11 16  1  1  0  0  0
 12  1  1  0  0  0  0
 12 23  1  0  0  0  0
 13  4  2  0  0  0  0
 13  7  1  0  0  0  0
 14 18  1  1  0  0  0
 14 11  1  0  0  0  0
 15 20  1  0  0  0  0
 16  2  2  0  0  0  0
 16  3  1  0  0  0  0
 17  8  2  0  0  0  0
 18  6  2  0  0  0  0
 20 10  2  0  0  0  0
 21 17  1  0  0  0  0
 21 15  2  0  0  0  0
 22 26  1  0  0  0  0
 23 27  1  0  0  0  0
 24 23  2  0  0  0  0
 24 25  1  0  0  0  0
 25 22  1  0  0  0  0
 27 26  1  0  0  0  0
M  END
>  <MODEL>
3

>  <REMARK>
 VINA RESULT:      -8.4      1.785      5.944
  Name = 
  1 active torsions:
  status: ('A' for Active; 'I' for Inactive)
    1  A    between atoms: C_9  and  N_15
                            x       y       z     vdW  Elec       q    Type
                         _______ _______ _______ _____ _____    ______ ____

>  <TORSDO>
F 1

$$$$
=
 OpenBabel10262420003D

 27 31  0  0  1  0  0  0  0  0999 V2000
  188.2850  179.3720  142.0030 C   0  0  0  0  0  2  0  0  0  0  0  0
  186.1600  178.5510  141.0630 C   0  0  0  0  0  0  0  0  0  0  0  0
  186.2090  177.7540  143.4100 N   0  0  0  0  0  2  0  0  0  0  0  0
  182.0140  178.7240  141.2580 N   0  0  0  0  0  0  0  0  0  0  0  0
  180.8430  179.6650  143.1830 C   0  0  0  0  0  1  0  0  0  0  0  0
  185.3520  179.0020  139.8910 C   0  0  0  0  0  3  0  0  0  0  0  0
  183.2710  178.7050  143.1590 C   0  0  2  0  0  3  0  0  0  0  0  0
  189.2800  176.8270  145.2940 C   0  0  0  0  0  3  0  0  0  0  0  0
  183.6960  179.1760  144.5090 C   0  0  0  0  0  1  0  0  0  0  0  0
  190.2680  177.5630  144.6400 C   0  0  0  0  0  0  0  0  0  0  0  0
  184.0630  178.2230  142.2120 C   0  0  1  0  0  3  0  0  0  0  0  0
  187.5880  178.6270  140.9700 N   0  0  0  0  0  0  0  0  0  0  0  0
  182.0000  179.0030  142.5200 C   0  0  0  0  0  0  0  0  0  0  0  0
  183.2980  178.1130  140.9350 C   0  0  2  0  0  3  0  0  0  0  0  0
  188.5990  178.4630  143.1300 C   0  0  0  0  0  0  0  0  0  0  0  0
  185.5370  178.2060  142.2180 C   0  0  0  0  0  0  0  0  0  0  0  0
  187.9530  176.9050  144.8650 C   0  0  0  0  0  3  0  0  0  0  0  0
  184.0210  178.8500  139.8430 C   0  0  0  0  0  3  0  0  0  0  0  0
  191.6810  177.4820  145.0930 C   0  0  0  0  0  1  0  0  0  0  0  0
  189.9250  178.3830  143.5640 C   0  0  0  0  0  3  0  0  0  0  0  0
  187.5980  177.7090  143.7760 C   0  0  0  0  0  0  0  0  0  0  0  0
  189.4660  176.4180  137.7930 C   0  0  0  0  0  2  0  0  0  0  0  0
  188.3320  177.9980  139.9030 C   0  0  0  0  0  0  0  0  0  0  0  0
  189.3220  177.1320  140.1890 C   0  0  0  0  0  3  0  0  0  0  0  0
  190.1750  176.4750  139.1400 C   0  0  0  0  0  2  0  0  0  0  0  0
  188.9720  177.8130  137.4460 C   0  0  0  0  0  2  0  0  0  0  0  0
  187.9240  178.2530  138.4660 C   0  0  0  0  0  2  0  0  0  0  0  0
  1 15  1  0  0  0  0
  2 16  2  0  0  0  0
  3 21  1  0  0  0  0
  4 13  2  0  0  0  0
  6  2  1  0  0  0  0
  7  9  1  6  0  0  0
 10 19  1  0  0  0  0
 10  8  2  0  0  0  0
 11 16  1  6  0  0  0
 11  7  1  0  0  0  0
 12  2  1  0  0  0  0
 12  1  1  0  0  0  0
 13  7  1  0  0  0  0
 13  5  1  0  0  0  0
 14 18  1  6  0  0  0
 14  4  1  0  0  0  0
 14 11  1  0  0  0  0
 15 20  2  0  0  0  0
 15 21  1  0  0  0  0
 16  3  1  0  0  0  0
 17  8  1  0  0  0  0
 18  6  2  0  0  0  0
 20 10  1  0  0  0  0
 21 17  2  0  0  0  0
 22 25  1  0  0  0  0
 23 24  2  0  0  0  0
 23 12  1  0  0  0  0
 25 24  1  0  0  0  0
 26 22  1  0  0  0  0
 26 27  1  0  0  0  0
 27 23  1  0  0  0  0
M  END
>  <MODEL>
4

>  <REMARK>
 VINA RESULT:      -8.2      1.704      4.965
  Name = 
  1 active torsions:
  status: ('A' for Active; 'I' for Inactive)
    1  A    between atoms: C_9  and  N_15
                            x       y       z     vdW  Elec       q    Type
                         _______ _______ _______ _____ _____    ______ ____

>  <TORSDO>
F 1

$$$$
=
 OpenBabel10262420003D

 27 31  0  0  1  0  0  0  0  0999 V2000
  188.7350  176.3150  141.5700 C   0  0  0  0  0  2  0  0  0  0  0  0
  187.3140  177.8820  142.8340 C   0  0  0  0  0  0  0  0  0  0  0  0
  187.1140  178.5610  140.4580 N   0  0  0  0  0  2  0  0  0  0  0  0
  183.4500  179.2550  143.5030 N   0  0  0  0  0  0  0  0  0  0  0  0
  181.6190  178.7790  141.9590 C   0  0  0  0  0  1  0  0  0  0  0  0
  186.6850  177.7840  144.1840 C   0  0  0  0  0  3  0  0  0  0  0  0
  184.1680  178.7720  141.3940 C   0  0  2  0  0  3  0  0  0  0  0  0
  189.8040  178.2500  137.9070 C   0  0  0  0  0  3  0  0  0  0  0  0
  184.0810  178.1520  140.0400 C   0  0  0  0  0  1  0  0  0  0  0  0
  190.5840  177.2120  138.4180 C   0  0  0  0  0  0  0  0  0  0  0  0
  185.2710  178.9430  142.1070 C   0  0  1  0  0  3  0  0  0  0  0  0
  188.6030  177.2840  142.6430 N   0  0  0  0  0  0  0  0  0  0  0  0
  183.0530  178.9770  142.3040 C   0  0  0  0  0  0  0  0  0  0  0  0
  184.9050  179.3520  143.4950 C   0  0  2  0  0  3  0  0  0  0  0  0
  189.0900  177.0220  140.3180 C   0  0  0  0  0  0  0  0  0  0  0  0
  186.6120  178.4120  141.8010 C   0  0  0  0  0  0  0  0  0  0  0  0
  188.6700  178.6770  138.6020 C   0  0  0  0  0  3  0  0  0  0  0  0
  185.5430  178.4200  144.4860 C   0  0  0  0  0  3  0  0  0  0  0  0
  191.7910  176.7560  137.6810 C   0  0  0  0  0  1  0  0  0  0  0  0
  190.2230  176.5970  139.6170 C   0  0  0  0  0  3  0  0  0  0  0  0
  188.3060  178.0820  139.8160 C   0  0  0  0  0  0  0  0  0  0  0  0
  191.6830  178.3850  145.4360 C   0  0  0  0  0  2  0  0  0  0  0  0
  189.7420  177.6120  143.4680 C   0  0  0  0  0  0  0  0  0  0  0  0
  190.2930  178.8380  143.4020 C   0  0  0  0  0  3  0  0  0  0  0  0
  191.5090  179.2420  144.1890 C   0  0  0  0  0  2  0  0  0  0  0  0
  191.6310  176.9210  145.0290 C   0  0  0  0  0  2  0  0  0  0  0  0
  190.2470  176.5940  144.4700 C   0  0  0  0  0  2  0  0  0  0  0  0
  1 12  1  0  0  0  0
  2  6  1  0  0  0  0
  3 16  1  0  0  0  0
  5 13  1  0  0  0  0
  6 18  2  0  0  0  0
  7  9  1  1  0  0  0
  7 11  1  0  0  0  0
  7 13  1  0  0  0  0
  8 10  2  0  0  0  0
  8 17  1  0  0  0  0
 10 20  1  0  0  0  0
 11 16  1  1  0  0  0
 11 14  1  0  0  0  0
 12  2  1  0  0  0  0
 12 23  1  0  0  0  0
 13  4  2  0  0  0  0
 14  4  1  0  0  0  0
 14 18  1  1  0  0  0
 15  1  1  0  0  0  0
 16  2  2  0  0  0  0
 17 21  2  0  0  0  0
 19 10  1  0  0  0  0
 20 15  2  0  0  0  0
 21 15  1  0  0  0  0
 21  3  1  0  0  0  0
 23 27  1  0  0  0  0
 24 23  2  0  0  0  0
 24 25  1  0  0  0  0
 25 22  1  0  0  0  0
 26 22  1  0  0  0  0
 27 26  1  0  0  0  0
M  END
>  <MODEL>
5

>  <REMARK>
 VINA RESULT:      -8.2      1.505      2.025
  Name = 
  1 active torsions:
  status: ('A' for Active; 'I' for Inactive)
    1  A    between atoms: C_9  and  N_15
                            x       y       z     vdW  Elec       q    Type
                         _______ _______ _______ _____ _____    ______ ____

>  <TORSDO>
F 1

$$$$
=
 OpenBabel10262420003D

 27 31  0  0  1  0  0  0  0  0999 V2000
  189.0370  178.6400  138.6320 C   0  0  0  0  0  2  0  0  0  0  0  0
  188.0440  177.8600  140.7480 C   0  0  0  0  0  0  0  0  0  0  0  0
  189.9870  176.3770  140.3320 N   0  0  0  0  0  2  0  0  0  0  0  0
  188.6000  177.3620  144.8360 N   0  0  0  0  0  0  0  0  0  0  0  0
  190.8100  177.4660  145.8670 C   0  0  0  0  0  1  0  0  0  0  0  0
  187.1510  178.5370  141.7350 C   0  0  0  0  0  3  0  0  0  0  0  0
  190.2870  176.9240  143.3670 C   0  0  2  0  0  3  0  0  0  0  0  0
  191.2210  175.3550  136.9750 C   0  0  0  0  0  3  0  0  0  0  0  0
  191.6810  177.0000  142.8400 C   0  0  0  0  0  1  0  0  0  0  0  0
  190.7730  176.3950  136.1600 C   0  0  0  0  0  0  0  0  0  0  0  0
  189.1770  176.8860  142.6440 C   0  0  1  0  0  3  0  0  0  0  0  0
  187.8720  178.1670  139.3590 N   0  0  0  0  0  0  0  0  0  0  0  0
  189.8810  177.2230  144.7300 C   0  0  0  0  0  0  0  0  0  0  0  0
  187.9970  177.0770  143.5380 C   0  0  2  0  0  3  0  0  0  0  0  0
  189.7750  177.4760  138.0870 C   0  0  0  0  0  0  0  0  0  0  0  0
  189.0650  177.0820  141.1870 C   0  0  0  0  0  0  0  0  0  0  0  0
  190.9440  175.3720  138.3440 C   0  0  0  0  0  3  0  0  0  0  0  0
  187.1570  178.2170  143.0370 C   0  0  0  0  0  3  0  0  0  0  0  0
  191.0650  176.3790  134.7030 C   0  0  0  0  0  1  0  0  0  0  0  0
  190.0570  177.4550  136.7180 C   0  0  0  0  0  3  0  0  0  0  0  0
  190.2110  176.4200  138.9130 C   0  0  0  0  0  0  0  0  0  0  0  0
  184.0170  177.3650  137.6280 C   0  0  0  0  0  2  0  0  0  0  0  0
  186.6050  178.0220  138.6810 C   0  0  0  0  0  0  0  0  0  0  0  0
  186.5200  177.2870  137.5570 C   0  0  0  0  0  3  0  0  0  0  0  0
  185.2510  177.1280  136.7670 C   0  0  0  0  0  2  0  0  0  0  0  0
  184.1740  178.6970  138.3430 C   0  0  0  0  0  2  0  0  0  0  0  0
  185.3620  178.6280  139.3010 C   0  0  0  0  0  2  0  0  0  0  0  0
  1 12  1  0  0  0  0
  2 16  2  0  0  0  0
  2  6  1  0  0  0  0
  3 16  1  0  0  0  0
  6 18  2  0  0  0  0
  7  9  1  6  0  0  0
  7 13  1  0  0  0  0
  8 17  1  0  0  0  0
 10 20  1  0  0  0  0
 10  8  2  0  0  0  0
 11 16  1  6  0  0  0
 11  7  1  0  0  0  0
 11 14  1  0  0  0  0
 12  2  1  0  0  0  0
 13  4  2  0  0  0  0
 13  5  1  0  0  0  0
 14 18  1  6  0  0  0
 14  4  1  0  0  0  0
 15  1  1  0  0  0  0
 15 21  1  0  0  0  0
 17 21  2  0  0  0  0
 19 10  1  0  0  0  0
 20 15  2  0  0  0  0
 21  3  1  0  0  0  0
 22 26  1  0  0  0  0
 23 27  1  0  0  0  0
 23 12  1  0  0  0  0
 24 23  2  0  0  0  0
 25 24  1  0  0  0  0
 25 22  1  0  0  0  0
 26 27  1  0  0  0  0
M  END
>  <MODEL>
6

>  <REMARK>
 VINA RESULT:      -7.8      2.689      6.714
  Name = 
  1 active torsions:
  status: ('A' for Active; 'I' for Inactive)
    1  A    between atoms: C_9  and  N_15
                            x       y       z     vdW  Elec       q    Type
                         _______ _______ _______ _____ _____    ______ ____

>  <TORSDO>
F 1

$$$$
=
 OpenBabel10262420003D

 27 31  0  0  1  0  0  0  0  0999 V2000
  183.8100  177.3710  140.1020 C   0  0  0  0  0  2  0  0  0  0  0  0
  185.2850  178.2040  138.3120 C   0  0  0  0  0  0  0  0  0  0  0  0
  186.4350  178.7520  140.4390 N   0  0  0  0  0  2  0  0  0  0  0  0
  188.9860  177.8530  136.4570 N   0  0  0  0  0  0  0  0  0  0  0  0
  190.8520  176.6720  137.4970 C   0  0  0  0  0  1  0  0  0  0  0  0
  185.3910  177.8480  136.8660 C   0  0  0  0  0  3  0  0  0  0  0  0
  188.8000  177.7210  138.7250 C   0  0  2  0  0  3  0  0  0  0  0  0
  184.7330  179.5940  143.6380 C   0  0  0  0  0  3  0  0  0  0  0  0
  189.0370  177.1280  140.0730 C   0  0  0  0  0  1  0  0  0  0  0  0
  183.4950  178.9680  143.4940 C   0  0  0  0  0  0  0  0  0  0  0  0
  187.6960  178.3300  138.3190 C   0  0  1  0  0  3  0  0  0  0  0  0
  183.9860  178.1930  138.9180 N   0  0  0  0  0  0  0  0  0  0  0  0
  189.5800  177.4430  137.5290 C   0  0  0  0  0  0  0  0  0  0  0  0
  187.7600  178.5430  136.8440 C   0  0  2  0  0  3  0  0  0  0  0  0
  184.1530  178.1680  141.3020 C   0  0  0  0  0  0  0  0  0  0  0  0
  186.4120  178.4020  139.0410 C   0  0  0  0  0  0  0  0  0  0  0  0
  185.6800  179.5110  142.6150 C   0  0  0  0  0  3  0  0  0  0  0  0
  186.5440  177.9530  136.1890 C   0  0  0  0  0  3  0  0  0  0  0  0
  182.4850  179.0560  144.5810 C   0  0  0  0  0  1  0  0  0  0  0  0
  183.2090  178.2530  142.3310 C   0  0  0  0  0  3  0  0  0  0  0  0
  185.4010  178.8120  141.4350 C   0  0  0  0  0  0  0  0  0  0  0  0
  180.9610  180.5610  136.9850 C   0  0  0  0  0  2  0  0  0  0  0  0
  182.8780  178.9580  138.3960 C   0  0  0  0  0  0  0  0  0  0  0  0
  182.7420  180.2580  138.7180 C   0  0  0  0  0  3  0  0  0  0  0  0
  181.5920  181.1090  138.2580 C   0  0  0  0  0  2  0  0  0  0  0  0
  180.6350  179.0920  137.1980 C   0  0  0  0  0  2  0  0  0  0  0  0
  181.9280  178.3070  137.4110 C   0  0  0  0  0  2  0  0  0  0  0  0
  1 15  1  0  0  0  0
  2 12  1  0  0  0  0
  2 16  2  0  0  0  0
  3 21  1  0  0  0  0
  4 14  1  0  0  0  0
  4 13  2  0  0  0  0
  5 13  1  0  0  0  0
  6  2  1  0  0  0  0
  7  9  1  6  0  0  0
 10  8  1  0  0  0  0
 10 19  1  0  0  0  0
 11  7  1  0  0  0  0
 11 16  1  6  0  0  0
 12  1  1  0  0  0  0
 13  7  1  0  0  0  0
 14 18  1  6  0  0  0
 14 11  1  0  0  0  0
 15 21  2  0  0  0  0
 15 20  1  0  0  0  0
 16  3  1  0  0  0  0
 17  8  2  0  0  0  0
 18  6  2  0  0  0  0
 20 10  2  0  0  0  0
 21 17  1  0  0  0  0
 22 26  1  0  0  0  0
 22 25  1  0  0  0  0
 23 24  2  0  0  0  0
 23 12  1  0  0  0  0
 25 24  1  0  0  0  0
 26 27  1  0  0  0  0
 27 23  1  0  0  0  0
M  END
>  <MODEL>
7

>  <REMARK>
 VINA RESULT:      -7.8      3.648      8.818
  Name = 
  1 active torsions:
  status: ('A' for Active; 'I' for Inactive)
    1  A    between atoms: C_9  and  N_15
                            x       y       z     vdW  Elec       q    Type
                         _______ _______ _______ _____ _____    ______ ____

>  <TORSDO>
F 1

$$$$
