=
 OpenBabel10262421003D

 32 36  0  0  1  0  0  0  0  0999 V2000
  185.1870  177.1410  137.2350 C   0  0  2  0  0  3  0  0  0  0  0  0
  187.6030  176.9690  137.4540 C   0  0  2  0  0  3  0  0  0  0  0  0
  183.9390  176.5120  136.6580 C   0  0  0  0  0  2  0  0  0  0  0  0
  186.3220  176.5150  137.0010 C   0  0  1  0  0  3  0  0  0  0  0  0
  188.3140  175.6490  137.4240 C   0  0  1  0  0  3  0  0  0  0  0  0
  187.4500  177.5790  138.8300 C   0  0  2  0  0  3  0  0  0  0  0  0
  189.8560  177.0930  139.6320 C   0  0  0  0  0  0  0  0  0  0  0  0
  186.4210  175.1830  136.4040 C   0  0  2  0  0  3  0  0  0  0  0  0
  190.2630  176.1470  138.8230 N   0  0  0  0  0  0  0  0  0  0  0  0
  187.8100  174.9360  136.3050 O   0  0  0  0  0  0  0  0  0  0  0  0
  185.6600  175.2370  135.0870 C   0  0  0  0  0  2  0  0  0  0  0  0
  186.4990  178.6350  138.7500 O   0  0  0  0  0  0  0  0  0  0  0  0
  185.2070  178.1330  138.3970 C   0  0  1  0  0  3  0  0  0  0  0  0
  188.8130  178.1360  139.2600 C   0  0  1  0  0  3  0  0  0  0  0  0
  189.8230  175.8330  137.4570 C   0  0  2  0  0  3  0  0  0  0  0  0
  184.2090  175.7640  135.3110 C   0  0  0  0  0  2  0  0  0  0  0  0
  189.3250  179.0460  138.3310 O   0  0  0  0  0  1  0  0  0  0  0  0
  184.1290  179.2320  138.3730 C   0  0  2  0  0  3  0  0  0  0  0  0
  184.1970  180.0750  139.5110 O   0  0  0  0  0  0  0  0  0  0  0  0
  183.0530  179.2570  139.4260 C   0  0  2  0  0  0  0  0  0  0  0  0
  182.9260  178.2910  140.6440 C   0  0  0  0  0  0  0  0  0  0  0  0
  182.6580  176.8810  140.1520 C   0  0  0  0  0  1  0  0  0  0  0  0
  181.7480  178.7070  141.5090 C   0  0  0  0  0  1  0  0  0  0  0  0
  184.1380  178.2690  141.5620 C   0  0  0  0  0  1  0  0  0  0  0  0
  181.1080  179.3200  138.0060 O   0  0  0  0  0  1  0  0  0  0  0  0
  181.7800  180.0230  139.0050 C   0  0  2  0  0  3  0  0  0  0  0  0
  182.0200  181.4580  138.5520 C   0  0  0  0  0  1  0  0  0  0  0  0
  190.2790  176.8470  136.5130 N   0  0  0  0  0  2  0  0  0  0  0  0
  191.0010  176.1580  135.4570 C   0  0  0  0  0  1  0  0  0  0  0  0
  190.4380  177.1440  140.9030 O   0  0  0  0  0  0  0  0  0  0  0  0
  190.2040  175.7890  142.8830 C   0  0  0  0  0  1  0  0  0  0  0  0
  189.6980  176.9920  142.1090 C   0  0  0  0  0  2  0  0  0  0  0  0
  1  3  1  1  0  0  0
  1 13  1  0  0  0  0
  2  6  1  0  0  0  0
  4  1  1  0  0  0  0
  4  2  1  0  0  0  0
  5  2  1  0  0  0  0
  5 15  1  0  0  0  0
  6 14  1  0  0  0  0
  7 30  1  0  0  0  0
  8  4  1  0  0  0  0
  9  7  2  0  0  0  0
 10  8  1  0  0  0  0
 10  5  1  0  0  0  0
 11 16  1  0  0  0  0
 11  8  1  0  0  0  0
 12  6  1  0  0  0  0
 13 12  1  0  0  0  0
 14  7  1  0  0  0  0
 15  9  1  0  0  0  0
 16  3  1  0  0  0  0
 17 14  1  0  0  0  0
 18 13  1  0  0  0  0
 18 20  1  0  0  0  0
 18 19  1  0  0  0  0
 20 19  1  0  0  0  0
 20 21  1  0  0  0  0
 21 23  1  0  0  0  0
 21 24  1  0  0  0  0
 22 21  1  0  0  0  0
 25 26  1  0  0  0  0
 26 20  1  0  0  0  0
 27 26  1  0  0  0  0
 28 15  1  0  0  0  0
 29 28  1  0  0  0  0
 30 32  1  0  0  0  0
 32 31  1  0  0  0  0
M  END
>  <MODEL>
1

>  <REMARK>
 VINA RESULT:      -6.5      0.000      0.000
  Name = 
  6 active torsions:
  status: ('A' for Active; 'I' for Inactive)
    1  A    between atoms: C_3  and  C_22
    2  A    between atoms: O_11  and  C_12
    3  A    between atoms: O_11  and  C_31
    4  A    between atoms: N_13  and  C_29
    5  A    between atoms: C_15  and  C_22
    6  A    between atoms: C_16  and  C_27
                            x       y       z     vdW  Elec       q    Type
                         _______ _______ _______ _____ _____    ______ ____

>  <TORSDO>
F 6

$$$$
=
 OpenBabel10262421003D

 32 36  0  0  1  0  0  0  0  0999 V2000
  189.1000  176.4890  137.7220 C   0  0  2  0  0  3  0  0  0  0  0  0
  188.8590  177.0320  140.0800 C   0  0  2  0  0  3  0  0  0  0  0  0
  188.5980  176.7600  136.3220 C   0  0  0  0  0  2  0  0  0  0  0  0
  188.5250  177.1670  138.6930 C   0  0  1  0  0  3  0  0  0  0  0  0
  188.3700  178.3720  140.5430 C   0  0  1  0  0  3  0  0  0  0  0  0
  190.3510  176.8190  140.2080 C   0  0  2  0  0  3  0  0  0  0  0  0
  190.5850  177.8230  142.5760 C   0  0  0  0  0  0  0  0  0  0  0  0
  187.5970  178.2780  138.4850 C   0  0  2  0  0  3  0  0  0  0  0  0
  189.5030  178.5490  142.7090 N   0  0  0  0  0  0  0  0  0  0  0  0
  187.2060  178.6690  139.7870 O   0  0  0  0  0  0  0  0  0  0  0  0
  186.4850  177.7570  137.5850 C   0  0  0  0  0  2  0  0  0  0  0  0
  190.7070  175.6680  139.4520 O   0  0  0  0  0  0  0  0  0  0  0  0
  190.4590  175.8750  138.0580 C   0  0  1  0  0  3  0  0  0  0  0  0
  190.6750  176.5900  141.6900 C   0  0  1  0  0  3  0  0  0  0  0  0
  188.1960  178.4060  142.0530 C   0  0  2  0  0  3  0  0  0  0  0  0
  187.0790  177.1280  136.2870 C   0  0  0  0  0  2  0  0  0  0  0  0
  189.9400  175.5310  142.2300 O   0  0  0  0  0  1  0  0  0  0  0  0
  190.9000  174.6810  137.1910 C   0  0  2  0  0  3  0  0  0  0  0  0
  191.8950  173.8960  137.8270 O   0  0  0  0  0  0  0  0  0  0  0  0
  192.3140  174.6010  136.6820 C   0  0  2  0  0  0  0  0  0  0  0  0
  193.4700  175.6010  136.9930 C   0  0  0  0  0  0  0  0  0  0  0  0
  194.0600  176.1200  135.6960 C   0  0  0  0  0  1  0  0  0  0  0  0
  194.5780  174.8870  137.7490 C   0  0  0  0  0  1  0  0  0  0  0  0
  193.0640  176.7850  137.8580 C   0  0  0  0  0  1  0  0  0  0  0  0
  191.3800  173.8450  134.5940 O   0  0  0  0  0  1  0  0  0  0  0  0
  192.4820  173.7040  135.4360 C   0  0  2  0  0  3  0  0  0  0  0  0
  192.7130  172.2290  135.7390 C   0  0  0  0  0  1  0  0  0  0  0  0
  187.4830  177.2360  142.5550 N   0  0  0  0  0  2  0  0  0  0  0  0
  187.1560  177.4960  143.9460 C   0  0  0  0  0  1  0  0  0  0  0  0
  191.7100  178.2090  143.3130 O   0  0  0  0  0  0  0  0  0  0  0  0
  191.5130  176.8230  145.2760 C   0  0  0  0  0  1  0  0  0  0  0  0
  191.7460  178.2220  144.7350 C   0  0  0  0  0  2  0  0  0  0  0  0
  1  3  1  6  0  0  0
  1 13  1  0  0  0  0
  1  4  1  0  0  0  0
  2  6  1  0  0  0  0
  2  5  1  0  0  0  0
  4  2  1  0  0  0  0
  5 15  1  0  0  0  0
  6 14  1  0  0  0  0
  7  9  2  0  0  0  0
  7 30  1  0  0  0  0
  8  4  1  0  0  0  0
  8 10  1  0  0  0  0
 10  5  1  0  0  0  0
 11  8  1  0  0  0  0
 12  6  1  0  0  0  0
 13 12  1  0  0  0  0
 14 17  1  0  0  0  0
 14  7  1  0  0  0  0
 15 28  1  0  0  0  0
 15  9  1  0  0  0  0
 16  3  1  0  0  0  0
 16 11  1  0  0  0  0
 18 19  1  0  0  0  0
 18 13  1  0  0  0  0
 20 21  1  0  0  0  0
 20 18  1  0  0  0  0
 20 19  1  0  0  0  0
 21 23  1  0  0  0  0
 21 24  1  0  0  0  0
 22 21  1  0  0  0  0
 25 26  1  0  0  0  0
 26 27  1  0  0  0  0
 26 20  1  0  0  0  0
 28 29  1  0  0  0  0
 30 32  1  0  0  0  0
 32 31  1  0  0  0  0
M  END
>  <MODEL>
2

>  <REMARK>
 VINA RESULT:      -6.0      3.461      7.600
  Name = 
  6 active torsions:
  status: ('A' for Active; 'I' for Inactive)
    1  A    between atoms: C_3  and  C_22
    2  A    between atoms: O_11  and  C_12
    3  A    between atoms: O_11  and  C_31
    4  A    between atoms: N_13  and  C_29
    5  A    between atoms: C_15  and  C_22
    6  A    between atoms: C_16  and  C_27
                            x       y       z     vdW  Elec       q    Type
                         _______ _______ _______ _____ _____    ______ ____

>  <TORSDO>
F 6

$$$$
=
 OpenBabel10262421003D

 32 36  0  0  1  0  0  0  0  0999 V2000
  185.5330  178.7440  143.0670 C   0  0  2  0  0  3  0  0  0  0  0  0
  184.0310  178.9720  141.1680 C   0  0  2  0  0  3  0  0  0  0  0  0
  185.6350  178.4630  144.5490 C   0  0  0  0  0  2  0  0  0  0  0  0
  184.3230  178.7170  142.5470 C   0  0  1  0  0  3  0  0  0  0  0  0
  182.7240  178.2410  141.0930 C   0  0  1  0  0  3  0  0  0  0  0  0
  185.1370  178.3900  140.3150 C   0  0  2  0  0  3  0  0  0  0  0  0
  183.6980  177.9920  138.2070 C   0  0  0  0  0  0  0  0  0  0  0  0
  183.1320  178.2490  143.2560 C   0  0  2  0  0  3  0  0  0  0  0  0
  182.4720  177.9990  138.6680 N   0  0  0  0  0  0  0  0  0  0  0  0
  182.0720  178.4360  142.3380 O   0  0  0  0  0  0  0  0  0  0  0  0
  183.0460  179.0530  144.5450 C   0  0  0  0  0  2  0  0  0  0  0  0
  186.3700  178.9690  140.7220 O   0  0  0  0  0  0  0  0  0  0  0  0
  186.6830  178.6080  142.0710 C   0  0  1  0  0  3  0  0  0  0  0  0
  184.8500  178.7490  138.8510 C   0  0  1  0  0  3  0  0  0  0  0  0
  181.9280  178.6540  139.8650 C   0  0  2  0  0  3  0  0  0  0  0  0
  184.3820  178.9550  145.3440 C   0  0  0  0  0  2  0  0  0  0  0  0
  184.7080  180.1270  138.6670 O   0  0  0  0  0  1  0  0  0  0  0  0
  188.0490  179.1520  142.5300 C   0  0  2  0  0  3  0  0  0  0  0  0
  189.0620  178.9460  141.5590 O   0  0  0  0  0  0  0  0  0  0  0  0
  189.2010  178.2080  142.7510 C   0  0  2  0  0  0  0  0  0  0  0  0
  189.2000  176.6690  142.4960 C   0  0  0  0  0  0  0  0  0  0  0  0
  189.0390  176.3960  141.0120 C   0  0  0  0  0  1  0  0  0  0  0  0
  188.0200  176.0310  143.2100 C   0  0  0  0  0  1  0  0  0  0  0  0
  190.4400  175.9450  142.9980 C   0  0  0  0  0  1  0  0  0  0  0  0
  191.5560  178.5280  143.1450 O   0  0  0  0  0  1  0  0  0  0  0  0
  190.2940  178.7610  143.6910 C   0  0  2  0  0  3  0  0  0  0  0  0
  190.2430  178.2220  145.1150 C   0  0  0  0  0  1  0  0  0  0  0  0
  181.8820  180.1020  139.6970 N   0  0  0  0  0  2  0  0  0  0  0  0
  180.4810  180.4850  139.6520 C   0  0  0  0  0  1  0  0  0  0  0  0
  183.9410  177.2540  137.0430 O   0  0  0  0  0  0  0  0  0  0  0  0
  185.7830  175.7150  136.8140 C   0  0  0  0  0  1  0  0  0  0  0  0
  185.2370  177.0910  136.4780 C   0  0  0  0  0  2  0  0  0  0  0  0
  1  3  1  1  0  0  0
  2  4  1  0  0  0  0
  3 16  1  0  0  0  0
  4  1  1  0  0  0  0
  4  8  1  0  0  0  0
  5  2  1  0  0  0  0
  5 10  1  0  0  0  0
  6 12  1  0  0  0  0
  6  2  1  0  0  0  0
  7  9  2  0  0  0  0
  7 14  1  0  0  0  0
  8 11  1  0  0  0  0
  9 15  1  0  0  0  0
 10  8  1  0  0  0  0
 11 16  1  0  0  0  0
 12 13  1  0  0  0  0
 13 18  1  0  0  0  0
 13  1  1  0  0  0  0
 14  6  1  0  0  0  0
 15  5  1  0  0  0  0
 17 14  1  0  0  0  0
 18 20  1  0  0  0  0
 19 18  1  0  0  0  0
 19 20  1  0  0  0  0
 20 26  1  0  0  0  0
 21 20  1  0  0  0  0
 21 24  1  0  0  0  0
 21 23  1  0  0  0  0
 22 21  1  0  0  0  0
 25 26  1  0  0  0  0
 26 27  1  0  0  0  0
 28 15  1  0  0  0  0
 29 28  1  0  0  0  0
 30  7  1  0  0  0  0
 32 31  1  0  0  0  0
 32 30  1  0  0  0  0
M  END
>  <MODEL>
3

>  <REMARK>
 VINA RESULT:      -5.7      3.035      7.701
  Name = 
  6 active torsions:
  status: ('A' for Active; 'I' for Inactive)
    1  A    between atoms: C_3  and  C_22
    2  A    between atoms: O_11  and  C_12
    3  A    between atoms: O_11  and  C_31
    4  A    between atoms: N_13  and  C_29
    5  A    between atoms: C_15  and  C_22
    6  A    between atoms: C_16  and  C_27
                            x       y       z     vdW  Elec       q    Type
                         _______ _______ _______ _____ _____    ______ ____

>  <TORSDO>
F 6

$$$$
=
 OpenBabel10262421003D

 32 36  0  0  1  0  0  0  0  0999 V2000
  186.4650  177.8530  137.6400 C   0  0  2  0  0  3  0  0  0  0  0  0
  188.3910  177.5730  139.0980 C   0  0  2  0  0  3  0  0  0  0  0  0
  185.8620  177.5260  136.2930 C   0  0  0  0  0  2  0  0  0  0  0  0
  187.6600  177.3560  137.8860 C   0  0  1  0  0  3  0  0  0  0  0  0
  189.2750  176.3630  139.0260 C   0  0  1  0  0  3  0  0  0  0  0  0
  187.4230  177.5850  140.2610 C   0  0  2  0  0  3  0  0  0  0  0  0
  189.1060  176.7840  142.0480 C   0  0  0  0  0  0  0  0  0  0  0  0
  188.3320  176.3710  137.0380 C   0  0  2  0  0  3  0  0  0  0  0  0
  190.0620  176.2320  141.3430 N   0  0  0  0  0  0  0  0  0  0  0  0
  189.5870  176.1630  137.6560 O   0  0  0  0  0  0  0  0  0  0  0  0
  188.3710  176.9570  135.6340 C   0  0  0  0  0  2  0  0  0  0  0  0
  186.4530  178.6000  140.0260 O   0  0  0  0  0  0  0  0  0  0  0  0
  185.6710  178.3000  138.8670 C   0  0  1  0  0  3  0  0  0  0  0  0
  188.2130  177.9040  141.5370 C   0  0  1  0  0  3  0  0  0  0  0  0
  190.4710  176.4950  139.9570 C   0  0  2  0  0  3  0  0  0  0  0  0
  186.9410  177.3730  135.1710 C   0  0  0  0  0  2  0  0  0  0  0  0
  188.9260  179.1010  141.4270 O   0  0  0  0  0  1  0  0  0  0  0  0
  184.5570  179.3340  138.6180 C   0  0  2  0  0  3  0  0  0  0  0  0
  184.2200  180.0520  139.7930 O   0  0  0  0  0  0  0  0  0  0  0  0
  183.2230  179.1860  139.3010 C   0  0  2  0  0  0  0  0  0  0  0  0
  182.8300  178.0890  140.3380 C   0  0  0  0  0  0  0  0  0  0  0  0
  181.4000  178.3070  140.7950 C   0  0  0  0  0  1  0  0  0  0  0  0
  183.7250  178.1940  141.5620 C   0  0  0  0  0  1  0  0  0  0  0  0
  182.9720  176.6620  139.8320 C   0  0  0  0  0  1  0  0  0  0  0  0
  181.9000  179.4120  137.3010 O   0  0  0  0  0  1  0  0  0  0  0  0
  182.0680  179.9210  138.5880 C   0  0  2  0  0  3  0  0  0  0  0  0
  182.2180  181.4360  138.5260 C   0  0  0  0  0  1  0  0  0  0  0  0
  191.1230  177.7950  139.8400 N   0  0  0  0  0  2  0  0  0  0  0  0
  192.4380  177.6730  140.4460 C   0  0  0  0  0  1  0  0  0  0  0  0
  188.9200  176.3150  143.3540 O   0  0  0  0  0  0  0  0  0  0  0  0
  190.5310  177.2680  144.8730 C   0  0  0  0  0  1  0  0  0  0  0  0
  189.0640  177.1360  144.5070 C   0  0  0  0  0  2  0  0  0  0  0  0
  1  3  1  1  0  0  0
  1  4  1  0  0  0  0
  1 13  1  0  0  0  0
  2  6  1  0  0  0  0
  4  2  1  0  0  0  0
  5  2  1  0  0  0  0
  5 15  1  0  0  0  0
  6 14  1  0  0  0  0
  7 30  1  0  0  0  0
  8 10  1  0  0  0  0
  8  4  1  0  0  0  0
  9  7  2  0  0  0  0
 10  5  1  0  0  0  0
 11  8  1  0  0  0  0
 12  6  1  0  0  0  0
 13 12  1  0  0  0  0
 14  7  1  0  0  0  0
 15  9  1  0  0  0  0
 16 11  1  0  0  0  0
 16  3  1  0  0  0  0
 17 14  1  0  0  0  0
 18 13  1  0  0  0  0
 18 20  1  0  0  0  0
 18 19  1  0  0  0  0
 20 19  1  0  0  0  0
 20 21  1  0  0  0  0
 21 22  1  0  0  0  0
 21 23  1  0  0  0  0
 24 21  1  0  0  0  0
 25 26  1  0  0  0  0
 26 20  1  0  0  0  0
 27 26  1  0  0  0  0
 28 15  1  0  0  0  0
 28 29  1  0  0  0  0
 30 32  1  0  0  0  0
 32 31  1  0  0  0  0
M  END
>  <MODEL>
4

>  <REMARK>
 VINA RESULT:      -5.7      1.655      2.310
  Name = 
  6 active torsions:
  status: ('A' for Active; 'I' for Inactive)
    1  A    between atoms: C_3  and  C_22
    2  A    between atoms: O_11  and  C_12
    3  A    between atoms: O_11  and  C_31
    4  A    between atoms: N_13  and  C_29
    5  A    between atoms: C_15  and  C_22
    6  A    between atoms: C_16  and  C_27
                            x       y       z     vdW  Elec       q    Type
                         _______ _______ _______ _____ _____    ______ ____

>  <TORSDO>
F 6

$$$$
=
 OpenBabel10262421003D

 32 36  0  0  1  0  0  0  0  0999 V2000
  187.3830  177.6950  143.0170 C   0  0  2  0  0  3  0  0  0  0  0  0
  188.1220  177.8820  140.7080 C   0  0  2  0  0  3  0  0  0  0  0  0
  186.2430  177.9220  143.9840 C   0  0  0  0  0  2  0  0  0  0  0  0
  187.1570  178.0140  141.7590 C   0  0  1  0  0  3  0  0  0  0  0  0
  187.1640  177.8050  139.5560 C   0  0  1  0  0  3  0  0  0  0  0  0
  188.9380  176.6300  140.9430 C   0  0  2  0  0  3  0  0  0  0  0  0
  189.5220  176.1950  138.4650 C   0  0  0  0  0  0  0  0  0  0  0  0
  185.8450  178.3740  141.2230 C   0  0  2  0  0  3  0  0  0  0  0  0
  188.6190  176.8840  137.8120 N   0  0  0  0  0  0  0  0  0  0  0  0
  186.0840  178.6730  139.8610 O   0  0  0  0  0  0  0  0  0  0  0  0
  185.3260  179.5240  142.0750 C   0  0  0  0  0  2  0  0  0  0  0  0
  189.5460  176.7240  142.2250 O   0  0  0  0  0  0  0  0  0  0  0  0
  188.5580  176.7480  143.2590 C   0  0  1  0  0  3  0  0  0  0  0  0
  190.0190  176.5540  139.8570 C   0  0  1  0  0  3  0  0  0  0  0  0
  187.8660  178.0730  138.2340 C   0  0  2  0  0  3  0  0  0  0  0  0
  185.3490  179.1410  143.5870 C   0  0  0  0  0  2  0  0  0  0  0  0
  190.8110  177.7040  139.8240 O   0  0  0  0  0  1  0  0  0  0  0  0
  189.1740  176.7740  144.6700 C   0  0  2  0  0  3  0  0  0  0  0  0
  189.1010  178.0600  145.2620 O   0  0  0  0  0  0  0  0  0  0  0  0
  190.3970  177.6080  144.9440 C   0  0  2  0  0  0  0  0  0  0  0  0
  191.1200  178.5520  143.9340 C   0  0  0  0  0  0  0  0  0  0  0  0
  191.8990  177.7240  142.9290 C   0  0  0  0  0  1  0  0  0  0  0  0
  192.1150  179.4300  144.6740 C   0  0  0  0  0  1  0  0  0  0  0  0
  190.1980  179.4990  143.1830 C   0  0  0  0  0  1  0  0  0  0  0  0
  191.9170  175.9870  145.8740 O   0  0  0  0  0  1  0  0  0  0  0  0
  191.2070  177.1490  146.1750 C   0  0  2  0  0  3  0  0  0  0  0  0
  190.3810  176.9330  147.4380 C   0  0  0  0  0  1  0  0  0  0  0  0
  188.7300  179.2470  138.2940 N   0  0  0  0  0  2  0  0  0  0  0  0
  189.1570  179.5360  136.9350 C   0  0  0  0  0  1  0  0  0  0  0  0
  190.0630  175.0770  137.8210 O   0  0  0  0  0  0  0  0  0  0  0  0
  192.0020  175.9890  136.7180 C   0  0  0  0  0  1  0  0  0  0  0  0
  191.4590  174.8930  137.6150 C   0  0  0  0  0  2  0  0  0  0  0  0
  1 13  1  0  0  0  0
  1  3  1  6  0  0  0
  2  6  1  0  0  0  0
  2  4  1  0  0  0  0
  4  1  1  0  0  0  0
  5 10  1  0  0  0  0
  5  2  1  0  0  0  0
  6 12  1  0  0  0  0
  7 14  1  0  0  0  0
  8  4  1  0  0  0  0
  8 11  1  0  0  0  0
  9 15  1  0  0  0  0
  9  7  2  0  0  0  0
 10  8  1  0  0  0  0
 11 16  1  0  0  0  0
 12 13  1  0  0  0  0
 13 18  1  0  0  0  0
 14  6  1  0  0  0  0
 15 28  1  0  0  0  0
 15  5  1  0  0  0  0
 16  3  1  0  0  0  0
 17 14  1  0  0  0  0
 18 20  1  0  0  0  0
 18 19  1  0  0  0  0
 20 19  1  0  0  0  0
 20 26  1  0  0  0  0
 21 23  1  0  0  0  0
 21 20  1  0  0  0  0
 22 21  1  0  0  0  0
 24 21  1  0  0  0  0
 25 26  1  0  0  0  0
 26 27  1  0  0  0  0
 29 28  1  0  0  0  0
 30  7  1  0  0  0  0
 31 32  1  0  0  0  0
 32 30  1  0  0  0  0
M  END
>  <MODEL>
5

>  <REMARK>
 VINA RESULT:      -5.0      3.031      7.124
  Name = 
  6 active torsions:
  status: ('A' for Active; 'I' for Inactive)
    1  A    between atoms: C_3  and  C_22
    2  A    between atoms: O_11  and  C_12
    3  A    between atoms: O_11  and  C_31
    4  A    between atoms: N_13  and  C_29
    5  A    between atoms: C_15  and  C_22
    6  A    between atoms: C_16  and  C_27
                            x       y       z     vdW  Elec       q    Type
                         _______ _______ _______ _____ _____    ______ ____

>  <TORSDO>
F 6

$$$$
=
 OpenBabel10262421003D

 32 36  0  0  1  0  0  0  0  0999 V2000
  184.2980  178.5440  140.8760 C   0  0  2  0  0  3  0  0  0  0  0  0
  182.1050  179.2960  140.1400 C   0  0  2  0  0  3  0  0  0  0  0  0
  185.1240  178.0670  142.0490 C   0  0  0  0  0  2  0  0  0  0  0  0
  183.0330  178.8200  141.1220 C   0  0  1  0  0  3  0  0  0  0  0  0
  180.8420  178.8510  140.8150 C   0  0  1  0  0  3  0  0  0  0  0  0
  182.3950  178.6190  138.8190 C   0  0  2  0  0  3  0  0  0  0  0  0
  179.9940  178.7770  137.8800 C   0  0  0  0  0  0  0  0  0  0  0  0
  182.3520  178.5100  142.3790 C   0  0  2  0  0  3  0  0  0  0  0  0
  179.2600  178.9670  138.9480 N   0  0  0  0  0  0  0  0  0  0  0  0
  181.0420  179.0150  142.2110 O   0  0  0  0  0  0  0  0  0  0  0  0
  183.1730  179.1500  143.4900 C   0  0  0  0  0  2  0  0  0  0  0  0
  183.7450  178.8890  138.4620 O   0  0  0  0  0  0  0  0  0  0  0  0
  184.6490  178.3090  139.4070 C   0  0  1  0  0  3  0  0  0  0  0  0
  181.4490  179.2060  137.7640 C   0  0  1  0  0  3  0  0  0  0  0  0
  179.6270  179.5620  140.2400 C   0  0  2  0  0  3  0  0  0  0  0  0
  184.6620  178.6920  143.4050 C   0  0  0  0  0  2  0  0  0  0  0  0
  181.5540  180.5970  137.6800 O   0  0  0  0  0  1  0  0  0  0  0  0
  186.1260  178.5130  139.0200 C   0  0  2  0  0  3  0  0  0  0  0  0
  186.2710  178.9710  137.6860 O   0  0  0  0  0  0  0  0  0  0  0  0
  186.7440  177.6680  137.9370 C   0  0  2  0  0  0  0  0  0  0  0  0
  186.0170  176.5970  137.0680 C   0  0  0  0  0  0  0  0  0  0  0  0
  187.0210  175.5730  136.5730 C   0  0  0  0  0  1  0  0  0  0  0  0
  185.3990  177.2600  135.8480 C   0  0  0  0  0  1  0  0  0  0  0  0
  184.8830  175.8730  137.7760 C   0  0  0  0  0  1  0  0  0  0  0  0
  188.6870  177.4270  139.3410 O   0  0  0  0  0  1  0  0  0  0  0  0
  188.2840  177.5790  138.0150 C   0  0  2  0  0  3  0  0  0  0  0  0
  189.0240  178.7520  137.3840 C   0  0  0  0  0  1  0  0  0  0  0  0
  179.8340  181.0010  140.1160 N   0  0  0  0  0  2  0  0  0  0  0  0
  178.9310  181.6480  141.0520 C   0  0  0  0  0  1  0  0  0  0  0  0
  179.3840  178.1560  136.7850 O   0  0  0  0  0  0  0  0  0  0  0  0
  179.9750  175.9510  137.5620 C   0  0  0  0  0  1  0  0  0  0  0  0
  179.6980  176.8350  136.3600 C   0  0  0  0  0  2  0  0  0  0  0  0
  1  4  1  0  0  0  0
  1  3  1  1  0  0  0
  2  5  1  0  0  0  0
  2  4  1  0  0  0  0
  3 16  1  0  0  0  0
  4  8  1  0  0  0  0
  5 10  1  0  0  0  0
  6  2  1  0  0  0  0
  7  9  2  0  0  0  0
  8 11  1  0  0  0  0
  9 15  1  0  0  0  0
 10  8  1  0  0  0  0
 12  6  1  0  0  0  0
 12 13  1  0  0  0  0
 13  1  1  0  0  0  0
 14  7  1  0  0  0  0
 14  6  1  0  0  0  0
 15  5  1  0  0  0  0
 16 11  1  0  0  0  0
 17 14  1  0  0  0  0
 18 13  1  0  0  0  0
 19 20  1  0  0  0  0
 19 18  1  0  0  0  0
 20 26  1  0  0  0  0
 20 18  1  0  0  0  0
 21 24  1  0  0  0  0
 21 20  1  0  0  0  0
 22 21  1  0  0  0  0
 23 21  1  0  0  0  0
 26 25  1  0  0  0  0
 27 26  1  0  0  0  0
 28 15  1  0  0  0  0
 28 29  1  0  0  0  0
 30  7  1  0  0  0  0
 32 30  1  0  0  0  0
 32 31  1  0  0  0  0
M  END
>  <MODEL>
6

>  <REMARK>
 VINA RESULT:      -4.8      3.566      8.150
  Name = 
  6 active torsions:
  status: ('A' for Active; 'I' for Inactive)
    1  A    between atoms: C_3  and  C_22
    2  A    between atoms: O_11  and  C_12
    3  A    between atoms: O_11  and  C_31
    4  A    between atoms: N_13  and  C_29
    5  A    between atoms: C_15  and  C_22
    6  A    between atoms: C_16  and  C_27
                            x       y       z     vdW  Elec       q    Type
                         _______ _______ _______ _____ _____    ______ ____

>  <TORSDO>
F 6

$$$$
=
 OpenBabel10262421003D

 32 36  0  0  1  0  0  0  0  0999 V2000
  183.6780  178.1940  141.0810 C   0  0  2  0  0  3  0  0  0  0  0  0
  185.8580  177.9930  140.0230 C   0  0  2  0  0  3  0  0  0  0  0  0
  182.9210  178.6850  142.2940 C   0  0  0  0  0  2  0  0  0  0  0  0
  184.9790  178.4010  141.0780 C   0  0  1  0  0  3  0  0  0  0  0  0
  186.9640  178.9720  140.2850 C   0  0  1  0  0  3  0  0  0  0  0  0
  185.1520  178.1700  138.6970 C   0  0  2  0  0  3  0  0  0  0  0  0
  187.2810  178.5230  137.2780 C   0  0  0  0  0  0  0  0  0  0  0  0
  185.6840  179.2290  142.0560 C   0  0  2  0  0  3  0  0  0  0  0  0
  188.1860  178.8610  138.1630 N   0  0  0  0  0  0  0  0  0  0  0  0
  187.0470  179.1310  141.6930 O   0  0  0  0  0  0  0  0  0  0  0  0
  185.3220  178.6860  143.4310 C   0  0  0  0  0  2  0  0  0  0  0  0
  183.9500  177.4090  138.7230 O   0  0  0  0  0  0  0  0  0  0  0  0
  183.0510  177.9080  139.7170 C   0  0  1  0  0  3  0  0  0  0  0  0
  186.0760  177.6480  137.5900 C   0  0  1  0  0  3  0  0  0  0  0  0
  188.2530  178.5480  139.5970 C   0  0  2  0  0  3  0  0  0  0  0  0
  183.7730  178.6180  143.6040 C   0  0  0  0  0  2  0  0  0  0  0  0
  186.4640  176.3240  137.8110 O   0  0  0  0  0  1  0  0  0  0  0  0
  181.7040  177.1600  139.7300 C   0  0  2  0  0  3  0  0  0  0  0  0
  181.1220  177.0830  138.4400 O   0  0  0  0  0  0  0  0  0  0  0  0
  180.4350  177.8870  139.3710 C   0  0  2  0  0  0  0  0  0  0  0  0
  180.3170  179.3680  138.8990 C   0  0  0  0  0  0  0  0  0  0  0  0
  180.4860  180.2980  140.0870 C   0  0  0  0  0  1  0  0  0  0  0  0
  178.9340  179.6130  138.3180 C   0  0  0  0  0  1  0  0  0  0  0  0
  181.3080  179.7680  137.8170 C   0  0  0  0  0  1  0  0  0  0  0  0
  179.1550  177.2820  141.3200 O   0  0  0  0  0  1  0  0  0  0  0  0
  179.1560  177.2250  139.9270 C   0  0  2  0  0  3  0  0  0  0  0  0
  178.9310  175.7880  139.4710 C   0  0  0  0  0  1  0  0  0  0  0  0
  188.5580  177.1380  139.8120 N   0  0  0  0  0  2  0  0  0  0  0  0
  189.8030  177.0760  140.5580 C   0  0  0  0  0  1  0  0  0  0  0  0
  187.4580  178.9880  135.9710 O   0  0  0  0  0  0  0  0  0  0  0  0
  188.3190  177.2040  134.5960 C   0  0  0  0  0  1  0  0  0  0  0  0
  187.1930  178.1980  134.8170 C   0  0  0  0  0  2  0  0  0  0  0  0
  1  3  1  6  0  0  0
  2  5  1  0  0  0  0
  2  4  1  0  0  0  0
  3 16  1  0  0  0  0
  4  1  1  0  0  0  0
  4  8  1  0  0  0  0
  5 10  1  0  0  0  0
  6 12  1  0  0  0  0
  6  2  1  0  0  0  0
  7 14  1  0  0  0  0
  7  9  2  0  0  0  0
  8 11  1  0  0  0  0
  9 15  1  0  0  0  0
 10  8  1  0  0  0  0
 11 16  1  0  0  0  0
 12 13  1  0  0  0  0
 13 18  1  0  0  0  0
 13  1  1  0  0  0  0
 14 17  1  0  0  0  0
 14  6  1  0  0  0  0
 15 28  1  0  0  0  0
 15  5  1  0  0  0  0
 19 20  1  0  0  0  0
 19 18  1  0  0  0  0
 20 18  1  0  0  0  0
 20 26  1  0  0  0  0
 21 20  1  0  0  0  0
 21 22  1  0  0  0  0
 23 21  1  0  0  0  0
 24 21  1  0  0  0  0
 26 25  1  0  0  0  0
 27 26  1  0  0  0  0
 28 29  1  0  0  0  0
 30  7  1  0  0  0  0
 31 32  1  0  0  0  0
 32 30  1  0  0  0  0
M  END
>  <MODEL>
7

>  <REMARK>
 VINA RESULT:      -4.7      2.303      5.164
  Name = 
  6 active torsions:
  status: ('A' for Active; 'I' for Inactive)
    1  A    between atoms: C_3  and  C_22
    2  A    between atoms: O_11  and  C_12
    3  A    between atoms: O_11  and  C_31
    4  A    between atoms: N_13  and  C_29
    5  A    between atoms: C_15  and  C_22
    6  A    between atoms: C_16  and  C_27
                            x       y       z     vdW  Elec       q    Type
                         _______ _______ _______ _____ _____    ______ ____

>  <TORSDO>
F 6

$$$$
=
 OpenBabel10262421003D

 32 36  0  0  1  0  0  0  0  0999 V2000
  186.4120  178.3800  138.6360 C   0  0  2  0  0  3  0  0  0  0  0  0
  187.6610  178.2900  140.7210 C   0  0  2  0  0  3  0  0  0  0  0  0
  186.4360  178.0810  137.1540 C   0  0  0  0  0  2  0  0  0  0  0  0
  187.4970  178.0680  139.3150 C   0  0  1  0  0  3  0  0  0  0  0  0
  188.7180  177.2560  140.9720 C   0  0  1  0  0  3  0  0  0  0  0  0
  186.3430  178.0350  141.4170 C   0  0  2  0  0  3  0  0  0  0  0  0
  187.3460  177.3640  143.7000 C   0  0  0  0  0  0  0  0  0  0  0  0
  188.6120  177.2900  138.7740 C   0  0  2  0  0  3  0  0  0  0  0  0
  188.5830  177.0460  143.4100 N   0  0  0  0  0  0  0  0  0  0  0  0
  189.5560  177.2370  139.8260 O   0  0  0  0  0  0  0  0  0  0  0  0
  189.0660  178.0010  137.5080 C   0  0  0  0  0  2  0  0  0  0  0  0
  185.3610  178.8920  140.8460 O   0  0  0  0  0  0  0  0  0  0  0  0
  185.1450  178.5740  139.4680 C   0  0  1  0  0  3  0  0  0  0  0  0
  186.5180  178.3630  142.9060 C   0  0  1  0  0  3  0  0  0  0  0  0
  189.4260  177.4990  142.2960 C   0  0  2  0  0  3  0  0  0  0  0  0
  187.8650  178.2140  136.5350 C   0  0  0  0  0  2  0  0  0  0  0  0
  186.9800  179.6660  143.1060 O   0  0  0  0  0  1  0  0  0  0  0  0
  184.0340  179.4270  138.8280 C   0  0  2  0  0  3  0  0  0  0  0  0
  183.2680  180.1230  139.7960 O   0  0  0  0  0  0  0  0  0  0  0  0
  182.5870  179.1070  139.0980 C   0  0  2  0  0  0  0  0  0  0  0  0
  182.0450  177.9970  140.0490 C   0  0  0  0  0  0  0  0  0  0  0  0
  180.5430  177.8690  139.8820 C   0  0  0  0  0  1  0  0  0  0  0  0
  182.3150  178.3820  141.4940 C   0  0  0  0  0  1  0  0  0  0  0  0
  182.6800  176.6300  139.8500 C   0  0  0  0  0  1  0  0  0  0  0  0
  181.9310  179.1010  136.7800 O   0  0  0  0  0  1  0  0  0  0  0  0
  181.6160  179.6450  138.0250 C   0  0  2  0  0  3  0  0  0  0  0  0
  181.5560  181.1640  137.9220 C   0  0  0  0  0  1  0  0  0  0  0  0
  189.8170  178.8940  142.4670 N   0  0  0  0  0  2  0  0  0  0  0  0
  190.7270  178.9500  143.5990 C   0  0  0  0  0  1  0  0  0  0  0  0
  186.7730  176.7530  144.8210 O   0  0  0  0  0  0  0  0  0  0  0  0
  187.5970  177.8730  146.7910 C   0  0  0  0  0  1  0  0  0  0  0  0
  186.3760  177.4690  145.9850 C   0  0  0  0  0  2  0  0  0  0  0  0
  1  3  1  6  0  0  0
  1  4  1  0  0  0  0
  1 13  1  0  0  0  0
  2  5  1  0  0  0  0
  2  6  1  0  0  0  0
  4  2  1  0  0  0  0
  5 15  1  0  0  0  0
  6 14  1  0  0  0  0
  7 30  1  0  0  0  0
  8  4  1  0  0  0  0
  8 10  1  0  0  0  0
  9  7  2  0  0  0  0
 10  5  1  0  0  0  0
 11  8  1  0  0  0  0
 12  6  1  0  0  0  0
 13 12  1  0  0  0  0
 14 17  1  0  0  0  0
 14  7  1  0  0  0  0
 15 28  1  0  0  0  0
 15  9  1  0  0  0  0
 16  3  1  0  0  0  0
 16 11  1  0  0  0  0
 18 20  1  0  0  0  0
 18 13  1  0  0  0  0
 18 19  1  0  0  0  0
 20 19  1  0  0  0  0
 20 21  1  0  0  0  0
 21 23  1  0  0  0  0
 22 21  1  0  0  0  0
 24 21  1  0  0  0  0
 25 26  1  0  0  0  0
 26 20  1  0  0  0  0
 27 26  1  0  0  0  0
 28 29  1  0  0  0  0
 30 32  1  0  0  0  0
 32 31  1  0  0  0  0
M  END
>  <MODEL>
8

>  <REMARK>
 VINA RESULT:      -4.5      2.571      3.893
  Name = 
  6 active torsions:
  status: ('A' for Active; 'I' for Inactive)
    1  A    between atoms: C_3  and  C_22
    2  A    between atoms: O_11  and  C_12
    3  A    between atoms: O_11  and  C_31
    4  A    between atoms: N_13  and  C_29
    5  A    between atoms: C_15  and  C_22
    6  A    between atoms: C_16  and  C_27
                            x       y       z     vdW  Elec       q    Type
                         _______ _______ _______ _____ _____    ______ ____

>  <TORSDO>
F 6

$$$$
=
 OpenBabel10262421003D

 32 36  0  0  1  0  0  0  0  0999 V2000
  186.1820  178.3050  143.7440 C   0  0  2  0  0  3  0  0  0  0  0  0
  185.7250  178.6240  141.3770 C   0  0  2  0  0  3  0  0  0  0  0  0
  185.5780  178.1110  145.1160 C   0  0  0  0  0  2  0  0  0  0  0  0
  185.3360  178.4200  142.7410 C   0  0  1  0  0  3  0  0  0  0  0  0
  184.4840  178.0880  140.7260 C   0  0  1  0  0  3  0  0  0  0  0  0
  186.9830  177.8310  141.1000 C   0  0  2  0  0  3  0  0  0  0  0  0
  186.5720  177.5100  138.5700 C   0  0  0  0  0  0  0  0  0  0  0  0
  183.8970  178.1790  142.8450 C   0  0  2  0  0  3  0  0  0  0  0  0
  185.2870  177.7270  138.4390 N   0  0  0  0  0  0  0  0  0  0  0  0
  183.3920  178.4590  141.5540 O   0  0  0  0  0  0  0  0  0  0  0  0
  183.3850  179.0710  143.9670 C   0  0  0  0  0  2  0  0  0  0  0  0
  187.9880  178.2500  142.0160 O   0  0  0  0  0  0  0  0  0  0  0  0
  187.6150  177.9370  143.3610 C   0  0  1  0  0  3  0  0  0  0  0  0
  187.4290  178.1310  139.6630 C   0  0  1  0  0  3  0  0  0  0  0  0
  184.3850  178.5310  139.2750 C   0  0  2  0  0  3  0  0  0  0  0  0
  184.2000  178.8320  145.2750 C   0  0  0  0  0  2  0  0  0  0  0  0
  187.6060  179.5000  139.4430 O   0  0  0  0  0  1  0  0  0  0  0  0
  188.7090  178.3040  144.3820 C   0  0  2  0  0  3  0  0  0  0  0  0
  189.8900  178.7740  143.7550 O   0  0  0  0  0  0  0  0  0  0  0  0
  190.0010  177.5330  144.4120 C   0  0  2  0  0  0  0  0  0  0  0  0
  190.4190  176.3850  143.4420 C   0  0  0  0  0  0  0  0  0  0  0  0
  190.9430  176.9760  142.1470 C   0  0  0  0  0  1  0  0  0  0  0  0
  189.2070  175.5340  143.1010 C   0  0  0  0  0  1  0  0  0  0  0  0
  191.4610  175.4310  144.0050 C   0  0  0  0  0  1  0  0  0  0  0  0
  192.0970  177.3050  145.5790 O   0  0  0  0  0  1  0  0  0  0  0  0
  190.7500  177.6170  145.7600 C   0  0  2  0  0  3  0  0  0  0  0  0
  190.1660  176.7520  146.8700 C   0  0  0  0  0  1  0  0  0  0  0  0
  184.6500  179.9560  139.1120 N   0  0  0  0  0  2  0  0  0  0  0  0
  183.3780  180.6010  138.8340 C   0  0  0  0  0  1  0  0  0  0  0  0
  187.1790  176.6690  137.6310 O   0  0  0  0  0  0  0  0  0  0  0  0
  187.4660  175.3460  135.6360 C   0  0  0  0  0  1  0  0  0  0  0  0
  186.5740  176.3120  136.3940 C   0  0  0  0  0  2  0  0  0  0  0  0
  1  3  1  1  0  0  0
  2  4  1  0  0  0  0
  3 16  1  0  0  0  0
  4  8  1  0  0  0  0
  4  1  1  0  0  0  0
  5  2  1  0  0  0  0
  5 10  1  0  0  0  0
  6  2  1  0  0  0  0
  6 12  1  0  0  0  0
  7 14  1  0  0  0  0
  8 11  1  0  0  0  0
  9  7  2  0  0  0  0
  9 15  1  0  0  0  0
 10  8  1  0  0  0  0
 11 16  1  0  0  0  0
 12 13  1  0  0  0  0
 13  1  1  0  0  0  0
 13 18  1  0  0  0  0
 14  6  1  0  0  0  0
 15  5  1  0  0  0  0
 17 14  1  0  0  0  0
 18 20  1  0  0  0  0
 19 18  1  0  0  0  0
 19 20  1  0  0  0  0
 20 26  1  0  0  0  0
 21 24  1  0  0  0  0
 21 20  1  0  0  0  0
 22 21  1  0  0  0  0
 23 21  1  0  0  0  0
 25 26  1  0  0  0  0
 26 27  1  0  0  0  0
 28 15  1  0  0  0  0
 29 28  1  0  0  0  0
 30  7  1  0  0  0  0
 31 32  1  0  0  0  0
 32 30  1  0  0  0  0
M  END
>  <MODEL>
9

>  <REMARK>
 VINA RESULT:      -4.4      2.816      7.638
  Name = 
  6 active torsions:
  status: ('A' for Active; 'I' for Inactive)
    1  A    between atoms: C_3  and  C_22
    2  A    between atoms: O_11  and  C_12
    3  A    between atoms: O_11  and  C_31
    4  A    between atoms: N_13  and  C_29
    5  A    between atoms: C_15  and  C_22
    6  A    between atoms: C_16  and  C_27
                            x       y       z     vdW  Elec       q    Type
                         _______ _______ _______ _____ _____    ______ ____

>  <TORSDO>
F 6

$$$$
