=
 OpenBabel10262423393D

 34 39  0  0  1  0  0  0  0  0999 V2000
  181.1590  180.2420  139.5140 C   0  0  0  0  0  0  0  0  0  0  0  0
  181.4310  177.7700  140.9210 C   0  0  0  0  0  3  0  0  0  0  0  0
  182.0800  177.3850  135.8290 C   0  0  0  0  0  0  0  0  0  0  0  0
  179.9300  179.3650  139.6410 C   0  0  1  0  0  0  0  0  0  0  0  0
  179.3920  176.9590  136.9290 O   0  0  0  0  0  1  0  0  0  0  0  0
  183.3740  175.6280  138.6910 C   0  0  1  0  0  3  0  0  0  0  0  0
  180.2350  177.9440  137.4460 C   0  0  2  0  0  3  0  0  0  0  0  0
  181.9570  179.5090  136.8190 F   0  0  0  0  0  0  0  0  0  0  0  0
  179.3890  178.9920  138.2160 C   0  0  2  0  0  3  0  0  0  0  0  0
  183.5410  174.5990  137.5850 C   0  0  1  0  0  0  0  0  0  0  0  0
  183.1190  176.9270  138.0600 N   0  0  2  0  0  0  0  0  0  0  0  0
  184.6230  173.5390  137.5780 C   0  0  0  0  0  1  0  0  0  0  0  0
  182.9340  176.6190  136.6980 N   0  0  0  0  0  0  0  0  0  0  0  0
  178.9350  180.1630  137.3450 C   0  0  0  0  0  1  0  0  0  0  0  0
  180.4160  178.9680  135.2910 F   0  0  0  0  0  0  0  0  0  0  0  0
  181.0700  181.3890  138.9960 O   0  0  0  0  0  0  0  0  0  0  0  0
  182.2930  175.2720  139.4990 O   0  0  0  0  0  1  0  0  0  0  0  0
  182.5730  178.7390  140.9580 C   0  0  1  0  0  3  0  0  0  0  0  0
  183.8750  178.0160  140.6470 C   0  0  1  0  0  3  0  0  0  0  0  0
  182.4090  174.3380  136.7980 O   0  0  0  0  0  0  0  0  0  0  0  0
  184.4270  178.6350  139.3550 C   0  0  1  0  0  3  0  0  0  0  0  0
  183.3400  175.2820  136.3090 C   0  0  2  0  0  3  0  0  0  0  0  0
  184.3780  177.6700  138.1610 C   0  0  0  0  0  2  0  0  0  0  0  0
  181.1760  178.4790  136.3440 C   0  0  0  0  0  0  0  0  0  0  0  0
  182.0730  177.1260  134.5950 O   0  0  0  0  0  0  0  0  0  0  0  0
  180.2590  178.0570  140.3420 C   0  0  0  0  0  3  0  0  0  0  0  0
  183.5940  179.8690  139.0760 C   0  0  0  0  0  2  0  0  0  0  0  0
  182.4350  179.7560  139.9330 N   0  0  0  0  0  0  0  0  0  0  0  0
  184.8610  178.1050  141.8150 C   0  0  1  0  0  3  0  0  0  0  0  0
  185.9930  178.8230  141.4320 O   0  0  0  0  0  1  0  0  0  0  0  0
  184.2520  178.7330  143.0600 C   0  0  0  0  0  1  0  0  0  0  0  0
  179.5080  180.5460  141.9230 C   0  0  0  0  0  2  0  0  0  0  0  0
  178.9310  180.0720  140.6010 C   0  0  0  0  0  3  0  0  0  0  0  0
  179.2420  181.5450  140.8110 C   0  0  0  0  0  2  0  0  0  0  0  0
  1  4  1  0  0  0  0
  1 28  1  0  0  0  0
  3 24  1  0  0  0  0
  3 13  1  0  0  0  0
  4 26  1  0  0  0  0
  4 33  1  1  0  0  0
  6 17  1  1  0  0  0
  7  5  1  6  0  0  0
  7  9  1  0  0  0  0
  9 14  1  6  0  0  0
  9  4  1  0  0  0  0
 10 12  1  1  0  0  0
 10  6  1  0  0  0  0
 11 23  1  6  0  0  0
 11  6  1  0  0  0  0
 13 11  1  0  0  0  0
 15 24  1  0  0  0  0
 16  1  2  0  0  0  0
 18  2  1  6  0  0  0
 19 18  1  0  0  0  0
 19 29  1  1  0  0  0
 20 10  1  0  0  0  0
 21 23  1  6  0  0  0
 21 19  1  0  0  0  0
 22 13  1  0  0  0  0
 22 20  1  6  0  0  0
 22 10  1  0  0  0  0
 24  8  1  0  0  0  0
 24  7  1  0  0  0  0
 25  3  2  0  0  0  0
 26  2  2  0  0  0  0
 27 21  1  0  0  0  0
 27 28  1  0  0  0  0
 28 18  1  0  0  0  0
 29 31  1  1  0  0  0
 30 29  1  0  0  0  0
 33 34  1  0  0  0  0
 33 32  1  0  0  0  0
 34 32  1  0  0  0  0
M  END
>  <MODEL>
1

>  <REMARK>
 VINA RESULT:      -5.6      0.000      0.000
  Name = 
  2 active torsions:
  status: ('A' for Active; 'I' for Inactive)
    1  A    between atoms: C_3  and  C_25
    2  A    between atoms: C_5  and  C_19
                            x       y       z     vdW  Elec       q    Type
                         _______ _______ _______ _____ _____    ______ ____

>  <TORSDO>
F 2

$$$$
=
 OpenBabel10262423393D

 34 39  0  0  1  0  0  0  0  0999 V2000
  189.0250  178.3740  137.5420 C   0  0  0  0  0  0  0  0  0  0  0  0
  190.2930  176.0030  138.5080 C   0  0  0  0  0  3  0  0  0  0  0  0
  186.4190  175.1410  135.2310 C   0  0  0  0  0  0  0  0  0  0  0  0
  188.4280  177.7030  138.7630 C   0  0  1  0  0  0  0  0  0  0  0  0
  185.8260  175.2060  138.1050 O   0  0  0  0  0  1  0  0  0  0  0  0
  189.4790  173.4310  136.0460 C   0  0  1  0  0  3  0  0  0  0  0  0
  186.7460  176.0900  137.5380 C   0  0  2  0  0  3  0  0  0  0  0  0
  187.2160  177.3270  135.5240 F   0  0  0  0  0  0  0  0  0  0  0  0
  186.9360  177.3080  138.4800 C   0  0  2  0  0  3  0  0  0  0  0  0
  188.6330  172.3080  135.4710 C   0  0  1  0  0  0  0  0  0  0  0  0
  188.8400  174.7020  135.6900 N   0  0  2  0  0  0  0  0  0  0  0  0
  189.2080  171.1010  134.7590 C   0  0  0  0  0  1  0  0  0  0  0  0
  187.6000  174.3230  135.1400 N   0  0  0  0  0  0  0  0  0  0  0  0
  185.9830  178.4640  138.1750 C   0  0  0  0  0  1  0  0  0  0  0  0
  185.0780  176.9090  136.0300 F   0  0  0  0  0  0  0  0  0  0  0  0
  188.5690  179.4790  137.1380 O   0  0  0  0  0  0  0  0  0  0  0  0
  189.5410  173.3040  137.4340 O   0  0  0  0  0  1  0  0  0  0  0  0
  190.9800  176.7900  137.4350 C   0  0  1  0  0  3  0  0  0  0  0  0
  191.4320  175.8590  136.3190 C   0  0  1  0  0  3  0  0  0  0  0  0
  187.3440  172.1610  136.0040 O   0  0  0  0  0  0  0  0  0  0  0  0
  190.6790  176.2890  135.0520 C   0  0  1  0  0  3  0  0  0  0  0  0
  187.4760  172.9150  134.8170 C   0  0  2  0  0  3  0  0  0  0  0  0
  189.6410  175.2540  134.5940 C   0  0  0  0  0  2  0  0  0  0  0  0
  186.3660  176.3930  136.0720 C   0  0  0  0  0  0  0  0  0  0  0  0
  185.3850  174.7920  134.5980 O   0  0  0  0  0  0  0  0  0  0  0  0
  189.1660  176.4180  139.0980 C   0  0  0  0  0  3  0  0  0  0  0  0
  190.0100  177.6080  135.3730 C   0  0  0  0  0  2  0  0  0  0  0  0
  190.0730  177.7360  136.8120 N   0  0  0  0  0  0  0  0  0  0  0  0
  192.9530  175.8880  136.1440 C   0  0  1  0  0  3  0  0  0  0  0  0
  193.5310  176.7060  137.1140 O   0  0  0  0  0  1  0  0  0  0  0  0
  193.5830  174.5030  136.1990 C   0  0  0  0  0  1  0  0  0  0  0  0
  187.6280  178.5750  141.0820 C   0  0  0  0  0  2  0  0  0  0  0  0
  188.6830  178.6220  139.9910 C   0  0  0  0  0  3  0  0  0  0  0  0
  188.9480  177.8500  141.2730 C   0  0  0  0  0  2  0  0  0  0  0  0
  1  4  1  0  0  0  0
  2 26  2  0  0  0  0
  3 24  1  0  0  0  0
  4 26  1  0  0  0  0
  4 33  1  1  0  0  0
  6 17  1  1  0  0  0
  7  5  1  1  0  0  0
  7  9  1  0  0  0  0
  8 24  1  0  0  0  0
  9 14  1  6  0  0  0
  9  4  1  0  0  0  0
 10 12  1  6  0  0  0
 10 20  1  0  0  0  0
 10  6  1  0  0  0  0
 11 23  1  6  0  0  0
 11  6  1  0  0  0  0
 13  3  1  0  0  0  0
 13 11  1  0  0  0  0
 15 24  1  0  0  0  0
 16  1  2  0  0  0  0
 18  2  1  1  0  0  0
 19 29  1  6  0  0  0
 19 18  1  0  0  0  0
 21 23  1  1  0  0  0
 21 27  1  0  0  0  0
 21 19  1  0  0  0  0
 22 13  1  0  0  0  0
 22 10  1  0  0  0  0
 22 20  1  1  0  0  0
 24  7  1  0  0  0  0
 25  3  2  0  0  0  0
 27 28  1  0  0  0  0
 28 18  1  0  0  0  0
 28  1  1  0  0  0  0
 29 31  1  1  0  0  0
 29 30  1  0  0  0  0
 32 34  1  0  0  0  0
 33 32  1  0  0  0  0
 33 34  1  0  0  0  0
M  END
>  <MODEL>
2

>  <REMARK>
 VINA RESULT:      -5.3      5.573      7.754
  Name = 
  2 active torsions:
  status: ('A' for Active; 'I' for Inactive)
    1  A    between atoms: C_3  and  C_25
    2  A    between atoms: C_5  and  C_19
                            x       y       z     vdW  Elec       q    Type
                         _______ _______ _______ _____ _____    ______ ____

>  <TORSDO>
F 2

$$$$
=
 OpenBabel10262423393D

 34 39  0  0  1  0  0  0  0  0999 V2000
  183.6590  176.1530  138.3920 C   0  0  0  0  0  0  0  0  0  0  0  0
  184.3170  178.8700  138.9810 C   0  0  0  0  0  3  0  0  0  0  0  0
  179.9140  178.2780  136.3810 C   0  0  0  0  0  0  0  0  0  0  0  0
  184.4240  176.9350  137.3440 C   0  0  1  0  0  0  0  0  0  0  0  0
  182.3880  178.6980  134.8580 O   0  0  0  0  0  1  0  0  0  0  0  0
  181.1480  180.6720  138.7690 C   0  0  1  0  0  3  0  0  0  0  0  0
  182.3750  177.9080  136.0090 C   0  0  2  0  0  3  0  0  0  0  0  0
  180.9890  176.3930  137.2720 F   0  0  0  0  0  0  0  0  0  0  0  0
  183.6110  176.9700  136.0030 C   0  0  2  0  0  3  0  0  0  0  0  0
  180.0730  181.4690  138.0480 C   0  0  1  0  0  0  0  0  0  0  0  0
  180.9550  179.2570  138.4370 N   0  0  2  0  0  0  0  0  0  0  0  0
  179.2830  182.5890  138.6910 C   0  0  0  0  0  1  0  0  0  0  0  0
  179.9780  179.2690  137.4230 N   0  0  0  0  0  0  0  0  0  0  0  0
  183.3420  175.6160  135.3480 C   0  0  0  0  0  1  0  0  0  0  0  0
  180.6970  176.4910  135.0570 F   0  0  0  0  0  0  0  0  0  0  0  0
  183.4350  174.9210  138.2280 O   0  0  0  0  0  0  0  0  0  0  0  0
  182.4070  181.0930  138.3400 O   0  0  0  0  0  1  0  0  0  0  0  0
  183.7440  178.0240  140.0760 C   0  0  1  0  0  3  0  0  0  0  0  0
  182.6170  178.7720  140.7730 C   0  0  1  0  0  3  0  0  0  0  0  0
  180.1340  181.4740  136.6460 O   0  0  0  0  0  0  0  0  0  0  0  0
  181.3370  177.9540  140.5490 C   0  0  1  0  0  3  0  0  0  0  0  0
  179.2790  180.5300  137.2590 C   0  0  2  0  0  3  0  0  0  0  0  0
  180.3350  178.6530  139.6190 C   0  0  0  0  0  2  0  0  0  0  0  0
  180.9930  177.2410  136.1870 C   0  0  0  0  0  0  0  0  0  0  0  0
  178.9310  178.2840  135.5920 O   0  0  0  0  0  0  0  0  0  0  0  0
  184.6240  178.3790  137.7750 C   0  0  0  0  0  3  0  0  0  0  0  0
  181.7700  176.6260  139.9630 C   0  0  0  0  0  2  0  0  0  0  0  0
  183.1420  176.8140  139.5470 N   0  0  0  0  0  0  0  0  0  0  0  0
  182.9240  178.9990  142.2560 C   0  0  1  0  0  3  0  0  0  0  0  0
  181.8290  178.6250  143.0330 O   0  0  0  0  0  1  0  0  0  0  0  0
  184.1650  178.2540  142.7260 C   0  0  0  0  0  1  0  0  0  0  0  0
  186.6320  176.6540  135.9920 C   0  0  0  0  0  2  0  0  0  0  0  0
  185.8660  176.3560  137.2680 C   0  0  0  0  0  3  0  0  0  0  0  0
  186.9430  177.4290  137.2590 C   0  0  0  0  0  2  0  0  0  0  0  0
  1 28  1  0  0  0  0
  3 13  1  0  0  0  0
  4 33  1  6  0  0  0
  4 26  1  0  0  0  0
  4  1  1  0  0  0  0
  6 17  1  6  0  0  0
  7  5  1  6  0  0  0
  7 24  1  0  0  0  0
  9 14  1  1  0  0  0
  9  7  1  0  0  0  0
  9  4  1  0  0  0  0
 10 12  1  1  0  0  0
 10  6  1  0  0  0  0
 11  6  1  0  0  0  0
 11 23  1  1  0  0  0
 13 11  1  0  0  0  0
 15 24  1  0  0  0  0
 16  1  2  0  0  0  0
 18  2  1  6  0  0  0
 18 19  1  0  0  0  0
 19 29  1  1  0  0  0
 20 10  1  0  0  0  0
 21 23  1  6  0  0  0
 21 19  1  0  0  0  0
 22 20  1  6  0  0  0
 22 13  1  0  0  0  0
 22 10  1  0  0  0  0
 24  3  1  0  0  0  0
 24  8  1  0  0  0  0
 25  3  2  0  0  0  0
 26  2  2  0  0  0  0
 27 21  1  0  0  0  0
 28 27  1  0  0  0  0
 28 18  1  0  0  0  0
 29 31  1  1  0  0  0
 29 30  1  0  0  0  0
 32 34  1  0  0  0  0
 32 33  1  0  0  0  0
 34 33  1  0  0  0  0
M  END
>  <MODEL>
3

>  <REMARK>
 VINA RESULT:      -5.2      1.900      5.383
  Name = 
  2 active torsions:
  status: ('A' for Active; 'I' for Inactive)
    1  A    between atoms: C_3  and  C_25
    2  A    between atoms: C_5  and  C_19
                            x       y       z     vdW  Elec       q    Type
                         _______ _______ _______ _____ _____    ______ ____

>  <TORSDO>
F 2

$$$$
=
 OpenBabel10262423393D

 34 39  0  0  1  0  0  0  0  0999 V2000
  181.6420  177.9400  137.3360 C   0  0  0  0  0  0  0  0  0  0  0  0
  183.8880  176.6730  138.5670 C   0  0  0  0  0  3  0  0  0  0  0  0
  180.9750  173.5180  135.7270 C   0  0  0  0  0  0  0  0  0  0  0  0
  181.4270  177.2780  138.6820 C   0  0  1  0  0  0  0  0  0  0  0  0
  180.3800  173.7670  138.5910 O   0  0  0  0  0  1  0  0  0  0  0  0
  184.4670  173.6590  136.5880 C   0  0  1  0  0  3  0  0  0  0  0  0
  180.7620  174.8760  137.8340 C   0  0  2  0  0  3  0  0  0  0  0  0
  180.6040  175.8320  135.6280 F   0  0  0  0  0  0  0  0  0  0  0  0
  180.3200  176.1720  138.5640 C   0  0  2  0  0  3  0  0  0  0  0  0
  184.2840  172.1890  136.2490 C   0  0  1  0  0  0  0  0  0  0  0  0
  183.2970  174.3850  136.0850 N   0  0  2  0  0  0  0  0  0  0  0  0
  185.3840  171.3100  135.6940 C   0  0  0  0  0  1  0  0  0  0  0  0
  182.4060  173.3700  135.6840 N   0  0  0  0  0  0  0  0  0  0  0  0
  178.9310  176.6570  138.1500 C   0  0  0  0  0  1  0  0  0  0  0  0
  178.9310  174.5250  136.3340 F   0  0  0  0  0  0  0  0  0  0  0  0
  180.7120  178.6040  136.7990 O   0  0  0  0  0  0  0  0  0  0  0  0
  184.5610  173.8100  137.9720 O   0  0  0  0  0  1  0  0  0  0  0  0
  184.1220  177.5030  137.3420 C   0  0  1  0  0  3  0  0  0  0  0  0
  184.9870  176.7340  136.3540 C   0  0  1  0  0  3  0  0  0  0  0  0
  183.2210  171.5300  136.8840 O   0  0  0  0  0  0  0  0  0  0  0  0
  184.1420  176.5300  135.0890 C   0  0  1  0  0  3  0  0  0  0  0  0
  182.9890  172.0440  135.5890 C   0  0  2  0  0  3  0  0  0  0  0  0
  183.7450  175.0630  134.8660 C   0  0  0  0  0  2  0  0  0  0  0  0
  180.3060  174.7100  136.3680 C   0  0  0  0  0  0  0  0  0  0  0  0
  180.2520  172.6150  135.2260 O   0  0  0  0  0  0  0  0  0  0  0  0
  182.6910  176.5850  139.1600 C   0  0  0  0  0  3  0  0  0  0  0  0
  182.9090  177.3960  135.2490 C   0  0  0  0  0  2  0  0  0  0  0  0
  182.8790  177.7750  136.6440 N   0  0  0  0  0  0  0  0  0  0  0  0
  186.3050  177.4630  136.0750 C   0  0  1  0  0  3  0  0  0  0  0  0
  186.5720  178.3760  137.0940 O   0  0  0  0  0  1  0  0  0  0  0  0
  187.4850  176.5150  135.9140 C   0  0  0  0  0  1  0  0  0  0  0  0
  180.5420  177.9500  141.0380 C   0  0  0  0  0  2  0  0  0  0  0  0
  181.1830  178.3970  139.7350 C   0  0  0  0  0  3  0  0  0  0  0  0
  182.0310  178.2380  140.9860 C   0  0  0  0  0  2  0  0  0  0  0  0
  1  4  1  0  0  0  0
  2 26  2  0  0  0  0
  3 24  1  0  0  0  0
  4 26  1  0  0  0  0
  4 33  1  1  0  0  0
  6 17  1  1  0  0  0
  7  9  1  0  0  0  0
  7  5  1  1  0  0  0
  8 24  1  0  0  0  0
  9 14  1  6  0  0  0
  9  4  1  0  0  0  0
 10 12  1  6  0  0  0
 10  6  1  0  0  0  0
 10 20  1  0  0  0  0
 11 23  1  6  0  0  0
 11  6  1  0  0  0  0
 13  3  1  0  0  0  0
 13 11  1  0  0  0  0
 15 24  1  0  0  0  0
 16  1  2  0  0  0  0
 18  2  1  1  0  0  0
 19 29  1  6  0  0  0
 19 18  1  0  0  0  0
 21 23  1  1  0  0  0
 21 27  1  0  0  0  0
 21 19  1  0  0  0  0
 22 13  1  0  0  0  0
 22 10  1  0  0  0  0
 22 20  1  1  0  0  0
 24  7  1  0  0  0  0
 25  3  2  0  0  0  0
 27 28  1  0  0  0  0
 28  1  1  0  0  0  0
 28 18  1  0  0  0  0
 29 31  1  1  0  0  0
 29 30  1  0  0  0  0
 33 34  1  0  0  0  0
 33 32  1  0  0  0  0
 34 32  1  0  0  0  0
M  END
>  <MODEL>
4

>  <REMARK>
 VINA RESULT:      -5.0      2.493      4.001
  Name = 
  2 active torsions:
  status: ('A' for Active; 'I' for Inactive)
    1  A    between atoms: C_3  and  C_25
    2  A    between atoms: C_5  and  C_19
                            x       y       z     vdW  Elec       q    Type
                         _______ _______ _______ _____ _____    ______ ____

>  <TORSDO>
F 2

$$$$
=
 OpenBabel10262423393D

 34 39  0  0  1  0  0  0  0  0999 V2000
  180.4510  174.8140  136.7070 C   0  0  0  0  0  0  0  0  0  0  0  0
  181.6670  176.5950  138.5820 C   0  0  0  0  0  3  0  0  0  0  0  0
  184.9580  174.4750  135.2390 C   0  0  0  0  0  0  0  0  0  0  0  0
  181.0210  174.2170  137.9790 C   0  0  1  0  0  0  0  0  0  0  0  0
  184.5150  173.1240  137.8070 O   0  0  0  0  0  1  0  0  0  0  0  0
  184.8120  177.5990  137.0190 C   0  0  1  0  0  3  0  0  0  0  0  0
  183.4630  173.7350  137.1220 C   0  0  2  0  0  3  0  0  0  0  0  0
  182.6500  174.2180  134.9050 F   0  0  0  0  0  0  0  0  0  0  0  0
  182.1160  173.1510  137.6240 C   0  0  2  0  0  3  0  0  0  0  0  0
  186.2980  177.4690  136.7300 C   0  0  1  0  0  0  0  0  0  0  0  0
  184.1030  176.6350  136.1710 N   0  0  2  0  0  0  0  0  0  0  0  0
  187.2270  178.6510  136.5520 C   0  0  0  0  0  1  0  0  0  0  0  0
  185.1290  175.8570  135.6000 N   0  0  0  0  0  0  0  0  0  0  0  0
  181.6390  171.9440  136.8160 C   0  0  0  0  0  1  0  0  0  0  0  0
  183.8840  172.3760  135.1980 F   0  0  0  0  0  0  0  0  0  0  0  0
  179.8100  174.0890  135.8970 O   0  0  0  0  0  0  0  0  0  0  0  0
  184.5720  177.3140  138.3640 O   0  0  0  0  0  1  0  0  0  0  0  0
  180.9220  177.1820  137.4230 C   0  0  1  0  0  3  0  0  0  0  0  0
  181.7660  178.2610  136.7590 C   0  0  1  0  0  3  0  0  0  0  0  0
  186.8990  176.2520  137.0840 O   0  0  0  0  0  0  0  0  0  0  0  0
  182.0400  177.7890  135.3240 C   0  0  1  0  0  3  0  0  0  0  0  0
  186.4660  176.4010  135.7470 C   0  0  2  0  0  3  0  0  0  0  0  0
  183.5120  177.4220  135.0860 C   0  0  0  0  0  2  0  0  0  0  0  0
  183.7180  173.6940  135.5990 C   0  0  0  0  0  0  0  0  0  0  0  0
  185.8810  173.8880  134.6110 O   0  0  0  0  0  0  0  0  0  0  0  0
  181.7000  175.2790  138.8260 C   0  0  0  0  0  3  0  0  0  0  0  0
  181.1480  176.5880  135.0860 C   0  0  0  0  0  2  0  0  0  0  0  0
  180.6780  176.1880  136.3940 N   0  0  0  0  0  0  0  0  0  0  0  0
  181.0760  179.6270  136.8120 C   0  0  1  0  0  3  0  0  0  0  0  0
  181.0820  180.2150  135.5470 O   0  0  0  0  0  1  0  0  0  0  0  0
  179.6490  179.5520  137.3360 C   0  0  0  0  0  1  0  0  0  0  0  0
  179.8590  174.1700  140.3090 C   0  0  0  0  0  2  0  0  0  0  0  0
  179.8330  173.7290  138.8560 C   0  0  0  0  0  3  0  0  0  0  0  0
  178.9310  174.8580  139.3250 C   0  0  0  0  0  2  0  0  0  0  0  0
  1  4  1  0  0  0  0
  2 26  2  0  0  0  0
  3 24  1  0  0  0  0
  3 13  1  0  0  0  0
  4 26  1  0  0  0  0
  4 33  1  1  0  0  0
  6 17  1  1  0  0  0
  7  9  1  0  0  0  0
  7  5  1  1  0  0  0
  8 24  1  0  0  0  0
  9 14  1  6  0  0  0
  9  4  1  0  0  0  0
 10 12  1  6  0  0  0
 10  6  1  0  0  0  0
 10 20  1  0  0  0  0
 11 23  1  6  0  0  0
 11  6  1  0  0  0  0
 13 22  1  0  0  0  0
 13 11  1  0  0  0  0
 15 24  1  0  0  0  0
 16  1  2  0  0  0  0
 18  2  1  1  0  0  0
 19 29  1  6  0  0  0
 19 18  1  0  0  0  0
 21 27  1  1  0  0  0
 21 19  1  0  0  0  0
 22 10  1  0  0  0  0
 22 20  1  1  0  0  0
 23 21  1  0  0  0  0
 24  7  1  0  0  0  0
 25  3  2  0  0  0  0
 27 28  1  0  0  0  0
 28  1  1  0  0  0  0
 28 18  1  0  0  0  0
 29 31  1  6  0  0  0
 30 29  1  0  0  0  0
 33 34  1  0  0  0  0
 33 32  1  0  0  0  0
 34 32  1  0  0  0  0
M  END
>  <MODEL>
5

>  <REMARK>
 VINA RESULT:      -4.7      3.177      5.524
  Name = 
  2 active torsions:
  status: ('A' for Active; 'I' for Inactive)
    1  A    between atoms: C_3  and  C_25
    2  A    between atoms: C_5  and  C_19
                            x       y       z     vdW  Elec       q    Type
                         _______ _______ _______ _____ _____    ______ ____

>  <TORSDO>
F 2

$$$$
=
 OpenBabel10262423393D

 34 39  0  0  1  0  0  0  0  0999 V2000
  180.1170  177.0740  137.3470 C   0  0  0  0  0  0  0  0  0  0  0  0
  180.4290  176.9190  140.1830 C   0  0  0  0  0  3  0  0  0  0  0  0
  184.7950  177.8670  137.6250 C   0  0  0  0  0  0  0  0  0  0  0  0
  180.5020  175.7340  137.9410 C   0  0  1  0  0  0  0  0  0  0  0  0
  184.0980  175.0760  138.2090 O   0  0  0  0  0  1  0  0  0  0  0  0
  183.5310  178.7140  140.8870 C   0  0  1  0  0  3  0  0  0  0  0  0
  183.1190  176.0040  137.8470 C   0  0  2  0  0  3  0  0  0  0  0  0
  182.7470  177.9560  136.4840 F   0  0  0  0  0  0  0  0  0  0  0  0
  181.8640  175.2500  137.3310 C   0  0  2  0  0  3  0  0  0  0  0  0
  185.0330  178.8220  141.0920 C   0  0  1  0  0  0  0  0  0  0  0  0
  183.2760  178.6780  139.4430 N   0  0  2  0  0  0  0  0  0  0  0  0
  185.6810  179.7530  142.0950 C   0  0  0  0  0  1  0  0  0  0  0  0
  184.5560  178.5500  138.8690 N   0  0  0  0  0  0  0  0  0  0  0  0
  181.8750  175.0160  135.8200 C   0  0  0  0  0  1  0  0  0  0  0  0
  184.2700  176.4680  135.8010 F   0  0  0  0  0  0  0  0  0  0  0  0
  179.8630  177.1740  136.1150 O   0  0  0  0  0  0  0  0  0  0  0  0
  183.0620  177.5430  141.4810 O   0  0  0  0  0  1  0  0  0  0  0  0
  179.8550  178.1730  139.5990 C   0  0  1  0  0  3  0  0  0  0  0  0
  180.5570  179.3870  140.1880 C   0  0  1  0  0  3  0  0  0  0  0  0
  185.8000  177.7230  140.6750 O   0  0  0  0  0  0  0  0  0  0  0  0
  181.2530  180.1060  139.0230 C   0  0  1  0  0  3  0  0  0  0  0  0
  185.6620  178.8030  139.7740 C   0  0  2  0  0  3  0  0  0  0  0  0
  182.7850  180.0130  139.0930 C   0  0  0  0  0  2  0  0  0  0  0  0
  183.7180  177.0810  136.9170 C   0  0  0  0  0  0  0  0  0  0  0  0
  185.9470  177.9130  137.1140 O   0  0  0  0  0  0  0  0  0  0  0  0
  180.7060  175.8390  139.4430 C   0  0  0  0  0  3  0  0  0  0  0  0
  180.7400  179.4640  137.7510 C   0  0  0  0  0  2  0  0  0  0  0  0
  180.0880  178.2420  138.1680 N   0  0  0  0  0  0  0  0  0  0  0  0
  179.5780  180.2920  140.9420 C   0  0  1  0  0  3  0  0  0  0  0  0
  180.0570  180.5480  142.2260 O   0  0  0  0  0  1  0  0  0  0  0  0
  179.3110  181.6070  140.2230 C   0  0  0  0  0  1  0  0  0  0  0  0
  179.6240  173.2930  137.7180 C   0  0  0  0  0  2  0  0  0  0  0  0
  179.2900  174.7720  137.7860 C   0  0  0  0  0  3  0  0  0  0  0  0
  179.0690  173.8850  139.0000 C   0  0  0  0  0  2  0  0  0  0  0  0
  1  4  1  0  0  0  0
  1 28  1  0  0  0  0
  3 13  1  0  0  0  0
  4 33  1  6  0  0  0
  4 26  1  0  0  0  0
  6 10  1  0  0  0  0
  6 17  1  1  0  0  0
  7  5  1  6  0  0  0
  8 24  1  0  0  0  0
  9 14  1  6  0  0  0
  9  7  1  0  0  0  0
  9  4  1  0  0  0  0
 10 12  1  1  0  0  0
 11 23  1  6  0  0  0
 11  6  1  0  0  0  0
 13 11  1  0  0  0  0
 13 22  1  0  0  0  0
 15 24  1  0  0  0  0
 16  1  2  0  0  0  0
 18  2  1  1  0  0  0
 18 19  1  0  0  0  0
 19 29  1  6  0  0  0
 20 10  1  0  0  0  0
 21 27  1  6  0  0  0
 21 23  1  0  0  0  0
 21 19  1  0  0  0  0
 22 20  1  1  0  0  0
 22 10  1  0  0  0  0
 24  3  1  0  0  0  0
 24  7  1  0  0  0  0
 25  3  2  0  0  0  0
 26  2  2  0  0  0  0
 27 28  1  0  0  0  0
 28 18  1  0  0  0  0
 29 31  1  6  0  0  0
 29 30  1  0  0  0  0
 32 33  1  0  0  0  0
 32 34  1  0  0  0  0
 33 34  1  0  0  0  0
M  END
>  <MODEL>
6

>  <REMARK>
 VINA RESULT:      -4.6      2.234      4.786
  Name = 
  2 active torsions:
  status: ('A' for Active; 'I' for Inactive)
    1  A    between atoms: C_3  and  C_25
    2  A    between atoms: C_5  and  C_19
                            x       y       z     vdW  Elec       q    Type
                         _______ _______ _______ _____ _____    ______ ____

>  <TORSDO>
F 2

$$$$
=
 OpenBabel10262423393D

 34 39  0  0  1  0  0  0  0  0999 V2000
  185.1780  177.0580  137.3280 C   0  0  0  0  0  0  0  0  0  0  0  0
  183.1320  177.4450  135.3710 C   0  0  0  0  0  3  0  0  0  0  0  0
  183.6140  172.5830  136.9920 C   0  0  0  0  0  0  0  0  0  0  0  0
  185.5430  176.8370  135.8730 C   0  0  1  0  0  0  0  0  0  0  0  0
  185.1260  173.4190  134.6190 O   0  0  0  0  0  1  0  0  0  0  0  0
  180.8850  174.5950  135.7850 C   0  0  1  0  0  3  0  0  0  0  0  0
  184.9660  174.2740  135.7110 C   0  0  2  0  0  3  0  0  0  0  0  0
  184.7660  174.2920  138.1130 F   0  0  0  0  0  0  0  0  0  0  0  0
  186.0630  175.3710  135.6690 C   0  0  2  0  0  3  0  0  0  0  0  0
  180.3940  173.1870  135.4920 C   0  0  1  0  0  0  0  0  0  0  0  0
  182.0190  174.4920  136.7090 N   0  0  2  0  0  0  0  0  0  0  0  0
  178.9310  172.7960  135.4610 C   0  0  0  0  0  1  0  0  0  0  0  0
  182.2950  173.1110  136.7650 N   0  0  0  0  0  0  0  0  0  0  0  0
  187.3270  174.9950  136.4420 C   0  0  0  0  0  1  0  0  0  0  0  0
  185.9650  172.6570  137.1660 F   0  0  0  0  0  0  0  0  0  0  0  0
  186.0680  177.0040  138.2210 O   0  0  0  0  0  0  0  0  0  0  0  0
  181.2940  175.2020  134.5970 O   0  0  0  0  0  1  0  0  0  0  0  0
  182.8500  177.8510  136.7850 C   0  0  1  0  0  3  0  0  0  0  0  0
  181.4980  177.3050  137.2210 C   0  0  1  0  0  3  0  0  0  0  0  0
  181.2780  172.3490  134.7960 O   0  0  0  0  0  0  0  0  0  0  0  0
  181.7640  176.3420  138.3870 C   0  0  1  0  0  3  0  0  0  0  0  0
  181.2640  172.2560  136.2060 C   0  0  2  0  0  3  0  0  0  0  0  0
  181.4960  174.8740  138.0230 C   0  0  0  0  0  2  0  0  0  0  0  0
  184.8420  173.4600  137.0170 C   0  0  0  0  0  0  0  0  0  0  0  0
  183.7540  171.3410  137.1610 O   0  0  0  0  0  0  0  0  0  0  0  0
  184.3310  177.0030  134.9730 C   0  0  0  0  0  3  0  0  0  0  0  0
  183.2120  176.5360  138.7850 C   0  0  0  0  0  2  0  0  0  0  0  0
  183.8180  177.2770  137.7020 N   0  0  0  0  0  0  0  0  0  0  0  0
  180.5290  178.4320  137.5920 C   0  0  1  0  0  3  0  0  0  0  0  0
  179.9980  178.2070  138.8610 O   0  0  0  0  0  1  0  0  0  0  0  0
  181.1730  179.8100  137.5420 C   0  0  0  0  0  1  0  0  0  0  0  0
  187.9000  177.9330  136.0290 C   0  0  0  0  0  2  0  0  0  0  0  0
  186.5020  177.9820  135.4390 C   0  0  0  0  0  3  0  0  0  0  0  0
  187.6690  177.4980  134.5940 C   0  0  0  0  0  2  0  0  0  0  0  0
  1 28  1  0  0  0  0
  1 16  2  0  0  0  0
  3 24  1  0  0  0  0
  3 25  2  0  0  0  0
  4 33  1  6  0  0  0
  4  1  1  0  0  0  0
  6 17  1  6  0  0  0
  6 11  1  0  0  0  0
  7  5  1  6  0  0  0
  7 24  1  0  0  0  0
  9  7  1  0  0  0  0
  9  4  1  0  0  0  0
  9 14  1  1  0  0  0
 10 12  1  6  0  0  0
 10  6  1  0  0  0  0
 10 22  1  0  0  0  0
 11 13  1  0  0  0  0
 11 23  1  1  0  0  0
 13  3  1  0  0  0  0
 18  2  1  6  0  0  0
 18 19  1  0  0  0  0
 18 28  1  0  0  0  0
 19 29  1  1  0  0  0
 19 21  1  0  0  0  0
 20 10  1  0  0  0  0
 21 23  1  6  0  0  0
 21 27  1  0  0  0  0
 22 20  1  6  0  0  0
 22 13  1  0  0  0  0
 24 15  1  0  0  0  0
 24  8  1  0  0  0  0
 26  2  2  0  0  0  0
 26  4  1  0  0  0  0
 28 27  1  0  0  0  0
 29 31  1  1  0  0  0
 29 30  1  0  0  0  0
 33 32  1  0  0  0  0
 34 33  1  0  0  0  0
 34 32  1  0  0  0  0
M  END
>  <MODEL>
7

>  <REMARK>
 VINA RESULT:      -4.2      3.183      6.314
  Name = 
  2 active torsions:
  status: ('A' for Active; 'I' for Inactive)
    1  A    between atoms: C_3  and  C_25
    2  A    between atoms: C_5  and  C_19
                            x       y       z     vdW  Elec       q    Type
                         _______ _______ _______ _____ _____    ______ ____

>  <TORSDO>
F 2

$$$$
=
 OpenBabel10262423393D

 34 39  0  0  1  0  0  0  0  0999 V2000
  181.7050  176.3450  135.9450 C   0  0  0  0  0  0  0  0  0  0  0  0
  181.3650  175.7090  138.7100 C   0  0  0  0  0  3  0  0  0  0  0  0
  185.6750  178.3190  137.6560 C   0  0  0  0  0  0  0  0  0  0  0  0
  182.3450  175.0710  136.4590 C   0  0  1  0  0  0  0  0  0  0  0  0
  185.7890  175.3850  137.6720 O   0  0  0  0  0  1  0  0  0  0  0  0
  183.4680  178.1060  140.4910 C   0  0  1  0  0  3  0  0  0  0  0  0
  184.6810  176.0620  137.1570 C   0  0  2  0  0  3  0  0  0  0  0  0
  184.0400  178.0710  135.9910 F   0  0  0  0  0  0  0  0  0  0  0  0
  183.8940  175.1140  136.2140 C   0  0  2  0  0  3  0  0  0  0  0  0
  184.7630  178.5770  141.1320 C   0  0  1  0  0  0  0  0  0  0  0  0
  183.5910  178.2940  139.0420 N   0  0  2  0  0  0  0  0  0  0  0  0
  184.8210  179.4270  142.3840 C   0  0  0  0  0  1  0  0  0  0  0  0
  184.9420  178.6420  138.8510 N   0  0  0  0  0  0  0  0  0  0  0  0
  184.3390  175.2040  134.7540 C   0  0  0  0  0  1  0  0  0  0  0  0
  186.0760  177.2300  135.6030 F   0  0  0  0  0  0  0  0  0  0  0  0
  181.7340  176.6190  134.7130 O   0  0  0  0  0  0  0  0  0  0  0  0
  183.2710  176.7550  140.7780 O   0  0  0  0  0  1  0  0  0  0  0  0
  180.5770  176.8480  138.1400 C   0  0  1  0  0  3  0  0  0  0  0  0
  180.6930  178.0630  139.0490 C   0  0  1  0  0  3  0  0  0  0  0  0
  185.9170  177.8400  140.8250 O   0  0  0  0  0  0  0  0  0  0  0  0
  181.3790  179.1660  138.2310 C   0  0  1  0  0  3  0  0  0  0  0  0
  185.6600  179.0000  140.0600 C   0  0  2  0  0  3  0  0  0  0  0  0
  182.7970  179.4860  138.7290 C   0  0  0  0  0  2  0  0  0  0  0  0
  185.1080  177.4280  136.5770 C   0  0  0  0  0  0  0  0  0  0  0  0
  186.8390  178.7820  137.5080 O   0  0  0  0  0  0  0  0  0  0  0  0
  182.1410  174.9200  137.9570 C   0  0  0  0  0  3  0  0  0  0  0  0
  181.4170  178.6800  136.7970 C   0  0  0  0  0  2  0  0  0  0  0  0
  181.1100  177.2680  136.8570 N   0  0  0  0  0  0  0  0  0  0  0  0
  179.3260  178.4920  139.5930 C   0  0  1  0  0  3  0  0  0  0  0  0
  178.9320  177.6390  140.6220 O   0  0  0  0  0  1  0  0  0  0  0  0
  179.3080  179.9320  140.0840 C   0  0  0  0  0  1  0  0  0  0  0  0
  182.3130  172.5380  135.8570 C   0  0  0  0  0  2  0  0  0  0  0  0
  181.5770  173.8650  135.8450 C   0  0  0  0  0  3  0  0  0  0  0  0
  181.2130  172.8030  136.8690 C   0  0  0  0  0  2  0  0  0  0  0  0
  1  4  1  0  0  0  0
  1 28  1  0  0  0  0
  3 13  1  0  0  0  0
  4 33  1  6  0  0  0
  4 26  1  0  0  0  0
  6 17  1  6  0  0  0
  6 10  1  0  0  0  0
  7  5  1  6  0  0  0
  8 24  1  0  0  0  0
  9 14  1  6  0  0  0
  9  4  1  0  0  0  0
  9  7  1  0  0  0  0
 10 12  1  1  0  0  0
 11 23  1  1  0  0  0
 11  6  1  0  0  0  0
 13 11  1  0  0  0  0
 13 22  1  0  0  0  0
 15 24  1  0  0  0  0
 16  1  2  0  0  0  0
 18  2  1  1  0  0  0
 18 19  1  0  0  0  0
 19 29  1  6  0  0  0
 20 10  1  0  0  0  0
 21 27  1  6  0  0  0
 21 23  1  0  0  0  0
 21 19  1  0  0  0  0
 22 20  1  1  0  0  0
 22 10  1  0  0  0  0
 24  7  1  0  0  0  0
 24  3  1  0  0  0  0
 25  3  2  0  0  0  0
 26  2  2  0  0  0  0
 27 28  1  0  0  0  0
 28 18  1  0  0  0  0
 29 31  1  1  0  0  0
 29 30  1  0  0  0  0
 32 34  1  0  0  0  0
 33 32  1  0  0  0  0
 33 34  1  0  0  0  0
M  END
>  <MODEL>
8

>  <REMARK>
 VINA RESULT:      -3.9      2.117      5.611
  Name = 
  2 active torsions:
  status: ('A' for Active; 'I' for Inactive)
    1  A    between atoms: C_3  and  C_25
    2  A    between atoms: C_5  and  C_19
                            x       y       z     vdW  Elec       q    Type
                         _______ _______ _______ _____ _____    ______ ____

>  <TORSDO>
F 2

$$$$
=
 OpenBabel10262423393D

 34 39  0  0  1  0  0  0  0  0999 V2000
  187.3800  175.8010  135.3360 C   0  0  0  0  0  0  0  0  0  0  0  0
  185.9230  173.8330  136.8100 C   0  0  0  0  0  3  0  0  0  0  0  0
  185.0860  178.6740  138.3470 C   0  0  0  0  0  0  0  0  0  0  0  0
  188.0030  175.2730  136.6140 C   0  0  1  0  0  0  0  0  0  0  0  0
  187.2110  177.1390  139.6680 O   0  0  0  0  0  1  0  0  0  0  0  0
  183.1300  175.6530  138.3000 C   0  0  1  0  0  3  0  0  0  0  0  0
  186.9870  177.0270  138.2940 C   0  0  2  0  0  3  0  0  0  0  0  0
  186.2780  178.2830  136.3640 F   0  0  0  0  0  0  0  0  0  0  0  0
  188.2580  176.4570  137.6120 C   0  0  2  0  0  3  0  0  0  0  0  0
  182.4490  176.4540  139.3970 C   0  0  1  0  0  0  0  0  0  0  0  0
  183.9940  176.5680  137.5470 N   0  0  2  0  0  0  0  0  0  0  0  0
  180.9810  176.3260  139.7450 C   0  0  0  0  0  1  0  0  0  0  0  0
  183.9760  177.7590  138.3000 N   0  0  0  0  0  0  0  0  0  0  0  0
  189.2270  177.5390  137.1330 C   0  0  0  0  0  1  0  0  0  0  0  0
  187.3110  179.3810  138.0160 F   0  0  0  0  0  0  0  0  0  0  0  0
  188.0270  176.5900  134.5930 O   0  0  0  0  0  0  0  0  0  0  0  0
  183.8970  174.6380  138.8710 O   0  0  0  0  0  1  0  0  0  0  0  0
  185.4260  174.2160  135.4500 C   0  0  1  0  0  3  0  0  0  0  0  0
  183.9320  174.4990  135.5060 C   0  0  1  0  0  3  0  0  0  0  0  0
  183.2830  176.9780  140.3970 O   0  0  0  0  0  0  0  0  0  0  0  0
  183.7460  175.9740  135.1200 C   0  0  1  0  0  3  0  0  0  0  0  0
  182.9460  177.8260  139.3180 C   0  0  2  0  0  3  0  0  0  0  0  0
  183.2830  176.8460  136.2960 C   0  0  0  0  0  2  0  0  0  0  0  0
  186.4260  178.3510  137.7320 C   0  0  0  0  0  0  0  0  0  0  0  0
  184.9410  179.7800  138.9360 O   0  0  0  0  0  0  0  0  0  0  0  0
  187.0710  174.3000  137.3160 C   0  0  0  0  0  3  0  0  0  0  0  0
  185.0820  176.4550  134.5950 C   0  0  0  0  0  2  0  0  0  0  0  0
  186.0410  175.4480  134.9910 N   0  0  0  0  0  0  0  0  0  0  0  0
  183.1440  173.5460  134.6030 C   0  0  1  0  0  3  0  0  0  0  0  0
  183.5770  172.2350  134.7980 O   0  0  0  0  0  1  0  0  0  0  0  0
  181.6400  173.6280  134.8220 C   0  0  0  0  0  1  0  0  0  0  0  0
  190.3640  174.3760  137.2450 C   0  0  0  0  0  2  0  0  0  0  0  0
  189.2370  174.4100  136.2280 C   0  0  0  0  0  3  0  0  0  0  0  0
  189.4210  173.1930  137.1200 C   0  0  0  0  0  2  0  0  0  0  0  0
  1  4  1  0  0  0  0
  2 26  2  0  0  0  0
  3 25  2  0  0  0  0
  4 33  1  6  0  0  0
  4 26  1  0  0  0  0
  4  9  1  0  0  0  0
  6 17  1  1  0  0  0
  6 10  1  0  0  0  0
  7  5  1  1  0  0  0
  8 24  1  0  0  0  0
  9 14  1  6  0  0  0
  9  7  1  0  0  0  0
 10 12  1  1  0  0  0
 10 20  1  0  0  0  0
 11 23  1  6  0  0  0
 11 13  1  0  0  0  0
 11  6  1  0  0  0  0
 13  3  1  0  0  0  0
 13 22  1  0  0  0  0
 16  1  2  0  0  0  0
 18 19  1  0  0  0  0
 18  2  1  1  0  0  0
 19 29  1  6  0  0  0
 21 27  1  1  0  0  0
 21 19  1  0  0  0  0
 21 23  1  0  0  0  0
 22 10  1  0  0  0  0
 22 20  1  1  0  0  0
 24 15  1  0  0  0  0
 24  7  1  0  0  0  0
 24  3  1  0  0  0  0
 27 28  1  0  0  0  0
 28  1  1  0  0  0  0
 28 18  1  0  0  0  0
 29 30  1  0  0  0  0
 29 31  1  1  0  0  0
 33 34  1  0  0  0  0
 33 32  1  0  0  0  0
 34 32  1  0  0  0  0
M  END
>  <MODEL>
9

>  <REMARK>
 VINA RESULT:      -3.2      3.242      7.555
  Name = 
  2 active torsions:
  status: ('A' for Active; 'I' for Inactive)
    1  A    between atoms: C_3  and  C_25
    2  A    between atoms: C_5  and  C_19
                            x       y       z     vdW  Elec       q    Type
                         _______ _______ _______ _____ _____    ______ ____

>  <TORSDO>
F 2

$$$$
