=
 OpenBabel10262420483D

 28 31  0  0  1  0  0  0  0  0999 V2000
  184.7630  179.2650  142.4880 C   0  0  1  0  0  3  0  0  0  0  0  0
  187.3650  177.1210  146.0430 C   0  0  0  0  0  1  0  0  0  0  0  0
  188.1270  177.6410  141.7040 C   0  0  2  0  0  3  0  0  0  0  0  0
  187.4380  177.7150  144.6500 C   0  0  1  0  0  3  0  0  0  0  0  0
  187.1160  178.7660  141.9000 C   0  0  0  0  0  2  0  0  0  0  0  0
  185.2890  179.0310  144.8260 C   0  0  0  0  0  2  0  0  0  0  0  0
  188.2600  176.7830  143.7680 C   0  0  0  0  0  2  0  0  0  0  0  0
  186.0200  177.9210  144.0950 C   0  0  1  0  0  3  0  0  0  0  0  0
  188.9650  177.5370  142.8230 O   0  0  0  0  0  0  0  0  0  0  0  0
  184.1930  179.4680  143.8800 C   0  0  0  0  0  2  0  0  0  0  0  0
  185.8690  178.2270  142.5920 C   0  0  1  0  0  3  0  0  0  0  0  0
  188.3450  178.4170  139.3830 C   0  0  0  0  0  3  0  0  0  0  0  0
  190.6360  176.3130  139.4550 C   0  0  0  0  0  2  0  0  0  0  0  0
  189.5580  177.4090  137.4880 C   0  0  0  0  0  0  0  0  0  0  0  0
  188.9420  177.8650  140.4580 C   0  0  0  0  0  0  0  0  0  0  0  0
  190.9650  177.1090  141.7840 C   0  0  0  0  0  1  0  0  0  0  0  0
  190.8210  176.8110  138.0240 C   0  0  0  0  0  2  0  0  0  0  0  0
  190.4090  177.4750  140.4160 C   0  0  1  0  0  3  0  0  0  0  0  0
  188.7860  176.7000  136.7520 N   0  0  0  0  0  2  0  0  0  0  0  0
  189.0470  178.6840  138.0830 C   0  0  0  0  0  2  0  0  0  0  0  0
  183.7090  178.8730  141.4940 C   0  0  0  0  0  0  0  0  0  0  0  0
  182.5340  178.2890  141.9810 C   0  0  0  0  0  3  0  0  0  0  0  0
  182.8290  178.7010  139.2320 C   0  0  0  0  0  0  0  0  0  0  0  0
  181.5150  177.9120  141.1040 C   0  0  0  0  0  3  0  0  0  0  0  0
  185.0100  179.6640  139.5920 O   0  0  0  0  0  1  0  0  0  0  0  0
  183.8550  179.0820  140.1060 C   0  0  0  0  0  0  0  0  0  0  0  0
  182.9600  178.8980  137.8970 F   0  0  0  0  0  0  0  0  0  0  0  0
  181.6620  178.1180  139.7310 C   0  0  0  0  0  3  0  0  0  0  0  0
  1 21  1  6  0  0  0
  1 11  1  0  0  0  0
  1 10  1  0  0  0  0
  3 15  1  6  0  0  0
  3  5  1  0  0  0  0
  3  9  1  0  0  0  0
  4  2  1  1  0  0  0
  7  4  1  0  0  0  0
  8  4  1  0  0  0  0
  8  6  1  1  0  0  0
  9  7  1  0  0  0  0
 10  6  1  0  0  0  0
 11  5  1  1  0  0  0
 11  8  1  0  0  0  0
 12 15  2  0  0  0  0
 13 18  1  0  0  0  0
 14 17  1  0  0  0  0
 14 20  1  0  0  0  0
 17 13  1  0  0  0  0
 18 15  1  0  0  0  0
 18 16  1  1  0  0  0
 19 14  2  0  0  0  0
 20 12  1  0  0  0  0
 21 22  1  0  0  0  0
 23 28  2  0  0  0  0
 23 26  1  0  0  0  0
 24 22  2  0  0  0  0
 25 26  1  0  0  0  0
 26 21  2  0  0  0  0
 27 23  1  0  0  0  0
 28 24  1  0  0  0  0
M  END
>  <MODEL>
1

>  <REMARK>
 VINA RESULT:      -9.4      0.000      0.000
  Name = 
  2 active torsions:
  status: ('A' for Active; 'I' for Inactive)
    1  A    between atoms: C_1  and  C_2
    2  A    between atoms: C_10  and  C_13
                            x       y       z     vdW  Elec       q    Type
                         _______ _______ _______ _____ _____    ______ ____

>  <TORSDO>
F 2

$$$$
=
 OpenBabel10262420483D

 28 31  0  0  1  0  0  0  0  0999 V2000
  187.4810  176.9720  142.8460 C   0  0  1  0  0  3  0  0  0  0  0  0
  185.6440  179.2390  146.7820 C   0  0  0  0  0  1  0  0  0  0  0  0
  184.1260  178.7810  142.6390 C   0  0  2  0  0  3  0  0  0  0  0  0
  185.3020  178.6560  145.4250 C   0  0  1  0  0  3  0  0  0  0  0  0
  185.0930  177.6020  142.6650 C   0  0  0  0  0  2  0  0  0  0  0  0
  187.3740  177.2240  145.2380 C   0  0  0  0  0  2  0  0  0  0  0  0
  184.3950  179.6360  144.6910 C   0  0  0  0  0  2  0  0  0  0  0  0
  186.5920  178.3760  144.6370 C   0  0  1  0  0  3  0  0  0  0  0  0
  183.4980  178.9270  143.8840 O   0  0  0  0  0  0  0  0  0  0  0  0
  188.2670  176.7320  144.1220 C   0  0  0  0  0  2  0  0  0  0  0  0
  186.4680  178.0690  143.1320 C   0  0  1  0  0  3  0  0  0  0  0  0
  181.8250  178.3430  141.8970 C   0  0  0  0  0  3  0  0  0  0  0  0
  183.3850  177.3880  139.3790 C   0  0  0  0  0  2  0  0  0  0  0  0
  181.0060  176.9760  140.0160 C   0  0  0  0  0  0  0  0  0  0  0  0
  183.1000  178.6080  141.5510 C   0  0  0  0  0  0  0  0  0  0  0  0
  184.9050  179.2800  139.9030 C   0  0  0  0  0  1  0  0  0  0  0  0
  181.9630  177.1490  138.8780 C   0  0  0  0  0  2  0  0  0  0  0  0
  183.4980  178.7320  140.0910 C   0  0  1  0  0  3  0  0  0  0  0  0
  180.6790  175.7960  140.3910 N   0  0  0  0  0  2  0  0  0  0  0  0
  180.7150  178.1430  140.9060 C   0  0  0  0  0  2  0  0  0  0  0  0
  188.3700  177.3100  141.6850 C   0  0  0  0  0  0  0  0  0  0  0  0
  187.9240  178.2780  140.7790 C   0  0  0  0  0  3  0  0  0  0  0  0
  190.4140  177.0700  140.3860 C   0  0  0  0  0  0  0  0  0  0  0  0
  188.7110  178.6410  139.6840 C   0  0  0  0  0  3  0  0  0  0  0  0
  190.1010  175.7400  142.3720 O   0  0  0  0  0  1  0  0  0  0  0  0
  189.6280  176.7030  141.4860 C   0  0  0  0  0  0  0  0  0  0  0  0
  191.6240  176.4920  140.1870 F   0  0  0  0  0  0  0  0  0  0  0  0
  189.9550  178.0370  139.4880 C   0  0  0  0  0  3  0  0  0  0  0  0
  1 21  1  6  0  0  0
  1 11  1  0  0  0  0
  1 10  1  0  0  0  0
  3 15  1  6  0  0  0
  3  5  1  0  0  0  0
  3  9  1  0  0  0  0
  4  2  1  1  0  0  0
  7  4  1  0  0  0  0
  8  6  1  1  0  0  0
  8  4  1  0  0  0  0
  9  7  1  0  0  0  0
 10  6  1  0  0  0  0
 11  5  1  1  0  0  0
 11  8  1  0  0  0  0
 13 18  1  0  0  0  0
 14 19  2  0  0  0  0
 14 20  1  0  0  0  0
 15 12  2  0  0  0  0
 17 13  1  0  0  0  0
 17 14  1  0  0  0  0
 18 16  1  1  0  0  0
 18 15  1  0  0  0  0
 20 12  1  0  0  0  0
 22 21  2  0  0  0  0
 23 26  2  0  0  0  0
 24 22  1  0  0  0  0
 26 21  1  0  0  0  0
 26 25  1  0  0  0  0
 27 23  1  0  0  0  0
 28 24  2  0  0  0  0
 28 23  1  0  0  0  0
M  END
>  <MODEL>
2

>  <REMARK>
 VINA RESULT:      -9.0      2.807      6.285
  Name = 
  2 active torsions:
  status: ('A' for Active; 'I' for Inactive)
    1  A    between atoms: C_1  and  C_2
    2  A    between atoms: C_10  and  C_13
                            x       y       z     vdW  Elec       q    Type
                         _______ _______ _______ _____ _____    ______ ____

>  <TORSDO>
F 2

$$$$
=
 OpenBabel10262420483D

 28 31  0  0  1  0  0  0  0  0999 V2000
  184.3830  179.1490  142.3280 C   0  0  1  0  0  3  0  0  0  0  0  0
  186.1020  177.5410  146.6260 C   0  0  0  0  0  1  0  0  0  0  0  0
  187.9230  177.7460  142.5860 C   0  0  2  0  0  3  0  0  0  0  0  0
  186.4970  178.0170  145.2410 C   0  0  1  0  0  3  0  0  0  0  0  0
  186.8330  178.7960  142.4040 C   0  0  0  0  0  2  0  0  0  0  0  0
  184.3030  179.1620  144.7340 C   0  0  0  0  0  2  0  0  0  0  0  0
  187.5690  177.0830  144.6950 C   0  0  0  0  0  2  0  0  0  0  0  0
  185.2590  178.0560  144.3300 C   0  0  1  0  0  3  0  0  0  0  0  0
  188.4500  177.8070  143.8840 O   0  0  0  0  0  0  0  0  0  0  0  0
  183.4640  179.4230  143.5040 C   0  0  0  0  0  2  0  0  0  0  0  0
  185.4820  178.2180  142.8130 C   0  0  1  0  0  3  0  0  0  0  0  0
  188.7260  177.7460  140.2640 C   0  0  0  0  0  3  0  0  0  0  0  0
  191.4000  177.1670  141.7480 C   0  0  0  0  0  2  0  0  0  0  0  0
  190.8480  176.9110  139.3260 C   0  0  0  0  0  0  0  0  0  0  0  0
  189.0170  177.9270  141.5670 C   0  0  0  0  0  0  0  0  0  0  0  0
  190.4980  178.7150  143.4670 C   0  0  0  0  0  1  0  0  0  0  0  0
  191.9300  177.2070  140.3180 C   0  0  0  0  0  2  0  0  0  0  0  0
  190.4210  178.3080  142.0030 C   0  0  1  0  0  3  0  0  0  0  0  0
  190.7290  175.7250  138.8590 N   0  0  0  0  0  2  0  0  0  0  0  0
  189.7300  177.8910  139.1560 C   0  0  0  0  0  2  0  0  0  0  0  0
  183.6450  178.5870  141.1480 C   0  0  0  0  0  0  0  0  0  0  0  0
  182.4650  177.8760  141.3920 C   0  0  0  0  0  3  0  0  0  0  0  0
  183.3470  178.2170  138.7610 C   0  0  0  0  0  0  0  0  0  0  0  0
  181.7300  177.3380  140.3330 C   0  0  0  0  0  3  0  0  0  0  0  0
  185.2550  179.4650  139.5450 O   0  0  0  0  0  1  0  0  0  0  0  0
  184.0870  178.7600  139.8190 C   0  0  0  0  0  0  0  0  0  0  0  0
  183.7640  178.3780  137.4810 F   0  0  0  0  0  0  0  0  0  0  0  0
  182.1710  177.5080  139.0190 C   0  0  0  0  0  3  0  0  0  0  0  0
  1 21  1  6  0  0  0
  1 11  1  0  0  0  0
  1 10  1  0  0  0  0
  3 15  1  6  0  0  0
  3  9  1  0  0  0  0
  4  2  1  1  0  0  0
  5  3  1  0  0  0  0
  7  4  1  0  0  0  0
  8  6  1  1  0  0  0
  8  4  1  0  0  0  0
  9  7  1  0  0  0  0
 10  6  1  0  0  0  0
 11  5  1  1  0  0  0
 11  8  1  0  0  0  0
 12 15  2  0  0  0  0
 13 18  1  0  0  0  0
 14 17  1  0  0  0  0
 15 18  1  0  0  0  0
 17 13  1  0  0  0  0
 18 16  1  1  0  0  0
 19 14  2  0  0  0  0
 20 14  1  0  0  0  0
 20 12  1  0  0  0  0
 21 22  1  0  0  0  0
 23 28  2  0  0  0  0
 23 26  1  0  0  0  0
 24 22  2  0  0  0  0
 25 26  1  0  0  0  0
 26 21  2  0  0  0  0
 27 23  1  0  0  0  0
 28 24  1  0  0  0  0
M  END
>  <MODEL>
3

>  <REMARK>
 VINA RESULT:      -9.0      1.147      1.421
  Name = 
  2 active torsions:
  status: ('A' for Active; 'I' for Inactive)
    1  A    between atoms: C_1  and  C_2
    2  A    between atoms: C_10  and  C_13
                            x       y       z     vdW  Elec       q    Type
                         _______ _______ _______ _____ _____    ______ ____

>  <TORSDO>
F 2

$$$$
=
 OpenBabel10262420483D

 28 31  0  0  1  0  0  0  0  0999 V2000
  185.6670  179.2260  144.9870 C   0  0  1  0  0  3  0  0  0  0  0  0
  188.4860  176.6240  148.0350 C   0  0  0  0  0  1  0  0  0  0  0  0
  188.8290  177.5170  143.7030 C   0  0  2  0  0  3  0  0  0  0  0  0
  188.4510  177.3440  146.7010 C   0  0  1  0  0  3  0  0  0  0  0  0
  187.9130  178.6680  144.1070 C   0  0  0  0  0  2  0  0  0  0  0  0
  186.4150  178.7440  147.2230 C   0  0  0  0  0  2  0  0  0  0  0  0
  189.1200  176.4600  145.6550 C   0  0  0  0  0  2  0  0  0  0  0  0
  186.9980  177.6730  146.3220 C   0  0  1  0  0  3  0  0  0  0  0  0
  189.7690  177.2640  144.7110 O   0  0  0  0  0  0  0  0  0  0  0  0
  185.2560  179.3230  146.4440 C   0  0  0  0  0  2  0  0  0  0  0  0
  186.7130  178.1280  144.8780 C   0  0  1  0  0  3  0  0  0  0  0  0
  188.8700  177.5810  141.2470 C   0  0  0  0  0  3  0  0  0  0  0  0
  191.9210  177.3640  141.8210 C   0  0  0  0  0  2  0  0  0  0  0  0
  190.6850  177.0030  139.6820 C   0  0  0  0  0  0  0  0  0  0  0  0
  189.5240  177.8170  142.4010 C   0  0  0  0  0  0  0  0  0  0  0  0
  191.4090  178.8140  143.7710 C   0  0  0  0  0  1  0  0  0  0  0  0
  191.9750  177.4470  140.2990 C   0  0  0  0  0  2  0  0  0  0  0  0
  190.9350  178.3780  142.3920 C   0  0  1  0  0  3  0  0  0  0  0  0
  190.5750  175.8040  139.2460 N   0  0  0  0  0  2  0  0  0  0  0  0
  189.4570  177.8320  139.8880 C   0  0  0  0  0  2  0  0  0  0  0  0
  184.4950  178.9840  144.0810 C   0  0  0  0  0  0  0  0  0  0  0  0
  183.2470  178.7560  144.6700 C   0  0  0  0  0  3  0  0  0  0  0  0
  183.4700  178.7690  141.8840 C   0  0  0  0  0  0  0  0  0  0  0  0
  182.1190  178.5340  143.8780 C   0  0  0  0  0  3  0  0  0  0  0  0
  185.8320  179.2210  142.0580 O   0  0  0  0  0  1  0  0  0  0  0  0
  184.6050  178.9930  142.6730 C   0  0  0  0  0  0  0  0  0  0  0  0
  183.5660  178.7750  140.5310 F   0  0  0  0  0  0  0  0  0  0  0  0
  182.2300  178.5400  142.4860 C   0  0  0  0  0  3  0  0  0  0  0  0
  1 21  1  6  0  0  0
  1 10  1  0  0  0  0
  3 15  1  6  0  0  0
  3  5  1  0  0  0  0
  3  9  1  0  0  0  0
  4  2  1  1  0  0  0
  7  4  1  0  0  0  0
  8  4  1  0  0  0  0
  8  6  1  1  0  0  0
  9  7  1  0  0  0  0
 10  6  1  0  0  0  0
 11  5  1  1  0  0  0
 11  1  1  0  0  0  0
 11  8  1  0  0  0  0
 12 15  2  0  0  0  0
 13 18  1  0  0  0  0
 14 20  1  0  0  0  0
 14 17  1  0  0  0  0
 17 13  1  0  0  0  0
 18 15  1  0  0  0  0
 18 16  1  1  0  0  0
 19 14  2  0  0  0  0
 20 12  1  0  0  0  0
 21 22  1  0  0  0  0
 23 28  2  0  0  0  0
 23 26  1  0  0  0  0
 24 22  2  0  0  0  0
 25 26  1  0  0  0  0
 26 21  2  0  0  0  0
 27 23  1  0  0  0  0
 28 24  1  0  0  0  0
M  END
>  <MODEL>
4

>  <REMARK>
 VINA RESULT:      -8.9      1.698      2.539
  Name = 
  2 active torsions:
  status: ('A' for Active; 'I' for Inactive)
    1  A    between atoms: C_1  and  C_2
    2  A    between atoms: C_10  and  C_13
                            x       y       z     vdW  Elec       q    Type
                         _______ _______ _______ _____ _____    ______ ____

>  <TORSDO>
F 2

$$$$
=
 OpenBabel10262420483D

 28 31  0  0  1  0  0  0  0  0999 V2000
  184.6210  179.0510  142.9190 C   0  0  1  0  0  3  0  0  0  0  0  0
  187.5560  177.2710  146.4160 C   0  0  0  0  0  1  0  0  0  0  0  0
  188.0430  177.6180  142.0200 C   0  0  2  0  0  3  0  0  0  0  0  0
  187.5120  177.7960  144.9940 C   0  0  1  0  0  3  0  0  0  0  0  0
  186.9670  178.6810  142.2200 C   0  0  0  0  0  2  0  0  0  0  0  0
  185.2890  178.9730  145.2310 C   0  0  0  0  0  2  0  0  0  0  0  0
  188.3470  176.8770  144.1110 C   0  0  0  0  0  2  0  0  0  0  0  0
  186.0540  177.8780  144.5120 C   0  0  1  0  0  3  0  0  0  0  0  0
  188.9450  177.6270  143.0920 O   0  0  0  0  0  0  0  0  0  0  0  0
  184.1150  179.2860  144.3310 C   0  0  0  0  0  2  0  0  0  0  0  0
  185.8000  178.0950  143.0080 C   0  0  1  0  0  3  0  0  0  0  0  0
  188.0730  178.2530  139.6460 C   0  0  0  0  0  3  0  0  0  0  0  0
  190.5550  176.3780  139.7240 C   0  0  0  0  0  2  0  0  0  0  0  0
  189.2830  177.2360  137.7550 C   0  0  0  0  0  0  0  0  0  0  0  0
  188.7710  177.8310  140.7190 C   0  0  0  0  0  0  0  0  0  0  0  0
  190.9190  177.3560  141.9770 C   0  0  0  0  0  1  0  0  0  0  0  0
  190.6210  176.7930  138.2570 C   0  0  0  0  0  2  0  0  0  0  0  0
  190.2640  177.5760  140.6210 C   0  0  1  0  0  3  0  0  0  0  0  0
  188.5470  176.4100  137.1070 N   0  0  0  0  0  2  0  0  0  0  0  0
  188.6820  178.4950  138.2960 C   0  0  0  0  0  2  0  0  0  0  0  0
  183.5450  178.5390  142.0070 C   0  0  0  0  0  0  0  0  0  0  0  0
  183.9220  177.6970  140.9560 C   0  0  0  0  0  3  0  0  0  0  0  0
  181.2250  178.3440  141.2990 C   0  0  0  0  0  0  0  0  0  0  0  0
  182.9640  177.1820  140.0800 C   0  0  0  0  0  3  0  0  0  0  0  0
  181.7750  179.6940  143.2190 O   0  0  0  0  0  1  0  0  0  0  0  0
  182.1810  178.8630  142.1800 C   0  0  0  0  0  0  0  0  0  0  0  0
  179.9130  178.6490  141.4560 F   0  0  0  0  0  0  0  0  0  0  0  0
  181.6160  177.5060  140.2520 C   0  0  0  0  0  3  0  0  0  0  0  0
  1 21  1  6  0  0  0
  1 11  1  0  0  0  0
  1 10  1  0  0  0  0
  3 15  1  6  0  0  0
  3  5  1  0  0  0  0
  3  9  1  0  0  0  0
  4  2  1  1  0  0  0
  7  4  1  0  0  0  0
  8  4  1  0  0  0  0
  8  6  1  1  0  0  0
  9  7  1  0  0  0  0
 10  6  1  0  0  0  0
 11  5  1  1  0  0  0
 11  8  1  0  0  0  0
 12 15  2  0  0  0  0
 13 18  1  0  0  0  0
 14 17  1  0  0  0  0
 14 20  1  0  0  0  0
 17 13  1  0  0  0  0
 18 15  1  0  0  0  0
 18 16  1  1  0  0  0
 19 14  2  0  0  0  0
 20 12  1  0  0  0  0
 21 26  1  0  0  0  0
 22 21  2  0  0  0  0
 23 27  1  0  0  0  0
 23 26  2  0  0  0  0
 24 28  2  0  0  0  0
 24 22  1  0  0  0  0
 26 25  1  0  0  0  0
 28 23  1  0  0  0  0
M  END
>  <MODEL>
5

>  <REMARK>
 VINA RESULT:      -8.8      1.418      1.591
  Name = 
  2 active torsions:
  status: ('A' for Active; 'I' for Inactive)
    1  A    between atoms: C_1  and  C_2
    2  A    between atoms: C_10  and  C_13
                            x       y       z     vdW  Elec       q    Type
                         _______ _______ _______ _____ _____    ______ ____

>  <TORSDO>
F 2

$$$$
=
 OpenBabel10262420483D

 28 31  0  0  1  0  0  0  0  0999 V2000
  182.9450  178.4080  139.4860 C   0  0  1  0  0  3  0  0  0  0  0  0
  179.9780  179.4700  143.2380 C   0  0  0  0  0  1  0  0  0  0  0  0
  184.2640  178.3390  143.0680 C   0  0  2  0  0  3  0  0  0  0  0  0
  181.4270  179.3610  142.8070 C   0  0  1  0  0  3  0  0  0  0  0  0
  184.0970  178.8370  141.6360 C   0  0  0  0  0  2  0  0  0  0  0  0
  180.9600  179.4800  140.3270 C   0  0  0  0  0  2  0  0  0  0  0  0
  182.2030  178.6280  143.8940 C   0  0  0  0  0  2  0  0  0  0  0  0
  181.5170  178.6330  141.4550 C   0  0  1  0  0  3  0  0  0  0  0  0
  183.5100  179.1250  143.9500 O   0  0  0  0  0  0  0  0  0  0  0  0
  181.5750  178.9090  139.0690 C   0  0  0  0  0  2  0  0  0  0  0  0
  182.9020  178.1500  140.9840 C   0  0  1  0  0  3  0  0  0  0  0  0
  186.6550  178.2620  142.5090 C   0  0  0  0  0  3  0  0  0  0  0  0
  186.7540  177.1430  145.4100 C   0  0  0  0  0  2  0  0  0  0  0  0
  188.5020  177.0730  143.6290 C   0  0  0  0  0  0  0  0  0  0  0  0
  185.7150  178.3440  143.4700 C   0  0  0  0  0  0  0  0  0  0  0  0
  184.9360  178.7780  145.8420 C   0  0  0  0  0  1  0  0  0  0  0  0
  188.2480  177.1280  145.1030 C   0  0  0  0  0  2  0  0  0  0  0  0
  186.1080  178.4400  144.9340 C   0  0  1  0  0  3  0  0  0  0  0  0
  188.7490  175.9450  143.0730 N   0  0  0  0  0  2  0  0  0  0  0  0
  188.1320  178.2500  142.7830 C   0  0  0  0  0  2  0  0  0  0  0  0
  183.3650  177.1910  138.7140 C   0  0  0  0  0  0  0  0  0  0  0  0
  182.5330  176.0670  138.7590 C   0  0  0  0  0  3  0  0  0  0  0  0
  184.8770  175.9840  137.2380 C   0  0  0  0  0  0  0  0  0  0  0  0
  182.8670  174.9090  138.0530 C   0  0  0  0  0  3  0  0  0  0  0  0
  185.3920  178.2510  137.8760 O   0  0  0  0  0  1  0  0  0  0  0  0
  184.5470  177.1480  137.9440 C   0  0  0  0  0  0  0  0  0  0  0  0
  186.0110  175.9320  136.4960 F   0  0  0  0  0  0  0  0  0  0  0  0
  184.0380  174.8680  137.2940 C   0  0  0  0  0  3  0  0  0  0  0  0
  1 21  1  6  0  0  0
  1 11  1  0  0  0  0
  3 15  1  1  0  0  0
  3  9  1  0  0  0  0
  4  2  1  1  0  0  0
  4  7  1  0  0  0  0
  5  3  1  0  0  0  0
  7  9  1  0  0  0  0
  8  6  1  6  0  0  0
  8  4  1  0  0  0  0
 10  1  1  0  0  0  0
 10  6  1  0  0  0  0
 11  8  1  0  0  0  0
 11  5  1  1  0  0  0
 12 20  1  0  0  0  0
 12 15  2  0  0  0  0
 14 17  1  0  0  0  0
 15 18  1  0  0  0  0
 17 13  1  0  0  0  0
 18 13  1  0  0  0  0
 18 16  1  1  0  0  0
 19 14  2  0  0  0  0
 20 14  1  0  0  0  0
 21 22  1  0  0  0  0
 23 28  2  0  0  0  0
 23 26  1  0  0  0  0
 24 22  2  0  0  0  0
 25 26  1  0  0  0  0
 26 21  2  0  0  0  0
 27 23  1  0  0  0  0
 28 24  1  0  0  0  0
M  END
>  <MODEL>
6

>  <REMARK>
 VINA RESULT:      -8.6      3.004      5.306
  Name = 
  2 active torsions:
  status: ('A' for Active; 'I' for Inactive)
    1  A    between atoms: C_1  and  C_2
    2  A    between atoms: C_10  and  C_13
                            x       y       z     vdW  Elec       q    Type
                         _______ _______ _______ _____ _____    ______ ____

>  <TORSDO>
F 2

$$$$
=
 OpenBabel10262420483D

 28 31  0  0  1  0  0  0  0  0999 V2000
  188.0510  177.1030  143.9110 C   0  0  1  0  0  3  0  0  0  0  0  0
  183.7110  179.1000  144.9970 C   0  0  0  0  0  1  0  0  0  0  0  0
  185.8830  178.6170  141.1590 C   0  0  2  0  0  3  0  0  0  0  0  0
  184.5570  178.5250  143.8770 C   0  0  1  0  0  3  0  0  0  0  0  0
  186.5840  177.5260  141.9630 C   0  0  0  0  0  2  0  0  0  0  0  0
  186.1580  177.2830  145.3870 C   0  0  0  0  0  2  0  0  0  0  0  0
  184.4450  179.4400  142.6650 C   0  0  0  0  0  2  0  0  0  0  0  0
  186.0140  178.3770  144.3460 C   0  0  1  0  0  3  0  0  0  0  0  0
  184.5240  178.6760  141.4950 O   0  0  0  0  0  0  0  0  0  0  0  0
  187.6200  176.9000  145.3520 C   0  0  0  0  0  2  0  0  0  0  0  0
  187.0920  178.0990  143.2810 C   0  0  1  0  0  3  0  0  0  0  0  0
  184.9480  178.2490  138.9170 C   0  0  0  0  0  3  0  0  0  0  0  0
  187.7260  176.8930  138.5610 C   0  0  0  0  0  2  0  0  0  0  0  0
  185.6880  176.7230  137.1280 C   0  0  0  0  0  0  0  0  0  0  0  0
  186.0490  178.3830  139.6810 C   0  0  0  0  0  0  0  0  0  0  0  0
  188.5370  178.7270  140.0240 C   0  0  0  0  0  1  0  0  0  0  0  0
  187.1840  176.6920  137.1480 C   0  0  0  0  0  2  0  0  0  0  0  0
  187.4350  178.3020  139.0650 C   0  0  1  0  0  3  0  0  0  0  0  0
  185.0340  175.6210  137.1400 N   0  0  0  0  0  2  0  0  0  0  0  0
  184.9830  178.0060  137.4360 C   0  0  0  0  0  2  0  0  0  0  0  0
  189.4810  177.5470  143.8030 C   0  0  0  0  0  0  0  0  0  0  0  0
  189.9370  178.5140  144.7050 C   0  0  0  0  0  3  0  0  0  0  0  0
  191.6980  177.4700  142.8030 C   0  0  0  0  0  0  0  0  0  0  0  0
  191.2590  178.9600  144.6590 C   0  0  0  0  0  3  0  0  0  0  0  0
  189.9500  176.0530  141.9370 O   0  0  0  0  0  1  0  0  0  0  0  0
  190.3730  177.0190  142.8450 C   0  0  0  0  0  0  0  0  0  0  0  0
  192.5620  176.9690  141.8850 F   0  0  0  0  0  0  0  0  0  0  0  0
  192.1390  178.4380  143.7080 C   0  0  0  0  0  3  0  0  0  0  0  0
  1 21  1  1  0  0  0
  1 10  1  0  0  0  0
  3 15  1  6  0  0  0
  3  9  1  0  0  0  0
  3  5  1  0  0  0  0
  4  8  1  0  0  0  0
  4  2  1  1  0  0  0
  7  4  1  0  0  0  0
  8  6  1  1  0  0  0
  9  7  1  0  0  0  0
 10  6  1  0  0  0  0
 11  5  1  6  0  0  0
 11  1  1  0  0  0  0
 11  8  1  0  0  0  0
 12 15  2  0  0  0  0
 13 18  1  0  0  0  0
 14 19  2  0  0  0  0
 14 17  1  0  0  0  0
 14 20  1  0  0  0  0
 17 13  1  0  0  0  0
 18 15  1  0  0  0  0
 18 16  1  1  0  0  0
 20 12  1  0  0  0  0
 21 22  1  0  0  0  0
 23 26  1  0  0  0  0
 23 28  2  0  0  0  0
 24 22  2  0  0  0  0
 25 26  1  0  0  0  0
 26 21  2  0  0  0  0
 27 23  1  0  0  0  0
 28 24  1  0  0  0  0
M  END
>  <MODEL>
7

>  <REMARK>
 VINA RESULT:      -8.5      2.823      5.609
  Name = 
  2 active torsions:
  status: ('A' for Active; 'I' for Inactive)
    1  A    between atoms: C_1  and  C_2
    2  A    between atoms: C_10  and  C_13
                            x       y       z     vdW  Elec       q    Type
                         _______ _______ _______ _____ _____    ______ ____

>  <TORSDO>
F 2

$$$$
=
 OpenBabel10262420483D

 28 31  0  0  1  0  0  0  0  0999 V2000
  188.1070  178.5240  139.2880 C   0  0  1  0  0  3  0  0  0  0  0  0
  188.2300  177.0080  134.6300 C   0  0  0  0  0  1  0  0  0  0  0  0
  184.9370  177.2400  137.5930 C   0  0  2  0  0  3  0  0  0  0  0  0
  187.3220  177.4850  135.7470 C   0  0  1  0  0  3  0  0  0  0  0  0
  185.8890  178.2530  138.2220 C   0  0  0  0  0  2  0  0  0  0  0  0
  189.1540  178.5530  137.1200 C   0  0  0  0  0  2  0  0  0  0  0  0
  186.0960  176.5820  135.7940 C   0  0  0  0  0  2  0  0  0  0  0  0
  188.0860  177.4770  137.0810 C   0  0  1  0  0  3  0  0  0  0  0  0
  184.9820  177.3290  136.1950 O   0  0  0  0  0  0  0  0  0  0  0  0
  189.4310  178.7780  138.5890 C   0  0  0  0  0  2  0  0  0  0  0  0
  187.2730  177.6340  138.3800 C   0  0  1  0  0  3  0  0  0  0  0  0
  183.1080  178.7050  138.3340 C   0  0  0  0  0  3  0  0  0  0  0  0
  182.2990  176.0740  139.7850 C   0  0  0  0  0  2  0  0  0  0  0  0
  181.4870  178.4040  140.1660 C   0  0  0  0  0  0  0  0  0  0  0  0
  183.5300  177.4490  138.0880 C   0  0  0  0  0  0  0  0  0  0  0  0
  183.1620  174.9660  137.7370 C   0  0  0  0  0  1  0  0  0  0  0  0
  181.1300  176.9510  140.2210 C   0  0  0  0  0  2  0  0  0  0  0  0
  182.6050  176.2640  138.3030 C   0  0  1  0  0  3  0  0  0  0  0  0
  181.8590  179.0040  141.2350 N   0  0  0  0  0  2  0  0  0  0  0  0
  181.7340  179.0420  138.8350 C   0  0  0  0  0  2  0  0  0  0  0  0
  188.2900  177.9290  140.6530 C   0  0  0  0  0  0  0  0  0  0  0  0
  189.4000  177.1030  140.8650 C   0  0  0  0  0  3  0  0  0  0  0  0
  187.6340  177.6010  142.9740 C   0  0  0  0  0  0  0  0  0  0  0  0
  189.6270  176.5290  142.1170 C   0  0  0  0  0  3  0  0  0  0  0  0
  186.2910  179.0000  141.5410 O   0  0  0  0  0  1  0  0  0  0  0  0
  187.4010  178.1810  141.7200 C   0  0  0  0  0  0  0  0  0  0  0  0
  186.7850  177.8370  144.0040 F   0  0  0  0  0  0  0  0  0  0  0  0
  188.7450  176.7770  143.1700 C   0  0  0  0  0  3  0  0  0  0  0  0
  1 21  1  1  0  0  0
  3 15  1  1  0  0  0
  3  5  1  0  0  0  0
  4  2  1  6  0  0  0
  4  7  1  0  0  0  0
  4  8  1  0  0  0  0
  6 10  1  0  0  0  0
  7  9  1  0  0  0  0
  8  6  1  6  0  0  0
  8 11  1  0  0  0  0
  9  3  1  0  0  0  0
 10  1  1  0  0  0  0
 11  5  1  6  0  0  0
 11  1  1  0  0  0  0
 12 20  1  0  0  0  0
 13 17  1  0  0  0  0
 14 17  1  0  0  0  0
 14 19  2  0  0  0  0
 15 18  1  0  0  0  0
 15 12  2  0  0  0  0
 18 16  1  1  0  0  0
 18 13  1  0  0  0  0
 20 14  1  0  0  0  0
 21 22  2  0  0  0  0
 21 26  1  0  0  0  0
 22 24  1  0  0  0  0
 23 28  1  0  0  0  0
 23 27  1  0  0  0  0
 24 28  2  0  0  0  0
 25 26  1  0  0  0  0
 26 23  2  0  0  0  0
M  END
>  <MODEL>
8

>  <REMARK>
 VINA RESULT:      -8.5      2.974      7.336
  Name = 
  2 active torsions:
  status: ('A' for Active; 'I' for Inactive)
    1  A    between atoms: C_1  and  C_2
    2  A    between atoms: C_10  and  C_13
                            x       y       z     vdW  Elec       q    Type
                         _______ _______ _______ _____ _____    ______ ____

>  <TORSDO>
F 2

$$$$
=
 OpenBabel10262420483D

 28 31  0  0  1  0  0  0  0  0999 V2000
  183.7900  178.2230  139.4230 C   0  0  1  0  0  3  0  0  0  0  0  0
  188.6040  178.5210  138.5590 C   0  0  0  0  0  1  0  0  0  0  0  0
  186.2590  178.4670  142.3240 C   0  0  2  0  0  3  0  0  0  0  0  0
  187.5580  178.1880  139.6060 C   0  0  1  0  0  3  0  0  0  0  0  0
  185.2290  177.8270  141.3990 C   0  0  0  0  0  2  0  0  0  0  0  0
  185.6680  177.8350  137.9680 C   0  0  0  0  0  2  0  0  0  0  0  0
  187.9610  178.8450  140.9200 C   0  0  0  0  0  2  0  0  0  0  0  0
  186.1750  178.6640  139.1330 C   0  0  1  0  0  3  0  0  0  0  0  0
  187.5500  178.0400  141.9890 O   0  0  0  0  0  0  0  0  0  0  0  0
  184.1690  178.0380  137.9660 C   0  0  0  0  0  2  0  0  0  0  0  0
  185.0300  178.6980  140.1630 C   0  0  1  0  0  3  0  0  0  0  0  0
  184.9440  178.7920  144.3750 C   0  0  0  0  0  3  0  0  0  0  0  0
  187.6090  177.7680  145.6120 C   0  0  0  0  0  2  0  0  0  0  0  0
  185.6830  178.9020  146.7240 C   0  0  0  0  0  0  0  0  0  0  0  0
  185.9570  178.1460  143.7640 C   0  0  0  0  0  0  0  0  0  0  0  0
  187.7010  176.3150  143.6000 C   0  0  0  0  0  1  0  0  0  0  0  0
  186.7980  177.9180  146.8950 C   0  0  0  0  0  2  0  0  0  0  0  0
  186.7800  177.1130  144.5120 C   0  0  1  0  0  3  0  0  0  0  0  0
  185.8420  180.1100  147.1180 N   0  0  0  0  0  2  0  0  0  0  0  0
  184.5500  178.5650  145.8060 C   0  0  0  0  0  2  0  0  0  0  0  0
  182.6330  179.1640  139.5940 C   0  0  0  0  0  0  0  0  0  0  0  0
  182.5340  180.2470  138.7140 C   0  0  0  0  0  3  0  0  0  0  0  0
  180.5880  179.8980  140.6910 C   0  0  0  0  0  0  0  0  0  0  0  0
  181.4740  181.1510  138.8190 C   0  0  0  0  0  3  0  0  0  0  0  0
  181.7180  177.9190  141.4780 O   0  0  0  0  0  1  0  0  0  0  0  0
  181.6480  178.9890  140.5910 C   0  0  0  0  0  0  0  0  0  0  0  0
  179.6380  179.7380  141.6450 F   0  0  0  0  0  0  0  0  0  0  0  0
  180.5030  180.9760  139.8070 C   0  0  0  0  0  3  0  0  0  0  0  0
  1 21  1  6  0  0  0
  1 11  1  0  0  0  0
  3 15  1  1  0  0  0
  4  2  1  6  0  0  0
  4  7  1  0  0  0  0
  5  3  1  0  0  0  0
  7  9  1  0  0  0  0
  8  6  1  6  0  0  0
  8  4  1  0  0  0  0
  8 11  1  0  0  0  0
  9  3  1  0  0  0  0
 10  6  1  0  0  0  0
 10  1  1  0  0  0  0
 11  5  1  1  0  0  0
 12 20  1  0  0  0  0
 13 17  1  0  0  0  0
 14 17  1  0  0  0  0
 14 19  2  0  0  0  0
 15 12  2  0  0  0  0
 15 18  1  0  0  0  0
 18 16  1  6  0  0  0
 18 13  1  0  0  0  0
 20 14  1  0  0  0  0
 21 26  1  0  0  0  0
 22 24  1  0  0  0  0
 22 21  2  0  0  0  0
 23 27  1  0  0  0  0
 24 28  2  0  0  0  0
 26 23  2  0  0  0  0
 26 25  1  0  0  0  0
 28 23  1  0  0  0  0
M  END
>  <MODEL>
9

>  <REMARK>
 VINA RESULT:      -8.5      2.914      5.660
  Name = 
  2 active torsions:
  status: ('A' for Active; 'I' for Inactive)
    1  A    between atoms: C_1  and  C_2
    2  A    between atoms: C_10  and  C_13
                            x       y       z     vdW  Elec       q    Type
                         _______ _______ _______ _____ _____    ______ ____

>  <TORSDO>
F 2

$$$$
