=
 OpenBabel10262419563D

 25 28  0  0  1  0  0  0  0  0999 V2000
  186.6920  178.2650  142.9120 C   0  0  0  0  0  0  0  0  0  0  0  0
  186.6600  177.9380  144.2750 C   0  0  0  0  0  0  0  0  0  0  0  0
  184.7940  179.7470  143.1160 C   0  0  0  0  0  3  0  0  0  0  0  0
  187.5170  177.8840  141.8780 C   0  0  0  0  0  0  0  0  0  0  0  0
  188.4700  177.6960  145.8710 C   0  0  0  0  0  0  0  0  0  0  0  0
  188.5420  177.2940  139.3390 C   0  0  0  0  0  2  0  0  0  0  0  0
  184.7280  179.4220  144.4800 C   0  0  0  0  0  3  0  0  0  0  0  0
  187.0500  178.5400  140.7610 C   0  0  0  0  0  0  0  0  0  0  0  0
  187.5360  178.3430  139.5730 N   0  0  0  0  0  0  0  0  0  0  0  0
  185.5000  178.2090  146.5080 C   0  0  0  0  0  0  0  0  0  0  0  0
  184.3340  178.1400  146.9820 O   0  0  0  0  0  0  0  0  0  0  0  0
  189.7650  177.9380  145.6580 C   0  0  0  0  0  3  0  0  0  0  0  0
  187.6360  176.9790  144.8630 C   0  0  0  0  0  2  0  0  0  0  0  0
  189.4020  177.0190  140.5940 C   0  0  0  0  0  2  0  0  0  0  0  0
  185.7940  179.1550  142.3540 C   0  0  0  0  0  0  0  0  0  0  0  0
  185.9970  179.3430  141.0300 N   0  0  0  0  0  2  0  0  0  0  0  0
  186.5770  178.0390  147.3910 O   0  0  0  0  0  0  0  0  0  0  0  0
  188.5870  177.0930  141.8630 C   0  0  0  0  0  3  0  0  0  0  0  0
  187.9090  178.1260  147.0730 O   0  0  0  0  0  0  0  0  0  0  0  0
  185.6560  178.5340  145.0740 C   0  0  0  0  0  0  0  0  0  0  0  0
  191.5260  176.4400  144.7640 C   0  0  0  0  0  1  0  0  0  0  0  0
  190.5030  177.5120  144.4280 C   0  0  2  0  0  3  0  0  0  0  0  0
  191.1680  178.6820  143.7840 C   0  0  0  0  0  0  0  0  0  0  0  0
  191.9810  178.4820  142.6760 O   0  0  0  0  0  0  0  0  0  0  0  0
  191.0000  179.8470  144.2340 O   0  0  0  0  0  1  0  0  0  0  0  0
  1  2  1  0  0  0  0
  2 13  1  0  0  0  0
  2 20  2  0  0  0  0
  3  7  2  0  0  0  0
  4  1  1  0  0  0  0
  5 19  1  0  0  0  0
  6  9  1  0  0  0  0
  6 14  1  0  0  0  0
  7 20  1  0  0  0  0
  8 16  1  0  0  0  0
  8  4  1  0  0  0  0
  9  8  2  0  0  0  0
 10 11  2  0  0  0  0
 10 17  1  0  0  0  0
 12  5  2  0  0  0  0
 13  5  1  0  0  0  0
 14 18  1  0  0  0  0
 15  1  2  0  0  0  0
 15  3  1  0  0  0  0
 16 15  1  0  0  0  0
 18  4  2  0  0  0  0
 19 17  1  0  0  0  0
 20 10  1  0  0  0  0
 22 21  1  1  0  0  0
 22 12  1  0  0  0  0
 23 25  1  0  0  0  0
 23 22  1  0  0  0  0
 24 23  2  0  0  0  0
M  END
>  <MODEL>
1

>  <REMARK>
 VINA RESULT:      -9.6      0.000      0.000
  Name = 
  2 active torsions:
  status: ('A' for Active; 'I' for Inactive)
    1  A    between atoms: C_2  and  C_25
    2  A    between atoms: C_15  and  C_25
                            x       y       z     vdW  Elec       q    Type
                         _______ _______ _______ _____ _____    ______ ____

>  <TORSDO>
F 2

$$$$
=
 OpenBabel10262419563D

 25 28  0  0  1  0  0  0  0  0999 V2000
  187.2220  177.8890  142.7740 C   0  0  0  0  0  0  0  0  0  0  0  0
  186.0800  178.4650  143.3480 C   0  0  0  0  0  0  0  0  0  0  0  0
  187.8570  176.8270  144.8500 C   0  0  0  0  0  3  0  0  0  0  0  0
  187.7460  177.9200  141.5020 C   0  0  0  0  0  0  0  0  0  0  0  0
  183.8270  178.6810  142.4760 C   0  0  0  0  0  0  0  0  0  0  0  0
  189.4960  177.8360  139.3160 C   0  0  0  0  0  2  0  0  0  0  0  0
  186.7300  177.4070  145.4540 C   0  0  0  0  0  3  0  0  0  0  0  0
  188.8930  177.1590  141.5470 C   0  0  0  0  0  0  0  0  0  0  0  0
  189.7030  177.0420  140.5380 N   0  0  0  0  0  0  0  0  0  0  0  0
  184.6870  178.8240  145.4310 C   0  0  0  0  0  0  0  0  0  0  0  0
  184.8520  179.1830  146.6280 O   0  0  0  0  0  0  0  0  0  0  0  0
  183.3590  178.1800  141.3310 C   0  0  0  0  0  3  0  0  0  0  0  0
  185.1670  179.3320  142.5510 C   0  0  0  0  0  2  0  0  0  0  0  0
  188.0070  178.1860  139.0910 C   0  0  0  0  0  2  0  0  0  0  0  0
  188.0760  177.0820  143.5020 C   0  0  0  0  0  0  0  0  0  0  0  0
  189.1110  176.6170  142.7660 N   0  0  0  0  0  2  0  0  0  0  0  0
  183.4070  178.9650  144.8740 O   0  0  0  0  0  0  0  0  0  0  0  0
  187.2980  178.4950  140.3880 C   0  0  0  0  0  3  0  0  0  0  0  0
  183.0240  178.5880  143.6120 O   0  0  0  0  0  0  0  0  0  0  0  0
  185.8310  178.2150  144.7170 C   0  0  0  0  0  0  0  0  0  0  0  0
  183.8600  179.5620  139.3350 C   0  0  0  0  0  1  0  0  0  0  0  0
  184.1000  178.2340  140.0310 C   0  0  2  0  0  3  0  0  0  0  0  0
  183.6910  177.1020  139.1490 C   0  0  0  0  0  0  0  0  0  0  0  0
  184.2900  176.9550  137.9050 O   0  0  0  0  0  0  0  0  0  0  0  0
  182.8110  176.2810  139.5200 O   0  0  0  0  0  1  0  0  0  0  0  0
  1  2  2  0  0  0  0
  1 15  1  0  0  0  0
  2 20  1  0  0  0  0
  3  7  1  0  0  0  0
  4  8  1  0  0  0  0
  4  1  1  0  0  0  0
  5 13  1  0  0  0  0
  5 19  1  0  0  0  0
  6  9  1  0  0  0  0
  8 16  1  0  0  0  0
  9  8  2  0  0  0  0
 10 11  2  0  0  0  0
 12  5  2  0  0  0  0
 13  2  1  0  0  0  0
 14  6  1  0  0  0  0
 14 18  1  0  0  0  0
 15  3  2  0  0  0  0
 16 15  1  0  0  0  0
 17 10  1  0  0  0  0
 18  4  2  0  0  0  0
 19 17  1  0  0  0  0
 20 10  1  0  0  0  0
 20  7  2  0  0  0  0
 22 21  1  6  0  0  0
 22 12  1  0  0  0  0
 23 25  1  0  0  0  0
 23 22  1  0  0  0  0
 24 23  2  0  0  0  0
M  END
>  <MODEL>
2

>  <REMARK>
 VINA RESULT:      -8.6      3.141      5.222
  Name = 
  2 active torsions:
  status: ('A' for Active; 'I' for Inactive)
    1  A    between atoms: C_2  and  C_25
    2  A    between atoms: C_15  and  C_25
                            x       y       z     vdW  Elec       q    Type
                         _______ _______ _______ _____ _____    ______ ____

>  <TORSDO>
F 2

$$$$
=
 OpenBabel10262419563D

 25 28  0  0  1  0  0  0  0  0999 V2000
  187.4030  177.9650  146.0950 C   0  0  0  0  0  0  0  0  0  0  0  0
  188.6420  177.3620  145.8370 C   0  0  0  0  0  0  0  0  0  0  0  0
  188.0720  178.6270  148.3210 C   0  0  0  0  0  3  0  0  0  0  0  0
  186.2640  178.1220  145.3390 C   0  0  0  0  0  0  0  0  0  0  0  0
  190.0260  177.4150  143.8470 C   0  0  0  0  0  0  0  0  0  0  0  0
  183.6050  178.4820  144.5310 C   0  0  0  0  0  2  0  0  0  0  0  0
  189.3140  178.0140  148.0950 C   0  0  0  0  0  3  0  0  0  0  0  0
  185.3720  178.8030  146.1360 C   0  0  0  0  0  0  0  0  0  0  0  0
  184.1470  179.0460  145.7780 N   0  0  0  0  0  0  0  0  0  0  0  0
  190.9310  176.7310  146.7110 C   0  0  0  0  0  0  0  0  0  0  0  0
  191.4360  176.1660  147.7190 O   0  0  0  0  0  0  0  0  0  0  0  0
  189.8100  178.1250  142.7380 C   0  0  0  0  0  3  0  0  0  0  0  0
  188.9190  176.6910  144.5360 C   0  0  0  0  0  2  0  0  0  0  0  0
  184.7040  178.2530  143.4670 C   0  0  0  0  0  2  0  0  0  0  0  0
  187.1330  178.5920  147.2960 C   0  0  0  0  0  0  0  0  0  0  0  0
  185.8890  179.1200  147.3440 N   0  0  0  0  0  2  0  0  0  0  0  0
  191.6840  176.7530  145.5260 O   0  0  0  0  0  0  0  0  0  0  0  0
  185.9940  177.7680  144.0840 C   0  0  0  0  0  3  0  0  0  0  0  0
  191.3270  177.3560  144.3480 O   0  0  0  0  0  0  0  0  0  0  0  0
  189.6170  177.3910  146.8610 C   0  0  0  0  0  0  0  0  0  0  0  0
  187.6500  176.9950  142.2890 C   0  0  0  0  0  1  0  0  0  0  0  0
  188.4740  178.2530  142.0750 C   0  0  2  0  0  3  0  0  0  0  0  0
  188.6370  178.5260  140.6170 C   0  0  0  0  0  0  0  0  0  0  0  0
  189.8520  178.2520  140.0020 O   0  0  0  0  0  1  0  0  0  0  0  0
  187.6870  179.0030  139.9400 O   0  0  0  0  0  0  0  0  0  0  0  0
  1 15  1  0  0  0  0
  2  1  2  0  0  0  0
  2 20  1  0  0  0  0
  4  1  1  0  0  0  0
  4  8  1  0  0  0  0
  5 19  1  0  0  0  0
  5 13  1  0  0  0  0
  6  9  1  0  0  0  0
  7  3  1  0  0  0  0
  8 16  1  0  0  0  0
  9  8  2  0  0  0  0
 10 20  1  0  0  0  0
 10 11  2  0  0  0  0
 12  5  2  0  0  0  0
 13  2  1  0  0  0  0
 14 18  1  0  0  0  0
 14  6  1  0  0  0  0
 15 16  1  0  0  0  0
 15  3  2  0  0  0  0
 17 10  1  0  0  0  0
 18  4  2  0  0  0  0
 19 17  1  0  0  0  0
 20  7  2  0  0  0  0
 22 21  1  6  0  0  0
 22 12  1  0  0  0  0
 23 22  1  0  0  0  0
 24 23  1  0  0  0  0
 25 23  2  0  0  0  0
M  END
>  <MODEL>
3

>  <REMARK>
 VINA RESULT:      -8.0      2.962      4.965
  Name = 
  2 active torsions:
  status: ('A' for Active; 'I' for Inactive)
    1  A    between atoms: C_2  and  C_25
    2  A    between atoms: C_15  and  C_25
                            x       y       z     vdW  Elec       q    Type
                         _______ _______ _______ _____ _____    ______ ____

>  <TORSDO>
F 2

$$$$
=
 OpenBabel10262419563D

 25 28  0  0  1  0  0  0  0  0999 V2000
  187.0140  177.8740  143.2270 C   0  0  0  0  0  0  0  0  0  0  0  0
  185.9910  177.9110  144.1850 C   0  0  0  0  0  0  0  0  0  0  0  0
  185.8230  179.3690  141.7470 C   0  0  0  0  0  3  0  0  0  0  0  0
  188.2320  177.2340  143.1830 C   0  0  0  0  0  0  0  0  0  0  0  0
  186.1130  178.0790  146.6010 C   0  0  0  0  0  0  0  0  0  0  0  0
  190.5880  176.0030  142.3000 C   0  0  0  0  0  2  0  0  0  0  0  0
  184.7760  179.4080  142.6810 C   0  0  0  0  0  3  0  0  0  0  0  0
  188.7980  177.5820  141.9780 C   0  0  0  0  0  0  0  0  0  0  0  0
  189.9200  177.0820  141.5540 N   0  0  0  0  0  0  0  0  0  0  0  0
  183.6910  178.7560  144.8200 C   0  0  0  0  0  0  0  0  0  0  0  0
  182.5360  178.8180  144.3220 O   0  0  0  0  0  0  0  0  0  0  0  0
  187.2120  178.2510  147.3390 C   0  0  0  0  0  3  0  0  0  0  0  0
  186.0890  177.1310  145.4500 C   0  0  0  0  0  2  0  0  0  0  0  0
  190.2730  176.0570  143.8130 C   0  0  0  0  0  2  0  0  0  0  0  0
  186.9370  178.5940  142.0500 C   0  0  0  0  0  0  0  0  0  0  0  0
  188.0270  178.4330  141.2660 N   0  0  0  0  0  2  0  0  0  0  0  0
  183.8050  178.8130  146.2180 O   0  0  0  0  0  0  0  0  0  0  0  0
  188.8420  176.4600  144.0780 C   0  0  0  0  0  3  0  0  0  0  0  0
  184.9720  178.8080  146.9390 O   0  0  0  0  0  0  0  0  0  0  0  0
  184.8500  178.6980  143.9040 C   0  0  0  0  0  0  0  0  0  0  0  0
  188.3120  176.0290  147.3580 C   0  0  0  0  0  1  0  0  0  0  0  0
  188.4950  177.5170  147.1090 C   0  0  2  0  0  3  0  0  0  0  0  0
  189.5740  178.0620  147.9840 C   0  0  0  0  0  0  0  0  0  0  0  0
  190.8520  177.5230  147.9080 O   0  0  0  0  0  0  0  0  0  0  0  0
  189.3380  179.0030  148.7870 O   0  0  0  0  0  1  0  0  0  0  0  0
  1  2  1  0  0  0  0
  2 13  1  0  0  0  0
  3 15  1  0  0  0  0
  3  7  2  0  0  0  0
  4  1  1  0  0  0  0
  4 18  2  0  0  0  0
  5 19  1  0  0  0  0
  5 12  2  0  0  0  0
  6 14  1  0  0  0  0
  7 20  1  0  0  0  0
  8  4  1  0  0  0  0
  9  8  2  0  0  0  0
  9  6  1  0  0  0  0
 10 17  1  0  0  0  0
 11 10  2  0  0  0  0
 13  5  1  0  0  0  0
 14 18  1  0  0  0  0
 15  1  2  0  0  0  0
 16  8  1  0  0  0  0
 16 15  1  0  0  0  0
 17 19  1  0  0  0  0
 20  2  2  0  0  0  0
 20 10  1  0  0  0  0
 22 12  1  0  0  0  0
 22 21  1  1  0  0  0
 22 23  1  0  0  0  0
 23 25  1  0  0  0  0
 24 23  2  0  0  0  0
M  END
>  <MODEL>
4

>  <REMARK>
 VINA RESULT:      -7.9      2.039      2.996
  Name = 
  2 active torsions:
  status: ('A' for Active; 'I' for Inactive)
    1  A    between atoms: C_2  and  C_25
    2  A    between atoms: C_15  and  C_25
                            x       y       z     vdW  Elec       q    Type
                         _______ _______ _______ _____ _____    ______ ____

>  <TORSDO>
F 2

$$$$
=
 OpenBabel10262419563D

 25 28  0  0  1  0  0  0  0  0999 V2000
  186.9330  178.2210  143.7760 C   0  0  0  0  0  0  0  0  0  0  0  0
  187.0090  178.5730  142.4210 C   0  0  0  0  0  0  0  0  0  0  0  0
  184.5420  177.8900  143.6640 C   0  0  0  0  0  3  0  0  0  0  0  0
  187.8830  178.1010  144.7640 C   0  0  0  0  0  0  0  0  0  0  0  0
  188.6260  177.9440  140.7260 C   0  0  0  0  0  0  0  0  0  0  0  0
  189.1770  178.0020  147.2470 C   0  0  0  0  0  2  0  0  0  0  0  0
  184.5870  178.2570  142.3100 C   0  0  0  0  0  3  0  0  0  0  0  0
  187.2010  177.7210  145.8990 C   0  0  0  0  0  0  0  0  0  0  0  0
  187.7720  177.6040  147.0600 N   0  0  0  0  0  0  0  0  0  0  0  0
  185.7700  179.0030  140.2550 C   0  0  0  0  0  0  0  0  0  0  0  0
  184.7750  179.6620  139.8500 O   0  0  0  0  0  0  0  0  0  0  0  0
  189.6350  177.0820  140.8610 C   0  0  0  0  0  3  0  0  0  0  0  0
  188.3060  178.9410  141.7890 C   0  0  0  0  0  2  0  0  0  0  0  0
  190.0030  177.8620  145.9480 C   0  0  0  0  0  2  0  0  0  0  0  0
  185.7370  177.8760  144.3740 C   0  0  0  0  0  0  0  0  0  0  0  0
  185.8780  177.5590  145.6820 N   0  0  0  0  0  2  0  0  0  0  0  0
  186.7490  178.6480  139.3140 O   0  0  0  0  0  0  0  0  0  0  0  0
  189.2050  178.2530  144.7270 C   0  0  0  0  0  3  0  0  0  0  0  0
  187.8720  177.8980  139.5530 O   0  0  0  0  0  0  0  0  0  0  0  0
  185.8070  178.5880  141.6740 C   0  0  0  0  0  0  0  0  0  0  0  0
  191.9950  177.1140  141.6180 C   0  0  0  0  0  1  0  0  0  0  0  0
  190.5410  177.0360  142.0510 C   0  0  2  0  0  3  0  0  0  0  0  0
  190.3000  175.7960  142.8450 C   0  0  0  0  0  0  0  0  0  0  0  0
  191.3360  175.2520  143.5930 O   0  0  0  0  0  1  0  0  0  0  0  0
  189.1700  175.2380  142.8440 O   0  0  0  0  0  0  0  0  0  0  0  0
  1 15  1  0  0  0  0
  1  4  1  0  0  0  0
  2  1  2  0  0  0  0
  3 15  2  0  0  0  0
  4  8  1  0  0  0  0
  5 12  2  0  0  0  0
  5 13  1  0  0  0  0
  7  3  1  0  0  0  0
  8  9  2  0  0  0  0
  9  6  1  0  0  0  0
 10 20  1  0  0  0  0
 11 10  2  0  0  0  0
 12 22  1  0  0  0  0
 13  2  1  0  0  0  0
 14  6  1  0  0  0  0
 15 16  1  0  0  0  0
 16  8  1  0  0  0  0
 17 19  1  0  0  0  0
 17 10  1  0  0  0  0
 18  4  2  0  0  0  0
 18 14  1  0  0  0  0
 19  5  1  0  0  0  0
 20  7  2  0  0  0  0
 20  2  1  0  0  0  0
 22 21  1  6  0  0  0
 22 23  1  0  0  0  0
 23 24  1  0  0  0  0
 25 23  2  0  0  0  0
M  END
>  <MODEL>
5

>  <REMARK>
 VINA RESULT:      -7.7      3.183      4.884
  Name = 
  2 active torsions:
  status: ('A' for Active; 'I' for Inactive)
    1  A    between atoms: C_2  and  C_25
    2  A    between atoms: C_15  and  C_25
                            x       y       z     vdW  Elec       q    Type
                         _______ _______ _______ _____ _____    ______ ____

>  <TORSDO>
F 2

$$$$
=
 OpenBabel10262419563D

 25 28  0  0  1  0  0  0  0  0999 V2000
  190.1600  177.1380  143.5990 C   0  0  0  0  0  0  0  0  0  0  0  0
  190.1420  177.4220  144.9710 C   0  0  0  0  0  0  0  0  0  0  0  0
  191.7870  175.3730  143.8790 C   0  0  0  0  0  3  0  0  0  0  0  0
  189.4810  177.6680  142.5250 C   0  0  0  0  0  0  0  0  0  0  0  0
  188.2800  177.9060  146.4470 C   0  0  0  0  0  0  0  0  0  0  0  0
  188.7460  178.4710  139.9440 C   0  0  0  0  0  2  0  0  0  0  0  0
  191.8030  175.6510  145.2550 C   0  0  0  0  0  3  0  0  0  0  0  0
  189.9210  176.9740  141.4200 C   0  0  0  0  0  0  0  0  0  0  0  0
  189.5590  177.2730  140.2090 N   0  0  0  0  0  0  0  0  0  0  0  0
  191.0820  176.9200  147.2670 C   0  0  0  0  0  0  0  0  0  0  0  0
  192.2060  176.7950  147.8220 O   0  0  0  0  0  0  0  0  0  0  0  0
  186.9820  177.8740  146.1380 C   0  0  0  0  0  3  0  0  0  0  0  0
  189.2850  178.5080  145.5250 C   0  0  0  0  0  2  0  0  0  0  0  0
  187.8500  178.8470  141.1470 C   0  0  0  0  0  2  0  0  0  0  0  0
  190.9480  176.1320  143.0720 C   0  0  0  0  0  0  0  0  0  0  0  0
  190.8150  176.0100  141.7320 N   0  0  0  0  0  2  0  0  0  0  0  0
  189.9820  177.2350  148.0800 O   0  0  0  0  0  0  0  0  0  0  0  0
  188.5490  178.6160  142.4650 C   0  0  0  0  0  3  0  0  0  0  0  0
  188.6790  177.3650  147.6700 O   0  0  0  0  0  0  0  0  0  0  0  0
  190.9820  176.6590  145.8150 C   0  0  0  0  0  0  0  0  0  0  0  0
  185.1580  179.2470  145.1740 C   0  0  0  0  0  1  0  0  0  0  0  0
  186.4100  178.4400  144.8770 C   0  0  2  0  0  3  0  0  0  0  0  0
  186.1080  177.3500  143.9040 C   0  0  0  0  0  0  0  0  0  0  0  0
  185.1370  177.5520  142.9310 O   0  0  0  0  0  0  0  0  0  0  0  0
  186.7220  176.2510  143.9550 O   0  0  0  0  0  1  0  0  0  0  0  0
  1  2  1  0  0  0  0
  2 13  1  0  0  0  0
  2 20  2  0  0  0  0
  3  7  2  0  0  0  0
  4  1  1  0  0  0  0
  5 19  1  0  0  0  0
  6  9  1  0  0  0  0
  6 14  1  0  0  0  0
  7 20  1  0  0  0  0
  8 16  1  0  0  0  0
  8  4  1  0  0  0  0
  9  8  2  0  0  0  0
 10 11  2  0  0  0  0
 10 17  1  0  0  0  0
 12  5  2  0  0  0  0
 13  5  1  0  0  0  0
 14 18  1  0  0  0  0
 15  1  2  0  0  0  0
 15  3  1  0  0  0  0
 16 15  1  0  0  0  0
 18  4  2  0  0  0  0
 19 17  1  0  0  0  0
 20 10  1  0  0  0  0
 22 21  1  1  0  0  0
 22 12  1  0  0  0  0
 23 25  1  0  0  0  0
 23 22  1  0  0  0  0
 24 23  2  0  0  0  0
M  END
>  <MODEL>
6

>  <REMARK>
 VINA RESULT:      -7.5      2.294      4.875
  Name = 
  2 active torsions:
  status: ('A' for Active; 'I' for Inactive)
    1  A    between atoms: C_2  and  C_25
    2  A    between atoms: C_15  and  C_25
                            x       y       z     vdW  Elec       q    Type
                         _______ _______ _______ _____ _____    ______ ____

>  <TORSDO>
F 2

$$$$
=
 OpenBabel10262419563D

 25 28  0  0  1  0  0  0  0  0999 V2000
  187.4950  178.0140  144.4760 C   0  0  0  0  0  0  0  0  0  0  0  0
  188.1860  178.0590  143.2580 C   0  0  0  0  0  0  0  0  0  0  0  0
  185.3490  177.8790  143.3730 C   0  0  0  0  0  3  0  0  0  0  0  0
  187.9110  178.0250  145.7880 C   0  0  0  0  0  0  0  0  0  0  0  0
  190.2260  176.9410  142.5720 C   0  0  0  0  0  0  0  0  0  0  0  0
  188.0170  178.3490  148.5690 C   0  0  0  0  0  2  0  0  0  0  0  0
  186.0150  177.9410  142.1390 C   0  0  0  0  0  3  0  0  0  0  0  0
  186.7650  177.9600  146.5490 C   0  0  0  0  0  0  0  0  0  0  0  0
  186.7710  178.0450  147.8450 N   0  0  0  0  0  0  0  0  0  0  0  0
  188.0560  178.1210  140.7310 C   0  0  0  0  0  0  0  0  0  0  0  0
  187.4500  178.7620  139.8310 O   0  0  0  0  0  0  0  0  0  0  0  0
  190.9220  176.0410  143.2710 C   0  0  0  0  0  3  0  0  0  0  0  0
  189.6720  178.1670  143.2150 C   0  0  0  0  0  2  0  0  0  0  0  0
  189.2700  177.8600  147.8070 C   0  0  0  0  0  2  0  0  0  0  0  0
  186.1180  177.9120  144.5300 C   0  0  0  0  0  0  0  0  0  0  0  0
  185.6450  177.8730  145.7970 N   0  0  0  0  0  2  0  0  0  0  0  0
  189.2600  177.4880  140.3860 O   0  0  0  0  0  0  0  0  0  0  0  0
  189.1330  178.0490  146.3150 C   0  0  0  0  0  3  0  0  0  0  0  0
  190.0330  176.7100  141.2090 O   0  0  0  0  0  0  0  0  0  0  0  0
  187.4270  178.0190  142.0650 C   0  0  0  0  0  0  0  0  0  0  0  0
  191.9190  177.4960  145.0130 C   0  0  0  0  0  1  0  0  0  0  0  0
  191.2280  176.1730  144.7300 C   0  0  2  0  0  3  0  0  0  0  0  0
  192.0750  175.0340  145.1910 C   0  0  0  0  0  0  0  0  0  0  0  0
  192.4680  174.9710  146.5220 O   0  0  0  0  0  1  0  0  0  0  0  0
  192.4350  174.1320  144.3890 O   0  0  0  0  0  0  0  0  0  0  0  0
  1 15  1  0  0  0  0
  1  4  1  0  0  0  0
  2  1  2  0  0  0  0
  3 15  2  0  0  0  0
  4 18  2  0  0  0  0
  4  8  1  0  0  0  0
  5 13  1  0  0  0  0
  5 12  2  0  0  0  0
  7  3  1  0  0  0  0
  8  9  2  0  0  0  0
  9  6  1  0  0  0  0
 10 20  1  0  0  0  0
 11 10  2  0  0  0  0
 12 22  1  0  0  0  0
 13  2  1  0  0  0  0
 14  6  1  0  0  0  0
 15 16  1  0  0  0  0
 16  8  1  0  0  0  0
 17 10  1  0  0  0  0
 17 19  1  0  0  0  0
 18 14  1  0  0  0  0
 19  5  1  0  0  0  0
 20  7  2  0  0  0  0
 20  2  1  0  0  0  0
 22 21  1  6  0  0  0
 22 23  1  0  0  0  0
 23 24  1  0  0  0  0
 25 23  2  0  0  0  0
M  END
>  <MODEL>
7

>  <REMARK>
 VINA RESULT:      -7.4      3.252      5.124
  Name = 
  2 active torsions:
  status: ('A' for Active; 'I' for Inactive)
    1  A    between atoms: C_2  and  C_25
    2  A    between atoms: C_15  and  C_25
                            x       y       z     vdW  Elec       q    Type
                         _______ _______ _______ _____ _____    ______ ____

>  <TORSDO>
F 2

$$$$
=
 OpenBabel10262419563D

 25 28  0  0  1  0  0  0  0  0999 V2000
  185.9460  178.1500  144.7100 C   0  0  0  0  0  0  0  0  0  0  0  0
  187.1380  177.5160  145.0850 C   0  0  0  0  0  0  0  0  0  0  0  0
  185.7370  179.2550  146.8490 C   0  0  0  0  0  3  0  0  0  0  0  0
  185.2080  178.1420  143.5480 C   0  0  0  0  0  0  0  0  0  0  0  0
  189.1910  177.1750  143.8400 C   0  0  0  0  0  0  0  0  0  0  0  0
  183.1120  178.3090  141.6960 C   0  0  0  0  0  2  0  0  0  0  0  0
  186.9200  178.6180  147.2570 C   0  0  0  0  0  3  0  0  0  0  0  0
  184.1280  178.9640  143.7800 C   0  0  0  0  0  0  0  0  0  0  0  0
  183.1620  179.1190  142.9250 N   0  0  0  0  0  0  0  0  0  0  0  0
  188.8500  177.0940  146.9010 C   0  0  0  0  0  0  0  0  0  0  0  0
  188.8770  176.7490  148.1130 O   0  0  0  0  0  0  0  0  0  0  0  0
  189.4790  177.6440  142.6240 C   0  0  0  0  0  3  0  0  0  0  0  0
  187.8520  176.5980  144.1550 C   0  0  0  0  0  2  0  0  0  0  0  0
  184.5190  177.8780  141.2230 C   0  0  0  0  0  2  0  0  0  0  0  0
  185.2750  179.0060  145.5620 C   0  0  0  0  0  0  0  0  0  0  0  0
  184.1530  179.5230  145.0100 N   0  0  0  0  0  2  0  0  0  0  0  0
  190.0060  176.8810  146.1330 O   0  0  0  0  0  0  0  0  0  0  0  0
  185.4260  177.5380  142.3810 C   0  0  0  0  0  3  0  0  0  0  0  0
  190.1830  177.2290  144.8190 O   0  0  0  0  0  0  0  0  0  0  0  0
  187.6340  177.7600  146.3870 C   0  0  0  0  0  0  0  0  0  0  0  0
  189.0550  176.7490  140.3520 C   0  0  0  0  0  1  0  0  0  0  0  0
  188.5220  177.6240  141.4730 C   0  0  2  0  0  3  0  0  0  0  0  0
  188.2700  179.0090  140.9780 C   0  0  0  0  0  0  0  0  0  0  0  0
  188.6810  179.3630  139.6990 O   0  0  0  0  0  0  0  0  0  0  0  0
  187.6900  179.8580  141.7060 O   0  0  0  0  0  1  0  0  0  0  0  0
  1  2  2  0  0  0  0
  1 15  1  0  0  0  0
  2 20  1  0  0  0  0
  3  7  1  0  0  0  0
  4  8  1  0  0  0  0
  4  1  1  0  0  0  0
  5 13  1  0  0  0  0
  5 19  1  0  0  0  0
  6  9  1  0  0  0  0
  8 16  1  0  0  0  0
  9  8  2  0  0  0  0
 10 11  2  0  0  0  0
 12  5  2  0  0  0  0
 13  2  1  0  0  0  0
 14  6  1  0  0  0  0
 14 18  1  0  0  0  0
 15  3  2  0  0  0  0
 16 15  1  0  0  0  0
 17 10  1  0  0  0  0
 18  4  2  0  0  0  0
 19 17  1  0  0  0  0
 20 10  1  0  0  0  0
 20  7  2  0  0  0  0
 22 21  1  6  0  0  0
 22 12  1  0  0  0  0
 23 22  1  0  0  0  0
 23 25  1  0  0  0  0
 24 23  2  0  0  0  0
M  END
>  <MODEL>
8

>  <REMARK>
 VINA RESULT:      -6.8      2.276      3.834
  Name = 
  2 active torsions:
  status: ('A' for Active; 'I' for Inactive)
    1  A    between atoms: C_2  and  C_25
    2  A    between atoms: C_15  and  C_25
                            x       y       z     vdW  Elec       q    Type
                         _______ _______ _______ _____ _____    ______ ____

>  <TORSDO>
F 2

$$$$
=
 OpenBabel10262419563D

 25 28  0  0  1  0  0  0  0  0999 V2000
  187.6330  178.0060  145.5730 C   0  0  0  0  0  0  0  0  0  0  0  0
  186.9420  178.6000  144.5080 C   0  0  0  0  0  0  0  0  0  0  0  0
  185.6120  177.7370  146.8710 C   0  0  0  0  0  3  0  0  0  0  0  0
  188.9590  177.6910  145.7680 C   0  0  0  0  0  0  0  0  0  0  0  0
  187.1670  178.2700  142.1160 C   0  0  0  0  0  0  0  0  0  0  0  0
  191.4390  177.1180  146.9390 C   0  0  0  0  0  2  0  0  0  0  0  0
  184.8990  178.3470  145.8270 C   0  0  0  0  0  3  0  0  0  0  0  0
  189.0320  177.1200  147.0190 C   0  0  0  0  0  0  0  0  0  0  0  0
  190.1550  176.7820  147.5770 N   0  0  0  0  0  0  0  0  0  0  0  0
  184.7330  179.4390  143.6010 C   0  0  0  0  0  0  0  0  0  0  0  0
  183.7790  180.1770  143.9680 O   0  0  0  0  0  0  0  0  0  0  0  0
  187.9490  177.3810  141.4990 C   0  0  0  0  0  3  0  0  0  0  0  0
  187.6560  179.0590  143.2840 C   0  0  0  0  0  2  0  0  0  0  0  0
  191.3210  177.2070  145.4000 C   0  0  0  0  0  2  0  0  0  0  0  0
  186.9830  177.5750  146.7140 C   0  0  0  0  0  0  0  0  0  0  0  0
  187.8240  177.0210  147.6180 N   0  0  0  0  0  2  0  0  0  0  0  0
  184.9220  179.2500  142.2230 O   0  0  0  0  0  0  0  0  0  0  0  0
  190.0140  177.8280  144.9680 C   0  0  0  0  0  3  0  0  0  0  0  0
  185.8700  178.4510  141.6350 O   0  0  0  0  0  0  0  0  0  0  0  0
  185.5440  178.7700  144.6410 C   0  0  0  0  0  0  0  0  0  0  0  0
  190.2590  177.0560  140.6610 C   0  0  0  0  0  1  0  0  0  0  0  0
  189.3670  177.1040  141.8890 C   0  0  2  0  0  3  0  0  0  0  0  0
  189.4590  175.8240  142.6500 C   0  0  0  0  0  0  0  0  0  0  0  0
  188.3210  175.3020  143.2520 O   0  0  0  0  0  1  0  0  0  0  0  0
  190.5560  175.2120  142.7520 O   0  0  0  0  0  0  0  0  0  0  0  0
  1  4  1  0  0  0  0
  1 15  1  0  0  0  0
  2 20  1  0  0  0  0
  2  1  2  0  0  0  0
  4  8  1  0  0  0  0
  5 13  1  0  0  0  0
  6  9  1  0  0  0  0
  7  3  1  0  0  0  0
  8  9  2  0  0  0  0
  8 16  1  0  0  0  0
 10 11  2  0  0  0  0
 10 20  1  0  0  0  0
 12 22  1  0  0  0  0
 12  5  2  0  0  0  0
 13  2  1  0  0  0  0
 14  6  1  0  0  0  0
 15  3  2  0  0  0  0
 15 16  1  0  0  0  0
 17 10  1  0  0  0  0
 18 14  1  0  0  0  0
 18  4  2  0  0  0  0
 19  5  1  0  0  0  0
 19 17  1  0  0  0  0
 20  7  2  0  0  0  0
 22 21  1  6  0  0  0
 22 23  1  0  0  0  0
 23 25  2  0  0  0  0
 23 24  1  0  0  0  0
M  END
>  <MODEL>
9

>  <REMARK>
 VINA RESULT:      -6.8      3.130      4.759
  Name = 
  2 active torsions:
  status: ('A' for Active; 'I' for Inactive)
    1  A    between atoms: C_2  and  C_25
    2  A    between atoms: C_15  and  C_25
                            x       y       z     vdW  Elec       q    Type
                         _______ _______ _______ _____ _____    ______ ____

>  <TORSDO>
F 2

$$$$
