=
 OpenBabel10252415043D

 34 39  0  0  1  0  0  0  0  0999 V2000
  188.3020  178.3490  139.2050 C   0  0  2  0  0  3  0  0  0  0  0  0
  186.5740  178.2610  137.3710 C   0  0  0  0  0  0  0  0  0  0  0  0
  185.8870  178.5500  139.9410 C   0  0  2  0  0  3  0  0  0  0  0  0
  183.5790  178.6400  140.9370 N   0  0  0  0  0  0  0  0  0  0  0  0
  189.0670  178.8360  136.9760 C   0  0  0  0  0  2  0  0  0  0  0  0
  187.6620  178.6770  136.4000 C   0  0  0  0  0  2  0  0  0  0  0  0
  183.8210  178.3250  138.5130 C   0  0  0  0  0  0  0  0  0  0  0  0
  186.8550  177.9400  138.8580 C   0  0  2  0  0  3  0  0  0  0  0  0
  184.1780  177.4420  137.3700 C   0  0  1  0  0  3  0  0  0  0  0  0
  182.2520  178.0370  140.8850 C   0  0  0  0  0  1  0  0  0  0  0  0
  189.2910  177.9130  138.1520 C   0  0  0  0  0  2  0  0  0  0  0  0
  186.4050  178.1990  141.3630 C   0  0  2  0  0  3  0  0  0  0  0  0
  188.7230  177.8830  140.5780 C   0  0  0  0  0  2  0  0  0  0  0  0
  185.4200  177.9840  136.7470 C   0  0  0  0  0  3  0  0  0  0  0  0
  184.0980  178.2490  142.2400 C   0  0  0  0  0  2  0  0  0  0  0  0
  185.5010  178.7890  142.4460 C   0  0  1  0  0  3  0  0  0  0  0  0
  183.1530  179.3300  138.3110 O   0  0  0  0  0  0  0  0  0  0  0  0
  184.4150  178.0540  139.8660 C   0  0  1  0  0  3  0  0  0  0  0  0
  187.8560  178.6150  141.5750 C   0  0  0  0  0  2  0  0  0  0  0  0
  184.3200  175.9590  137.7590 C   0  0  1  0  0  3  0  0  0  0  0  0
  181.0440  175.0730  136.6550 C   0  0  0  0  0  1  0  0  0  0  0  0
  183.0500  175.3450  137.9300 O   0  0  0  0  0  0  0  0  0  0  0  0
  182.5520  174.9270  136.6790 C   0  0  1  0  0  3  0  0  0  0  0  0
  184.0760  172.9670  137.2840 C   0  0  0  0  0  2  0  0  0  0  0  0
  185.4050  173.7110  137.0940 C   0  0  0  0  0  2  0  0  0  0  0  0
  185.2740  175.2090  136.7990 C   0  0  0  0  0  2  0  0  0  0  0  0
  182.9360  173.4700  136.3900 C   0  0  0  0  0  2  0  0  0  0  0  0
  185.9200  178.8000  146.2360 C   0  0  0  0  0  0  0  0  0  0  0  0
  186.8660  177.7840  146.4020 C   0  0  0  0  0  3  0  0  0  0  0  0
  185.9670  178.4510  143.8340 C   0  0  0  0  0  0  0  0  0  0  0  0
  187.3630  177.1040  145.2870 C   0  0  0  0  0  3  0  0  0  0  0  0
  185.4710  179.1340  144.9550 C   0  0  0  0  0  3  0  0  0  0  0  0
  186.9150  177.4370  144.0060 C   0  0  0  0  0  3  0  0  0  0  0  0
  185.4270  179.4770  147.3430 O   0  0  0  0  0  1  0  0  0  0  0  0
  1 11  1  6  0  0  0
  1 13  1  0  0  0  0
  2  8  1  0  0  0  0
  3 12  1  0  0  0  0
  4 15  1  0  0  0  0
  5 11  1  0  0  0  0
  6  5  1  0  0  0  0
  6  2  1  0  0  0  0
  7 18  1  0  0  0  0
  8  1  1  0  0  0  0
  8  3  1  0  0  0  0
  9 20  1  0  0  0  0
  9  7  1  0  0  0  0
 10  4  1  0  0  0  0
 12 19  1  0  0  0  0
 12 16  1  0  0  0  0
 13 19  1  0  0  0  0
 14  9  1  0  0  0  0
 14  2  2  0  0  0  0
 15 16  1  0  0  0  0
 16 30  1  0  0  0  0
 17  7  2  0  0  0  0
 18  3  1  0  0  0  0
 18  4  1  0  0  0  0
 20 22  1  0  0  0  0
 21 23  1  0  0  0  0
 23 22  1  0  0  0  0
 25 24  1  0  0  0  0
 26 25  1  0  0  0  0
 26 20  1  0  0  0  0
 27 23  1  0  0  0  0
 27 24  1  0  0  0  0
 28 29  1  0  0  0  0
 28 34  1  0  0  0  0
 30 33  2  0  0  0  0
 30 32  1  0  0  0  0
 31 29  2  0  0  0  0
 32 28  2  0  0  0  0
 33 31  1  0  0  0  0
M  END
>  <MODEL>
1

>  <REMARK>
 VINA RESULT:      -9.0      0.000      0.000
  Name = 
  2 active torsions:
  status: ('A' for Active; 'I' for Inactive)
    1  A    between atoms: C_3  and  C_17
    2  A    between atoms: C_12  and  C_28
                            x       y       z     vdW  Elec       q    Type
                         _______ _______ _______ _____ _____    ______ ____

>  <TORSDO>
F 2

$$$$
=
 OpenBabel10252415043D

 34 39  0  0  1  0  0  0  0  0999 V2000
  189.6790  177.5010  141.7300 C   0  0  2  0  0  3  0  0  0  0  0  0
  190.1270  177.3630  139.2530 C   0  0  0  0  0  0  0  0  0  0  0  0
  187.8070  178.2860  140.2150 C   0  0  2  0  0  3  0  0  0  0  0  0
  185.7610  178.9980  138.9360 N   0  0  0  0  0  0  0  0  0  0  0  0
  191.9850  177.3790  141.0540 C   0  0  0  0  0  2  0  0  0  0  0  0
  191.6090  177.3680  139.5750 C   0  0  0  0  0  2  0  0  0  0  0  0
  187.7110  178.1610  137.6980 C   0  0  0  0  0  0  0  0  0  0  0  0
  189.0320  177.3030  140.3430 C   0  0  2  0  0  3  0  0  0  0  0  0
  188.5670  177.0150  137.2890 C   0  0  1  0  0  3  0  0  0  0  0  0
  184.8970  178.6500  137.8140 C   0  0  0  0  0  1  0  0  0  0  0  0
  190.9380  176.6880  141.8970 C   0  0  0  0  0  2  0  0  0  0  0  0
  186.8870  178.1400  141.4580 C   0  0  2  0  0  3  0  0  0  0  0  0
  188.7120  177.2520  142.8610 C   0  0  0  0  0  2  0  0  0  0  0  0
  189.8960  177.1840  137.9440 C   0  0  0  0  0  3  0  0  0  0  0  0
  184.9240  178.7890  140.1090 C   0  0  0  0  0  2  0  0  0  0  0  0
  185.6930  179.0920  141.3820 C   0  0  1  0  0  3  0  0  0  0  0  0
  187.7680  179.2090  137.0710 O   0  0  0  0  0  0  0  0  0  0  0  0
  186.9090  178.0640  138.9650 C   0  0  1  0  0  3  0  0  0  0  0  0
  187.6440  178.3170  142.7690 C   0  0  0  0  0  2  0  0  0  0  0  0
  187.9400  175.6410  137.5860 C   0  0  1  0  0  3  0  0  0  0  0  0
  185.3270  176.0080  135.1830 C   0  0  0  0  0  1  0  0  0  0  0  0
  186.5790  175.5940  137.1790 O   0  0  0  0  0  0  0  0  0  0  0  0
  186.5040  175.2860  135.8050 C   0  0  1  0  0  3  0  0  0  0  0  0
  186.7420  172.9540  136.8230 C   0  0  0  0  0  2  0  0  0  0  0  0
  188.2110  173.0950  137.2460 C   0  0  0  0  0  2  0  0  0  0  0  0
  188.8150  174.4880  137.0410 C   0  0  0  0  0  2  0  0  0  0  0  0
  186.3590  173.7740  135.5850 C   0  0  0  0  0  2  0  0  0  0  0  0
  184.3760  178.9560  144.9580 C   0  0  0  0  0  0  0  0  0  0  0  0
  183.0180  178.7110  144.7310 C   0  0  0  0  0  3  0  0  0  0  0  0
  184.7740  178.9620  142.5630 C   0  0  0  0  0  0  0  0  0  0  0  0
  182.5380  178.5900  143.4250 C   0  0  0  0  0  3  0  0  0  0  0  0
  185.2530  179.0810  143.8760 C   0  0  0  0  0  3  0  0  0  0  0  0
  183.4140  178.7140  142.3420 C   0  0  0  0  0  3  0  0  0  0  0  0
  184.8530  179.0750  146.2560 O   0  0  0  0  0  1  0  0  0  0  0  0
  1 11  1  1  0  0  0
  1 13  1  0  0  0  0
  2  6  1  0  0  0  0
  2  8  1  0  0  0  0
  3  8  1  0  0  0  0
  3 12  1  0  0  0  0
  4 18  1  0  0  0  0
  4 15  1  0  0  0  0
  5 11  1  0  0  0  0
  6  5  1  0  0  0  0
  7 18  1  0  0  0  0
  8  1  1  0  0  0  0
  9 20  1  0  0  0  0
  9  7  1  0  0  0  0
  9 14  1  0  0  0  0
 10  4  1  0  0  0  0
 12 19  1  0  0  0  0
 14  2  2  0  0  0  0
 15 16  1  0  0  0  0
 16 12  1  0  0  0  0
 16 30  1  0  0  0  0
 17  7  2  0  0  0  0
 18  3  1  0  0  0  0
 19 13  1  0  0  0  0
 21 23  1  0  0  0  0
 22 20  1  0  0  0  0
 23 22  1  0  0  0  0
 24 25  1  0  0  0  0
 26 25  1  0  0  0  0
 26 20  1  0  0  0  0
 27 23  1  0  0  0  0
 27 24  1  0  0  0  0
 28 34  1  0  0  0  0
 29 28  1  0  0  0  0
 30 32  1  0  0  0  0
 31 29  2  0  0  0  0
 32 28  2  0  0  0  0
 33 30  2  0  0  0  0
 33 31  1  0  0  0  0
M  END
>  <MODEL>
2

>  <REMARK>
 VINA RESULT:      -9.0      2.175      3.502
  Name = 
  2 active torsions:
  status: ('A' for Active; 'I' for Inactive)
    1  A    between atoms: C_3  and  C_17
    2  A    between atoms: C_12  and  C_28
                            x       y       z     vdW  Elec       q    Type
                         _______ _______ _______ _____ _____    ______ ____

>  <TORSDO>
F 2

$$$$
=
 OpenBabel10252415043D

 34 39  0  0  1  0  0  0  0  0999 V2000
  189.5180  177.4540  141.9110 C   0  0  2  0  0  3  0  0  0  0  0  0
  190.1920  177.3590  139.4840 C   0  0  0  0  0  0  0  0  0  0  0  0
  187.7920  178.2670  140.2440 C   0  0  2  0  0  3  0  0  0  0  0  0
  185.8720  179.0020  138.7950 N   0  0  0  0  0  0  0  0  0  0  0  0
  191.8760  177.3430  141.4490 C   0  0  0  0  0  2  0  0  0  0  0  0
  191.6380  177.3570  139.9410 C   0  0  0  0  0  2  0  0  0  0  0  0
  187.9280  178.1850  137.7280 C   0  0  0  0  0  0  0  0  0  0  0  0
  189.0010  177.2810  140.4680 C   0  0  2  0  0  3  0  0  0  0  0  0
  188.8190  177.0460  137.3790 C   0  0  1  0  0  3  0  0  0  0  0  0
  185.1150  178.6740  137.5930 C   0  0  0  0  0  1  0  0  0  0  0  0
  190.7570  176.6370  142.1800 C   0  0  0  0  0  2  0  0  0  0  0  0
  186.7620  178.1000  141.3950 C   0  0  2  0  0  3  0  0  0  0  0  0
  188.4510  177.1870  142.9450 C   0  0  0  0  0  2  0  0  0  0  0  0
  190.0820  177.2020  138.1560 C   0  0  0  0  0  3  0  0  0  0  0  0
  184.9310  178.7730  139.8830 C   0  0  0  0  0  2  0  0  0  0  0  0
  185.5790  179.0540  141.2250 C   0  0  1  0  0  3  0  0  0  0  0  0
  188.0410  179.2440  137.1260 O   0  0  0  0  0  0  0  0  0  0  0  0
  187.0130  178.0670  138.9130 C   0  0  1  0  0  3  0  0  0  0  0  0
  187.3950  178.2530  142.7730 C   0  0  0  0  0  2  0  0  0  0  0  0
  188.1690  175.6670  137.5930 C   0  0  1  0  0  3  0  0  0  0  0  0
  185.7570  176.0970  134.9980 C   0  0  0  0  0  1  0  0  0  0  0  0
  186.8450  175.6340  137.0780 O   0  0  0  0  0  0  0  0  0  0  0  0
  186.8800  175.3570  135.6960 C   0  0  1  0  0  3  0  0  0  0  0  0
  187.0330  173.0020  136.6760 C   0  0  0  0  0  2  0  0  0  0  0  0
  188.4630  173.1280  137.2190 C   0  0  0  0  0  2  0  0  0  0  0  0
  189.0830  174.5240  137.0940 C   0  0  0  0  0  2  0  0  0  0  0  0
  186.7510  173.8510  135.4300 C   0  0  0  0  0  2  0  0  0  0  0  0
  182.2580  178.6280  143.0500 C   0  0  0  0  0  0  0  0  0  0  0  0
  182.6850  178.6280  144.3810 C   0  0  0  0  0  3  0  0  0  0  0  0
  184.5550  178.9040  142.3140 C   0  0  0  0  0  0  0  0  0  0  0  0
  184.0420  178.7670  144.6800 C   0  0  0  0  0  3  0  0  0  0  0  0
  183.1900  178.7660  142.0180 C   0  0  0  0  0  3  0  0  0  0  0  0
  184.9760  178.9050  143.6490 C   0  0  0  0  0  3  0  0  0  0  0  0
  180.9090  178.4910  142.7530 O   0  0  0  0  0  1  0  0  0  0  0  0
  1 11  1  1  0  0  0
  1 13  1  0  0  0  0
  2  6  1  0  0  0  0
  2  8  1  0  0  0  0
  3  8  1  0  0  0  0
  3 12  1  0  0  0  0
  4 18  1  0  0  0  0
  4 15  1  0  0  0  0
  5 11  1  0  0  0  0
  6  5  1  0  0  0  0
  7 18  1  0  0  0  0
  8  1  1  0  0  0  0
  9 20  1  0  0  0  0
  9  7  1  0  0  0  0
  9 14  1  0  0  0  0
 10  4  1  0  0  0  0
 12 19  1  0  0  0  0
 14  2  2  0  0  0  0
 15 16  1  0  0  0  0
 16 12  1  0  0  0  0
 16 30  1  0  0  0  0
 17  7  2  0  0  0  0
 18  3  1  0  0  0  0
 19 13  1  0  0  0  0
 21 23  1  0  0  0  0
 22 20  1  0  0  0  0
 23 22  1  0  0  0  0
 24 25  1  0  0  0  0
 26 25  1  0  0  0  0
 26 20  1  0  0  0  0
 27 23  1  0  0  0  0
 27 24  1  0  0  0  0
 28 29  1  0  0  0  0
 29 31  2  0  0  0  0
 30 33  2  0  0  0  0
 32 30  1  0  0  0  0
 32 28  2  0  0  0  0
 33 31  1  0  0  0  0
 34 28  1  0  0  0  0
M  END
>  <MODEL>
3

>  <REMARK>
 VINA RESULT:      -8.5      2.583      3.889
  Name = 
  2 active torsions:
  status: ('A' for Active; 'I' for Inactive)
    1  A    between atoms: C_3  and  C_17
    2  A    between atoms: C_12  and  C_28
                            x       y       z     vdW  Elec       q    Type
                         _______ _______ _______ _____ _____    ______ ____

>  <TORSDO>
F 2

$$$$
=
 OpenBabel10252415043D

 34 39  0  0  1  0  0  0  0  0999 V2000
  190.7790  176.4600  138.5750 C   0  0  2  0  0  3  0  0  0  0  0  0
  189.1460  176.7160  136.6710 C   0  0  0  0  0  0  0  0  0  0  0  0
  188.6310  177.6910  139.1090 C   0  0  2  0  0  3  0  0  0  0  0  0
  186.5400  178.8260  139.9250 N   0  0  0  0  0  0  0  0  0  0  0  0
  191.6660  176.2200  136.3510 C   0  0  0  0  0  2  0  0  0  0  0  0
  190.3070  176.5100  135.7180 C   0  0  0  0  0  2  0  0  0  0  0  0
  186.6340  178.0230  137.6060 C   0  0  0  0  0  0  0  0  0  0  0  0
  189.2860  176.5780  138.2060 C   0  0  2  0  0  3  0  0  0  0  0  0
  186.6200  176.8850  136.6480 C   0  0  1  0  0  3  0  0  0  0  0  0
  185.0840  178.7740  139.8870 C   0  0  0  0  0  1  0  0  0  0  0  0
  191.5190  175.5030  137.6730 C   0  0  0  0  0  2  0  0  0  0  0  0
  188.9780  177.4240  140.6000 C   0  0  2  0  0  3  0  0  0  0  0  0
  190.9910  176.1160  140.0290 C   0  0  0  0  0  2  0  0  0  0  0  0
  187.9730  176.7960  136.0270 C   0  0  0  0  0  3  0  0  0  0  0  0
  186.8720  178.5010  141.3060 C   0  0  0  0  0  2  0  0  0  0  0  0
  188.3750  178.4930  141.5120 C   0  0  1  0  0  3  0  0  0  0  0  0
  186.4060  179.1540  137.2010 O   0  0  0  0  0  0  0  0  0  0  0  0
  187.0820  177.7880  139.0210 C   0  0  1  0  0  3  0  0  0  0  0  0
  190.4770  177.2860  140.8360 C   0  0  0  0  0  2  0  0  0  0  0  0
  186.1790  175.5530  137.2810 C   0  0  1  0  0  3  0  0  0  0  0  0
  182.8210  175.7850  136.0960 C   0  0  0  0  0  1  0  0  0  0  0  0
  184.7690  175.5030  137.4550 O   0  0  0  0  0  0  0  0  0  0  0  0
  184.1560  175.0890  136.2550 C   0  0  1  0  0  3  0  0  0  0  0  0
  184.8080  172.8410  137.2800 C   0  0  0  0  0  2  0  0  0  0  0  0
  186.3220  172.9820  137.0710 C   0  0  0  0  0  2  0  0  0  0  0  0
  186.7780  174.3410  136.5290 C   0  0  0  0  0  2  0  0  0  0  0  0
  183.9540  173.5680  136.2340 C   0  0  0  0  0  2  0  0  0  0  0  0
  187.9860  177.6250  145.2050 C   0  0  0  0  0  0  0  0  0  0  0  0
  189.2940  177.8170  145.6620 C   0  0  0  0  0  3  0  0  0  0  0  0
  188.6780  178.2520  142.9640 C   0  0  0  0  0  0  0  0  0  0  0  0
  190.2910  178.2270  144.7740 C   0  0  0  0  0  3  0  0  0  0  0  0
  187.6780  177.8420  143.8590 C   0  0  0  0  0  3  0  0  0  0  0  0
  189.9840  178.4450  143.4270 C   0  0  0  0  0  3  0  0  0  0  0  0
  186.9950  177.2180  146.0880 O   0  0  0  0  0  1  0  0  0  0  0  0
  1 11  1  6  0  0  0
  1 13  1  0  0  0  0
  2  8  1  0  0  0  0
  3 12  1  0  0  0  0
  4 15  1  0  0  0  0
  5 11  1  0  0  0  0
  6  5  1  0  0  0  0
  6  2  1  0  0  0  0
  7 18  1  0  0  0  0
  8  1  1  0  0  0  0
  8  3  1  0  0  0  0
  9 20  1  0  0  0  0
  9  7  1  0  0  0  0
 10  4  1  0  0  0  0
 12 19  1  0  0  0  0
 12 16  1  0  0  0  0
 13 19  1  0  0  0  0
 14  9  1  0  0  0  0
 14  2  2  0  0  0  0
 15 16  1  0  0  0  0
 16 30  1  0  0  0  0
 17  7  2  0  0  0  0
 18  3  1  0  0  0  0
 18  4  1  0  0  0  0
 20 22  1  0  0  0  0
 21 23  1  0  0  0  0
 23 22  1  0  0  0  0
 25 24  1  0  0  0  0
 26 25  1  0  0  0  0
 26 20  1  0  0  0  0
 27 23  1  0  0  0  0
 27 24  1  0  0  0  0
 28 29  1  0  0  0  0
 28 34  1  0  0  0  0
 30 33  2  0  0  0  0
 30 32  1  0  0  0  0
 31 29  2  0  0  0  0
 32 28  2  0  0  0  0
 33 31  1  0  0  0  0
M  END
>  <MODEL>
4

>  <REMARK>
 VINA RESULT:      -8.4      1.970      2.762
  Name = 
  2 active torsions:
  status: ('A' for Active; 'I' for Inactive)
    1  A    between atoms: C_3  and  C_17
    2  A    between atoms: C_12  and  C_28
                            x       y       z     vdW  Elec       q    Type
                         _______ _______ _______ _____ _____    ______ ____

>  <TORSDO>
F 2

$$$$
=
 OpenBabel10252415043D

 34 39  0  0  1  0  0  0  0  0999 V2000
  190.1430  176.8020  137.9510 C   0  0  2  0  0  3  0  0  0  0  0  0
  188.1430  177.1100  136.4480 C   0  0  0  0  0  0  0  0  0  0  0  0
  188.1150  177.8950  139.0050 C   0  0  2  0  0  3  0  0  0  0  0  0
  186.2040  178.8750  140.3150 N   0  0  0  0  0  0  0  0  0  0  0  0
  190.5560  176.7530  135.5820 C   0  0  0  0  0  2  0  0  0  0  0  0
  189.0870  177.0210  135.2640 C   0  0  0  0  0  2  0  0  0  0  0  0
  185.8400  178.2340  137.9720 C   0  0  0  0  0  0  0  0  0  0  0  0
  188.6020  176.8760  137.9060 C   0  0  2  0  0  3  0  0  0  0  0  0
  185.6630  177.1630  136.9550 C   0  0  1  0  0  3  0  0  0  0  0  0
  184.7740  178.7590  140.5720 C   0  0  0  0  0  1  0  0  0  0  0  0
  190.7090  175.9430  136.8480 C   0  0  0  0  0  2  0  0  0  0  0  0
  188.7720  177.5450  140.3690 C   0  0  2  0  0  3  0  0  0  0  0  0
  190.6630  176.3730  139.3020 C   0  0  0  0  0  2  0  0  0  0  0  0
  186.8590  177.1780  136.0650 C   0  0  0  0  0  3  0  0  0  0  0  0
  186.8260  178.4750  141.5700 C   0  0  0  0  0  2  0  0  0  0  0  0
  188.3390  178.5220  141.4620 C   0  0  1  0  0  3  0  0  0  0  0  0
  185.4970  179.3780  137.7080 O   0  0  0  0  0  0  0  0  0  0  0  0
  186.5790  177.9260  139.2430 C   0  0  1  0  0  3  0  0  0  0  0  0
  190.2910  177.4610  140.2820 C   0  0  0  0  0  2  0  0  0  0  0  0
  185.4050  175.7720  137.5630 C   0  0  1  0  0  3  0  0  0  0  0  0
  181.9330  175.7510  136.7360 C   0  0  0  0  0  1  0  0  0  0  0  0
  184.0310  175.5910  137.8760 O   0  0  0  0  0  0  0  0  0  0  0  0
  183.3330  175.1710  136.7250 C   0  0  1  0  0  3  0  0  0  0  0  0
  184.2760  172.9510  137.5690 C   0  0  0  0  0  2  0  0  0  0  0  0
  185.7420  173.2350  137.2140 C   0  0  0  0  0  2  0  0  0  0  0  0
  186.0220  174.6500  136.6960 C   0  0  0  0  0  2  0  0  0  0  0  0
  183.2580  173.6400  136.6510 C   0  0  0  0  0  2  0  0  0  0  0  0
  190.7760  178.3150  144.3870 C   0  0  0  0  0  0  0  0  0  0  0  0
  190.0270  177.5720  145.3050 C   0  0  0  0  0  3  0  0  0  0  0  0
  188.9440  178.2000  142.7990 C   0  0  0  0  0  0  0  0  0  0  0  0
  188.7400  177.1420  144.9720 C   0  0  0  0  0  3  0  0  0  0  0  0
  190.2370  178.6280  143.1360 C   0  0  0  0  0  3  0  0  0  0  0  0
  188.2000  177.4550  143.7210 C   0  0  0  0  0  3  0  0  0  0  0  0
  192.0550  178.7400  144.7180 O   0  0  0  0  0  1  0  0  0  0  0  0
  1 11  1  6  0  0  0
  1 13  1  0  0  0  0
  2  8  1  0  0  0  0
  3 18  1  0  0  0  0
  3 12  1  0  0  0  0
  4 10  1  0  0  0  0
  4 15  1  0  0  0  0
  5 11  1  0  0  0  0
  6  5  1  0  0  0  0
  6  2  1  0  0  0  0
  7 18  1  0  0  0  0
  8  1  1  0  0  0  0
  8  3  1  0  0  0  0
  9 20  1  0  0  0  0
  9  7  1  0  0  0  0
 12 16  1  0  0  0  0
 13 19  1  0  0  0  0
 14  2  2  0  0  0  0
 14  9  1  0  0  0  0
 16 15  1  0  0  0  0
 16 30  1  0  0  0  0
 17  7  2  0  0  0  0
 18  4  1  0  0  0  0
 19 12  1  0  0  0  0
 20 22  1  0  0  0  0
 23 21  1  0  0  0  0
 23 22  1  0  0  0  0
 25 24  1  0  0  0  0
 26 25  1  0  0  0  0
 26 20  1  0  0  0  0
 27 23  1  0  0  0  0
 27 24  1  0  0  0  0
 28 34  1  0  0  0  0
 28 29  1  0  0  0  0
 30 32  1  0  0  0  0
 30 33  2  0  0  0  0
 31 29  2  0  0  0  0
 32 28  2  0  0  0  0
 33 31  1  0  0  0  0
M  END
>  <MODEL>
5

>  <REMARK>
 VINA RESULT:      -8.4      2.097      2.750
  Name = 
  2 active torsions:
  status: ('A' for Active; 'I' for Inactive)
    1  A    between atoms: C_3  and  C_17
    2  A    between atoms: C_12  and  C_28
                            x       y       z     vdW  Elec       q    Type
                         _______ _______ _______ _____ _____    ______ ____

>  <TORSDO>
F 2

$$$$
=
 OpenBabel10252415043D

 34 39  0  0  1  0  0  0  0  0999 V2000
  186.2970  178.1780  137.8910 C   0  0  2  0  0  3  0  0  0  0  0  0
  184.9540  177.2450  135.9720 C   0  0  0  0  0  0  0  0  0  0  0  0
  183.8180  177.8720  138.3120 C   0  0  2  0  0  3  0  0  0  0  0  0
  181.4270  177.5450  139.0220 N   0  0  0  0  0  0  0  0  0  0  0  0
  187.2670  178.3720  135.6980 C   0  0  0  0  0  2  0  0  0  0  0  0
  186.0510  177.7240  135.0410 C   0  0  0  0  0  2  0  0  0  0  0  0
  182.1190  176.8050  136.7850 C   0  0  0  0  0  0  0  0  0  0  0  0
  185.0640  177.3310  137.5130 C   0  0  2  0  0  3  0  0  0  0  0  0
  182.8540  175.8310  135.9340 C   0  0  1  0  0  3  0  0  0  0  0  0
  180.3090  176.6110  138.9890 C   0  0  0  0  0  1  0  0  0  0  0  0
  187.5150  177.8130  137.0800 C   0  0  0  0  0  2  0  0  0  0  0  0
  184.1730  177.9800  139.8210 C   0  0  2  0  0  3  0  0  0  0  0  0
  186.5930  178.1410  139.3710 C   0  0  0  0  0  2  0  0  0  0  0  0
  184.0130  176.5430  135.3230 C   0  0  0  0  0  3  0  0  0  0  0  0
  181.8110  177.5920  140.4270 C   0  0  0  0  0  2  0  0  0  0  0  0
  182.9950  178.5190  140.6330 C   0  0  1  0  0  3  0  0  0  0  0  0
  181.2720  177.5270  136.2800 O   0  0  0  0  0  0  0  0  0  0  0  0
  182.5380  176.9940  138.2150 C   0  0  1  0  0  3  0  0  0  0  0  0
  185.4300  178.8060  140.0690 C   0  0  0  0  0  2  0  0  0  0  0  0
  183.2820  174.5570  136.6850 C   0  0  1  0  0  3  0  0  0  0  0  0
  180.0620  173.0310  136.4920 C   0  0  0  0  0  1  0  0  0  0  0  0
  182.1620  173.8880  137.2500 O   0  0  0  0  0  0  0  0  0  0  0  0
  181.5610  173.0640  136.2770 C   0  0  1  0  0  3  0  0  0  0  0  0
  183.4460  171.5520  137.1100 C   0  0  0  0  0  2  0  0  0  0  0  0
  184.5990  172.3440  136.4800 C   0  0  0  0  0  2  0  0  0  0  0  0
  184.1940  173.6620  135.8120 C   0  0  0  0  0  2  0  0  0  0  0  0
  182.1240  171.6370  136.3370 C   0  0  0  0  0  2  0  0  0  0  0  0
  184.8390  178.4350  143.9690 C   0  0  0  0  0  0  0  0  0  0  0  0
  183.8200  178.8190  144.8460 C   0  0  0  0  0  3  0  0  0  0  0  0
  183.3000  178.6190  142.1000 C   0  0  0  0  0  0  0  0  0  0  0  0
  182.5440  179.1020  144.3530 C   0  0  0  0  0  3  0  0  0  0  0  0
  184.5810  178.3340  142.5990 C   0  0  0  0  0  3  0  0  0  0  0  0
  182.2840  179.0010  142.9820 C   0  0  0  0  0  3  0  0  0  0  0  0
  186.1070  178.1530  144.4590 O   0  0  0  0  0  1  0  0  0  0  0  0
  1 11  1  6  0  0  0
  1 13  1  0  0  0  0
  2  8  1  0  0  0  0
  3 12  1  0  0  0  0
  4 15  1  0  0  0  0
  5 11  1  0  0  0  0
  6  5  1  0  0  0  0
  6  2  1  0  0  0  0
  7 18  1  0  0  0  0
  8  1  1  0  0  0  0
  8  3  1  0  0  0  0
  9 20  1  0  0  0  0
  9  7  1  0  0  0  0
 10  4  1  0  0  0  0
 12 19  1  0  0  0  0
 12 16  1  0  0  0  0
 13 19  1  0  0  0  0
 14  9  1  0  0  0  0
 14  2  2  0  0  0  0
 15 16  1  0  0  0  0
 16 30  1  0  0  0  0
 17  7  2  0  0  0  0
 18  3  1  0  0  0  0
 18  4  1  0  0  0  0
 20 22  1  0  0  0  0
 23 27  1  0  0  0  0
 23 21  1  0  0  0  0
 23 22  1  0  0  0  0
 25 24  1  0  0  0  0
 26 25  1  0  0  0  0
 26 20  1  0  0  0  0
 27 24  1  0  0  0  0
 28 34  1  0  0  0  0
 28 29  1  0  0  0  0
 30 32  1  0  0  0  0
 30 33  2  0  0  0  0
 31 29  2  0  0  0  0
 32 28  2  0  0  0  0
 33 31  1  0  0  0  0
M  END
>  <MODEL>
6

>  <REMARK>
 VINA RESULT:      -7.1      1.874      2.808
  Name = 
  2 active torsions:
  status: ('A' for Active; 'I' for Inactive)
    1  A    between atoms: C_3  and  C_17
    2  A    between atoms: C_12  and  C_28
                            x       y       z     vdW  Elec       q    Type
                         _______ _______ _______ _____ _____    ______ ____

>  <TORSDO>
F 2

$$$$
=
 OpenBabel10252415043D

 34 39  0  0  1  0  0  0  0  0999 V2000
  184.3980  179.0180  142.6990 C   0  0  2  0  0  3  0  0  0  0  0  0
  181.9320  178.5890  142.3920 C   0  0  0  0  0  0  0  0  0  0  0  0
  183.7180  177.9510  140.5040 C   0  0  2  0  0  3  0  0  0  0  0  0
  183.2920  177.0120  138.2100 N   0  0  0  0  0  0  0  0  0  0  0  0
  183.0580  178.9400  144.6950 C   0  0  0  0  0  2  0  0  0  0  0  0
  181.7930  178.6280  143.9020 C   0  0  0  0  0  2  0  0  0  0  0  0
  181.3800  177.5120  139.6670 C   0  0  0  0  0  0  0  0  0  0  0  0
  183.2580  178.9140  141.6630 C   0  0  2  0  0  3  0  0  0  0  0  0
  180.4940  178.5200  140.3090 C   0  0  1  0  0  3  0  0  0  0  0  0
  182.4310  177.1160  137.0380 C   0  0  0  0  0  1  0  0  0  0  0  0
  184.0010  179.8230  143.9110 C   0  0  0  0  0  2  0  0  0  0  0  0
  185.1140  178.3890  139.9840 C   0  0  2  0  0  3  0  0  0  0  0  0
  185.6820  179.5330  142.0950 C   0  0  0  0  0  2  0  0  0  0  0  0
  180.7450  178.4760  141.7790 C   0  0  0  0  0  3  0  0  0  0  0  0
  184.5860  177.4940  137.7450 C   0  0  0  0  0  2  0  0  0  0  0  0
  185.6070  177.4690  138.8670 C   0  0  1  0  0  3  0  0  0  0  0  0
  181.0100  176.3490  139.5880 O   0  0  0  0  0  0  0  0  0  0  0  0
  182.7740  177.9050  139.2690 C   0  0  1  0  0  3  0  0  0  0  0  0
  186.1470  178.4960  141.1000 C   0  0  0  0  0  2  0  0  0  0  0  0
  180.6540  179.9380  139.7320 C   0  0  1  0  0  3  0  0  0  0  0  0
  179.4410  179.0530  136.4940 C   0  0  0  0  0  1  0  0  0  0  0  0
  180.7360  179.9130  138.3130 O   0  0  0  0  0  0  0  0  0  0  0  0
  179.4380  179.8800  137.7630 C   0  0  1  0  0  3  0  0  0  0  0  0
  179.7360  182.3840  138.1790 C   0  0  0  0  0  2  0  0  0  0  0  0
  179.6550  182.3190  139.7100 C   0  0  0  0  0  2  0  0  0  0  0  0
  179.5900  180.9060  140.2990 C   0  0  0  0  0  2  0  0  0  0  0  0
  178.9310  181.2960  137.4570 C   0  0  0  0  0  2  0  0  0  0  0  0
  189.3720  177.9190  138.4680 C   0  0  0  0  0  0  0  0  0  0  0  0
  189.4270  178.6650  137.2870 C   0  0  0  0  0  3  0  0  0  0  0  0
  186.9490  177.8780  138.3300 C   0  0  0  0  0  0  0  0  0  0  0  0
  188.2460  179.0190  136.6290 C   0  0  0  0  0  3  0  0  0  0  0  0
  188.1360  177.5260  138.9900 C   0  0  0  0  0  3  0  0  0  0  0  0
  187.0090  178.6260  137.1500 C   0  0  0  0  0  3  0  0  0  0  0  0
  190.5450  177.5680  139.1230 O   0  0  0  0  0  1  0  0  0  0  0  0
  1 13  1  6  0  0  0
  1 11  1  0  0  0  0
  2  6  1  0  0  0  0
  3  8  1  0  0  0  0
  4 18  1  0  0  0  0
  6  5  1  0  0  0  0
  7  9  1  0  0  0  0
  8  2  1  0  0  0  0
  8  1  1  0  0  0  0
  9 14  1  0  0  0  0
 10  4  1  0  0  0  0
 11  5  1  0  0  0  0
 12  3  1  0  0  0  0
 12 19  1  0  0  0  0
 14  2  2  0  0  0  0
 15  4  1  0  0  0  0
 15 16  1  0  0  0  0
 16 12  1  0  0  0  0
 17  7  2  0  0  0  0
 18  7  1  0  0  0  0
 18  3  1  0  0  0  0
 19 13  1  0  0  0  0
 20 26  1  0  0  0  0
 20  9  1  0  0  0  0
 21 23  1  0  0  0  0
 22 20  1  0  0  0  0
 23 22  1  0  0  0  0
 24 25  1  0  0  0  0
 25 26  1  0  0  0  0
 27 23  1  0  0  0  0
 27 24  1  0  0  0  0
 28 32  1  0  0  0  0
 28 34  1  0  0  0  0
 29 28  2  0  0  0  0
 30 16  1  0  0  0  0
 30 32  2  0  0  0  0
 31 33  2  0  0  0  0
 31 29  1  0  0  0  0
 33 30  1  0  0  0  0
M  END
>  <MODEL>
7

>  <REMARK>
 VINA RESULT:      -6.5      2.880      6.618
  Name = 
  2 active torsions:
  status: ('A' for Active; 'I' for Inactive)
    1  A    between atoms: C_3  and  C_17
    2  A    between atoms: C_12  and  C_28
                            x       y       z     vdW  Elec       q    Type
                         _______ _______ _______ _____ _____    ______ ____

>  <TORSDO>
F 2

$$$$
=
 OpenBabel10252415043D

 34 39  0  0  1  0  0  0  0  0999 V2000
  187.6480  178.3380  138.9220 C   0  0  2  0  0  3  0  0  0  0  0  0
  187.0140  177.5150  136.6240 C   0  0  0  0  0  0  0  0  0  0  0  0
  185.1660  178.1440  138.4540 C   0  0  2  0  0  3  0  0  0  0  0  0
  182.6660  177.9190  138.2870 N   0  0  0  0  0  0  0  0  0  0  0  0
  189.3210  178.5340  137.2040 C   0  0  0  0  0  2  0  0  0  0  0  0
  188.3820  177.9620  136.1460 C   0  0  0  0  0  2  0  0  0  0  0  0
  184.0580  177.1970  136.3970 C   0  0  0  0  0  0  0  0  0  0  0  0
  186.5890  177.5610  138.1110 C   0  0  2  0  0  3  0  0  0  0  0  0
  185.0030  176.2070  135.8130 C   0  0  1  0  0  3  0  0  0  0  0  0
  181.5930  177.0410  137.8360 C   0  0  0  0  0  1  0  0  0  0  0  0
  189.0560  177.9310  138.5640 C   0  0  0  0  0  2  0  0  0  0  0  0
  184.9830  178.2000  139.9960 C   0  0  2  0  0  3  0  0  0  0  0  0
  187.4150  178.2520  140.4100 C   0  0  0  0  0  2  0  0  0  0  0  0
  186.3280  176.8760  135.6650 C   0  0  0  0  0  3  0  0  0  0  0  0
  182.5440  177.9140  139.7390 C   0  0  0  0  0  2  0  0  0  0  0  0
  183.6190  178.7770  140.3740 C   0  0  1  0  0  3  0  0  0  0  0  0
  183.4650  177.9710  135.6590 O   0  0  0  0  0  0  0  0  0  0  0  0
  183.9660  177.3320  137.8900 C   0  0  1  0  0  3  0  0  0  0  0  0
  186.1080  178.9570  140.6910 C   0  0  0  0  0  2  0  0  0  0  0  0
  185.0980  174.8970  136.6160 C   0  0  1  0  0  3  0  0  0  0  0  0
  182.0800  173.5390  135.2780 C   0  0  0  0  0  1  0  0  0  0  0  0
  183.8270  174.2730  136.7390 O   0  0  0  0  0  0  0  0  0  0  0  0
  183.5620  173.5020  135.5890 C   0  0  1  0  0  3  0  0  0  0  0  0
  184.9860  171.8790  136.9570 C   0  0  0  0  0  2  0  0  0  0  0  0
  186.3170  172.6260  136.7890 C   0  0  0  0  0  2  0  0  0  0  0  0
  186.2170  173.9770  136.0730 C   0  0  0  0  0  2  0  0  0  0  0  0
  184.0130  172.0470  135.7830 C   0  0  0  0  0  2  0  0  0  0  0  0
  181.9480  178.7540  143.8020 C   0  0  0  0  0  0  0  0  0  0  0  0
  183.0550  178.9300  144.6370 C   0  0  0  0  0  3  0  0  0  0  0  0
  183.4030  178.8280  141.8600 C   0  0  0  0  0  0  0  0  0  0  0  0
  184.3330  179.0570  144.0870 C   0  0  0  0  0  3  0  0  0  0  0  0
  182.1210  178.7030  142.4150 C   0  0  0  0  0  3  0  0  0  0  0  0
  184.5070  179.0070  142.7010 C   0  0  0  0  0  3  0  0  0  0  0  0
  180.6780  178.6290  144.3480 O   0  0  0  0  0  1  0  0  0  0  0  0
  1 11  1  1  0  0  0
  1 13  1  0  0  0  0
  2  8  1  0  0  0  0
  3 12  1  0  0  0  0
  4 15  1  0  0  0  0
  5 11  1  0  0  0  0
  6  2  1  0  0  0  0
  6  5  1  0  0  0  0
  7 18  1  0  0  0  0
  8  3  1  0  0  0  0
  8  1  1  0  0  0  0
  9  7  1  0  0  0  0
  9 20  1  0  0  0  0
 10  4  1  0  0  0  0
 12 16  1  0  0  0  0
 12 19  1  0  0  0  0
 13 19  1  0  0  0  0
 14  9  1  0  0  0  0
 14  2  2  0  0  0  0
 15 16  1  0  0  0  0
 16 30  1  0  0  0  0
 17  7  2  0  0  0  0
 18  4  1  0  0  0  0
 18  3  1  0  0  0  0
 20 22  1  0  0  0  0
 21 23  1  0  0  0  0
 23 27  1  0  0  0  0
 23 22  1  0  0  0  0
 25 24  1  0  0  0  0
 26 20  1  0  0  0  0
 26 25  1  0  0  0  0
 27 24  1  0  0  0  0
 28 34  1  0  0  0  0
 28 29  1  0  0  0  0
 30 32  1  0  0  0  0
 30 33  2  0  0  0  0
 31 29  2  0  0  0  0
 32 28  2  0  0  0  0
 33 31  1  0  0  0  0
M  END
>  <MODEL>
8

>  <REMARK>
 VINA RESULT:      -6.4      2.001      2.612
  Name = 
  2 active torsions:
  status: ('A' for Active; 'I' for Inactive)
    1  A    between atoms: C_3  and  C_17
    2  A    between atoms: C_12  and  C_28
                            x       y       z     vdW  Elec       q    Type
                         _______ _______ _______ _____ _____    ______ ____

>  <TORSDO>
F 2

$$$$
=
 OpenBabel10252415043D

 34 39  0  0  1  0  0  0  0  0999 V2000
  180.5960  176.7570  140.1210 C   0  0  2  0  0  3  0  0  0  0  0  0
  181.9000  178.8280  140.7270 C   0  0  0  0  0  0  0  0  0  0  0  0
  182.7440  177.1380  138.8320 C   0  0  2  0  0  3  0  0  0  0  0  0
  184.8830  177.2170  137.5120 N   0  0  0  0  0  0  0  0  0  0  0  0
  179.3860  178.5040  141.2490 C   0  0  0  0  0  2  0  0  0  0  0  0
  180.6150  179.4090  141.2850 C   0  0  0  0  0  2  0  0  0  0  0  0
  184.4650  178.9410  139.2100 C   0  0  0  0  0  0  0  0  0  0  0  0
  182.0070  177.3760  140.2050 C   0  0  2  0  0  3  0  0  0  0  0  0
  184.3820  179.3240  140.6460 C   0  0  1  0  0  3  0  0  0  0  0  0
  186.3170  177.4630  137.6110 C   0  0  0  0  0  1  0  0  0  0  0  0
  179.7690  177.0450  141.3490 C   0  0  0  0  0  2  0  0  0  0  0  0
  182.6460  175.6370  138.4400 C   0  0  2  0  0  3  0  0  0  0  0  0
  180.6290  175.2790  139.8160 C   0  0  0  0  0  2  0  0  0  0  0  0
  182.9540  179.6260  140.9540 C   0  0  0  0  0  3  0  0  0  0  0  0
  184.7850  175.7940  137.2190 C   0  0  0  0  0  2  0  0  0  0  0  0
  183.3340  175.3650  137.1030 C   0  0  1  0  0  3  0  0  0  0  0  0
  184.5770  179.8120  138.3600 O   0  0  0  0  0  0  0  0  0  0  0  0
  184.2540  177.5060  138.8200 C   0  0  1  0  0  3  0  0  0  0  0  0
  181.2090  175.1290  138.4300 C   0  0  0  0  0  2  0  0  0  0  0  0
  184.9750  178.2720  141.6000 C   0  0  1  0  0  3  0  0  0  0  0  0
  188.3040  178.6280  140.3630 C   0  0  0  0  0  1  0  0  0  0  0  0
  186.2030  177.7560  141.1030 O   0  0  0  0  0  0  0  0  0  0  0  0
  187.2600  178.6170  141.4600 C   0  0  1  0  0  3  0  0  0  0  0  0
  187.0200  177.2180  143.5860 C   0  0  0  0  0  2  0  0  0  0  0  0
  185.6830  177.8180  144.0420 C   0  0  0  0  0  2  0  0  0  0  0  0
  185.0390  178.7960  143.0540 C   0  0  0  0  0  2  0  0  0  0  0  0
  187.9040  178.1820  142.7840 C   0  0  0  0  0  2  0  0  0  0  0  0
  182.2530  172.0950  135.4670 C   0  0  0  0  0  0  0  0  0  0  0  0
  183.1990  171.2100  135.9930 C   0  0  0  0  0  3  0  0  0  0  0  0
  183.2720  173.9180  136.7050 C   0  0  0  0  0  0  0  0  0  0  0  0
  184.1790  171.6760  136.8730 C   0  0  0  0  0  3  0  0  0  0  0  0
  182.2880  173.4460  135.8220 C   0  0  0  0  0  3  0  0  0  0  0  0
  184.2150  173.0270  137.2290 C   0  0  0  0  0  3  0  0  0  0  0  0
  181.2790  171.6310  134.5940 O   0  0  0  0  0  1  0  0  0  0  0  0
  1 13  1  1  0  0  0
  1  8  1  0  0  0  0
  1 11  1  0  0  0  0
  2 14  2  0  0  0  0
  2  6  1  0  0  0  0
  3  8  1  0  0  0  0
  4 10  1  0  0  0  0
  4 18  1  0  0  0  0
  5  6  1  0  0  0  0
  5 11  1  0  0  0  0
  7  9  1  0  0  0  0
  8  2  1  0  0  0  0
  9 14  1  0  0  0  0
  9 20  1  0  0  0  0
 12  3  1  0  0  0  0
 15  4  1  0  0  0  0
 16 15  1  0  0  0  0
 16 12  1  0  0  0  0
 17  7  2  0  0  0  0
 18  3  1  0  0  0  0
 18  7  1  0  0  0  0
 19 12  1  0  0  0  0
 19 13  1  0  0  0  0
 20 26  1  0  0  0  0
 21 23  1  0  0  0  0
 22 23  1  0  0  0  0
 22 20  1  0  0  0  0
 23 27  1  0  0  0  0
 24 25  1  0  0  0  0
 26 25  1  0  0  0  0
 27 24  1  0  0  0  0
 28 32  2  0  0  0  0
 28 29  1  0  0  0  0
 29 31  2  0  0  0  0
 30 16  1  0  0  0  0
 30 33  2  0  0  0  0
 31 33  1  0  0  0  0
 32 30  1  0  0  0  0
 34 28  1  0  0  0  0
M  END
>  <MODEL>
9

>  <REMARK>
 VINA RESULT:      -6.2      2.089      8.008
  Name = 
  2 active torsions:
  status: ('A' for Active; 'I' for Inactive)
    1  A    between atoms: C_3  and  C_17
    2  A    between atoms: C_12  and  C_28
                            x       y       z     vdW  Elec       q    Type
                         _______ _______ _______ _____ _____    ______ ____

>  <TORSDO>
F 2

$$$$
