=
 OpenBabel10262422513D

 37 41  0  0  1  0  0  0  0  0999 V2000
  189.1340  177.4910  142.6850 C   0  0  1  0  0  0  0  0  0  0  0  0
  190.2800  176.2730  139.0030 S   0  0  0  0  0  0  0  0  0  0  0  0
  187.4420  178.9610  138.2010 C   0  0  0  0  0  3  0  0  0  0  0  0
  189.5090  178.4220  143.8550 C   0  0  1  0  0  3  0  0  0  0  0  0
  184.8840  177.6770  142.5000 C   0  0  0  0  0  3  0  0  0  0  0  0
  188.2200  176.1230  137.3140 C   0  0  0  0  0  3  0  0  0  0  0  0
  186.4810  179.3960  142.7980 O   0  0  0  0  0  1  0  0  0  0  0  0
  186.6790  178.7660  145.5860 O   0  0  0  0  0  1  0  0  0  0  0  0
  188.6450  178.3890  138.2590 C   0  0  0  0  0  3  0  0  0  0  0  0
  184.1140  178.2560  140.2850 N   0  0  0  0  0  2  0  0  0  0  0  0
  187.0550  176.4790  136.4780 C   0  0  0  0  0  3  0  0  0  0  0  0
  188.9330  177.9240  145.1920 C   0  0  2  0  0  3  0  0  0  0  0  0
  190.1170  177.3190  141.5260 C   0  0  1  0  0  3  0  0  0  0  0  0
  191.4610  177.1930  138.8660 O   0  0  0  0  0  0  0  0  0  0  0  0
  184.9670  179.0770  138.1600 C   0  0  0  0  0  2  0  0  0  0  0  0
  186.1540  177.4140  136.7810 C   0  0  0  0  0  3  0  0  0  0  0  0
  189.8560  176.0480  140.7240 C   0  0  0  0  0  2  0  0  0  0  0  0
  187.4140  177.6610  145.1380 C   0  0  2  0  0  3  0  0  0  0  0  0
  186.0440  178.0880  143.0040 C   0  0  0  0  0  0  0  0  0  0  0  0
  186.1810  178.1690  138.0680 C   0  0  1  0  0  3  0  0  0  0  0  0
  187.9820  176.5040  142.9000 C   0  0  0  0  0  2  0  0  0  0  0  0
  188.9030  176.9380  138.1350 C   0  0  0  0  0  0  0  0  0  0  0  0
  184.0030  178.5810  141.6990 C   0  0  1  0  0  3  0  0  0  0  0  0
  190.6450  174.9370  138.4180 O   0  0  0  0  0  0  0  0  0  0  0  0
  186.8860  177.1170  143.7810 C   0  0  1  0  0  3  0  0  0  0  0  0
  189.2560  178.8010  146.2290 O   0  0  0  0  0  1  0  0  0  0  0  0
  188.9490  178.2780  141.4060 C   0  0  0  0  0  2  0  0  0  0  0  0
  184.6610  179.4210  139.6090 C   0  0  0  0  0  2  0  0  0  0  0  0
  182.2230  178.7410  143.4920 C   0  0  0  0  0  3  0  0  0  0  0  0
  182.5850  178.4610  142.1650 C   0  0  0  0  0  0  0  0  0  0  0  0
  181.5920  178.1170  141.2400 C   0  0  0  0  0  3  0  0  0  0  0  0
  179.2750  177.6900  140.7150 O   0  0  0  0  0  1  0  0  0  0  0  0
  179.9020  178.3020  142.9640 C   0  0  0  0  0  3  0  0  0  0  0  0
  180.2550  178.0360  141.6380 C   0  0  0  0  0  0  0  0  0  0  0  0
  180.8850  178.6560  143.8910 C   0  0  0  0  0  3  0  0  0  0  0  0
  191.5890  177.6810  144.4960 C   0  0  0  0  0  1  0  0  0  0  0  0
  190.8860  178.7490  143.9130 O   0  0  0  0  0  0  0  0  0  0  0  0
  1 27  1  6  0  0  0
  1 21  1  0  0  0  0
  1  4  1  0  0  0  0
  2 17  1  0  0  0  0
  3  9  2  0  0  0  0
  4 37  1  1  0  0  0
  4 12  1  0  0  0  0
  5 19  2  0  0  0  0
  6 22  2  0  0  0  0
  7 19  1  0  0  0  0
 10 23  1  0  0  0  0
 11 16  2  0  0  0  0
 11  6  1  0  0  0  0
 12 26  1  1  0  0  0
 13 17  1  6  0  0  0
 13  1  1  0  0  0  0
 14  2  2  0  0  0  0
 15 28  1  0  0  0  0
 18 12  1  0  0  0  0
 18  8  1  6  0  0  0
 19 25  1  0  0  0  0
 20 16  1  6  0  0  0
 20 15  1  0  0  0  0
 20  3  1  0  0  0  0
 22  9  1  0  0  0  0
 22  2  1  0  0  0  0
 23 30  1  1  0  0  0
 23  5  1  0  0  0  0
 24  2  2  0  0  0  0
 25 21  1  6  0  0  0
 25 18  1  0  0  0  0
 27 13  1  0  0  0  0
 28 10  1  0  0  0  0
 29 35  1  0  0  0  0
 30 29  2  0  0  0  0
 31 34  2  0  0  0  0
 31 30  1  0  0  0  0
 32 34  1  0  0  0  0
 33 35  2  0  0  0  0
 34 33  1  0  0  0  0
 37 36  1  0  0  0  0
M  END
>  <MODEL>
1

>  <REMARK>
 VINA RESULT:      -7.1      0.000      0.000
  Name = 
  2 active torsions:
  status: ('A' for Active; 'I' for Inactive)
    1  A    between atoms: C_5  and  O_23
    2  A    between atoms: C_6  and  C_31
                            x       y       z     vdW  Elec       q    Type
                         _______ _______ _______ _____ _____    ______ ____

>  <TORSDO>
F 2

$$$$
=
 OpenBabel10262422513D

 37 41  0  0  1  0  0  0  0  0999 V2000
  190.3820  176.9880  140.2290 C   0  0  1  0  0  0  0  0  0  0  0  0
  189.2240  175.6440  136.5950 S   0  0  0  0  0  0  0  0  0  0  0  0
  186.6560  178.6170  137.2960 C   0  0  0  0  0  3  0  0  0  0  0  0
  191.4130  177.8780  140.9500 C   0  0  1  0  0  3  0  0  0  0  0  0
  186.7530  177.6260  142.3640 C   0  0  0  0  0  3  0  0  0  0  0  0
  186.5730  175.7090  136.3030 C   0  0  0  0  0  3  0  0  0  0  0  0
  188.3980  179.1660  141.6440 O   0  0  0  0  0  1  0  0  0  0  0  0
  190.0270  178.5270  143.9130 O   0  0  0  0  0  1  0  0  0  0  0  0
  187.6410  177.9200  136.7280 C   0  0  0  0  0  3  0  0  0  0  0  0
  184.9550  178.2780  140.8870 N   0  0  0  0  0  2  0  0  0  0  0  0
  185.1770  176.1850  136.2110 C   0  0  0  0  0  3  0  0  0  0  0  0
  191.6180  177.4480  142.4130 C   0  0  2  0  0  3  0  0  0  0  0  0
  190.5550  176.7090  138.7350 C   0  0  1  0  0  3  0  0  0  0  0  0
  190.2150  176.4320  135.7850 O   0  0  0  0  0  0  0  0  0  0  0  0
  184.5800  178.9960  138.5940 C   0  0  0  0  0  2  0  0  0  0  0  0
  184.6730  177.2120  136.8960 C   0  0  0  0  0  3  0  0  0  0  0  0
  189.7880  175.4710  138.2810 C   0  0  0  0  0  2  0  0  0  0  0  0
  190.2980  177.3480  143.2070 C   0  0  2  0  0  3  0  0  0  0  0  0
  188.0310  177.9130  142.1330 C   0  0  0  0  0  0  0  0  0  0  0  0
  185.4620  177.9630  137.9150 C   0  0  1  0  0  3  0  0  0  0  0  0
  189.4510  176.1300  141.0930 C   0  0  0  0  0  2  0  0  0  0  0  0
  187.6610  176.4490  136.5720 C   0  0  0  0  0  0  0  0  0  0  0  0
  185.6610  178.6170  142.1140 C   0  0  1  0  0  3  0  0  0  0  0  0
  189.0920  174.2750  135.9870 O   0  0  0  0  0  0  0  0  0  0  0  0
  189.0710  176.8600  142.3880 C   0  0  1  0  0  3  0  0  0  0  0  0
  192.5290  178.2890  143.0550 O   0  0  0  0  0  1  0  0  0  0  0  0
  189.6000  177.7870  139.2080 C   0  0  0  0  0  2  0  0  0  0  0  0
  185.1450  179.3760  139.9540 C   0  0  0  0  0  2  0  0  0  0  0  0
  183.3300  178.6340  143.1020 C   0  0  0  0  0  3  0  0  0  0  0  0
  184.7220  178.6510  143.2800 C   0  0  0  0  0  0  0  0  0  0  0  0
  185.2490  178.6420  144.5770 C   0  0  0  0  0  3  0  0  0  0  0  0
  184.9270  178.6280  146.9680 O   0  0  0  0  0  1  0  0  0  0  0  0
  183.0110  178.6300  145.5010 C   0  0  0  0  0  3  0  0  0  0  0  0
  184.3970  178.6330  145.6840 C   0  0  0  0  0  0  0  0  0  0  0  0
  182.4770  178.6300  144.2100 C   0  0  0  0  0  3  0  0  0  0  0  0
  193.3320  176.8430  140.2180 C   0  0  0  0  0  1  0  0  0  0  0  0
  192.6220  178.0560  140.2340 O   0  0  0  0  0  0  0  0  0  0  0  0
  1 27  1  6  0  0  0
  1  4  1  0  0  0  0
  1 21  1  0  0  0  0
  2 17  1  0  0  0  0
  3 20  1  0  0  0  0
  4 37  1  6  0  0  0
  4 12  1  0  0  0  0
  6 22  2  0  0  0  0
  7 19  1  0  0  0  0
  9  3  2  0  0  0  0
 10 23  1  0  0  0  0
 11  6  1  0  0  0  0
 11 16  2  0  0  0  0
 12 26  1  1  0  0  0
 12 18  1  0  0  0  0
 13 17  1  1  0  0  0
 13 27  1  0  0  0  0
 13  1  1  0  0  0  0
 14  2  2  0  0  0  0
 15 28  1  0  0  0  0
 18  8  1  6  0  0  0
 19  5  2  0  0  0  0
 19 25  1  0  0  0  0
 20 16  1  6  0  0  0
 20 15  1  0  0  0  0
 22  2  1  0  0  0  0
 22  9  1  0  0  0  0
 23  5  1  0  0  0  0
 23 30  1  1  0  0  0
 24  2  2  0  0  0  0
 25 21  1  6  0  0  0
 25 18  1  0  0  0  0
 28 10  1  0  0  0  0
 29 30  2  0  0  0  0
 29 35  1  0  0  0  0
 30 31  1  0  0  0  0
 31 34  2  0  0  0  0
 33 34  1  0  0  0  0
 34 32  1  0  0  0  0
 35 33  2  0  0  0  0
 36 37  1  0  0  0  0
M  END
>  <MODEL>
2

>  <REMARK>
 VINA RESULT:      -7.0      2.225      3.189
  Name = 
  2 active torsions:
  status: ('A' for Active; 'I' for Inactive)
    1  A    between atoms: C_5  and  O_23
    2  A    between atoms: C_6  and  C_31
                            x       y       z     vdW  Elec       q    Type
                         _______ _______ _______ _____ _____    ______ ____

>  <TORSDO>
F 2

$$$$
=
 OpenBabel10262422513D

 37 41  0  0  1  0  0  0  0  0999 V2000
  187.4120  176.6210  136.8390 C   0  0  1  0  0  0  0  0  0  0  0  0
  183.3860  176.4100  137.1600 S   0  0  0  0  0  0  0  0  0  0  0  0
  184.3340  179.2530  139.7960 C   0  0  0  0  0  3  0  0  0  0  0  0
  188.5580  177.2030  135.9890 C   0  0  1  0  0  3  0  0  0  0  0  0
  188.8130  176.9060  140.8500 C   0  0  0  0  0  3  0  0  0  0  0  0
  182.5660  176.7420  139.6770 C   0  0  0  0  0  3  0  0  0  0  0  0
  188.9280  178.4630  139.0730 O   0  0  0  0  0  1  0  0  0  0  0  0
  191.2170  177.1120  138.0020 O   0  0  0  0  0  1  0  0  0  0  0  0
  183.8170  178.6690  138.7140 C   0  0  0  0  0  3  0  0  0  0  0  0
  187.2330  178.0640  142.2650 N   0  0  0  0  0  2  0  0  0  0  0  0
  182.3160  177.3220  141.0120 C   0  0  0  0  0  3  0  0  0  0  0  0
  189.8490  176.3750  136.1230 C   0  0  2  0  0  3  0  0  0  0  0  0
  185.9730  176.7500  136.3370 C   0  0  1  0  0  3  0  0  0  0  0  0
  183.0630  177.3170  136.0060 O   0  0  0  0  0  0  0  0  0  0  0  0
  185.2120  179.4080  142.1080 C   0  0  0  0  0  2  0  0  0  0  0  0
  183.1390  178.1560  141.6490 C   0  0  0  0  0  3  0  0  0  0  0  0
  185.0340  175.7420  136.9910 C   0  0  0  0  0  2  0  0  0  0  0  0
  190.2810  176.1560  137.5880 C   0  0  2  0  0  3  0  0  0  0  0  0
  188.9510  177.1540  139.5510 C   0  0  0  0  0  0  0  0  0  0  0  0
  184.4730  178.5410  141.1040 C   0  0  1  0  0  3  0  0  0  0  0  0
  187.7780  175.6280  137.9480 C   0  0  0  0  0  2  0  0  0  0  0  0
  183.2580  177.3000  138.6710 C   0  0  0  0  0  0  0  0  0  0  0  0
  188.6260  178.0030  141.8500 C   0  0  1  0  0  3  0  0  0  0  0  0
  182.4020  175.2730  137.1630 O   0  0  0  0  0  0  0  0  0  0  0  0
  189.1140  176.0000  138.6040 C   0  0  1  0  0  3  0  0  0  0  0  0
  190.8810  176.9410  135.3730 O   0  0  0  0  0  1  0  0  0  0  0  0
  186.5160  177.7220  137.3650 C   0  0  0  0  0  2  0  0  0  0  0  0
  186.7120  179.3590  141.8610 C   0  0  0  0  0  2  0  0  0  0  0  0
  190.9100  178.0000  142.9440 C   0  0  0  0  0  3  0  0  0  0  0  0
  189.5260  177.7830  143.0270 C   0  0  0  0  0  0  0  0  0  0  0  0
  188.9620  177.4060  144.2510 C   0  0  0  0  0  3  0  0  0  0  0  0
  189.2060  176.8520  146.5880 O   0  0  0  0  0  1  0  0  0  0  0  0
  191.1510  177.4350  145.2850 C   0  0  0  0  0  3  0  0  0  0  0  0
  189.7720  177.2300  145.3760 C   0  0  0  0  0  0  0  0  0  0  0  0
  191.7200  177.8210  144.0690 C   0  0  0  0  0  3  0  0  0  0  0  0
  187.5540  178.7310  134.5960 C   0  0  0  0  0  1  0  0  0  0  0  0
  188.1970  177.4840  134.6490 O   0  0  0  0  0  0  0  0  0  0  0  0
  1 27  1  1  0  0  0
  1 21  1  0  0  0  0
  2 24  2  0  0  0  0
  2 22  1  0  0  0  0
  4 37  1  6  0  0  0
  4 12  1  0  0  0  0
  4  1  1  0  0  0  0
  5 23  1  0  0  0  0
  6 11  1  0  0  0  0
  7 19  1  0  0  0  0
  9  3  2  0  0  0  0
 11 16  2  0  0  0  0
 12 26  1  6  0  0  0
 12 18  1  0  0  0  0
 13  1  1  0  0  0  0
 13 17  1  1  0  0  0
 13 27  1  0  0  0  0
 14  2  2  0  0  0  0
 17  2  1  0  0  0  0
 18  8  1  1  0  0  0
 18 25  1  0  0  0  0
 19  5  2  0  0  0  0
 20  3  1  6  0  0  0
 20 16  1  0  0  0  0
 20 15  1  0  0  0  0
 22  9  1  0  0  0  0
 22  6  2  0  0  0  0
 23 10  1  0  0  0  0
 23 30  1  1  0  0  0
 25 21  1  6  0  0  0
 25 19  1  0  0  0  0
 28 15  1  0  0  0  0
 28 10  1  0  0  0  0
 29 30  2  0  0  0  0
 29 35  1  0  0  0  0
 30 31  1  0  0  0  0
 31 34  2  0  0  0  0
 33 34  1  0  0  0  0
 34 32  1  0  0  0  0
 35 33  2  0  0  0  0
 36 37  1  0  0  0  0
M  END
>  <MODEL>
3

>  <REMARK>
 VINA RESULT:      -6.6      2.549      7.403
  Name = 
  2 active torsions:
  status: ('A' for Active; 'I' for Inactive)
    1  A    between atoms: C_5  and  O_23
    2  A    between atoms: C_6  and  C_31
                            x       y       z     vdW  Elec       q    Type
                         _______ _______ _______ _____ _____    ______ ____

>  <TORSDO>
F 2

$$$$
=
 OpenBabel10262422513D

 37 41  0  0  1  0  0  0  0  0999 V2000
  190.0480  176.7340  139.3440 C   0  0  1  0  0  0  0  0  0  0  0  0
  187.6580  175.5100  136.3200 S   0  0  0  0  0  0  0  0  0  0  0  0
  185.5960  178.5360  137.9050 C   0  0  0  0  0  3  0  0  0  0  0  0
  191.2960  177.5770  139.6730 C   0  0  1  0  0  3  0  0  0  0  0  0
  187.4070  177.4230  142.6120 C   0  0  0  0  0  3  0  0  0  0  0  0
  185.0740  175.6570  136.9670 C   0  0  0  0  0  3  0  0  0  0  0  0
  188.7530  178.9320  141.3860 O   0  0  0  0  0  1  0  0  0  0  0  0
  191.0440  178.1950  142.9420 O   0  0  0  0  0  1  0  0  0  0  0  0
  186.2990  177.8260  137.0220 C   0  0  0  0  0  3  0  0  0  0  0  0
  185.2330  178.1600  141.8590 N   0  0  0  0  0  2  0  0  0  0  0  0
  183.7500  176.1730  137.3700 C   0  0  0  0  0  3  0  0  0  0  0  0
  191.9790  177.1070  140.9700 C   0  0  2  0  0  3  0  0  0  0  0  0
  189.6840  176.4860  137.8790 C   0  0  1  0  0  3  0  0  0  0  0  0
  188.3340  176.2890  135.2260 O   0  0  0  0  0  0  0  0  0  0  0  0
  184.1120  178.9420  139.8470 C   0  0  0  0  0  2  0  0  0  0  0  0
  183.5500  177.1970  138.2000 C   0  0  0  0  0  3  0  0  0  0  0  0
  188.7650  175.2810  137.7030 C   0  0  0  0  0  2  0  0  0  0  0  0
  191.0130  177.0260  142.1700 C   0  0  2  0  0  3  0  0  0  0  0  0
  188.5350  177.6790  141.9560 C   0  0  0  0  0  0  0  0  0  0  0  0
  184.6680  177.9020  138.8910 C   0  0  1  0  0  3  0  0  0  0  0  0
  189.4450  175.8830  140.4660 C   0  0  0  0  0  2  0  0  0  0  0  0
  186.2130  176.3590  136.8500 C   0  0  0  0  0  0  0  0  0  0  0  0
  186.3310  178.4500  142.7690 C   0  0  1  0  0  3  0  0  0  0  0  0
  187.2770  174.1600  135.7780 O   0  0  0  0  0  0  0  0  0  0  0  0
  189.5620  176.5910  141.8210 C   0  0  1  0  0  3  0  0  0  0  0  0
  193.0850  177.9070  141.2660 O   0  0  0  0  0  1  0  0  0  0  0  0
  188.9890  177.5780  138.6670 C   0  0  0  0  0  2  0  0  0  0  0  0
  185.1260  179.2740  140.9320 C   0  0  0  0  0  2  0  0  0  0  0  0
  184.5230  178.7860  144.5100 C   0  0  0  0  0  3  0  0  0  0  0  0
  185.8550  178.4820  144.1880 C   0  0  0  0  0  0  0  0  0  0  0  0
  186.7490  178.1450  145.2120 C   0  0  0  0  0  3  0  0  0  0  0  0
  187.2170  177.7970  147.5540 O   0  0  0  0  0  1  0  0  0  0  0  0
  184.9990  178.4460  146.8580 C   0  0  0  0  0  3  0  0  0  0  0  0
  186.3230  178.1290  146.5420 C   0  0  0  0  0  0  0  0  0  0  0  0
  184.0990  178.7730  145.8420 C   0  0  0  0  0  3  0  0  0  0  0  0
  192.8860  176.5370  138.3800 C   0  0  0  0  0  1  0  0  0  0  0  0
  192.1870  177.7380  138.5840 O   0  0  0  0  0  0  0  0  0  0  0  0
  1 27  1  1  0  0  0
  1  4  1  0  0  0  0
  1 21  1  0  0  0  0
  2 22  1  0  0  0  0
  2 17  1  0  0  0  0
  4 37  1  6  0  0  0
  4 12  1  0  0  0  0
  5 23  1  0  0  0  0
  6 11  1  0  0  0  0
  7 19  1  0  0  0  0
  9  3  2  0  0  0  0
 10 23  1  0  0  0  0
 11 16  2  0  0  0  0
 12 26  1  1  0  0  0
 12 18  1  0  0  0  0
 13 17  1  1  0  0  0
 13 27  1  0  0  0  0
 13  1  1  0  0  0  0
 14  2  2  0  0  0  0
 15 28  1  0  0  0  0
 16 20  1  0  0  0  0
 18  8  1  6  0  0  0
 19  5  2  0  0  0  0
 20  3  1  6  0  0  0
 20 15  1  0  0  0  0
 22  6  2  0  0  0  0
 22  9  1  0  0  0  0
 23 30  1  1  0  0  0
 24  2  2  0  0  0  0
 25 21  1  6  0  0  0
 25 19  1  0  0  0  0
 25 18  1  0  0  0  0
 28 10  1  0  0  0  0
 29 35  1  0  0  0  0
 30 29  2  0  0  0  0
 30 31  1  0  0  0  0
 31 34  2  0  0  0  0
 34 33  1  0  0  0  0
 34 32  1  0  0  0  0
 35 33  2  0  0  0  0
 36 37  1  0  0  0  0
M  END
>  <MODEL>
4

>  <REMARK>
 VINA RESULT:      -6.5      2.647      4.390
  Name = 
  2 active torsions:
  status: ('A' for Active; 'I' for Inactive)
    1  A    between atoms: C_5  and  O_23
    2  A    between atoms: C_6  and  C_31
                            x       y       z     vdW  Elec       q    Type
                         _______ _______ _______ _____ _____    ______ ____

>  <TORSDO>
F 2

$$$$
=
 OpenBabel10262422513D

 37 41  0  0  1  0  0  0  0  0999 V2000
  183.5510  178.3330  139.4160 C   0  0  1  0  0  0  0  0  0  0  0  0
  185.0030  178.6250  143.1790 S   0  0  0  0  0  0  0  0  0  0  0  0
  188.3150  178.6290  140.9520 C   0  0  0  0  0  3  0  0  0  0  0  0
  182.9260  179.1420  138.2630 C   0  0  1  0  0  3  0  0  0  0  0  0
  186.0930  175.5160  137.4820 C   0  0  0  0  0  3  0  0  0  0  0  0
  187.2660  177.2450  143.4880 C   0  0  0  0  0  3  0  0  0  0  0  0
  185.7660  177.8210  137.0670 O   0  0  0  0  0  1  0  0  0  0  0  0
  183.3970  177.2420  135.5620 O   0  0  0  0  0  1  0  0  0  0  0  0
  187.3620  179.0580  141.7810 C   0  0  0  0  0  3  0  0  0  0  0  0
  188.3450  175.6050  138.3520 N   0  0  0  0  0  2  0  0  0  0  0  0
  188.6550  176.7650  143.3380 C   0  0  0  0  0  3  0  0  0  0  0  0
  182.0710  178.2560  137.3390 C   0  0  2  0  0  3  0  0  0  0  0  0
  183.7610  179.0090  140.7720 C   0  0  1  0  0  3  0  0  0  0  0  0
  184.8600  180.1160  143.3140 O   0  0  0  0  0  0  0  0  0  0  0  0
  189.7500  176.9880  139.7760 C   0  0  0  0  0  2  0  0  0  0  0  0
  189.3460  176.7710  142.1970 C   0  0  0  0  0  3  0  0  0  0  0  0
  183.9130  178.0030  141.9080 C   0  0  0  0  0  2  0  0  0  0  0  0
  182.8250  177.0140  136.8200 C   0  0  2  0  0  3  0  0  0  0  0  0
  185.2810  176.5690  137.4400 C   0  0  0  0  0  0  0  0  0  0  0  0
  188.7500  177.2000  140.8980 C   0  0  1  0  0  3  0  0  0  0  0  0
  183.5940  176.8070  139.2770 C   0  0  0  0  0  2  0  0  0  0  0  0
  186.6680  178.2200  142.7840 C   0  0  0  0  0  0  0  0  0  0  0  0
  187.5440  175.6210  137.1370 C   0  0  1  0  0  3  0  0  0  0  0  0
  184.6300  177.9890  144.4890 O   0  0  0  0  0  0  0  0  0  0  0  0
  183.8390  176.3920  137.8210 C   0  0  1  0  0  3  0  0  0  0  0  0
  181.5450  179.0040  136.2840 O   0  0  0  0  0  1  0  0  0  0  0  0
  184.9090  178.8860  139.7900 C   0  0  0  0  0  2  0  0  0  0  0  0
  189.0400  176.8780  138.4350 C   0  0  0  0  0  2  0  0  0  0  0  0
  189.0770  174.5820  135.4100 C   0  0  0  0  0  3  0  0  0  0  0  0
  187.9360  174.5010  136.2240 C   0  0  0  0  0  0  0  0  0  0  0  0
  187.1770  173.3250  136.2260 C   0  0  0  0  0  3  0  0  0  0  0  0
  186.7810  171.0860  135.4160 O   0  0  0  0  0  1  0  0  0  0  0  0
  188.6710  172.3400  134.5940 C   0  0  0  0  0  3  0  0  0  0  0  0
  187.5410  172.2490  135.4120 C   0  0  0  0  0  0  0  0  0  0  0  0
  189.4390  173.5070  134.5940 C   0  0  0  0  0  3  0  0  0  0  0  0
  181.0470  179.9960  139.2750 C   0  0  0  0  0  1  0  0  0  0  0  0
  182.2750  180.3290  138.6780 O   0  0  0  0  0  0  0  0  0  0  0  0
  1 21  1  6  0  0  0
  1 27  1  0  0  0  0
  1 13  1  0  0  0  0
  2 14  2  0  0  0  0
  2 24  2  0  0  0  0
  3  9  2  0  0  0  0
  4 37  1  1  0  0  0
  4  1  1  0  0  0  0
  7 19  1  0  0  0  0
  9 22  1  0  0  0  0
 10 28  1  0  0  0  0
 11  6  1  0  0  0  0
 12 26  1  6  0  0  0
 12  4  1  0  0  0  0
 13 27  1  6  0  0  0
 13 17  1  0  0  0  0
 16 11  2  0  0  0  0
 17  2  1  0  0  0  0
 18  8  1  6  0  0  0
 18 12  1  0  0  0  0
 18 25  1  0  0  0  0
 19  5  2  0  0  0  0
 19 25  1  0  0  0  0
 20 15  1  6  0  0  0
 20  3  1  0  0  0  0
 20 16  1  0  0  0  0
 22  2  1  0  0  0  0
 22  6  2  0  0  0  0
 23 30  1  6  0  0  0
 23  5  1  0  0  0  0
 23 10  1  0  0  0  0
 25 21  1  1  0  0  0
 28 15  1  0  0  0  0
 29 30  1  0  0  0  0
 30 31  2  0  0  0  0
 33 34  2  0  0  0  0
 34 32  1  0  0  0  0
 34 31  1  0  0  0  0
 35 33  1  0  0  0  0
 35 29  2  0  0  0  0
 37 36  1  0  0  0  0
M  END
>  <MODEL>
5

>  <REMARK>
 VINA RESULT:      -6.3      3.274      8.317
  Name = 
  2 active torsions:
  status: ('A' for Active; 'I' for Inactive)
    1  A    between atoms: C_5  and  O_23
    2  A    between atoms: C_6  and  C_31
                            x       y       z     vdW  Elec       q    Type
                         _______ _______ _______ _____ _____    ______ ____

>  <TORSDO>
F 2

$$$$
=
 OpenBabel10262422513D

 37 41  0  0  1  0  0  0  0  0999 V2000
  186.0960  177.7450  137.5510 C   0  0  1  0  0  0  0  0  0  0  0  0
  182.5960  176.0460  136.4490 S   0  0  0  0  0  0  0  0  0  0  0  0
  181.4880  178.5450  139.3560 C   0  0  0  0  0  3  0  0  0  0  0  0
  187.1170  178.8360  137.1740 C   0  0  1  0  0  3  0  0  0  0  0  0
  185.9770  177.8270  141.8070 C   0  0  0  0  0  3  0  0  0  0  0  0
  180.9880  175.6260  138.5360 C   0  0  0  0  0  3  0  0  0  0  0  0
  185.9990  179.5990  140.2410 O   0  0  0  0  0  1  0  0  0  0  0  0
  188.8430  179.3670  139.9790 O   0  0  0  0  0  1  0  0  0  0  0  0
  181.6000  178.0090  138.1410 C   0  0  0  0  0  3  0  0  0  0  0  0
  183.7190  178.0780  142.6290 N   0  0  0  0  0  2  0  0  0  0  0  0
  180.1350  175.8410  139.7230 C   0  0  0  0  0  3  0  0  0  0  0  0
  188.5220  178.5190  137.7150 C   0  0  2  0  0  3  0  0  0  0  0  0
  184.9520  177.4300  136.5870 C   0  0  1  0  0  3  0  0  0  0  0  0
  182.3070  176.9590  135.2900 O   0  0  0  0  0  0  0  0  0  0  0  0
  181.4830  178.6100  141.8330 C   0  0  0  0  0  2  0  0  0  0  0  0
  180.3240  176.7930  140.6370 C   0  0  0  0  0  3  0  0  0  0  0  0
  184.3390  176.0560  136.8360 C   0  0  0  0  0  2  0  0  0  0  0  0
  188.5380  178.2240  139.2300 C   0  0  2  0  0  3  0  0  0  0  0  0
  186.3940  178.3250  140.6460 C   0  0  0  0  0  0  0  0  0  0  0  0
  181.4920  177.7200  140.6030 C   0  0  1  0  0  3  0  0  0  0  0  0
  186.4700  176.7760  138.6790 C   0  0  0  0  0  2  0  0  0  0  0  0
  181.6720  176.5590  137.8550 C   0  0  0  0  0  0  0  0  0  0  0  0
  185.0760  178.5950  142.7210 C   0  0  1  0  0  3  0  0  0  0  0  0
  182.1940  174.6490  136.0670 O   0  0  0  0  0  0  0  0  0  0  0  0
  187.2800  177.4870  139.7710 C   0  0  1  0  0  3  0  0  0  0  0  0
  189.4200  179.5380  137.3920 O   0  0  0  0  0  1  0  0  0  0  0  0
  184.7240  178.3420  137.7760 C   0  0  0  0  0  2  0  0  0  0  0  0
  182.8770  179.1470  142.1200 C   0  0  0  0  0  2  0  0  0  0  0  0
  184.8360  179.0110  145.2070 C   0  0  0  0  0  3  0  0  0  0  0  0
  185.5840  178.5160  144.1280 C   0  0  0  0  0  0  0  0  0  0  0  0
  186.8090  177.8830  144.3730 C   0  0  0  0  0  3  0  0  0  0  0  0
  188.5070  177.1340  145.9150 O   0  0  0  0  0  1  0  0  0  0  0  0
  186.5470  178.2660  146.7490 C   0  0  0  0  0  3  0  0  0  0  0  0
  187.2900  177.7600  145.6790 C   0  0  0  0  0  0  0  0  0  0  0  0
  185.3200  178.8900  146.5140 C   0  0  0  0  0  3  0  0  0  0  0  0
  187.6100  178.1260  135.0440 C   0  0  0  0  0  1  0  0  0  0  0  0
  187.1000  179.1920  135.8030 O   0  0  0  0  0  0  0  0  0  0  0  0
  1 27  1  1  0  0  0
  1 21  1  0  0  0  0
  2 17  1  0  0  0  0
  2 22  1  0  0  0  0
  4 37  1  6  0  0  0
  4  1  1  0  0  0  0
  4 12  1  0  0  0  0
  5 23  1  0  0  0  0
  6 11  1  0  0  0  0
  7 19  1  0  0  0  0
  9  3  2  0  0  0  0
 10 23  1  0  0  0  0
 11 16  2  0  0  0  0
 12 26  1  1  0  0  0
 12 18  1  0  0  0  0
 13 17  1  1  0  0  0
 13  1  1  0  0  0  0
 13 27  1  0  0  0  0
 14  2  2  0  0  0  0
 15 28  1  0  0  0  0
 18 25  1  0  0  0  0
 18  8  1  1  0  0  0
 19  5  2  0  0  0  0
 20  3  1  6  0  0  0
 20 16  1  0  0  0  0
 20 15  1  0  0  0  0
 22  9  1  0  0  0  0
 22  6  2  0  0  0  0
 23 30  1  1  0  0  0
 24  2  2  0  0  0  0
 25 21  1  6  0  0  0
 25 19  1  0  0  0  0
 28 10  1  0  0  0  0
 29 35  1  0  0  0  0
 30 31  1  0  0  0  0
 30 29  2  0  0  0  0
 31 34  2  0  0  0  0
 34 32  1  0  0  0  0
 34 33  1  0  0  0  0
 35 33  2  0  0  0  0
 36 37  1  0  0  0  0
M  END
>  <MODEL>
6

>  <REMARK>
 VINA RESULT:      -5.3      2.953      6.564
  Name = 
  2 active torsions:
  status: ('A' for Active; 'I' for Inactive)
    1  A    between atoms: C_5  and  O_23
    2  A    between atoms: C_6  and  C_31
                            x       y       z     vdW  Elec       q    Type
                         _______ _______ _______ _____ _____    ______ ____

>  <TORSDO>
F 2

$$$$
=
 OpenBabel10262422513D

 37 41  0  0  1  0  0  0  0  0999 V2000
  185.6540  178.4190  142.6380 C   0  0  1  0  0  0  0  0  0  0  0  0
  189.4730  177.1080  142.4220 S   0  0  0  0  0  0  0  0  0  0  0  0
  188.9390  178.8600  138.8770 C   0  0  0  0  0  3  0  0  0  0  0  0
  184.7600  179.5480  143.1880 C   0  0  1  0  0  3  0  0  0  0  0  0
  183.9620  177.4820  138.8440 C   0  0  0  0  0  3  0  0  0  0  0  0
  190.0930  176.2330  139.9790 C   0  0  0  0  0  3  0  0  0  0  0  0
  184.3830  179.5770  139.8580 O   0  0  0  0  0  1  0  0  0  0  0  0
  181.9640  179.3560  141.3790 O   0  0  0  0  0  1  0  0  0  0  0  0
  189.4160  178.6280  140.1000 C   0  0  0  0  0  3  0  0  0  0  0  0
  185.6160  177.5760  137.0850 N   0  0  0  0  0  2  0  0  0  0  0  0
  190.3340  176.1750  138.5230 C   0  0  0  0  0  3  0  0  0  0  0  0
  183.3090  179.0810  143.3950 C   0  0  2  0  0  3  0  0  0  0  0  0
  187.1270  178.3690  143.0460 C   0  0  1  0  0  3  0  0  0  0  0  0
  190.1070  178.2770  143.1220 O   0  0  0  0  0  0  0  0  0  0  0  0
  187.8950  178.3290  136.6940 C   0  0  0  0  0  2  0  0  0  0  0  0
  189.6630  176.8760  137.6090 C   0  0  0  0  0  3  0  0  0  0  0  0
  187.7410  176.9880  142.8440 C   0  0  0  0  0  2  0  0  0  0  0  0
  182.6940  178.4320  142.1380 C   0  0  2  0  0  3  0  0  0  0  0  0
  184.0140  178.2350  139.9390 C   0  0  0  0  0  0  0  0  0  0  0  0
  188.5130  177.7600  137.9580 C   0  0  1  0  0  3  0  0  0  0  0  0
  184.9630  177.2020  142.0140 C   0  0  0  0  0  2  0  0  0  0  0  0
  189.6490  177.2880  140.6820 C   0  0  0  0  0  0  0  0  0  0  0  0
  184.2930  178.0280  137.4910 C   0  0  1  0  0  3  0  0  0  0  0  0
  190.1670  175.8510  142.8690 O   0  0  0  0  0  0  0  0  0  0  0  0
  183.6880  177.6130  141.2660 C   0  0  1  0  0  3  0  0  0  0  0  0
  182.5120  180.1290  143.8610 O   0  0  0  0  0  1  0  0  0  0  0  0
  186.7190  178.9740  141.7170 C   0  0  0  0  0  2  0  0  0  0  0  0
  186.4550  178.7530  136.9410 C   0  0  0  0  0  2  0  0  0  0  0  0
  183.5440  176.6780  135.4840 C   0  0  0  0  0  3  0  0  0  0  0  0
  183.2550  177.6030  136.4990 C   0  0  0  0  0  0  0  0  0  0  0  0
  181.9520  178.1010  136.6240 C   0  0  0  0  0  3  0  0  0  0  0  0
  179.6630  178.1930  135.8650 O   0  0  0  0  0  1  0  0  0  0  0  0
  181.2500  176.7810  134.7190 C   0  0  0  0  0  3  0  0  0  0  0  0
  180.9530  177.6930  135.7370 C   0  0  0  0  0  0  0  0  0  0  0  0
  182.5450  176.2730  134.5940 C   0  0  0  0  0  3  0  0  0  0  0  0
  185.2570  179.3750  145.4270 C   0  0  0  0  0  1  0  0  0  0  0  0
  185.3080  180.2220  144.3080 O   0  0  0  0  0  0  0  0  0  0  0  0
  1 27  1  6  0  0  0
  1 13  1  0  0  0  0
  1  4  1  0  0  0  0
  2 17  1  0  0  0  0
  2 24  2  0  0  0  0
  2 14  2  0  0  0  0
  3  9  2  0  0  0  0
  4 12  1  0  0  0  0
  4 37  1  1  0  0  0
  5 19  2  0  0  0  0
  6 22  2  0  0  0  0
  7 19  1  0  0  0  0
  9 22  1  0  0  0  0
 10 23  1  0  0  0  0
 11  6  1  0  0  0  0
 12 26  1  6  0  0  0
 13 27  1  6  0  0  0
 15 28  1  0  0  0  0
 16 20  1  0  0  0  0
 16 11  2  0  0  0  0
 17 13  1  0  0  0  0
 18  8  1  6  0  0  0
 18 12  1  0  0  0  0
 19 25  1  0  0  0  0
 20 15  1  6  0  0  0
 20  3  1  0  0  0  0
 21  1  1  0  0  0  0
 22  2  1  0  0  0  0
 23 30  1  6  0  0  0
 23  5  1  0  0  0  0
 25 21  1  1  0  0  0
 25 18  1  0  0  0  0
 28 10  1  0  0  0  0
 29 30  1  0  0  0  0
 30 31  2  0  0  0  0
 33 34  2  0  0  0  0
 34 32  1  0  0  0  0
 34 31  1  0  0  0  0
 35 33  1  0  0  0  0
 35 29  2  0  0  0  0
 37 36  1  0  0  0  0
M  END
>  <MODEL>
7

>  <REMARK>
 VINA RESULT:      -4.6      2.588      4.903
  Name = 
  2 active torsions:
  status: ('A' for Active; 'I' for Inactive)
    1  A    between atoms: C_5  and  O_23
    2  A    between atoms: C_6  and  C_31
                            x       y       z     vdW  Elec       q    Type
                         _______ _______ _______ _____ _____    ______ ____

>  <TORSDO>
F 2

$$$$
=
 OpenBabel10262422513D

 37 41  0  0  1  0  0  0  0  0999 V2000
  185.0510  174.1210  136.1640 C   0  0  1  0  0  0  0  0  0  0  0  0
  188.9320  175.1810  135.7580 S   0  0  0  0  0  0  0  0  0  0  0  0
  187.9360  176.8010  139.2670 C   0  0  0  0  0  3  0  0  0  0  0  0
  184.1190  172.9650  136.5760 C   0  0  1  0  0  3  0  0  0  0  0  0
  183.1100  177.6210  137.6190 C   0  0  0  0  0  3  0  0  0  0  0  0
  189.4020  177.6340  136.6970 C   0  0  0  0  0  3  0  0  0  0  0  0
  183.4420  175.5150  138.6430 O   0  0  0  0  0  1  0  0  0  0  0  0
  181.1970  174.4400  137.2220 O   0  0  0  0  0  1  0  0  0  0  0  0
  188.5380  176.0100  138.3780 C   0  0  0  0  0  3  0  0  0  0  0  0
  184.5850  178.9470  138.9990 N   0  0  0  0  0  2  0  0  0  0  0  0
  189.5150  178.8000  137.5960 C   0  0  0  0  0  3  0  0  0  0  0  0
  182.7360  173.0780  135.9100 C   0  0  2  0  0  3  0  0  0  0  0  0
  186.5540  173.8600  136.0490 C   0  0  1  0  0  3  0  0  0  0  0  0
  189.5260  173.9080  136.2960 O   0  0  0  0  0  0  0  0  0  0  0  0
  186.7480  178.8090  140.1020 C   0  0  0  0  0  2  0  0  0  0  0  0
  188.7080  179.0510  138.6270 C   0  0  0  0  0  3  0  0  0  0  0  0
  187.2620  174.9030  135.1900 C   0  0  0  0  0  2  0  0  0  0  0  0
  182.0680  174.4520  136.1250 C   0  0  2  0  0  3  0  0  0  0  0  0
  183.1960  176.2970  137.5170 C   0  0  0  0  0  0  0  0  0  0  0  0
  187.5230  178.2020  138.9460 C   0  0  1  0  0  3  0  0  0  0  0  0
  184.4120  175.3640  135.5350 C   0  0  0  0  0  2  0  0  0  0  0  0
  188.9350  176.4140  137.0110 C   0  0  0  0  0  0  0  0  0  0  0  0
  183.2710  178.3260  138.9290 C   0  0  1  0  0  3  0  0  0  0  0  0
  189.7670  175.6430  134.5970 O   0  0  0  0  0  0  0  0  0  0  0  0
  183.0450  175.6610  136.1650 C   0  0  1  0  0  3  0  0  0  0  0  0
  181.8990  172.0400  136.3250 O   0  0  0  0  0  1  0  0  0  0  0  0
  185.9790  174.4970  137.2990 C   0  0  0  0  0  2  0  0  0  0  0  0
  185.3060  178.3250  140.0960 C   0  0  0  0  0  2  0  0  0  0  0  0
  181.1070  179.1300  139.9690 C   0  0  0  0  0  3  0  0  0  0  0  0
  182.1870  179.3450  139.0990 C   0  0  0  0  0  0  0  0  0  0  0  0
  182.2860  180.5620  138.4150 C   0  0  0  0  0  3  0  0  0  0  0  0
  181.4120  182.7520  137.8990 O   0  0  0  0  0  1  0  0  0  0  0  0
  180.2290  181.3220  139.4420 C   0  0  0  0  0  3  0  0  0  0  0  0
  181.3100  181.5470  138.5840 C   0  0  0  0  0  0  0  0  0  0  0  0
  180.1290  180.1140  140.1350 C   0  0  0  0  0  3  0  0  0  0  0  0
  184.7000  171.2930  135.1080 C   0  0  0  0  0  1  0  0  0  0  0  0
  184.7050  171.6810  136.4580 O   0  0  0  0  0  0  0  0  0  0  0  0
  1 21  1  6  0  0  0
  1  4  1  0  0  0  0
  1 27  1  0  0  0  0
  2 14  2  0  0  0  0
  2 22  1  0  0  0  0
  4 37  1  6  0  0  0
  5 23  1  0  0  0  0
  6 22  2  0  0  0  0
  6 11  1  0  0  0  0
  9  3  2  0  0  0  0
 10 28  1  0  0  0  0
 11 16  2  0  0  0  0
 12 18  1  0  0  0  0
 12 26  1  1  0  0  0
 12  4  1  0  0  0  0
 13 17  1  6  0  0  0
 13  1  1  0  0  0  0
 13 27  1  0  0  0  0
 17  2  1  0  0  0  0
 18 25  1  0  0  0  0
 18  8  1  1  0  0  0
 19  5  2  0  0  0  0
 19  7  1  0  0  0  0
 20 16  1  1  0  0  0
 20  3  1  0  0  0  0
 20 15  1  0  0  0  0
 22  9  1  0  0  0  0
 23 10  1  0  0  0  0
 23 30  1  6  0  0  0
 24  2  2  0  0  0  0
 25 21  1  1  0  0  0
 25 19  1  0  0  0  0
 28 15  1  0  0  0  0
 29 35  1  0  0  0  0
 30 29  2  0  0  0  0
 31 34  2  0  0  0  0
 31 30  1  0  0  0  0
 32 34  1  0  0  0  0
 33 35  2  0  0  0  0
 34 33  1  0  0  0  0
 36 37  1  0  0  0  0
M  END
>  <MODEL>
8

>  <REMARK>
 VINA RESULT:      -4.2      4.202      6.832
  Name = 
  2 active torsions:
  status: ('A' for Active; 'I' for Inactive)
    1  A    between atoms: C_5  and  O_23
    2  A    between atoms: C_6  and  C_31
                            x       y       z     vdW  Elec       q    Type
                         _______ _______ _______ _____ _____    ______ ____

>  <TORSDO>
F 2

$$$$
