=
 OpenBabel10262422013D

 30 33  0  0  1  0  0  0  0  0999 V2000
  182.4420  178.8890  139.7590 C   0  0  2  0  0  3  0  0  0  0  0  0
  184.9150  178.4340  142.3890 C   0  0  0  0  0  2  0  0  0  0  0  0
  180.2880  178.3090  142.1520 C   0  0  0  0  0  2  0  0  0  0  0  0
  180.9710  179.2870  139.4830 C   0  0  1  0  0  3  0  0  0  0  0  0
  181.3580  178.4260  134.5950 C   0  0  0  0  0  2  0  0  0  0  0  0
  180.2630  177.0690  138.4500 C   0  0  0  0  0  2  0  0  0  0  0  0
  178.9330  176.6470  141.1600 O   0  0  0  0  0  1  0  0  0  0  0  0
  180.6230  179.9650  138.1460 C   0  0  2  0  0  3  0  0  0  0  0  0
  184.5640  178.7670  143.8360 C   0  0  0  0  0  2  0  0  0  0  0  0
  180.4510  177.7230  137.1030 C   0  0  0  0  0  0  0  0  0  0  0  0
  180.3520  177.4530  134.7070 O   0  0  0  0  0  0  0  0  0  0  0  0
  183.7540  177.7860  141.6510 C   0  0  0  0  0  2  0  0  0  0  0  0
  181.6110  179.1000  142.2840 C   0  0  2  0  0  3  0  0  0  0  0  0
  183.4460  179.8060  143.9550 C   0  0  0  0  0  2  0  0  0  0  0  0
  182.7530  178.8620  141.2620 C   0  0  2  0  0  3  0  0  0  0  0  0
  181.1750  176.4040  141.0040 O   0  0  0  0  0  1  0  0  0  0  0  0
  180.1330  177.3340  140.9800 C   0  0  0  0  0  0  0  0  0  0  0  0
  180.0630  178.0560  139.6160 C   0  0  1  0  0  3  0  0  0  0  0  0
  180.5190  176.8960  135.9380 N   0  0  0  0  0  2  0  0  0  0  0  0
  181.0580  179.5650  135.5790 C   0  0  0  0  0  2  0  0  0  0  0  0
  182.0550  179.1940  143.7550 C   0  0  2  0  0  3  0  0  0  0  0  0
  181.9540  177.9580  144.4040 O   0  0  0  0  0  1  0  0  0  0  0  0
  180.7510  179.0310  136.9640 C   0  0  0  0  0  0  0  0  0  0  0  0
  181.2510  181.3140  137.9790 C   0  0  0  0  0  3  0  0  0  0  0  0
  180.5310  182.3640  137.6060 C   0  0  0  0  0  3  0  0  0  0  0  0
  181.1640  183.6420  137.4450 C   0  0  0  0  0  0  0  0  0  0  0  0
  181.6960  184.7140  137.3090 C   0  0  0  0  0  3  0  0  0  0  0  0
  183.4860  179.7640  139.0770 C   0  0  0  0  0  2  0  0  0  0  0  0
  184.0190  177.6360  137.9390 C   0  0  0  0  0  1  0  0  0  0  0  0
  184.6050  178.9070  138.5180 C   0  0  0  0  0  2  0  0  0  0  0  0
  1 28  1  6  0  0  0
  1 15  1  0  0  0  0
  2  9  1  0  0  0  0
  3 13  1  0  0  0  0
  4 18  1  0  0  0  0
  4  1  1  0  0  0  0
  5 11  1  0  0  0  0
  5 20  1  0  0  0  0
  6 18  1  0  0  0  0
  8  4  1  0  0  0  0
  9 14  1  0  0  0  0
 10  6  1  0  0  0  0
 11 19  1  0  0  0  0
 12  2  1  0  0  0  0
 13 21  1  0  0  0  0
 15 12  1  0  0  0  0
 15 13  1  0  0  0  0
 17 16  1  0  0  0  0
 17  7  1  0  0  0  0
 17  3  1  0  0  0  0
 18 17  1  0  0  0  0
 19 10  1  0  0  0  0
 20 23  1  0  0  0  0
 21 14  1  0  0  0  0
 21 22  1  0  0  0  0
 23 10  2  0  0  0  0
 23  8  1  0  0  0  0
 24  8  1  0  0  0  0
 25 24  2  0  0  0  0
 26 25  1  0  0  0  0
 27 26  3  0  0  0  0
 29 30  1  0  0  0  0
 30 28  1  0  0  0  0
M  END
>  <MODEL>
1

>  <REMARK>
 VINA RESULT:      -5.3      0.000      0.000
  Name = 
  4 active torsions:
  status: ('A' for Active; 'I' for Inactive)
    1  A    between atoms: C_1  and  C_5
    2  A    between atoms: C_5  and  C_12
    3  A    between atoms: C_6  and  C_13
    4  A    between atoms: C_9  and  C_21
                            x       y       z     vdW  Elec       q    Type
                         _______ _______ _______ _____ _____    ______ ____

>  <TORSDO>
F 4

$$$$
=
 OpenBabel10262422013D

 30 33  0  0  1  0  0  0  0  0999 V2000
  183.3150  177.7680  137.3560 C   0  0  2  0  0  3  0  0  0  0  0  0
  180.0720  179.4180  137.3380 C   0  0  0  0  0  2  0  0  0  0  0  0
  183.3010  178.5230  140.5400 C   0  0  0  0  0  2  0  0  0  0  0  0
  184.3290  177.0170  138.2550 C   0  0  1  0  0  3  0  0  0  0  0  0
  187.6730  176.5750  134.5940 C   0  0  0  0  0  2  0  0  0  0  0  0
  186.2420  178.6760  137.9750 C   0  0  0  0  0  2  0  0  0  0  0  0
  185.4210  179.5380  140.7820 O   0  0  0  0  0  1  0  0  0  0  0  0
  185.2310  175.9440  137.6200 C   0  0  2  0  0  3  0  0  0  0  0  0
  179.2100  179.4270  138.5970 C   0  0  0  0  0  2  0  0  0  0  0  0
  186.8080  177.7330  136.9430 C   0  0  0  0  0  0  0  0  0  0  0  0
  188.5860  177.3140  135.3640 O   0  0  0  0  0  0  0  0  0  0  0  0
  181.5500  179.5890  137.6530 C   0  0  0  0  0  2  0  0  0  0  0  0
  182.0790  178.0860  139.6980 C   0  0  2  0  0  3  0  0  0  0  0  0
  179.5100  178.2540  139.5330 C   0  0  0  0  0  2  0  0  0  0  0  0
  182.1040  178.2660  138.1580 C   0  0  2  0  0  3  0  0  0  0  0  0
  184.1420  180.1840  139.0330 O   0  0  0  0  0  1  0  0  0  0  0  0
  184.5260  179.0890  139.8120 C   0  0  0  0  0  0  0  0  0  0  0  0
  185.2500  178.0240  138.9590 C   0  0  1  0  0  3  0  0  0  0  0  0
  187.8320  178.2070  136.0630 N   0  0  0  0  0  2  0  0  0  0  0  0
  186.8190  175.7100  135.5310 C   0  0  0  0  0  2  0  0  0  0  0  0
  180.7610  178.4900  140.3850 C   0  0  2  0  0  3  0  0  0  0  0  0
  180.8080  179.8080  140.8540 O   0  0  0  0  0  1  0  0  0  0  0  0
  186.2640  176.5270  136.6800 C   0  0  0  0  0  0  0  0  0  0  0  0
  184.4770  174.7590  137.1020 C   0  0  0  0  0  3  0  0  0  0  0  0
  184.5950  173.5680  137.6740 C   0  0  0  0  0  3  0  0  0  0  0  0
  183.8660  172.4490  137.1480 C   0  0  0  0  0  0  0  0  0  0  0  0
  183.2550  171.5090  136.7070 C   0  0  0  0  0  3  0  0  0  0  0  0
  182.7970  176.9730  136.1640 C   0  0  0  0  0  2  0  0  0  0  0  0
  181.2090  175.2210  135.4450 C   0  0  0  0  0  1  0  0  0  0  0  0
  181.5580  176.1910  136.5550 C   0  0  0  0  0  2  0  0  0  0  0  0
  1 28  1  6  0  0  0
  1 15  1  0  0  0  0
  1  4  1  0  0  0  0
  2 12  1  0  0  0  0
  2  9  1  0  0  0  0
  4 18  1  0  0  0  0
  5 11  1  0  0  0  0
  5 20  1  0  0  0  0
  6 18  1  0  0  0  0
  8  4  1  0  0  0  0
  9 14  1  0  0  0  0
 10  6  1  0  0  0  0
 11 19  1  0  0  0  0
 12 15  1  0  0  0  0
 13 21  1  0  0  0  0
 13  3  1  0  0  0  0
 14 21  1  0  0  0  0
 15 13  1  0  0  0  0
 16 17  1  0  0  0  0
 17  3  1  0  0  0  0
 17  7  1  0  0  0  0
 18 17  1  0  0  0  0
 19 10  1  0  0  0  0
 20 23  1  0  0  0  0
 21 22  1  0  0  0  0
 23 10  2  0  0  0  0
 23  8  1  0  0  0  0
 24  8  1  0  0  0  0
 24 25  2  0  0  0  0
 26 25  1  0  0  0  0
 27 26  3  0  0  0  0
 28 30  1  0  0  0  0
 29 30  1  0  0  0  0
M  END
>  <MODEL>
2

>  <REMARK>
 VINA RESULT:      -5.1      3.578      6.498
  Name = 
  4 active torsions:
  status: ('A' for Active; 'I' for Inactive)
    1  A    between atoms: C_1  and  C_5
    2  A    between atoms: C_5  and  C_12
    3  A    between atoms: C_6  and  C_13
    4  A    between atoms: C_9  and  C_21
                            x       y       z     vdW  Elec       q    Type
                         _______ _______ _______ _____ _____    ______ ____

>  <TORSDO>
F 4

$$$$
=
 OpenBabel10262422013D

 30 33  0  0  1  0  0  0  0  0999 V2000
  182.7370  177.5090  138.1630 C   0  0  2  0  0  3  0  0  0  0  0  0
  180.7740  179.6770  140.3300 C   0  0  0  0  0  2  0  0  0  0  0  0
  180.9830  178.8850  135.7680 C   0  0  0  0  0  2  0  0  0  0  0  0
  183.2760  177.3430  136.7210 C   0  0  1  0  0  3  0  0  0  0  0  0
  185.3300  172.9150  137.7000 C   0  0  0  0  0  2  0  0  0  0  0  0
  182.0670  175.1600  136.2130 C   0  0  0  0  0  2  0  0  0  0  0  0
  180.2310  176.9770  134.5940 O   0  0  0  0  0  1  0  0  0  0  0  0
  184.6070  176.6000  136.5080 C   0  0  2  0  0  3  0  0  0  0  0  0
  180.2400  181.0060  139.8030 C   0  0  0  0  0  2  0  0  0  0  0  0
  183.3630  174.4560  136.5330 C   0  0  0  0  0  0  0  0  0  0  0  0
  184.5060  172.3380  136.7210 O   0  0  0  0  0  0  0  0  0  0  0  0
  180.7050  178.5750  139.2840 C   0  0  0  0  0  2  0  0  0  0  0  0
  181.5080  179.5920  137.0390 C   0  0  2  0  0  3  0  0  0  0  0  0
  181.0690  181.5650  138.6440 C   0  0  0  0  0  2  0  0  0  0  0  0
  181.8490  178.7550  138.2990 C   0  0  2  0  0  3  0  0  0  0  0  0
  180.0350  176.9670  136.8460 O   0  0  0  0  0  1  0  0  0  0  0  0
  180.8530  177.3570  135.7820 C   0  0  0  0  0  0  0  0  0  0  0  0
  182.2240  176.6480  135.8460 C   0  0  1  0  0  3  0  0  0  0  0  0
  183.3430  173.0440  136.7630 N   0  0  0  0  0  2  0  0  0  0  0  0
  185.7200  174.3300  137.2500 C   0  0  0  0  0  2  0  0  0  0  0  0
  180.7320  180.8960  137.3070 C   0  0  2  0  0  3  0  0  0  0  0  0
  179.3510  180.7100  137.1730 O   0  0  0  0  0  1  0  0  0  0  0  0
  184.5060  175.1200  136.8030 C   0  0  0  0  0  0  0  0  0  0  0  0
  185.7870  177.3020  137.1040 C   0  0  0  0  0  3  0  0  0  0  0  0
  186.7350  177.8230  136.3370 C   0  0  0  0  0  3  0  0  0  0  0  0
  187.8590  178.4810  136.9390 C   0  0  0  0  0  0  0  0  0  0  0  0
  188.8030  179.0330  137.4460 C   0  0  0  0  0  3  0  0  0  0  0  0
  183.8040  177.5710  139.2490 C   0  0  0  0  0  2  0  0  0  0  0  0
  185.2740  179.0450  140.5810 C   0  0  0  0  0  1  0  0  0  0  0  0
  184.2270  179.0070  139.4870 C   0  0  0  0  0  2  0  0  0  0  0  0
  1 15  1  0  0  0  0
  1 28  1  1  0  0  0
  3 17  1  0  0  0  0
  3 13  1  0  0  0  0
  4  1  1  0  0  0  0
  6 10  1  0  0  0  0
  7 17  1  0  0  0  0
  8  4  1  0  0  0  0
  8 23  1  0  0  0  0
  8 24  1  0  0  0  0
  9  2  1  0  0  0  0
 10 19  1  0  0  0  0
 10 23  2  0  0  0  0
 11 19  1  0  0  0  0
 11  5  1  0  0  0  0
 12  2  1  0  0  0  0
 13 21  1  0  0  0  0
 13 15  1  0  0  0  0
 14  9  1  0  0  0  0
 15 12  1  0  0  0  0
 17 18  1  0  0  0  0
 17 16  1  0  0  0  0
 18  6  1  0  0  0  0
 18  4  1  0  0  0  0
 20  5  1  0  0  0  0
 21 14  1  0  0  0  0
 22 21  1  0  0  0  0
 23 20  1  0  0  0  0
 25 26  1  0  0  0  0
 25 24  2  0  0  0  0
 26 27  3  0  0  0  0
 28 30  1  0  0  0  0
 30 29  1  0  0  0  0
M  END
>  <MODEL>
3

>  <REMARK>
 VINA RESULT:      -4.8      2.822      5.713
  Name = 
  4 active torsions:
  status: ('A' for Active; 'I' for Inactive)
    1  A    between atoms: C_1  and  C_5
    2  A    between atoms: C_5  and  C_12
    3  A    between atoms: C_6  and  C_13
    4  A    between atoms: C_9  and  C_21
                            x       y       z     vdW  Elec       q    Type
                         _______ _______ _______ _____ _____    ______ ____

>  <TORSDO>
F 4

$$$$
=
 OpenBabel10262422013D

 30 33  0  0  1  0  0  0  0  0999 V2000
  185.2060  177.3700  137.1730 C   0  0  2  0  0  3  0  0  0  0  0  0
  188.3400  176.4840  135.5480 C   0  0  0  0  0  2  0  0  0  0  0  0
  184.4220  174.2440  136.6060 C   0  0  0  0  0  2  0  0  0  0  0  0
  184.0060  176.7980  137.9670 C   0  0  1  0  0  3  0  0  0  0  0  0
  181.6820  181.1950  138.1690 C   0  0  0  0  0  2  0  0  0  0  0  0
  182.2120  177.4470  136.2810 C   0  0  0  0  0  2  0  0  0  0  0  0
  182.3010  174.4790  135.5900 O   0  0  0  0  0  1  0  0  0  0  0  0
  183.2990  177.6990  138.9950 C   0  0  2  0  0  3  0  0  0  0  0  0
  188.8610  175.0520  135.6200 C   0  0  0  0  0  2  0  0  0  0  0  0
  181.9260  178.6410  137.1580 C   0  0  0  0  0  0  0  0  0  0  0  0
  180.6010  180.6340  137.4700 O   0  0  0  0  0  0  0  0  0  0  0  0
  186.8290  176.5380  135.3860 C   0  0  0  0  0  2  0  0  0  0  0  0
  185.8180  174.7800  137.0010 C   0  0  2  0  0  3  0  0  0  0  0  0
  188.3470  174.2900  136.8440 C   0  0  0  0  0  2  0  0  0  0  0  0
  186.1760  176.2650  136.7320 C   0  0  2  0  0  3  0  0  0  0  0  0
  183.9700  175.8140  134.8530 O   0  0  0  0  0  1  0  0  0  0  0  0
  183.4130  175.2200  135.9890 C   0  0  0  0  0  0  0  0  0  0  0  0
  182.9320  176.2880  136.9960 C   0  0  1  0  0  3  0  0  0  0  0  0
  181.1500  179.7190  136.6260 N   0  0  0  0  0  2  0  0  0  0  0  0
  182.2830  180.1280  139.0940 C   0  0  0  0  0  2  0  0  0  0  0  0
  186.9210  173.7640  136.6490 C   0  0  2  0  0  3  0  0  0  0  0  0
  186.7490  173.2450  135.3600 O   0  0  0  0  0  1  0  0  0  0  0  0
  182.5280  178.8300  138.3500 C   0  0  0  0  0  0  0  0  0  0  0  0
  184.1670  178.0810  140.1530 C   0  0  0  0  0  3  0  0  0  0  0  0
  183.7710  177.8780  141.4030 C   0  0  0  0  0  3  0  0  0  0  0  0
  184.6220  178.2640  142.4920 C   0  0  0  0  0  0  0  0  0  0  0  0
  185.3360  178.5890  143.4070 C   0  0  0  0  0  3  0  0  0  0  0  0
  186.0110  178.4400  137.9000 C   0  0  0  0  0  2  0  0  0  0  0  0
  187.5850  178.2530  139.7970 C   0  0  0  0  0  1  0  0  0  0  0  0
  187.3450  177.8780  138.3490 C   0  0  0  0  0  2  0  0  0  0  0  0
  1 28  1  1  0  0  0
  1  4  1  0  0  0  0
  2  9  1  0  0  0  0
  3 13  1  0  0  0  0
  4  8  1  0  0  0  0
  5 20  1  0  0  0  0
  6 18  1  0  0  0  0
  6 10  1  0  0  0  0
  7 17  1  0  0  0  0
  8 24  1  0  0  0  0
  9 14  1  0  0  0  0
 10 23  2  0  0  0  0
 11  5  1  0  0  0  0
 12  2  1  0  0  0  0
 12 15  1  0  0  0  0
 15 13  1  0  0  0  0
 15  1  1  0  0  0  0
 16 17  1  0  0  0  0
 17  3  1  0  0  0  0
 17 18  1  0  0  0  0
 18  4  1  0  0  0  0
 19 10  1  0  0  0  0
 19 11  1  0  0  0  0
 21 14  1  0  0  0  0
 21 13  1  0  0  0  0
 22 21  1  0  0  0  0
 23  8  1  0  0  0  0
 23 20  1  0  0  0  0
 24 25  2  0  0  0  0
 25 26  1  0  0  0  0
 26 27  3  0  0  0  0
 28 30  1  0  0  0  0
 30 29  1  0  0  0  0
M  END
>  <MODEL>
4

>  <REMARK>
 VINA RESULT:      -4.7      3.341      6.456
  Name = 
  4 active torsions:
  status: ('A' for Active; 'I' for Inactive)
    1  A    between atoms: C_1  and  C_5
    2  A    between atoms: C_5  and  C_12
    3  A    between atoms: C_6  and  C_13
    4  A    between atoms: C_9  and  C_21
                            x       y       z     vdW  Elec       q    Type
                         _______ _______ _______ _____ _____    ______ ____

>  <TORSDO>
F 4

$$$$
=
 OpenBabel10262422013D

 30 33  0  0  1  0  0  0  0  0999 V2000
  182.6870  178.4140  137.4090 C   0  0  2  0  0  3  0  0  0  0  0  0
  185.4360  176.0680  136.9800 C   0  0  0  0  0  2  0  0  0  0  0  0
  180.8530  175.9440  136.2930 C   0  0  0  0  0  2  0  0  0  0  0  0
  181.1600  178.5180  137.6440 C   0  0  1  0  0  3  0  0  0  0  0  0
  181.1770  183.4900  137.3960 C   0  0  0  0  0  2  0  0  0  0  0  0
  180.6210  179.7570  135.4850 C   0  0  0  0  0  2  0  0  0  0  0  0
  179.6140  177.0210  134.5940 O   0  0  0  0  0  1  0  0  0  0  0  0
  180.6090  179.7290  138.4190 C   0  0  2  0  0  3  0  0  0  0  0  0
  185.1880  174.5670  137.1010 C   0  0  0  0  0  2  0  0  0  0  0  0
  180.6020  181.0230  136.3050 C   0  0  0  0  0  0  0  0  0  0  0  0
  180.3070  183.4190  136.2960 O   0  0  0  0  0  0  0  0  0  0  0  0
  184.2940  176.7840  136.2770 C   0  0  0  0  0  2  0  0  0  0  0  0
  182.0810  175.8230  137.2270 C   0  0  2  0  0  3  0  0  0  0  0  0
  183.9720  174.2320  137.9680 C   0  0  0  0  0  2  0  0  0  0  0  0
  183.1410  176.9560  137.2530 C   0  0  2  0  0  3  0  0  0  0  0  0
  181.8440  177.3870  134.6580 O   0  0  0  0  0  1  0  0  0  0  0  0
  180.7020  177.2110  135.4450 C   0  0  0  0  0  0  0  0  0  0  0  0
  180.4180  178.4650  136.3010 C   0  0  1  0  0  3  0  0  0  0  0  0
  180.6540  182.2840  135.6300 N   0  0  0  0  0  2  0  0  0  0  0  0
  180.8410  182.3520  138.3690 C   0  0  0  0  0  2  0  0  0  0  0  0
  182.6500  174.3920  137.2100 C   0  0  2  0  0  3  0  0  0  0  0  0
  182.7560  173.8950  135.9060 O   0  0  0  0  0  1  0  0  0  0  0  0
  180.7320  181.0240  137.6480 C   0  0  0  0  0  0  0  0  0  0  0  0
  181.0550  179.7780  139.8480 C   0  0  0  0  0  3  0  0  0  0  0  0
  180.6010  178.9060  140.7380 C   0  0  0  0  0  3  0  0  0  0  0  0
  181.0400  178.9860  142.1020 C   0  0  0  0  0  0  0  0  0  0  0  0
  181.4090  179.0530  143.2470 C   0  0  0  0  0  3  0  0  0  0  0  0
  183.5510  179.0650  138.4810 C   0  0  0  0  0  2  0  0  0  0  0  0
  184.5420  178.7640  140.7260 C   0  0  0  0  0  1  0  0  0  0  0  0
  183.9210  178.0480  139.5440 C   0  0  0  0  0  2  0  0  0  0  0  0
  1  4  1  0  0  0  0
  1 28  1  1  0  0  0
  2  9  1  0  0  0  0
  3 13  1  0  0  0  0
  4  8  1  0  0  0  0
  5 20  1  0  0  0  0
  6 18  1  0  0  0  0
  6 10  1  0  0  0  0
  7 17  1  0  0  0  0
  8 24  1  0  0  0  0
  9 14  1  0  0  0  0
 10 23  2  0  0  0  0
 11  5  1  0  0  0  0
 12  2  1  0  0  0  0
 12 15  1  0  0  0  0
 13 15  1  0  0  0  0
 15  1  1  0  0  0  0
 16 17  1  0  0  0  0
 17  3  1  0  0  0  0
 17 18  1  0  0  0  0
 18  4  1  0  0  0  0
 19 11  1  0  0  0  0
 19 10  1  0  0  0  0
 21 13  1  0  0  0  0
 21 14  1  0  0  0  0
 22 21  1  0  0  0  0
 23 20  1  0  0  0  0
 23  8  1  0  0  0  0
 24 25  2  0  0  0  0
 25 26  1  0  0  0  0
 26 27  3  0  0  0  0
 28 30  1  0  0  0  0
 30 29  1  0  0  0  0
M  END
>  <MODEL>
5

>  <REMARK>
 VINA RESULT:      -4.6      2.870      5.432
  Name = 
  4 active torsions:
  status: ('A' for Active; 'I' for Inactive)
    1  A    between atoms: C_1  and  C_5
    2  A    between atoms: C_5  and  C_12
    3  A    between atoms: C_6  and  C_13
    4  A    between atoms: C_9  and  C_21
                            x       y       z     vdW  Elec       q    Type
                         _______ _______ _______ _____ _____    ______ ____

>  <TORSDO>
F 4

$$$$
=
 OpenBabel10262422013D

 30 33  0  0  1  0  0  0  0  0999 V2000
  184.0320  177.3210  137.3120 C   0  0  2  0  0  3  0  0  0  0  0  0
  186.6890  175.5410  135.5750 C   0  0  0  0  0  2  0  0  0  0  0  0
  182.5680  174.3950  137.3620 C   0  0  0  0  0  2  0  0  0  0  0  0
  182.8530  177.1480  138.3010 C   0  0  1  0  0  3  0  0  0  0  0  0
  181.5060  181.9290  137.9690 C   0  0  0  0  0  2  0  0  0  0  0  0
  181.0240  177.9210  136.7050 C   0  0  0  0  0  2  0  0  0  0  0  0
  180.4260  174.9370  136.5250 O   0  0  0  0  0  1  0  0  0  0  0  0
  182.4780  178.3230  139.2220 C   0  0  2  0  0  3  0  0  0  0  0  0
  186.9160  174.0560  135.8400 C   0  0  0  0  0  2  0  0  0  0  0  0
  181.1000  179.2640  137.3890 C   0  0  0  0  0  0  0  0  0  0  0  0
  180.2540  181.5230  137.4800 O   0  0  0  0  0  0  0  0  0  0  0  0
  185.2110  175.9000  135.5480 C   0  0  0  0  0  2  0  0  0  0  0  0
  184.0830  174.6630  137.5270 C   0  0  2  0  0  3  0  0  0  0  0  0
  186.4190  173.6130  137.2190 C   0  0  0  0  0  2  0  0  0  0  0  0
  184.6950  175.9780  136.9760 C   0  0  2  0  0  3  0  0  0  0  0  0
  182.2210  175.7510  135.4180 O   0  0  0  0  0  1  0  0  0  0  0  0
  181.7060  175.4660  136.6860 C   0  0  0  0  0  0  0  0  0  0  0  0
  181.5820  176.7490  137.5370 C   0  0  1  0  0  3  0  0  0  0  0  0
  180.4950  180.3950  136.7560 N   0  0  0  0  0  2  0  0  0  0  0  0
  181.9930  180.9030  139.0010 C   0  0  0  0  0  2  0  0  0  0  0  0
  184.9040  173.3900  137.2510 C   0  0  2  0  0  3  0  0  0  0  0  0
  184.4680  172.7380  136.0910 O   0  0  0  0  0  1  0  0  0  0  0  0
  181.8750  179.4890  138.4700 C   0  0  0  0  0  0  0  0  0  0  0  0
  183.5460  178.6710  140.2120 C   0  0  0  0  0  3  0  0  0  0  0  0
  183.7930  177.8920  141.2570 C   0  0  0  0  0  3  0  0  0  0  0  0
  184.8170  178.2590  142.1930 C   0  0  0  0  0  0  0  0  0  0  0  0
  185.6760  178.5670  142.9800 C   0  0  0  0  0  3  0  0  0  0  0  0
  185.1210  178.2830  137.7680 C   0  0  0  0  0  2  0  0  0  0  0  0
  187.5770  178.2030  138.0340 C   0  0  0  0  0  1  0  0  0  0  0  0
  186.2740  177.5160  138.3850 C   0  0  0  0  0  2  0  0  0  0  0  0
  1 28  1  1  0  0  0
  1  4  1  0  0  0  0
  2  9  1  0  0  0  0
  3 13  1  0  0  0  0
  4  8  1  0  0  0  0
  5 20  1  0  0  0  0
  6 10  1  0  0  0  0
  6 18  1  0  0  0  0
  7 17  1  0  0  0  0
  8 24  1  0  0  0  0
  9 14  1  0  0  0  0
 10 23  2  0  0  0  0
 11  5  1  0  0  0  0
 12  2  1  0  0  0  0
 12 15  1  0  0  0  0
 14 21  1  0  0  0  0
 15  1  1  0  0  0  0
 15 13  1  0  0  0  0
 16 17  1  0  0  0  0
 17  3  1  0  0  0  0
 17 18  1  0  0  0  0
 18  4  1  0  0  0  0
 19 10  1  0  0  0  0
 19 11  1  0  0  0  0
 21 13  1  0  0  0  0
 22 21  1  0  0  0  0
 23 20  1  0  0  0  0
 23  8  1  0  0  0  0
 24 25  2  0  0  0  0
 25 26  1  0  0  0  0
 26 27  3  0  0  0  0
 28 30  1  0  0  0  0
 29 30  1  0  0  0  0
M  END
>  <MODEL>
6

>  <REMARK>
 VINA RESULT:      -4.6      2.891      5.878
  Name = 
  4 active torsions:
  status: ('A' for Active; 'I' for Inactive)
    1  A    between atoms: C_1  and  C_5
    2  A    between atoms: C_5  and  C_12
    3  A    between atoms: C_6  and  C_13
    4  A    between atoms: C_9  and  C_21
                            x       y       z     vdW  Elec       q    Type
                         _______ _______ _______ _____ _____    ______ ____

>  <TORSDO>
F 4

$$$$
=
 OpenBabel10262422013D

 30 33  0  0  1  0  0  0  0  0999 V2000
  184.5140  176.1840  136.7950 C   0  0  2  0  0  3  0  0  0  0  0  0
  187.4610  175.1330  134.9380 C   0  0  0  0  0  2  0  0  0  0  0  0
  184.2040  172.9930  137.4460 C   0  0  0  0  0  2  0  0  0  0  0  0
  183.5700  175.8000  137.9610 C   0  0  1  0  0  3  0  0  0  0  0  0
  180.5790  179.7060  137.2010 C   0  0  0  0  0  2  0  0  0  0  0  0
  181.4490  175.6160  136.5630 C   0  0  0  0  0  2  0  0  0  0  0  0
  181.9420  172.6230  136.8690 O   0  0  0  0  0  1  0  0  0  0  0  0
  182.8860  176.9220  138.7630 C   0  0  2  0  0  3  0  0  0  0  0  0
  188.2270  173.8830  135.3610 C   0  0  0  0  0  2  0  0  0  0  0  0
  181.1020  177.0030  137.0440 C   0  0  0  0  0  0  0  0  0  0  0  0
  179.5160  178.8210  136.9590 O   0  0  0  0  0  0  0  0  0  0  0  0
  185.9570  174.9610  135.0810 C   0  0  0  0  0  2  0  0  0  0  0  0
  185.5300  173.7820  137.3500 C   0  0  2  0  0  3  0  0  0  0  0  0
  188.0490  173.5480  136.8430 C   0  0  0  0  0  2  0  0  0  0  0  0
  185.5790  175.1080  136.5460 C   0  0  2  0  0  3  0  0  0  0  0  0
  183.2190  173.7880  135.4130 O   0  0  0  0  0  1  0  0  0  0  0  0
  182.9570  173.5730  136.7690 C   0  0  0  0  0  0  0  0  0  0  0  0
  182.4620  174.8670  137.4510 C   0  0  1  0  0  3  0  0  0  0  0  0
  180.0770  177.7330  136.3630 N   0  0  0  0  0  2  0  0  0  0  0  0
  181.4930  179.1040  138.2770 C   0  0  0  0  0  2  0  0  0  0  0  0
  186.7230  172.8340  137.1270 C   0  0  2  0  0  3  0  0  0  0  0  0
  186.4460  171.8810  136.1410 O   0  0  0  0  0  1  0  0  0  0  0  0
  181.8400  177.6630  137.9600 C   0  0  0  0  0  0  0  0  0  0  0  0
  183.8440  177.7780  139.5310 C   0  0  0  0  0  3  0  0  0  0  0  0
  183.8050  177.8340  140.8550 C   0  0  0  0  0  3  0  0  0  0  0  0
  184.7310  178.6730  141.5610 C   0  0  0  0  0  0  0  0  0  0  0  0
  185.5090  179.3770  142.1530 C   0  0  0  0  0  3  0  0  0  0  0  0
  185.2240  177.5230  136.9540 C   0  0  0  0  0  2  0  0  0  0  0  0
  187.5780  178.2760  136.9870 C   0  0  0  0  0  1  0  0  0  0  0  0
  186.5770  177.3230  137.6080 C   0  0  0  0  0  2  0  0  0  0  0  0
  1 28  1  1  0  0  0
  1  4  1  0  0  0  0
  2 12  1  0  0  0  0
  2  9  1  0  0  0  0
  4  8  1  0  0  0  0
  5 20  1  0  0  0  0
  6 10  1  0  0  0  0
  6 18  1  0  0  0  0
  8 24  1  0  0  0  0
  9 14  1  0  0  0  0
 10 23  2  0  0  0  0
 11  5  1  0  0  0  0
 12 15  1  0  0  0  0
 13  3  1  0  0  0  0
 14 21  1  0  0  0  0
 15  1  1  0  0  0  0
 15 13  1  0  0  0  0
 16 17  1  0  0  0  0
 17  7  1  0  0  0  0
 17  3  1  0  0  0  0
 17 18  1  0  0  0  0
 18  4  1  0  0  0  0
 19 11  1  0  0  0  0
 19 10  1  0  0  0  0
 21 13  1  0  0  0  0
 22 21  1  0  0  0  0
 23 20  1  0  0  0  0
 23  8  1  0  0  0  0
 24 25  2  0  0  0  0
 25 26  1  0  0  0  0
 26 27  3  0  0  0  0
 28 30  1  0  0  0  0
 29 30  1  0  0  0  0
M  END
>  <MODEL>
7

>  <REMARK>
 VINA RESULT:      -4.5      3.688      6.369
  Name = 
  4 active torsions:
  status: ('A' for Active; 'I' for Inactive)
    1  A    between atoms: C_1  and  C_5
    2  A    between atoms: C_5  and  C_12
    3  A    between atoms: C_6  and  C_13
    4  A    between atoms: C_9  and  C_21
                            x       y       z     vdW  Elec       q    Type
                         _______ _______ _______ _____ _____    ______ ____

>  <TORSDO>
F 4

$$$$
=
 OpenBabel10262422013D

 30 33  0  0  1  0  0  0  0  0999 V2000
  184.1790  176.8040  138.7730 C   0  0  2  0  0  3  0  0  0  0  0  0
  184.0890  173.8760  136.6140 C   0  0  0  0  0  2  0  0  0  0  0  0
  186.1920  178.0040  136.4910 C   0  0  0  0  0  2  0  0  0  0  0  0
  184.4220  178.3330  138.7940 C   0  0  1  0  0  3  0  0  0  0  0  0
  183.8580  178.6400  143.7300 C   0  0  0  0  0  2  0  0  0  0  0  0
  186.4150  178.2840  140.3790 C   0  0  0  0  0  2  0  0  0  0  0  0
  188.0010  178.7480  137.8170 O   0  0  0  0  0  1  0  0  0  0  0  0
  183.6770  179.1890  139.8340 C   0  0  2  0  0  3  0  0  0  0  0  0
  184.2920  174.0270  135.1090 C   0  0  0  0  0  2  0  0  0  0  0  0
  185.4520  178.6550  141.4800 C   0  0  0  0  0  0  0  0  0  0  0  0
  185.1720  179.1240  143.8310 O   0  0  0  0  0  0  0  0  0  0  0  0
  184.9920  174.8020  137.4120 C   0  0  0  0  0  2  0  0  0  0  0  0
  184.9520  177.1140  136.2400 C   0  0  2  0  0  3  0  0  0  0  0  0
  183.9170  175.4190  134.5940 C   0  0  0  0  0  2  0  0  0  0  0  0
  184.4140  176.2080  137.3780 C   0  0  2  0  0  3  0  0  0  0  0  0
  187.1810  176.6810  138.2250 O   0  0  0  0  0  1  0  0  0  0  0  0
  186.8320  177.9910  137.8830 C   0  0  0  0  0  0  0  0  0  0  0  0
  185.9210  178.6220  138.9590 C   0  0  1  0  0  3  0  0  0  0  0  0
  185.8670  178.5000  142.8400 N   0  0  0  0  0  2  0  0  0  0  0  0
  183.2340  179.1650  142.4300 C   0  0  0  0  0  2  0  0  0  0  0  0
  185.0160  176.4550  134.8500 C   0  0  2  0  0  3  0  0  0  0  0  0
  186.2820  175.9160  134.5940 O   0  0  0  0  0  1  0  0  0  0  0  0
  184.1550  178.9410  141.2470 C   0  0  0  0  0  0  0  0  0  0  0  0
  182.1930  179.2060  139.6420 C   0  0  0  0  0  3  0  0  0  0  0  0
  181.6390  179.8640  138.6330 C   0  0  0  0  0  3  0  0  0  0  0  0
  180.2120  179.8700  138.4830 C   0  0  0  0  0  0  0  0  0  0  0  0
  179.0140  179.8740  138.3560 C   0  0  0  0  0  3  0  0  0  0  0  0
  182.8000  176.3630  139.2470 C   0  0  0  0  0  2  0  0  0  0  0  0
  180.4490  175.9990  138.5770 C   0  0  0  0  0  1  0  0  0  0  0  0
  181.8540  176.2420  138.0680 C   0  0  0  0  0  2  0  0  0  0  0  0
  1  4  1  0  0  0  0
  1 28  1  6  0  0  0
  2 12  1  0  0  0  0
  3 17  1  0  0  0  0
  4 18  1  0  0  0  0
  4  8  1  0  0  0  0
  5 11  1  0  0  0  0
  6 10  1  0  0  0  0
  7 17  1  0  0  0  0
  8 23  1  0  0  0  0
  9  2  1  0  0  0  0
 10 19  1  0  0  0  0
 13  3  1  0  0  0  0
 13 15  1  0  0  0  0
 14 21  1  0  0  0  0
 14  9  1  0  0  0  0
 15 12  1  0  0  0  0
 15  1  1  0  0  0  0
 17 16  1  0  0  0  0
 17 18  1  0  0  0  0
 18  6  1  0  0  0  0
 19 11  1  0  0  0  0
 20  5  1  0  0  0  0
 21 13  1  0  0  0  0
 22 21  1  0  0  0  0
 23 10  2  0  0  0  0
 23 20  1  0  0  0  0
 24  8  1  0  0  0  0
 25 24  2  0  0  0  0
 26 25  1  0  0  0  0
 27 26  3  0  0  0  0
 30 29  1  0  0  0  0
 30 28  1  0  0  0  0
M  END
>  <MODEL>
8

>  <REMARK>
 VINA RESULT:      -4.4      3.454      6.996
  Name = 
  4 active torsions:
  status: ('A' for Active; 'I' for Inactive)
    1  A    between atoms: C_1  and  C_5
    2  A    between atoms: C_5  and  C_12
    3  A    between atoms: C_6  and  C_13
    4  A    between atoms: C_9  and  C_21
                            x       y       z     vdW  Elec       q    Type
                         _______ _______ _______ _____ _____    ______ ____

>  <TORSDO>
F 4

$$$$
=
 OpenBabel10262422013D

 30 33  0  0  1  0  0  0  0  0999 V2000
  182.0950  178.0860  139.3430 C   0  0  2  0  0  3  0  0  0  0  0  0
  182.8230  179.0350  142.7800 C   0  0  0  0  0  2  0  0  0  0  0  0
  179.3550  176.8380  140.6260 C   0  0  0  0  0  2  0  0  0  0  0  0
  180.9490  177.7580  138.3540 C   0  0  1  0  0  3  0  0  0  0  0  0
  184.0820  176.6980  134.6340 C   0  0  0  0  0  2  0  0  0  0  0  0
  181.6780  175.3700  137.8520 C   0  0  0  0  0  2  0  0  0  0  0  0
  179.3680  174.6600  139.7100 O   0  0  0  0  0  1  0  0  0  0  0  0
  181.1420  178.0790  136.8610 C   0  0  2  0  0  3  0  0  0  0  0  0
  181.6830  179.3130  143.7550 C   0  0  0  0  0  2  0  0  0  0  0  0
  182.3040  175.9070  136.5890 C   0  0  0  0  0  0  0  0  0  0  0  0
  183.5630  175.3940  134.5940 O   0  0  0  0  0  0  0  0  0  0  0  0
  182.5130  177.8700  141.8520 C   0  0  0  0  0  2  0  0  0  0  0  0
  180.0590  178.1440  141.0650 C   0  0  2  0  0  3  0  0  0  0  0  0
  180.3930  179.7500  143.0560 C   0  0  0  0  0  2  0  0  0  0  0  0
  181.5670  178.3440  140.7610 C   0  0  2  0  0  3  0  0  0  0  0  0
  181.2920  175.4280  140.6170 O   0  0  0  0  0  1  0  0  0  0  0  0
  180.1720  175.7890  139.8630 C   0  0  0  0  0  0  0  0  0  0  0  0
  180.5820  176.2700  138.4530 C   0  0  1  0  0  3  0  0  0  0  0  0
  183.2420  175.0900  135.8820 N   0  0  0  0  0  2  0  0  0  0  0  0
  182.9510  177.6720  134.9910 C   0  0  0  0  0  2  0  0  0  0  0  0
  179.6110  178.5660  142.4760 C   0  0  2  0  0  3  0  0  0  0  0  0
  179.6120  177.4830  143.3620 O   0  0  0  0  0  1  0  0  0  0  0  0
  182.1720  177.1920  136.1990 C   0  0  0  0  0  0  0  0  0  0  0  0
  181.2650  179.5440  136.5760 C   0  0  0  0  0  3  0  0  0  0  0  0
  180.3630  180.1770  135.8380 C   0  0  0  0  0  3  0  0  0  0  0  0
  180.5160  181.5790  135.5740 C   0  0  0  0  0  0  0  0  0  0  0  0
  180.6440  182.7570  135.3520 C   0  0  0  0  0  3  0  0  0  0  0  0
  182.9730  179.2650  138.9450 C   0  0  0  0  0  2  0  0  0  0  0  0
  185.1940  178.6600  139.8450 C   0  0  0  0  0  1  0  0  0  0  0  0
  184.3640  178.7840  138.5840 C   0  0  0  0  0  2  0  0  0  0  0  0
  1 28  1  6  0  0  0
  1 15  1  0  0  0  0
  2  9  1  0  0  0  0
  3 13  1  0  0  0  0
  4 18  1  0  0  0  0
  4  1  1  0  0  0  0
  5 20  1  0  0  0  0
  6 18  1  0  0  0  0
  7 17  1  0  0  0  0
  8  4  1  0  0  0  0
 10  6  1  0  0  0  0
 11  5  1  0  0  0  0
 11 19  1  0  0  0  0
 12  2  1  0  0  0  0
 13 21  1  0  0  0  0
 14  9  1  0  0  0  0
 15 13  1  0  0  0  0
 15 12  1  0  0  0  0
 17 16  1  0  0  0  0
 17  3  1  0  0  0  0
 18 17  1  0  0  0  0
 19 10  1  0  0  0  0
 20 23  1  0  0  0  0
 21 14  1  0  0  0  0
 21 22  1  0  0  0  0
 23 10  2  0  0  0  0
 23  8  1  0  0  0  0
 24  8  1  0  0  0  0
 25 24  2  0  0  0  0
 26 25  1  0  0  0  0
 27 26  3  0  0  0  0
 30 28  1  0  0  0  0
 30 29  1  0  0  0  0
M  END
>  <MODEL>
9

>  <REMARK>
 VINA RESULT:      -4.2      1.819      2.422
  Name = 
  4 active torsions:
  status: ('A' for Active; 'I' for Inactive)
    1  A    between atoms: C_1  and  C_5
    2  A    between atoms: C_5  and  C_12
    3  A    between atoms: C_6  and  C_13
    4  A    between atoms: C_9  and  C_21
                            x       y       z     vdW  Elec       q    Type
                         _______ _______ _______ _____ _____    ______ ____

>  <TORSDO>
F 4

$$$$
