=
 OpenBabel10262420163D

 55 61  0  0  1  0  0  0  0  0999 V2000
  184.3410  179.1380  139.1760 O   0  0  0  0  0  0  0  0  0  0  0  0
  185.5920  175.3800  136.5580 C   0  0  0  0  0  2  0  0  0  0  0  0
  183.0420  174.3930  135.6530 O   0  0  0  0  0  1  0  0  0  0  0  0
  180.0390  176.5320  138.3050 C   0  0  0  0  0  2  0  0  0  0  0  0
  178.9810  175.9280  139.2180 C   0  0  0  0  0  2  0  0  0  0  0  0
  181.4040  177.1510  140.3700 C   0  0  1  0  0  3  0  0  0  0  0  0
  180.2770  176.6020  141.2420 C   0  0  0  0  0  2  0  0  0  0  0  0
  182.6790  176.4910  136.7450 C   0  0  0  0  0  2  0  0  0  0  0  0
  178.9310  176.6950  140.5330 C   0  0  0  0  0  2  0  0  0  0  0  0
  186.2440  178.3610  140.4310 C   0  0  0  0  0  3  0  0  0  0  0  0
  181.4210  176.4940  138.9730 C   0  0  2  0  0  3  0  0  0  0  0  0
  187.7590  178.1810  138.1130 C   0  0  0  0  0  0  0  0  0  0  0  0
  183.6540  179.3930  137.9570 C   0  0  0  0  0  2  0  0  0  0  0  0
  186.4440  178.6420  138.0410 C   0  0  0  0  0  3  0  0  0  0  0  0
  181.2860  179.2770  138.9500 C   0  0  2  0  0  3  0  0  0  0  0  0
  186.9470  175.2260  137.2340 C   0  0  0  0  0  2  0  0  0  0  0  0
  181.4080  178.6880  140.3610 C   0  0  0  0  0  2  0  0  0  0  0  0
  184.5020  174.8890  137.4970 C   0  0  0  0  0  2  0  0  0  0  0  0
  183.1070  175.0320  136.8900 C   0  0  2  0  0  3  0  0  0  0  0  0
  187.5620  177.9050  140.4640 C   0  0  0  0  0  3  0  0  0  0  0  0
  188.1060  175.6460  136.3300 C   0  0  2  0  0  3  0  0  0  0  0  0
  185.6740  178.7220  139.2090 C   0  0  0  0  0  0  0  0  0  0  0  0
  182.4970  177.1660  138.1020 C   0  0  2  0  0  3  0  0  0  0  0  0
  182.3000  178.6880  137.9430 C   0  0  2  0  0  3  0  0  0  0  0  0
  187.9750  177.0970  135.8680 C   0  0  0  0  0  2  0  0  0  0  0  0
  188.5870  178.0660  136.8750 C   0  0  0  0  0  2  0  0  0  0  0  0
  188.2850  177.8200  139.3150 N   0  0  0  0  0  0  0  0  0  0  0  0
  181.4130  181.3240  137.6130 O   0  0  0  0  0  0  0  0  0  0  0  0
  179.2290  182.3470  137.3590 C   0  0  2  0  0  3  0  0  0  0  0  0
  179.8560  181.3360  139.5660 C   0  0  0  0  0  2  0  0  0  0  0  0
  179.3850  182.6020  138.8630 C   0  0  0  0  0  2  0  0  0  0  0  0
  180.2270  181.2990  136.8500 C   0  0  0  0  0  2  0  0  0  0  0  0
  181.1500  180.8050  138.9090 C   0  0  1  0  0  3  0  0  0  0  0  0
  179.3560  183.6250  136.5940 C   0  0  0  0  0  0  0  0  0  0  0  0
  179.1620  185.1860  137.4490 S   0  0  0  0  0  1  0  0  0  0  0  0
  179.5920  183.6150  135.3950 O   0  0  0  0  0  0  0  0  0  0  0  0
  188.2330  174.6990  135.1410 C   0  0  0  0  0  2  0  0  0  0  0  0
  193.9360  174.0560  136.0560 C   0  0  0  0  0  2  0  0  0  0  0  0
  191.5920  174.7890  136.2580 C   0  0  2  0  0  3  0  0  0  0  0  0
  188.6680  171.9190  135.0850 O   0  0  0  0  0  0  0  0  0  0  0  0
  192.5040  173.5530  136.1380 C   0  0  1  0  0  3  0  0  0  0  0  0
  192.2000  172.6750  134.9240 C   0  0  0  0  0  2  0  0  0  0  0  0
  189.6990  172.6460  135.0750 C   0  0  0  0  0  0  0  0  0  0  0  0
  189.5560  174.0850  135.1030 N   0  0  0  0  0  0  0  0  0  0  0  0
  193.8400  175.5450  135.8110 C   0  0  1  0  0  3  0  0  0  0  0  0
  190.9480  172.0120  135.0730 O   0  0  0  0  0  0  0  0  0  0  0  0
  190.6920  174.9920  135.0430 C   0  0  0  0  0  2  0  0  0  0  0  0
  192.5050  175.9900  136.4090 C   0  0  2  0  0  3  0  0  0  0  0  0
  192.5840  176.3900  137.8550 C   0  0  0  0  0  0  0  0  0  0  0  0
  193.6720  176.3130  138.4890 O   0  0  0  0  0  0  0  0  0  0  0  0
  191.4400  176.8340  138.5030 O   0  0  0  0  0  1  0  0  0  0  0  0
  194.9860  176.2410  136.3840 N   0  0  0  0  0  2  0  0  0  0  0  0
  195.9330  176.4820  135.3080 C   0  0  1  0  0  3  0  0  0  0  0  0
  195.8160  177.9190  134.8460 C   0  0  0  0  0  1  0  0  0  0  0  0
  197.2830  176.2380  135.7810 N   0  0  0  0  0  1  0  0  0  0  0  0
  1 22  1  0  0  0  0
  2 16  1  0  0  0  0
  2 18  1  0  0  0  0
  4  5  1  0  0  0  0
  5  9  1  0  0  0  0
  6 17  1  6  0  0  0
  6  7  1  0  0  0  0
  8 19  1  0  0  0  0
  9  7  1  0  0  0  0
 10 20  1  0  0  0  0
 11  4  1  6  0  0  0
 11  6  1  0  0  0  0
 12 27  1  0  0  0  0
 13  1  1  0  0  0  0
 14 12  2  0  0  0  0
 14 22  1  0  0  0  0
 15 17  1  1  0  0  0
 19  3  1  6  0  0  0
 19 18  1  0  0  0  0
 21 37  1  6  0  0  0
 21 16  1  0  0  0  0
 22 10  2  0  0  0  0
 23  8  1  6  0  0  0
 23 11  1  0  0  0  0
 24 13  1  1  0  0  0
 24 23  1  0  0  0  0
 24 15  1  0  0  0  0
 25 21  1  0  0  0  0
 25 26  1  0  0  0  0
 26 12  1  0  0  0  0
 27 20  2  0  0  0  0
 28 33  1  0  0  0  0
 29 34  1  6  0  0  0
 29 31  1  0  0  0  0
 31 30  1  0  0  0  0
 32 29  1  0  0  0  0
 32 28  1  0  0  0  0
 33 15  1  0  0  0  0
 33 30  1  6  0  0  0
 34 35  1  0  0  0  0
 36 34  2  0  0  0  0
 38 41  1  0  0  0  0
 39 47  1  6  0  0  0
 39 48  1  0  0  0  0
 41 42  1  6  0  0  0
 41 39  1  0  0  0  0
 42 46  1  0  0  0  0
 43 40  2  0  0  0  0
 43 44  1  0  0  0  0
 44 37  1  0  0  0  0
 45 38  1  0  0  0  0
 45 52  1  1  0  0  0
 45 48  1  0  0  0  0
 46 43  1  0  0  0  0
 47 44  1  0  0  0  0
 48 49  1  1  0  0  0
 49 50  2  0  0  0  0
 49 51  1  0  0  0  0
 53 54  1  1  0  0  0
 53 55  1  0  0  0  0
 53 52  1  0  0  0  0
M  END
>  <MODEL>
1

>  <REMARK>
 VINA RESULT:      -6.9      0.000      0.000
  Name = 
  7 active torsions:
  status: ('A' for Active; 'I' for Inactive)
    1  A    between atoms: C_1  and  C_53
    2  A    between atoms: C_8  and  N_22
    3  A    between atoms: C_8  and  C_43
    4  A    between atoms: C_10  and  C_32
    5  A    between atoms: C_11  and  N_29
    6  A    between atoms: N_29  and  C_38
    7  A    between atoms: C_33  and  C_52
                            x       y       z     vdW  Elec       q    Type
                         _______ _______ _______ _____ _____    ______ ____

>  <TORSDO>
F 7

$$$$
=
 OpenBabel10262420163D

 55 61  0  0  1  0  0  0  0  0999 V2000
  183.1470  178.3020  138.4010 O   0  0  0  0  0  0  0  0  0  0  0  0
  185.7650  175.2170  135.9180 C   0  0  0  0  0  2  0  0  0  0  0  0
  183.7770  173.3650  134.9600 O   0  0  0  0  0  1  0  0  0  0  0  0
  180.1080  174.3090  137.4640 C   0  0  0  0  0  2  0  0  0  0  0  0
  179.3050  173.3760  138.3600 C   0  0  0  0  0  2  0  0  0  0  0  0
  181.0800  175.4040  139.5540 C   0  0  1  0  0  3  0  0  0  0  0  0
  180.1940  174.4970  140.4040 C   0  0  0  0  0  2  0  0  0  0  0  0
  182.6430  175.2040  135.9880 C   0  0  0  0  0  2  0  0  0  0  0  0
  178.9320  174.0880  139.6530 C   0  0  0  0  0  2  0  0  0  0  0  0
  185.1540  178.2790  139.7330 C   0  0  0  0  0  3  0  0  0  0  0  0
  181.3850  174.7810  138.1750 C   0  0  2  0  0  3  0  0  0  0  0  0
  186.7180  178.6300  137.4680 C   0  0  0  0  0  0  0  0  0  0  0  0
  182.4610  178.2770  137.1560 C   0  0  0  0  0  2  0  0  0  0  0  0
  185.3290  178.5840  137.3440 C   0  0  0  0  0  3  0  0  0  0  0  0
  180.2580  177.3270  138.0780 C   0  0  2  0  0  3  0  0  0  0  0  0
  187.0580  175.5700  136.6380 C   0  0  0  0  0  2  0  0  0  0  0  0
  180.5300  176.8390  139.5070 C   0  0  0  0  0  2  0  0  0  0  0  0
  184.8900  174.3770  136.8350 C   0  0  0  0  0  2  0  0  0  0  0  0
  183.5610  174.0000  136.1830 C   0  0  2  0  0  3  0  0  0  0  0  0
  186.5450  178.3290  139.8180 C   0  0  0  0  0  3  0  0  0  0  0  0
  188.0220  176.3690  135.7600 C   0  0  2  0  0  3  0  0  0  0  0  0
  184.5380  178.3960  138.4860 C   0  0  0  0  0  0  0  0  0  0  0  0
  182.1780  175.7850  137.3210 C   0  0  2  0  0  3  0  0  0  0  0  0
  181.4530  177.1310  137.1180 C   0  0  2  0  0  3  0  0  0  0  0  0
  187.3940  177.6690  135.2580 C   0  0  0  0  0  2  0  0  0  0  0  0
  187.5780  178.8060  136.2600 C   0  0  0  0  0  2  0  0  0  0  0  0
  187.2930  178.4970  138.6940 N   0  0  0  0  0  0  0  0  0  0  0  0
  180.0370  179.5770  139.0180 O   0  0  0  0  0  0  0  0  0  0  0  0
  180.8780  181.2580  137.4850 C   0  0  2  0  0  3  0  0  0  0  0  0
  179.5810  179.3150  136.5760 C   0  0  0  0  0  2  0  0  0  0  0  0
  179.6620  180.8330  136.6540 C   0  0  0  0  0  2  0  0  0  0  0  0
  181.2050  180.2370  138.5830 C   0  0  0  0  0  2  0  0  0  0  0  0
  179.5820  178.7030  137.9950 C   0  0  1  0  0  3  0  0  0  0  0  0
  180.6670  182.6200  138.0650 C   0  0  0  0  0  0  0  0  0  0  0  0
  181.5740  184.0120  137.3970 S   0  0  0  0  0  1  0  0  0  0  0  0
  179.8840  182.7910  138.9880 O   0  0  0  0  0  0  0  0  0  0  0  0
  188.5250  175.5160  134.6000 C   0  0  0  0  0  2  0  0  0  0  0  0
  193.2880  173.7610  137.4310 C   0  0  0  0  0  2  0  0  0  0  0  0
  191.2520  174.9980  136.7990 C   0  0  2  0  0  3  0  0  0  0  0  0
  188.2820  172.7180  134.7640 O   0  0  0  0  0  0  0  0  0  0  0  0
  191.8320  173.5890  137.0290 C   0  0  1  0  0  3  0  0  0  0  0  0
  191.7440  172.6760  135.8060 C   0  0  0  0  0  2  0  0  0  0  0  0
  189.4010  173.2010  135.0910 C   0  0  0  0  0  0  0  0  0  0  0  0
  189.6020  174.6320  135.0330 N   0  0  0  0  0  0  0  0  0  0  0  0
  193.6340  175.2030  137.1320 C   0  0  1  0  0  3  0  0  0  0  0  0
  190.3930  172.3160  135.5330 O   0  0  0  0  0  0  0  0  0  0  0  0
  190.8750  175.2630  135.3450 C   0  0  0  0  0  2  0  0  0  0  0  0
  192.3230  175.9840  137.2250 C   0  0  2  0  0  3  0  0  0  0  0  0
  192.0150  176.5040  138.6010 C   0  0  0  0  0  0  0  0  0  0  0  0
  192.7640  177.3570  139.1520 O   0  0  0  0  0  0  0  0  0  0  0  0
  190.9000  176.0280  139.2760 O   0  0  0  0  0  1  0  0  0  0  0  0
  194.6590  175.6920  138.0470 N   0  0  0  0  0  2  0  0  0  0  0  0
  195.3790  174.5350  138.5520 C   0  0  1  0  0  3  0  0  0  0  0  0
  196.5140  174.1960  137.6100 C   0  0  0  0  0  1  0  0  0  0  0  0
  195.9180  174.8310  139.8670 N   0  0  0  0  0  1  0  0  0  0  0  0
  1 22  1  0  0  0  0
  2 16  1  0  0  0  0
  2 18  1  0  0  0  0
  4  5  1  0  0  0  0
  5  9  1  0  0  0  0
  6 17  1  6  0  0  0
  6  7  1  0  0  0  0
  8 19  1  0  0  0  0
  9  7  1  0  0  0  0
 10 20  1  0  0  0  0
 11  4  1  6  0  0  0
 11  6  1  0  0  0  0
 12 27  1  0  0  0  0
 13  1  1  0  0  0  0
 14 12  2  0  0  0  0
 14 22  1  0  0  0  0
 15 17  1  1  0  0  0
 19  3  1  6  0  0  0
 19 18  1  0  0  0  0
 21 37  1  6  0  0  0
 21 16  1  0  0  0  0
 22 10  2  0  0  0  0
 23  8  1  6  0  0  0
 23 11  1  0  0  0  0
 24 13  1  1  0  0  0
 24 23  1  0  0  0  0
 24 15  1  0  0  0  0
 25 21  1  0  0  0  0
 25 26  1  0  0  0  0
 26 12  1  0  0  0  0
 27 20  2  0  0  0  0
 29 34  1  1  0  0  0
 29 32  1  0  0  0  0
 30 31  1  0  0  0  0
 31 29  1  0  0  0  0
 32 28  1  0  0  0  0
 33 30  1  6  0  0  0
 33 15  1  0  0  0  0
 33 28  1  0  0  0  0
 34 36  2  0  0  0  0
 35 34  1  0  0  0  0
 37 44  1  0  0  0  0
 39 47  1  6  0  0  0
 39 41  1  0  0  0  0
 39 48  1  0  0  0  0
 40 43  2  0  0  0  0
 41 42  1  6  0  0  0
 41 38  1  0  0  0  0
 43 46  1  0  0  0  0
 44 43  1  0  0  0  0
 44 47  1  0  0  0  0
 45 48  1  0  0  0  0
 45 38  1  0  0  0  0
 45 52  1  1  0  0  0
 46 42  1  0  0  0  0
 48 49  1  1  0  0  0
 49 50  2  0  0  0  0
 49 51  1  0  0  0  0
 52 53  1  0  0  0  0
 53 54  1  6  0  0  0
 53 55  1  0  0  0  0
M  END
>  <MODEL>
2

>  <REMARK>
 VINA RESULT:      -5.7      1.619      2.023
  Name = 
  7 active torsions:
  status: ('A' for Active; 'I' for Inactive)
    1  A    between atoms: C_1  and  C_53
    2  A    between atoms: C_8  and  N_22
    3  A    between atoms: C_8  and  C_43
    4  A    between atoms: C_10  and  C_32
    5  A    between atoms: C_11  and  N_29
    6  A    between atoms: N_29  and  C_38
    7  A    between atoms: C_33  and  C_52
                            x       y       z     vdW  Elec       q    Type
                         _______ _______ _______ _____ _____    ______ ____

>  <TORSDO>
F 7

$$$$
