=
 OpenBabel10262419453D

 25 27  0  0  0  0  0  0  0  0999 V2000
  186.8590  177.8650  145.3110 C   0  0  0  0  0  0  0  0  0  0  0  0
  188.0410  177.4990  144.6250 C   0  0  0  0  0  0  0  0  0  0  0  0
  188.0590  177.6360  147.4040 C   0  0  0  0  0  3  0  0  0  0  0  0
  189.1850  177.2910  146.7280 N   0  0  0  0  0  0  0  0  0  0  0  0
  190.3910  176.8410  144.7010 C   0  0  0  0  0  0  0  0  0  0  0  0
  191.6440  176.5380  145.4530 C   0  0  0  0  0  1  0  0  0  0  0  0
  188.0770  177.3850  143.2270 C   0  0  0  0  0  3  0  0  0  0  0  0
  186.8860  177.9270  146.7100 C   0  0  0  0  0  3  0  0  0  0  0  0
  190.4030  176.7440  143.3080 C   0  0  0  0  0  3  0  0  0  0  0  0
  189.2520  177.0110  142.5640 C   0  0  0  0  0  0  0  0  0  0  0  0
  189.2120  177.2120  145.3690 C   0  0  0  0  0  0  0  0  0  0  0  0
  185.5960  178.2050  144.6090 C   0  0  0  0  0  0  0  0  0  0  0  0
  183.2350  178.8910  143.2440 C   0  0  0  0  0  3  0  0  0  0  0  0
  184.4340  178.5600  145.3250 C   0  0  0  0  0  0  0  0  0  0  0  0
  183.2620  178.8960  144.6410 C   0  0  0  0  0  3  0  0  0  0  0  0
  184.3810  178.5480  142.5260 C   0  0  0  0  0  3  0  0  0  0  0  0
  184.4230  178.5570  146.6820 F   0  0  0  0  0  0  0  0  0  0  0  0
  185.5550  178.2110  143.2050 C   0  0  0  0  0  3  0  0  0  0  0  0
  189.3110  176.8990  141.1350 N   0  0  0  0  0  2  0  0  0  0  0  0
  188.8440  177.8610  140.1750 C   0  0  0  0  0  0  0  0  0  0  0  0
  188.2540  178.9090  140.5570 O   0  0  0  0  0  0  0  0  0  0  0  0
  187.7650  176.8490  138.1610 C   0  0  0  0  0  1  0  0  0  0  0  0
  189.1590  178.8600  137.9220 C   0  0  0  0  0  1  0  0  0  0  0  0
  190.2070  176.6980  138.4840 C   0  0  0  0  0  1  0  0  0  0  0  0
  188.9870  177.5710  138.7040 C   0  0  0  0  0  0  0  0  0  0  0  0
  1  8  1  0  0  0  0
  2  1  2  0  0  0  0
  2 11  1  0  0  0  0
  4  3  1  0  0  0  0
  5 11  1  0  0  0  0
  5  6  1  0  0  0  0
  7  2  1  0  0  0  0
  8  3  2  0  0  0  0
  9  5  2  0  0  0  0
 10  7  2  0  0  0  0
 10  9  1  0  0  0  0
 11  4  2  0  0  0  0
 12  1  1  0  0  0  0
 12 14  1  0  0  0  0
 13 15  1  0  0  0  0
 14 17  1  0  0  0  0
 15 14  2  0  0  0  0
 16 18  1  0  0  0  0
 16 13  2  0  0  0  0
 18 12  2  0  0  0  0
 19 10  1  0  0  0  0
 20 21  2  0  0  0  0
 20 19  1  0  0  0  0
 22 25  1  0  0  0  0
 23 25  1  0  0  0  0
 24 25  1  0  0  0  0
 25 20  1  0  0  0  0
M  END
>  <MODEL>
1

>  <REMARK>
 VINA RESULT:     -10.4      0.000      0.000
  Name = 
  3 active torsions:
  status: ('A' for Active; 'I' for Inactive)
    1  A    between atoms: C_1  and  C_5
    2  A    between atoms: N_6  and  C_23
    3  A    between atoms: C_15  and  C_21
                            x       y       z     vdW  Elec       q    Type
                         _______ _______ _______ _____ _____    ______ ____

>  <TORSDO>
F 3

$$$$
=
 OpenBabel10262419453D

 25 27  0  0  0  0  0  0  0  0999 V2000
  187.5780  177.7750  144.6080 C   0  0  0  0  0  0  0  0  0  0  0  0
  186.6690  178.0980  143.5730 C   0  0  0  0  0  0  0  0  0  0  0  0
  185.7830  178.0660  146.2100 C   0  0  0  0  0  3  0  0  0  0  0  0
  184.9250  178.3700  145.2030 N   0  0  0  0  0  0  0  0  0  0  0  0
  184.4120  178.7270  142.8850 C   0  0  0  0  0  0  0  0  0  0  0  0
  182.9870  179.0400  143.1950 C   0  0  0  0  0  1  0  0  0  0  0  0
  187.0720  178.1590  142.2300 C   0  0  0  0  0  3  0  0  0  0  0  0
  187.1150  177.7650  145.9300 C   0  0  0  0  0  3  0  0  0  0  0  0
  184.8360  178.7710  141.5550 C   0  0  0  0  0  3  0  0  0  0  0  0
  186.1630  178.4920  141.2190 C   0  0  0  0  0  0  0  0  0  0  0  0
  185.3240  178.3970  143.9030 C   0  0  0  0  0  0  0  0  0  0  0  0
  188.9980  177.4250  144.3500 C   0  0  0  0  0  0  0  0  0  0  0  0
  191.6960  176.8210  143.8390 C   0  0  0  0  0  3  0  0  0  0  0  0
  189.3450  176.2720  143.6170 C   0  0  0  0  0  0  0  0  0  0  0  0
  190.6890  175.9740  143.3700 C   0  0  0  0  0  3  0  0  0  0  0  0
  191.3620  177.9690  144.5580 C   0  0  0  0  0  3  0  0  0  0  0  0
  188.3910  175.4190  143.1650 F   0  0  0  0  0  0  0  0  0  0  0  0
  190.0210  178.2710  144.8090 C   0  0  0  0  0  3  0  0  0  0  0  0
  186.5530  178.5490  139.8400 N   0  0  0  0  0  2  0  0  0  0  0  0
  187.7440  177.9950  139.2580 C   0  0  0  0  0  0  0  0  0  0  0  0
  188.6110  177.4390  139.9870 O   0  0  0  0  0  0  0  0  0  0  0  0
  189.0020  179.2580  137.5050 C   0  0  0  0  0  1  0  0  0  0  0  0
  188.5290  176.8660  137.1880 C   0  0  0  0  0  1  0  0  0  0  0  0
  186.6880  178.5060  137.0910 C   0  0  0  0  0  1  0  0  0  0  0  0
  187.9920  178.1550  137.7800 C   0  0  0  0  0  0  0  0  0  0  0  0
  1  8  1  0  0  0  0
  2 11  1  0  0  0  0
  2  1  2  0  0  0  0
  4  3  1  0  0  0  0
  5  6  1  0  0  0  0
  5 11  1  0  0  0  0
  7  2  1  0  0  0  0
  8  3  2  0  0  0  0
  9  5  2  0  0  0  0
 10  9  1  0  0  0  0
 10  7  2  0  0  0  0
 11  4  2  0  0  0  0
 12  1  1  0  0  0  0
 12 18  1  0  0  0  0
 13 16  1  0  0  0  0
 14 12  2  0  0  0  0
 15 14  1  0  0  0  0
 15 13  2  0  0  0  0
 16 18  2  0  0  0  0
 17 14  1  0  0  0  0
 19 10  1  0  0  0  0
 20 19  1  0  0  0  0
 20 21  2  0  0  0  0
 22 25  1  0  0  0  0
 23 25  1  0  0  0  0
 24 25  1  0  0  0  0
 25 20  1  0  0  0  0
M  END
>  <MODEL>
2

>  <REMARK>
 VINA RESULT:     -10.3      2.070      4.834
  Name = 
  3 active torsions:
  status: ('A' for Active; 'I' for Inactive)
    1  A    between atoms: C_1  and  C_5
    2  A    between atoms: N_6  and  C_23
    3  A    between atoms: C_15  and  C_21
                            x       y       z     vdW  Elec       q    Type
                         _______ _______ _______ _____ _____    ______ ____

>  <TORSDO>
F 3

$$$$
=
 OpenBabel10262419453D

 25 27  0  0  0  0  0  0  0  0999 V2000
  187.4150  177.9700  145.7900 C   0  0  0  0  0  0  0  0  0  0  0  0
  186.7720  178.1520  144.5420 C   0  0  0  0  0  0  0  0  0  0  0  0
  185.3000  178.4060  146.8910 C   0  0  0  0  0  3  0  0  0  0  0  0
  184.7000  178.5720  145.6850 N   0  0  0  0  0  0  0  0  0  0  0  0
  184.7370  178.6480  143.2850 C   0  0  0  0  0  0  0  0  0  0  0  0
  183.2810  178.9650  143.2210 C   0  0  0  0  0  1  0  0  0  0  0  0
  187.4730  178.0660  143.3310 C   0  0  0  0  0  3  0  0  0  0  0  0
  186.6590  178.1030  146.9610 C   0  0  0  0  0  3  0  0  0  0  0  0
  185.4580  178.5470  142.0930 C   0  0  0  0  0  3  0  0  0  0  0  0
  186.8240  178.2600  142.1060 C   0  0  0  0  0  0  0  0  0  0  0  0
  185.3880  178.4580  144.5170 C   0  0  0  0  0  0  0  0  0  0  0  0
  188.8540  177.6230  145.9080 C   0  0  0  0  0  0  0  0  0  0  0  0
  191.5780  176.9470  146.0730 C   0  0  0  0  0  3  0  0  0  0  0  0
  189.3320  176.8400  146.9780 C   0  0  0  0  0  0  0  0  0  0  0  0
  190.6880  176.5100  147.0570 C   0  0  0  0  0  3  0  0  0  0  0  0
  191.1130  177.7160  145.0050 C   0  0  0  0  0  3  0  0  0  0  0  0
  188.4960  176.4170  147.9600 F   0  0  0  0  0  0  0  0  0  0  0  0
  189.7590  178.0500  144.9220 C   0  0  0  0  0  3  0  0  0  0  0  0
  187.5220  178.1650  140.8570 N   0  0  0  0  0  2  0  0  0  0  0  0
  188.7190  177.4150  140.5930 C   0  0  0  0  0  0  0  0  0  0  0  0
  189.3060  176.8000  141.5260 O   0  0  0  0  0  0  0  0  0  0  0  0
  190.7970  177.0860  139.2440 C   0  0  0  0  0  1  0  0  0  0  0  0
  188.6180  176.4320  138.3130 C   0  0  0  0  0  1  0  0  0  0  0  0
  189.1580  178.8210  138.6180 C   0  0  0  0  0  1  0  0  0  0  0  0
  189.3180  177.4350  139.2110 C   0  0  0  0  0  0  0  0  0  0  0  0
  1 12  1  0  0  0  0
  1  8  1  0  0  0  0
  2  1  2  0  0  0  0
  3  8  2  0  0  0  0
  4  3  1  0  0  0  0
  5 11  1  0  0  0  0
  6  5  1  0  0  0  0
  7  2  1  0  0  0  0
  9 10  1  0  0  0  0
  9  5  2  0  0  0  0
 10  7  2  0  0  0  0
 11  2  1  0  0  0  0
 11  4  2  0  0  0  0
 12 14  1  0  0  0  0
 13 15  1  0  0  0  0
 14 15  2  0  0  0  0
 14 17  1  0  0  0  0
 16 13  2  0  0  0  0
 18 16  1  0  0  0  0
 18 12  2  0  0  0  0
 19 10  1  0  0  0  0
 20 19  1  0  0  0  0
 20 21  2  0  0  0  0
 23 25  1  0  0  0  0
 24 25  1  0  0  0  0
 25 22  1  0  0  0  0
 25 20  1  0  0  0  0
M  END
>  <MODEL>
3

>  <REMARK>
 VINA RESULT:     -10.1      1.818      4.592
  Name = 
  3 active torsions:
  status: ('A' for Active; 'I' for Inactive)
    1  A    between atoms: C_1  and  C_5
    2  A    between atoms: N_6  and  C_23
    3  A    between atoms: C_15  and  C_21
                            x       y       z     vdW  Elec       q    Type
                         _______ _______ _______ _____ _____    ______ ____

>  <TORSDO>
F 3

$$$$
=
 OpenBabel10262419453D

 25 27  0  0  0  0  0  0  0  0999 V2000
  188.2230  177.6980  144.9950 C   0  0  0  0  0  0  0  0  0  0  0  0
  186.9640  178.0640  144.4620 C   0  0  0  0  0  0  0  0  0  0  0  0
  187.2440  177.7480  147.2120 C   0  0  0  0  0  3  0  0  0  0  0  0
  186.0440  178.0940  146.6810 N   0  0  0  0  0  0  0  0  0  0  0  0
  184.6170  178.6300  144.8260 C   0  0  0  0  0  0  0  0  0  0  0  0
  183.4430  178.8370  145.7220 C   0  0  0  0  0  1  0  0  0  0  0  0
  186.7770  178.2660  143.0870 C   0  0  0  0  0  3  0  0  0  0  0  0
  188.3460  177.5460  146.3820 C   0  0  0  0  0  3  0  0  0  0  0  0
  184.4550  178.8160  143.4520 C   0  0  0  0  0  3  0  0  0  0  0  0
  185.5280  178.6390  142.5760 C   0  0  0  0  0  0  0  0  0  0  0  0
  185.8710  178.2590  145.3420 C   0  0  0  0  0  0  0  0  0  0  0  0
  189.4140  177.4500  144.1450 C   0  0  0  0  0  0  0  0  0  0  0  0
  191.6660  177.0390  142.5130 C   0  0  0  0  0  3  0  0  0  0  0  0
  189.4720  176.3440  143.2730 C   0  0  0  0  0  0  0  0  0  0  0  0
  190.5970  176.1420  142.4670 C   0  0  0  0  0  3  0  0  0  0  0  0
  191.6150  178.1420  143.3660 C   0  0  0  0  0  3  0  0  0  0  0  0
  188.4580  175.4440  143.2190 F   0  0  0  0  0  0  0  0  0  0  0  0
  190.4940  178.3480  144.1750 C   0  0  0  0  0  3  0  0  0  0  0  0
  185.3140  178.8400  141.1720 N   0  0  0  0  0  2  0  0  0  0  0  0
  184.2490  178.2970  140.3750 C   0  0  0  0  0  0  0  0  0  0  0  0
  183.4120  177.5030  140.8860 O   0  0  0  0  0  0  0  0  0  0  0  0
  185.5710  178.6280  138.2800 C   0  0  0  0  0  1  0  0  0  0  0  0
  183.3480  177.5840  138.1720 C   0  0  0  0  0  1  0  0  0  0  0  0
  183.5540  179.9820  138.7170 C   0  0  0  0  0  1  0  0  0  0  0  0
  184.1850  178.6160  138.9040 C   0  0  0  0  0  0  0  0  0  0  0  0
  1  8  1  0  0  0  0
  2  1  2  0  0  0  0
  2 11  1  0  0  0  0
  4  3  1  0  0  0  0
  5 11  1  0  0  0  0
  5  6  1  0  0  0  0
  7  2  1  0  0  0  0
  8  3  2  0  0  0  0
  9  5  2  0  0  0  0
 10  7  2  0  0  0  0
 10  9  1  0  0  0  0
 11  4  2  0  0  0  0
 12 18  1  0  0  0  0
 12  1  1  0  0  0  0
 13 16  1  0  0  0  0
 14 12  2  0  0  0  0
 15 13  2  0  0  0  0
 15 14  1  0  0  0  0
 16 18  2  0  0  0  0
 17 14  1  0  0  0  0
 19 10  1  0  0  0  0
 20 21  2  0  0  0  0
 20 19  1  0  0  0  0
 22 25  1  0  0  0  0
 23 25  1  0  0  0  0
 24 25  1  0  0  0  0
 25 20  1  0  0  0  0
M  END
>  <MODEL>
4

>  <REMARK>
 VINA RESULT:     -10.1      2.658      5.269
  Name = 
  3 active torsions:
  status: ('A' for Active; 'I' for Inactive)
    1  A    between atoms: C_1  and  C_5
    2  A    between atoms: N_6  and  C_23
    3  A    between atoms: C_15  and  C_21
                            x       y       z     vdW  Elec       q    Type
                         _______ _______ _______ _____ _____    ______ ____

>  <TORSDO>
F 3

$$$$
=
 OpenBabel10262419453D

 25 27  0  0  0  0  0  0  0  0999 V2000
  183.6040  178.4240  142.5260 C   0  0  0  0  0  0  0  0  0  0  0  0
  184.6910  178.2470  143.4160 C   0  0  0  0  0  0  0  0  0  0  0  0
  182.2740  179.2290  144.3850 C   0  0  0  0  0  3  0  0  0  0  0  0
  183.3280  179.0570  145.2220 N   0  0  0  0  0  0  0  0  0  0  0  0
  185.5920  178.4010  145.6800 C   0  0  0  0  0  0  0  0  0  0  0  0
  185.4540  178.7440  147.1250 C   0  0  0  0  0  1  0  0  0  0  0  0
  185.9200  177.7280  142.9850 C   0  0  0  0  0  3  0  0  0  0  0  0
  182.3950  178.9170  143.0320 C   0  0  0  0  0  3  0  0  0  0  0  0
  186.8090  177.8900  145.2230 C   0  0  0  0  0  3  0  0  0  0  0  0
  186.9810  177.5480  143.8800 C   0  0  0  0  0  0  0  0  0  0  0  0
  184.5240  178.5770  144.7840 C   0  0  0  0  0  0  0  0  0  0  0  0
  183.6990  178.1270  141.0750 C   0  0  0  0  0  0  0  0  0  0  0  0
  183.8850  177.5040  138.3390 C   0  0  0  0  0  3  0  0  0  0  0  0
  184.6090  178.8150  140.2460 C   0  0  0  0  0  0  0  0  0  0  0  0
  184.6940  178.5040  138.8850 C   0  0  0  0  0  3  0  0  0  0  0  0
  182.9870  176.8120  139.1530 C   0  0  0  0  0  3  0  0  0  0  0  0
  185.3940  179.8040  140.7420 F   0  0  0  0  0  0  0  0  0  0  0  0
  182.8970  177.1200  140.5130 C   0  0  0  0  0  3  0  0  0  0  0  0
  188.2480  177.0280  143.4560 N   0  0  0  0  0  2  0  0  0  0  0  0
  189.1340  177.6030  142.4820 C   0  0  0  0  0  0  0  0  0  0  0  0
  188.7990  178.6420  141.8500 O   0  0  0  0  0  0  0  0  0  0  0  0
  190.5580  176.6380  140.6680 C   0  0  0  0  0  1  0  0  0  0  0  0
  191.6120  177.7670  142.5820 C   0  0  0  0  0  1  0  0  0  0  0  0
  190.4930  175.5910  142.9020 C   0  0  0  0  0  1  0  0  0  0  0  0
  190.4330  176.9110  142.1590 C   0  0  0  0  0  0  0  0  0  0  0  0
  1  8  2  0  0  0  0
  1  2  1  0  0  0  0
  2 11  1  0  0  0  0
  3  4  2  0  0  0  0
  5  6  1  0  0  0  0
  7  2  2  0  0  0  0
  7 10  1  0  0  0  0
  8  3  1  0  0  0  0
  9  5  1  0  0  0  0
 10  9  2  0  0  0  0
 11  4  1  0  0  0  0
 11  5  2  0  0  0  0
 12  1  1  0  0  0  0
 13 15  2  0  0  0  0
 13 16  1  0  0  0  0
 14 17  1  0  0  0  0
 14 12  2  0  0  0  0
 15 14  1  0  0  0  0
 16 18  2  0  0  0  0
 18 12  1  0  0  0  0
 19 10  1  0  0  0  0
 20 19  1  0  0  0  0
 21 20  2  0  0  0  0
 22 25  1  0  0  0  0
 25 20  1  0  0  0  0
 25 23  1  0  0  0  0
 25 24  1  0  0  0  0
M  END
>  <MODEL>
5

>  <REMARK>
 VINA RESULT:      -9.7      2.590      4.663
  Name = 
  3 active torsions:
  status: ('A' for Active; 'I' for Inactive)
    1  A    between atoms: C_1  and  C_5
    2  A    between atoms: N_6  and  C_23
    3  A    between atoms: C_15  and  C_21
                            x       y       z     vdW  Elec       q    Type
                         _______ _______ _______ _____ _____    ______ ____

>  <TORSDO>
F 3

$$$$
=
 OpenBabel10262419453D

 25 27  0  0  0  0  0  0  0  0999 V2000
  183.7020  178.4560  142.1220 C   0  0  0  0  0  0  0  0  0  0  0  0
  184.6770  178.2580  143.1280 C   0  0  0  0  0  0  0  0  0  0  0  0
  182.1340  179.1380  143.8400 C   0  0  0  0  0  3  0  0  0  0  0  0
  183.0840  178.9460  144.7910 N   0  0  0  0  0  0  0  0  0  0  0  0
  185.2920  178.3150  145.4910 C   0  0  0  0  0  0  0  0  0  0  0  0
  184.9710  178.5820  146.9220 C   0  0  0  0  0  1  0  0  0  0  0  0
  185.9630  177.7860  142.8270 C   0  0  0  0  0  3  0  0  0  0  0  0
  182.4270  178.8970  142.4980 C   0  0  0  0  0  3  0  0  0  0  0  0
  186.5690  177.8540  145.1620 C   0  0  0  0  0  3  0  0  0  0  0  0
  186.9120  177.5850  143.8360 C   0  0  0  0  0  0  0  0  0  0  0  0
  184.3360  178.5150  144.4790 C   0  0  0  0  0  0  0  0  0  0  0  0
  183.9800  178.2350  140.6800 C   0  0  0  0  0  0  0  0  0  0  0  0
  184.5020  177.8770  137.9400 C   0  0  0  0  0  3  0  0  0  0  0  0
  183.2500  177.2890  139.9310 C   0  0  0  0  0  0  0  0  0  0  0  0
  183.5170  177.1120  138.5710 C   0  0  0  0  0  3  0  0  0  0  0  0
  185.2250  178.8210  138.6710 C   0  0  0  0  0  3  0  0  0  0  0  0
  182.3000  176.5170  140.5190 F   0  0  0  0  0  0  0  0  0  0  0  0
  184.9630  179.0010  140.0320 C   0  0  0  0  0  3  0  0  0  0  0  0
  188.2350  177.1130  143.5460 N   0  0  0  0  0  2  0  0  0  0  0  0
  189.4480  177.4820  144.2210 C   0  0  0  0  0  0  0  0  0  0  0  0
  189.4310  178.3530  145.1340 O   0  0  0  0  0  0  0  0  0  0  0  0
  190.5370  175.6300  142.9420 C   0  0  0  0  0  1  0  0  0  0  0  0
  191.5380  177.8760  142.9350 C   0  0  0  0  0  1  0  0  0  0  0  0
  191.5800  176.5190  144.9950 C   0  0  0  0  0  1  0  0  0  0  0  0
  190.7570  176.8830  143.7750 C   0  0  0  0  0  0  0  0  0  0  0  0
  1  8  2  0  0  0  0
  1  2  1  0  0  0  0
  2 11  1  0  0  0  0
  3  4  2  0  0  0  0
  5  6  1  0  0  0  0
  7  2  2  0  0  0  0
  7 10  1  0  0  0  0
  8  3  1  0  0  0  0
  9  5  1  0  0  0  0
 10  9  2  0  0  0  0
 11  4  1  0  0  0  0
 11  5  2  0  0  0  0
 12  1  1  0  0  0  0
 13 15  2  0  0  0  0
 13 16  1  0  0  0  0
 14 17  1  0  0  0  0
 14 12  2  0  0  0  0
 15 14  1  0  0  0  0
 16 18  2  0  0  0  0
 18 12  1  0  0  0  0
 19 10  1  0  0  0  0
 19 20  1  0  0  0  0
 20 21  2  0  0  0  0
 22 25  1  0  0  0  0
 23 25  1  0  0  0  0
 25 20  1  0  0  0  0
 25 24  1  0  0  0  0
M  END
>  <MODEL>
6

>  <REMARK>
 VINA RESULT:      -9.6      2.811      5.226
  Name = 
  3 active torsions:
  status: ('A' for Active; 'I' for Inactive)
    1  A    between atoms: C_1  and  C_5
    2  A    between atoms: N_6  and  C_23
    3  A    between atoms: C_15  and  C_21
                            x       y       z     vdW  Elec       q    Type
                         _______ _______ _______ _____ _____    ______ ____

>  <TORSDO>
F 3

$$$$
=
 OpenBabel10262419453D

 25 27  0  0  0  0  0  0  0  0999 V2000
  188.7440  177.6810  143.4690 C   0  0  0  0  0  0  0  0  0  0  0  0
  187.3850  177.8660  143.8170 C   0  0  0  0  0  0  0  0  0  0  0  0
  189.3030  177.7050  145.8270 C   0  0  0  0  0  3  0  0  0  0  0  0
  187.9940  177.8770  146.1420 N   0  0  0  0  0  0  0  0  0  0  0  0
  185.6840  178.1530  145.5460 C   0  0  0  0  0  0  0  0  0  0  0  0
  185.2730  178.2530  146.9760 C   0  0  0  0  0  1  0  0  0  0  0  0
  186.3830  177.9850  142.8430 C   0  0  0  0  0  3  0  0  0  0  0  0
  189.6960  177.6040  144.4940 C   0  0  0  0  0  3  0  0  0  0  0  0
  184.7050  178.2590  144.5560 C   0  0  0  0  0  3  0  0  0  0  0  0
  185.0450  178.1790  143.2040 C   0  0  0  0  0  0  0  0  0  0  0  0
  187.0290  177.9630  145.1850 C   0  0  0  0  0  0  0  0  0  0  0  0
  189.2010  177.5450  142.0630 C   0  0  0  0  0  0  0  0  0  0  0  0
  190.0070  177.2880  139.3820 C   0  0  0  0  0  3  0  0  0  0  0  0
  190.1090  176.5350  141.6840 C   0  0  0  0  0  0  0  0  0  0  0  0
  190.5100  176.4150  140.3500 C   0  0  0  0  0  3  0  0  0  0  0  0
  189.1030  178.2860  139.7460 C   0  0  0  0  0  3  0  0  0  0  0  0
  190.6290  175.6830  142.6030 F   0  0  0  0  0  0  0  0  0  0  0  0
  188.7000  178.4120  141.0780 C   0  0  0  0  0  3  0  0  0  0  0  0
  184.0060  178.2920  142.2220 N   0  0  0  0  0  2  0  0  0  0  0  0
  184.1220  178.8550  140.9050 C   0  0  0  0  0  0  0  0  0  0  0  0
  185.2060  179.3790  140.5290 O   0  0  0  0  0  0  0  0  0  0  0  0
  181.6280  179.0100  140.8080 C   0  0  0  0  0  1  0  0  0  0  0  0
  182.9900  180.0810  139.0630 C   0  0  0  0  0  1  0  0  0  0  0  0
  182.8630  177.6190  139.1850 C   0  0  0  0  0  1  0  0  0  0  0  0
  182.9140  178.8930  140.0050 C   0  0  0  0  0  0  0  0  0  0  0  0
  1  2  2  0  0  0  0
  1  8  1  0  0  0  0
  2 11  1  0  0  0  0
  3  4  1  0  0  0  0
  5  6  1  0  0  0  0
  7 10  2  0  0  0  0
  7  2  1  0  0  0  0
  8  3  2  0  0  0  0
  9  5  2  0  0  0  0
 10  9  1  0  0  0  0
 11  5  1  0  0  0  0
 11  4  2  0  0  0  0
 12  1  1  0  0  0  0
 13 16  2  0  0  0  0
 13 15  1  0  0  0  0
 14 12  1  0  0  0  0
 14 17  1  0  0  0  0
 15 14  2  0  0  0  0
 16 18  1  0  0  0  0
 18 12  2  0  0  0  0
 19 10  1  0  0  0  0
 20 19  1  0  0  0  0
 21 20  2  0  0  0  0
 23 25  1  0  0  0  0
 24 25  1  0  0  0  0
 25 22  1  0  0  0  0
 25 20  1  0  0  0  0
M  END
>  <MODEL>
7

>  <REMARK>
 VINA RESULT:      -9.5      2.641      5.405
  Name = 
  3 active torsions:
  status: ('A' for Active; 'I' for Inactive)
    1  A    between atoms: C_1  and  C_5
    2  A    between atoms: N_6  and  C_23
    3  A    between atoms: C_15  and  C_21
                            x       y       z     vdW  Elec       q    Type
                         _______ _______ _______ _____ _____    ______ ____

>  <TORSDO>
F 3

$$$$
=
 OpenBabel10262419453D

 25 27  0  0  0  0  0  0  0  0999 V2000
  184.9650  178.4570  144.1130 C   0  0  0  0  0  0  0  0  0  0  0  0
  184.9590  178.5940  142.7040 C   0  0  0  0  0  0  0  0  0  0  0  0
  182.5770  178.8720  144.1160 C   0  0  0  0  0  3  0  0  0  0  0  0
  182.5910  178.9960  142.7640 N   0  0  0  0  0  0  0  0  0  0  0  0
  183.7170  179.0130  140.6440 C   0  0  0  0  0  0  0  0  0  0  0  0
  182.4480  179.2950  139.9130 C   0  0  0  0  0  1  0  0  0  0  0  0
  186.1360  178.4930  141.9490 C   0  0  0  0  0  3  0  0  0  0  0  0
  183.7570  178.6020  144.8070 C   0  0  0  0  0  3  0  0  0  0  0  0
  184.9020  178.8990  139.9140 C   0  0  0  0  0  3  0  0  0  0  0  0
  186.1150  178.6420  140.5570 C   0  0  0  0  0  0  0  0  0  0  0  0
  183.7370  178.8680  142.0420 C   0  0  0  0  0  0  0  0  0  0  0  0
  186.1950  178.1460  144.8840 C   0  0  0  0  0  0  0  0  0  0  0  0
  188.5200  177.4980  146.3260 C   0  0  0  0  0  3  0  0  0  0  0  0
  186.3190  178.5120  146.2400 C   0  0  0  0  0  0  0  0  0  0  0  0
  187.4800  178.1910  146.9510 C   0  0  0  0  0  3  0  0  0  0  0  0
  188.4030  177.1250  144.9870 C   0  0  0  0  0  3  0  0  0  0  0  0
  185.3350  179.2020  146.8700 F   0  0  0  0  0  0  0  0  0  0  0  0
  187.2460  177.4450  144.2710 C   0  0  0  0  0  3  0  0  0  0  0  0
  187.3070  178.5330  139.7660 N   0  0  0  0  0  2  0  0  0  0  0  0
  187.4410  177.8760  138.4960 C   0  0  0  0  0  0  0  0  0  0  0  0
  186.4640  177.2570  137.9910 O   0  0  0  0  0  0  0  0  0  0  0  0
  189.8970  177.5090  138.7770 C   0  0  0  0  0  1  0  0  0  0  0  0
  188.7900  176.8320  136.6890 C   0  0  0  0  0  1  0  0  0  0  0  0
  189.0570  179.2280  137.2180 C   0  0  0  0  0  1  0  0  0  0  0  0
  188.7800  177.8580  137.8060 C   0  0  0  0  0  0  0  0  0  0  0  0
  1  8  1  0  0  0  0
  1 12  1  0  0  0  0
  2  1  2  0  0  0  0
  3  8  2  0  0  0  0
  4  3  1  0  0  0  0
  5 11  1  0  0  0  0
  6  5  1  0  0  0  0
  7  2  1  0  0  0  0
  9 10  1  0  0  0  0
  9  5  2  0  0  0  0
 10  7  2  0  0  0  0
 11  2  1  0  0  0  0
 11  4  2  0  0  0  0
 12 14  1  0  0  0  0
 13 15  1  0  0  0  0
 14 17  1  0  0  0  0
 14 15  2  0  0  0  0
 16 13  2  0  0  0  0
 18 12  2  0  0  0  0
 18 16  1  0  0  0  0
 19 10  1  0  0  0  0
 20 19  1  0  0  0  0
 21 20  2  0  0  0  0
 23 25  1  0  0  0  0
 24 25  1  0  0  0  0
 25 20  1  0  0  0  0
 25 22  1  0  0  0  0
M  END
>  <MODEL>
8

>  <REMARK>
 VINA RESULT:      -9.2      2.193      4.839
  Name = 
  3 active torsions:
  status: ('A' for Active; 'I' for Inactive)
    1  A    between atoms: C_1  and  C_5
    2  A    between atoms: N_6  and  C_23
    3  A    between atoms: C_15  and  C_21
                            x       y       z     vdW  Elec       q    Type
                         _______ _______ _______ _____ _____    ______ ____

>  <TORSDO>
F 3

$$$$
=
 OpenBabel10262419453D

 25 27  0  0  0  0  0  0  0  0999 V2000
  188.8450  177.7070  141.6460 C   0  0  0  0  0  0  0  0  0  0  0  0
  189.0550  177.6440  140.2480 C   0  0  0  0  0  0  0  0  0  0  0  0
  186.6530  178.6510  141.2280 C   0  0  0  0  0  3  0  0  0  0  0  0
  186.8700  178.5790  139.8900 N   0  0  0  0  0  0  0  0  0  0  0  0
  188.2290  178.0450  137.9840 C   0  0  0  0  0  0  0  0  0  0  0  0
  187.1730  178.5040  137.0370 C   0  0  0  0  0  1  0  0  0  0  0  0
  190.2580  177.1750  139.7020 C   0  0  0  0  0  3  0  0  0  0  0  0
  187.6310  178.2190  142.1210 C   0  0  0  0  0  3  0  0  0  0  0  0
  189.4340  177.5630  137.4670 C   0  0  0  0  0  3  0  0  0  0  0  0
  190.4530  177.1290  138.3170 C   0  0  0  0  0  0  0  0  0  0  0  0
  188.0330  178.0950  139.3760 C   0  0  0  0  0  0  0  0  0  0  0  0
  189.8520  177.2350  142.6300 C   0  0  0  0  0  0  0  0  0  0  0  0
  191.7160  176.3010  144.5160 C   0  0  0  0  0  3  0  0  0  0  0  0
  190.5430  178.1410  143.4610 C   0  0  0  0  0  0  0  0  0  0  0  0
  191.4720  177.6710  144.3930 C   0  0  0  0  0  3  0  0  0  0  0  0
  191.0320  175.3960  143.7040 C   0  0  0  0  0  3  0  0  0  0  0  0
  190.3420  179.4790  143.3530 F   0  0  0  0  0  0  0  0  0  0  0  0
  190.1030  175.8600  142.7690 C   0  0  0  0  0  3  0  0  0  0  0  0
  191.6730  176.6430  137.7410 N   0  0  0  0  0  2  0  0  0  0  0  0
  192.0300  175.2700  137.5100 C   0  0  0  0  0  0  0  0  0  0  0  0
  191.2640  174.3400  137.8850 O   0  0  0  0  0  0  0  0  0  0  0  0
  194.0130  176.1800  136.2890 C   0  0  0  0  0  1  0  0  0  0  0  0
  194.3100  174.3800  137.9370 C   0  0  0  0  0  1  0  0  0  0  0  0
  193.1700  173.9130  135.7980 C   0  0  0  0  0  1  0  0  0  0  0  0
  193.3650  174.9440  136.8920 C   0  0  0  0  0  0  0  0  0  0  0  0
  1  8  1  0  0  0  0
  1 12  1  0  0  0  0
  2  1  2  0  0  0  0
  3  8  2  0  0  0  0
  4  3  1  0  0  0  0
  5 11  1  0  0  0  0
  6  5  1  0  0  0  0
  7  2  1  0  0  0  0
  9  5  2  0  0  0  0
  9 10  1  0  0  0  0
 10  7  2  0  0  0  0
 11  4  2  0  0  0  0
 11  2  1  0  0  0  0
 12 18  2  0  0  0  0
 12 14  1  0  0  0  0
 14 15  2  0  0  0  0
 15 13  1  0  0  0  0
 16 13  2  0  0  0  0
 17 14  1  0  0  0  0
 18 16  1  0  0  0  0
 19 10  1  0  0  0  0
 20 19  1  0  0  0  0
 20 21  2  0  0  0  0
 22 25  1  0  0  0  0
 24 25  1  0  0  0  0
 25 20  1  0  0  0  0
 25 23  1  0  0  0  0
M  END
>  <MODEL>
9

>  <REMARK>
 VINA RESULT:      -9.2      3.511      6.241
  Name = 
  3 active torsions:
  status: ('A' for Active; 'I' for Inactive)
    1  A    between atoms: C_1  and  C_5
    2  A    between atoms: N_6  and  C_23
    3  A    between atoms: C_15  and  C_21
                            x       y       z     vdW  Elec       q    Type
                         _______ _______ _______ _____ _____    ______ ____

>  <TORSDO>
F 3

$$$$
