=
 OpenBabel10262423203D

 34 37  0  0  1  0  0  0  0  0999 V2000
  189.2340  178.6010  136.8780 C   0  0  0  0  0  2  0  0  0  0  0  0
  187.1650  177.1890  136.6230 C   0  0  0  0  0  1  0  0  0  0  0  0
  188.9100  179.2180  138.2370 C   0  0  0  0  0  2  0  0  0  0  0  0
  189.0840  178.2340  139.3970 C   0  0  2  0  0  3  0  0  0  0  0  0
  188.6770  177.1760  136.7620 C   0  0  2  0  0  3  0  0  0  0  0  0
  189.8060  176.9480  138.9470 C   0  0  2  0  0  3  0  0  0  0  0  0
  189.0790  176.2680  137.8560 N   0  0  0  0  0  0  0  0  0  0  0  0
  190.1220  175.0620  137.1560 S   0  0  0  0  0  0  0  0  0  0  0  0
  190.9030  175.6640  136.0190 O   0  0  0  0  0  0  0  0  0  0  0  0
  191.0860  174.5490  138.1890 O   0  0  0  0  0  0  0  0  0  0  0  0
  187.8710  173.4960  137.0450 C   0  0  0  0  0  3  0  0  0  0  0  0
  187.6690  171.5390  135.6340 C   0  0  0  0  0  3  0  0  0  0  0  0
  187.1210  172.4120  136.5790 C   0  0  0  0  0  3  0  0  0  0  0  0
  189.7140  172.8360  135.6200 C   0  0  0  0  0  3  0  0  0  0  0  0
  189.1670  173.7120  136.5650 C   0  0  0  0  0  0  0  0  0  0  0  0
  188.9650  171.7510  135.1540 C   0  0  0  0  0  3  0  0  0  0  0  0
  189.9810  176.0820  140.0320 O   0  0  0  0  0  0  0  0  0  0  0  0
  190.5750  176.8650  141.0260 C   0  0  0  0  0  2  0  0  0  0  0  0
  190.6290  176.0980  142.3390 C   0  0  0  0  0  2  0  0  0  0  0  0
  191.7950  178.3140  144.0450 C   0  0  0  0  0  2  0  0  0  0  0  0
  187.7890  177.4580  145.7030 C   0  0  0  0  0  0  0  0  0  0  0  0
  189.0820  177.3360  146.4160 C   0  0  0  0  0  0  0  0  0  0  0  0
  190.3220  177.3490  145.7750 O   0  0  0  0  0  0  0  0  0  0  0  0
  186.7170  177.8700  146.4250 F   0  0  0  0  0  0  0  0  0  0  0  0
  190.4810  177.6570  144.4030 C   0  0  0  0  0  0  0  0  0  0  0  0
  189.0630  177.2460  147.6710 O   0  0  0  0  0  0  0  0  0  0  0  0
  188.5040  176.5560  143.4370 C   0  0  0  0  0  3  0  0  0  0  0  0
  189.8180  176.7750  143.3980 C   0  0  0  0  0  0  0  0  0  0  0  0
  187.5560  177.0770  144.4400 C   0  0  0  0  0  3  0  0  0  0  0  0
  190.5080  179.1350  144.0880 C   0  0  0  0  0  2  0  0  0  0  0  0
  187.7180  177.9480  140.0160 C   0  0  0  0  0  2  0  0  0  0  0  0
  187.4150  178.8980  141.1630 C   0  0  0  0  0  2  0  0  0  0  0  0
  185.6440  178.8520  141.5720 S   0  0  0  0  0  0  0  0  0  0  0  0
  185.1700  178.8280  139.8220 C   0  0  0  0  0  1  0  0  0  0  0  0
  1  3  1  0  0  0  0
  3  4  1  0  0  0  0
  4 31  1  6  0  0  0
  5  2  1  1  0  0  0
  5  1  1  0  0  0  0
  5  7  1  0  0  0  0
  6  4  1  0  0  0  0
  6 17  1  1  0  0  0
  7  6  1  0  0  0  0
  8  7  1  0  0  0  0
  8 10  2  0  0  0  0
  9  8  2  0  0  0  0
 12 13  2  0  0  0  0
 13 11  1  0  0  0  0
 14 15  1  0  0  0  0
 15 11  2  0  0  0  0
 15  8  1  0  0  0  0
 16 14  2  0  0  0  0
 16 12  1  0  0  0  0
 17 18  1  0  0  0  0
 18 19  1  0  0  0  0
 19 28  1  0  0  0  0
 20 30  1  0  0  0  0
 20 25  1  0  0  0  0
 21 22  1  0  0  0  0
 21 24  1  0  0  0  0
 22 26  2  0  0  0  0
 23 22  1  0  0  0  0
 25 23  1  0  0  0  0
 27 29  1  0  0  0  0
 28 27  2  0  0  0  0
 28 25  1  0  0  0  0
 29 21  2  0  0  0  0
 30 25  1  0  0  0  0
 31 32  1  0  0  0  0
 32 33  1  0  0  0  0
 34 33  1  0  0  0  0
M  END
>  <MODEL>
1

>  <REMARK>
 VINA RESULT:      -7.5      0.000      0.000
  Name = 
  9 active torsions:
  status: ('A' for Active; 'I' for Inactive)
    1  A    between atoms: S_1  and  C_20
    2  A    between atoms: S_1  and  N_34
    3  A    between atoms: S_3  and  C_13
    4  A    between atoms: C_6  and  O_18
    5  A    between atoms: C_6  and  C_30
    6  A    between atoms: C_13  and  C_27
    7  A    between atoms: O_18  and  C_33
    8  A    between atoms: C_25  and  C_27
    9  A    between atoms: C_28  and  C_30
                            x       y       z     vdW  Elec       q    Type
                         _______ _______ _______ _____ _____    ______ ____

>  <TORSDO>
F 9

$$$$
=
 OpenBabel10262423203D

 34 37  0  0  1  0  0  0  0  0999 V2000
  189.0940  178.3450  136.5070 C   0  0  0  0  0  2  0  0  0  0  0  0
  186.9500  177.0250  136.4910 C   0  0  0  0  0  1  0  0  0  0  0  0
  188.9130  179.0350  137.8590 C   0  0  0  0  0  2  0  0  0  0  0  0
  189.1420  178.0950  139.0450 C   0  0  2  0  0  3  0  0  0  0  0  0
  188.4660  176.9450  136.5040 C   0  0  2  0  0  3  0  0  0  0  0  0
  189.7650  176.7570  138.5970 C   0  0  2  0  0  3  0  0  0  0  0  0
  188.9190  176.0660  137.6040 N   0  0  0  0  0  0  0  0  0  0  0  0
  189.8450  174.7830  136.8770 S   0  0  0  0  0  0  0  0  0  0  0  0
  189.7140  173.5310  137.7020 O   0  0  0  0  0  0  0  0  0  0  0  0
  189.3420  174.5050  135.4880 O   0  0  0  0  0  0  0  0  0  0  0  0
  192.0010  175.9940  135.6860 C   0  0  0  0  0  3  0  0  0  0  0  0
  194.2390  175.9540  136.6110 C   0  0  0  0  0  3  0  0  0  0  0  0
  193.3510  176.3490  135.6050 C   0  0  0  0  0  3  0  0  0  0  0  0
  192.4260  174.8530  137.7790 C   0  0  0  0  0  3  0  0  0  0  0  0
  191.5360  175.2470  136.7740 C   0  0  0  0  0  0  0  0  0  0  0  0
  193.7770  175.2060  137.6980 C   0  0  0  0  0  3  0  0  0  0  0  0
  189.9920  175.9310  139.7030 O   0  0  0  0  0  0  0  0  0  0  0  0
  190.4940  176.7820  140.6920 C   0  0  0  0  0  2  0  0  0  0  0  0
  190.6400  176.0330  142.0080 C   0  0  0  0  0  2  0  0  0  0  0  0
  191.7760  178.1980  143.7990 C   0  0  0  0  0  2  0  0  0  0  0  0
  187.7710  177.2420  145.4050 C   0  0  0  0  0  0  0  0  0  0  0  0
  189.0620  177.1070  146.1190 C   0  0  0  0  0  0  0  0  0  0  0  0
  190.3050  177.1560  145.4860 O   0  0  0  0  0  0  0  0  0  0  0  0
  186.6920  177.6160  146.1360 F   0  0  0  0  0  0  0  0  0  0  0  0
  190.4670  177.5150  144.1260 C   0  0  0  0  0  0  0  0  0  0  0  0
  189.0390  176.9720  147.3710 O   0  0  0  0  0  0  0  0  0  0  0  0
  188.5060  176.4290  143.1120 C   0  0  0  0  0  3  0  0  0  0  0  0
  189.8170  176.6640  143.0870 C   0  0  0  0  0  0  0  0  0  0  0  0
  187.5480  176.9040  144.1280 C   0  0  0  0  0  3  0  0  0  0  0  0
  190.4800  179.0040  143.8650 C   0  0  0  0  0  2  0  0  0  0  0  0
  187.8220  177.9010  139.7870 C   0  0  0  0  0  2  0  0  0  0  0  0
  187.6800  178.8840  140.9390 C   0  0  0  0  0  2  0  0  0  0  0  0
  185.9410  179.0090  141.4530 S   0  0  0  0  0  0  0  0  0  0  0  0
  185.3480  178.6960  139.7680 C   0  0  0  0  0  1  0  0  0  0  0  0
  1  3  1  0  0  0  0
  3  4  1  0  0  0  0
  4 31  1  6  0  0  0
  5  2  1  1  0  0  0
  5  1  1  0  0  0  0
  5  7  1  0  0  0  0
  6  4  1  0  0  0  0
  6 17  1  1  0  0  0
  7  6  1  0  0  0  0
  8  7  1  0  0  0  0
  8  9  2  0  0  0  0
 10  8  2  0  0  0  0
 11 15  1  0  0  0  0
 12 16  2  0  0  0  0
 13 11  2  0  0  0  0
 13 12  1  0  0  0  0
 15  8  1  0  0  0  0
 15 14  2  0  0  0  0
 16 14  1  0  0  0  0
 17 18  1  0  0  0  0
 18 19  1  0  0  0  0
 19 28  1  0  0  0  0
 20 30  1  0  0  0  0
 20 25  1  0  0  0  0
 21 22  1  0  0  0  0
 21 24  1  0  0  0  0
 22 26  2  0  0  0  0
 23 22  1  0  0  0  0
 25 23  1  0  0  0  0
 27 29  1  0  0  0  0
 28 27  2  0  0  0  0
 28 25  1  0  0  0  0
 29 21  2  0  0  0  0
 30 25  1  0  0  0  0
 31 32  1  0  0  0  0
 32 33  1  0  0  0  0
 34 33  1  0  0  0  0
M  END
>  <MODEL>
2

>  <REMARK>
 VINA RESULT:      -7.2      1.838      2.613
  Name = 
  9 active torsions:
  status: ('A' for Active; 'I' for Inactive)
    1  A    between atoms: S_1  and  C_20
    2  A    between atoms: S_1  and  N_34
    3  A    between atoms: S_3  and  C_13
    4  A    between atoms: C_6  and  O_18
    5  A    between atoms: C_6  and  C_30
    6  A    between atoms: C_13  and  C_27
    7  A    between atoms: O_18  and  C_33
    8  A    between atoms: C_25  and  C_27
    9  A    between atoms: C_28  and  C_30
                            x       y       z     vdW  Elec       q    Type
                         _______ _______ _______ _____ _____    ______ ____

>  <TORSDO>
F 9

$$$$
=
 OpenBabel10262423203D

 34 37  0  0  1  0  0  0  0  0999 V2000
  189.9530  174.6490  136.8230 C   0  0  0  0  0  2  0  0  0  0  0  0
  190.6740  176.3530  135.1150 C   0  0  0  0  0  1  0  0  0  0  0  0
  191.3230  174.3620  137.4340 C   0  0  0  0  0  2  0  0  0  0  0  0
  191.8210  175.4900  138.3410 C   0  0  2  0  0  3  0  0  0  0  0  0
  189.8400  176.1080  136.3600 C   0  0  2  0  0  3  0  0  0  0  0  0
  190.7070  176.5150  138.6370 C   0  0  2  0  0  3  0  0  0  0  0  0
  190.1680  177.1090  137.3970 N   0  0  0  0  0  0  0  0  0  0  0  0
  188.6910  177.9490  137.7750 S   0  0  0  0  0  0  0  0  0  0  0  0
  188.2690  177.6270  139.1840 O   0  0  0  0  0  0  0  0  0  0  0  0
  188.8940  179.4330  137.6560 O   0  0  0  0  0  0  0  0  0  0  0  0
  187.2150  178.1840  135.4730 C   0  0  0  0  0  3  0  0  0  0  0  0
  185.3830  176.7080  134.9000 C   0  0  0  0  0  3  0  0  0  0  0  0
  186.1970  177.8030  134.5940 C   0  0  0  0  0  3  0  0  0  0  0  0
  186.6080  176.3730  136.9620 C   0  0  0  0  0  3  0  0  0  0  0  0
  187.4240  177.4680  136.6570 C   0  0  0  0  0  0  0  0  0  0  0  0
  185.5880  175.9930  136.0830 C   0  0  0  0  0  3  0  0  0  0  0  0
  191.1790  177.5160  139.4930 O   0  0  0  0  0  0  0  0  0  0  0  0
  191.0870  176.9670  140.7760 C   0  0  0  0  0  2  0  0  0  0  0  0
  190.7150  178.0430  141.7840 C   0  0  0  0  0  2  0  0  0  0  0  0
  187.9170  177.3940  142.7540 C   0  0  0  0  0  2  0  0  0  0  0  0
  190.6080  176.6950  146.1890 C   0  0  0  0  0  0  0  0  0  0  0  0
  189.4870  177.6620  146.1310 C   0  0  0  0  0  0  0  0  0  0  0  0
  188.8520  178.0390  144.9460 O   0  0  0  0  0  0  0  0  0  0  0  0
  190.8430  176.0850  147.3770 F   0  0  0  0  0  0  0  0  0  0  0  0
  189.0950  177.4060  143.7040 C   0  0  0  0  0  0  0  0  0  0  0  0
  189.0620  178.1470  147.2120 O   0  0  0  0  0  0  0  0  0  0  0  0
  191.5200  177.0100  143.8370 C   0  0  0  0  0  3  0  0  0  0  0  0
  190.4760  177.4580  143.1400 C   0  0  0  0  0  0  0  0  0  0  0  0
  191.4920  176.4650  145.2080 C   0  0  0  0  0  3  0  0  0  0  0  0
  188.3280  176.1210  143.4900 C   0  0  0  0  0  2  0  0  0  0  0  0
  193.0490  176.1360  137.7040 C   0  0  0  0  0  2  0  0  0  0  0  0
  194.0760  175.0940  137.2910 C   0  0  0  0  0  2  0  0  0  0  0  0
  195.1700  174.6960  138.6860 S   0  0  0  0  0  0  0  0  0  0  0  0
  195.0840  172.9190  138.3360 C   0  0  0  0  0  1  0  0  0  0  0  0
  1  3  1  0  0  0  0
  3  4  1  0  0  0  0
  4 31  1  6  0  0  0
  4  6  1  0  0  0  0
  5  2  1  6  0  0  0
  5  1  1  0  0  0  0
  5  7  1  0  0  0  0
  6 17  1  1  0  0  0
  7  8  1  0  0  0  0
  7  6  1  0  0  0  0
  8  9  2  0  0  0  0
 10  8  2  0  0  0  0
 11 15  1  0  0  0  0
 12 16  2  0  0  0  0
 13 12  1  0  0  0  0
 13 11  2  0  0  0  0
 15 14  2  0  0  0  0
 15  8  1  0  0  0  0
 16 14  1  0  0  0  0
 17 18  1  0  0  0  0
 18 19  1  0  0  0  0
 19 28  1  0  0  0  0
 20 30  1  0  0  0  0
 20 25  1  0  0  0  0
 21 24  1  0  0  0  0
 22 21  1  0  0  0  0
 22 26  2  0  0  0  0
 23 22  1  0  0  0  0
 25 23  1  0  0  0  0
 27 29  1  0  0  0  0
 28 25  1  0  0  0  0
 28 27  2  0  0  0  0
 29 21  2  0  0  0  0
 30 25  1  0  0  0  0
 32 31  1  0  0  0  0
 32 33  1  0  0  0  0
 34 33  1  0  0  0  0
M  END
>  <MODEL>
3

>  <REMARK>
 VINA RESULT:      -7.0      2.580      4.769
  Name = 
  9 active torsions:
  status: ('A' for Active; 'I' for Inactive)
    1  A    between atoms: S_1  and  C_20
    2  A    between atoms: S_1  and  N_34
    3  A    between atoms: S_3  and  C_13
    4  A    between atoms: C_6  and  O_18
    5  A    between atoms: C_6  and  C_30
    6  A    between atoms: C_13  and  C_27
    7  A    between atoms: O_18  and  C_33
    8  A    between atoms: C_25  and  C_27
    9  A    between atoms: C_28  and  C_30
                            x       y       z     vdW  Elec       q    Type
                         _______ _______ _______ _____ _____    ______ ____

>  <TORSDO>
F 9

$$$$
=
 OpenBabel10262423203D

 34 37  0  0  1  0  0  0  0  0999 V2000
  188.7800  175.1400  136.4200 C   0  0  0  0  0  2  0  0  0  0  0  0
  190.1420  176.6200  134.9060 C   0  0  0  0  0  1  0  0  0  0  0  0
  189.7580  175.0710  137.5920 C   0  0  0  0  0  2  0  0  0  0  0  0
  189.8010  176.3630  138.4110 C   0  0  2  0  0  3  0  0  0  0  0  0
  188.8570  176.4960  135.7050 C   0  0  2  0  0  3  0  0  0  0  0  0
  188.6540  177.3200  138.0250 C   0  0  2  0  0  3  0  0  0  0  0  0
  188.6940  177.6680  136.5910 N   0  0  0  0  0  0  0  0  0  0  0  0
  187.1860  178.4230  136.1580 S   0  0  0  0  0  0  0  0  0  0  0  0
  187.2020  179.8690  136.5770 O   0  0  0  0  0  0  0  0  0  0  0  0
  186.9790  178.3510  134.6710 O   0  0  0  0  0  0  0  0  0  0  0  0
  185.1570  178.2110  137.9940 C   0  0  0  0  0  3  0  0  0  0  0  0
  183.7480  176.2550  138.2130 C   0  0  0  0  0  3  0  0  0  0  0  0
  184.1050  177.5420  138.6260 C   0  0  0  0  0  3  0  0  0  0  0  0
  185.4930  176.3080  136.5360 C   0  0  0  0  0  3  0  0  0  0  0  0
  185.8520  177.5960  136.9460 C   0  0  0  0  0  0  0  0  0  0  0  0
  184.4420  175.6370  137.1680 C   0  0  0  0  0  3  0  0  0  0  0  0
  188.6990  178.4770  138.8100 O   0  0  0  0  0  0  0  0  0  0  0  0
  188.0590  178.1280  140.0030 C   0  0  0  0  0  2  0  0  0  0  0  0
  188.7210  178.8280  141.1800 C   0  0  0  0  0  2  0  0  0  0  0  0
  187.1760  177.8250  143.5870 C   0  0  0  0  0  2  0  0  0  0  0  0
  191.2550  176.1680  143.9620 C   0  0  0  0  0  0  0  0  0  0  0  0
  190.5790  177.0700  144.9230 C   0  0  0  0  0  0  0  0  0  0  0  0
  189.4130  177.7790  144.6290 O   0  0  0  0  0  0  0  0  0  0  0  0
  192.0850  175.2240  144.4720 F   0  0  0  0  0  0  0  0  0  0  0  0
  188.6610  177.5750  143.4480 C   0  0  0  0  0  0  0  0  0  0  0  0
  191.0650  177.1790  146.0790 O   0  0  0  0  0  0  0  0  0  0  0  0
  190.4520  177.2290  141.7960 C   0  0  0  0  0  3  0  0  0  0  0  0
  189.3180  177.8410  142.1340 C   0  0  0  0  0  0  0  0  0  0  0  0
  191.2210  176.2830  142.6270 C   0  0  0  0  0  3  0  0  0  0  0  0
  187.7130  176.3980  143.5000 C   0  0  0  0  0  2  0  0  0  0  0  0
  191.1750  177.0090  138.2480 C   0  0  0  0  0  2  0  0  0  0  0  0
  192.2940  175.9990  138.4490 C   0  0  0  0  0  2  0  0  0  0  0  0
  193.3010  175.8630  136.9420 S   0  0  0  0  0  0  0  0  0  0  0  0
  194.4480  174.7010  137.7300 C   0  0  0  0  0  1  0  0  0  0  0  0
  1  3  1  0  0  0  0
  3  4  1  0  0  0  0
  4 31  1  6  0  0  0
  5  2  1  1  0  0  0
  5  1  1  0  0  0  0
  5  7  1  0  0  0  0
  6  4  1  0  0  0  0
  6 17  1  1  0  0  0
  7  6  1  0  0  0  0
  8  9  2  0  0  0  0
  8  7  1  0  0  0  0
  8 15  1  0  0  0  0
 10  8  2  0  0  0  0
 11 13  1  0  0  0  0
 12 13  2  0  0  0  0
 14 15  1  0  0  0  0
 14 16  2  0  0  0  0
 15 11  2  0  0  0  0
 16 12  1  0  0  0  0
 17 18  1  0  0  0  0
 18 19  1  0  0  0  0
 19 28  1  0  0  0  0
 21 24  1  0  0  0  0
 21 22  1  0  0  0  0
 22 26  2  0  0  0  0
 23 22  1  0  0  0  0
 25 30  1  0  0  0  0
 25 20  1  0  0  0  0
 25 23  1  0  0  0  0
 27 28  2  0  0  0  0
 27 29  1  0  0  0  0
 28 25  1  0  0  0  0
 29 21  2  0  0  0  0
 30 20  1  0  0  0  0
 31 32  1  0  0  0  0
 33 34  1  0  0  0  0
 33 32  1  0  0  0  0
M  END
>  <MODEL>
4

>  <REMARK>
 VINA RESULT:      -6.9      2.676      4.801
  Name = 
  9 active torsions:
  status: ('A' for Active; 'I' for Inactive)
    1  A    between atoms: S_1  and  C_20
    2  A    between atoms: S_1  and  N_34
    3  A    between atoms: S_3  and  C_13
    4  A    between atoms: C_6  and  O_18
    5  A    between atoms: C_6  and  C_30
    6  A    between atoms: C_13  and  C_27
    7  A    between atoms: O_18  and  C_33
    8  A    between atoms: C_25  and  C_27
    9  A    between atoms: C_28  and  C_30
                            x       y       z     vdW  Elec       q    Type
                         _______ _______ _______ _____ _____    ______ ____

>  <TORSDO>
F 9

$$$$
=
 OpenBabel10262423203D

 34 37  0  0  1  0  0  0  0  0999 V2000
  184.9460  175.5730  137.3300 C   0  0  0  0  0  2  0  0  0  0  0  0
  184.1610  177.2530  135.6280 C   0  0  0  0  0  1  0  0  0  0  0  0
  186.4070  175.4860  136.8910 C   0  0  0  0  0  2  0  0  0  0  0  0
  187.2260  176.7140  137.2960 C   0  0  2  0  0  3  0  0  0  0  0  0
  184.3760  176.9800  137.1060 C   0  0  2  0  0  3  0  0  0  0  0  0
  186.4540  177.6130  138.2820 C   0  0  2  0  0  3  0  0  0  0  0  0
  185.1690  178.0690  137.7140 N   0  0  0  0  0  0  0  0  0  0  0  0
  184.2020  178.7460  138.9930 S   0  0  0  0  0  0  0  0  0  0  0  0
  184.5660  178.1010  140.3030 O   0  0  0  0  0  0  0  0  0  0  0  0
  184.4430  180.2260  139.0970 O   0  0  0  0  0  0  0  0  0  0  0  0
  181.8080  177.4330  139.2780 C   0  0  0  0  0  3  0  0  0  0  0  0
  179.7890  178.0570  138.0980 C   0  0  0  0  0  3  0  0  0  0  0  0
  180.4550  177.2210  138.9990 C   0  0  0  0  0  3  0  0  0  0  0  0
  181.8280  179.3170  137.7580 C   0  0  0  0  0  3  0  0  0  0  0  0
  182.4970  178.4820  138.6600 C   0  0  0  0  0  0  0  0  0  0  0  0
  180.4750  179.1060  137.4770 C   0  0  0  0  0  3  0  0  0  0  0  0
  187.2370  178.7090  138.6590 O   0  0  0  0  0  0  0  0  0  0  0  0
  188.2400  178.1730  139.4730 C   0  0  0  0  0  2  0  0  0  0  0  0
  188.0160  178.5780  140.9220 C   0  0  0  0  0  2  0  0  0  0  0  0
  186.9880  177.8750  143.6850 C   0  0  0  0  0  2  0  0  0  0  0  0
  191.1130  176.3030  143.4650 C   0  0  0  0  0  0  0  0  0  0  0  0
  190.6050  177.3140  144.4210 C   0  0  0  0  0  0  0  0  0  0  0  0
  189.3840  177.9740  144.2730 O   0  0  0  0  0  0  0  0  0  0  0  0
  192.0520  175.4360  143.9160 F   0  0  0  0  0  0  0  0  0  0  0  0
  188.4270  177.6180  143.2930 C   0  0  0  0  0  0  0  0  0  0  0  0
  191.2990  177.5710  145.4400 O   0  0  0  0  0  0  0  0  0  0  0  0
  189.8800  177.0800  141.3820 C   0  0  0  0  0  3  0  0  0  0  0  0
  188.8120  177.7220  141.8550 C   0  0  0  0  0  0  0  0  0  0  0  0
  190.8210  176.2500  142.1580 C   0  0  0  0  0  3  0  0  0  0  0  0
  187.5420  176.4520  143.6700 C   0  0  0  0  0  2  0  0  0  0  0  0
  187.6510  177.4650  136.0360 C   0  0  0  0  0  2  0  0  0  0  0  0
  189.1640  177.5800  135.9380 C   0  0  0  0  0  2  0  0  0  0  0  0
  189.9420  175.9690  136.2590 S   0  0  0  0  0  0  0  0  0  0  0  0
  191.0270  176.6690  137.5320 C   0  0  0  0  0  1  0  0  0  0  0  0
  3  4  1  0  0  0  0
  3  1  1  0  0  0  0
  4 31  1  6  0  0  0
  4  6  1  0  0  0  0
  5  2  1  6  0  0  0
  5  1  1  0  0  0  0
  5  7  1  0  0  0  0
  6 17  1  6  0  0  0
  7  6  1  0  0  0  0
  7  8  1  0  0  0  0
  8 10  2  0  0  0  0
  8  9  2  0  0  0  0
 12 13  2  0  0  0  0
 13 11  1  0  0  0  0
 14 15  1  0  0  0  0
 15  8  1  0  0  0  0
 15 11  2  0  0  0  0
 16 14  2  0  0  0  0
 16 12  1  0  0  0  0
 17 18  1  0  0  0  0
 18 19  1  0  0  0  0
 19 28  1  0  0  0  0
 21 24  1  0  0  0  0
 21 22  1  0  0  0  0
 22 26  2  0  0  0  0
 23 22  1  0  0  0  0
 25 30  1  0  0  0  0
 25 20  1  0  0  0  0
 25 23  1  0  0  0  0
 27 28  2  0  0  0  0
 27 29  1  0  0  0  0
 28 25  1  0  0  0  0
 29 21  2  0  0  0  0
 30 20  1  0  0  0  0
 32 31  1  0  0  0  0
 32 33  1  0  0  0  0
 33 34  1  0  0  0  0
M  END
>  <MODEL>
5

>  <REMARK>
 VINA RESULT:      -6.9      3.192      5.953
  Name = 
  9 active torsions:
  status: ('A' for Active; 'I' for Inactive)
    1  A    between atoms: S_1  and  C_20
    2  A    between atoms: S_1  and  N_34
    3  A    between atoms: S_3  and  C_13
    4  A    between atoms: C_6  and  O_18
    5  A    between atoms: C_6  and  C_30
    6  A    between atoms: C_13  and  C_27
    7  A    between atoms: O_18  and  C_33
    8  A    between atoms: C_25  and  C_27
    9  A    between atoms: C_28  and  C_30
                            x       y       z     vdW  Elec       q    Type
                         _______ _______ _______ _____ _____    ______ ____

>  <TORSDO>
F 9

$$$$
=
 OpenBabel10262423203D

 34 37  0  0  1  0  0  0  0  0999 V2000
  189.0230  176.6890  135.6730 C   0  0  0  0  0  2  0  0  0  0  0  0
  189.3820  174.6350  137.0820 C   0  0  0  0  0  1  0  0  0  0  0  0
  187.5550  176.4560  135.3180 C   0  0  0  0  0  2  0  0  0  0  0  0
  186.6070  176.7350  136.4870 C   0  0  2  0  0  3  0  0  0  0  0  0
  189.3540  176.1520  137.0720 C   0  0  2  0  0  3  0  0  0  0  0  0
  187.3310  177.4450  137.6490 C   0  0  2  0  0  3  0  0  0  0  0  0
  188.4720  176.6520  138.1470 N   0  0  0  0  0  0  0  0  0  0  0  0
  189.4490  177.6630  139.1740 S   0  0  0  0  0  0  0  0  0  0  0  0
  190.8990  177.5240  138.7940 O   0  0  0  0  0  0  0  0  0  0  0  0
  189.0420  179.1020  139.0220 O   0  0  0  0  0  0  0  0  0  0  0  0
  188.1000  177.6100  141.5640 C   0  0  0  0  0  3  0  0  0  0  0  0
  188.9190  176.4740  143.5390 C   0  0  0  0  0  3  0  0  0  0  0  0
  187.9410  177.2470  142.9040 C   0  0  0  0  0  3  0  0  0  0  0  0
  190.2110  176.4260  141.4920 C   0  0  0  0  0  3  0  0  0  0  0  0
  189.2340  177.1980  140.8540 C   0  0  0  0  0  0  0  0  0  0  0  0
  190.0530  176.0630  142.8330 C   0  0  0  0  0  3  0  0  0  0  0  0
  186.4340  177.7170  138.6880 O   0  0  0  0  0  0  0  0  0  0  0  0
  185.2950  178.2280  138.0580 C   0  0  0  0  0  2  0  0  0  0  0  0
  184.7160  179.3780  138.8680 C   0  0  0  0  0  2  0  0  0  0  0  0
  182.1570  177.7580  138.9820 C   0  0  0  0  0  2  0  0  0  0  0  0
  183.2770  178.5920  143.1750 C   0  0  0  0  0  0  0  0  0  0  0  0
  182.0260  179.0060  142.4980 C   0  0  0  0  0  0  0  0  0  0  0  0
  181.8440  178.9610  141.1150 O   0  0  0  0  0  0  0  0  0  0  0  0
  183.1950  178.2630  144.4880 F   0  0  0  0  0  0  0  0  0  0  0  0
  182.7670  178.3510  140.2330 C   0  0  0  0  0  0  0  0  0  0  0  0
  181.0630  179.3910  143.2110 O   0  0  0  0  0  0  0  0  0  0  0  0
  184.9070  178.9910  141.2650 C   0  0  0  0  0  3  0  0  0  0  0  0
  184.1540  178.8970  140.1690 C   0  0  0  0  0  0  0  0  0  0  0  0
  184.5050  178.6360  142.6400 C   0  0  0  0  0  3  0  0  0  0  0  0
  182.6290  176.8500  140.1150 C   0  0  0  0  0  2  0  0  0  0  0  0
  185.9550  175.4250  136.9230 C   0  0  0  0  0  2  0  0  0  0  0  0
  184.6460  175.1810  136.1890 C   0  0  0  0  0  2  0  0  0  0  0  0
  183.5080  174.2190  137.2290 S   0  0  0  0  0  0  0  0  0  0  0  0
  184.7730  172.9680  137.5780 C   0  0  0  0  0  1  0  0  0  0  0  0
  1  5  1  0  0  0  0
  3  1  1  0  0  0  0
  3  4  1  0  0  0  0
  4 31  1  1  0  0  0
  4  6  1  0  0  0  0
  5  2  1  6  0  0  0
  5  7  1  0  0  0  0
  6  7  1  0  0  0  0
  6 17  1  1  0  0  0
  7  8  1  0  0  0  0
  8 15  1  0  0  0  0
  9  8  2  0  0  0  0
 10  8  2  0  0  0  0
 11 13  1  0  0  0  0
 13 12  2  0  0  0  0
 14 16  2  0  0  0  0
 15 14  1  0  0  0  0
 15 11  2  0  0  0  0
 16 12  1  0  0  0  0
 18 17  1  0  0  0  0
 18 19  1  0  0  0  0
 19 28  1  0  0  0  0
 20 30  1  0  0  0  0
 20 25  1  0  0  0  0
 21 24  1  0  0  0  0
 22 21  1  0  0  0  0
 22 26  2  0  0  0  0
 23 22  1  0  0  0  0
 25 23  1  0  0  0  0
 27 29  1  0  0  0  0
 28 25  1  0  0  0  0
 28 27  2  0  0  0  0
 29 21  2  0  0  0  0
 30 25  1  0  0  0  0
 32 31  1  0  0  0  0
 32 33  1  0  0  0  0
 33 34  1  0  0  0  0
M  END
>  <MODEL>
6

>  <REMARK>
 VINA RESULT:      -6.7      3.355      6.375
  Name = 
  9 active torsions:
  status: ('A' for Active; 'I' for Inactive)
    1  A    between atoms: S_1  and  C_20
    2  A    between atoms: S_1  and  N_34
    3  A    between atoms: S_3  and  C_13
    4  A    between atoms: C_6  and  O_18
    5  A    between atoms: C_6  and  C_30
    6  A    between atoms: C_13  and  C_27
    7  A    between atoms: O_18  and  C_33
    8  A    between atoms: C_25  and  C_27
    9  A    between atoms: C_28  and  C_30
                            x       y       z     vdW  Elec       q    Type
                         _______ _______ _______ _____ _____    ______ ____

>  <TORSDO>
F 9

$$$$
=
 OpenBabel10262423203D

 34 37  0  0  1  0  0  0  0  0999 V2000
  189.7850  176.7720  135.9450 C   0  0  0  0  0  2  0  0  0  0  0  0
  190.2490  174.8100  137.4520 C   0  0  0  0  0  1  0  0  0  0  0  0
  188.4640  176.2830  135.3530 C   0  0  0  0  0  2  0  0  0  0  0  0
  187.2940  176.3880  136.3350 C   0  0  2  0  0  3  0  0  0  0  0  0
  189.9590  176.2990  137.3940 C   0  0  2  0  0  3  0  0  0  0  0  0
  187.6720  177.2130  137.5820 C   0  0  2  0  0  3  0  0  0  0  0  0
  188.8310  176.6330  138.2890 N   0  0  0  0  0  0  0  0  0  0  0  0
  189.4250  177.7990  139.4380 S   0  0  0  0  0  0  0  0  0  0  0  0
  190.9270  177.7200  139.5130 O   0  0  0  0  0  0  0  0  0  0  0  0
  189.0320  179.1870  139.0170 O   0  0  0  0  0  0  0  0  0  0  0  0
  189.2880  176.4950  141.8500 C   0  0  0  0  0  3  0  0  0  0  0  0
  187.6170  176.9700  143.5360 C   0  0  0  0  0  3  0  0  0  0  0  0
  188.7280  176.2400  143.1050 C   0  0  0  0  0  3  0  0  0  0  0  0
  187.6250  178.2110  141.4570 C   0  0  0  0  0  3  0  0  0  0  0  0
  188.7390  177.4820  141.0240 C   0  0  0  0  0  0  0  0  0  0  0  0
  187.0650  177.9560  142.7120 C   0  0  0  0  0  3  0  0  0  0  0  0
  186.5760  177.3200  138.4460 O   0  0  0  0  0  0  0  0  0  0  0  0
  185.7080  178.2190  137.8180 C   0  0  0  0  0  2  0  0  0  0  0  0
  184.8980  178.9810  138.8560 C   0  0  0  0  0  2  0  0  0  0  0  0
  183.7050  178.0400  141.4780 C   0  0  0  0  0  2  0  0  0  0  0  0
  180.7190  177.1050  138.3570 C   0  0  0  0  0  0  0  0  0  0  0  0
  181.3920  176.1350  139.2510 C   0  0  0  0  0  0  0  0  0  0  0  0
  182.5170  176.4420  140.0190 O   0  0  0  0  0  0  0  0  0  0  0  0
  179.4300  176.8500  138.0190 F   0  0  0  0  0  0  0  0  0  0  0  0
  183.0220  177.7560  140.1580 C   0  0  0  0  0  0  0  0  0  0  0  0
  180.9060  174.9770  139.3470 O   0  0  0  0  0  0  0  0  0  0  0  0
  182.6920  178.6370  137.8840 C   0  0  0  0  0  3  0  0  0  0  0  0
  183.4950  178.4670  138.9340 C   0  0  0  0  0  0  0  0  0  0  0  0
  181.3080  178.1440  137.7490 C   0  0  0  0  0  3  0  0  0  0  0  0
  182.3120  178.5980  141.1940 C   0  0  0  0  0  2  0  0  0  0  0  0
  186.8160  174.9830  136.6910 C   0  0  0  0  0  2  0  0  0  0  0  0
  185.4580  174.6830  136.0770 C   0  0  0  0  0  2  0  0  0  0  0  0
  184.2130  174.4460  137.3800 S   0  0  0  0  0  0  0  0  0  0  0  0
  184.7850  172.7590  137.7160 C   0  0  0  0  0  1  0  0  0  0  0  0
  1  5  1  0  0  0  0
  3  1  1  0  0  0  0
  3  4  1  0  0  0  0
  4 31  1  1  0  0  0
  4  6  1  0  0  0  0
  5  2  1  6  0  0  0
  5  7  1  0  0  0  0
  6  7  1  0  0  0  0
  6 17  1  1  0  0  0
  7  8  1  0  0  0  0
  8  9  2  0  0  0  0
  8 15  1  0  0  0  0
 10  8  2  0  0  0  0
 11 13  1  0  0  0  0
 13 12  2  0  0  0  0
 14 16  2  0  0  0  0
 15 14  1  0  0  0  0
 15 11  2  0  0  0  0
 16 12  1  0  0  0  0
 18 17  1  0  0  0  0
 18 19  1  0  0  0  0
 19 28  1  0  0  0  0
 21 22  1  0  0  0  0
 22 26  2  0  0  0  0
 22 23  1  0  0  0  0
 23 25  1  0  0  0  0
 24 21  1  0  0  0  0
 25 30  1  0  0  0  0
 25 20  1  0  0  0  0
 27 28  2  0  0  0  0
 28 25  1  0  0  0  0
 29 27  1  0  0  0  0
 29 21  2  0  0  0  0
 30 20  1  0  0  0  0
 32 31  1  0  0  0  0
 32 33  1  0  0  0  0
 33 34  1  0  0  0  0
M  END
>  <MODEL>
7

>  <REMARK>
 VINA RESULT:      -6.7      3.807      7.224
  Name = 
  9 active torsions:
  status: ('A' for Active; 'I' for Inactive)
    1  A    between atoms: S_1  and  C_20
    2  A    between atoms: S_1  and  N_34
    3  A    between atoms: S_3  and  C_13
    4  A    between atoms: C_6  and  O_18
    5  A    between atoms: C_6  and  C_30
    6  A    between atoms: C_13  and  C_27
    7  A    between atoms: O_18  and  C_33
    8  A    between atoms: C_25  and  C_27
    9  A    between atoms: C_28  and  C_30
                            x       y       z     vdW  Elec       q    Type
                         _______ _______ _______ _____ _____    ______ ____

>  <TORSDO>
F 9

$$$$
=
 OpenBabel10262423203D

 34 37  0  0  1  0  0  0  0  0999 V2000
  179.7040  179.2420  138.3040 C   0  0  0  0  0  2  0  0  0  0  0  0
  179.2150  180.6950  140.3020 C   0  0  0  0  0  1  0  0  0  0  0  0
  180.4360  180.2800  137.4550 C   0  0  0  0  0  2  0  0  0  0  0  0
  181.8530  180.5710  137.9570 C   0  0  2  0  0  3  0  0  0  0  0  0
  179.9530  179.4660  139.8020 C   0  0  2  0  0  3  0  0  0  0  0  0
  182.2970  179.5520  139.0270 C   0  0  2  0  0  3  0  0  0  0  0  0
  181.3790  179.5400  140.1830 N   0  0  0  0  0  0  0  0  0  0  0  0
  181.7180  178.1320  141.1510 S   0  0  0  0  0  0  0  0  0  0  0  0
  180.4530  177.6520  141.8110 O   0  0  0  0  0  0  0  0  0  0  0  0
  182.2640  177.0300  140.2870 O   0  0  0  0  0  0  0  0  0  0  0  0
  184.2730  178.2950  142.1410 C   0  0  0  0  0  3  0  0  0  0  0  0
  184.8000  179.1180  144.3560 C   0  0  0  0  0  3  0  0  0  0  0  0
  185.2160  178.5950  143.1280 C   0  0  0  0  0  3  0  0  0  0  0  0
  182.4980  179.0430  143.6090 C   0  0  0  0  0  3  0  0  0  0  0  0
  182.9120  178.5210  142.3790 C   0  0  0  0  0  0  0  0  0  0  0  0
  183.4420  179.3420  144.5970 C   0  0  0  0  0  3  0  0  0  0  0  0
  183.6050  179.8210  139.4430 O   0  0  0  0  0  0  0  0  0  0  0  0
  184.4120  179.4480  138.3640 C   0  0  0  0  0  2  0  0  0  0  0  0
  184.9560  178.0430  138.5750 C   0  0  0  0  0  2  0  0  0  0  0  0
  186.6820  177.7710  136.0990 C   0  0  0  0  0  2  0  0  0  0  0  0
  189.4450  177.6710  139.5470 C   0  0  0  0  0  0  0  0  0  0  0  0
  189.2530  176.6010  138.5400 C   0  0  0  0  0  0  0  0  0  0  0  0
  188.1840  176.5650  137.6440 O   0  0  0  0  0  0  0  0  0  0  0  0
  190.6970  177.8450  140.0400 F   0  0  0  0  0  0  0  0  0  0  0  0
  187.2720  177.6360  137.4860 C   0  0  0  0  0  0  0  0  0  0  0  0
  190.1190  175.6900  138.4680 O   0  0  0  0  0  0  0  0  0  0  0  0
  187.0240  178.3980  139.8120 C   0  0  0  0  0  3  0  0  0  0  0  0
  186.4500  178.0460  138.6620 C   0  0  0  0  0  0  0  0  0  0  0  0
  188.4690  178.3970  140.1090 C   0  0  0  0  0  3  0  0  0  0  0  0
  187.7540  178.7470  136.5810 C   0  0  0  0  0  2  0  0  0  0  0  0
  181.9150  182.0090  138.4650 C   0  0  0  0  0  2  0  0  0  0  0  0
  180.7990  182.8580  137.8760 C   0  0  0  0  0  2  0  0  0  0  0  0
  181.4630  184.4290  137.2490 S   0  0  0  0  0  0  0  0  0  0  0  0
  179.8610  185.2590  137.4320 C   0  0  0  0  0  1  0  0  0  0  0  0
  1  5  1  0  0  0  0
  3  4  1  0  0  0  0
  3  1  1  0  0  0  0
  4 31  1  1  0  0  0
  4  6  1  0  0  0  0
  5  7  1  0  0  0  0
  5  2  1  6  0  0  0
  6 17  1  1  0  0  0
  6  7  1  0  0  0  0
  7  8  1  0  0  0  0
  8  9  2  0  0  0  0
  8 15  1  0  0  0  0
 10  8  2  0  0  0  0
 11 15  2  0  0  0  0
 11 13  1  0  0  0  0
 12 16  1  0  0  0  0
 13 12  2  0  0  0  0
 14 16  2  0  0  0  0
 15 14  1  0  0  0  0
 18 19  1  0  0  0  0
 18 17  1  0  0  0  0
 19 28  1  0  0  0  0
 20 30  1  0  0  0  0
 20 25  1  0  0  0  0
 21 24  1  0  0  0  0
 21 29  2  0  0  0  0
 22 21  1  0  0  0  0
 23 22  1  0  0  0  0
 25 23  1  0  0  0  0
 25 28  1  0  0  0  0
 26 22  2  0  0  0  0
 27 29  1  0  0  0  0
 28 27  2  0  0  0  0
 30 25  1  0  0  0  0
 32 31  1  0  0  0  0
 33 34  1  0  0  0  0
 33 32  1  0  0  0  0
M  END
>  <MODEL>
8

>  <REMARK>
 VINA RESULT:      -6.6      4.940      8.780
  Name = 
  9 active torsions:
  status: ('A' for Active; 'I' for Inactive)
    1  A    between atoms: S_1  and  C_20
    2  A    between atoms: S_1  and  N_34
    3  A    between atoms: S_3  and  C_13
    4  A    between atoms: C_6  and  O_18
    5  A    between atoms: C_6  and  C_30
    6  A    between atoms: C_13  and  C_27
    7  A    between atoms: O_18  and  C_33
    8  A    between atoms: C_25  and  C_27
    9  A    between atoms: C_28  and  C_30
                            x       y       z     vdW  Elec       q    Type
                         _______ _______ _______ _____ _____    ______ ____

>  <TORSDO>
F 9

$$$$
=
 OpenBabel10262423203D

 34 37  0  0  1  0  0  0  0  0999 V2000
  189.9600  175.6470  142.3240 C   0  0  0  0  0  2  0  0  0  0  0  0
  191.7170  177.4340  142.0840 C   0  0  0  0  0  1  0  0  0  0  0  0
  189.2710  176.1870  143.5760 C   0  0  0  0  0  2  0  0  0  0  0  0
  188.4010  177.4150  143.2970 C   0  0  2  0  0  3  0  0  0  0  0  0
  190.5020  176.7850  141.4470 C   0  0  2  0  0  3  0  0  0  0  0  0
  188.2110  177.6450  141.7840 C   0  0  2  0  0  3  0  0  0  0  0  0
  189.5040  177.8150  141.0910 N   0  0  0  0  0  0  0  0  0  0  0  0
  189.2380  177.6890  139.3750 S   0  0  0  0  0  0  0  0  0  0  0  0
  187.8980  177.0560  139.1120 O   0  0  0  0  0  0  0  0  0  0  0  0
  189.2630  179.0540  138.7460 O   0  0  0  0  0  0  0  0  0  0  0  0
  190.1900  175.5110  138.0020 C   0  0  0  0  0  3  0  0  0  0  0  0
  192.5340  175.1620  137.5030 C   0  0  0  0  0  3  0  0  0  0  0  0
  191.2040  174.7350  137.4320 C   0  0  0  0  0  3  0  0  0  0  0  0
  191.8350  177.1410  138.7110 C   0  0  0  0  0  3  0  0  0  0  0  0
  190.5040  176.7160  138.6410 C   0  0  0  0  0  0  0  0  0  0  0  0
  192.8500  176.3650  138.1420 C   0  0  0  0  0  3  0  0  0  0  0  0
  187.3860  178.7520  141.5580 O   0  0  0  0  0  0  0  0  0  0  0  0
  186.1290  178.3690  142.0340 C   0  0  0  0  0  2  0  0  0  0  0  0
  185.0320  179.0020  141.1910 C   0  0  0  0  0  2  0  0  0  0  0  0
  182.6620  178.1240  139.5190 C   0  0  0  0  0  2  0  0  0  0  0  0
  181.0810  178.9480  143.5620 C   0  0  0  0  0  0  0  0  0  0  0  0
  180.6820  179.6240  142.3060 C   0  0  0  0  0  0  0  0  0  0  0  0
  181.4000  179.5240  141.1130 O   0  0  0  0  0  0  0  0  0  0  0  0
  180.1170  178.7520  144.4960 F   0  0  0  0  0  0  0  0  0  0  0  0
  182.4810  178.6280  140.9330 C   0  0  0  0  0  0  0  0  0  0  0  0
  179.6200  180.3010  142.3050 O   0  0  0  0  0  0  0  0  0  0  0  0
  183.5790  178.7610  143.1310 C   0  0  0  0  0  3  0  0  0  0  0  0
  183.6830  178.7860  141.8030 C   0  0  0  0  0  0  0  0  0  0  0  0
  182.3340  178.6280  143.9120 C   0  0  0  0  0  3  0  0  0  0  0  0
  182.0760  177.2120  140.5940 C   0  0  0  0  0  2  0  0  0  0  0  0
  189.0130  178.6270  143.9960 C   0  0  0  0  0  2  0  0  0  0  0  0
  189.8700  178.2140  145.1820 C   0  0  0  0  0  2  0  0  0  0  0  0
  188.8250  177.8780  146.6300 S   0  0  0  0  0  0  0  0  0  0  0  0
  190.0550  176.7530  147.3440 C   0  0  0  0  0  1  0  0  0  0  0  0
  1  3  1  0  0  0  0
  4  3  1  0  0  0  0
  4 31  1  6  0  0  0
  5  2  1  1  0  0  0
  5  1  1  0  0  0  0
  6 17  1  1  0  0  0
  6  4  1  0  0  0  0
  7  5  1  0  0  0  0
  7  6  1  0  0  0  0
  8  7  1  0  0  0  0
  9  8  2  0  0  0  0
 10  8  2  0  0  0  0
 11 15  1  0  0  0  0
 12 16  2  0  0  0  0
 13 12  1  0  0  0  0
 13 11  2  0  0  0  0
 15 14  2  0  0  0  0
 15  8  1  0  0  0  0
 16 14  1  0  0  0  0
 17 18  1  0  0  0  0
 19 28  1  0  0  0  0
 19 18  1  0  0  0  0
 20 30  1  0  0  0  0
 20 25  1  0  0  0  0
 21 29  2  0  0  0  0
 21 24  1  0  0  0  0
 22 21  1  0  0  0  0
 23 22  1  0  0  0  0
 25 23  1  0  0  0  0
 25 28  1  0  0  0  0
 26 22  2  0  0  0  0
 27 29  1  0  0  0  0
 28 27  2  0  0  0  0
 30 25  1  0  0  0  0
 31 32  1  0  0  0  0
 32 33  1  0  0  0  0
 33 34  1  0  0  0  0
M  END
>  <MODEL>
9

>  <REMARK>
 VINA RESULT:      -6.6      3.996      6.545
  Name = 
  9 active torsions:
  status: ('A' for Active; 'I' for Inactive)
    1  A    between atoms: S_1  and  C_20
    2  A    between atoms: S_1  and  N_34
    3  A    between atoms: S_3  and  C_13
    4  A    between atoms: C_6  and  O_18
    5  A    between atoms: C_6  and  C_30
    6  A    between atoms: C_13  and  C_27
    7  A    between atoms: O_18  and  C_33
    8  A    between atoms: C_25  and  C_27
    9  A    between atoms: C_28  and  C_30
                            x       y       z     vdW  Elec       q    Type
                         _______ _______ _______ _____ _____    ______ ____

>  <TORSDO>
F 9

$$$$
