=
 OpenBabel10262421003D

 32 37  0  0  1  0  0  0  0  0999 V2000
  184.6380  178.5100  142.8630 C   0  0  0  0  0  0  0  0  0  0  0  0
  186.9840  177.9810  143.2560 C   0  0  0  0  0  0  0  0  0  0  0  0
  183.3570  178.7690  143.3720 C   0  0  0  0  0  3  0  0  0  0  0  0
  185.7050  178.2750  143.7600 C   0  0  0  0  0  0  0  0  0  0  0  0
  188.0490  177.6550  144.1150 C   0  0  0  0  0  0  0  0  0  0  0  0
  189.9920  177.0840  139.4390 C   0  0  0  0  0  2  0  0  0  0  0  0
  187.1930  177.9900  141.8630 C   0  0  0  0  0  0  0  0  0  0  0  0
  190.8860  177.0300  141.7600 C   0  0  0  0  0  2  0  0  0  0  0  0
  189.5180  177.4210  142.2490 C   0  0  0  0  0  0  0  0  0  0  0  0
  185.4830  178.3490  145.1490 C   0  0  0  0  0  0  0  0  0  0  0  0
  189.2680  177.3630  143.5850 N   0  0  0  0  0  0  0  0  0  0  0  0
  186.6360  178.2990  146.1090 C   0  0  0  0  0  2  0  0  0  0  0  0
  184.2040  178.6280  145.6350 C   0  0  0  0  0  3  0  0  0  0  0  0
  186.1510  178.2460  141.0260 N   0  0  0  0  0  0  0  0  0  0  0  0
  184.8910  178.4930  141.4800 C   0  0  0  0  0  0  0  0  0  0  0  0
  188.4690  177.7130  141.3490 C   0  0  0  0  0  0  0  0  0  0  0  0
  187.7920  177.4380  145.5890 C   0  0  2  0  0  3  0  0  0  0  0  0
  183.1400  178.8210  144.7500 C   0  0  0  0  0  3  0  0  0  0  0  0
  191.1480  177.5030  140.3330 C   0  0  0  0  0  2  0  0  0  0  0  0
  188.7260  177.8190  139.8650 C   0  0  0  0  0  2  0  0  0  0  0  0
  182.8170  177.6250  138.3730 C   0  0  1  0  0  3  0  0  0  0  0  0
  180.6750  180.6720  138.6230 C   0  0  0  0  0  1  0  0  0  0  0  0
  182.5240  176.3860  137.8020 O   0  0  0  0  0  1  0  0  0  0  0  0
  183.0010  180.4450  138.7180 C   0  0  0  0  0  2  0  0  0  0  0  0
  183.7940  178.7490  140.4900 C   0  0  1  0  0  3  0  0  0  0  0  0
  181.5900  178.5460  138.2850 C   0  0  0  0  0  2  0  0  0  0  0  0
  184.1810  179.8900  139.5360 C   0  0  0  0  0  2  0  0  0  0  0  0
  183.3760  177.4420  139.7920 C   0  0  1  0  0  3  0  0  0  0  0  0
  182.4630  176.7520  140.5930 O   0  0  0  0  0  1  0  0  0  0  0  0
  181.7390  179.7850  139.0550 N   0  0  0  0  0  0  0  0  0  0  0  0
  189.0400  177.7070  146.4200 C   0  0  0  0  0  2  0  0  0  0  0  0
  189.2310  176.6780  147.3430 O   0  0  0  0  0  1  0  0  0  0  0  0
  1  3  2  0  0  0  0
  1  4  1  0  0  0  0
  2  4  1  0  0  0  0
  2  5  1  0  0  0  0
  3 18  1  0  0  0  0
  4 10  2  0  0  0  0
  5 17  1  0  0  0  0
  6 20  1  0  0  0  0
  6 19  1  0  0  0  0
  7  2  2  0  0  0  0
  8  9  1  0  0  0  0
  9 11  1  0  0  0  0
 10 13  1  0  0  0  0
 10 12  1  0  0  0  0
 11  5  2  0  0  0  0
 14 15  2  0  0  0  0
 14  7  1  0  0  0  0
 15  1  1  0  0  0  0
 16  7  1  0  0  0  0
 16  9  2  0  0  0  0
 17 12  1  0  0  0  0
 17 31  1  1  0  0  0
 18 13  2  0  0  0  0
 19  8  1  0  0  0  0
 20 16  1  0  0  0  0
 21 23  1  1  0  0  0
 21 28  1  0  0  0  0
 22 30  1  0  0  0  0
 24 30  1  0  0  0  0
 24 27  1  0  0  0  0
 25 15  1  1  0  0  0
 26 21  1  0  0  0  0
 26 30  1  0  0  0  0
 27 25  1  0  0  0  0
 28 25  1  0  0  0  0
 28 29  1  1  0  0  0
 31 32  1  0  0  0  0
M  END
>  <MODEL>
1

>  <REMARK>
 VINA RESULT:     -10.1      0.000      0.000
  Name = 
  2 active torsions:
  status: ('A' for Active; 'I' for Inactive)
    1  A    between atoms: C_13  and  C_29
    2  A    between atoms: C_16  and  C_27
                            x       y       z     vdW  Elec       q    Type
                         _______ _______ _______ _____ _____    ______ ____

>  <TORSDO>
F 2

$$$$
=
 OpenBabel10262421003D

 32 37  0  0  1  0  0  0  0  0999 V2000
  185.9030  178.0630  144.5850 C   0  0  0  0  0  0  0  0  0  0  0  0
  188.1540  177.6760  143.7360 C   0  0  0  0  0  0  0  0  0  0  0  0
  185.0310  178.2030  145.6740 C   0  0  0  0  0  3  0  0  0  0  0  0
  187.2800  177.8520  144.8220 C   0  0  0  0  0  0  0  0  0  0  0  0
  189.5140  177.3760  143.9340 C   0  0  0  0  0  0  0  0  0  0  0  0
  188.9210  177.2080  138.8760 C   0  0  0  0  0  2  0  0  0  0  0  0
  187.6500  177.7780  142.4240 C   0  0  0  0  0  0  0  0  0  0  0  0
  190.8420  177.0850  140.4500 C   0  0  0  0  0  2  0  0  0  0  0  0
  189.8810  177.3510  141.5770 C   0  0  0  0  0  0  0  0  0  0  0  0
  187.7690  177.8310  146.1440 C   0  0  0  0  0  0  0  0  0  0  0  0
  190.3230  177.2000  142.8540 N   0  0  0  0  0  0  0  0  0  0  0  0
  189.2460  177.8060  146.4110 C   0  0  0  0  0  2  0  0  0  0  0  0
  186.8860  177.9920  147.2150 C   0  0  0  0  0  3  0  0  0  0  0  0
  186.3230  178.0090  142.2280 N   0  0  0  0  0  0  0  0  0  0  0  0
  185.4420  178.1420  143.2580 C   0  0  0  0  0  0  0  0  0  0  0  0
  188.5160  177.6200  141.3310 C   0  0  0  0  0  0  0  0  0  0  0  0
  190.0240  177.0580  145.3220 C   0  0  2  0  0  3  0  0  0  0  0  0
  185.5200  178.1610  146.9820 C   0  0  0  0  0  3  0  0  0  0  0  0
  190.3530  177.6540  139.1230 C   0  0  0  0  0  2  0  0  0  0  0  0
  188.0060  177.8280  139.9260 C   0  0  0  0  0  2  0  0  0  0  0  0
  182.5680  179.3660  141.0340 C   0  0  1  0  0  3  0  0  0  0  0  0
  179.9190  178.4750  143.5090 C   0  0  0  0  0  1  0  0  0  0  0  0
  182.4800  179.4600  139.6450 O   0  0  0  0  0  1  0  0  0  0  0  0
  181.9170  179.6570  143.7900 C   0  0  0  0  0  2  0  0  0  0  0  0
  183.9930  178.3770  142.9560 C   0  0  1  0  0  3  0  0  0  0  0  0
  181.2220  178.9060  141.6140 C   0  0  0  0  0  2  0  0  0  0  0  0
  183.4530  179.5580  143.7770 C   0  0  0  0  0  2  0  0  0  0  0  0
  183.7670  178.4940  141.4370 C   0  0  1  0  0  3  0  0  0  0  0  0
  183.6540  177.2180  140.8790 O   0  0  0  0  0  1  0  0  0  0  0  0
  181.2890  178.5690  143.0400 N   0  0  0  0  0  0  0  0  0  0  0  0
  191.5090  177.3650  145.4570 C   0  0  0  0  0  2  0  0  0  0  0  0
  192.0320  176.7170  146.5760 O   0  0  0  0  0  1  0  0  0  0  0  0
  1  4  1  0  0  0  0
  1  3  2  0  0  0  0
  2  5  1  0  0  0  0
  2  4  1  0  0  0  0
  3 18  1  0  0  0  0
  4 10  2  0  0  0  0
  5 17  1  0  0  0  0
  6 19  1  0  0  0  0
  6 20  1  0  0  0  0
  7  2  2  0  0  0  0
  8  9  1  0  0  0  0
  9 11  1  0  0  0  0
 10 12  1  0  0  0  0
 10 13  1  0  0  0  0
 11  5  2  0  0  0  0
 14  7  1  0  0  0  0
 14 15  2  0  0  0  0
 15  1  1  0  0  0  0
 16  9  2  0  0  0  0
 16  7  1  0  0  0  0
 17 31  1  6  0  0  0
 17 12  1  0  0  0  0
 18 13  2  0  0  0  0
 19  8  1  0  0  0  0
 20 16  1  0  0  0  0
 21 23  1  6  0  0  0
 21 28  1  0  0  0  0
 21 26  1  0  0  0  0
 25 15  1  6  0  0  0
 25 27  1  0  0  0  0
 26 30  1  0  0  0  0
 27 24  1  0  0  0  0
 28 29  1  1  0  0  0
 28 25  1  0  0  0  0
 30 22  1  0  0  0  0
 30 24  1  0  0  0  0
 31 32  1  0  0  0  0
M  END
>  <MODEL>
2

>  <REMARK>
 VINA RESULT:     -10.1      1.787      2.679
  Name = 
  2 active torsions:
  status: ('A' for Active; 'I' for Inactive)
    1  A    between atoms: C_13  and  C_29
    2  A    between atoms: C_16  and  C_27
                            x       y       z     vdW  Elec       q    Type
                         _______ _______ _______ _____ _____    ______ ____

>  <TORSDO>
F 2

$$$$
=
 OpenBabel10262421003D

 32 37  0  0  1  0  0  0  0  0999 V2000
  187.1610  178.0780  141.6710 C   0  0  0  0  0  0  0  0  0  0  0  0
  187.5380  177.8070  144.0630 C   0  0  0  0  0  0  0  0  0  0  0  0
  186.2980  178.4020  140.6130 C   0  0  0  0  0  3  0  0  0  0  0  0
  186.6900  178.1640  143.0010 C   0  0  0  0  0  0  0  0  0  0  0  0
  187.0780  177.7950  145.3920 C   0  0  0  0  0  0  0  0  0  0  0  0
  191.8450  176.0240  145.7040 C   0  0  0  0  0  2  0  0  0  0  0  0
  188.8670  177.4310  143.7850 C   0  0  0  0  0  0  0  0  0  0  0  0
  190.0780  176.6800  147.3260 C   0  0  0  0  0  2  0  0  0  0  0  0
  189.2330  177.1200  146.1620 C   0  0  0  0  0  0  0  0  0  0  0  0
  185.3800  178.6180  143.2520 C   0  0  0  0  0  0  0  0  0  0  0  0
  187.9290  177.4300  146.3900 N   0  0  0  0  0  0  0  0  0  0  0  0
  184.9290  178.9040  144.6550 C   0  0  0  0  0  2  0  0  0  0  0  0
  184.5430  178.9540  142.1860 C   0  0  0  0  0  3  0  0  0  0  0  0
  189.2990  177.3830  142.4960 N   0  0  0  0  0  0  0  0  0  0  0  0
  188.4910  177.6820  141.4410 C   0  0  0  0  0  0  0  0  0  0  0  0
  189.7280  177.0880  144.8390 C   0  0  0  0  0  0  0  0  0  0  0  0
  185.6070  177.9930  145.6850 C   0  0  2  0  0  3  0  0  0  0  0  0
  184.9950  178.8310  140.8700 C   0  0  0  0  0  3  0  0  0  0  0  0
  191.5700  176.7410  147.0160 C   0  0  0  0  0  2  0  0  0  0  0  0
  191.1800  176.7820  144.5600 C   0  0  0  0  0  2  0  0  0  0  0  0
  191.3580  177.4740  138.9020 C   0  0  1  0  0  3  0  0  0  0  0  0
  189.0870  177.4220  135.9400 C   0  0  0  0  0  1  0  0  0  0  0  0
  192.6440  176.9500  139.0360 O   0  0  0  0  0  1  0  0  0  0  0  0
  189.1180  178.8410  137.7980 C   0  0  0  0  0  2  0  0  0  0  0  0
  189.0400  177.5870  140.0490 C   0  0  1  0  0  3  0  0  0  0  0  0
  190.8020  177.1500  137.5070 C   0  0  0  0  0  2  0  0  0  0  0  0
  188.9000  178.9320  139.3190 C   0  0  0  0  0  2  0  0  0  0  0  0
  190.4680  177.0120  140.0660 C   0  0  1  0  0  3  0  0  0  0  0  0
  190.4110  175.6160  140.1150 O   0  0  0  0  0  1  0  0  0  0  0  0
  189.3790  177.4700  137.3600 N   0  0  0  0  0  0  0  0  0  0  0  0
  185.3850  178.5530  147.0830 C   0  0  0  0  0  2  0  0  0  0  0  0
  185.7740  179.8920  147.1290 O   0  0  0  0  0  1  0  0  0  0  0  0
  1  4  1  0  0  0  0
  2  5  1  0  0  0  0
  3 18  2  0  0  0  0
  3  1  1  0  0  0  0
  4 10  1  0  0  0  0
  4  2  2  0  0  0  0
  5 17  1  0  0  0  0
  5 11  2  0  0  0  0
  6 19  1  0  0  0  0
  7  2  1  0  0  0  0
  7 16  1  0  0  0  0
  9 11  1  0  0  0  0
  9  8  1  0  0  0  0
 10 12  1  0  0  0  0
 12 17  1  0  0  0  0
 13 10  2  0  0  0  0
 14  7  2  0  0  0  0
 15  1  2  0  0  0  0
 15 14  1  0  0  0  0
 16  9  2  0  0  0  0
 17 31  1  1  0  0  0
 18 13  1  0  0  0  0
 19  8  1  0  0  0  0
 20 16  1  0  0  0  0
 20  6  1  0  0  0  0
 21 23  1  1  0  0  0
 21 28  1  0  0  0  0
 22 30  1  0  0  0  0
 24 27  1  0  0  0  0
 25 28  1  0  0  0  0
 25 15  1  1  0  0  0
 26 21  1  0  0  0  0
 27 25  1  0  0  0  0
 28 29  1  6  0  0  0
 30 26  1  0  0  0  0
 30 24  1  0  0  0  0
 31 32  1  0  0  0  0
M  END
>  <MODEL>
3

>  <REMARK>
 VINA RESULT:     -10.0      3.227      5.484
  Name = 
  2 active torsions:
  status: ('A' for Active; 'I' for Inactive)
    1  A    between atoms: C_13  and  C_29
    2  A    between atoms: C_16  and  C_27
                            x       y       z     vdW  Elec       q    Type
                         _______ _______ _______ _____ _____    ______ ____

>  <TORSDO>
F 2

$$$$
=
 OpenBabel10262421003D

 32 37  0  0  1  0  0  0  0  0999 V2000
  189.7050  177.2850  142.2620 C   0  0  0  0  0  0  0  0  0  0  0  0
  187.9450  177.7130  143.8930 C   0  0  0  0  0  0  0  0  0  0  0  0
  191.0440  176.9760  141.9840 C   0  0  0  0  0  3  0  0  0  0  0  0
  189.2780  177.3700  143.6070 C   0  0  0  0  0  0  0  0  0  0  0  0
  187.5060  177.8950  145.2170 C   0  0  0  0  0  0  0  0  0  0  0  0
  183.4510  179.1020  142.3790 C   0  0  0  0  0  2  0  0  0  0  0  0
  187.0400  177.9020  142.8300 C   0  0  0  0  0  0  0  0  0  0  0  0
  183.9030  178.8050  144.8060 C   0  0  0  0  0  2  0  0  0  0  0  0
  185.2980  178.3710  144.4500 C   0  0  0  0  0  0  0  0  0  0  0  0
  190.1870  177.1010  144.6500 C   0  0  0  0  0  0  0  0  0  0  0  0
  186.2100  178.2400  145.4490 N   0  0  0  0  0  0  0  0  0  0  0  0
  189.7090  176.9920  146.0680 C   0  0  0  0  0  2  0  0  0  0  0  0
  191.5120  176.7760  144.3510 C   0  0  0  0  0  3  0  0  0  0  0  0
  187.4750  177.7870  141.5460 N   0  0  0  0  0  0  0  0  0  0  0  0
  188.7690  177.4980  141.2340 C   0  0  0  0  0  0  0  0  0  0  0  0
  185.7030  178.2290  143.1040 C   0  0  0  0  0  0  0  0  0  0  0  0
  188.5070  177.9010  146.3510 C   0  0  2  0  0  3  0  0  0  0  0  0
  191.9440  176.7300  143.0230 C   0  0  0  0  0  3  0  0  0  0  0  0
  182.9060  178.5390  143.6820 C   0  0  0  0  0  2  0  0  0  0  0  0
  184.7050  178.3350  141.9760 C   0  0  0  0  0  2  0  0  0  0  0  0
  188.1990  178.0540  137.4820 C   0  0  1  0  0  3  0  0  0  0  0  0
  191.4180  176.4490  136.4830 C   0  0  0  0  0  1  0  0  0  0  0  0
  187.4590  179.0320  136.8180 O   0  0  0  0  0  1  0  0  0  0  0  0
  189.7450  175.7080  137.9400 C   0  0  0  0  0  2  0  0  0  0  0  0
  189.1710  177.4060  139.7920 C   0  0  1  0  0  3  0  0  0  0  0  0
  189.4900  177.7550  136.7040 C   0  0  0  0  0  2  0  0  0  0  0  0
  189.0420  175.9610  139.2850 C   0  0  0  0  0  2  0  0  0  0  0  0
  188.4170  178.4510  138.9500 C   0  0  1  0  0  3  0  0  0  0  0  0
  189.0730  179.6820  139.0320 O   0  0  0  0  0  1  0  0  0  0  0  0
  190.4280  176.9020  137.4420 N   0  0  0  0  0  0  0  0  0  0  0  0
  187.8610  177.4940  147.6690 C   0  0  0  0  0  2  0  0  0  0  0  0
  188.3590  178.2800  148.7080 O   0  0  0  0  0  1  0  0  0  0  0  0
  1  4  1  0  0  0  0
  2  5  1  0  0  0  0
  3  1  2  0  0  0  0
  3 18  1  0  0  0  0
  4  2  1  0  0  0  0
  4 10  2  0  0  0  0
  5 11  2  0  0  0  0
  5 17  1  0  0  0  0
  6 19  1  0  0  0  0
  7 16  1  0  0  0  0
  7  2  2  0  0  0  0
  9  8  1  0  0  0  0
  9 11  1  0  0  0  0
 10 12  1  0  0  0  0
 12 17  1  0  0  0  0
 13 10  1  0  0  0  0
 14  7  1  0  0  0  0
 15 14  2  0  0  0  0
 15  1  1  0  0  0  0
 16  9  2  0  0  0  0
 17 31  1  1  0  0  0
 18 13  2  0  0  0  0
 19  8  1  0  0  0  0
 20  6  1  0  0  0  0
 20 16  1  0  0  0  0
 21 23  1  6  0  0  0
 21 28  1  0  0  0  0
 22 30  1  0  0  0  0
 24 27  1  0  0  0  0
 25 15  1  1  0  0  0
 26 30  1  0  0  0  0
 26 21  1  0  0  0  0
 27 25  1  0  0  0  0
 28 29  1  6  0  0  0
 28 25  1  0  0  0  0
 30 24  1  0  0  0  0
 31 32  1  0  0  0  0
M  END
>  <MODEL>
4

>  <REMARK>
 VINA RESULT:      -9.7      2.758      6.006
  Name = 
  2 active torsions:
  status: ('A' for Active; 'I' for Inactive)
    1  A    between atoms: C_13  and  C_29
    2  A    between atoms: C_16  and  C_27
                            x       y       z     vdW  Elec       q    Type
                         _______ _______ _______ _____ _____    ______ ____

>  <TORSDO>
F 2

$$$$
=
 OpenBabel10262421003D

 32 37  0  0  1  0  0  0  0  0999 V2000
  185.1520  178.2240  143.8210 C   0  0  0  0  0  0  0  0  0  0  0  0
  187.4980  177.8110  144.3340 C   0  0  0  0  0  0  0  0  0  0  0  0
  183.8440  178.4710  144.2630 C   0  0  0  0  0  3  0  0  0  0  0  0
  186.1910  178.0930  144.7690 C   0  0  0  0  0  0  0  0  0  0  0  0
  188.5400  177.5860  145.2520 C   0  0  0  0  0  0  0  0  0  0  0  0
  190.6790  176.7560  140.7030 C   0  0  0  0  0  2  0  0  0  0  0  0
  187.7600  177.7280  142.9530 C   0  0  0  0  0  0  0  0  0  0  0  0
  191.4840  176.9010  143.0510 C   0  0  0  0  0  2  0  0  0  0  0  0
  190.0860  177.2750  143.4620 C   0  0  0  0  0  0  0  0  0  0  0  0
  185.9130  178.2570  146.1410 C   0  0  0  0  0  0  0  0  0  0  0  0
  189.7880  177.3020  144.7890 N   0  0  0  0  0  0  0  0  0  0  0  0
  187.0300  178.3180  147.1430 C   0  0  0  0  0  2  0  0  0  0  0  0
  184.6080  178.5220  146.5600 C   0  0  0  0  0  3  0  0  0  0  0  0
  186.7420  177.8860  142.0630 N   0  0  0  0  0  0  0  0  0  0  0  0
  185.4580  178.1180  142.4520 C   0  0  0  0  0  0  0  0  0  0  0  0
  189.0630  177.4630  142.5060 C   0  0  0  0  0  0  0  0  0  0  0  0
  188.2340  177.4650  146.7280 C   0  0  2  0  0  3  0  0  0  0  0  0
  183.5730  178.6120  145.6260 C   0  0  0  0  0  3  0  0  0  0  0  0
  191.7850  177.2800  141.6040 C   0  0  0  0  0  2  0  0  0  0  0  0
  189.3730  177.4720  141.0290 C   0  0  0  0  0  2  0  0  0  0  0  0
  183.6880  179.9830  139.6070 C   0  0  1  0  0  3  0  0  0  0  0  0
  181.0520  177.3740  139.1770 C   0  0  0  0  0  1  0  0  0  0  0  0
  184.1910  180.8890  138.6730 O   0  0  0  0  0  1  0  0  0  0  0  0
  181.8370  178.4300  141.1110 C   0  0  0  0  0  2  0  0  0  0  0  0
  184.3920  178.2620  141.4070 C   0  0  1  0  0  3  0  0  0  0  0  0
  182.6530  179.0650  138.9400 C   0  0  0  0  0  2  0  0  0  0  0  0
  183.0400  178.5970  142.0570 C   0  0  0  0  0  2  0  0  0  0  0  0
  184.8380  179.2430  140.3080 C   0  0  1  0  0  3  0  0  0  0  0  0
  185.6320  178.5740  139.3740 O   0  0  0  0  0  1  0  0  0  0  0  0
  182.2380  177.9440  139.7900 N   0  0  0  0  0  0  0  0  0  0  0  0
  189.4390  177.8380  147.5810 C   0  0  0  0  0  2  0  0  0  0  0  0
  189.0200  178.2410  148.8500 O   0  0  0  0  0  1  0  0  0  0  0  0
  1  3  2  0  0  0  0
  1  4  1  0  0  0  0
  2  4  1  0  0  0  0
  2  5  1  0  0  0  0
  3 18  1  0  0  0  0
  4 10  2  0  0  0  0
  5 17  1  0  0  0  0
  6 20  1  0  0  0  0
  6 19  1  0  0  0  0
  7  2  2  0  0  0  0
  8  9  1  0  0  0  0
  9 11  1  0  0  0  0
 10 13  1  0  0  0  0
 10 12  1  0  0  0  0
 11  5  2  0  0  0  0
 14 15  2  0  0  0  0
 14  7  1  0  0  0  0
 15  1  1  0  0  0  0
 16  7  1  0  0  0  0
 16  9  2  0  0  0  0
 17 12  1  0  0  0  0
 17 31  1  1  0  0  0
 18 13  2  0  0  0  0
 19  8  1  0  0  0  0
 20 16  1  0  0  0  0
 21 23  1  6  0  0  0
 21 28  1  0  0  0  0
 22 30  1  0  0  0  0
 24 27  1  0  0  0  0
 25 27  1  0  0  0  0
 25 15  1  1  0  0  0
 26 21  1  0  0  0  0
 26 30  1  0  0  0  0
 28 29  1  6  0  0  0
 28 25  1  0  0  0  0
 30 24  1  0  0  0  0
 31 32  1  0  0  0  0
M  END
>  <MODEL>
5

>  <REMARK>
 VINA RESULT:      -9.6      1.585      2.002
  Name = 
  2 active torsions:
  status: ('A' for Active; 'I' for Inactive)
    1  A    between atoms: C_13  and  C_29
    2  A    between atoms: C_16  and  C_27
                            x       y       z     vdW  Elec       q    Type
                         _______ _______ _______ _____ _____    ______ ____

>  <TORSDO>
F 2

$$$$
=
 OpenBabel10262421003D

 32 37  0  0  1  0  0  0  0  0999 V2000
  185.9420  178.4700  143.6700 C   0  0  0  0  0  0  0  0  0  0  0  0
  185.9030  178.5060  141.2330 C   0  0  0  0  0  0  0  0  0  0  0  0
  185.2690  178.6210  144.8910 C   0  0  0  0  0  3  0  0  0  0  0  0
  185.2270  178.6220  142.4600 C   0  0  0  0  0  0  0  0  0  0  0  0
  185.2450  178.7390  140.0120 C   0  0  0  0  0  0  0  0  0  0  0  0
  190.0920  177.9060  138.6800 C   0  0  0  0  0  2  0  0  0  0  0  0
  187.2720  178.1730  141.2310 C   0  0  0  0  0  0  0  0  0  0  0  0
  187.9380  178.2080  137.4740 C   0  0  0  0  0  2  0  0  0  0  0  0
  187.2460  178.2510  138.8080 C   0  0  0  0  0  0  0  0  0  0  0  0
  183.8420  178.8790  142.4930 C   0  0  0  0  0  0  0  0  0  0  0  0
  185.9400  178.6290  138.8480 N   0  0  0  0  0  0  0  0  0  0  0  0
  183.0320  178.8480  141.2300 C   0  0  0  0  0  2  0  0  0  0  0  0
  183.1860  179.0070  143.7190 C   0  0  0  0  0  3  0  0  0  0  0  0
  187.9270  178.0060  142.4120 N   0  0  0  0  0  0  0  0  0  0  0  0
  187.3120  178.1540  143.6190 C   0  0  0  0  0  0  0  0  0  0  0  0
  187.9540  178.0390  140.0120 C   0  0  0  0  0  0  0  0  0  0  0  0
  183.8390  179.2970  140.0060 C   0  0  2  0  0  3  0  0  0  0  0  0
  183.9000  178.8950  144.9140 C   0  0  0  0  0  3  0  0  0  0  0  0
  189.2410  177.4150  137.5200 C   0  0  0  0  0  2  0  0  0  0  0  0
  189.3930  177.5850  139.9970 C   0  0  0  0  0  2  0  0  0  0  0  0
  190.2740  176.7560  145.6130 C   0  0  1  0  0  3  0  0  0  0  0  0
  189.1500  178.2530  148.8430 C   0  0  0  0  0  1  0  0  0  0  0  0
  191.5640  176.4240  145.1980 O   0  0  0  0  0  1  0  0  0  0  0  0
  187.9660  177.0040  147.2600 C   0  0  0  0  0  2  0  0  0  0  0  0
  188.1110  177.9690  144.8740 C   0  0  1  0  0  3  0  0  0  0  0  0
  190.3230  177.4040  147.0060 C   0  0  0  0  0  2  0  0  0  0  0  0
  187.4040  176.9920  145.8270 C   0  0  0  0  0  2  0  0  0  0  0  0
  189.5680  177.6010  144.5420 C   0  0  1  0  0  3  0  0  0  0  0  0
  190.2970  178.7630  144.2750 O   0  0  0  0  0  1  0  0  0  0  0  0
  189.0410  177.9820  147.4220 N   0  0  0  0  0  0  0  0  0  0  0  0
  183.0910  178.9140  138.7360 C   0  0  0  0  0  2  0  0  0  0  0  0
  182.2440  179.9530  138.3480 O   0  0  0  0  0  1  0  0  0  0  0  0
  1  3  2  0  0  0  0
  2  4  1  0  0  0  0
  3 18  1  0  0  0  0
  4 10  2  0  0  0  0
  4  1  1  0  0  0  0
  5  2  2  0  0  0  0
  6 20  1  0  0  0  0
  7  2  1  0  0  0  0
  7 14  1  0  0  0  0
  8 19  1  0  0  0  0
  8  9  1  0  0  0  0
  9 11  2  0  0  0  0
  9 16  1  0  0  0  0
 10 13  1  0  0  0  0
 11  5  1  0  0  0  0
 12 10  1  0  0  0  0
 13 18  2  0  0  0  0
 14 15  2  0  0  0  0
 15  1  1  0  0  0  0
 16  7  2  0  0  0  0
 17 31  1  6  0  0  0
 17  5  1  0  0  0  0
 17 12  1  0  0  0  0
 19  6  1  0  0  0  0
 20 16  1  0  0  0  0
 21 23  1  6  0  0  0
 21 26  1  0  0  0  0
 24 30  1  0  0  0  0
 25 15  1  6  0  0  0
 25 27  1  0  0  0  0
 26 30  1  0  0  0  0
 27 24  1  0  0  0  0
 28 29  1  1  0  0  0
 28 25  1  0  0  0  0
 28 21  1  0  0  0  0
 30 22  1  0  0  0  0
 32 31  1  0  0  0  0
M  END
>  <MODEL>
6

>  <REMARK>
 VINA RESULT:      -9.5      1.880      6.954
  Name = 
  2 active torsions:
  status: ('A' for Active; 'I' for Inactive)
    1  A    between atoms: C_13  and  C_29
    2  A    between atoms: C_16  and  C_27
                            x       y       z     vdW  Elec       q    Type
                         _______ _______ _______ _____ _____    ______ ____

>  <TORSDO>
F 2

$$$$
=
 OpenBabel10262421003D

 32 37  0  0  1  0  0  0  0  0999 V2000
  184.2120  178.4010  142.5570 C   0  0  0  0  0  0  0  0  0  0  0  0
  186.3840  178.0810  143.6140 C   0  0  0  0  0  0  0  0  0  0  0  0
  182.8370  178.6520  142.6740 C   0  0  0  0  0  3  0  0  0  0  0  0
  185.0120  178.3660  143.7220 C   0  0  0  0  0  0  0  0  0  0  0  0
  187.1940  177.9500  144.7570 C   0  0  0  0  0  0  0  0  0  0  0  0
  190.3060  176.8240  140.8830 C   0  0  0  0  0  2  0  0  0  0  0  0
  186.9510  177.8990  142.3370 C   0  0  0  0  0  0  0  0  0  0  0  0
  190.5610  177.1650  143.3330 C   0  0  0  0  0  2  0  0  0  0  0  0
  189.1050  177.5380  143.3890 C   0  0  0  0  0  0  0  0  0  0  0  0
  184.4320  178.6280  144.9790 C   0  0  0  0  0  0  0  0  0  0  0  0
  188.5150  177.6600  144.6090 N   0  0  0  0  0  0  0  0  0  0  0  0
  185.2930  178.7900  146.1970 C   0  0  0  0  0  2  0  0  0  0  0  0
  183.0640  178.8950  145.0720 C   0  0  0  0  0  3  0  0  0  0  0  0
  186.1590  177.9650  141.2320 N   0  0  0  0  0  0  0  0  0  0  0  0
  184.8190  178.1970  141.3040 C   0  0  0  0  0  0  0  0  0  0  0  0
  188.3230  177.6290  142.2170 C   0  0  0  0  0  0  0  0  0  0  0  0
  186.5640  177.9350  146.1320 C   0  0  2  0  0  3  0  0  0  0  0  0
  182.2660  178.8900  143.9250 C   0  0  0  0  0  3  0  0  0  0  0  0
  191.1780  177.4390  141.9650 C   0  0  0  0  0  2  0  0  0  0  0  0
  188.9570  177.5330  140.8500 C   0  0  0  0  0  2  0  0  0  0  0  0
  182.2290  179.7600  138.9470 C   0  0  1  0  0  3  0  0  0  0  0  0
  182.5310  177.0570  136.3900 C   0  0  0  0  0  1  0  0  0  0  0  0
  181.8500  181.0920  138.7800 O   0  0  0  0  0  1  0  0  0  0  0  0
  182.2420  176.9240  138.7070 C   0  0  0  0  0  2  0  0  0  0  0  0
  184.0150  178.2380  140.0390 C   0  0  1  0  0  3  0  0  0  0  0  0
  182.2620  179.0510  137.5850 C   0  0  0  0  0  2  0  0  0  0  0  0
  182.8950  177.1860  140.0760 C   0  0  0  0  0  2  0  0  0  0  0  0
  183.5400  179.6720  139.7430 C   0  0  1  0  0  3  0  0  0  0  0  0
  184.5550  180.3790  139.0940 O   0  0  0  0  0  1  0  0  0  0  0  0
  182.8610  177.7130  137.6420 N   0  0  0  0  0  0  0  0  0  0  0  0
  187.5440  178.3990  147.2010 C   0  0  0  0  0  2  0  0  0  0  0  0
  187.9310  177.3200  147.9960 O   0  0  0  0  0  1  0  0  0  0  0  0
  1  3  2  0  0  0  0
  1  4  1  0  0  0  0
  2  4  1  0  0  0  0
  2  5  1  0  0  0  0
  3 18  1  0  0  0  0
  4 10  2  0  0  0  0
  5 17  1  0  0  0  0
  6 19  1  0  0  0  0
  7  2  2  0  0  0  0
  8  9  1  0  0  0  0
  9 11  1  0  0  0  0
 10 13  1  0  0  0  0
 10 12  1  0  0  0  0
 11  5  2  0  0  0  0
 14 15  2  0  0  0  0
 14  7  1  0  0  0  0
 15  1  1  0  0  0  0
 16  7  1  0  0  0  0
 16  9  2  0  0  0  0
 17 12  1  0  0  0  0
 17 31  1  1  0  0  0
 18 13  2  0  0  0  0
 19  8  1  0  0  0  0
 20  6  1  0  0  0  0
 20 16  1  0  0  0  0
 21 23  1  6  0  0  0
 21 28  1  0  0  0  0
 22 30  1  0  0  0  0
 24 27  1  0  0  0  0
 25 27  1  0  0  0  0
 25 15  1  1  0  0  0
 26 30  1  0  0  0  0
 26 21  1  0  0  0  0
 28 29  1  6  0  0  0
 28 25  1  0  0  0  0
 30 24  1  0  0  0  0
 31 32  1  0  0  0  0
M  END
>  <MODEL>
7

>  <REMARK>
 VINA RESULT:      -9.4      1.571      2.071
  Name = 
  2 active torsions:
  status: ('A' for Active; 'I' for Inactive)
    1  A    between atoms: C_13  and  C_29
    2  A    between atoms: C_16  and  C_27
                            x       y       z     vdW  Elec       q    Type
                         _______ _______ _______ _____ _____    ______ ____

>  <TORSDO>
F 2

$$$$
=
 OpenBabel10262421003D

 32 37  0  0  1  0  0  0  0  0999 V2000
  185.6570  178.3480  143.6160 C   0  0  0  0  0  0  0  0  0  0  0  0
  183.6200  178.5300  142.2900 C   0  0  0  0  0  0  0  0  0  0  0  0
  186.2940  178.3990  144.8640 C   0  0  0  0  0  3  0  0  0  0  0  0
  184.2590  178.5450  143.5420 C   0  0  0  0  0  0  0  0  0  0  0  0
  182.2470  178.8100  142.1680 C   0  0  0  0  0  0  0  0  0  0  0  0
  183.8410  178.2520  137.3610 C   0  0  0  0  0  2  0  0  0  0  0  0
  184.3770  178.2530  141.1350 C   0  0  0  0  0  0  0  0  0  0  0  0
  181.6430  178.5410  138.4880 C   0  0  0  0  0  2  0  0  0  0  0  0
  182.3590  178.4750  139.8090 C   0  0  0  0  0  0  0  0  0  0  0  0
  183.5160  178.7440  144.7230 C   0  0  0  0  0  0  0  0  0  0  0  0
  181.6700  178.7980  140.9360 N   0  0  0  0  0  0  0  0  0  0  0  0
  182.0150  178.7570  144.6850 C   0  0  0  0  0  2  0  0  0  0  0  0
  184.1670  178.7710  145.9580 C   0  0  0  0  0  3  0  0  0  0  0  0
  185.7170  178.0410  141.2410 N   0  0  0  0  0  0  0  0  0  0  0  0
  186.3740  178.0910  142.4330 C   0  0  0  0  0  0  0  0  0  0  0  0
  183.7470  178.2190  139.8810 C   0  0  0  0  0  0  0  0  0  0  0  0
  181.4680  179.3110  143.3650 C   0  0  2  0  0  3  0  0  0  0  0  0
  185.5530  178.6160  146.0280 C   0  0  0  0  0  3  0  0  0  0  0  0
  182.3900  177.7990  137.3840 C   0  0  0  0  0  2  0  0  0  0  0  0
  184.5290  177.8250  138.6520 C   0  0  0  0  0  2  0  0  0  0  0  0
  189.7150  177.1100  140.8260 C   0  0  1  0  0  3  0  0  0  0  0  0
  191.6730  177.5880  143.9690 C   0  0  0  0  0  1  0  0  0  0  0  0
  190.1400  177.2050  139.5010 O   0  0  0  0  0  1  0  0  0  0  0  0
  189.6770  176.4290  143.5900 C   0  0  0  0  0  2  0  0  0  0  0  0
  187.8560  177.8630  142.4620 C   0  0  1  0  0  3  0  0  0  0  0  0
  190.8750  177.4530  141.7730 C   0  0  0  0  0  2  0  0  0  0  0  0
  188.1900  176.5670  143.2180 C   0  0  0  0  0  2  0  0  0  0  0  0
  188.4460  177.9490  141.0430 C   0  0  1  0  0  3  0  0  0  0  0  0
  188.6800  179.2860  140.7120 O   0  0  0  0  0  1  0  0  0  0  0  0
  190.4590  177.5930  143.1730 N   0  0  0  0  0  0  0  0  0  0  0  0
  179.9870  178.9760  143.2480 C   0  0  0  0  0  2  0  0  0  0  0  0
  179.6810  177.8780  144.0520 O   0  0  0  0  0  1  0  0  0  0  0  0
  1  3  2  0  0  0  0
  2  4  1  0  0  0  0
  3 18  1  0  0  0  0
  4  1  1  0  0  0  0
  4 10  2  0  0  0  0
  5  2  1  0  0  0  0
  5 17  1  0  0  0  0
  6 19  1  0  0  0  0
  6 20  1  0  0  0  0
  7 14  1  0  0  0  0
  7  2  2  0  0  0  0
  8  9  1  0  0  0  0
  9 16  2  0  0  0  0
  9 11  1  0  0  0  0
 10 13  1  0  0  0  0
 11  5  2  0  0  0  0
 12 10  1  0  0  0  0
 13 18  2  0  0  0  0
 14 15  2  0  0  0  0
 15  1  1  0  0  0  0
 16  7  1  0  0  0  0
 17 31  1  6  0  0  0
 17 12  1  0  0  0  0
 19  8  1  0  0  0  0
 20 16  1  0  0  0  0
 21 23  1  6  0  0  0
 21 28  1  0  0  0  0
 21 26  1  0  0  0  0
 25 15  1  6  0  0  0
 25 27  1  0  0  0  0
 26 30  1  0  0  0  0
 27 24  1  0  0  0  0
 28 29  1  1  0  0  0
 28 25  1  0  0  0  0
 30 24  1  0  0  0  0
 30 22  1  0  0  0  0
 31 32  1  0  0  0  0
M  END
>  <MODEL>
8

>  <REMARK>
 VINA RESULT:      -9.2      2.374      6.723
  Name = 
  2 active torsions:
  status: ('A' for Active; 'I' for Inactive)
    1  A    between atoms: C_13  and  C_29
    2  A    between atoms: C_16  and  C_27
                            x       y       z     vdW  Elec       q    Type
                         _______ _______ _______ _____ _____    ______ ____

>  <TORSDO>
F 2

$$$$
=
 OpenBabel10262421003D

 32 37  0  0  1  0  0  0  0  0999 V2000
  186.4540  178.3090  141.3600 C   0  0  0  0  0  0  0  0  0  0  0  0
  188.1150  177.9270  143.1020 C   0  0  0  0  0  0  0  0  0  0  0  0
  186.1390  178.4440  140.0000 C   0  0  0  0  0  3  0  0  0  0  0  0
  187.7860  178.0290  141.7390 C   0  0  0  0  0  0  0  0  0  0  0  0
  189.4450  177.7380  143.5200 C   0  0  0  0  0  0  0  0  0  0  0  0
  186.8310  178.2490  147.8630 C   0  0  0  0  0  2  0  0  0  0  0  0
  187.0950  178.0420  144.0660 C   0  0  0  0  0  0  0  0  0  0  0  0
  189.1670  177.6600  147.2480 C   0  0  0  0  0  2  0  0  0  0  0  0
  188.7530  177.7050  145.8020 C   0  0  0  0  0  0  0  0  0  0  0  0
  188.7720  177.8420  140.7490 C   0  0  0  0  0  0  0  0  0  0  0  0
  189.7220  177.6580  144.8500 N   0  0  0  0  0  0  0  0  0  0  0  0
  190.1410  177.3510  141.1200 C   0  0  0  0  0  2  0  0  0  0  0  0
  188.4330  177.9610  139.3990 C   0  0  0  0  0  3  0  0  0  0  0  0
  185.8160  178.2860  143.6690 N   0  0  0  0  0  0  0  0  0  0  0  0
  185.4710  178.4320  142.3590 C   0  0  0  0  0  0  0  0  0  0  0  0
  187.4080  177.9270  145.4290 C   0  0  0  0  0  0  0  0  0  0  0  0
  190.5720  177.8200  142.5140 C   0  0  2  0  0  3  0  0  0  0  0  0
  187.1250  178.2770  139.0260 C   0  0  0  0  0  3  0  0  0  0  0  0
  188.0020  177.3320  148.1760 C   0  0  0  0  0  2  0  0  0  0  0  0
  186.3080  177.9490  146.4620 C   0  0  0  0  0  2  0  0  0  0  0  0
  181.7140  178.5240  143.1220 C   0  0  1  0  0  3  0  0  0  0  0  0
  180.7900  179.8390  139.7520 C   0  0  0  0  0  1  0  0  0  0  0  0
  181.0440  178.6670  144.3370 O   0  0  0  0  0  1  0  0  0  0  0  0
  182.1790  178.0550  140.3530 C   0  0  0  0  0  2  0  0  0  0  0  0
  184.0410  178.7170  142.0070 C   0  0  1  0  0  3  0  0  0  0  0  0
  180.9720  179.2980  142.0210 C   0  0  0  0  0  2  0  0  0  0  0  0
  183.5050  177.6610  141.0270 C   0  0  0  0  0  2  0  0  0  0  0  0
  183.1950  178.9010  143.2790 C   0  0  1  0  0  3  0  0  0  0  0  0
  183.3190  180.2140  143.7400 O   0  0  0  0  0  1  0  0  0  0  0  0
  181.7240  179.3830  140.7650 N   0  0  0  0  0  0  0  0  0  0  0  0
  191.7850  177.0190  142.9670 C   0  0  0  0  0  2  0  0  0  0  0  0
  191.4130  175.7020  143.2400 O   0  0  0  0  0  1  0  0  0  0  0  0
  1  4  2  0  0  0  0
  1 15  1  0  0  0  0
  2  5  2  0  0  0  0
  2  7  1  0  0  0  0
  3  1  1  0  0  0  0
  4  2  1  0  0  0  0
  5 11  1  0  0  0  0
  6 19  1  0  0  0  0
  7 16  2  0  0  0  0
  8 19  1  0  0  0  0
  9  8  1  0  0  0  0
 10 12  1  0  0  0  0
 10  4  1  0  0  0  0
 11  9  2  0  0  0  0
 12 17  1  0  0  0  0
 13 10  2  0  0  0  0
 14  7  1  0  0  0  0
 15 14  2  0  0  0  0
 16  9  1  0  0  0  0
 16 20  1  0  0  0  0
 17 31  1  1  0  0  0
 17  5  1  0  0  0  0
 18 13  1  0  0  0  0
 18  3  2  0  0  0  0
 20  6  1  0  0  0  0
 21 28  1  0  0  0  0
 21 23  1  1  0  0  0
 22 30  1  0  0  0  0
 24 30  1  0  0  0  0
 24 27  1  0  0  0  0
 25 15  1  1  0  0  0
 25 28  1  0  0  0  0
 26 21  1  0  0  0  0
 27 25  1  0  0  0  0
 28 29  1  6  0  0  0
 30 26  1  0  0  0  0
 31 32  1  0  0  0  0
M  END
>  <MODEL>
9

>  <REMARK>
 VINA RESULT:      -9.0      2.212      4.693
  Name = 
  2 active torsions:
  status: ('A' for Active; 'I' for Inactive)
    1  A    between atoms: C_13  and  C_29
    2  A    between atoms: C_16  and  C_27
                            x       y       z     vdW  Elec       q    Type
                         _______ _______ _______ _____ _____    ______ ____

>  <TORSDO>
F 2

$$$$
