=
 OpenBabel10262419533D

 25 27  0  0  1  0  0  0  0  0999 V2000
  188.9070  177.5780  140.6560 C   0  0  0  0  0  0  0  0  0  0  0  0
  187.7960  177.8410  141.4320 C   0  0  0  0  0  0  0  0  0  0  0  0
  188.6890  178.0830  139.4180 N   0  0  0  0  0  0  0  0  0  0  0  0
  187.4800  178.6360  139.3780 N   0  0  0  0  0  0  0  0  0  0  0  0
  185.6930  178.9480  141.0370 C   0  0  2  0  0  3  0  0  0  0  0  0
  184.8210  179.6070  140.1810 O   0  0  0  0  0  1  0  0  0  0  0  0
  187.5010  177.6230  142.7770 C   0  0  0  0  0  3  0  0  0  0  0  0
  185.3520  178.7260  142.3820 C   0  0  0  0  0  3  0  0  0  0  0  0
  186.2540  178.0650  143.2570 C   0  0  0  0  0  0  0  0  0  0  0  0
  186.9330  178.4920  140.5960 C   0  0  0  0  0  0  0  0  0  0  0  0
  190.1770  176.9410  141.0620 C   0  0  0  0  0  0  0  0  0  0  0  0
  190.7910  176.2410  140.2130 O   0  0  0  0  0  0  0  0  0  0  0  0
  190.7370  177.0730  142.4240 C   0  0  0  0  0  0  0  0  0  0  0  0
  191.7250  177.3050  145.0420 C   0  0  0  0  0  3  0  0  0  0  0  0
  190.8410  175.9410  143.2470 C   0  0  0  0  0  3  0  0  0  0  0  0
  191.3390  176.0560  144.5490 C   0  0  0  0  0  3  0  0  0  0  0  0
  191.6110  178.4390  144.2350 C   0  0  0  0  0  3  0  0  0  0  0  0
  191.1120  178.3250  142.9340 C   0  0  0  0  0  3  0  0  0  0  0  0
  185.9360  177.8410  144.6000 O   0  0  0  0  0  0  0  0  0  0  0  0
  186.8940  177.4910  145.5530 C   0  0  0  0  0  3  0  0  0  0  0  0
  186.8990  178.0370  146.7690 C   0  0  0  0  0  0  0  0  0  0  0  0
  185.8650  179.0490  147.1420 C   0  0  0  0  0  1  0  0  0  0  0  0
  187.9260  177.6440  147.7510 C   0  0  0  0  0  0  0  0  0  0  0  0
  188.9480  176.7130  147.4020 N   0  0  0  0  0  1  0  0  0  0  0  0
  187.9080  178.1310  148.9120 O   0  0  0  0  0  0  0  0  0  0  0  0
  1 11  1  0  0  0  0
  1  2  1  0  0  0  0
  2  7  2  0  0  0  0
  3  1  2  0  0  0  0
  4  3  1  0  0  0  0
  4 10  2  0  0  0  0
  5  6  1  1  0  0  0
  5  8  1  0  0  0  0
  7  9  1  0  0  0  0
  8  9  2  0  0  0  0
  9 19  1  0  0  0  0
 10  5  1  0  0  0  0
 10  2  1  0  0  0  0
 11 13  1  0  0  0  0
 12 11  2  0  0  0  0
 13 18  2  0  0  0  0
 13 15  1  0  0  0  0
 15 16  2  0  0  0  0
 16 14  1  0  0  0  0
 17 14  2  0  0  0  0
 18 17  1  0  0  0  0
 19 20  1  0  0  0  0
 20 21  2  0  0  0  0
 21 22  1  0  0  0  0
 21 23  1  0  0  0  0
 23 25  2  0  0  0  0
 24 23  1  0  0  0  0
M  END
>  <MODEL>
1

>  <REMARK>
 VINA RESULT:      -8.7      0.000      0.000
  Name = 
  5 active torsions:
  status: ('A' for Active; 'I' for Inactive)
    1  A    between atoms: C_1  and  C_18
    2  A    between atoms: C_2  and  C_21
    3  A    between atoms: C_5  and  C_18
    4  A    between atoms: O_6  and  C_15
    5  A    between atoms: O_6  and  C_23
                            x       y       z     vdW  Elec       q    Type
                         _______ _______ _______ _____ _____    ______ ____

>  <TORSDO>
F 5

$$$$
=
 OpenBabel10262419533D

 25 27  0  0  0  0  0  0  0  0999 V2000
  187.6990  177.7290  146.1940 C   0  0  0  0  0  0  0  0  0  0  0  0
  186.8920  178.0260  145.1150 C   0  0  0  0  0  0  0  0  0  0  0  0
  186.9810  177.9250  147.3270 N   0  0  0  0  0  2  0  0  0  0  0  0
  185.7630  178.3510  147.0050 N   0  0  0  0  0  0  0  0  0  0  0  0
  184.6140  178.7720  144.8740 C   0  0  0  0  0  0  0  0  0  0  0  0
  183.4090  179.1680  145.4400 O   0  0  0  0  0  1  0  0  0  0  0  0
  187.0750  177.9350  143.7360 C   0  0  0  0  0  3  0  0  0  0  0  0
  184.7690  178.7140  143.4780 C   0  0  0  0  0  3  0  0  0  0  0  0
  185.9970  178.2930  142.9040 C   0  0  0  0  0  0  0  0  0  0  0  0
  185.7030  178.4140  145.6650 C   0  0  0  0  0  0  0  0  0  0  0  0
  189.0790  177.2030  146.1880 C   0  0  0  0  0  0  0  0  0  0  0  0
  189.4890  176.5900  147.2100 O   0  0  0  0  0  0  0  0  0  0  0  0
  189.9990  177.3890  145.0460 C   0  0  0  0  0  0  0  0  0  0  0  0
  191.6890  177.7890  142.8390 C   0  0  0  0  0  3  0  0  0  0  0  0
  190.5170  178.6640  144.7690 C   0  0  0  0  0  3  0  0  0  0  0  0
  191.3630  178.8610  143.6730 C   0  0  0  0  0  3  0  0  0  0  0  0
  191.1660  176.5200  143.0980 C   0  0  0  0  0  3  0  0  0  0  0  0
  190.3200  176.3220  144.1930 C   0  0  0  0  0  3  0  0  0  0  0  0
  186.1690  178.2230  141.5190 O   0  0  0  0  0  0  0  0  0  0  0  0
  187.4130  178.3820  140.9050 C   0  0  0  0  0  3  0  0  0  0  0  0
  187.5470  178.3350  139.5800 C   0  0  0  0  0  0  0  0  0  0  0  0
  186.3520  178.1100  138.7110 C   0  0  0  0  0  1  0  0  0  0  0  0
  188.8760  178.5070  138.9650 C   0  0  0  0  0  0  0  0  0  0  0  0
  189.0320  179.2730  137.7730 N   0  0  0  0  0  1  0  0  0  0  0  0
  189.8890  177.9740  139.4900 O   0  0  0  0  0  0  0  0  0  0  0  0
  1  3  1  0  0  0  0
  2 10  1  0  0  0  0
  2  1  2  0  0  0  0
  4  3  1  0  0  0  0
  5  6  1  0  0  0  0
  5 10  1  0  0  0  0
  7  2  1  0  0  0  0
  8  5  2  0  0  0  0
  9  8  1  0  0  0  0
  9  7  2  0  0  0  0
 10  4  2  0  0  0  0
 11  1  1  0  0  0  0
 11 12  2  0  0  0  0
 13 11  1  0  0  0  0
 14 17  2  0  0  0  0
 14 16  1  0  0  0  0
 15 13  1  0  0  0  0
 16 15  2  0  0  0  0
 17 18  1  0  0  0  0
 18 13  2  0  0  0  0
 19  9  1  0  0  0  0
 20 19  1  0  0  0  0
 21 20  2  0  0  0  0
 22 21  1  0  0  0  0
 23 25  2  0  0  0  0
 23 21  1  0  0  0  0
 24 23  1  0  0  0  0
M  END
>  <MODEL>
2

>  <REMARK>
 VINA RESULT:      -8.5      1.814      5.648
  Name = 
  5 active torsions:
  status: ('A' for Active; 'I' for Inactive)
    1  A    between atoms: C_1  and  C_18
    2  A    between atoms: C_2  and  C_21
    3  A    between atoms: C_5  and  C_18
    4  A    between atoms: O_6  and  C_15
    5  A    between atoms: O_6  and  C_23
                            x       y       z     vdW  Elec       q    Type
                         _______ _______ _______ _____ _____    ______ ____

>  <TORSDO>
F 5

$$$$
=
 OpenBabel10262419533D

 25 27  0  0  0  0  0  0  0  0999 V2000
  187.4450  177.8340  146.2290 C   0  0  0  0  0  0  0  0  0  0  0  0
  186.5770  178.0650  145.1810 C   0  0  0  0  0  0  0  0  0  0  0  0
  186.8090  178.1480  147.3830 N   0  0  0  0  0  2  0  0  0  0  0  0
  185.5850  178.5840  147.1040 N   0  0  0  0  0  0  0  0  0  0  0  0
  184.3090  178.8620  145.0210 C   0  0  0  0  0  0  0  0  0  0  0  0
  183.1560  179.3430  145.6260 O   0  0  0  0  0  1  0  0  0  0  0  0
  186.6670  177.8520  143.8060 C   0  0  0  0  0  3  0  0  0  0  0  0
  184.3710  178.6810  143.6280 C   0  0  0  0  0  3  0  0  0  0  0  0
  185.5470  178.1730  143.0160 C   0  0  0  0  0  0  0  0  0  0  0  0
  185.4380  178.5370  145.7690 C   0  0  0  0  0  0  0  0  0  0  0  0
  188.8070  177.2640  146.1800 C   0  0  0  0  0  0  0  0  0  0  0  0
  189.2220  176.6210  147.1820 O   0  0  0  0  0  0  0  0  0  0  0  0
  189.7060  177.4410  145.0190 C   0  0  0  0  0  0  0  0  0  0  0  0
  191.3600  177.8320  142.7840 C   0  0  0  0  0  3  0  0  0  0  0  0
  190.3840  178.6560  144.8410 C   0  0  0  0  0  3  0  0  0  0  0  0
  191.2120  178.8490  143.7300 C   0  0  0  0  0  3  0  0  0  0  0  0
  190.6770  176.6240  142.9460 C   0  0  0  0  0  3  0  0  0  0  0  0
  189.8490  176.4320  144.0550 C   0  0  0  0  0  3  0  0  0  0  0  0
  185.6250  177.9810  141.6340 O   0  0  0  0  0  0  0  0  0  0  0  0
  185.1230  178.9040  140.7150 C   0  0  0  0  0  3  0  0  0  0  0  0
  183.9990  178.6730  140.0370 C   0  0  0  0  0  0  0  0  0  0  0  0
  183.2420  177.4020  140.2510 C   0  0  0  0  0  1  0  0  0  0  0  0
  183.4980  179.6690  139.0740 C   0  0  0  0  0  0  0  0  0  0  0  0
  182.2890  179.4410  138.3540 N   0  0  0  0  0  1  0  0  0  0  0  0
  184.1370  180.7370  138.8790 O   0  0  0  0  0  0  0  0  0  0  0  0
  1  3  1  0  0  0  0
  2 10  1  0  0  0  0
  2  1  2  0  0  0  0
  4  3  1  0  0  0  0
  5  6  1  0  0  0  0
  5 10  1  0  0  0  0
  7  2  1  0  0  0  0
  8  5  2  0  0  0  0
  9  8  1  0  0  0  0
  9  7  2  0  0  0  0
 10  4  2  0  0  0  0
 11  1  1  0  0  0  0
 11 12  2  0  0  0  0
 13 11  1  0  0  0  0
 14 17  2  0  0  0  0
 14 16  1  0  0  0  0
 15 13  1  0  0  0  0
 16 15  2  0  0  0  0
 17 18  1  0  0  0  0
 18 13  2  0  0  0  0
 19  9  1  0  0  0  0
 20 19  1  0  0  0  0
 21 22  1  0  0  0  0
 21 20  2  0  0  0  0
 23 21  1  0  0  0  0
 24 23  1  0  0  0  0
 25 23  2  0  0  0  0
M  END
>  <MODEL>
3

>  <REMARK>
 VINA RESULT:      -8.4      2.621      5.966
  Name = 
  5 active torsions:
  status: ('A' for Active; 'I' for Inactive)
    1  A    between atoms: C_1  and  C_18
    2  A    between atoms: C_2  and  C_21
    3  A    between atoms: C_5  and  C_18
    4  A    between atoms: O_6  and  C_15
    5  A    between atoms: O_6  and  C_23
                            x       y       z     vdW  Elec       q    Type
                         _______ _______ _______ _____ _____    ______ ____

>  <TORSDO>
F 5

$$$$
=
 OpenBabel10262419533D

 25 27  0  0  0  0  0  0  0  0999 V2000
  187.2910  178.1180  146.9410 C   0  0  0  0  0  0  0  0  0  0  0  0
  188.3690  177.7520  146.1620 C   0  0  0  0  0  0  0  0  0  0  0  0
  187.5310  177.7170  148.2130 N   0  0  0  0  0  2  0  0  0  0  0  0
  188.7070  177.0970  148.2620 N   0  0  0  0  0  0  0  0  0  0  0  0
  190.4500  176.6180  146.5960 C   0  0  0  0  0  0  0  0  0  0  0  0
  191.3080  175.9700  147.4740 O   0  0  0  0  0  1  0  0  0  0  0  0
  188.6940  177.9700  144.8240 C   0  0  0  0  0  3  0  0  0  0  0  0
  190.8020  176.7990  145.2470 C   0  0  0  0  0  3  0  0  0  0  0  0
  189.9270  177.4770  144.3570 C   0  0  0  0  0  0  0  0  0  0  0  0
  189.2200  177.1150  147.0200 C   0  0  0  0  0  0  0  0  0  0  0  0
  186.0940  178.8880  146.5450 C   0  0  0  0  0  0  0  0  0  0  0  0
  185.6580  179.7650  147.3390 O   0  0  0  0  0  0  0  0  0  0  0  0
  185.3790  178.6530  145.2720 C   0  0  0  0  0  0  0  0  0  0  0  0
  184.0630  178.2700  142.8220 C   0  0  0  0  0  3  0  0  0  0  0  0
  186.0800  178.1720  144.1570 C   0  0  0  0  0  3  0  0  0  0  0  0
  185.4230  177.9750  142.9380 C   0  0  0  0  0  3  0  0  0  0  0  0
  183.3590  178.7640  143.9230 C   0  0  0  0  0  3  0  0  0  0  0  0
  184.0160  178.9610  145.1410 C   0  0  0  0  0  3  0  0  0  0  0  0
  190.2610  177.6720  143.0140 O   0  0  0  0  0  0  0  0  0  0  0  0
  189.3620  178.1930  142.0820 C   0  0  0  0  0  3  0  0  0  0  0  0
  189.4410  177.8840  140.7880 C   0  0  0  0  0  0  0  0  0  0  0  0
  190.5100  176.9590  140.3020 C   0  0  0  0  0  1  0  0  0  0  0  0
  188.4750  178.4520  139.8310 C   0  0  0  0  0  0  0  0  0  0  0  0
  188.9110  178.9610  138.5730 N   0  0  0  0  0  1  0  0  0  0  0  0
  187.2500  178.4940  140.1200 O   0  0  0  0  0  0  0  0  0  0  0  0
  1  3  1  0  0  0  0
  2  1  2  0  0  0  0
  2 10  1  0  0  0  0
  3  4  1  0  0  0  0
  5 10  1  0  0  0  0
  5  6  1  0  0  0  0
  7  2  1  0  0  0  0
  8  5  2  0  0  0  0
  9  7  2  0  0  0  0
  9  8  1  0  0  0  0
 10  4  2  0  0  0  0
 11  1  1  0  0  0  0
 11 12  2  0  0  0  0
 13 11  1  0  0  0  0
 14 16  2  0  0  0  0
 14 17  1  0  0  0  0
 15 13  2  0  0  0  0
 16 15  1  0  0  0  0
 17 18  2  0  0  0  0
 18 13  1  0  0  0  0
 19  9  1  0  0  0  0
 20 19  1  0  0  0  0
 21 20  2  0  0  0  0
 22 21  1  0  0  0  0
 23 25  2  0  0  0  0
 23 21  1  0  0  0  0
 24 23  1  0  0  0  0
M  END
>  <MODEL>
4

>  <REMARK>
 VINA RESULT:      -8.4      1.976      7.272
  Name = 
  5 active torsions:
  status: ('A' for Active; 'I' for Inactive)
    1  A    between atoms: C_1  and  C_18
    2  A    between atoms: C_2  and  C_21
    3  A    between atoms: C_5  and  C_18
    4  A    between atoms: O_6  and  C_15
    5  A    between atoms: O_6  and  C_23
                            x       y       z     vdW  Elec       q    Type
                         _______ _______ _______ _____ _____    ______ ____

>  <TORSDO>
F 5

$$$$
=
 OpenBabel10262419533D

 25 27  0  0  1  0  0  0  0  0999 V2000
  186.8320  178.2700  142.4250 C   0  0  0  0  0  0  0  0  0  0  0  0
  186.5410  178.1400  143.7680 C   0  0  1  0  0  3  0  0  0  0  0  0
  185.7730  178.8580  141.8170 N   0  0  0  0  0  0  0  0  0  0  0  0
  184.8220  179.0860  142.7180 N   0  0  0  0  0  0  0  0  0  0  0  0
  184.6480  178.7190  145.1420 C   0  0  0  0  0  0  0  0  0  0  0  0
  183.3670  179.2390  145.2710 O   0  0  0  0  0  1  0  0  0  0  0  0
  187.2760  177.6840  144.8610 C   0  0  0  0  0  3  0  0  0  0  0  0
  185.3500  178.2470  146.2640 C   0  0  0  0  0  3  0  0  0  0  0  0
  186.6660  177.7300  146.1300 C   0  0  0  0  0  0  0  0  0  0  0  0
  185.2820  178.6530  143.9030 C   0  0  0  0  0  0  0  0  0  0  0  0
  188.0860  177.9300  141.7230 C   0  0  0  0  0  0  0  0  0  0  0  0
  188.0800  177.9160  140.4630 O   0  0  0  0  0  0  0  0  0  0  0  0
  189.3320  177.5810  142.4390 C   0  0  0  0  0  0  0  0  0  0  0  0
  191.6540  176.8840  143.8570 C   0  0  0  0  0  3  0  0  0  0  0  0
  189.7140  176.2360  142.5600 C   0  0  0  0  0  3  0  0  0  0  0  0
  190.8730  175.8900  143.2620 C   0  0  0  0  0  3  0  0  0  0  0  0
  191.2730  178.2240  143.7540 C   0  0  0  0  0  3  0  0  0  0  0  0
  190.1140  178.5710  143.0540 C   0  0  0  0  0  3  0  0  0  0  0  0
  187.3830  177.2620  147.2340 O   0  0  0  0  0  0  0  0  0  0  0  0
  188.6750  176.7430  147.1290 C   0  0  0  0  0  3  0  0  0  0  0  0
  189.7050  177.3070  147.7590 C   0  0  0  0  0  0  0  0  0  0  0  0
  189.4960  178.5230  148.6020 C   0  0  0  0  0  1  0  0  0  0  0  0
  191.0570  176.7340  147.6260 C   0  0  0  0  0  0  0  0  0  0  0  0
  192.1400  177.2370  148.4040 N   0  0  0  0  0  1  0  0  0  0  0  0
  191.2660  175.7890  146.8190 O   0  0  0  0  0  0  0  0  0  0  0  0
  1  2  1  0  0  0  0
  2 10  1  0  0  0  0
  2  7  1  1  0  0  0
  3  1  2  0  0  0  0
  3  4  1  0  0  0  0
  4 10  2  0  0  0  0
  5  6  1  0  0  0  0
  5  8  2  0  0  0  0
  7  9  2  0  0  0  0
  9  8  1  0  0  0  0
  9 19  1  0  0  0  0
 10  5  1  0  0  0  0
 11  1  1  0  0  0  0
 11 13  1  0  0  0  0
 12 11  2  0  0  0  0
 13 15  2  0  0  0  0
 13 18  1  0  0  0  0
 15 16  1  0  0  0  0
 16 14  2  0  0  0  0
 17 14  1  0  0  0  0
 18 17  2  0  0  0  0
 20 19  1  0  0  0  0
 20 21  2  0  0  0  0
 21 22  1  0  0  0  0
 23 21  1  0  0  0  0
 23 24  1  0  0  0  0
 25 23  2  0  0  0  0
M  END
>  <MODEL>
5

>  <REMARK>
 VINA RESULT:      -8.4      2.171      3.132
  Name = 
  5 active torsions:
  status: ('A' for Active; 'I' for Inactive)
    1  A    between atoms: C_1  and  C_18
    2  A    between atoms: C_2  and  C_21
    3  A    between atoms: C_5  and  C_18
    4  A    between atoms: O_6  and  C_15
    5  A    between atoms: O_6  and  C_23
                            x       y       z     vdW  Elec       q    Type
                         _______ _______ _______ _____ _____    ______ ____

>  <TORSDO>
F 5

$$$$
=
 OpenBabel10262419533D

 25 27  0  0  0  0  0  0  0  0999 V2000
  185.5940  178.5460  145.0210 C   0  0  0  0  0  0  0  0  0  0  0  0
  186.7950  178.0640  145.5000 C   0  0  0  0  0  0  0  0  0  0  0  0
  184.8770  179.0150  146.0710 N   0  0  0  0  0  2  0  0  0  0  0  0
  185.5690  178.8310  147.1910 N   0  0  0  0  0  0  0  0  0  0  0  0
  187.7930  177.9090  147.6870 C   0  0  0  0  0  0  0  0  0  0  0  0
  187.7220  178.1030  149.0600 O   0  0  0  0  0  1  0  0  0  0  0  0
  187.9290  177.5450  144.8760 C   0  0  0  0  0  3  0  0  0  0  0  0
  188.9440  177.3610  147.0960 C   0  0  0  0  0  3  0  0  0  0  0  0
  189.0180  177.1790  145.6890 C   0  0  0  0  0  0  0  0  0  0  0  0
  186.7340  178.2540  146.8510 C   0  0  0  0  0  0  0  0  0  0  0  0
  185.1410  178.6440  143.6190 C   0  0  0  0  0  0  0  0  0  0  0  0
  186.0130  178.7340  142.7140 O   0  0  0  0  0  0  0  0  0  0  0  0
  183.7110  178.6670  143.2410 C   0  0  0  0  0  0  0  0  0  0  0  0
  181.0080  178.7850  142.4890 C   0  0  0  0  0  3  0  0  0  0  0  0
  183.3460  178.5960  141.8880 C   0  0  0  0  0  3  0  0  0  0  0  0
  181.9990  178.6490  141.5150 C   0  0  0  0  0  3  0  0  0  0  0  0
  181.3630  178.8720  143.8380 C   0  0  0  0  0  3  0  0  0  0  0  0
  182.7090  178.8200  144.2110 C   0  0  0  0  0  3  0  0  0  0  0  0
  190.1560  176.6410  145.0820 O   0  0  0  0  0  0  0  0  0  0  0  0
  190.2940  176.5400  143.6960 C   0  0  0  0  0  3  0  0  0  0  0  0
  190.9210  177.4780  142.9870 C   0  0  0  0  0  0  0  0  0  0  0  0
  191.4980  178.6750  143.6710 C   0  0  0  0  0  1  0  0  0  0  0  0
  191.0480  177.3390  141.5260 C   0  0  0  0  0  0  0  0  0  0  0  0
  189.9170  177.0020  140.7260 N   0  0  0  0  0  1  0  0  0  0  0  0
  192.1630  177.5170  140.9680 O   0  0  0  0  0  0  0  0  0  0  0  0
  1  2  2  0  0  0  0
  1  3  1  0  0  0  0
  2 10  1  0  0  0  0
  3  4  1  0  0  0  0
  5  6  1  0  0  0  0
  7  2  1  0  0  0  0
  7  9  2  0  0  0  0
  8  5  2  0  0  0  0
  9  8  1  0  0  0  0
 10  4  2  0  0  0  0
 10  5  1  0  0  0  0
 11  1  1  0  0  0  0
 12 11  2  0  0  0  0
 13 11  1  0  0  0  0
 13 18  1  0  0  0  0
 14 17  1  0  0  0  0
 15 13  2  0  0  0  0
 16 15  1  0  0  0  0
 16 14  2  0  0  0  0
 17 18  2  0  0  0  0
 19  9  1  0  0  0  0
 20 19  1  0  0  0  0
 21 22  1  0  0  0  0
 21 20  2  0  0  0  0
 23 21  1  0  0  0  0
 24 23  1  0  0  0  0
 25 23  2  0  0  0  0
M  END
>  <MODEL>
6

>  <REMARK>
 VINA RESULT:      -8.4      2.487      7.171
  Name = 
  5 active torsions:
  status: ('A' for Active; 'I' for Inactive)
    1  A    between atoms: C_1  and  C_18
    2  A    between atoms: C_2  and  C_21
    3  A    between atoms: C_5  and  C_18
    4  A    between atoms: O_6  and  C_15
    5  A    between atoms: O_6  and  C_23
                            x       y       z     vdW  Elec       q    Type
                         _______ _______ _______ _____ _____    ______ ____

>  <TORSDO>
F 5

$$$$
=
 OpenBabel10262419533D

 25 27  0  0  0  0  0  0  0  0999 V2000
  190.4810  177.8420  142.4840 C   0  0  0  0  0  0  0  0  0  0  0  0
  189.3690  177.9910  141.6810 C   0  0  0  0  0  0  0  0  0  0  0  0
  191.4160  177.1500  141.7890 N   0  0  0  0  0  2  0  0  0  0  0  0
  190.9320  176.8420  140.5900 N   0  0  0  0  0  0  0  0  0  0  0  0
  188.8100  177.3070  139.4400 C   0  0  0  0  0  0  0  0  0  0  0  0
  189.1420  176.6500  138.2620 O   0  0  0  0  0  1  0  0  0  0  0  0
  188.1600  178.6660  141.8450 C   0  0  0  0  0  3  0  0  0  0  0  0
  187.5720  177.9580  139.5770 C   0  0  0  0  0  3  0  0  0  0  0  0
  187.2430  178.6420  140.7770 C   0  0  0  0  0  0  0  0  0  0  0  0
  189.6900  177.3490  140.5190 C   0  0  0  0  0  0  0  0  0  0  0  0
  190.7130  178.3880  143.8370 C   0  0  0  0  0  0  0  0  0  0  0  0
  191.4870  179.3760  143.9580 O   0  0  0  0  0  0  0  0  0  0  0  0
  190.0970  177.8070  145.0490 C   0  0  0  0  0  0  0  0  0  0  0  0
  188.9100  176.7810  147.3780 C   0  0  0  0  0  3  0  0  0  0  0  0
  188.7140  177.9270  145.2540 C   0  0  0  0  0  3  0  0  0  0  0  0
  188.1220  177.4110  146.4110 C   0  0  0  0  0  3  0  0  0  0  0  0
  190.2900  176.6700  147.1900 C   0  0  0  0  0  3  0  0  0  0  0  0
  190.8810  177.1870  146.0340 C   0  0  0  0  0  3  0  0  0  0  0  0
  186.0200  179.3000  140.9300 O   0  0  0  0  0  0  0  0  0  0  0  0
  185.3420  179.3570  142.1500 C   0  0  0  0  0  3  0  0  0  0  0  0
  184.1750  178.7390  142.3280 C   0  0  0  0  0  0  0  0  0  0  0  0
  183.5600  177.9600  141.2110 C   0  0  0  0  0  1  0  0  0  0  0  0
  183.4860  178.8200  143.6280 C   0  0  0  0  0  0  0  0  0  0  0  0
  184.2300  178.8670  144.8440 N   0  0  0  0  0  1  0  0  0  0  0  0
  182.2280  178.8470  143.6770 O   0  0  0  0  0  0  0  0  0  0  0  0
  1 11  1  0  0  0  0
  2  7  1  0  0  0  0
  2  1  2  0  0  0  0
  3  1  1  0  0  0  0
  4  3  1  0  0  0  0
  5  8  2  0  0  0  0
  5 10  1  0  0  0  0
  6  5  1  0  0  0  0
  8  9  1  0  0  0  0
  9 19  1  0  0  0  0
  9  7  2  0  0  0  0
 10  4  2  0  0  0  0
 10  2  1  0  0  0  0
 11 12  2  0  0  0  0
 11 13  1  0  0  0  0
 13 15  2  0  0  0  0
 13 18  1  0  0  0  0
 15 16  1  0  0  0  0
 16 14  2  0  0  0  0
 17 14  1  0  0  0  0
 18 17  2  0  0  0  0
 19 20  1  0  0  0  0
 20 21  2  0  0  0  0
 21 23  1  0  0  0  0
 22 21  1  0  0  0  0
 23 25  2  0  0  0  0
 23 24  1  0  0  0  0
M  END
>  <MODEL>
7

>  <REMARK>
 VINA RESULT:      -8.3      2.518      4.289
  Name = 
  5 active torsions:
  status: ('A' for Active; 'I' for Inactive)
    1  A    between atoms: C_1  and  C_18
    2  A    between atoms: C_2  and  C_21
    3  A    between atoms: C_5  and  C_18
    4  A    between atoms: O_6  and  C_15
    5  A    between atoms: O_6  and  C_23
                            x       y       z     vdW  Elec       q    Type
                         _______ _______ _______ _____ _____    ______ ____

>  <TORSDO>
F 5

$$$$
=
 OpenBabel10262419533D

 25 27  0  0  0  0  0  0  0  0999 V2000
  188.9950  177.5690  146.8390 C   0  0  0  0  0  0  0  0  0  0  0  0
  187.9060  177.7490  146.0110 C   0  0  0  0  0  0  0  0  0  0  0  0
  188.5940  177.7720  148.1170 N   0  0  0  0  0  2  0  0  0  0  0  0
  187.3030  178.0900  148.1260 N   0  0  0  0  0  0  0  0  0  0  0  0
  185.5920  178.3120  146.3750 C   0  0  0  0  0  0  0  0  0  0  0  0
  184.5550  178.6480  147.2350 O   0  0  0  0  0  1  0  0  0  0  0  0
  187.7190  177.5980  144.6370 C   0  0  0  0  0  3  0  0  0  0  0  0
  185.3710  178.1910  144.9920 C   0  0  0  0  0  3  0  0  0  0  0  0
  186.4310  177.8320  144.1190 C   0  0  0  0  0  0  0  0  0  0  0  0
  186.8800  178.0770  146.8510 C   0  0  0  0  0  0  0  0  0  0  0  0
  190.3630  177.1470  146.4730 C   0  0  0  0  0  0  0  0  0  0  0  0
  191.1190  176.7190  147.3860 O   0  0  0  0  0  0  0  0  0  0  0  0
  190.8820  177.2300  145.0910 C   0  0  0  0  0  0  0  0  0  0  0  0
  191.9400  177.3550  142.4930 C   0  0  0  0  0  3  0  0  0  0  0  0
  191.1400  176.0530  144.3710 C   0  0  0  0  0  3  0  0  0  0  0  0
  191.6610  176.1160  143.0750 C   0  0  0  0  0  3  0  0  0  0  0  0
  191.7010  178.5310  143.2080 C   0  0  0  0  0  3  0  0  0  0  0  0
  191.1810  178.4680  144.5040 C   0  0  0  0  0  3  0  0  0  0  0  0
  186.2300  177.7010  142.7420 O   0  0  0  0  0  0  0  0  0  0  0  0
  185.1380  178.2680  142.0830 C   0  0  0  0  0  3  0  0  0  0  0  0
  185.2240  178.6780  140.8170 C   0  0  0  0  0  0  0  0  0  0  0  0
  186.5090  178.5360  140.0680 C   0  0  0  0  0  1  0  0  0  0  0  0
  184.0510  179.2730  140.1520 C   0  0  0  0  0  0  0  0  0  0  0  0
  184.2150  180.1780  139.0630 N   0  0  0  0  0  1  0  0  0  0  0  0
  182.8890  178.9850  140.5420 O   0  0  0  0  0  0  0  0  0  0  0  0
  1  3  1  0  0  0  0
  2  1  2  0  0  0  0
  2 10  1  0  0  0  0
  3  4  1  0  0  0  0
  5 10  1  0  0  0  0
  5  6  1  0  0  0  0
  7  2  1  0  0  0  0
  8  5  2  0  0  0  0
  9  7  2  0  0  0  0
  9  8  1  0  0  0  0
 10  4  2  0  0  0  0
 11  1  1  0  0  0  0
 11 12  2  0  0  0  0
 13 11  1  0  0  0  0
 14 16  2  0  0  0  0
 14 17  1  0  0  0  0
 15 13  2  0  0  0  0
 16 15  1  0  0  0  0
 17 18  2  0  0  0  0
 18 13  1  0  0  0  0
 19  9  1  0  0  0  0
 20 19  1  0  0  0  0
 21 20  2  0  0  0  0
 22 21  1  0  0  0  0
 23 25  2  0  0  0  0
 23 21  1  0  0  0  0
 24 23  1  0  0  0  0
M  END
>  <MODEL>
8

>  <REMARK>
 VINA RESULT:      -8.1      2.195      5.756
  Name = 
  5 active torsions:
  status: ('A' for Active; 'I' for Inactive)
    1  A    between atoms: C_1  and  C_18
    2  A    between atoms: C_2  and  C_21
    3  A    between atoms: C_5  and  C_18
    4  A    between atoms: O_6  and  C_15
    5  A    between atoms: O_6  and  C_23
                            x       y       z     vdW  Elec       q    Type
                         _______ _______ _______ _____ _____    ______ ____

>  <TORSDO>
F 5

$$$$
=
 OpenBabel10262419533D

 25 27  0  0  1  0  0  0  0  0999 V2000
  190.7750  176.9920  140.3760 C   0  0  0  0  0  0  0  0  0  0  0  0
  190.1170  177.1010  141.5840 C   0  0  1  0  0  3  0  0  0  0  0  0
  192.0550  177.4010  140.5520 N   0  0  0  0  0  0  0  0  0  0  0  0
  192.2240  177.7780  141.8150 N   0  0  0  0  0  0  0  0  0  0  0  0
  190.7610  177.8220  143.7900 C   0  0  0  0  0  0  0  0  0  0  0  0
  191.7160  178.3310  144.6610 O   0  0  0  0  0  1  0  0  0  0  0  0
  188.8320  176.7580  142.0020 C   0  0  0  0  0  3  0  0  0  0  0  0
  189.4680  177.5100  144.2430 C   0  0  0  0  0  3  0  0  0  0  0  0
  188.4990  176.9750  143.3530 C   0  0  0  0  0  0  0  0  0  0  0  0
  191.0520  177.5990  142.4470 C   0  0  0  0  0  0  0  0  0  0  0  0
  190.2620  176.4550  139.0990 C   0  0  0  0  0  0  0  0  0  0  0  0
  190.7290  175.3610  138.6810 O   0  0  0  0  0  0  0  0  0  0  0  0
  189.2470  177.1590  138.2860 C   0  0  0  0  0  0  0  0  0  0  0  0
  187.3390  178.4470  136.6780 C   0  0  0  0  0  3  0  0  0  0  0  0
  188.0920  176.4780  137.8700 C   0  0  0  0  0  3  0  0  0  0  0  0
  187.1400  177.1220  137.0730 C   0  0  0  0  0  3  0  0  0  0  0  0
  188.4920  179.1280  137.0760 C   0  0  0  0  0  3  0  0  0  0  0  0
  189.4450  178.4840  137.8700 C   0  0  0  0  0  3  0  0  0  0  0  0
  187.2100  176.6520  143.7850 O   0  0  0  0  0  0  0  0  0  0  0  0
  186.5740  177.3270  144.8290 C   0  0  0  0  0  3  0  0  0  0  0  0
  185.5780  178.1830  144.6020 C   0  0  0  0  0  0  0  0  0  0  0  0
  185.1140  178.4410  143.2050 C   0  0  0  0  0  1  0  0  0  0  0  0
  184.9290  178.8780  145.7280 C   0  0  0  0  0  0  0  0  0  0  0  0
  185.6850  179.2780  146.8680 N   0  0  0  0  0  1  0  0  0  0  0  0
  183.6950  179.1250  145.6910 O   0  0  0  0  0  0  0  0  0  0  0  0
  1  3  2  0  0  0  0
  1  2  1  0  0  0  0
  2  7  1  1  0  0  0
  2 10  1  0  0  0  0
  3  4  1  0  0  0  0
  4 10  2  0  0  0  0
  5  8  2  0  0  0  0
  5  6  1  0  0  0  0
  7  9  2  0  0  0  0
  9 19  1  0  0  0  0
  9  8  1  0  0  0  0
 10  5  1  0  0  0  0
 11  1  1  0  0  0  0
 12 11  2  0  0  0  0
 13 11  1  0  0  0  0
 14 16  1  0  0  0  0
 14 17  2  0  0  0  0
 15 13  1  0  0  0  0
 16 15  2  0  0  0  0
 17 18  1  0  0  0  0
 18 13  2  0  0  0  0
 19 20  1  0  0  0  0
 21 20  2  0  0  0  0
 21 23  1  0  0  0  0
 22 21  1  0  0  0  0
 23 24  1  0  0  0  0
 25 23  2  0  0  0  0
M  END
>  <MODEL>
9

>  <REMARK>
 VINA RESULT:      -8.0      2.689      4.961
  Name = 
  5 active torsions:
  status: ('A' for Active; 'I' for Inactive)
    1  A    between atoms: C_1  and  C_18
    2  A    between atoms: C_2  and  C_21
    3  A    between atoms: C_5  and  C_18
    4  A    between atoms: O_6  and  C_15
    5  A    between atoms: O_6  and  C_23
                            x       y       z     vdW  Elec       q    Type
                         _______ _______ _______ _____ _____    ______ ____

>  <TORSDO>
F 5

$$$$
