=
 OpenBabel10262419263D

 31 36  0  0  1  0  0  0  0  0999 V2000
  189.0380  177.1030  136.9840 C   0  0  0  0  0  0  0  0  0  0  0  0
  185.7270  178.3220  138.2660 C   0  0  2  0  0  3  0  0  0  0  0  0
  184.7730  177.1200  138.0990 C   0  0  2  0  0  3  0  0  0  0  0  0
  184.5840  174.8770  137.0120 C   0  0  0  0  0  3  0  0  0  0  0  0
  187.1870  177.9350  138.2300 C   0  0  0  0  0  0  0  0  0  0  0  0
  189.8610  177.1750  138.1110 C   0  0  0  0  0  3  0  0  0  0  0  0
  185.0780  176.2830  136.8710 C   0  0  0  0  0  2  0  0  0  0  0  0
  186.0130  178.5460  140.7380 N   0  0  0  0  0  0  0  0  0  0  0  0
  189.5640  176.6310  135.7500 N   0  0  0  0  0  1  0  0  0  0  0  0
  183.0430  178.9860  138.4720 C   0  0  0  0  0  2  0  0  0  0  0  0
  183.4470  174.4690  137.5930 C   0  0  0  0  0  3  0  0  0  0  0  0
  187.4700  178.6560  140.6290 C   0  0  0  0  0  2  0  0  0  0  0  0
  185.3620  179.1300  139.5450 C   0  0  2  0  0  3  0  0  0  0  0  0
  187.7360  177.4860  137.0670 N   0  0  0  0  0  0  0  0  0  0  0  0
  182.4120  175.2690  138.2910 C   0  0  0  0  0  3  0  0  0  0  0  0
  187.9870  178.0220  139.3800 C   0  0  0  0  0  0  0  0  0  0  0  0
  189.3300  177.6480  139.3100 C   0  0  0  0  0  3  0  0  0  0  0  0
  183.8320  179.2300  139.7520 C   0  0  0  0  0  2  0  0  0  0  0  0
  183.3270  177.5880  137.9160 C   0  0  2  0  0  3  0  0  0  0  0  0
  182.3550  176.5940  138.4630 C   0  0  0  0  0  3  0  0  0  0  0  0
  185.6040  179.2210  141.9830 C   0  0  0  0  0  2  0  0  0  0  0  0
  187.8880  177.6290  146.2860 C   0  0  0  0  0  0  0  0  0  0  0  0
  187.2960  177.1600  143.8340 C   0  0  0  0  0  2  0  0  0  0  0  0
  184.4150  178.6930  145.3610 C   0  0  0  0  0  2  0  0  0  0  0  0
  184.0330  178.7560  143.8910 C   0  0  0  0  0  2  0  0  0  0  0  0
  188.8500  177.7320  147.4170 C   0  0  0  0  0  1  0  0  0  0  0  0
  185.2640  178.2580  143.1260 C   0  0  2  0  0  3  0  0  0  0  0  0
  188.3960  177.1850  144.9190 C   0  0  0  0  0  2  0  0  0  0  0  0
  185.6730  177.8760  145.3190 C   0  0  1  0  0  3  0  0  0  0  0  0
  186.3480  178.2380  144.0920 N   0  0  1  0  0  0  0  0  0  0  0  0
  186.6140  178.0220  146.4720 C   0  0  0  0  0  3  0  0  0  0  0  0
  1 14  2  0  0  0  0
  1  6  1  0  0  0  0
  2  5  1  1  0  0  0
  2 13  1  0  0  0  0
  3  7  1  6  0  0  0
  3  2  1  0  0  0  0
  4 11  2  0  0  0  0
  5 16  2  0  0  0  0
  6 17  2  0  0  0  0
  7  4  1  0  0  0  0
  8 21  1  0  0  0  0
  9  1  1  0  0  0  0
 10 18  1  0  0  0  0
 11 15  1  0  0  0  0
 12  8  1  0  0  0  0
 13 18  1  1  0  0  0
 13  8  1  0  0  0  0
 14  5  1  0  0  0  0
 15 20  2  0  0  0  0
 16 12  1  0  0  0  0
 17 16  1  0  0  0  0
 19  3  1  0  0  0  0
 19 20  1  1  0  0  0
 19 10  1  0  0  0  0
 22 31  2  0  0  0  0
 22 26  1  0  0  0  0
 23 28  1  0  0  0  0
 25 24  1  0  0  0  0
 27 21  1  6  0  0  0
 27 25  1  0  0  0  0
 27 30  1  0  0  0  0
 28 22  1  0  0  0  0
 29 24  1  1  0  0  0
 29 31  1  0  0  0  0
 30 23  1  6  0  0  0
 30 29  1  0  0  0  0
M  END
>  <MODEL>
1

>  <REMARK>
 VINA RESULT:      -9.3      0.000      0.000
  Name = 
  2 active torsions:
  status: ('A' for Active; 'I' for Inactive)
    1  A    between atoms: C_9  and  C_23
    2  A    between atoms: N_15  and  C_23
                            x       y       z     vdW  Elec       q    Type
                         _______ _______ _______ _____ _____    ______ ____

>  <TORSDO>
F 2

$$$$
=
 OpenBabel10262419263D

 31 36  0  0  1  0  0  0  0  0999 V2000
  192.3240  176.3500  137.6180 C   0  0  0  0  0  0  0  0  0  0  0  0
  188.7040  177.3280  137.7740 C   0  0  2  0  0  3  0  0  0  0  0  0
  187.9300  176.0200  137.5040 C   0  0  2  0  0  3  0  0  0  0  0  0
  188.2270  173.6720  136.6990 C   0  0  0  0  0  3  0  0  0  0  0  0
  190.1380  177.0990  138.1900 C   0  0  0  0  0  0  0  0  0  0  0  0
  192.7830  176.6220  138.9080 C   0  0  0  0  0  3  0  0  0  0  0  0
  188.6350  175.1030  136.5230 C   0  0  0  0  0  2  0  0  0  0  0  0
  188.2540  177.8280  140.1800 N   0  0  0  0  0  0  0  0  0  0  0  0
  193.2150  175.8170  136.6460 N   0  0  0  0  0  1  0  0  0  0  0  0
  186.0310  177.7180  137.1470 C   0  0  0  0  0  2  0  0  0  0  0  0
  187.0060  173.2050  136.9910 C   0  0  0  0  0  3  0  0  0  0  0  0
  189.6680  178.0820  140.4640 C   0  0  0  0  0  2  0  0  0  0  0  0
  187.9280  178.2160  138.7910 C   0  0  2  0  0  3  0  0  0  0  0  0
  191.0280  176.5980  137.2900 N   0  0  0  0  0  0  0  0  0  0  0  0
  185.7580  173.9550  137.2700 C   0  0  0  0  0  3  0  0  0  0  0  0
  190.5670  177.3860  139.4950 C   0  0  0  0  0  0  0  0  0  0  0  0
  191.8980  177.1530  139.8460 C   0  0  0  0  0  3  0  0  0  0  0  0
  186.4000  178.1710  138.5540 C   0  0  0  0  0  2  0  0  0  0  0  0
  186.5650  176.3090  136.8720 C   0  0  2  0  0  3  0  0  0  0  0  0
  185.5550  175.2770  137.2510 C   0  0  0  0  0  3  0  0  0  0  0  0
  187.4560  178.5760  141.1690 C   0  0  0  0  0  2  0  0  0  0  0  0
  188.4010  177.5480  146.1000 C   0  0  0  0  0  0  0  0  0  0  0  0
  188.6030  176.8210  143.6480 C   0  0  0  0  0  2  0  0  0  0  0  0
  185.3250  178.2560  144.0780 C   0  0  0  0  0  2  0  0  0  0  0  0
  185.4050  178.1610  142.5630 C   0  0  0  0  0  2  0  0  0  0  0  0
  188.9700  177.8230  147.4480 C   0  0  0  0  0  1  0  0  0  0  0  0
  186.8310  177.6930  142.2550 C   0  0  2  0  0  3  0  0  0  0  0  0
  189.3200  177.0250  145.0010 C   0  0  0  0  0  2  0  0  0  0  0  0
  186.5750  177.5380  144.4990 C   0  0  1  0  0  3  0  0  0  0  0  0
  187.5720  177.8420  143.4960 N   0  0  1  0  0  0  0  0  0  0  0  0
  187.1140  177.8560  145.8560 C   0  0  0  0  0  3  0  0  0  0  0  0
  1  6  1  0  0  0  0
  2  5  1  1  0  0  0
  2 13  1  0  0  0  0
  3  7  1  6  0  0  0
  3  2  1  0  0  0  0
  4 11  2  0  0  0  0
  5 16  2  0  0  0  0
  6 17  2  0  0  0  0
  7  4  1  0  0  0  0
  8 12  1  0  0  0  0
  8 21  1  0  0  0  0
  9  1  1  0  0  0  0
 10 18  1  0  0  0  0
 11 15  1  0  0  0  0
 13 18  1  6  0  0  0
 13  8  1  0  0  0  0
 14  1  2  0  0  0  0
 14  5  1  0  0  0  0
 16 17  1  0  0  0  0
 16 12  1  0  0  0  0
 19 10  1  1  0  0  0
 19 20  1  0  0  0  0
 19  3  1  0  0  0  0
 20 15  2  0  0  0  0
 22 26  1  0  0  0  0
 23 28  1  0  0  0  0
 25 24  1  0  0  0  0
 27 21  1  6  0  0  0
 27 25  1  0  0  0  0
 27 30  1  0  0  0  0
 28 22  1  0  0  0  0
 29 24  1  6  0  0  0
 29 31  1  0  0  0  0
 30 23  1  6  0  0  0
 30 29  1  0  0  0  0
 31 22  2  0  0  0  0
M  END
>  <MODEL>
2

>  <REMARK>
 VINA RESULT:      -9.3      1.841      2.781
  Name = 
  2 active torsions:
  status: ('A' for Active; 'I' for Inactive)
    1  A    between atoms: C_9  and  C_23
    2  A    between atoms: N_15  and  C_23
                            x       y       z     vdW  Elec       q    Type
                         _______ _______ _______ _____ _____    ______ ____

>  <TORSDO>
F 2

$$$$
=
 OpenBabel10262419263D

 31 36  0  0  1  0  0  0  0  0999 V2000
  190.2960  176.7630  137.7060 C   0  0  0  0  0  0  0  0  0  0  0  0
  186.7140  177.8140  138.1020 C   0  0  2  0  0  3  0  0  0  0  0  0
  185.8980  176.5180  137.9040 C   0  0  2  0  0  3  0  0  0  0  0  0
  186.0940  174.1560  137.1110 C   0  0  0  0  0  3  0  0  0  0  0  0
  188.1690  177.5610  138.4200 C   0  0  0  0  0  0  0  0  0  0  0  0
  190.8490  177.0410  138.9580 C   0  0  0  0  0  3  0  0  0  0  0  0
  186.5160  175.5760  136.8880 C   0  0  0  0  0  2  0  0  0  0  0  0
  186.4430  178.3500  140.5280 N   0  0  0  0  0  0  0  0  0  0  0  0
  191.1060  176.2010  136.6810 N   0  0  0  0  0  1  0  0  0  0  0  0
  184.0120  178.2490  137.6590 C   0  0  0  0  0  2  0  0  0  0  0  0
  184.8880  173.7160  137.4930 C   0  0  0  0  0  3  0  0  0  0  0  0
  187.8780  178.5800  140.7080 C   0  0  0  0  0  2  0  0  0  0  0  0
  186.0290  178.7290  139.1590 C   0  0  2  0  0  3  0  0  0  0  0  0
  188.9850  177.0320  137.4660 N   0  0  0  0  0  0  0  0  0  0  0  0
  183.6770  174.4940  137.8490 C   0  0  0  0  0  3  0  0  0  0  0  0
  188.6940  177.8550  139.6880 C   0  0  0  0  0  0  0  0  0  0  0  0
  190.0420  177.6000  139.9480 C   0  0  0  0  0  3  0  0  0  0  0  0
  184.4870  178.7110  139.0300 C   0  0  0  0  0  2  0  0  0  0  0  0
  184.4990  176.8270  137.3650 C   0  0  2  0  0  3  0  0  0  0  0  0
  183.4980  175.8190  137.8280 C   0  0  0  0  0  3  0  0  0  0  0  0
  185.7310  179.1260  141.5590 C   0  0  0  0  0  2  0  0  0  0  0  0
  186.8470  178.0180  146.4380 C   0  0  0  0  0  0  0  0  0  0  0  0
  186.9080  177.3030  143.9740 C   0  0  0  0  0  2  0  0  0  0  0  0
  183.7190  178.8770  144.5590 C   0  0  0  0  0  2  0  0  0  0  0  0
  183.7270  178.7900  143.0410 C   0  0  0  0  0  2  0  0  0  0  0  0
  187.4860  178.2580  147.7600 C   0  0  0  0  0  1  0  0  0  0  0  0
  185.1170  178.2630  142.6670 C   0  0  2  0  0  3  0  0  0  0  0  0
  187.6920  177.4650  145.2960 C   0  0  0  0  0  2  0  0  0  0  0  0
  184.9530  178.1010  144.9190 C   0  0  1  0  0  3  0  0  0  0  0  0
  185.9170  178.3690  143.8750 N   0  0  1  0  0  0  0  0  0  0  0  0
  185.5650  178.3840  146.2530 C   0  0  0  0  0  3  0  0  0  0  0  0
  1  6  1  0  0  0  0
  2  5  1  1  0  0  0
  2 13  1  0  0  0  0
  3  7  1  6  0  0  0
  3  2  1  0  0  0  0
  4 11  2  0  0  0  0
  5 16  2  0  0  0  0
  6 17  2  0  0  0  0
  7  4  1  0  0  0  0
  8 12  1  0  0  0  0
  8 21  1  0  0  0  0
  9  1  1  0  0  0  0
 10 18  1  0  0  0  0
 11 15  1  0  0  0  0
 13 18  1  1  0  0  0
 13  8  1  0  0  0  0
 14  1  2  0  0  0  0
 14  5  1  0  0  0  0
 16 17  1  0  0  0  0
 16 12  1  0  0  0  0
 19 10  1  1  0  0  0
 19 20  1  0  0  0  0
 19  3  1  0  0  0  0
 20 15  2  0  0  0  0
 22 26  1  0  0  0  0
 23 28  1  0  0  0  0
 25 24  1  0  0  0  0
 27 21  1  6  0  0  0
 27 25  1  0  0  0  0
 27 30  1  0  0  0  0
 28 22  1  0  0  0  0
 29 24  1  6  0  0  0
 29 31  1  0  0  0  0
 30 23  1  6  0  0  0
 30 29  1  0  0  0  0
 31 22  2  0  0  0  0
M  END
>  <MODEL>
3

>  <REMARK>
 VINA RESULT:      -9.0      1.020      1.185
  Name = 
  2 active torsions:
  status: ('A' for Active; 'I' for Inactive)
    1  A    between atoms: C_9  and  C_23
    2  A    between atoms: N_15  and  C_23
                            x       y       z     vdW  Elec       q    Type
                         _______ _______ _______ _____ _____    ______ ____

>  <TORSDO>
F 2

$$$$
=
 OpenBabel10262419263D

 31 36  0  0  1  0  0  0  0  0999 V2000
  189.3290  178.2300  137.4330 C   0  0  0  0  0  0  0  0  0  0  0  0
  187.2700  178.6280  140.5450 C   0  0  2  0  0  3  0  0  0  0  0  0
  185.8510  178.1720  140.1410 C   0  0  2  0  0  3  0  0  0  0  0  0
  184.4390  177.6190  138.1530 C   0  0  0  0  0  3  0  0  0  0  0  0
  188.3440  178.1470  139.5990 C   0  0  0  0  0  0  0  0  0  0  0  0
  190.2780  177.2730  137.8000 C   0  0  0  0  0  3  0  0  0  0  0  0
  185.5010  178.5200  138.7070 C   0  0  0  0  0  2  0  0  0  0  0  0
  188.0700  176.8470  142.1040 N   0  0  0  0  0  0  0  0  0  0  0  0
  189.3390  178.7710  136.1180 N   0  0  0  0  0  1  0  0  0  0  0  0
  185.2970  179.3780  142.3440 C   0  0  0  0  0  2  0  0  0  0  0  0
  183.3710  177.1310  138.7970 C   0  0  0  0  0  3  0  0  0  0  0  0
  189.3610  176.7340  141.4230 C   0  0  0  0  0  2  0  0  0  0  0  0
  187.5640  178.2350  142.0220 C   0  0  2  0  0  3  0  0  0  0  0  0
  188.3980  178.6450  138.3320 N   0  0  0  0  0  0  0  0  0  0  0  0
  182.9770  177.2940  140.2170 C   0  0  0  0  0  3  0  0  0  0  0  0
  189.2860  177.1870  140.0010 C   0  0  0  0  0  0  0  0  0  0  0  0
  190.2590  176.7600  139.0960 C   0  0  0  0  0  3  0  0  0  0  0  0
  186.3250  178.4190  142.9310 C   0  0  0  0  0  2  0  0  0  0  0  0
  184.7860  178.8680  140.9930 C   0  0  2  0  0  3  0  0  0  0  0  0
  183.5800  178.0060  141.1750 C   0  0  0  0  0  3  0  0  0  0  0  0
  188.2580  176.4040  143.4980 C   0  0  0  0  0  2  0  0  0  0  0  0
  187.9300  177.9970  148.3580 C   0  0  0  0  0  0  0  0  0  0  0  0
  187.3770  178.4160  145.8880 C   0  0  0  0  0  2  0  0  0  0  0  0
  190.7390  177.1280  146.0340 C   0  0  0  0  0  2  0  0  0  0  0  0
  190.4570  177.0370  144.5430 C   0  0  0  0  0  2  0  0  0  0  0  0
  187.5560  177.8720  149.7940 C   0  0  0  0  0  1  0  0  0  0  0  0
  188.9840  177.4280  144.3790 C   0  0  2  0  0  3  0  0  0  0  0  0
  186.8530  178.3590  147.3410 C   0  0  0  0  0  2  0  0  0  0  0  0
  189.5270  177.8600  146.5340 C   0  0  1  0  0  3  0  0  0  0  0  0
  188.4200  177.4110  145.7180 N   0  0  1  0  0  0  0  0  0  0  0  0
  189.1850  177.6940  147.9790 C   0  0  0  0  0  3  0  0  0  0  0  0
  1  6  2  0  0  0  0
  1 14  1  0  0  0  0
  2  5  1  6  0  0  0
  2 13  1  0  0  0  0
  3  7  1  6  0  0  0
  3  2  1  0  0  0  0
  3 19  1  0  0  0  0
  4  7  1  0  0  0  0
  4 11  2  0  0  0  0
  5 16  1  0  0  0  0
  6 17  1  0  0  0  0
  8 21  1  0  0  0  0
  9  1  1  0  0  0  0
 10 18  1  0  0  0  0
 11 15  1  0  0  0  0
 12  8  1  0  0  0  0
 13  8  1  0  0  0  0
 13 18  1  1  0  0  0
 14  5  2  0  0  0  0
 15 20  2  0  0  0  0
 16 12  1  0  0  0  0
 17 16  2  0  0  0  0
 19 20  1  1  0  0  0
 19 10  1  0  0  0  0
 22 26  1  0  0  0  0
 23 28  1  0  0  0  0
 25 24  1  0  0  0  0
 27 21  1  6  0  0  0
 27 25  1  0  0  0  0
 27 30  1  0  0  0  0
 28 22  1  0  0  0  0
 29 24  1  6  0  0  0
 29 31  1  0  0  0  0
 30 23  1  6  0  0  0
 30 29  1  0  0  0  0
 31 22  2  0  0  0  0
M  END
>  <MODEL>
4

>  <REMARK>
 VINA RESULT:      -8.0      1.706      3.297
  Name = 
  2 active torsions:
  status: ('A' for Active; 'I' for Inactive)
    1  A    between atoms: C_9  and  C_23
    2  A    between atoms: N_15  and  C_23
                            x       y       z     vdW  Elec       q    Type
                         _______ _______ _______ _____ _____    ______ ____

>  <TORSDO>
F 2

$$$$
=
 OpenBabel10262419263D

 31 36  0  0  1  0  0  0  0  0999 V2000
  184.5930  179.0570  142.0480 C   0  0  0  0  0  0  0  0  0  0  0  0
  186.5190  178.7390  138.8410 C   0  0  2  0  0  3  0  0  0  0  0  0
  187.8540  178.0790  139.2470 C   0  0  2  0  0  3  0  0  0  0  0  0
  189.2510  177.4940  141.2360 C   0  0  0  0  0  3  0  0  0  0  0  0
  185.4290  178.5650  139.8730 C   0  0  0  0  0  0  0  0  0  0  0  0
  183.4710  178.2550  141.8250 C   0  0  0  0  0  3  0  0  0  0  0  0
  188.3380  178.5080  140.6190 C   0  0  0  0  0  2  0  0  0  0  0  0
  185.3330  176.9770  137.5250 N   0  0  0  0  0  0  0  0  0  0  0  0
  184.7500  179.7280  143.2910 N   0  0  0  0  0  1  0  0  0  0  0  0
  188.4930  178.9210  136.9030 C   0  0  0  0  0  2  0  0  0  0  0  0
  190.1800  176.7530  140.6160 C   0  0  0  0  0  3  0  0  0  0  0  0
  184.0810  177.1740  138.2590 C   0  0  0  0  0  2  0  0  0  0  0  0
  186.0800  178.2500  137.4300 C   0  0  2  0  0  3  0  0  0  0  0  0
  185.5330  179.1970  141.0750 N   0  0  0  0  0  0  0  0  0  0  0  0
  190.5190  176.6890  139.1740 C   0  0  0  0  0  3  0  0  0  0  0  0
  184.3120  177.7550  139.6160 C   0  0  0  0  0  0  0  0  0  0  0  0
  183.3290  177.6120  140.5960 C   0  0  0  0  0  3  0  0  0  0  0  0
  187.2810  178.1080  136.4650 C   0  0  0  0  0  2  0  0  0  0  0  0
  188.9770  178.4740  138.2840 C   0  0  2  0  0  3  0  0  0  0  0  0
  190.0010  177.3930  138.1620 C   0  0  0  0  0  3  0  0  0  0  0  0
  184.9940  176.4300  136.1990 C   0  0  0  0  0  2  0  0  0  0  0  0
  189.4730  173.9480  136.4140 C   0  0  0  0  0  0  0  0  0  0  0  0
  187.6650  175.0550  134.9690 C   0  0  0  0  0  2  0  0  0  0  0  0
  185.9860  173.2370  137.5880 C   0  0  0  0  0  2  0  0  0  0  0  0
  184.8390  174.0580  137.0220 C   0  0  0  0  0  2  0  0  0  0  0  0
  190.8850  173.7530  136.8440 C   0  0  0  0  0  1  0  0  0  0  0  0
  185.4740  174.9900  135.9840 C   0  0  2  0  0  3  0  0  0  0  0  0
  189.1720  174.9250  135.2820 C   0  0  0  0  0  2  0  0  0  0  0  0
  187.0880  173.5340  136.6140 C   0  0  1  0  0  3  0  0  0  0  0  0
  186.9070  174.9100  136.2070 N   0  0  1  0  0  0  0  0  0  0  0  0
  188.4890  173.3330  137.0950 C   0  0  0  0  0  3  0  0  0  0  0  0
  1  9  1  0  0  0  0
  2  3  1  0  0  0  0
  2  5  1  1  0  0  0
  3  7  1  1  0  0  0
  5 14  1  0  0  0  0
  6  1  1  0  0  0  0
  7  4  1  0  0  0  0
  8 12  1  0  0  0  0
 11  4  2  0  0  0  0
 12 16  1  0  0  0  0
 13 18  1  6  0  0  0
 13  8  1  0  0  0  0
 13  2  1  0  0  0  0
 14  1  2  0  0  0  0
 15 11  1  0  0  0  0
 16  5  2  0  0  0  0
 16 17  1  0  0  0  0
 17  6  2  0  0  0  0
 18 10  1  0  0  0  0
 19 10  1  6  0  0  0
 19  3  1  0  0  0  0
 20 19  1  0  0  0  0
 20 15  2  0  0  0  0
 21  8  1  0  0  0  0
 22 26  1  0  0  0  0
 22 31  2  0  0  0  0
 23 28  1  0  0  0  0
 25 24  1  0  0  0  0
 27 21  1  1  0  0  0
 27 30  1  0  0  0  0
 27 25  1  0  0  0  0
 28 22  1  0  0  0  0
 29 31  1  1  0  0  0
 29 24  1  0  0  0  0
 30 23  1  6  0  0  0
 30 29  1  0  0  0  0
M  END
>  <MODEL>
5

>  <REMARK>
 VINA RESULT:      -7.4      2.535      7.309
  Name = 
  2 active torsions:
  status: ('A' for Active; 'I' for Inactive)
    1  A    between atoms: C_9  and  C_23
    2  A    between atoms: N_15  and  C_23
                            x       y       z     vdW  Elec       q    Type
                         _______ _______ _______ _____ _____    ______ ____

>  <TORSDO>
F 2

$$$$
=
 OpenBabel10262419263D

 31 36  0  0  1  0  0  0  0  0999 V2000
  185.6520  178.6200  138.6020 C   0  0  0  0  0  0  0  0  0  0  0  0
  189.1920  177.7700  139.5170 C   0  0  2  0  0  3  0  0  0  0  0  0
  189.1140  177.2780  140.9780 C   0  0  2  0  0  3  0  0  0  0  0  0
  187.5900  177.1790  142.9570 C   0  0  0  0  0  3  0  0  0  0  0  0
  187.8580  177.7490  138.8080 C   0  0  0  0  0  0  0  0  0  0  0  0
  185.3700  177.7310  137.5630 C   0  0  0  0  0  3  0  0  0  0  0  0
  188.0580  177.9980  141.7940 C   0  0  0  0  0  2  0  0  0  0  0  0
  189.7440  175.7190  138.2010 N   0  0  0  0  0  0  0  0  0  0  0  0
  184.6560  179.5340  139.0430 N   0  0  0  0  0  1  0  0  0  0  0  0
  191.6500  177.6670  140.7960 C   0  0  0  0  0  2  0  0  0  0  0  0
  188.3300  176.3800  143.7390 C   0  0  0  0  0  3  0  0  0  0  0  0
  188.7030  175.9920  137.2080 C   0  0  0  0  0  2  0  0  0  0  0  0
  190.2880  176.9860  138.7390 C   0  0  2  0  0  3  0  0  0  0  0  0
  186.8780  178.6130  139.1900 N   0  0  0  0  0  0  0  0  0  0  0  0
  189.7710  176.0470  143.6410 C   0  0  0  0  0  3  0  0  0  0  0  0
  187.6090  176.8440  137.7640 C   0  0  0  0  0  0  0  0  0  0  0  0
  186.3620  176.8470  137.1370 C   0  0  0  0  0  3  0  0  0  0  0  0
  191.5390  176.7180  139.6090 C   0  0  0  0  0  2  0  0  0  0  0  0
  190.4320  177.5320  141.7150 C   0  0  2  0  0  3  0  0  0  0  0  0
  190.6780  176.5050  142.7710 C   0  0  0  0  0  3  0  0  0  0  0  0
  190.7820  174.9000  137.5500 C   0  0  0  0  0  2  0  0  0  0  0  0
  195.7160  174.2070  136.3490 C   0  0  0  0  0  0  0  0  0  0  0  0
  193.9870  175.2280  137.9460 C   0  0  0  0  0  2  0  0  0  0  0  0
  192.7340  175.6470  134.5940 C   0  0  0  0  0  2  0  0  0  0  0  0
  191.5050  176.0090  135.4110 C   0  0  0  0  0  2  0  0  0  0  0  0
  196.9300  173.3950  136.0590 C   0  0  0  0  0  1  0  0  0  0  0  0
  191.8820  175.7230  136.8690 C   0  0  2  0  0  3  0  0  0  0  0  0
  195.2820  174.3980  137.7980 C   0  0  0  0  0  2  0  0  0  0  0  0
  193.7830  175.5040  135.6590 C   0  0  1  0  0  3  0  0  0  0  0  0
  193.1110  174.9500  136.8140 N   0  0  1  0  0  0  0  0  0  0  0  0
  194.9780  174.6710  135.3240 C   0  0  0  0  0  3  0  0  0  0  0  0
  1  9  1  0  0  0  0
  1 14  1  0  0  0  0
  2  5  1  6  0  0  0
  2  3  1  0  0  0  0
  3 19  1  0  0  0  0
  3  7  1  1  0  0  0
  4 11  2  0  0  0  0
  5 14  2  0  0  0  0
  6  1  2  0  0  0  0
  7  4  1  0  0  0  0
  8 13  1  0  0  0  0
 12 16  1  0  0  0  0
 12  8  1  0  0  0  0
 13  2  1  0  0  0  0
 13 18  1  1  0  0  0
 15 11  1  0  0  0  0
 16  5  1  0  0  0  0
 17  6  1  0  0  0  0
 17 16  2  0  0  0  0
 18 10  1  0  0  0  0
 19 10  1  6  0  0  0
 19 20  1  0  0  0  0
 20 15  2  0  0  0  0
 21  8  1  0  0  0  0
 22 28  1  0  0  0  0
 24 25  1  0  0  0  0
 25 27  1  0  0  0  0
 26 22  1  0  0  0  0
 27 21  1  6  0  0  0
 28 23  1  0  0  0  0
 29 24  1  6  0  0  0
 29 30  1  0  0  0  0
 30 27  1  0  0  0  0
 30 23  1  1  0  0  0
 31 29  1  0  0  0  0
 31 22  2  0  0  0  0
M  END
>  <MODEL>
6

>  <REMARK>
 VINA RESULT:      -7.3      3.430      8.609
  Name = 
  2 active torsions:
  status: ('A' for Active; 'I' for Inactive)
    1  A    between atoms: C_9  and  C_23
    2  A    between atoms: N_15  and  C_23
                            x       y       z     vdW  Elec       q    Type
                         _______ _______ _______ _____ _____    ______ ____

>  <TORSDO>
F 2

$$$$
=
 OpenBabel10262419263D

 31 36  0  0  1  0  0  0  0  0999 V2000
  191.0640  175.9820  143.3850 C   0  0  0  0  0  0  0  0  0  0  0  0
  187.5220  176.9710  144.1390 C   0  0  2  0  0  3  0  0  0  0  0  0
  187.5950  177.6870  145.5050 C   0  0  2  0  0  3  0  0  0  0  0  0
  189.1110  178.0940  147.4510 C   0  0  0  0  0  3  0  0  0  0  0  0
  188.8590  176.8790  143.4410 C   0  0  0  0  0  0  0  0  0  0  0  0
  191.3520  176.6960  142.2200 C   0  0  0  0  0  3  0  0  0  0  0  0
  188.6460  177.1020  146.4290 C   0  0  0  0  0  2  0  0  0  0  0  0
  186.9800  178.7910  142.5150 N   0  0  0  0  0  0  0  0  0  0  0  0
  192.0560  175.1470  143.9690 N   0  0  0  0  0  1  0  0  0  0  0  0
  185.0590  177.2790  145.3750 C   0  0  0  0  0  2  0  0  0  0  0  0
  188.3700  179.0070  148.0940 C   0  0  0  0  0  3  0  0  0  0  0  0
  188.0250  178.3640  141.5820 C   0  0  0  0  0  2  0  0  0  0  0  0
  186.4310  177.6250  143.2420 C   0  0  2  0  0  3  0  0  0  0  0  0
  189.8360  176.0840  143.9590 N   0  0  0  0  0  0  0  0  0  0  0  0
  186.9300  179.3230  147.9380 C   0  0  0  0  0  3  0  0  0  0  0  0
  189.1140  177.6080  142.2690 C   0  0  0  0  0  0  0  0  0  0  0  0
  190.3640  177.5040  141.6560 C   0  0  0  0  0  3  0  0  0  0  0  0
  185.1770  178.0290  144.0540 C   0  0  0  0  0  2  0  0  0  0  0  0
  186.2730  177.5540  146.2660 C   0  0  2  0  0  3  0  0  0  0  0  0
  186.0260  178.7350  147.1470 C   0  0  0  0  0  3  0  0  0  0  0  0
  185.9470  179.4990  141.7380 C   0  0  0  0  0  2  0  0  0  0  0  0
  181.1370  179.3330  139.9740 C   0  0  0  0  0  0  0  0  0  0  0  0
  182.8770  178.4490  141.6400 C   0  0  0  0  0  2  0  0  0  0  0  0
  184.5360  178.8530  138.4670 C   0  0  0  0  0  2  0  0  0  0  0  0
  185.7230  178.6280  139.3890 C   0  0  0  0  0  2  0  0  0  0  0  0
  179.8080  179.9090  139.6330 C   0  0  0  0  0  1  0  0  0  0  0  0
  185.1400  178.5870  140.8060 C   0  0  2  0  0  3  0  0  0  0  0  0
  181.4500  179.0030  141.4300 C   0  0  0  0  0  2  0  0  0  0  0  0
  183.3770  178.5980  139.3870 C   0  0  1  0  0  3  0  0  0  0  0  0
  183.7800  179.0850  140.6880 N   0  0  1  0  0  0  0  0  0  0  0  0
  182.0650  179.2070  139.0080 C   0  0  0  0  0  3  0  0  0  0  0  0
  1 14  1  0  0  0  0
  1  9  1  0  0  0  0
  2  5  1  6  0  0  0
  2  3  1  0  0  0  0
  3 19  1  0  0  0  0
  3  7  1  1  0  0  0
  4 11  2  0  0  0  0
  5 14  2  0  0  0  0
  6  1  2  0  0  0  0
  7  4  1  0  0  0  0
  8 13  1  0  0  0  0
 12 16  1  0  0  0  0
 12  8  1  0  0  0  0
 13 18  1  1  0  0  0
 13  2  1  0  0  0  0
 15 11  1  0  0  0  0
 16  5  1  0  0  0  0
 17  6  1  0  0  0  0
 17 16  2  0  0  0  0
 18 10  1  0  0  0  0
 19 10  1  6  0  0  0
 19 20  1  0  0  0  0
 20 15  2  0  0  0  0
 21  8  1  0  0  0  0
 22 28  1  0  0  0  0
 24 25  1  0  0  0  0
 25 27  1  0  0  0  0
 26 22  1  0  0  0  0
 27 21  1  1  0  0  0
 28 23  1  0  0  0  0
 29 24  1  6  0  0  0
 29 30  1  0  0  0  0
 30 27  1  0  0  0  0
 30 23  1  1  0  0  0
 31 29  1  0  0  0  0
 31 22  2  0  0  0  0
M  END
>  <MODEL>
7

>  <REMARK>
 VINA RESULT:      -7.1      2.725      7.373
  Name = 
  2 active torsions:
  status: ('A' for Active; 'I' for Inactive)
    1  A    between atoms: C_9  and  C_23
    2  A    between atoms: N_15  and  C_23
                            x       y       z     vdW  Elec       q    Type
                         _______ _______ _______ _____ _____    ______ ____

>  <TORSDO>
F 2

$$$$
=
 OpenBabel10262419263D

 31 36  0  0  1  0  0  0  0  0999 V2000
  180.4570  180.7760  135.9310 C   0  0  0  0  0  0  0  0  0  0  0  0
  181.6500  177.6870  137.6990 C   0  0  2  0  0  3  0  0  0  0  0  0
  182.8450  177.1880  136.8600 C   0  0  2  0  0  3  0  0  0  0  0  0
  183.9890  177.5030  134.6590 C   0  0  0  0  0  3  0  0  0  0  0  0
  181.2950  179.1320  137.4360 C   0  0  0  0  0  0  0  0  0  0  0  0
  180.6570  181.7820  136.8790 C   0  0  0  0  0  3  0  0  0  0  0  0
  182.6740  177.4380  135.3740 C   0  0  0  0  0  2  0  0  0  0  0  0
  182.6820  178.4960  139.8260 N   0  0  0  0  0  0  0  0  0  0  0  0
  179.9220  181.1000  134.6540 N   0  0  0  0  0  1  0  0  0  0  0  0
  182.4090  175.0820  138.2690 C   0  0  0  0  0  2  0  0  0  0  0  0
  185.0790  176.7590  134.8930 C   0  0  0  0  0  3  0  0  0  0  0  0
  181.9270  179.7500  139.7970 C   0  0  0  0  0  2  0  0  0  0  0  0
  181.8950  177.4050  139.2110 C   0  0  2  0  0  3  0  0  0  0  0  0
  180.7720  179.4870  136.2300 N   0  0  0  0  0  0  0  0  0  0  0  0
  185.3030  175.7260  135.9330 C   0  0  0  0  0  3  0  0  0  0  0  0
  181.5060  180.1180  138.4120 C   0  0  0  0  0  0  0  0  0  0  0  0
  181.1740  181.4440  138.1290 C   0  0  0  0  0  3  0  0  0  0  0  0
  182.5790  176.0370  139.4430 C   0  0  0  0  0  2  0  0  0  0  0  0
  183.0170  175.6730  136.9940 C   0  0  2  0  0  3  0  0  0  0  0  0
  184.4480  175.2680  136.8540 C   0  0  0  0  0  3  0  0  0  0  0  0
  183.0240  178.2110  141.2310 C   0  0  0  0  0  2  0  0  0  0  0  0
  186.0050  178.1250  145.4000 C   0  0  0  0  0  0  0  0  0  0  0  0
  184.0430  179.2060  144.1490 C   0  0  0  0  0  2  0  0  0  0  0  0
  186.6020  178.4810  141.7170 C   0  0  0  0  0  2  0  0  0  0  0  0
  185.4280  178.8200  140.8120 C   0  0  0  0  0  2  0  0  0  0  0  0
  186.6210  177.4980  146.6020 C   0  0  0  0  0  1  0  0  0  0  0  0
  184.2290  179.0060  141.7480 C   0  0  2  0  0  3  0  0  0  0  0  0
  184.5620  178.6140  145.4780 C   0  0  0  0  0  2  0  0  0  0  0  0
  186.0550  178.8200  143.0730 C   0  0  1  0  0  3  0  0  0  0  0  0
  184.6480  178.4820  143.0360 N   0  0  1  0  0  0  0  0  0  0  0  0
  186.6990  178.1570  144.2480 C   0  0  0  0  0  3  0  0  0  0  0  0
  1 14  2  0  0  0  0
  1  6  1  0  0  0  0
  2  5  1  1  0  0  0
  2 13  1  0  0  0  0
  3  7  1  6  0  0  0
  3 19  1  0  0  0  0
  3  2  1  0  0  0  0
  4 11  2  0  0  0  0
  4  7  1  0  0  0  0
  5 16  2  0  0  0  0
  6 17  2  0  0  0  0
  8 21  1  0  0  0  0
  9  1  1  0  0  0  0
 10 18  1  0  0  0  0
 11 15  1  0  0  0  0
 12  8  1  0  0  0  0
 13 18  1  6  0  0  0
 13  8  1  0  0  0  0
 14  5  1  0  0  0  0
 15 20  2  0  0  0  0
 16 12  1  0  0  0  0
 17 16  1  0  0  0  0
 19 20  1  1  0  0  0
 19 10  1  0  0  0  0
 22 28  1  0  0  0  0
 22 26  1  0  0  0  0
 23 28  1  0  0  0  0
 25 24  1  0  0  0  0
 25 27  1  0  0  0  0
 27 21  1  6  0  0  0
 27 30  1  0  0  0  0
 29 24  1  6  0  0  0
 29 31  1  0  0  0  0
 30 29  1  0  0  0  0
 30 23  1  1  0  0  0
 31 22  2  0  0  0  0
M  END
>  <MODEL>
8

>  <REMARK>
 VINA RESULT:      -7.0      2.776      5.089
  Name = 
  2 active torsions:
  status: ('A' for Active; 'I' for Inactive)
    1  A    between atoms: C_9  and  C_23
    2  A    between atoms: N_15  and  C_23
                            x       y       z     vdW  Elec       q    Type
                         _______ _______ _______ _____ _____    ______ ____

>  <TORSDO>
F 2

$$$$
=
 OpenBabel10262419263D

 31 36  0  0  1  0  0  0  0  0999 V2000
  183.4140  177.9970  139.9150 C   0  0  0  0  0  0  0  0  0  0  0  0
  186.5310  178.3120  137.8470 C   0  0  2  0  0  3  0  0  0  0  0  0
  187.6800  177.9330  138.8060 C   0  0  2  0  0  3  0  0  0  0  0  0
  188.1990  177.5380  141.2190 C   0  0  0  0  0  3  0  0  0  0  0  0
  185.1770  177.8400  138.3220 C   0  0  0  0  0  0  0  0  0  0  0  0
  182.7020  176.9880  139.2650 C   0  0  0  0  0  3  0  0  0  0  0  0
  187.4300  178.3670  140.2370 C   0  0  0  0  0  2  0  0  0  0  0  0
  186.4380  176.4230  136.2140 N   0  0  0  0  0  0  0  0  0  0  0  0
  182.8770  178.6060  141.0830 N   0  0  0  0  0  1  0  0  0  0  0  0
  189.0430  179.0420  136.9280 C   0  0  0  0  0  2  0  0  0  0  0  0
  189.4420  177.0580  141.0800 C   0  0  0  0  0  3  0  0  0  0  0  0
  184.9850  176.2960  136.3380 C   0  0  0  0  0  2  0  0  0  0  0  0
  186.8510  177.8310  136.4020 C   0  0  2  0  0  3  0  0  0  0  0  0
  184.6190  178.4000  139.4310 N   0  0  0  0  0  0  0  0  0  0  0  0
  190.3630  177.1620  139.9230 C   0  0  0  0  0  3  0  0  0  0  0  0
  184.4860  176.8250  137.6430 C   0  0  0  0  0  0  0  0  0  0  0  0
  183.2400  176.4090  138.1160 C   0  0  0  0  0  3  0  0  0  0  0  0
  188.3450  178.0160  136.0450 C   0  0  0  0  0  2  0  0  0  0  0  0
  188.9850  178.6230  138.4000 C   0  0  2  0  0  3  0  0  0  0  0  0
  190.1780  177.8000  138.7620 C   0  0  0  0  0  3  0  0  0  0  0  0
  186.8230  175.9020  134.8900 C   0  0  0  0  0  2  0  0  0  0  0  0
  191.4290  174.5890  136.7170 C   0  0  0  0  0  0  0  0  0  0  0  0
  189.9920  175.2270  134.6890 C   0  0  0  0  0  2  0  0  0  0  0  0
  188.0150  173.0420  136.7630 C   0  0  0  0  0  2  0  0  0  0  0  0
  186.9610  173.5610  135.7990 C   0  0  0  0  0  2  0  0  0  0  0  0
  192.6250  174.7430  137.5900 C   0  0  0  0  0  1  0  0  0  0  0  0
  187.6680  174.6230  134.9510 C   0  0  2  0  0  3  0  0  0  0  0  0
  191.2990  175.4680  135.4770 C   0  0  0  0  0  2  0  0  0  0  0  0
  189.2770  173.6040  136.1740 C   0  0  1  0  0  3  0  0  0  0  0  0
  188.9250  174.8960  135.6260 N   0  0  1  0  0  0  0  0  0  0  0  0
  190.4470  173.7490  137.0920 C   0  0  0  0  0  3  0  0  0  0  0  0
  1  9  1  0  0  0  0
  2  5  1  1  0  0  0
  2  3  1  0  0  0  0
  3  7  1  1  0  0  0
  5 14  2  0  0  0  0
  6  1  2  0  0  0  0
  7  4  1  0  0  0  0
  8 12  1  0  0  0  0
  8 13  1  0  0  0  0
 11  4  2  0  0  0  0
 12 16  1  0  0  0  0
 13 18  1  1  0  0  0
 13  2  1  0  0  0  0
 14  1  1  0  0  0  0
 15 11  1  0  0  0  0
 16 17  2  0  0  0  0
 16  5  1  0  0  0  0
 17  6  1  0  0  0  0
 18 10  1  0  0  0  0
 19 10  1  6  0  0  0
 19 20  1  0  0  0  0
 19  3  1  0  0  0  0
 20 15  2  0  0  0  0
 21  8  1  0  0  0  0
 22 31  2  0  0  0  0
 22 26  1  0  0  0  0
 23 28  1  0  0  0  0
 25 24  1  0  0  0  0
 27 21  1  1  0  0  0
 27 30  1  0  0  0  0
 27 25  1  0  0  0  0
 28 22  1  0  0  0  0
 29 24  1  1  0  0  0
 29 31  1  0  0  0  0
 30 23  1  6  0  0  0
 30 29  1  0  0  0  0
M  END
>  <MODEL>
9

>  <REMARK>
 VINA RESULT:      -6.9      2.926      7.626
  Name = 
  2 active torsions:
  status: ('A' for Active; 'I' for Inactive)
    1  A    between atoms: C_9  and  C_23
    2  A    between atoms: N_15  and  C_23
                            x       y       z     vdW  Elec       q    Type
                         _______ _______ _______ _____ _____    ______ ____

>  <TORSDO>
F 2

$$$$
