=
 OpenBabel10262421573D

 30 33  0  0  1  0  0  0  0  0999 V2000
  187.0110  177.8460  143.4060 N   0  0  0  0  0  0  0  0  0  0  0  0
  184.7230  178.2940  142.8130 C   0  0  0  0  0  0  0  0  0  0  0  0
  186.2950  178.1050  147.5820 C   0  0  0  0  0  2  0  0  0  0  0  0
  188.1040  177.6810  144.3170 C   0  0  0  0  0  0  0  0  0  0  0  0
  187.5070  178.5130  148.4030 C   0  0  0  0  0  2  0  0  0  0  0  0
  183.5910  178.8770  143.2190 C   0  0  0  0  0  3  0  0  0  0  0  0
  184.9100  178.0210  141.4980 F   0  0  0  0  0  0  0  0  0  0  0  0
  186.5700  178.1300  146.1390 N   0  0  0  0  0  0  0  0  0  0  0  0
  183.3990  179.2540  144.6360 C   0  0  0  0  0  3  0  0  0  0  0  0
  185.7880  178.0260  143.7930 C   0  0  0  0  0  0  0  0  0  0  0  0
  187.9050  177.8500  145.6460 C   0  0  0  0  0  0  0  0  0  0  0  0
  188.6670  177.6130  148.0300 C   0  0  0  0  0  2  0  0  0  0  0  0
  189.0770  177.8940  146.5940 C   0  0  0  0  0  2  0  0  0  0  0  0
  184.2680  178.8680  145.5790 C   0  0  0  0  0  3  0  0  0  0  0  0
  185.4150  177.9400  145.2520 C   0  0  2  0  0  3  0  0  0  0  0  0
  189.4550  177.4280  143.7000 C   0  0  1  0  0  3  0  0  0  0  0  0
  189.2270  175.2670  142.6820 O   0  0  0  0  0  0  0  0  0  0  0  0
  189.4020  176.5040  142.5140 C   0  0  0  0  0  0  0  0  0  0  0  0
  188.4670  177.9640  140.3170 S   0  0  0  0  0  0  0  0  0  0  0  0
  190.6950  176.8500  140.3500 C   0  0  0  0  0  3  0  0  0  0  0  0
  189.5820  177.0340  141.1560 C   0  0  0  0  0  0  0  0  0  0  0  0
  189.3710  178.1550  138.9120 C   0  0  0  0  0  3  0  0  0  0  0  0
  190.5720  177.4760  139.1010 C   0  0  0  0  0  3  0  0  0  0  0  0
  190.4140  178.9520  143.4060 S   0  0  0  0  0  0  0  0  0  0  0  0
  191.9100  178.2580  144.1700 C   0  0  0  0  0  2  0  0  0  0  0  0
  191.6110  176.8960  144.7650 C   0  0  0  0  0  2  0  0  0  0  0  0
  191.9270  176.8950  146.1860 N   0  0  0  0  0  2  0  0  0  0  0  0
  192.4730  174.6250  146.2440 O   0  0  0  0  0  0  0  0  0  0  0  0
  192.3550  175.7150  146.8640 C   0  0  0  0  0  0  0  0  0  0  0  0
  192.6640  175.7730  148.3160 C   0  0  0  0  0  1  0  0  0  0  0  0
  1 10  2  0  0  0  0
  1  4  1  0  0  0  0
  2  6  2  0  0  0  0
  2 10  1  0  0  0  0
  3  5  1  0  0  0  0
  4 11  2  0  0  0  0
  6  9  1  0  0  0  0
  7  2  1  0  0  0  0
  8  3  1  0  0  0  0
  9 14  2  0  0  0  0
 10 15  1  0  0  0  0
 11  8  1  0  0  0  0
 11 13  1  0  0  0  0
 12  5  1  0  0  0  0
 13 12  1  0  0  0  0
 15 14  1  1  0  0  0
 15  8  1  0  0  0  0
 16 18  1  6  0  0  0
 16  4  1  0  0  0  0
 18 17  2  0  0  0  0
 19 21  1  0  0  0  0
 20 21  2  0  0  0  0
 21 18  1  0  0  0  0
 22 23  2  0  0  0  0
 22 19  1  0  0  0  0
 23 20  1  0  0  0  0
 24 16  1  0  0  0  0
 24 25  1  0  0  0  0
 25 26  1  0  0  0  0
 26 27  1  0  0  0  0
 27 29  1  0  0  0  0
 28 29  2  0  0  0  0
 29 30  1  0  0  0  0
M  END
>  <MODEL>
1

>  <REMARK>
 VINA RESULT:      -8.6      0.000      0.000
  Name = 
  7 active torsions:
  status: ('A' for Active; 'I' for Inactive)
    1  A    between atoms: C_4  and  C_13
    2  A    between atoms: N_7  and  C_16
    3  A    between atoms: C_8  and  C_12
    4  A    between atoms: C_8  and  C_13
    5  A    between atoms: C_13  and  S_27
    6  A    between atoms: C_16  and  C_30
    7  A    between atoms: S_27  and  C_30
                            x       y       z     vdW  Elec       q    Type
                         _______ _______ _______ _____ _____    ______ ____

>  <TORSDO>
F 7

$$$$
=
 OpenBabel10262421573D

 30 33  0  0  1  0  0  0  0  0999 V2000
  189.2090  177.6190  140.3210 N   0  0  0  0  0  0  0  0  0  0  0  0
  190.2060  177.0380  138.2100 C   0  0  0  0  0  0  0  0  0  0  0  0
  185.3870  178.3920  138.6440 C   0  0  0  0  0  2  0  0  0  0  0  0
  188.1470  178.0620  141.1730 C   0  0  0  0  0  0  0  0  0  0  0  0
  184.5440  179.3820  139.4320 C   0  0  0  0  0  2  0  0  0  0  0  0
  190.1270  177.2150  136.8880 C   0  0  0  0  0  3  0  0  0  0  0  0
  191.3650  176.6070  138.7670 F   0  0  0  0  0  0  0  0  0  0  0  0
  186.7340  178.2390  139.2100 N   0  0  0  0  0  0  0  0  0  0  0  0
  188.8990  177.7580  136.2680 C   0  0  0  0  0  3  0  0  0  0  0  0
  189.0540  177.3910  139.0550 C   0  0  0  0  0  0  0  0  0  0  0  0
  186.9490  178.3970  140.6360 C   0  0  0  0  0  0  0  0  0  0  0  0
  184.5050  178.9360  140.8800 C   0  0  0  0  0  2  0  0  0  0  0  0
  185.8940  179.0670  141.4820 C   0  0  0  0  0  2  0  0  0  0  0  0
  187.7780  177.9220  136.9820 C   0  0  0  0  0  3  0  0  0  0  0  0
  187.6900  177.4550  138.4160 C   0  0  2  0  0  3  0  0  0  0  0  0
  188.4840  178.2270  142.6320 C   0  0  1  0  0  3  0  0  0  0  0  0
  187.7080  176.0160  143.1480 O   0  0  0  0  0  0  0  0  0  0  0  0
  187.8040  177.2170  143.5150 C   0  0  0  0  0  0  0  0  0  0  0  0
  188.0080  177.6050  146.2790 S   0  0  0  0  0  0  0  0  0  0  0  0
  185.9340  178.1080  144.9930 C   0  0  0  0  0  3  0  0  0  0  0  0
  187.2220  177.6320  144.7980 C   0  0  0  0  0  0  0  0  0  0  0  0
  186.7320  178.1960  147.2020 C   0  0  0  0  0  3  0  0  0  0  0  0
  185.6660  178.4210  146.3340 C   0  0  0  0  0  3  0  0  0  0  0  0
  190.2740  178.3950  142.9460 S   0  0  0  0  0  0  0  0  0  0  0  0
  190.4620  176.6240  143.3090 C   0  0  0  0  0  2  0  0  0  0  0  0
  191.7220  176.3860  144.1170 C   0  0  0  0  0  2  0  0  0  0  0  0
  191.5560  176.9120  145.4640 N   0  0  0  0  0  2  0  0  0  0  0  0
  192.3780  174.9900  146.5060 O   0  0  0  0  0  0  0  0  0  0  0  0
  191.9080  176.1530  146.6200 C   0  0  0  0  0  0  0  0  0  0  0  0
  191.7170  176.7420  147.9710 C   0  0  0  0  0  1  0  0  0  0  0  0
  1  4  1  0  0  0  0
  2  7  1  0  0  0  0
  2 10  1  0  0  0  0
  3  8  1  0  0  0  0
  3  5  1  0  0  0  0
  4 16  1  0  0  0  0
  5 12  1  0  0  0  0
  6  2  2  0  0  0  0
  8 11  1  0  0  0  0
  9  6  1  0  0  0  0
  9 14  2  0  0  0  0
 10  1  2  0  0  0  0
 11  4  2  0  0  0  0
 11 13  1  0  0  0  0
 12 13  1  0  0  0  0
 15 14  1  6  0  0  0
 15 10  1  0  0  0  0
 15  8  1  0  0  0  0
 16 24  1  6  0  0  0
 16 18  1  0  0  0  0
 17 18  2  0  0  0  0
 18 21  1  0  0  0  0
 19 22  1  0  0  0  0
 20 23  1  0  0  0  0
 21 20  2  0  0  0  0
 21 19  1  0  0  0  0
 23 22  2  0  0  0  0
 24 25  1  0  0  0  0
 25 26  1  0  0  0  0
 26 27  1  0  0  0  0
 27 29  1  0  0  0  0
 28 29  2  0  0  0  0
 29 30  1  0  0  0  0
M  END
>  <MODEL>
2

>  <REMARK>
 VINA RESULT:      -8.0      2.505      6.099
  Name = 
  7 active torsions:
  status: ('A' for Active; 'I' for Inactive)
    1  A    between atoms: C_4  and  C_13
    2  A    between atoms: N_7  and  C_16
    3  A    between atoms: C_8  and  C_12
    4  A    between atoms: C_8  and  C_13
    5  A    between atoms: C_13  and  S_27
    6  A    between atoms: C_16  and  C_30
    7  A    between atoms: S_27  and  C_30
                            x       y       z     vdW  Elec       q    Type
                         _______ _______ _______ _____ _____    ______ ____

>  <TORSDO>
F 7

$$$$
=
 OpenBabel10262421573D

 30 33  0  0  1  0  0  0  0  0999 V2000
  187.0380  178.5720  139.3570 N   0  0  0  0  0  0  0  0  0  0  0  0
  188.2420  178.2320  137.3030 C   0  0  0  0  0  0  0  0  0  0  0  0
  190.2050  177.1490  141.7990 C   0  0  0  0  0  2  0  0  0  0  0  0
  186.8580  178.5150  140.7770 C   0  0  0  0  0  0  0  0  0  0  0  0
  189.7590  176.5690  143.1320 C   0  0  0  0  0  2  0  0  0  0  0  0
  189.2120  177.5230  136.7190 C   0  0  0  0  0  3  0  0  0  0  0  0
  187.3130  178.8620  136.5420 F   0  0  0  0  0  0  0  0  0  0  0  0
  189.0670  177.5310  140.9530 N   0  0  0  0  0  0  0  0  0  0  0  0
  190.1890  176.7630  137.5290 C   0  0  0  0  0  3  0  0  0  0  0  0
  188.1490  178.2540  138.7720 C   0  0  0  0  0  0  0  0  0  0  0  0
  187.8260  177.9800  141.5580 C   0  0  0  0  0  0  0  0  0  0  0  0
  188.8550  177.5750  143.8160 C   0  0  0  0  0  2  0  0  0  0  0  0
  187.5680  177.7140  143.0200 C   0  0  0  0  0  2  0  0  0  0  0  0
  190.2410  176.9030  138.8600 C   0  0  0  0  0  3  0  0  0  0  0  0
  189.3820  177.9220  139.5730 C   0  0  2  0  0  3  0  0  0  0  0  0
  185.5210  178.9730  141.3000 C   0  0  1  0  0  3  0  0  0  0  0  0
  184.6090  180.1460  139.4160 O   0  0  0  0  0  0  0  0  0  0  0  0
  184.4990  179.1780  140.2160 C   0  0  0  0  0  0  0  0  0  0  0  0
  181.8040  178.5760  140.6690 S   0  0  0  0  0  0  0  0  0  0  0  0
  183.3610  177.0140  139.5100 C   0  0  0  0  0  3  0  0  0  0  0  0
  183.3510  178.2690  140.1010 C   0  0  0  0  0  0  0  0  0  0  0  0
  181.1110  177.1240  140.1790 C   0  0  0  0  0  3  0  0  0  0  0  0
  182.1110  176.3810  139.5560 C   0  0  0  0  0  3  0  0  0  0  0  0
  184.9150  177.9800  142.7060 S   0  0  0  0  0  0  0  0  0  0  0  0
  184.3210  179.4500  143.5950 C   0  0  0  0  0  2  0  0  0  0  0  0
  184.1430  179.1360  145.0670 C   0  0  0  0  0  2  0  0  0  0  0  0
  185.2560  178.3270  145.5410 N   0  0  0  0  0  2  0  0  0  0  0  0
  185.7470  179.7360  147.3380 O   0  0  0  0  0  0  0  0  0  0  0  0
  186.0180  178.6890  146.6910 C   0  0  0  0  0  0  0  0  0  0  0  0
  187.1430  177.8240  147.1290 C   0  0  0  0  0  1  0  0  0  0  0  0
  1  4  1  0  0  0  0
  2 10  1  0  0  0  0
  3  5  1  0  0  0  0
  4 16  1  0  0  0  0
  4 11  2  0  0  0  0
  5 12  1  0  0  0  0
  6  2  2  0  0  0  0
  6  9  1  0  0  0  0
  7  2  1  0  0  0  0
  8 11  1  0  0  0  0
  8  3  1  0  0  0  0
  9 14  2  0  0  0  0
 10  1  2  0  0  0  0
 10 15  1  0  0  0  0
 11 13  1  0  0  0  0
 13 12  1  0  0  0  0
 15 14  1  6  0  0  0
 15  8  1  0  0  0  0
 16 18  1  6  0  0  0
 16 24  1  0  0  0  0
 17 18  2  0  0  0  0
 20 23  1  0  0  0  0
 20 21  2  0  0  0  0
 21 18  1  0  0  0  0
 21 19  1  0  0  0  0
 22 19  1  0  0  0  0
 23 22  2  0  0  0  0
 24 25  1  0  0  0  0
 25 26  1  0  0  0  0
 26 27  1  0  0  0  0
 27 29  1  0  0  0  0
 29 30  1  0  0  0  0
 29 28  2  0  0  0  0
M  END
>  <MODEL>
3

>  <REMARK>
 VINA RESULT:      -7.7      3.443      6.768
  Name = 
  7 active torsions:
  status: ('A' for Active; 'I' for Inactive)
    1  A    between atoms: C_4  and  C_13
    2  A    between atoms: N_7  and  C_16
    3  A    between atoms: C_8  and  C_12
    4  A    between atoms: C_8  and  C_13
    5  A    between atoms: C_13  and  S_27
    6  A    between atoms: C_16  and  C_30
    7  A    between atoms: S_27  and  C_30
                            x       y       z     vdW  Elec       q    Type
                         _______ _______ _______ _____ _____    ______ ____

>  <TORSDO>
F 7

$$$$
=
 OpenBabel10262421573D

 30 33  0  0  1  0  0  0  0  0999 V2000
  189.0370  177.2890  144.0910 N   0  0  0  0  0  0  0  0  0  0  0  0
  189.8360  177.1970  146.3580 C   0  0  0  0  0  0  0  0  0  0  0  0
  185.2250  178.8060  145.1780 C   0  0  0  0  0  2  0  0  0  0  0  0
  188.0600  177.5270  143.0710 C   0  0  0  0  0  0  0  0  0  0  0  0
  184.1120  178.4690  144.1990 C   0  0  0  0  0  2  0  0  0  0  0  0
  189.4620  177.0920  147.6370 C   0  0  0  0  0  3  0  0  0  0  0  0
  191.1090  176.8990  145.9990 F   0  0  0  0  0  0  0  0  0  0  0  0
  186.4970  178.1730  144.8090 N   0  0  0  0  0  0  0  0  0  0  0  0
  188.0590  177.3360  148.0390 C   0  0  0  0  0  3  0  0  0  0  0  0
  188.8350  177.5600  145.3420 C   0  0  0  0  0  0  0  0  0  0  0  0
  186.8120  177.9260  143.4140 C   0  0  0  0  0  0  0  0  0  0  0  0
  184.5600  178.8640  142.8070 C   0  0  0  0  0  2  0  0  0  0  0  0
  185.7140  177.9720  142.3800 C   0  0  0  0  0  2  0  0  0  0  0  0
  187.1680  177.8370  147.1730 C   0  0  0  0  0  3  0  0  0  0  0  0
  187.5860  178.2770  145.7890 C   0  0  2  0  0  3  0  0  0  0  0  0
  188.4760  177.2060  141.6590 C   0  0  1  0  0  3  0  0  0  0  0  0
  188.4600  179.5690  141.2470 O   0  0  0  0  0  0  0  0  0  0  0  0
  188.4900  178.4080  140.7570 C   0  0  0  0  0  0  0  0  0  0  0  0
  187.7830  176.9850  138.4530 S   0  0  0  0  0  0  0  0  0  0  0  0
  189.1360  179.0770  138.3880 C   0  0  0  0  0  3  0  0  0  0  0  0
  188.5110  178.2370  139.2980 C   0  0  0  0  0  0  0  0  0  0  0  0
  188.2440  177.4790  136.9130 C   0  0  0  0  0  3  0  0  0  0  0  0
  188.9840  178.6500  137.0610 C   0  0  0  0  0  3  0  0  0  0  0  0
  189.9910  176.1930  141.5640 S   0  0  0  0  0  0  0  0  0  0  0  0
  191.0670  177.6580  141.5280 C   0  0  0  0  0  2  0  0  0  0  0  0
  192.1310  177.5010  140.4590 C   0  0  0  0  0  2  0  0  0  0  0  0
  191.5910  176.7650  139.3260 N   0  0  0  0  0  2  0  0  0  0  0  0
  193.5720  176.8620  138.0930 O   0  0  0  0  0  0  0  0  0  0  0  0
  192.3740  176.4800  138.1680 C   0  0  0  0  0  0  0  0  0  0  0  0
  191.7700  175.7240  137.0400 C   0  0  0  0  0  1  0  0  0  0  0  0
  1 10  2  0  0  0  0
  2  6  2  0  0  0  0
  4 11  2  0  0  0  0
  4  1  1  0  0  0  0
  5  3  1  0  0  0  0
  6  9  1  0  0  0  0
  7  2  1  0  0  0  0
  8  3  1  0  0  0  0
  8 15  1  0  0  0  0
 10 15  1  0  0  0  0
 10  2  1  0  0  0  0
 11  8  1  0  0  0  0
 12  5  1  0  0  0  0
 13 12  1  0  0  0  0
 13 11  1  0  0  0  0
 14  9  2  0  0  0  0
 15 14  1  1  0  0  0
 16 18  1  6  0  0  0
 16  4  1  0  0  0  0
 18 17  2  0  0  0  0
 19 21  1  0  0  0  0
 20 21  2  0  0  0  0
 21 18  1  0  0  0  0
 22 23  2  0  0  0  0
 22 19  1  0  0  0  0
 23 20  1  0  0  0  0
 24 16  1  0  0  0  0
 25 24  1  0  0  0  0
 26 25  1  0  0  0  0
 27 26  1  0  0  0  0
 28 29  2  0  0  0  0
 29 27  1  0  0  0  0
 30 29  1  0  0  0  0
M  END
>  <MODEL>
4

>  <REMARK>
 VINA RESULT:      -7.6      2.830      5.103
  Name = 
  7 active torsions:
  status: ('A' for Active; 'I' for Inactive)
    1  A    between atoms: C_4  and  C_13
    2  A    between atoms: N_7  and  C_16
    3  A    between atoms: C_8  and  C_12
    4  A    between atoms: C_8  and  C_13
    5  A    between atoms: C_13  and  S_27
    6  A    between atoms: C_16  and  C_30
    7  A    between atoms: S_27  and  C_30
                            x       y       z     vdW  Elec       q    Type
                         _______ _______ _______ _____ _____    ______ ____

>  <TORSDO>
F 7

$$$$
=
 OpenBabel10262421573D

 30 33  0  0  1  0  0  0  0  0999 V2000
  186.3680  178.3720  141.1070 N   0  0  0  0  0  0  0  0  0  0  0  0
  184.9440  178.5830  139.1790 C   0  0  0  0  0  0  0  0  0  0  0  0
  183.1490  178.4960  143.8710 C   0  0  0  0  0  2  0  0  0  0  0  0
  186.6460  178.3110  142.5110 C   0  0  0  0  0  0  0  0  0  0  0  0
  183.5240  179.0190  145.2490 C   0  0  0  0  0  2  0  0  0  0  0  0
  183.7650  179.0390  138.7460 C   0  0  0  0  0  3  0  0  0  0  0  0
  185.9460  178.3500  138.2950 F   0  0  0  0  0  0  0  0  0  0  0  0
  184.2720  178.5700  142.9270 N   0  0  0  0  0  0  0  0  0  0  0  0
  182.6850  179.3740  139.7010 C   0  0  0  0  0  3  0  0  0  0  0  0
  185.1660  178.4160  140.6250 C   0  0  0  0  0  0  0  0  0  0  0  0
  185.6360  178.4390  143.4040 C   0  0  0  0  0  0  0  0  0  0  0  0
  184.7330  178.2510  145.7420 C   0  0  0  0  0  2  0  0  0  0  0  0
  185.9320  178.5940  144.8750 C   0  0  0  0  0  2  0  0  0  0  0  0
  182.7910  179.0680  141.0000 C   0  0  0  0  0  3  0  0  0  0  0  0
  183.9630  178.2710  141.5230 C   0  0  2  0  0  3  0  0  0  0  0  0
  188.0980  178.2090  142.9000 C   0  0  1  0  0  3  0  0  0  0  0  0
  187.9200  175.8390  143.2260 O   0  0  0  0  0  0  0  0  0  0  0  0
  188.4340  176.9250  143.6070 C   0  0  0  0  0  0  0  0  0  0  0  0
  191.0010  176.7010  144.7000 S   0  0  0  0  0  0  0  0  0  0  0  0
  188.9740  177.1290  146.0850 C   0  0  0  0  0  3  0  0  0  0  0  0
  189.3410  176.9330  144.7620 C   0  0  0  0  0  0  0  0  0  0  0  0
  191.2920  176.8440  146.3500 C   0  0  0  0  0  3  0  0  0  0  0  0
  190.0650  177.0780  146.9650 C   0  0  0  0  0  3  0  0  0  0  0  0
  189.2420  178.6260  141.5420 S   0  0  0  0  0  0  0  0  0  0  0  0
  189.6870  176.8850  141.2700 C   0  0  0  0  0  2  0  0  0  0  0  0
  190.4350  176.7330  139.9600 C   0  0  0  0  0  2  0  0  0  0  0  0
  190.1720  177.8790  139.1020 N   0  0  0  0  0  2  0  0  0  0  0  0
  188.6870  176.7240  137.7170 O   0  0  0  0  0  0  0  0  0  0  0  0
  189.2800  177.8010  137.9910 C   0  0  0  0  0  0  0  0  0  0  0  0
  189.0480  179.0030  137.1490 C   0  0  0  0  0  1  0  0  0  0  0  0
  1  4  1  0  0  0  0
  2 10  1  0  0  0  0
  3  5  1  0  0  0  0
  4 16  1  0  0  0  0
  4 11  2  0  0  0  0
  5 12  1  0  0  0  0
  6  2  2  0  0  0  0
  6  9  1  0  0  0  0
  7  2  1  0  0  0  0
  8 11  1  0  0  0  0
  8  3  1  0  0  0  0
  9 14  2  0  0  0  0
 10  1  2  0  0  0  0
 10 15  1  0  0  0  0
 11 13  1  0  0  0  0
 13 12  1  0  0  0  0
 15 14  1  6  0  0  0
 15  8  1  0  0  0  0
 16 24  1  6  0  0  0
 16 18  1  0  0  0  0
 17 18  2  0  0  0  0
 18 21  1  0  0  0  0
 19 21  1  0  0  0  0
 19 22  1  0  0  0  0
 20 23  1  0  0  0  0
 21 20  2  0  0  0  0
 22 23  2  0  0  0  0
 25 24  1  0  0  0  0
 26 25  1  0  0  0  0
 27 26  1  0  0  0  0
 28 29  2  0  0  0  0
 29 27  1  0  0  0  0
 30 29  1  0  0  0  0
M  END
>  <MODEL>
5

>  <REMARK>
 VINA RESULT:      -7.5      2.451      5.416
  Name = 
  7 active torsions:
  status: ('A' for Active; 'I' for Inactive)
    1  A    between atoms: C_4  and  C_13
    2  A    between atoms: N_7  and  C_16
    3  A    between atoms: C_8  and  C_12
    4  A    between atoms: C_8  and  C_13
    5  A    between atoms: C_13  and  S_27
    6  A    between atoms: C_16  and  C_30
    7  A    between atoms: S_27  and  C_30
                            x       y       z     vdW  Elec       q    Type
                         _______ _______ _______ _____ _____    ______ ____

>  <TORSDO>
F 7

$$$$
=
 OpenBabel10262421573D

 30 33  0  0  1  0  0  0  0  0999 V2000
  187.1630  178.2390  140.8220 N   0  0  0  0  0  0  0  0  0  0  0  0
  185.2260  178.6970  139.4720 C   0  0  0  0  0  0  0  0  0  0  0  0
  189.5460  177.0290  137.5250 C   0  0  0  0  0  2  0  0  0  0  0  0
  188.5060  177.7960  141.0520 C   0  0  0  0  0  0  0  0  0  0  0  0
  190.6590  176.0540  137.8770 C   0  0  0  0  0  2  0  0  0  0  0  0
  184.6040  178.3950  138.3280 C   0  0  0  0  0  3  0  0  0  0  0  0
  184.5310  179.2640  140.4900 F   0  0  0  0  0  0  0  0  0  0  0  0
  188.6920  177.3340  138.6790 N   0  0  0  0  0  0  0  0  0  0  0  0
  185.3230  177.7060  137.2340 C   0  0  0  0  0  3  0  0  0  0  0  0
  186.6430  178.3370  139.6400 C   0  0  0  0  0  0  0  0  0  0  0  0
  189.2460  177.3240  140.0200 C   0  0  0  0  0  0  0  0  0  0  0  0
  191.4510  176.6270  139.0350 C   0  0  0  0  0  2  0  0  0  0  0  0
  190.5740  176.6560  140.2760 C   0  0  0  0  0  2  0  0  0  0  0  0
  186.6490  177.5240  137.2850 C   0  0  0  0  0  3  0  0  0  0  0  0
  187.4760  178.1120  138.4030 C   0  0  2  0  0  3  0  0  0  0  0  0
  188.9720  177.7920  142.4850 C   0  0  1  0  0  3  0  0  0  0  0  0
  188.1990  175.6580  143.2620 O   0  0  0  0  0  0  0  0  0  0  0  0
  188.1400  176.9120  143.3770 C   0  0  0  0  0  0  0  0  0  0  0  0
  185.7400  178.1940  144.0330 S   0  0  0  0  0  0  0  0  0  0  0  0
  187.4680  177.6070  145.7310 C   0  0  0  0  0  3  0  0  0  0  0  0
  187.2350  177.5090  144.3670 C   0  0  0  0  0  0  0  0  0  0  0  0
  185.3550  178.6300  145.6110 C   0  0  0  0  0  3  0  0  0  0  0  0
  186.4180  178.2320  146.4190 C   0  0  0  0  0  3  0  0  0  0  0  0
  190.7700  177.5330  142.6610 S   0  0  0  0  0  0  0  0  0  0  0  0
  190.9620  178.9980  143.7190 C   0  0  0  0  0  2  0  0  0  0  0  0
  190.7610  178.6240  145.1740 C   0  0  0  0  0  2  0  0  0  0  0  0
  191.6020  177.4870  145.5160 N   0  0  0  0  0  2  0  0  0  0  0  0
  190.4780  177.0280  147.5110 O   0  0  0  0  0  0  0  0  0  0  0  0
  191.4020  176.7300  146.7080 C   0  0  0  0  0  0  0  0  0  0  0  0
  192.2920  175.5780  147.0050 C   0  0  0  0  0  1  0  0  0  0  0  0
  1  4  1  0  0  0  0
  2 10  1  0  0  0  0
  2  7  1  0  0  0  0
  3  5  1  0  0  0  0
  3  8  1  0  0  0  0
  4 16  1  0  0  0  0
  5 12  1  0  0  0  0
  6  2  2  0  0  0  0
  8 11  1  0  0  0  0
  9 14  2  0  0  0  0
  9  6  1  0  0  0  0
 10  1  2  0  0  0  0
 11 13  1  0  0  0  0
 11  4  2  0  0  0  0
 12 13  1  0  0  0  0
 15 14  1  6  0  0  0
 15  8  1  0  0  0  0
 15 10  1  0  0  0  0
 16 24  1  6  0  0  0
 16 18  1  0  0  0  0
 17 18  2  0  0  0  0
 18 21  1  0  0  0  0
 19 21  1  0  0  0  0
 19 22  1  0  0  0  0
 20 23  1  0  0  0  0
 21 20  2  0  0  0  0
 22 23  2  0  0  0  0
 24 25  1  0  0  0  0
 25 26  1  0  0  0  0
 26 27  1  0  0  0  0
 27 29  1  0  0  0  0
 29 30  1  0  0  0  0
 29 28  2  0  0  0  0
M  END
>  <MODEL>
6

>  <REMARK>
 VINA RESULT:      -7.4      2.382      5.690
  Name = 
  7 active torsions:
  status: ('A' for Active; 'I' for Inactive)
    1  A    between atoms: C_4  and  C_13
    2  A    between atoms: N_7  and  C_16
    3  A    between atoms: C_8  and  C_12
    4  A    between atoms: C_8  and  C_13
    5  A    between atoms: C_13  and  S_27
    6  A    between atoms: C_16  and  C_30
    7  A    between atoms: S_27  and  C_30
                            x       y       z     vdW  Elec       q    Type
                         _______ _______ _______ _____ _____    ______ ____

>  <TORSDO>
F 7

$$$$
=
 OpenBabel10262421573D

 30 33  0  0  1  0  0  0  0  0999 V2000
  185.1620  178.4880  140.8840 N   0  0  0  0  0  0  0  0  0  0  0  0
  187.2580  178.1440  142.0140 C   0  0  0  0  0  0  0  0  0  0  0  0
  182.9480  178.9090  144.4800 C   0  0  0  0  0  2  0  0  0  0  0  0
  183.7460  178.6970  140.8160 C   0  0  0  0  0  0  0  0  0  0  0  0
  181.4800  178.5300  144.3630 C   0  0  0  0  0  2  0  0  0  0  0  0
  187.8210  177.7210  143.1490 C   0  0  0  0  0  3  0  0  0  0  0  0
  187.9920  178.2030  140.8750 F   0  0  0  0  0  0  0  0  0  0  0  0
  183.6880  178.6480  143.2390 N   0  0  0  0  0  0  0  0  0  0  0  0
  187.0210  177.5750  144.3840 C   0  0  0  0  0  3  0  0  0  0  0  0
  185.8220  178.4670  141.9990 C   0  0  0  0  0  0  0  0  0  0  0  0
  183.0170  178.7440  141.9560 C   0  0  0  0  0  0  0  0  0  0  0  0
  180.8860  179.2690  143.1810 C   0  0  0  0  0  2  0  0  0  0  0  0
  181.5100  178.7460  141.8980 C   0  0  0  0  0  2  0  0  0  0  0  0
  185.7610  178.0250  144.4500 C   0  0  0  0  0  3  0  0  0  0  0  0
  185.1470  178.7980  143.3060 C   0  0  2  0  0  3  0  0  0  0  0  0
  183.1440  178.7460  139.4350 C   0  0  1  0  0  3  0  0  0  0  0  0
  184.1040  180.8470  138.7860 O   0  0  0  0  0  0  0  0  0  0  0  0
  183.0650  180.1390  138.8720 C   0  0  0  0  0  0  0  0  0  0  0  0
  180.3720  179.8060  138.1900 S   0  0  0  0  0  0  0  0  0  0  0  0
  181.5040  182.0260  138.1850 C   0  0  0  0  0  3  0  0  0  0  0  0
  181.7730  180.6910  138.4460 C   0  0  0  0  0  0  0  0  0  0  0  0
  179.3910  181.0970  137.7410 C   0  0  0  0  0  3  0  0  0  0  0  0
  180.1750  182.2470  137.7920 C   0  0  0  0  0  3  0  0  0  0  0  0
  183.8650  177.5250  138.2870 S   0  0  0  0  0  0  0  0  0  0  0  0
  182.9870  176.1420  139.0740 C   0  0  0  0  0  2  0  0  0  0  0  0
  181.5080  176.2080  138.7510 C   0  0  0  0  0  2  0  0  0  0  0  0
  180.7260  175.8450  139.9230 N   0  0  0  0  0  2  0  0  0  0  0  0
  179.9400  173.8490  138.9990 O   0  0  0  0  0  0  0  0  0  0  0  0
  179.9620  174.6410  139.9780 C   0  0  0  0  0  0  0  0  0  0  0  0
  179.1830  174.3210  141.2020 C   0  0  0  0  0  1  0  0  0  0  0  0
  1 10  2  0  0  0  0
  2  6  2  0  0  0  0
  4  1  1  0  0  0  0
  4 11  2  0  0  0  0
  5  3  1  0  0  0  0
  6  9  1  0  0  0  0
  7  2  1  0  0  0  0
  8 15  1  0  0  0  0
  8  3  1  0  0  0  0
  9 14  2  0  0  0  0
 10  2  1  0  0  0  0
 10 15  1  0  0  0  0
 11  8  1  0  0  0  0
 12  5  1  0  0  0  0
 13 11  1  0  0  0  0
 13 12  1  0  0  0  0
 15 14  1  1  0  0  0
 16 24  1  6  0  0  0
 16  4  1  0  0  0  0
 17 18  2  0  0  0  0
 18 16  1  0  0  0  0
 19 21  1  0  0  0  0
 20 21  2  0  0  0  0
 21 18  1  0  0  0  0
 22 23  2  0  0  0  0
 22 19  1  0  0  0  0
 23 20  1  0  0  0  0
 24 25  1  0  0  0  0
 26 25  1  0  0  0  0
 26 27  1  0  0  0  0
 27 29  1  0  0  0  0
 28 29  2  0  0  0  0
 29 30  1  0  0  0  0
M  END
>  <MODEL>
7

>  <REMARK>
 VINA RESULT:      -7.3      4.982      8.656
  Name = 
  7 active torsions:
  status: ('A' for Active; 'I' for Inactive)
    1  A    between atoms: C_4  and  C_13
    2  A    between atoms: N_7  and  C_16
    3  A    between atoms: C_8  and  C_12
    4  A    between atoms: C_8  and  C_13
    5  A    between atoms: C_13  and  S_27
    6  A    between atoms: C_16  and  C_30
    7  A    between atoms: S_27  and  C_30
                            x       y       z     vdW  Elec       q    Type
                         _______ _______ _______ _____ _____    ______ ____

>  <TORSDO>
F 7

$$$$
=
 OpenBabel10262421573D

 30 33  0  0  1  0  0  0  0  0999 V2000
  186.8200  177.9390  142.1320 N   0  0  0  0  0  0  0  0  0  0  0  0
  185.1130  178.7770  140.6590 C   0  0  0  0  0  0  0  0  0  0  0  0
  189.7550  177.6880  139.0760 C   0  0  0  0  0  2  0  0  0  0  0  0
  188.1240  177.4370  142.4510 C   0  0  0  0  0  0  0  0  0  0  0  0
  190.8320  176.6440  139.3230 C   0  0  0  0  0  2  0  0  0  0  0  0
  184.6990  178.8160  139.3890 C   0  0  0  0  0  3  0  0  0  0  0  0
  184.2400  179.0390  141.6640 F   0  0  0  0  0  0  0  0  0  0  0  0
  188.7120  177.6630  140.1100 N   0  0  0  0  0  0  0  0  0  0  0  0
  185.6130  178.4570  138.2830 C   0  0  0  0  0  3  0  0  0  0  0  0
  186.4970  178.3710  140.9550 C   0  0  0  0  0  0  0  0  0  0  0  0
  189.0400  177.2690  141.4680 C   0  0  0  0  0  0  0  0  0  0  0  0
  191.4020  176.8590  140.7110 C   0  0  0  0  0  2  0  0  0  0  0  0
  190.3330  176.5450  141.7450 C   0  0  0  0  0  2  0  0  0  0  0  0
  186.9190  178.2570  138.5020 C   0  0  0  0  0  3  0  0  0  0  0  0
  187.5290  178.4970  139.8630 C   0  0  2  0  0  3  0  0  0  0  0  0
  188.3490  177.0240  143.8820 C   0  0  1  0  0  3  0  0  0  0  0  0
  189.6620  179.0000  144.2460 O   0  0  0  0  0  0  0  0  0  0  0  0
  189.4500  177.7960  144.5560 C   0  0  0  0  0  0  0  0  0  0  0  0
  189.9700  177.0340  147.1980 S   0  0  0  0  0  0  0  0  0  0  0  0
  191.5170  176.5210  145.3130 C   0  0  0  0  0  3  0  0  0  0  0  0
  190.3030  177.1440  145.5580 C   0  0  0  0  0  0  0  0  0  0  0  0
  191.3590  176.1920  147.6360 C   0  0  0  0  0  3  0  0  0  0  0  0
  192.1010  175.9920  146.4740 C   0  0  0  0  0  3  0  0  0  0  0  0
  186.8100  176.9290  144.8580 S   0  0  0  0  0  0  0  0  0  0  0  0
  187.0020  178.6250  145.4830 C   0  0  0  0  0  2  0  0  0  0  0  0
  185.9250  178.9330  146.5030 C   0  0  0  0  0  2  0  0  0  0  0  0
  184.6240  178.5300  145.9900 N   0  0  0  0  0  2  0  0  0  0  0  0
  184.5470  180.2070  144.3670 O   0  0  0  0  0  0  0  0  0  0  0  0
  183.9910  179.2170  144.9120 C   0  0  0  0  0  0  0  0  0  0  0  0
  182.6630  178.7600  144.4280 C   0  0  0  0  0  1  0  0  0  0  0  0
  1  4  1  0  0  0  0
  2 10  1  0  0  0  0
  2  7  1  0  0  0  0
  3  5  1  0  0  0  0
  3  8  1  0  0  0  0
  4 16  1  0  0  0  0
  5 12  1  0  0  0  0
  6  2  2  0  0  0  0
  8 11  1  0  0  0  0
  9 14  2  0  0  0  0
  9  6  1  0  0  0  0
 10  1  2  0  0  0  0
 11 13  1  0  0  0  0
 11  4  2  0  0  0  0
 12 13  1  0  0  0  0
 15 14  1  6  0  0  0
 15  8  1  0  0  0  0
 15 10  1  0  0  0  0
 16 18  1  1  0  0  0
 16 24  1  0  0  0  0
 17 18  2  0  0  0  0
 18 21  1  0  0  0  0
 19 22  1  0  0  0  0
 20 21  2  0  0  0  0
 20 23  1  0  0  0  0
 21 19  1  0  0  0  0
 23 22  2  0  0  0  0
 24 25  1  0  0  0  0
 25 26  1  0  0  0  0
 27 26  1  0  0  0  0
 28 29  2  0  0  0  0
 29 27  1  0  0  0  0
 30 29  1  0  0  0  0
M  END
>  <MODEL>
8

>  <REMARK>
 VINA RESULT:      -7.2      2.527      6.363
  Name = 
  7 active torsions:
  status: ('A' for Active; 'I' for Inactive)
    1  A    between atoms: C_4  and  C_13
    2  A    between atoms: N_7  and  C_16
    3  A    between atoms: C_8  and  C_12
    4  A    between atoms: C_8  and  C_13
    5  A    between atoms: C_13  and  S_27
    6  A    between atoms: C_16  and  C_30
    7  A    between atoms: S_27  and  C_30
                            x       y       z     vdW  Elec       q    Type
                         _______ _______ _______ _____ _____    ______ ____

>  <TORSDO>
F 7

$$$$
=
 OpenBabel10262421573D

 30 33  0  0  1  0  0  0  0  0999 V2000
  187.5090  177.7230  141.7810 N   0  0  0  0  0  0  0  0  0  0  0  0
  185.4450  178.2750  142.8870 C   0  0  0  0  0  0  0  0  0  0  0  0
  189.5810  176.9200  145.3970 C   0  0  0  0  0  2  0  0  0  0  0  0
  188.8910  177.3500  141.7290 C   0  0  0  0  0  0  0  0  0  0  0  0
  191.0850  177.1250  145.3180 C   0  0  0  0  0  2  0  0  0  0  0  0
  184.9120  178.7250  144.0270 C   0  0  0  0  0  3  0  0  0  0  0  0
  184.7340  178.3430  141.7340 F   0  0  0  0  0  0  0  0  0  0  0  0
  188.9040  177.3090  144.1530 N   0  0  0  0  0  0  0  0  0  0  0  0
  185.6980  178.7320  145.2800 C   0  0  0  0  0  3  0  0  0  0  0  0
  186.8330  177.7840  142.8840 C   0  0  0  0  0  0  0  0  0  0  0  0
  189.5850  177.1770  142.8790 C   0  0  0  0  0  0  0  0  0  0  0  0
  191.6130  176.3610  144.1210 C   0  0  0  0  0  2  0  0  0  0  0  0
  191.0830  176.9980  142.8470 C   0  0  0  0  0  2  0  0  0  0  0  0
  186.8930  178.1330  145.3510 C   0  0  0  0  0  3  0  0  0  0  0  0
  187.4350  177.3320  144.1900 C   0  0  2  0  0  3  0  0  0  0  0  0
  189.5120  177.2760  140.3590 C   0  0  1  0  0  3  0  0  0  0  0  0
  189.0550  179.3610  139.2640 O   0  0  0  0  0  0  0  0  0  0  0  0
  188.8060  178.1280  139.3400 C   0  0  0  0  0  0  0  0  0  0  0  0
  187.9940  176.1180  137.5700 S   0  0  0  0  0  0  0  0  0  0  0  0
  186.5400  178.0460  138.1860 C   0  0  0  0  0  3  0  0  0  0  0  0
  187.8020  177.5340  138.4490 C   0  0  0  0  0  0  0  0  0  0  0  0
  186.4800  176.1230  136.8370 C   0  0  0  0  0  3  0  0  0  0  0  0
  185.8080  177.2560  137.2880 C   0  0  0  0  0  3  0  0  0  0  0  0
  191.3240  177.4910  140.3730 S   0  0  0  0  0  0  0  0  0  0  0  0
  191.5090  176.7480  138.7240 C   0  0  0  0  0  2  0  0  0  0  0  0
  192.9770  176.5820  138.3860 C   0  0  0  0  0  2  0  0  0  0  0  0
  193.2180  175.2460  137.8600 N   0  0  0  0  0  2  0  0  0  0  0  0
  195.4550  175.1930  138.5300 O   0  0  0  0  0  0  0  0  0  0  0  0
  194.4900  174.6090  137.9690 C   0  0  0  0  0  0  0  0  0  0  0  0
  194.6770  173.2440  137.4140 C   0  0  0  0  0  1  0  0  0  0  0  0
  1 10  2  0  0  0  0
  2  6  2  0  0  0  0
  4  1  1  0  0  0  0
  4 11  2  0  0  0  0
  5  3  1  0  0  0  0
  6  9  1  0  0  0  0
  7  2  1  0  0  0  0
  8 15  1  0  0  0  0
  8  3  1  0  0  0  0
  9 14  2  0  0  0  0
 10  2  1  0  0  0  0
 10 15  1  0  0  0  0
 11  8  1  0  0  0  0
 12  5  1  0  0  0  0
 13 11  1  0  0  0  0
 13 12  1  0  0  0  0
 15 14  1  1  0  0  0
 16 18  1  6  0  0  0
 16 24  1  0  0  0  0
 16  4  1  0  0  0  0
 17 18  2  0  0  0  0
 19 21  1  0  0  0  0
 20 21  2  0  0  0  0
 21 18  1  0  0  0  0
 22 23  2  0  0  0  0
 22 19  1  0  0  0  0
 23 20  1  0  0  0  0
 25 24  1  0  0  0  0
 26 25  1  0  0  0  0
 27 29  1  0  0  0  0
 27 26  1  0  0  0  0
 29 28  2  0  0  0  0
 30 29  1  0  0  0  0
M  END
>  <MODEL>
9

>  <REMARK>
 VINA RESULT:      -7.2      3.251      4.918
  Name = 
  7 active torsions:
  status: ('A' for Active; 'I' for Inactive)
    1  A    between atoms: C_4  and  C_13
    2  A    between atoms: N_7  and  C_16
    3  A    between atoms: C_8  and  C_12
    4  A    between atoms: C_8  and  C_13
    5  A    between atoms: C_13  and  S_27
    6  A    between atoms: C_16  and  C_30
    7  A    between atoms: S_27  and  C_30
                            x       y       z     vdW  Elec       q    Type
                         _______ _______ _______ _____ _____    ______ ____

>  <TORSDO>
F 7

$$$$
