=
 OpenBabel10262419503D

 25 28  0  0  1  0  0  0  0  0999 V2000
  187.7930  177.8480  145.6980 N   0  0  0  0  0  0  0  0  0  0  0  0
  186.8540  177.5570  144.6100 C   0  0  2  0  0  3  0  0  0  0  0  0
  186.0590  178.5240  147.2180 C   0  0  0  0  0  3  0  0  0  0  0  0
  189.1210  177.3510  145.7940 C   0  0  0  0  0  0  0  0  0  0  0  0
  191.6880  176.3860  146.2700 C   0  0  0  0  0  3  0  0  0  0  0  0
  185.1270  178.5940  146.0740 C   0  0  0  0  0  3  0  0  0  0  0  0
  189.6510  177.3910  147.0750 C   0  0  0  0  0  0  0  0  0  0  0  0
  190.9340  176.9080  147.3310 C   0  0  0  0  0  3  0  0  0  0  0  0
  184.6530  178.3850  143.6690 C   0  0  0  0  0  0  0  0  0  0  0  0
  182.9190  178.6240  143.8180 Cl  0  0  0  0  0  0  0  0  0  0  0  0
  187.3970  177.9570  143.3100 N   0  0  0  0  0  0  0  0  0  0  0  0
  191.1520  176.3430  144.9740 C   0  0  0  0  0  3  0  0  0  0  0  0
  187.3310  178.1900  147.0060 C   0  0  0  0  0  0  0  0  0  0  0  0
  188.5470  178.0550  148.3220 S   0  0  0  0  0  0  0  0  0  0  0  0
  185.2040  178.4210  142.4920 N   0  0  0  0  0  0  0  0  0  0  0  0
  189.8580  176.8240  144.7290 C   0  0  0  0  0  3  0  0  0  0  0  0
  186.6270  178.2950  142.3130 C   0  0  0  0  0  0  0  0  0  0  0  0
  185.5070  178.1990  144.8510 C   0  0  0  0  0  0  0  0  0  0  0  0
  187.2290  178.5880  140.9860 C   0  0  0  0  0  2  0  0  0  0  0  0
  188.7440  178.5220  141.0830 C   0  0  0  0  0  2  0  0  0  0  0  0
  190.1720  176.7910  139.9380 C   0  0  0  0  0  0  0  0  0  0  0  0
  190.4670  176.2800  141.0510 O   0  0  0  0  0  0  0  0  0  0  0  0
  190.7440  176.1900  138.6990 C   0  0  0  0  0  1  0  0  0  0  0  0
  189.3000  177.9320  139.8730 N   0  0  0  0  0  0  0  0  0  0  0  0
  189.0350  178.5980  138.6080 C   0  0  0  0  0  1  0  0  0  0  0  0
  1  4  1  0  0  0  0
  1 13  1  0  0  0  0
  2 11  1  6  0  0  0
  2 18  1  0  0  0  0
  2  1  1  0  0  0  0
  4  7  1  0  0  0  0
  5  8  1  0  0  0  0
  6  3  1  0  0  0  0
  7  8  2  0  0  0  0
  7 14  1  0  0  0  0
  9 10  1  0  0  0  0
  9 18  1  0  0  0  0
 12  5  2  0  0  0  0
 13  3  2  0  0  0  0
 13 14  1  0  0  0  0
 15  9  2  0  0  0  0
 16 12  1  0  0  0  0
 16  4  2  0  0  0  0
 17 15  1  0  0  0  0
 17 11  2  0  0  0  0
 18  6  2  0  0  0  0
 19 20  1  0  0  0  0
 19 17  1  0  0  0  0
 21 22  2  0  0  0  0
 23 21  1  0  0  0  0
 24 21  1  0  0  0  0
 24 20  1  0  0  0  0
 25 24  1  0  0  0  0
M  END
>  <MODEL>
1

>  <REMARK>
 VINA RESULT:      -9.9      0.000      0.000
  Name = 
  3 active torsions:
  status: ('A' for Active; 'I' for Inactive)
    1  A    between atoms: C_6  and  C_15
    2  A    between atoms: C_6  and  C_23
    3  A    between atoms: C_15  and  N_21
                            x       y       z     vdW  Elec       q    Type
                         _______ _______ _______ _____ _____    ______ ____

>  <TORSDO>
F 3

$$$$
=
 OpenBabel10262419503D

 25 28  0  0  1  0  0  0  0  0999 V2000
  188.1760  177.6680  145.3700 N   0  0  0  0  0  0  0  0  0  0  0  0
  187.4540  177.4360  144.1150 C   0  0  2  0  0  3  0  0  0  0  0  0
  186.1820  178.2180  146.5920 C   0  0  0  0  0  3  0  0  0  0  0  0
  189.4780  177.1830  145.6720 C   0  0  0  0  0  0  0  0  0  0  0  0
  191.9420  176.2240  146.5410 C   0  0  0  0  0  3  0  0  0  0  0  0
  185.4680  178.3510  145.3070 C   0  0  0  0  0  3  0  0  0  0  0  0
  189.7690  177.1460  147.0270 C   0  0  0  0  0  0  0  0  0  0  0  0
  190.9980  176.6650  147.4800 C   0  0  0  0  0  3  0  0  0  0  0  0
  185.4360  178.2950  142.8470 C   0  0  0  0  0  0  0  0  0  0  0  0
  183.6990  178.5010  142.6960 Cl  0  0  0  0  0  0  0  0  0  0  0  0
  188.2100  177.9290  142.9610 N   0  0  0  0  0  0  0  0  0  0  0  0
  191.6470  176.2600  145.1690 C   0  0  0  0  0  3  0  0  0  0  0  0
  187.4800  177.9170  146.5920 C   0  0  0  0  0  0  0  0  0  0  0  0
  188.4440  177.7110  148.0950 S   0  0  0  0  0  0  0  0  0  0  0  0
  186.1880  178.4160  141.7920 N   0  0  0  0  0  0  0  0  0  0  0  0
  190.4070  176.7380  144.7260 C   0  0  0  0  0  3  0  0  0  0  0  0
  187.6220  178.3210  141.8650 C   0  0  0  0  0  0  0  0  0  0  0  0
  186.0700  178.0430  144.1500 C   0  0  0  0  0  0  0  0  0  0  0  0
  188.4450  178.7100  140.6890 C   0  0  0  0  0  2  0  0  0  0  0  0
  188.4940  177.5620  139.6950 C   0  0  0  0  0  2  0  0  0  0  0  0
  190.2550  176.8310  138.0490 C   0  0  0  0  0  0  0  0  0  0  0  0
  189.3900  176.7620  137.1350 O   0  0  0  0  0  0  0  0  0  0  0  0
  191.6700  176.4890  137.7240 C   0  0  0  0  0  1  0  0  0  0  0  0
  189.8760  177.2320  139.3760 N   0  0  0  0  0  0  0  0  0  0  0  0
  190.8400  177.2140  140.4650 C   0  0  0  0  0  1  0  0  0  0  0  0
  1  4  1  0  0  0  0
  1 13  1  0  0  0  0
  2 11  1  6  0  0  0
  2 18  1  0  0  0  0
  2  1  1  0  0  0  0
  4  7  1  0  0  0  0
  5  8  1  0  0  0  0
  6  3  1  0  0  0  0
  7  8  2  0  0  0  0
  7 14  1  0  0  0  0
  9 18  1  0  0  0  0
 10  9  1  0  0  0  0
 12  5  2  0  0  0  0
 13  3  2  0  0  0  0
 13 14  1  0  0  0  0
 15 17  1  0  0  0  0
 15  9  2  0  0  0  0
 16 12  1  0  0  0  0
 16  4  2  0  0  0  0
 17 11  2  0  0  0  0
 18  6  2  0  0  0  0
 19 17  1  0  0  0  0
 20 19  1  0  0  0  0
 21 24  1  0  0  0  0
 22 21  2  0  0  0  0
 23 21  1  0  0  0  0
 24 20  1  0  0  0  0
 24 25  1  0  0  0  0
M  END
>  <MODEL>
2

>  <REMARK>
 VINA RESULT:      -9.4      1.182      1.379
  Name = 
  3 active torsions:
  status: ('A' for Active; 'I' for Inactive)
    1  A    between atoms: C_6  and  C_15
    2  A    between atoms: C_6  and  C_23
    3  A    between atoms: C_15  and  N_21
                            x       y       z     vdW  Elec       q    Type
                         _______ _______ _______ _____ _____    ______ ____

>  <TORSDO>
F 3

$$$$
=
 OpenBabel10262419503D

 25 28  0  0  1  0  0  0  0  0999 V2000
  187.7690  177.8550  145.7240 N   0  0  0  0  0  0  0  0  0  0  0  0
  186.8380  177.5770  144.6250 C   0  0  2  0  0  3  0  0  0  0  0  0
  186.0230  178.5190  147.2360 C   0  0  0  0  0  3  0  0  0  0  0  0
  189.0950  177.3540  145.8250 C   0  0  0  0  0  0  0  0  0  0  0  0
  191.6560  176.3790  146.3120 C   0  0  0  0  0  3  0  0  0  0  0  0
  185.1020  178.6030  146.0860 C   0  0  0  0  0  3  0  0  0  0  0  0
  189.6140  177.3800  147.1100 C   0  0  0  0  0  0  0  0  0  0  0  0
  190.8950  176.8920  147.3720 C   0  0  0  0  0  3  0  0  0  0  0  0
  184.6460  178.4200  143.6740 C   0  0  0  0  0  0  0  0  0  0  0  0
  182.9120  178.6620  143.8120 Cl  0  0  0  0  0  0  0  0  0  0  0  0
  187.3920  177.9900  143.3330 N   0  0  0  0  0  0  0  0  0  0  0  0
  191.1300  176.3510  145.0110 C   0  0  0  0  0  3  0  0  0  0  0  0
  187.2970  178.1850  147.0310 C   0  0  0  0  0  0  0  0  0  0  0  0
  188.5010  178.0330  148.3560 S   0  0  0  0  0  0  0  0  0  0  0  0
  185.2070  178.4670  142.5020 N   0  0  0  0  0  0  0  0  0  0  0  0
  189.8400  176.8370  144.7600 C   0  0  0  0  0  3  0  0  0  0  0  0
  186.6310  178.3400  142.3340 C   0  0  0  0  0  0  0  0  0  0  0  0
  185.4900  178.2200  144.8620 C   0  0  0  0  0  0  0  0  0  0  0  0
  187.2450  178.6460  141.0150 C   0  0  0  0  0  2  0  0  0  0  0  0
  186.1870  178.5780  139.9270 C   0  0  0  0  0  2  0  0  0  0  0  0
  185.9990  177.8470  137.5240 C   0  0  0  0  0  0  0  0  0  0  0  0
  184.7450  177.7830  137.6290 O   0  0  0  0  0  0  0  0  0  0  0  0
  186.6280  177.5020  136.2160 C   0  0  0  0  0  1  0  0  0  0  0  0
  186.8000  178.2450  138.6490 N   0  0  0  0  0  0  0  0  0  0  0  0
  188.2520  178.2200  138.5770 C   0  0  0  0  0  1  0  0  0  0  0  0
  1  4  1  0  0  0  0
  1 13  1  0  0  0  0
  2 11  1  6  0  0  0
  2 18  1  0  0  0  0
  2  1  1  0  0  0  0
  4  7  1  0  0  0  0
  5  8  1  0  0  0  0
  6  3  1  0  0  0  0
  7  8  2  0  0  0  0
  7 14  1  0  0  0  0
  9 10  1  0  0  0  0
  9 18  1  0  0  0  0
 12  5  2  0  0  0  0
 13  3  2  0  0  0  0
 13 14  1  0  0  0  0
 15  9  2  0  0  0  0
 16 12  1  0  0  0  0
 16  4  2  0  0  0  0
 17 15  1  0  0  0  0
 17 11  2  0  0  0  0
 18  6  2  0  0  0  0
 19 17  1  0  0  0  0
 20 19  1  0  0  0  0
 21 22  2  0  0  0  0
 21 24  1  0  0  0  0
 23 21  1  0  0  0  0
 24 20  1  0  0  0  0
 25 24  1  0  0  0  0
M  END
>  <MODEL>
3

>  <REMARK>
 VINA RESULT:      -9.0      1.802      2.120
  Name = 
  3 active torsions:
  status: ('A' for Active; 'I' for Inactive)
    1  A    between atoms: C_6  and  C_15
    2  A    between atoms: C_6  and  C_23
    3  A    between atoms: C_15  and  N_21
                            x       y       z     vdW  Elec       q    Type
                         _______ _______ _______ _____ _____    ______ ____

>  <TORSDO>
F 3

$$$$
=
 OpenBabel10262419503D

 25 28  0  0  1  0  0  0  0  0999 V2000
  187.0730  177.8310  145.3480 N   0  0  0  0  0  0  0  0  0  0  0  0
  188.5040  177.8750  145.0290 C   0  0  2  0  0  3  0  0  0  0  0  0
  187.4520  177.6450  147.7140 C   0  0  0  0  0  3  0  0  0  0  0  0
  186.0260  178.2770  144.4960 C   0  0  0  0  0  0  0  0  0  0  0  0
  183.8280  179.2160  143.0710 C   0  0  0  0  0  3  0  0  0  0  0  0
  188.8650  177.3260  147.4310 C   0  0  0  0  0  3  0  0  0  0  0  0
  184.8340  178.5430  145.1540 C   0  0  0  0  0  0  0  0  0  0  0  0
  183.7250  179.0170  144.4550 C   0  0  0  0  0  3  0  0  0  0  0  0
  190.7080  176.9310  145.8480 C   0  0  0  0  0  0  0  0  0  0  0  0
  191.9600  176.8160  147.0730 Cl  0  0  0  0  0  0  0  0  0  0  0  0
  188.8040  177.1310  143.8040 N   0  0  0  0  0  0  0  0  0  0  0  0
  185.0340  178.9490  142.4050 C   0  0  0  0  0  3  0  0  0  0  0  0
  186.6130  177.8560  146.7000 C   0  0  0  0  0  0  0  0  0  0  0  0
  184.8790  178.2710  146.9260 S   0  0  0  0  0  0  0  0  0  0  0  0
  190.9720  176.5710  144.6270 N   0  0  0  0  0  0  0  0  0  0  0  0
  186.1460  178.4800  143.1180 C   0  0  0  0  0  3  0  0  0  0  0  0
  189.9690  176.5840  143.5950 C   0  0  0  0  0  0  0  0  0  0  0  0
  189.3460  177.3760  146.1810 C   0  0  0  0  0  0  0  0  0  0  0  0
  190.2520  175.9330  142.2880 C   0  0  0  0  0  2  0  0  0  0  0  0
  190.7380  176.9710  141.2920 C   0  0  0  0  0  2  0  0  0  0  0  0
  189.9500  176.3960  138.9690 C   0  0  0  0  0  0  0  0  0  0  0  0
  190.9370  175.6280  138.8120 O   0  0  0  0  0  0  0  0  0  0  0  0
  188.9710  176.5430  137.8540 C   0  0  0  0  0  1  0  0  0  0  0  0
  189.7800  177.1120  140.2040 N   0  0  0  0  0  0  0  0  0  0  0  0
  188.7080  178.0810  140.3620 C   0  0  0  0  0  1  0  0  0  0  0  0
  1 13  1  0  0  0  0
  2 11  1  6  0  0  0
  2  1  1  0  0  0  0
  2 18  1  0  0  0  0
  4  7  1  0  0  0  0
  4  1  1  0  0  0  0
  5  8  1  0  0  0  0
  6  3  1  0  0  0  0
  7 14  1  0  0  0  0
  8  7  2  0  0  0  0
  9 18  1  0  0  0  0
  9 10  1  0  0  0  0
 12  5  2  0  0  0  0
 12 16  1  0  0  0  0
 13 14  1  0  0  0  0
 13  3  2  0  0  0  0
 15  9  2  0  0  0  0
 16  4  2  0  0  0  0
 17 11  2  0  0  0  0
 17 15  1  0  0  0  0
 18  6  2  0  0  0  0
 19 17  1  0  0  0  0
 20 19  1  0  0  0  0
 21 24  1  0  0  0  0
 22 21  2  0  0  0  0
 23 21  1  0  0  0  0
 24 25  1  0  0  0  0
 24 20  1  0  0  0  0
M  END
>  <MODEL>
4

>  <REMARK>
 VINA RESULT:      -8.9      2.546      4.694
  Name = 
  3 active torsions:
  status: ('A' for Active; 'I' for Inactive)
    1  A    between atoms: C_6  and  C_15
    2  A    between atoms: C_6  and  C_23
    3  A    between atoms: C_15  and  N_21
                            x       y       z     vdW  Elec       q    Type
                         _______ _______ _______ _____ _____    ______ ____

>  <TORSDO>
F 3

$$$$
=
 OpenBabel10262419503D

 25 28  0  0  1  0  0  0  0  0999 V2000
  186.4920  178.2950  144.4560 N   0  0  0  0  0  0  0  0  0  0  0  0
  186.3140  177.9280  143.0480 C   0  0  2  0  0  3  0  0  0  0  0  0
  184.2300  179.0700  144.6970 C   0  0  0  0  0  3  0  0  0  0  0  0
  187.5190  177.8100  145.3100 C   0  0  0  0  0  0  0  0  0  0  0  0
  189.3410  176.8870  147.2010 C   0  0  0  0  0  3  0  0  0  0  0  0
  184.1020  179.0590  143.2260 C   0  0  0  0  0  3  0  0  0  0  0  0
  187.2410  177.9390  146.6620 C   0  0  0  0  0  0  0  0  0  0  0  0
  188.1420  177.4790  147.6230 C   0  0  0  0  0  3  0  0  0  0  0  0
  185.0500  178.6840  140.9860 C   0  0  0  0  0  0  0  0  0  0  0  0
  183.5410  178.9280  140.1220 Cl  0  0  0  0  0  0  0  0  0  0  0  0
  187.5060  178.2390  142.2560 N   0  0  0  0  0  0  0  0  0  0  0  0
  189.6220  176.7540  145.8320 C   0  0  0  0  0  3  0  0  0  0  0  0
  185.3890  178.7260  145.2560 C   0  0  0  0  0  0  0  0  0  0  0  0
  185.6530  178.6850  147.0330 S   0  0  0  0  0  0  0  0  0  0  0  0
  186.1670  178.6400  140.3220 N   0  0  0  0  0  0  0  0  0  0  0  0
  188.7070  177.2120  144.8760 C   0  0  0  0  0  3  0  0  0  0  0  0
  187.4390  178.5050  140.9810 C   0  0  0  0  0  0  0  0  0  0  0  0
  185.0870  178.5820  142.4530 C   0  0  0  0  0  0  0  0  0  0  0  0
  188.6930  178.7080  140.2070 C   0  0  0  0  0  2  0  0  0  0  0  0
  189.2870  177.3620  139.8290 C   0  0  0  0  0  2  0  0  0  0  0  0
  190.3870  176.2690  137.8440 C   0  0  0  0  0  0  0  0  0  0  0  0
  190.8150  175.3390  138.5780 O   0  0  0  0  0  0  0  0  0  0  0  0
  190.7110  176.2410  136.3880 C   0  0  0  0  0  1  0  0  0  0  0  0
  189.6010  177.3330  138.4080 N   0  0  0  0  0  0  0  0  0  0  0  0
  189.1910  178.4680  137.5960 C   0  0  0  0  0  1  0  0  0  0  0  0
  1 13  1  0  0  0  0
  1  4  1  0  0  0  0
  2 11  1  6  0  0  0
  2  1  1  0  0  0  0
  3 13  2  0  0  0  0
  4  7  1  0  0  0  0
  5  8  1  0  0  0  0
  6  3  1  0  0  0  0
  7 14  1  0  0  0  0
  7  8  2  0  0  0  0
  9 18  1  0  0  0  0
 10  9  1  0  0  0  0
 12  5  2  0  0  0  0
 13 14  1  0  0  0  0
 15 17  1  0  0  0  0
 15  9  2  0  0  0  0
 16  4  2  0  0  0  0
 16 12  1  0  0  0  0
 17 11  2  0  0  0  0
 18  2  1  0  0  0  0
 18  6  2  0  0  0  0
 19 17  1  0  0  0  0
 20 19  1  0  0  0  0
 21 24  1  0  0  0  0
 21 22  2  0  0  0  0
 23 21  1  0  0  0  0
 24 20  1  0  0  0  0
 25 24  1  0  0  0  0
M  END
>  <MODEL>
5

>  <REMARK>
 VINA RESULT:      -8.9      1.642      2.332
  Name = 
  3 active torsions:
  status: ('A' for Active; 'I' for Inactive)
    1  A    between atoms: C_6  and  C_15
    2  A    between atoms: C_6  and  C_23
    3  A    between atoms: C_15  and  N_21
                            x       y       z     vdW  Elec       q    Type
                         _______ _______ _______ _____ _____    ______ ____

>  <TORSDO>
F 3

$$$$
=
 OpenBabel10262419503D

 25 28  0  0  1  0  0  0  0  0999 V2000
  189.0120  177.4250  143.1820 N   0  0  0  0  0  0  0  0  0  0  0  0
  189.5680  177.8580  141.8960 C   0  0  2  0  0  3  0  0  0  0  0  0
  191.1720  176.9940  144.1430 C   0  0  0  0  0  3  0  0  0  0  0  0
  187.7060  177.7250  143.6560 C   0  0  0  0  0  0  0  0  0  0  0  0
  185.2610  178.3040  144.8530 C   0  0  0  0  0  3  0  0  0  0  0  0
  191.7550  177.0690  142.7890 C   0  0  0  0  0  3  0  0  0  0  0  0
  187.5580  177.5980  145.0290 C   0  0  0  0  0  0  0  0  0  0  0  0
  186.3410  177.8880  145.6450 C   0  0  0  0  0  3  0  0  0  0  0  0
  191.5200  177.3640  140.3570 C   0  0  0  0  0  0  0  0  0  0  0  0
  193.2430  177.3760  140.0220 Cl  0  0  0  0  0  0  0  0  0  0  0  0
  188.7500  177.3940  140.7730 N   0  0  0  0  0  0  0  0  0  0  0  0
  185.4110  178.4350  143.4640 C   0  0  0  0  0  3  0  0  0  0  0  0
  189.8570  177.1420  144.2990 C   0  0  0  0  0  0  0  0  0  0  0  0
  189.0420  177.0890  145.9000 S   0  0  0  0  0  0  0  0  0  0  0  0
  190.6770  177.2580  139.3730 N   0  0  0  0  0  0  0  0  0  0  0  0
  186.6410  178.1480  142.8560 C   0  0  0  0  0  3  0  0  0  0  0  0
  189.2570  177.1790  139.5910 C   0  0  0  0  0  0  0  0  0  0  0  0
  191.0050  177.4140  141.7340 C   0  0  0  0  0  0  0  0  0  0  0  0
  188.3590  176.8130  138.4630 C   0  0  0  0  0  2  0  0  0  0  0  0
  187.7810  178.0700  137.8370 C   0  0  0  0  0  2  0  0  0  0  0  0
  185.3640  178.3440  138.4910 C   0  0  0  0  0  0  0  0  0  0  0  0
  185.7050  178.9130  139.5620 O   0  0  0  0  0  0  0  0  0  0  0  0
  183.9110  178.1540  138.2110 C   0  0  0  0  0  1  0  0  0  0  0  0
  186.3630  177.8890  137.5630 N   0  0  0  0  0  0  0  0  0  0  0  0
  185.9900  177.1360  136.3760 C   0  0  0  0  0  1  0  0  0  0  0  0
  1  4  1  0  0  0  0
  1 13  1  0  0  0  0
  2 11  1  6  0  0  0
  2  1  1  0  0  0  0
  3 13  2  0  0  0  0
  4  7  1  0  0  0  0
  5  8  1  0  0  0  0
  6  3  1  0  0  0  0
  7  8  2  0  0  0  0
  7 14  1  0  0  0  0
  9 18  1  0  0  0  0
 10  9  1  0  0  0  0
 12  5  2  0  0  0  0
 13 14  1  0  0  0  0
 15 17  1  0  0  0  0
 15  9  2  0  0  0  0
 16 12  1  0  0  0  0
 16  4  2  0  0  0  0
 17 11  2  0  0  0  0
 18  2  1  0  0  0  0
 18  6  2  0  0  0  0
 19 17  1  0  0  0  0
 20 19  1  0  0  0  0
 21 22  2  0  0  0  0
 23 21  1  0  0  0  0
 24 20  1  0  0  0  0
 24 21  1  0  0  0  0
 25 24  1  0  0  0  0
M  END
>  <MODEL>
6

>  <REMARK>
 VINA RESULT:      -8.5      3.192      5.413
  Name = 
  3 active torsions:
  status: ('A' for Active; 'I' for Inactive)
    1  A    between atoms: C_6  and  C_15
    2  A    between atoms: C_6  and  C_23
    3  A    between atoms: C_15  and  N_21
                            x       y       z     vdW  Elec       q    Type
                         _______ _______ _______ _____ _____    ______ ____

>  <TORSDO>
F 3

$$$$
=
 OpenBabel10262419503D

 25 28  0  0  1  0  0  0  0  0999 V2000
  189.3110  177.4450  143.8300 N   0  0  0  0  0  0  0  0  0  0  0  0
  188.7080  178.2550  142.7660 C   0  0  2  0  0  3  0  0  0  0  0  0
  191.2890  176.9650  142.5510 C   0  0  0  0  0  3  0  0  0  0  0  0
  188.9480  177.4880  145.2030 C   0  0  0  0  0  0  0  0  0  0  0  0
  188.5130  177.5030  147.9520 C   0  0  0  0  0  3  0  0  0  0  0  0
  190.5900  177.4530  141.3460 C   0  0  0  0  0  3  0  0  0  0  0  0
  189.9140  176.9830  146.0610 C   0  0  0  0  0  0  0  0  0  0  0  0
  189.7130  176.9870  147.4410 C   0  0  0  0  0  3  0  0  0  0  0  0
  188.5930  178.3690  140.2380 C   0  0  0  0  0  0  0  0  0  0  0  0
  189.3660  178.6250  138.6820 Cl  0  0  0  0  0  0  0  0  0  0  0  0
  187.2620  178.0400  142.6800 N   0  0  0  0  0  0  0  0  0  0  0  0
  187.5370  178.0160  147.0840 C   0  0  0  0  0  3  0  0  0  0  0  0
  190.6460  176.9480  143.7190 C   0  0  0  0  0  0  0  0  0  0  0  0
  191.4020  176.3940  145.2520 S   0  0  0  0  0  0  0  0  0  0  0  0
  187.2990  178.4580  140.3320 N   0  0  0  0  0  0  0  0  0  0  0  0
  187.7510  178.0140  145.7000 C   0  0  0  0  0  3  0  0  0  0  0  0
  186.6050  178.1970  141.5650 C   0  0  0  0  0  0  0  0  0  0  0  0
  189.3700  178.0020  141.4310 C   0  0  0  0  0  0  0  0  0  0  0  0
  185.1230  178.0690  141.5610 C   0  0  0  0  0  2  0  0  0  0  0  0
  184.5200  179.0540  142.5480 C   0  0  0  0  0  2  0  0  0  0  0  0
  182.4010  178.8270  143.8910 C   0  0  0  0  0  0  0  0  0  0  0  0
  183.0530  178.9520  144.9630 O   0  0  0  0  0  0  0  0  0  0  0  0
  180.9240  178.6350  143.9690 C   0  0  0  0  0  1  0  0  0  0  0  0
  183.0780  178.8700  142.6240 N   0  0  0  0  0  0  0  0  0  0  0  0
  182.3580  178.6200  141.3860 C   0  0  0  0  0  1  0  0  0  0  0  0
  1  4  1  0  0  0  0
  2 18  1  6  0  0  0
  2  1  1  0  0  0  0
  3 13  2  0  0  0  0
  4 16  2  0  0  0  0
  4  7  1  0  0  0  0
  6 18  2  0  0  0  0
  6  3  1  0  0  0  0
  7  8  2  0  0  0  0
  8  5  1  0  0  0  0
  9 15  2  0  0  0  0
  9 18  1  0  0  0  0
 10  9  1  0  0  0  0
 11  2  1  0  0  0  0
 12  5  2  0  0  0  0
 13  1  1  0  0  0  0
 13 14  1  0  0  0  0
 14  7  1  0  0  0  0
 15 17  1  0  0  0  0
 16 12  1  0  0  0  0
 17 11  2  0  0  0  0
 19 17  1  0  0  0  0
 19 20  1  0  0  0  0
 20 24  1  0  0  0  0
 21 23  1  0  0  0  0
 21 22  2  0  0  0  0
 24 21  1  0  0  0  0
 25 24  1  0  0  0  0
M  END
>  <MODEL>
7

>  <REMARK>
 VINA RESULT:      -8.4      3.067      5.481
  Name = 
  3 active torsions:
  status: ('A' for Active; 'I' for Inactive)
    1  A    between atoms: C_6  and  C_15
    2  A    between atoms: C_6  and  C_23
    3  A    between atoms: C_15  and  N_21
                            x       y       z     vdW  Elec       q    Type
                         _______ _______ _______ _____ _____    ______ ____

>  <TORSDO>
F 3

$$$$
=
 OpenBabel10262419503D

 25 28  0  0  1  0  0  0  0  0999 V2000
  188.8920  177.8230  143.5660 N   0  0  0  0  0  0  0  0  0  0  0  0
  187.4850  177.5330  143.8600 C   0  0  2  0  0  3  0  0  0  0  0  0
  189.5280  177.8520  145.8830 C   0  0  0  0  0  3  0  0  0  0  0  0
  189.5320  177.6040  142.3160 C   0  0  0  0  0  0  0  0  0  0  0  0
  191.0310  177.1280  140.0200 C   0  0  0  0  0  3  0  0  0  0  0  0
  188.0980  177.9220  146.2420 C   0  0  0  0  0  3  0  0  0  0  0  0
  190.9150  177.5330  142.3920 C   0  0  0  0  0  0  0  0  0  0  0  0
  191.6810  177.2920  141.2520 C   0  0  0  0  0  3  0  0  0  0  0  0
  185.7220  178.0340  145.6110 C   0  0  0  0  0  0  0  0  0  0  0  0
  185.1050  177.8790  147.2470 Cl  0  0  0  0  0  0  0  0  0  0  0  0
  186.5860  178.2550  142.9560 N   0  0  0  0  0  0  0  0  0  0  0  0
  189.6320  177.1970  139.9420 C   0  0  0  0  0  3  0  0  0  0  0  0
  189.8800  177.8320  144.5980 C   0  0  0  0  0  0  0  0  0  0  0  0
  191.5860  177.7290  144.0440 S   0  0  0  0  0  0  0  0  0  0  0  0
  184.9150  178.3850  144.6530 N   0  0  0  0  0  0  0  0  0  0  0  0
  188.8710  177.4320  141.0960 C   0  0  0  0  0  3  0  0  0  0  0  0
  185.3760  178.5900  143.3060 C   0  0  0  0  0  0  0  0  0  0  0  0
  187.1460  177.8310  145.3040 C   0  0  0  0  0  0  0  0  0  0  0  0
  184.4730  179.2260  142.3090 C   0  0  0  0  0  2  0  0  0  0  0  0
  184.1900  178.2530  141.1780 C   0  0  0  0  0  2  0  0  0  0  0  0
  183.3800  179.7160  139.2940 C   0  0  0  0  0  0  0  0  0  0  0  0
  184.5540  180.1280  139.0940 O   0  0  0  0  0  0  0  0  0  0  0  0
  182.2800  180.2380  138.4330 C   0  0  0  0  0  1  0  0  0  0  0  0
  183.1170  178.7600  140.3350 N   0  0  0  0  0  0  0  0  0  0  0  0
  181.7560  178.3560  140.6490 C   0  0  0  0  0  1  0  0  0  0  0  0
  1  2  1  0  0  0  0
  1 13  1  0  0  0  0
  2 11  1  6  0  0  0
  2 18  1  0  0  0  0
  3  6  1  0  0  0  0
  4  7  1  0  0  0  0
  4  1  1  0  0  0  0
  5  8  1  0  0  0  0
  7 14  1  0  0  0  0
  8  7  2  0  0  0  0
  9 10  1  0  0  0  0
 11 17  2  0  0  0  0
 12  5  2  0  0  0  0
 12 16  1  0  0  0  0
 13  3  2  0  0  0  0
 14 13  1  0  0  0  0
 15  9  2  0  0  0  0
 16  4  2  0  0  0  0
 17 15  1  0  0  0  0
 18  9  1  0  0  0  0
 18  6  2  0  0  0  0
 19 17  1  0  0  0  0
 20 19  1  0  0  0  0
 21 24  1  0  0  0  0
 22 21  2  0  0  0  0
 23 21  1  0  0  0  0
 24 25  1  0  0  0  0
 24 20  1  0  0  0  0
M  END
>  <MODEL>
8

>  <REMARK>
 VINA RESULT:      -8.3      2.947      4.833
  Name = 
  3 active torsions:
  status: ('A' for Active; 'I' for Inactive)
    1  A    between atoms: C_6  and  C_15
    2  A    between atoms: C_6  and  C_23
    3  A    between atoms: C_15  and  N_21
                            x       y       z     vdW  Elec       q    Type
                         _______ _______ _______ _____ _____    ______ ____

>  <TORSDO>
F 3

$$$$
=
 OpenBabel10262419503D

 25 28  0  0  1  0  0  0  0  0999 V2000
  186.9390  178.2620  142.6900 N   0  0  0  0  0  0  0  0  0  0  0  0
  188.1070  177.5070  142.2260 C   0  0  2  0  0  3  0  0  0  0  0  0
  186.1030  178.6290  140.4680 C   0  0  0  0  0  3  0  0  0  0  0  0
  186.4050  178.2250  144.0070 C   0  0  0  0  0  0  0  0  0  0  0  0
  185.0990  178.2010  146.4650 C   0  0  0  0  0  3  0  0  0  0  0  0
  187.4130  178.2030  139.9380 C   0  0  0  0  0  3  0  0  0  0  0  0
  185.0890  178.6540  144.0980 C   0  0  0  0  0  0  0  0  0  0  0  0
  184.4190  178.6450  145.3220 C   0  0  0  0  0  3  0  0  0  0  0  0
  189.7260  177.4340  140.2790 C   0  0  0  0  0  0  0  0  0  0  0  0
  190.0610  177.1480  138.5790 Cl  0  0  0  0  0  0  0  0  0  0  0  0
  189.2980  177.8170  143.0200 N   0  0  0  0  0  0  0  0  0  0  0  0
  186.4300  177.7650  146.3730 C   0  0  0  0  0  3  0  0  0  0  0  0
  185.9120  178.6720  141.7860 C   0  0  0  0  0  0  0  0  0  0  0  0
  184.3550  179.1560  142.5410 S   0  0  0  0  0  0  0  0  0  0  0  0
  190.7060  177.4280  141.1330 N   0  0  0  0  0  0  0  0  0  0  0  0
  187.0910  177.7700  145.1380 C   0  0  0  0  0  3  0  0  0  0  0  0
  190.5020  177.7170  142.5280 C   0  0  0  0  0  0  0  0  0  0  0  0
  188.3670  177.7340  140.7540 C   0  0  0  0  0  0  0  0  0  0  0  0
  191.6770  177.9410  143.4120 C   0  0  0  0  0  2  0  0  0  0  0  0
  191.2380  177.9180  144.8660 C   0  0  0  0  0  2  0  0  0  0  0  0
  191.6810  176.5250  146.9170 C   0  0  0  0  0  0  0  0  0  0  0  0
  191.3930  177.5020  147.6580 O   0  0  0  0  0  0  0  0  0  0  0  0
  192.0790  175.2360  147.5530 C   0  0  0  0  0  1  0  0  0  0  0  0
  191.6240  176.6590  145.4870 N   0  0  0  0  0  0  0  0  0  0  0  0
  192.0550  175.5750  144.6190 C   0  0  0  0  0  1  0  0  0  0  0  0
  1  4  1  0  0  0  0
  2 18  1  6  0  0  0
  2  1  1  0  0  0  0
  2 11  1  0  0  0  0
  3 13  2  0  0  0  0
  4  7  2  0  0  0  0
  4 16  1  0  0  0  0
  6  3  1  0  0  0  0
  6 18  2  0  0  0  0
  7  8  1  0  0  0  0
  8  5  2  0  0  0  0
  9 18  1  0  0  0  0
  9 15  2  0  0  0  0
 10  9  1  0  0  0  0
 12  5  1  0  0  0  0
 13 14  1  0  0  0  0
 13  1  1  0  0  0  0
 14  7  1  0  0  0  0
 15 17  1  0  0  0  0
 16 12  2  0  0  0  0
 17 11  2  0  0  0  0
 17 19  1  0  0  0  0
 19 20  1  0  0  0  0
 20 24  1  0  0  0  0
 21 23  1  0  0  0  0
 21 22  2  0  0  0  0
 24 21  1  0  0  0  0
 25 24  1  0  0  0  0
M  END
>  <MODEL>
9

>  <REMARK>
 VINA RESULT:      -8.3      3.063      5.918
  Name = 
  3 active torsions:
  status: ('A' for Active; 'I' for Inactive)
    1  A    between atoms: C_6  and  C_15
    2  A    between atoms: C_6  and  C_23
    3  A    between atoms: C_15  and  N_21
                            x       y       z     vdW  Elec       q    Type
                         _______ _______ _______ _____ _____    ______ ____

>  <TORSDO>
F 3

$$$$
