=
 OpenBabel10262419503D

 25 28  0  0  0  0  0  0  0  0999 V2000
  187.4700  177.8900  145.7850 C   0  0  0  0  0  0  0  0  0  0  0  0
  186.6380  178.1580  144.6830 C   0  0  0  0  0  0  0  0  0  0  0  0
  185.6520  178.4040  147.3030 C   0  0  0  0  0  3  0  0  0  0  0  0
  188.8180  177.4860  145.7920 C   0  0  0  0  0  0  0  0  0  0  0  0
  191.4320  176.6980  146.2640 C   0  0  0  0  0  3  0  0  0  0  0  0
  184.8550  178.6580  146.2300 N   0  0  0  0  0  0  0  0  0  0  0  0
  189.3150  177.3160  147.0790 C   0  0  0  0  0  0  0  0  0  0  0  0
  190.5940  176.9290  147.3140 N   0  0  0  0  0  0  0  0  0  0  0  0
  184.4280  178.8430  143.8450 N   0  0  0  0  0  0  0  0  0  0  0  0
  183.0420  179.2110  144.0750 C   0  0  0  0  0  1  0  0  0  0  0  0
  187.1230  177.9860  143.2660 C   0  0  0  0  0  3  0  0  0  0  0  0
  190.9790  176.8570  144.9410 C   0  0  0  0  0  3  0  0  0  0  0  0
  186.9660  178.0190  147.0780 C   0  0  0  0  0  0  0  0  0  0  0  0
  188.1380  177.6480  148.2350 S   0  0  0  0  0  0  0  0  0  0  0  0
  184.9160  178.8380  142.5000 C   0  0  0  0  0  3  0  0  0  0  0  0
  189.6560  177.2560  144.6990 C   0  0  0  0  0  2  0  0  0  0  0  0
  186.1710  178.4840  142.2120 C   0  0  0  0  0  0  0  0  0  0  0  0
  185.3040  178.5470  144.9420 C   0  0  0  0  0  0  0  0  0  0  0  0
  186.6230  178.4760  140.7920 C   0  0  0  0  0  2  0  0  0  0  0  0
  188.1320  178.3360  140.7140 C   0  0  0  0  0  2  0  0  0  0  0  0
  188.5340  178.0060  139.2920 C   0  0  0  0  0  2  0  0  0  0  0  0
  188.9850  179.1670  138.6570 O   0  0  0  0  0  0  0  0  0  0  0  0
  189.0530  178.8400  137.3440 N   0  0  0  0  0  0  0  0  0  0  0  0
  189.8060  177.6010  137.2570 C   0  0  0  0  0  1  0  0  0  0  0  0
  187.6990  178.5280  136.9170 C   0  0  0  0  0  1  0  0  0  0  0  0
  1  4  2  0  0  0  0
  1 13  1  0  0  0  0
  2 18  1  0  0  0  0
  2  1  1  0  0  0  0
  4  7  1  0  0  0  0
  5  8  1  0  0  0  0
  6  3  1  0  0  0  0
  7  8  2  0  0  0  0
  7 14  1  0  0  0  0
  9 10  1  0  0  0  0
  9 18  1  0  0  0  0
 11  2  2  0  0  0  0
 12  5  2  0  0  0  0
 13  3  2  0  0  0  0
 13 14  1  0  0  0  0
 15  9  1  0  0  0  0
 16 12  1  0  0  0  0
 16  4  1  0  0  0  0
 17 15  2  0  0  0  0
 17 11  1  0  0  0  0
 18  6  2  0  0  0  0
 19 17  1  0  0  0  0
 20 19  1  0  0  0  0
 21 20  1  0  0  0  0
 22 21  1  0  0  0  0
 23 22  1  0  0  0  0
 24 23  1  0  0  0  0
 25 23  1  0  0  0  0
M  END
>  <MODEL>
1

>  <REMARK>
 VINA RESULT:      -9.1      0.000      0.000
  Name = 
  5 active torsions:
  status: ('A' for Active; 'I' for Inactive)
    1  A    between atoms: N_2  and  O_25
    2  A    between atoms: C_6  and  C_15
    3  A    between atoms: C_6  and  C_23
    4  A    between atoms: C_15  and  C_21
    5  A    between atoms: C_21  and  O_25
                            x       y       z     vdW  Elec       q    Type
                         _______ _______ _______ _____ _____    ______ ____

>  <TORSDO>
F 5

$$$$
=
 OpenBabel10262419503D

 25 28  0  0  0  0  0  0  0  0999 V2000
  187.1720  177.8840  145.5160 C   0  0  0  0  0  0  0  0  0  0  0  0
  188.3850  177.4470  144.9550 C   0  0  0  0  0  0  0  0  0  0  0  0
  188.1250  177.7250  147.7390 C   0  0  0  0  0  3  0  0  0  0  0  0
  185.9760  178.2350  144.8640 C   0  0  0  0  0  0  0  0  0  0  0  0
  183.4580  179.0040  144.0000 C   0  0  0  0  0  3  0  0  0  0  0  0
  189.2950  177.3050  147.1850 N   0  0  0  0  0  0  0  0  0  0  0  0
  184.9800  178.6230  145.7510 C   0  0  0  0  0  0  0  0  0  0  0  0
  183.7460  179.0010  145.3330 N   0  0  0  0  0  0  0  0  0  0  0  0
  190.7040  176.6970  145.3000 N   0  0  0  0  0  0  0  0  0  0  0  0
  191.8330  176.4270  146.1730 C   0  0  0  0  0  1  0  0  0  0  0  0
  188.5710  177.3360  143.4630 C   0  0  0  0  0  3  0  0  0  0  0  0
  184.4310  178.6190  143.0590 C   0  0  0  0  0  3  0  0  0  0  0  0
  187.0590  178.0150  146.8990 C   0  0  0  0  0  0  0  0  0  0  0  0
  185.5210  178.5520  147.3420 S   0  0  0  0  0  0  0  0  0  0  0  0
  190.8470  176.4360  143.9010 C   0  0  0  0  0  3  0  0  0  0  0  0
  185.7070  178.2290  143.4930 C   0  0  0  0  0  2  0  0  0  0  0  0
  189.8600  176.6850  143.0370 C   0  0  0  0  0  0  0  0  0  0  0  0
  189.4540  177.1600  145.8330 C   0  0  0  0  0  0  0  0  0  0  0  0
  190.0690  176.4140  141.5870 C   0  0  0  0  0  2  0  0  0  0  0  0
  190.0190  177.7050  140.7910 C   0  0  0  0  0  2  0  0  0  0  0  0
  189.1090  177.5240  139.5950 C   0  0  0  0  0  2  0  0  0  0  0  0
  188.2730  178.6370  139.4740 O   0  0  0  0  0  0  0  0  0  0  0  0
  187.8640  178.6260  138.1830 N   0  0  0  0  0  0  0  0  0  0  0  0
  189.0180  178.9720  137.3720 C   0  0  0  0  0  1  0  0  0  0  0  0
  187.5310  177.2490  137.8580 C   0  0  0  0  0  1  0  0  0  0  0  0
  1 13  1  0  0  0  0
  2  1  1  0  0  0  0
  2 18  1  0  0  0  0
  4  1  2  0  0  0  0
  4  7  1  0  0  0  0
  5  8  1  0  0  0  0
  6  3  1  0  0  0  0
  7 14  1  0  0  0  0
  8  7  2  0  0  0  0
  9 18  1  0  0  0  0
  9 10  1  0  0  0  0
 11  2  2  0  0  0  0
 12 16  1  0  0  0  0
 12  5  2  0  0  0  0
 13 14  1  0  0  0  0
 13  3  2  0  0  0  0
 15  9  1  0  0  0  0
 16  4  1  0  0  0  0
 17 11  1  0  0  0  0
 17 15  2  0  0  0  0
 18  6  2  0  0  0  0
 19 17  1  0  0  0  0
 20 19  1  0  0  0  0
 21 20  1  0  0  0  0
 22 21  1  0  0  0  0
 23 22  1  0  0  0  0
 24 23  1  0  0  0  0
 25 23  1  0  0  0  0
M  END
>  <MODEL>
2

>  <REMARK>
 VINA RESULT:      -9.0      1.447      4.554
  Name = 
  5 active torsions:
  status: ('A' for Active; 'I' for Inactive)
    1  A    between atoms: N_2  and  O_25
    2  A    between atoms: C_6  and  C_15
    3  A    between atoms: C_6  and  C_23
    4  A    between atoms: C_15  and  C_21
    5  A    between atoms: C_21  and  O_25
                            x       y       z     vdW  Elec       q    Type
                         _______ _______ _______ _____ _____    ______ ____

>  <TORSDO>
F 5

$$$$
=
 OpenBabel10262419503D

 25 28  0  0  1  0  0  0  0  0999 V2000
  186.1310  178.4140  142.9220 C   0  0  0  0  0  0  0  0  0  0  0  0
  187.2770  178.0650  142.1840 C   0  0  0  0  0  0  0  0  0  0  0  0
  185.0160  179.1190  140.8880 C   0  0  0  0  0  3  0  0  0  0  0  0
  185.9120  178.3120  144.3070 C   0  0  0  0  0  0  0  0  0  0  0  0
  185.0670  178.2880  146.9460 C   0  0  0  0  0  3  0  0  0  0  0  0
  186.1300  178.7770  140.1840 N   0  0  0  0  0  0  0  0  0  0  0  0
  184.6490  178.7550  144.6810 C   0  0  2  0  0  3  0  0  0  0  0  0
  184.2310  178.7440  145.9710 N   0  0  0  0  0  0  0  0  0  0  0  0
  188.4010  177.9300  139.9990 N   0  0  0  0  0  0  0  0  0  0  0  0
  188.3890  178.0860  138.5540 C   0  0  0  0  0  1  0  0  0  0  0  0
  188.4850  177.4510  142.8440 C   0  0  0  0  0  3  0  0  0  0  0  0
  186.3570  177.8280  146.6220 C   0  0  0  0  0  3  0  0  0  0  0  0
  185.0200  178.9360  142.2640 C   0  0  0  0  0  0  0  0  0  0  0  0
  183.7690  179.2790  143.3450 S   0  0  0  0  0  0  0  0  0  0  0  0
  189.6100  177.4960  140.6260 C   0  0  0  0  0  3  0  0  0  0  0  0
  186.7880  177.8390  145.2870 C   0  0  0  0  0  3  0  0  0  0  0  0
  189.6850  177.3060  141.9460 C   0  0  0  0  0  0  0  0  0  0  0  0
  187.2460  178.2600  140.7850 C   0  0  0  0  0  0  0  0  0  0  0  0
  190.9630  176.8320  142.5480 C   0  0  0  0  0  2  0  0  0  0  0  0
  191.6840  177.9770  143.2350 C   0  0  0  0  0  2  0  0  0  0  0  0
  191.3850  177.9410  144.7190 C   0  0  0  0  0  2  0  0  0  0  0  0
  191.7420  176.6920  145.2340 O   0  0  0  0  0  0  0  0  0  0  0  0
  191.7350  176.8560  146.5790 N   0  0  0  0  0  0  0  0  0  0  0  0
  190.3440  176.9230  146.9890 C   0  0  0  0  0  1  0  0  0  0  0  0
  192.2760  175.6360  147.1550 C   0  0  0  0  0  1  0  0  0  0  0  0
  1  4  2  0  0  0  0
  2 11  2  0  0  0  0
  2  1  1  0  0  0  0
  3 13  2  0  0  0  0
  4  7  1  0  0  0  0
  4 16  1  0  0  0  0
  6 18  2  0  0  0  0
  6  3  1  0  0  0  0
  7 14  1  6  0  0  0
  7  8  1  0  0  0  0
  8  5  2  0  0  0  0
  9 15  1  0  0  0  0
  9 18  1  0  0  0  0
 10  9  1  0  0  0  0
 12  5  1  0  0  0  0
 13  1  1  0  0  0  0
 13 14  1  0  0  0  0
 15 17  2  0  0  0  0
 16 12  2  0  0  0  0
 17 19  1  0  0  0  0
 17 11  1  0  0  0  0
 18  2  1  0  0  0  0
 19 20  1  0  0  0  0
 20 21  1  0  0  0  0
 21 22  1  0  0  0  0
 22 23  1  0  0  0  0
 23 24  1  0  0  0  0
 23 25  1  0  0  0  0
M  END
>  <MODEL>
3

>  <REMARK>
 VINA RESULT:      -8.9      2.559      6.182
  Name = 
  5 active torsions:
  status: ('A' for Active; 'I' for Inactive)
    1  A    between atoms: N_2  and  O_25
    2  A    between atoms: C_6  and  C_15
    3  A    between atoms: C_6  and  C_23
    4  A    between atoms: C_15  and  C_21
    5  A    between atoms: C_21  and  O_25
                            x       y       z     vdW  Elec       q    Type
                         _______ _______ _______ _____ _____    ______ ____

>  <TORSDO>
F 5

$$$$
=
 OpenBabel10262419503D

 25 28  0  0  0  0  0  0  0  0999 V2000
  187.3540  177.8260  145.6620 C   0  0  0  0  0  0  0  0  0  0  0  0
  188.6840  177.4100  145.4700 C   0  0  0  0  0  0  0  0  0  0  0  0
  187.7050  177.8940  148.0600 C   0  0  0  0  0  3  0  0  0  0  0  0
  186.3570  178.0610  144.6970 C   0  0  0  0  0  0  0  0  0  0  0  0
  184.1260  178.6270  143.1550 C   0  0  0  0  0  3  0  0  0  0  0  0
  188.9900  177.4920  147.8620 N   0  0  0  0  0  0  0  0  0  0  0  0
  185.1540  178.4650  145.2630 C   0  0  0  0  0  0  0  0  0  0  0  0
  184.0600  178.7440  144.5120 N   0  0  0  0  0  0  0  0  0  0  0  0
  190.8560  176.8120  146.4610 N   0  0  0  0  0  0  0  0  0  0  0  0
  191.7280  176.6710  147.6140 C   0  0  0  0  0  1  0  0  0  0  0  0
  189.2520  177.1910  144.0910 C   0  0  0  0  0  3  0  0  0  0  0  0
  185.3210  178.2200  142.5310 C   0  0  0  0  0  3  0  0  0  0  0  0
  186.8840  178.0600  146.9530 C   0  0  0  0  0  0  0  0  0  0  0  0
  185.2680  178.5500  146.9390 S   0  0  0  0  0  0  0  0  0  0  0  0
  191.3640  176.4480  145.1750 C   0  0  0  0  0  3  0  0  0  0  0  0
  186.4520  177.9320  143.3100 C   0  0  0  0  0  2  0  0  0  0  0  0
  190.6260  176.5770  144.0690 C   0  0  0  0  0  0  0  0  0  0  0  0
  189.4970  177.2490  146.6140 C   0  0  0  0  0  0  0  0  0  0  0  0
  191.2110  176.2030  142.7500 C   0  0  0  0  0  2  0  0  0  0  0  0
  191.7950  177.4220  142.0610 C   0  0  0  0  0  2  0  0  0  0  0  0
  191.4290  177.3930  140.5920 C   0  0  0  0  0  2  0  0  0  0  0  0
  190.5360  176.3450  140.3560 O   0  0  0  0  0  0  0  0  0  0  0  0
  190.2560  176.4170  139.0330 N   0  0  0  0  0  0  0  0  0  0  0  0
  189.5800  177.6840  138.8140 C   0  0  0  0  0  1  0  0  0  0  0  0
  191.5290  176.5050  138.3380 C   0  0  0  0  0  1  0  0  0  0  0  0
  1 13  1  0  0  0  0
  2  1  1  0  0  0  0
  2 18  1  0  0  0  0
  4  7  1  0  0  0  0
  4  1  2  0  0  0  0
  5  8  1  0  0  0  0
  6  3  1  0  0  0  0
  7 14  1  0  0  0  0
  8  7  2  0  0  0  0
  9 18  1  0  0  0  0
  9 10  1  0  0  0  0
 11  2  2  0  0  0  0
 12  5  2  0  0  0  0
 12 16  1  0  0  0  0
 13  3  2  0  0  0  0
 14 13  1  0  0  0  0
 15  9  1  0  0  0  0
 16  4  1  0  0  0  0
 17 11  1  0  0  0  0
 17 15  2  0  0  0  0
 18  6  2  0  0  0  0
 19 17  1  0  0  0  0
 20 19  1  0  0  0  0
 21 20  1  0  0  0  0
 22 21  1  0  0  0  0
 23 22  1  0  0  0  0
 24 23  1  0  0  0  0
 25 23  1  0  0  0  0
M  END
>  <MODEL>
4

>  <REMARK>
 VINA RESULT:      -8.9      1.773      4.915
  Name = 
  5 active torsions:
  status: ('A' for Active; 'I' for Inactive)
    1  A    between atoms: N_2  and  O_25
    2  A    between atoms: C_6  and  C_15
    3  A    between atoms: C_6  and  C_23
    4  A    between atoms: C_15  and  C_21
    5  A    between atoms: C_21  and  O_25
                            x       y       z     vdW  Elec       q    Type
                         _______ _______ _______ _____ _____    ______ ____

>  <TORSDO>
F 5

$$$$
=
 OpenBabel10262419503D

 25 28  0  0  0  0  0  0  0  0999 V2000
  189.3540  177.4280  144.0390 C   0  0  0  0  0  0  0  0  0  0  0  0
  188.3350  177.6570  144.9810 C   0  0  0  0  0  0  0  0  0  0  0  0
  190.9130  176.9190  145.8240 C   0  0  0  0  0  3  0  0  0  0  0  0
  189.2900  177.5110  142.6360 C   0  0  0  0  0  0  0  0  0  0  0  0
  189.6070  177.5580  139.8840 C   0  0  0  0  0  3  0  0  0  0  0  0
  189.9190  177.1410  146.7270 N   0  0  0  0  0  0  0  0  0  0  0  0
  190.5040  177.2130  142.0290 C   0  0  0  0  0  0  0  0  0  0  0  0
  190.6630  177.2330  140.6820 N   0  0  0  0  0  0  0  0  0  0  0  0
  187.6460  177.7400  147.3420 N   0  0  0  0  0  0  0  0  0  0  0  0
  187.9310  177.5550  148.7550 C   0  0  0  0  0  1  0  0  0  0  0  0
  186.9310  178.0050  144.5580 C   0  0  0  0  0  3  0  0  0  0  0  0
  188.3550  177.8690  140.4470 C   0  0  0  0  0  3  0  0  0  0  0  0
  190.6270  177.0640  144.4730 C   0  0  0  0  0  0  0  0  0  0  0  0
  191.6800  176.8410  143.1730 S   0  0  0  0  0  0  0  0  0  0  0  0
  186.3530  178.2240  146.9670 C   0  0  0  0  0  3  0  0  0  0  0  0
  188.1920  177.8470  141.8400 C   0  0  0  0  0  2  0  0  0  0  0  0
  186.0130  178.3930  145.6870 C   0  0  0  0  0  0  0  0  0  0  0  0
  188.6540  177.5020  146.3490 C   0  0  0  0  0  0  0  0  0  0  0  0
  184.6460  178.8800  145.3490 C   0  0  0  0  0  2  0  0  0  0  0  0
  184.6490  179.5870  144.0060 C   0  0  0  0  0  2  0  0  0  0  0  0
  183.6530  178.9170  143.0830 C   0  0  0  0  0  2  0  0  0  0  0  0
  184.2930  177.9000  142.3690 O   0  0  0  0  0  0  0  0  0  0  0  0
  183.8170  178.0090  141.1060 N   0  0  0  0  0  0  0  0  0  0  0  0
  182.4840  178.5780  141.2060 C   0  0  0  0  0  1  0  0  0  0  0  0
  184.6370  179.0010  140.4310 C   0  0  0  0  0  1  0  0  0  0  0  0
  1 13  1  0  0  0  0
  1  2  1  0  0  0  0
  2 18  1  0  0  0  0
  3  6  1  0  0  0  0
  4  1  2  0  0  0  0
  5 12  2  0  0  0  0
  5  8  1  0  0  0  0
  7  4  1  0  0  0  0
  7 14  1  0  0  0  0
  8  7  2  0  0  0  0
  9 10  1  0  0  0  0
 11  2  2  0  0  0  0
 11 17  1  0  0  0  0
 12 16  1  0  0  0  0
 13  3  2  0  0  0  0
 14 13  1  0  0  0  0
 15  9  1  0  0  0  0
 16  4  1  0  0  0  0
 17 15  2  0  0  0  0
 18  6  2  0  0  0  0
 18  9  1  0  0  0  0
 19 17  1  0  0  0  0
 20 19  1  0  0  0  0
 21 20  1  0  0  0  0
 22 21  1  0  0  0  0
 23 24  1  0  0  0  0
 23 22  1  0  0  0  0
 25 23  1  0  0  0  0
M  END
>  <MODEL>
5

>  <REMARK>
 VINA RESULT:      -8.7      2.475      5.207
  Name = 
  5 active torsions:
  status: ('A' for Active; 'I' for Inactive)
    1  A    between atoms: N_2  and  O_25
    2  A    between atoms: C_6  and  C_15
    3  A    between atoms: C_6  and  C_23
    4  A    between atoms: C_15  and  C_21
    5  A    between atoms: C_21  and  O_25
                            x       y       z     vdW  Elec       q    Type
                         _______ _______ _______ _____ _____    ______ ____

>  <TORSDO>
F 5

$$$$
=
 OpenBabel10262419503D

 25 28  0  0  0  0  0  0  0  0999 V2000
  187.9540  177.6520  145.5770 C   0  0  0  0  0  0  0  0  0  0  0  0
  187.3320  177.8960  144.3400 C   0  0  0  0  0  0  0  0  0  0  0  0
  185.8890  178.1730  146.7360 C   0  0  0  0  0  3  0  0  0  0  0  0
  189.2810  177.2600  145.8330 C   0  0  0  0  0  0  0  0  0  0  0  0
  191.7720  176.5000  146.7800 C   0  0  0  0  0  3  0  0  0  0  0  0
  185.2970  178.4050  145.5330 N   0  0  0  0  0  0  0  0  0  0  0  0
  189.5390  177.1120  147.1910 C   0  0  0  0  0  0  0  0  0  0  0  0
  190.7570  176.7390  147.6590 N   0  0  0  0  0  0  0  0  0  0  0  0
  185.3050  178.5510  143.1070 N   0  0  0  0  0  0  0  0  0  0  0  0
  183.8980  178.9110  143.0780 C   0  0  0  0  0  1  0  0  0  0  0  0
  188.0660  177.7080  143.0360 C   0  0  0  0  0  3  0  0  0  0  0  0
  191.5630  176.6360  145.3950 C   0  0  0  0  0  3  0  0  0  0  0  0
  187.2250  177.7950  146.7560 C   0  0  0  0  0  0  0  0  0  0  0  0
  188.1720  177.4510  148.1110 S   0  0  0  0  0  0  0  0  0  0  0  0
  186.0270  178.5310  141.8720 C   0  0  0  0  0  3  0  0  0  0  0  0
  190.3030  177.0210  144.9130 C   0  0  0  0  0  2  0  0  0  0  0  0
  187.3160  178.1830  141.8200 C   0  0  0  0  0  0  0  0  0  0  0  0
  185.9720  178.2790  144.3480 C   0  0  0  0  0  0  0  0  0  0  0  0
  188.0160  178.1580  140.5050 C   0  0  0  0  0  2  0  0  0  0  0  0
  189.3090  177.3710  140.6050 C   0  0  0  0  0  2  0  0  0  0  0  0
  189.9450  177.2710  139.2340 C   0  0  0  0  0  2  0  0  0  0  0  0
  190.5050  176.0010  139.0730 O   0  0  0  0  0  0  0  0  0  0  0  0
  190.7450  175.8920  137.7440 N   0  0  0  0  0  0  0  0  0  0  0  0
  190.0230  174.7200  137.2810 C   0  0  0  0  0  1  0  0  0  0  0  0
  190.1190  177.0390  137.1090 C   0  0  0  0  0  1  0  0  0  0  0  0
  1  4  2  0  0  0  0
  1 13  1  0  0  0  0
  2 18  1  0  0  0  0
  2  1  1  0  0  0  0
  3 13  2  0  0  0  0
  4  7  1  0  0  0  0
  5  8  1  0  0  0  0
  6  3  1  0  0  0  0
  7  8  2  0  0  0  0
  7 14  1  0  0  0  0
  9 18  1  0  0  0  0
 10  9  1  0  0  0  0
 11  2  2  0  0  0  0
 12  5  2  0  0  0  0
 13 14  1  0  0  0  0
 15  9  1  0  0  0  0
 16 12  1  0  0  0  0
 16  4  1  0  0  0  0
 17 15  2  0  0  0  0
 17 11  1  0  0  0  0
 18  6  2  0  0  0  0
 19 20  1  0  0  0  0
 19 17  1  0  0  0  0
 21 20  1  0  0  0  0
 22 21  1  0  0  0  0
 23 22  1  0  0  0  0
 24 23  1  0  0  0  0
 25 23  1  0  0  0  0
M  END
>  <MODEL>
6

>  <REMARK>
 VINA RESULT:      -8.4      1.393      1.557
  Name = 
  5 active torsions:
  status: ('A' for Active; 'I' for Inactive)
    1  A    between atoms: N_2  and  O_25
    2  A    between atoms: C_6  and  C_15
    3  A    between atoms: C_6  and  C_23
    4  A    between atoms: C_15  and  C_21
    5  A    between atoms: C_21  and  O_25
                            x       y       z     vdW  Elec       q    Type
                         _______ _______ _______ _____ _____    ______ ____

>  <TORSDO>
F 5

$$$$
=
 OpenBabel10262419503D

 25 28  0  0  0  0  0  0  0  0999 V2000
  187.2320  177.8080  144.8240 C   0  0  0  0  0  0  0  0  0  0  0  0
  188.2510  177.4930  143.9060 C   0  0  0  0  0  0  0  0  0  0  0  0
  188.6720  177.1670  146.6660 C   0  0  0  0  0  3  0  0  0  0  0  0
  185.9390  178.3000  144.5690 C   0  0  0  0  0  0  0  0  0  0  0  0
  183.3390  179.2550  144.5230 C   0  0  0  0  0  3  0  0  0  0  0  0
  189.6510  176.8670  145.7690 N   0  0  0  0  0  0  0  0  0  0  0  0
  185.2050  178.4950  145.7330 C   0  0  0  0  0  0  0  0  0  0  0  0
  183.9320  178.9630  145.7150 N   0  0  0  0  0  0  0  0  0  0  0  0
  190.5370  176.6700  143.5140 N   0  0  0  0  0  0  0  0  0  0  0  0
  191.8220  176.2090  144.0110 C   0  0  0  0  0  1  0  0  0  0  0  0
  188.0720  177.7050  142.4240 C   0  0  0  0  0  3  0  0  0  0  0  0
  184.0380  179.0750  143.3140 C   0  0  0  0  0  3  0  0  0  0  0  0
  187.4570  177.6390  146.1890 C   0  0  0  0  0  0  0  0  0  0  0  0
  186.1020  178.0790  147.0940 S   0  0  0  0  0  0  0  0  0  0  0  0
  190.3300  176.7150  142.1000 C   0  0  0  0  0  3  0  0  0  0  0  0
  185.3540  178.5910  143.3350 C   0  0  0  0  0  2  0  0  0  0  0  0
  189.1840  177.1520  141.5730 C   0  0  0  0  0  0  0  0  0  0  0  0
  189.4780  177.0150  144.4190 C   0  0  0  0  0  0  0  0  0  0  0  0
  189.0280  177.1980  140.0910 C   0  0  0  0  0  2  0  0  0  0  0  0
  187.9920  178.2350  139.6970 C   0  0  0  0  0  2  0  0  0  0  0  0
  187.4100  177.8760  138.3460 C   0  0  0  0  0  2  0  0  0  0  0  0
  186.3480  178.7360  138.0540 O   0  0  0  0  0  0  0  0  0  0  0  0
  185.2770  178.1890  138.6770 N   0  0  0  0  0  0  0  0  0  0  0  0
  184.3940  179.2840  139.0360 C   0  0  0  0  0  1  0  0  0  0  0  0
  184.5700  177.3990  137.6830 C   0  0  0  0  0  1  0  0  0  0  0  0
  1 13  1  0  0  0  0
  2 18  1  0  0  0  0
  2  1  1  0  0  0  0
  4  1  2  0  0  0  0
  4  7  1  0  0  0  0
  5  8  1  0  0  0  0
  6  3  1  0  0  0  0
  7 14  1  0  0  0  0
  8  7  2  0  0  0  0
  9 10  1  0  0  0  0
  9 18  1  0  0  0  0
 11  2  2  0  0  0  0
 12 16  1  0  0  0  0
 12  5  2  0  0  0  0
 13  3  2  0  0  0  0
 13 14  1  0  0  0  0
 15  9  1  0  0  0  0
 16  4  1  0  0  0  0
 17 15  2  0  0  0  0
 17 11  1  0  0  0  0
 18  6  2  0  0  0  0
 19 17  1  0  0  0  0
 20 19  1  0  0  0  0
 21 20  1  0  0  0  0
 22 21  1  0  0  0  0
 22 23  1  0  0  0  0
 23 24  1  0  0  0  0
 25 23  1  0  0  0  0
M  END
>  <MODEL>
7

>  <REMARK>
 VINA RESULT:      -8.3      1.948      4.736
  Name = 
  5 active torsions:
  status: ('A' for Active; 'I' for Inactive)
    1  A    between atoms: N_2  and  O_25
    2  A    between atoms: C_6  and  C_15
    3  A    between atoms: C_6  and  C_23
    4  A    between atoms: C_15  and  C_21
    5  A    between atoms: C_21  and  O_25
                            x       y       z     vdW  Elec       q    Type
                         _______ _______ _______ _____ _____    ______ ____

>  <TORSDO>
F 5

$$$$
=
 OpenBabel10262419503D

 25 28  0  0  0  0  0  0  0  0999 V2000
  185.5810  178.4100  144.3970 C   0  0  0  0  0  0  0  0  0  0  0  0
  186.8200  178.0860  144.9800 C   0  0  0  0  0  0  0  0  0  0  0  0
  184.5620  178.5320  146.5940 C   0  0  0  0  0  3  0  0  0  0  0  0
  185.2620  178.5630  143.0360 C   0  0  0  0  0  0  0  0  0  0  0  0
  184.2090  178.9530  140.5030 C   0  0  0  0  0  3  0  0  0  0  0  0
  185.7660  178.2190  147.1460 N   0  0  0  0  0  0  0  0  0  0  0  0
  183.9270  178.8900  142.8360 C   0  0  0  0  0  0  0  0  0  0  0  0
  183.4070  179.0820  141.5970 N   0  0  0  0  0  0  0  0  0  0  0  0
  188.1260  177.6540  147.0200 N   0  0  0  0  0  0  0  0  0  0  0  0
  188.2340  177.5880  148.4680 C   0  0  0  0  0  1  0  0  0  0  0  0
  188.0590  177.8910  144.1440 C   0  0  0  0  0  3  0  0  0  0  0  0
  185.5690  178.6230  140.6500 C   0  0  0  0  0  3  0  0  0  0  0  0
  184.4720  178.6270  145.2120 C   0  0  0  0  0  0  0  0  0  0  0  0
  183.1020  179.0020  144.2980 S   0  0  0  0  0  0  0  0  0  0  0  0
  189.2720  177.3110  146.2360 C   0  0  0  0  0  3  0  0  0  0  0  0
  186.1050  178.4250  141.9310 C   0  0  0  0  0  2  0  0  0  0  0  0
  189.2520  177.3740  144.9020 C   0  0  0  0  0  0  0  0  0  0  0  0
  186.8840  177.9970  146.3890 C   0  0  0  0  0  0  0  0  0  0  0  0
  190.4810  177.0250  144.1340 C   0  0  0  0  0  2  0  0  0  0  0  0
  190.1630  176.0040  143.0570 C   0  0  0  0  0  2  0  0  0  0  0  0
  190.4960  176.5840  141.6990 C   0  0  0  0  0  2  0  0  0  0  0  0
  189.3550  177.1830  141.1580 O   0  0  0  0  0  0  0  0  0  0  0  0
  189.5370  177.1270  139.8160 N   0  0  0  0  0  0  0  0  0  0  0  0
  189.0580  178.3860  139.2740 C   0  0  0  0  0  1  0  0  0  0  0  0
  190.9710  177.0990  139.5860 C   0  0  0  0  0  1  0  0  0  0  0  0
  1  2  1  0  0  0  0
  1 13  1  0  0  0  0
  2 18  1  0  0  0  0
  3  6  1  0  0  0  0
  4  1  2  0  0  0  0
  5 12  2  0  0  0  0
  5  8  1  0  0  0  0
  7  4  1  0  0  0  0
  7 14  1  0  0  0  0
  8  7  2  0  0  0  0
  9 10  1  0  0  0  0
 11 17  1  0  0  0  0
 11  2  2  0  0  0  0
 12 16  1  0  0  0  0
 13  3  2  0  0  0  0
 14 13  1  0  0  0  0
 15  9  1  0  0  0  0
 16  4  1  0  0  0  0
 17 15  2  0  0  0  0
 18  9  1  0  0  0  0
 18  6  2  0  0  0  0
 19 17  1  0  0  0  0
 20 19  1  0  0  0  0
 21 20  1  0  0  0  0
 22 21  1  0  0  0  0
 23 22  1  0  0  0  0
 24 23  1  0  0  0  0
 25 23  1  0  0  0  0
M  END
>  <MODEL>
8

>  <REMARK>
 VINA RESULT:      -8.3      2.151      4.974
  Name = 
  5 active torsions:
  status: ('A' for Active; 'I' for Inactive)
    1  A    between atoms: N_2  and  O_25
    2  A    between atoms: C_6  and  C_15
    3  A    between atoms: C_6  and  C_23
    4  A    between atoms: C_15  and  C_21
    5  A    between atoms: C_21  and  O_25
                            x       y       z     vdW  Elec       q    Type
                         _______ _______ _______ _____ _____    ______ ____

>  <TORSDO>
F 5

$$$$
=
 OpenBabel10262419503D

 25 28  0  0  0  0  0  0  0  0999 V2000
  189.1770  177.5460  143.1560 C   0  0  0  0  0  0  0  0  0  0  0  0
  187.9660  177.7750  143.8340 C   0  0  0  0  0  0  0  0  0  0  0  0
  190.3560  177.4240  145.2710 C   0  0  0  0  0  3  0  0  0  0  0  0
  189.4070  177.4540  141.7720 C   0  0  0  0  0  0  0  0  0  0  0  0
  190.2990  177.2070  139.1600 C   0  0  0  0  0  3  0  0  0  0  0  0
  189.1780  177.6450  145.9160 N   0  0  0  0  0  0  0  0  0  0  0  0
  190.7430  177.2190  141.4680 C   0  0  0  0  0  0  0  0  0  0  0  0
  191.1840  177.0960  140.1920 N   0  0  0  0  0  0  0  0  0  0  0  0
  186.7850  178.0640  145.9740 N   0  0  0  0  0  0  0  0  0  0  0  0
  186.7760  178.0800  147.4260 C   0  0  0  0  0  1  0  0  0  0  0  0
  186.6610  177.9170  143.0930 C   0  0  0  0  0  3  0  0  0  0  0  0
  188.9350  177.4460  139.4120 C   0  0  0  0  0  3  0  0  0  0  0  0
  190.3530  177.3760  143.8840 C   0  0  0  0  0  0  0  0  0  0  0  0
  191.6750  177.1150  142.8660 S   0  0  0  0  0  0  0  0  0  0  0  0
  185.5670  178.3580  145.2830 C   0  0  0  0  0  3  0  0  0  0  0  0
  188.4810  177.5720  140.7330 C   0  0  0  0  0  2  0  0  0  0  0  0
  185.4960  178.3350  143.9490 C   0  0  0  0  0  0  0  0  0  0  0  0
  187.9970  177.8190  145.2460 C   0  0  0  0  0  0  0  0  0  0  0  0
  184.1970  178.6280  143.2800 C   0  0  0  0  0  2  0  0  0  0  0  0
  184.1110  177.9090  141.9460 C   0  0  0  0  0  2  0  0  0  0  0  0
  183.6490  178.8800  140.8800 C   0  0  0  0  0  2  0  0  0  0  0  0
  184.7340  179.6470  140.4490 O   0  0  0  0  0  0  0  0  0  0  0  0
  184.5730  179.7530  139.1080 N   0  0  0  0  0  0  0  0  0  0  0  0
  184.8030  178.4320  138.5500 C   0  0  0  0  0  1  0  0  0  0  0  0
  183.1730  180.0600  138.8750 C   0  0  0  0  0  1  0  0  0  0  0  0
  1  2  1  0  0  0  0
  1 13  1  0  0  0  0
  2 18  1  0  0  0  0
  3  6  1  0  0  0  0
  4  1  2  0  0  0  0
  5 12  2  0  0  0  0
  5  8  1  0  0  0  0
  7  4  1  0  0  0  0
  7 14  1  0  0  0  0
  8  7  2  0  0  0  0
  9 10  1  0  0  0  0
 11  2  2  0  0  0  0
 11 17  1  0  0  0  0
 12 16  1  0  0  0  0
 13  3  2  0  0  0  0
 14 13  1  0  0  0  0
 15  9  1  0  0  0  0
 16  4  1  0  0  0  0
 17 15  2  0  0  0  0
 18  6  2  0  0  0  0
 18  9  1  0  0  0  0
 19 17  1  0  0  0  0
 20 19  1  0  0  0  0
 21 20  1  0  0  0  0
 22 21  1  0  0  0  0
 23 22  1  0  0  0  0
 24 23  1  0  0  0  0
 25 23  1  0  0  0  0
M  END
>  <MODEL>
9

>  <REMARK>
 VINA RESULT:      -8.3      2.601      4.659
  Name = 
  5 active torsions:
  status: ('A' for Active; 'I' for Inactive)
    1  A    between atoms: N_2  and  O_25
    2  A    between atoms: C_6  and  C_15
    3  A    between atoms: C_6  and  C_23
    4  A    between atoms: C_15  and  C_21
    5  A    between atoms: C_21  and  O_25
                            x       y       z     vdW  Elec       q    Type
                         _______ _______ _______ _____ _____    ______ ____

>  <TORSDO>
F 5

$$$$
