=
 OpenBabel10252415033D

 34 38  0  0  1  0  0  0  0  0999 V2000
  187.5190  176.2650  136.8110 C   0  0  0  0  0  0  0  0  0  0  0  0
  187.6690  177.8230  138.6770 C   0  0  0  0  0  0  0  0  0  0  0  0
  189.6160  176.1490  138.1660 C   0  0  2  0  0  3  0  0  0  0  0  0
  191.7940  176.9600  139.0150 C   0  0  0  0  0  0  0  0  0  0  0  0
  185.6510  177.7110  137.3370 C   0  0  0  0  0  3  0  0  0  0  0  0
  186.3730  178.2640  138.3920 C   0  0  0  0  0  3  0  0  0  0  0  0
  190.1190  176.8580  140.5900 N   0  0  0  0  0  0  0  0  0  0  0  0
  188.2530  176.7880  137.9050 C   0  0  0  0  0  0  0  0  0  0  0  0
  191.1990  177.3630  142.6880 C   0  0  0  0  0  2  0  0  0  0  0  0
  192.7410  177.5230  140.4300 S   0  0  0  0  0  0  0  0  0  0  0  0
  186.2280  176.7260  136.5410 C   0  0  0  0  0  3  0  0  0  0  0  0
  189.5210  174.8160  136.2700 C   0  0  0  0  0  2  0  0  0  0  0  0
  188.1400  175.3070  135.8290 C   0  0  0  0  0  2  0  0  0  0  0  0
  188.3330  178.4580  139.6680 F   0  0  0  0  0  0  0  0  0  0  0  0
  192.4130  176.4510  137.8430 N   0  0  0  0  0  2  0  0  0  0  0  0
  191.6940  175.4930  137.0060 C   0  0  1  0  0  3  0  0  0  0  0  0
  191.2450  177.2400  141.3660 C   0  0  0  0  0  0  0  0  0  0  0  0
  190.5020  176.7680  139.2250 C   0  0  0  0  0  0  0  0  0  0  0  0
  190.2840  175.9120  136.8650 N   0  0  2  0  0  0  0  0  0  0  0  0
  193.7560  173.0800  136.8260 C   0  0  0  0  0  2  0  0  0  0  0  0
  194.9390  173.7970  136.1890 C   0  0  0  0  0  2  0  0  0  0  0  0
  192.3930  175.3870  135.6260 C   0  0  2  0  0  3  0  0  0  0  0  0
  194.8190  175.2850  136.4760 C   0  0  0  0  0  2  0  0  0  0  0  0
  192.3630  173.9920  134.9850 C   0  0  0  0  0  2  0  0  0  0  0  0
  193.8130  175.9690  135.5520 C   0  0  0  0  0  2  0  0  0  0  0  0
  192.6250  172.8780  135.9100 N   0  0  0  0  0  2  0  0  0  0  0  0
  189.9930  177.1220  143.4060 N   0  0  0  0  0  0  0  0  0  0  0  0
  189.7160  177.8190  144.4560 C   0  0  0  0  0  3  0  0  0  0  0  0
  188.4540  177.5670  145.2060 C   0  0  0  0  0  2  0  0  0  0  0  0
  190.0250  176.8860  147.0320 C   0  0  0  0  0  1  0  0  0  0  0  0
  188.7370  177.4270  146.6250 N   0  0  0  0  0  0  0  0  0  0  0  0
  188.0460  177.7690  148.8340 O   0  0  0  0  0  1  0  0  0  0  0  0
  186.5670  178.4010  147.2070 O   0  0  0  0  0  0  0  0  0  0  0  0
  187.7860  177.8660  147.6040 C   0  0  0  0  0  0  0  0  0  0  0  0
  1  8  1  0  0  0  0
  2 14  1  0  0  0  0
  3  8  1  6  0  0  0
  3 18  1  0  0  0  0
  4 18  2  0  0  0  0
  4 10  1  0  0  0  0
  5  6  2  0  0  0  0
  6  2  1  0  0  0  0
  7 17  2  0  0  0  0
  8  2  2  0  0  0  0
  9 27  1  0  0  0  0
 10 17  1  0  0  0  0
 11  1  2  0  0  0  0
 11  5  1  0  0  0  0
 13 12  1  0  0  0  0
 13  1  1  0  0  0  0
 15  4  1  0  0  0  0
 16 15  1  1  0  0  0
 17  9  1  0  0  0  0
 18  7  1  0  0  0  0
 19 12  1  1  0  0  0
 19 16  1  0  0  0  0
 19  3  1  0  0  0  0
 21 23  1  0  0  0  0
 21 20  1  0  0  0  0
 22 24  1  1  0  0  0
 22 16  1  0  0  0  0
 24 26  1  0  0  0  0
 25 22  1  0  0  0  0
 25 23  1  0  0  0  0
 26 20  1  0  0  0  0
 27 28  2  0  0  0  0
 28 29  1  0  0  0  0
 29 31  1  0  0  0  0
 31 30  1  0  0  0  0
 31 34  1  0  0  0  0
 33 34  2  0  0  0  0
 34 32  1  0  0  0  0
M  END
>  <MODEL>
1

>  <REMARK>
 VINA RESULT:      -7.8      0.000      0.000
  Name = 
  4 active torsions:
  status: ('A' for Active; 'I' for Inactive)
    1  A    between atoms: N_3  and  C_17
    2  A    between atoms: C_12  and  C_28
    3  A    between atoms: C_13  and  C_33
    4  A    between atoms: N_14  and  C_33
                            x       y       z     vdW  Elec       q    Type
                         _______ _______ _______ _____ _____    ______ ____

>  <TORSDO>
F 4

$$$$
=
 OpenBabel10252415033D

 34 38  0  0  1  0  0  0  0  0999 V2000
  187.3740  176.4930  136.6240 C   0  0  0  0  0  0  0  0  0  0  0  0
  187.2890  177.8330  138.6560 C   0  0  0  0  0  0  0  0  0  0  0  0
  189.3240  176.2590  138.1690 C   0  0  2  0  0  3  0  0  0  0  0  0
  191.3810  177.0050  139.3250 C   0  0  0  0  0  0  0  0  0  0  0  0
  185.4220  177.8400  137.1090 C   0  0  0  0  0  3  0  0  0  0  0  0
  186.0180  178.2820  138.2880 C   0  0  0  0  0  3  0  0  0  0  0  0
  189.5580  176.6980  140.6960 N   0  0  0  0  0  0  0  0  0  0  0  0
  187.9780  176.9010  137.8400 C   0  0  0  0  0  0  0  0  0  0  0  0
  190.4050  176.9810  142.9380 C   0  0  0  0  0  2  0  0  0  0  0  0
  192.1630  177.4200  140.8840 S   0  0  0  0  0  0  0  0  0  0  0  0
  186.1050  176.9600  136.2740 C   0  0  0  0  0  3  0  0  0  0  0  0
  189.4600  175.1470  136.1380 C   0  0  0  0  0  2  0  0  0  0  0  0
  188.1180  175.6610  135.6120 C   0  0  0  0  0  2  0  0  0  0  0  0
  187.8310  178.3620  139.7750 F   0  0  0  0  0  0  0  0  0  0  0  0
  192.1300  176.6420  138.1740 N   0  0  0  0  0  2  0  0  0  0  0  0
  191.5270  175.7720  137.1670 C   0  0  1  0  0  3  0  0  0  0  0  0
  190.5880  177.0090  141.6220 C   0  0  0  0  0  0  0  0  0  0  0  0
  190.0800  176.7700  139.3760 C   0  0  0  0  0  0  0  0  0  0  0  0
  190.1280  176.1810  136.9270 N   0  0  2  0  0  0  0  0  0  0  0  0
  193.3250  173.1900  136.7080 C   0  0  0  0  0  2  0  0  0  0  0  0
  194.6440  173.8550  136.3370 C   0  0  0  0  0  2  0  0  0  0  0  0
  192.3660  175.8340  135.8640 C   0  0  2  0  0  3  0  0  0  0  0  0
  194.6520  175.2680  136.8980 C   0  0  0  0  0  2  0  0  0  0  0  0
  192.2600  174.5950  134.9610 C   0  0  0  0  0  2  0  0  0  0  0  0
  193.8390  176.2330  136.0370 C   0  0  0  0  0  2  0  0  0  0  0  0
  192.2920  173.3060  135.6700 N   0  0  0  0  0  2  0  0  0  0  0  0
  189.1390  176.6410  143.4950 N   0  0  0  0  0  0  0  0  0  0  0  0
  188.3920  177.5600  144.0080 C   0  0  0  0  0  3  0  0  0  0  0  0
  187.0680  177.2040  144.5900 C   0  0  0  0  0  2  0  0  0  0  0  0
  187.8210  177.6070  146.9430 C   0  0  0  0  0  1  0  0  0  0  0  0
  186.8850  177.8810  145.8640 N   0  0  0  0  0  0  0  0  0  0  0  0
  185.6960  179.4460  147.1310 O   0  0  0  0  0  1  0  0  0  0  0  0
  184.9570  179.1120  144.9920 O   0  0  0  0  0  0  0  0  0  0  0  0
  185.8340  178.8410  146.0350 C   0  0  0  0  0  0  0  0  0  0  0  0
  1  8  1  0  0  0  0
  2 14  1  0  0  0  0
  3  8  1  6  0  0  0
  3 18  1  0  0  0  0
  4 18  2  0  0  0  0
  4 10  1  0  0  0  0
  5  6  2  0  0  0  0
  6  2  1  0  0  0  0
  7 17  2  0  0  0  0
  8  2  2  0  0  0  0
  9 27  1  0  0  0  0
 10 17  1  0  0  0  0
 11  1  2  0  0  0  0
 11  5  1  0  0  0  0
 13 12  1  0  0  0  0
 13  1  1  0  0  0  0
 15  4  1  0  0  0  0
 16 15  1  1  0  0  0
 17  9  1  0  0  0  0
 18  7  1  0  0  0  0
 19 12  1  6  0  0  0
 19 16  1  0  0  0  0
 19  3  1  0  0  0  0
 21 20  1  0  0  0  0
 21 23  1  0  0  0  0
 22 24  1  1  0  0  0
 22 25  1  0  0  0  0
 22 16  1  0  0  0  0
 24 26  1  0  0  0  0
 25 23  1  0  0  0  0
 26 20  1  0  0  0  0
 27 28  2  0  0  0  0
 28 29  1  0  0  0  0
 29 31  1  0  0  0  0
 31 34  1  0  0  0  0
 31 30  1  0  0  0  0
 33 34  2  0  0  0  0
 34 32  1  0  0  0  0
M  END
>  <MODEL>
2

>  <REMARK>
 VINA RESULT:      -7.8      1.001      1.188
  Name = 
  4 active torsions:
  status: ('A' for Active; 'I' for Inactive)
    1  A    between atoms: N_3  and  C_17
    2  A    between atoms: C_12  and  C_28
    3  A    between atoms: C_13  and  C_33
    4  A    between atoms: N_14  and  C_33
                            x       y       z     vdW  Elec       q    Type
                         _______ _______ _______ _____ _____    ______ ____

>  <TORSDO>
F 4

$$$$
=
 OpenBabel10252415033D

 34 38  0  0  1  0  0  0  0  0999 V2000
  188.7660  177.7920  143.8050 C   0  0  0  0  0  0  0  0  0  0  0  0
  190.7220  177.8600  142.3530 C   0  0  0  0  0  0  0  0  0  0  0  0
  188.3290  177.4710  141.3650 C   0  0  2  0  0  3  0  0  0  0  0  0
  188.1700  178.1680  138.9960 C   0  0  0  0  0  0  0  0  0  0  0  0
  190.9790  178.0250  144.7590 C   0  0  0  0  0  3  0  0  0  0  0  0
  191.5350  177.9980  143.4820 C   0  0  0  0  0  3  0  0  0  0  0  0
  189.8540  176.6670  139.4520 N   0  0  0  0  0  0  0  0  0  0  0  0
  189.3190  177.7220  142.5000 C   0  0  0  0  0  0  0  0  0  0  0  0
  190.7640  176.0720  137.2970 C   0  0  0  0  0  2  0  0  0  0  0  0
  188.8120  177.9940  137.3310 S   0  0  0  0  0  0  0  0  0  0  0  0
  189.5980  177.9370  144.9170 C   0  0  0  0  0  3  0  0  0  0  0  0
  186.4740  177.6030  142.7520 C   0  0  0  0  0  2  0  0  0  0  0  0
  187.2780  177.8490  144.0300 C   0  0  0  0  0  2  0  0  0  0  0  0
  191.3260  177.9170  141.1460 F   0  0  0  0  0  0  0  0  0  0  0  0
  186.8690  178.6750  139.2580 N   0  0  0  0  0  2  0  0  0  0  0  0
  186.1690  178.2680  140.4740 C   0  0  1  0  0  3  0  0  0  0  0  0
  189.9330  176.7960  138.0400 C   0  0  0  0  0  0  0  0  0  0  0  0
  188.8440  177.5370  139.9440 C   0  0  0  0  0  0  0  0  0  0  0  0
  187.1080  178.2700  141.6150 N   0  0  2  0  0  0  0  0  0  0  0  0
  183.3540  176.9540  139.8010 C   0  0  0  0  0  2  0  0  0  0  0  0
  182.7250  178.0850  138.9970 C   0  0  0  0  0  2  0  0  0  0  0  0
  184.9730  179.2230  140.7230 C   0  0  2  0  0  3  0  0  0  0  0  0
  183.8350  178.9560  138.4320 C   0  0  0  0  0  2  0  0  0  0  0  0
  183.8330  178.6320  141.5660 C   0  0  0  0  0  2  0  0  0  0  0  0
  184.4010  179.9150  139.4770 C   0  0  0  0  0  2  0  0  0  0  0  0
  183.4710  177.2450  141.2360 N   0  0  0  0  0  2  0  0  0  0  0  0
  191.6390  175.1190  137.8920 N   0  0  0  0  0  0  0  0  0  0  0  0
  192.7630  174.8320  137.3250 C   0  0  0  0  0  3  0  0  0  0  0  0
  193.6780  173.8370  137.9480 C   0  0  0  0  0  2  0  0  0  0  0  0
  195.3290  173.6960  136.0720 C   0  0  0  0  0  1  0  0  0  0  0  0
  195.0330  174.0290  137.4570 N   0  0  0  0  0  0  0  0  0  0  0  0
  197.2090  174.7810  137.8680 O   0  0  0  0  0  0  0  0  0  0  0  0
  195.7470  174.9240  139.6210 O   0  0  0  0  0  1  0  0  0  0  0  0
  196.0430  174.5890  138.3060 C   0  0  0  0  0  0  0  0  0  0  0  0
  1 13  1  0  0  0  0
  1 11  1  0  0  0  0
  2  8  1  0  0  0  0
  2  6  2  0  0  0  0
  3 18  1  6  0  0  0
  3 19  1  0  0  0  0
  3  8  1  0  0  0  0
  4 15  1  0  0  0  0
  4 18  2  0  0  0  0
  5 11  2  0  0  0  0
  6  5  1  0  0  0  0
  7 18  1  0  0  0  0
  8  1  2  0  0  0  0
  9 27  1  0  0  0  0
  9 17  1  0  0  0  0
 10 17  1  0  0  0  0
 10  4  1  0  0  0  0
 12 13  1  0  0  0  0
 14  2  1  0  0  0  0
 16 15  1  6  0  0  0
 16 22  1  0  0  0  0
 16 19  1  0  0  0  0
 17  7  2  0  0  0  0
 19 12  1  1  0  0  0
 20 26  1  0  0  0  0
 21 20  1  0  0  0  0
 22 25  1  6  0  0  0
 22 24  1  0  0  0  0
 23 21  1  0  0  0  0
 23 25  1  0  0  0  0
 26 24  1  0  0  0  0
 28 27  2  0  0  0  0
 28 29  1  0  0  0  0
 30 31  1  0  0  0  0
 31 29  1  0  0  0  0
 31 34  1  0  0  0  0
 32 34  2  0  0  0  0
 34 33  1  0  0  0  0
M  END
>  <MODEL>
3

>  <REMARK>
 VINA RESULT:      -7.4      4.194      8.824
  Name = 
  4 active torsions:
  status: ('A' for Active; 'I' for Inactive)
    1  A    between atoms: N_3  and  C_17
    2  A    between atoms: C_12  and  C_28
    3  A    between atoms: C_13  and  C_33
    4  A    between atoms: N_14  and  C_33
                            x       y       z     vdW  Elec       q    Type
                         _______ _______ _______ _____ _____    ______ ____

>  <TORSDO>
F 4

$$$$
=
 OpenBabel10252415033D

 34 38  0  0  1  0  0  0  0  0999 V2000
  184.4930  178.3830  145.1550 C   0  0  0  0  0  0  0  0  0  0  0  0
  186.9160  178.6300  145.1980 C   0  0  0  0  0  0  0  0  0  0  0  0
  185.6710  177.9840  142.9870 C   0  0  2  0  0  3  0  0  0  0  0  0
  186.9510  178.6280  140.9700 C   0  0  0  0  0  0  0  0  0  0  0  0
  185.6280  178.8540  147.2400 C   0  0  0  0  0  3  0  0  0  0  0  0
  186.8510  178.8670  146.5740 C   0  0  0  0  0  3  0  0  0  0  0  0
  188.1020  177.3130  142.4680 N   0  0  0  0  0  0  0  0  0  0  0  0
  185.7330  178.3510  144.4680 C   0  0  0  0  0  0  0  0  0  0  0  0
  190.1840  176.7840  141.3670 C   0  0  0  0  0  2  0  0  0  0  0  0
  188.4910  178.4960  140.0610 S   0  0  0  0  0  0  0  0  0  0  0  0
  184.4520  178.6280  146.5290 C   0  0  0  0  0  3  0  0  0  0  0  0
  183.3520  177.9450  142.9400 C   0  0  0  0  0  2  0  0  0  0  0  0
  183.1810  178.2900  144.4200 C   0  0  0  0  0  2  0  0  0  0  0  0
  188.1280  178.7310  144.6100 F   0  0  0  0  0  0  0  0  0  0  0  0
  185.7320  179.0020  140.3450 N   0  0  0  0  0  2  0  0  0  0  0  0
  184.4630  178.5430  140.9070 C   0  0  1  0  0  3  0  0  0  0  0  0
  189.0230  177.4300  141.3930 C   0  0  0  0  0  0  0  0  0  0  0  0
  186.9440  178.0820  142.1750 C   0  0  0  0  0  0  0  0  0  0  0  0
  184.5000  178.6580  142.3800 N   0  0  2  0  0  0  0  0  0  0  0  0
  182.5520  176.8410  139.0220 C   0  0  0  0  0  2  0  0  0  0  0  0
  182.4430  177.7910  137.8370 C   0  0  0  0  0  2  0  0  0  0  0  0
  183.3020  179.3740  140.3040 C   0  0  2  0  0  3  0  0  0  0  0  0
  183.6500  178.7160  137.8420 C   0  0  0  0  0  2  0  0  0  0  0  0
  181.9050  178.7540  140.4650 C   0  0  0  0  0  2  0  0  0  0  0  0
  183.5020  179.8480  138.8570 C   0  0  0  0  0  2  0  0  0  0  0  0
  181.8370  177.3050  140.2190 N   0  0  0  0  0  2  0  0  0  0  0  0
  190.5750  175.9350  142.4410 N   0  0  0  0  0  0  0  0  0  0  0  0
  191.2630  176.4110  143.4240 C   0  0  0  0  0  3  0  0  0  0  0  0
  191.6700  175.5230  144.5470 C   0  0  0  0  0  2  0  0  0  0  0  0
  190.3370  177.1540  145.8990 C   0  0  0  0  0  1  0  0  0  0  0  0
  191.4130  176.1780  145.8200 N   0  0  0  0  0  0  0  0  0  0  0  0
  191.9240  176.3760  148.0930 O   0  0  0  0  0  1  0  0  0  0  0  0
  193.1810  174.8780  146.9060 O   0  0  0  0  0  0  0  0  0  0  0  0
  192.1690  175.8270  146.9860 C   0  0  0  0  0  0  0  0  0  0  0  0
  1 11  1  0  0  0  0
  2  6  2  0  0  0  0
  3 18  1  6  0  0  0
  3  8  1  0  0  0  0
  4 18  2  0  0  0  0
  6  5  1  0  0  0  0
  8  1  2  0  0  0  0
  8  2  1  0  0  0  0
  9 17  1  0  0  0  0
  9 27  1  0  0  0  0
 10  4  1  0  0  0  0
 10 17  1  0  0  0  0
 11  5  2  0  0  0  0
 12 13  1  0  0  0  0
 13  1  1  0  0  0  0
 14  2  1  0  0  0  0
 15  4  1  0  0  0  0
 16 15  1  6  0  0  0
 16 19  1  0  0  0  0
 17  7  2  0  0  0  0
 18  7  1  0  0  0  0
 19 12  1  1  0  0  0
 19  3  1  0  0  0  0
 20 26  1  0  0  0  0
 21 23  1  0  0  0  0
 21 20  1  0  0  0  0
 22 25  1  6  0  0  0
 22 24  1  0  0  0  0
 22 16  1  0  0  0  0
 23 25  1  0  0  0  0
 26 24  1  0  0  0  0
 27 28  2  0  0  0  0
 28 29  1  0  0  0  0
 29 31  1  0  0  0  0
 31 30  1  0  0  0  0
 31 34  1  0  0  0  0
 33 34  2  0  0  0  0
 34 32  1  0  0  0  0
M  END
>  <MODEL>
4

>  <REMARK>
 VINA RESULT:      -7.2      4.570      7.991
  Name = 
  4 active torsions:
  status: ('A' for Active; 'I' for Inactive)
    1  A    between atoms: N_3  and  C_17
    2  A    between atoms: C_12  and  C_28
    3  A    between atoms: C_13  and  C_33
    4  A    between atoms: N_14  and  C_33
                            x       y       z     vdW  Elec       q    Type
                         _______ _______ _______ _____ _____    ______ ____

>  <TORSDO>
F 4

$$$$
=
 OpenBabel10252415033D

 34 38  0  0  1  0  0  0  0  0999 V2000
  191.5830  177.5690  141.5040 C   0  0  0  0  0  0  0  0  0  0  0  0
  189.1750  177.1960  141.4760 C   0  0  0  0  0  0  0  0  0  0  0  0
  190.5960  176.9620  139.2890 C   0  0  2  0  0  3  0  0  0  0  0  0
  189.5300  175.4610  137.6360 C   0  0  0  0  0  0  0  0  0  0  0  0
  190.2770  177.9180  143.5120 C   0  0  0  0  0  3  0  0  0  0  0  0
  189.1210  177.5500  142.8270 C   0  0  0  0  0  3  0  0  0  0  0  0
  188.2020  177.1920  138.3700 N   0  0  0  0  0  0  0  0  0  0  0  0
  190.4110  177.2310  140.7810 C   0  0  0  0  0  0  0  0  0  0  0  0
  186.2140  177.0800  137.0060 C   0  0  0  0  0  2  0  0  0  0  0  0
  188.0760  175.1030  136.6490 S   0  0  0  0  0  0  0  0  0  0  0  0
  191.5040  177.9130  142.8550 C   0  0  0  0  0  3  0  0  0  0  0  0
  192.9070  177.1360  139.3930 C   0  0  0  0  0  2  0  0  0  0  0  0
  192.9520  177.4420  140.8910 C   0  0  0  0  0  2  0  0  0  0  0  0
  188.0260  176.7800  140.8990 F   0  0  0  0  0  0  0  0  0  0  0  0
  190.8130  174.9470  137.3100 N   0  0  0  0  0  2  0  0  0  0  0  0
  192.0080  175.6820  137.7190 C   0  0  1  0  0  3  0  0  0  0  0  0
  187.3890  176.5830  137.3780 C   0  0  0  0  0  0  0  0  0  0  0  0
  189.4080  176.4520  138.5040 C   0  0  0  0  0  0  0  0  0  0  0  0
  191.8400  176.1800  139.1000 N   0  0  2  0  0  0  0  0  0  0  0  0
  193.5860  176.0560  134.9850 C   0  0  0  0  0  2  0  0  0  0  0  0
  193.7760  174.5960  134.5940 C   0  0  0  0  0  2  0  0  0  0  0  0
  193.2470  174.7580  137.5970 C   0  0  2  0  0  3  0  0  0  0  0  0
  192.7100  173.7630  135.2870 C   0  0  0  0  0  2  0  0  0  0  0  0
  194.5500  175.4660  137.1950 C   0  0  0  0  0  2  0  0  0  0  0  0
  193.0540  173.4920  136.7500 C   0  0  0  0  0  2  0  0  0  0  0  0
  194.4080  176.4710  136.1300 N   0  0  0  0  0  2  0  0  0  0  0  0
  185.6980  178.2660  137.6010 N   0  0  0  0  0  0  0  0  0  0  0  0
  184.7350  178.1930  138.4570 C   0  0  0  0  0  3  0  0  0  0  0  0
  184.1960  179.4340  139.0790 C   0  0  0  0  0  2  0  0  0  0  0  0
  182.2420  178.8950  140.5480 C   0  0  0  0  0  1  0  0  0  0  0  0
  183.6690  179.1400  140.4020 N   0  0  0  0  0  0  0  0  0  0  0  0
  184.0910  178.7550  142.6700 O   0  0  0  0  0  1  0  0  0  0  0  0
  185.9120  179.2540  141.3780 O   0  0  0  0  0  0  0  0  0  0  0  0
  184.5470  179.0380  141.5300 C   0  0  0  0  0  0  0  0  0  0  0  0
  1 11  1  0  0  0  0
  2  6  2  0  0  0  0
  3 18  1  1  0  0  0
  3  8  1  0  0  0  0
  4 18  2  0  0  0  0
  6  5  1  0  0  0  0
  7 18  1  0  0  0  0
  8  2  1  0  0  0  0
  8  1  2  0  0  0  0
  9 17  1  0  0  0  0
  9 27  1  0  0  0  0
 10 17  1  0  0  0  0
 10  4  1  0  0  0  0
 11  5  2  0  0  0  0
 12 13  1  0  0  0  0
 13  1  1  0  0  0  0
 14  2  1  0  0  0  0
 15  4  1  0  0  0  0
 16 15  1  1  0  0  0
 16 19  1  0  0  0  0
 17  7  2  0  0  0  0
 19  3  1  0  0  0  0
 19 12  1  6  0  0  0
 20 26  1  0  0  0  0
 21 20  1  0  0  0  0
 21 23  1  0  0  0  0
 22 25  1  6  0  0  0
 22 16  1  0  0  0  0
 23 25  1  0  0  0  0
 24 22  1  0  0  0  0
 26 24  1  0  0  0  0
 27 28  2  0  0  0  0
 28 29  1  0  0  0  0
 29 31  1  0  0  0  0
 31 30  1  0  0  0  0
 31 34  1  0  0  0  0
 33 34  2  0  0  0  0
 34 32  1  0  0  0  0
M  END
>  <MODEL>
5

>  <REMARK>
 VINA RESULT:      -6.9      3.005      5.485
  Name = 
  4 active torsions:
  status: ('A' for Active; 'I' for Inactive)
    1  A    between atoms: N_3  and  C_17
    2  A    between atoms: C_12  and  C_28
    3  A    between atoms: C_13  and  C_33
    4  A    between atoms: N_14  and  C_33
                            x       y       z     vdW  Elec       q    Type
                         _______ _______ _______ _____ _____    ______ ____

>  <TORSDO>
F 4

$$$$
=
 OpenBabel10252415033D

 34 38  0  0  1  0  0  0  0  0999 V2000
  183.2220  178.5170  141.7540 C   0  0  0  0  0  0  0  0  0  0  0  0
  184.9120  179.1720  143.3810 C   0  0  0  0  0  0  0  0  0  0  0  0
  185.5810  177.9260  141.1770 C   0  0  2  0  0  3  0  0  0  0  0  0
  187.9180  178.3900  140.5120 C   0  0  0  0  0  0  0  0  0  0  0  0
  182.5620  179.5520  143.8400 C   0  0  0  0  0  3  0  0  0  0  0  0
  183.8990  179.6460  144.2190 C   0  0  0  0  0  3  0  0  0  0  0  0
  187.6630  177.5890  142.6550 N   0  0  0  0  0  0  0  0  0  0  0  0
  184.5850  178.5670  142.1410 C   0  0  0  0  0  0  0  0  0  0  0  0
  189.9080  177.2220  143.4600 C   0  0  0  0  0  2  0  0  0  0  0  0
  189.6500  178.3520  140.9780 S   0  0  0  0  0  0  0  0  0  0  0  0
  182.2270  179.0030  142.6050 C   0  0  0  0  0  3  0  0  0  0  0  0
  183.9690  177.4900  139.5660 C   0  0  0  0  0  2  0  0  0  0  0  0
  182.8080  178.0700  140.3760 C   0  0  0  0  0  2  0  0  0  0  0  0
  186.1880  179.3640  143.7840 F   0  0  0  0  0  0  0  0  0  0  0  0
  187.4990  178.4310  139.1560 N   0  0  0  0  0  2  0  0  0  0  0  0
  186.1980  177.8780  138.7870 C   0  0  1  0  0  3  0  0  0  0  0  0
  189.0750  177.6570  142.5200 C   0  0  0  0  0  0  0  0  0  0  0  0
  187.0570  178.0840  141.4680 C   0  0  0  0  0  0  0  0  0  0  0  0
  185.1860  178.2680  139.7910 N   0  0  2  0  0  0  0  0  0  0  0  0
  186.8070  175.7530  136.5030 C   0  0  0  0  0  2  0  0  0  0  0  0
  187.4860  176.6570  135.4820 C   0  0  0  0  0  2  0  0  0  0  0  0
  185.8100  178.3750  137.3700 C   0  0  2  0  0  3  0  0  0  0  0  0
  188.0470  177.8720  136.2040 C   0  0  0  0  0  2  0  0  0  0  0  0
  184.9510  177.4000  136.5510 C   0  0  0  0  0  2  0  0  0  0  0  0
  186.9660  178.9070  136.5100 C   0  0  0  0  0  2  0  0  0  0  0  0
  185.3630  175.9900  136.6320 N   0  0  0  0  0  2  0  0  0  0  0  0
  189.4170  176.6650  144.6750 N   0  0  0  0  0  0  0  0  0  0  0  0
  189.5060  177.3360  145.7750 C   0  0  0  0  0  3  0  0  0  0  0  0
  188.9920  176.7530  147.0450 C   0  0  0  0  0  2  0  0  0  0  0  0
  188.3060  178.3540  148.8430 C   0  0  0  0  0  1  0  0  0  0  0  0
  187.9850  177.6290  147.6240 N   0  0  0  0  0  0  0  0  0  0  0  0
  185.8620  178.5970  147.4620 O   0  0  0  0  0  1  0  0  0  0  0  0
  186.4320  177.1350  145.7970 O   0  0  0  0  0  0  0  0  0  0  0  0
  186.7220  177.8160  146.9730 C   0  0  0  0  0  0  0  0  0  0  0  0
  1  8  2  0  0  0  0
  1 11  1  0  0  0  0
  2 14  1  0  0  0  0
  2  6  2  0  0  0  0
  3 18  1  1  0  0  0
  3  8  1  0  0  0  0
  4 10  1  0  0  0  0
  4 18  2  0  0  0  0
  5  6  1  0  0  0  0
  8  2  1  0  0  0  0
  9 27  1  0  0  0  0
 10 17  1  0  0  0  0
 11  5  2  0  0  0  0
 12 13  1  0  0  0  0
 13  1  1  0  0  0  0
 15  4  1  0  0  0  0
 16 15  1  1  0  0  0
 16 19  1  0  0  0  0
 17  7  2  0  0  0  0
 17  9  1  0  0  0  0
 18  7  1  0  0  0  0
 19 12  1  6  0  0  0
 19  3  1  0  0  0  0
 20 26  1  0  0  0  0
 21 23  1  0  0  0  0
 21 20  1  0  0  0  0
 22 25  1  6  0  0  0
 22 16  1  0  0  0  0
 23 25  1  0  0  0  0
 24 26  1  0  0  0  0
 24 22  1  0  0  0  0
 27 28  2  0  0  0  0
 28 29  1  0  0  0  0
 29 31  1  0  0  0  0
 31 30  1  0  0  0  0
 33 34  2  0  0  0  0
 34 32  1  0  0  0  0
 34 31  1  0  0  0  0
M  END
>  <MODEL>
6

>  <REMARK>
 VINA RESULT:      -6.7      3.929      5.556
  Name = 
  4 active torsions:
  status: ('A' for Active; 'I' for Inactive)
    1  A    between atoms: N_3  and  C_17
    2  A    between atoms: C_12  and  C_28
    3  A    between atoms: C_13  and  C_33
    4  A    between atoms: N_14  and  C_33
                            x       y       z     vdW  Elec       q    Type
                         _______ _______ _______ _____ _____    ______ ____

>  <TORSDO>
F 4

$$$$
=
 OpenBabel10252415033D

 34 38  0  0  1  0  0  0  0  0999 V2000
  184.9330  178.9370  142.7080 C   0  0  0  0  0  0  0  0  0  0  0  0
  182.6210  178.6280  142.0060 C   0  0  0  0  0  0  0  0  0  0  0  0
  184.5320  178.9210  140.2410 C   0  0  2  0  0  3  0  0  0  0  0  0
  183.9570  177.9010  138.0610 C   0  0  0  0  0  0  0  0  0  0  0  0
  183.1710  178.7980  144.3620 C   0  0  0  0  0  3  0  0  0  0  0  0
  182.2290  178.6340  143.3480 C   0  0  0  0  0  3  0  0  0  0  0  0
  182.4200  179.4190  138.8550 N   0  0  0  0  0  0  0  0  0  0  0  0
  183.9840  178.8120  141.6620 C   0  0  0  0  0  0  0  0  0  0  0  0
  180.8230  179.6880  137.0660 C   0  0  0  0  0  2  0  0  0  0  0  0
  182.7990  177.8280  136.6940 S   0  0  0  0  0  0  0  0  0  0  0  0
  184.5190  178.9340  144.0420 C   0  0  0  0  0  3  0  0  0  0  0  0
  186.7410  179.0210  140.9410 C   0  0  0  0  0  2  0  0  0  0  0  0
  186.4140  178.9410  142.4330 C   0  0  0  0  0  2  0  0  0  0  0  0
  181.6620  178.3910  141.0840 F   0  0  0  0  0  0  0  0  0  0  0  0
  185.3020  177.4610  137.9390 N   0  0  0  0  0  2  0  0  0  0  0  0
  186.3320  178.0480  138.7940 C   0  0  1  0  0  3  0  0  0  0  0  0
  181.8940  179.0910  137.5770 C   0  0  0  0  0  0  0  0  0  0  0  0
  183.5890  178.6460  139.0900 C   0  0  0  0  0  0  0  0  0  0  0  0
  185.8170  178.1880  140.1720 N   0  0  2  0  0  0  0  0  0  0  0  0
  188.5960  179.1900  136.8770 C   0  0  0  0  0  2  0  0  0  0  0  0
  188.9670  177.9180  136.1260 C   0  0  0  0  0  2  0  0  0  0  0  0
  187.6030  177.1610  138.7520 C   0  0  2  0  0  3  0  0  0  0  0  0
  187.7940  176.9530  136.1960 C   0  0  0  0  0  2  0  0  0  0  0  0
  188.9260  177.9080  138.9760 C   0  0  0  0  0  2  0  0  0  0  0  0
  187.7260  176.2280  137.5380 C   0  0  0  0  0  2  0  0  0  0  0  0
  189.0370  179.1980  138.2790 N   0  0  0  0  0  2  0  0  0  0  0  0
  180.1290  180.6970  137.7910 N   0  0  0  0  0  0  0  0  0  0  0  0
  180.0350  181.8910  137.3090 C   0  0  0  0  0  3  0  0  0  0  0  0
  179.3080  182.9460  138.0680 C   0  0  0  0  0  2  0  0  0  0  0  0
  179.6560  184.2140  135.9370 C   0  0  0  0  0  1  0  0  0  0  0  0
  179.4060  184.2190  137.3700 N   0  0  0  0  0  0  0  0  0  0  0  0
  179.2620  186.5510  137.4600 O   0  0  0  0  0  0  0  0  0  0  0  0
  178.9460  185.4460  139.4380 O   0  0  0  0  0  1  0  0  0  0  0  0
  179.2050  185.4510  138.0730 C   0  0  0  0  0  0  0  0  0  0  0  0
  1 11  1  0  0  0  0
  2  6  2  0  0  0  0
  3 18  1  6  0  0  0
  3  8  1  0  0  0  0
  4 18  2  0  0  0  0
  6  5  1  0  0  0  0
  7 18  1  0  0  0  0
  8  2  1  0  0  0  0
  8  1  2  0  0  0  0
  9 17  1  0  0  0  0
  9 27  1  0  0  0  0
 10 17  1  0  0  0  0
 10  4  1  0  0  0  0
 11  5  2  0  0  0  0
 12 13  1  0  0  0  0
 13  1  1  0  0  0  0
 14  2  1  0  0  0  0
 15  4  1  0  0  0  0
 16 15  1  6  0  0  0
 16 19  1  0  0  0  0
 17  7  2  0  0  0  0
 19  3  1  0  0  0  0
 19 12  1  1  0  0  0
 20 26  1  0  0  0  0
 21 23  1  0  0  0  0
 21 20  1  0  0  0  0
 22 25  1  6  0  0  0
 22 16  1  0  0  0  0
 22 24  1  0  0  0  0
 23 25  1  0  0  0  0
 26 24  1  0  0  0  0
 28 27  2  0  0  0  0
 28 29  1  0  0  0  0
 30 31  1  0  0  0  0
 31 29  1  0  0  0  0
 31 34  1  0  0  0  0
 32 34  2  0  0  0  0
 34 33  1  0  0  0  0
M  END
>  <MODEL>
7

>  <REMARK>
 VINA RESULT:      -6.7      6.700      9.609
  Name = 
  4 active torsions:
  status: ('A' for Active; 'I' for Inactive)
    1  A    between atoms: N_3  and  C_17
    2  A    between atoms: C_12  and  C_28
    3  A    between atoms: C_13  and  C_33
    4  A    between atoms: N_14  and  C_33
                            x       y       z     vdW  Elec       q    Type
                         _______ _______ _______ _____ _____    ______ ____

>  <TORSDO>
F 4

$$$$
=
 OpenBabel10252415033D

 34 38  0  0  1  0  0  0  0  0999 V2000
  179.9520  177.1230  140.8530 C   0  0  0  0  0  0  0  0  0  0  0  0
  181.5110  178.8850  140.2210 C   0  0  0  0  0  0  0  0  0  0  0  0
  181.7090  176.4840  139.1950 C   0  0  2  0  0  3  0  0  0  0  0  0
  182.8360  176.4980  136.9920 C   0  0  0  0  0  0  0  0  0  0  0  0
  179.8240  179.2950  141.9130 C   0  0  0  0  0  3  0  0  0  0  0  0
  180.8930  179.7390  141.1380 C   0  0  0  0  0  3  0  0  0  0  0  0
  184.0250  177.4920  138.6940 N   0  0  0  0  0  0  0  0  0  0  0  0
  181.0670  177.5450  140.0860 C   0  0  0  0  0  0  0  0  0  0  0  0
  186.1810  178.0030  137.7370 C   0  0  0  0  0  2  0  0  0  0  0  0
  184.2960  176.9460  136.0530 S   0  0  0  0  0  0  0  0  0  0  0  0
  179.3460  177.9960  141.7590 C   0  0  0  0  0  3  0  0  0  0  0  0
  180.0940  174.8890  139.6740 C   0  0  0  0  0  2  0  0  0  0  0  0
  179.3000  175.7840  140.6280 C   0  0  0  0  0  2  0  0  0  0  0  0
  182.4920  179.4080  139.4540 F   0  0  0  0  0  0  0  0  0  0  0  0
  181.9230  175.5070  136.5450 N   0  0  0  0  0  2  0  0  0  0  0  0
  181.1350  174.7600  137.5230 C   0  0  1  0  0  3  0  0  0  0  0  0
  184.9390  177.5500  137.6080 C   0  0  0  0  0  0  0  0  0  0  0  0
  182.8050  176.9190  138.2460 C   0  0  0  0  0  0  0  0  0  0  0  0
  180.6360  175.6780  138.5690 N   0  0  2  0  0  0  0  0  0  0  0  0
  181.7660  171.7170  136.8560 C   0  0  0  0  0  2  0  0  0  0  0  0
  181.2950  171.6660  135.4080 C   0  0  0  0  0  2  0  0  0  0  0  0
  179.9680  174.0380  136.8010 C   0  0  2  0  0  3  0  0  0  0  0  0
  181.3210  173.0750  134.8380 C   0  0  0  0  0  2  0  0  0  0  0  0
  179.5540  172.6930  137.4180 C   0  0  0  0  0  2  0  0  0  0  0  0
  180.1110  173.8960  135.2790 C   0  0  0  0  0  2  0  0  0  0  0  0
  180.6710  171.8280  137.8290 N   0  0  0  0  0  2  0  0  0  0  0  0
  186.6650  178.4690  138.9920 N   0  0  0  0  0  0  0  0  0  0  0  0
  187.8010  178.0510  139.4420 C   0  0  0  0  0  3  0  0  0  0  0  0
  188.3070  178.5400  140.7540 C   0  0  0  0  0  2  0  0  0  0  0  0
  190.1320  176.8820  141.1890 C   0  0  0  0  0  1  0  0  0  0  0  0
  188.8280  177.4280  141.5340 N   0  0  0  0  0  0  0  0  0  0  0  0
  188.5630  175.9720  143.3440 O   0  0  0  0  0  1  0  0  0  0  0  0
  186.8600  177.4580  142.9900 O   0  0  0  0  0  0  0  0  0  0  0  0
  188.0950  176.9170  142.6540 C   0  0  0  0  0  0  0  0  0  0  0  0
  1 11  1  0  0  0  0
  2  6  2  0  0  0  0
  3 18  1  6  0  0  0
  3  8  1  0  0  0  0
  4 18  2  0  0  0  0
  6  5  1  0  0  0  0
  8  2  1  0  0  0  0
  8  1  2  0  0  0  0
  9 27  1  0  0  0  0
 10  4  1  0  0  0  0
 10 17  1  0  0  0  0
 11  5  2  0  0  0  0
 12 13  1  0  0  0  0
 13  1  1  0  0  0  0
 14  2  1  0  0  0  0
 15  4  1  0  0  0  0
 16 15  1  6  0  0  0
 16 19  1  0  0  0  0
 17  9  1  0  0  0  0
 17  7  2  0  0  0  0
 18  7  1  0  0  0  0
 19  3  1  0  0  0  0
 19 12  1  1  0  0  0
 20 26  1  0  0  0  0
 21 20  1  0  0  0  0
 22 25  1  6  0  0  0
 22 24  1  0  0  0  0
 22 16  1  0  0  0  0
 23 25  1  0  0  0  0
 23 21  1  0  0  0  0
 24 26  1  0  0  0  0
 27 28  2  0  0  0  0
 28 29  1  0  0  0  0
 29 31  1  0  0  0  0
 30 31  1  0  0  0  0
 31 34  1  0  0  0  0
 34 33  2  0  0  0  0
 34 32  1  0  0  0  0
M  END
>  <MODEL>
8

>  <REMARK>
 VINA RESULT:      -6.5      6.030      9.017
  Name = 
  4 active torsions:
  status: ('A' for Active; 'I' for Inactive)
    1  A    between atoms: N_3  and  C_17
    2  A    between atoms: C_12  and  C_28
    3  A    between atoms: C_13  and  C_33
    4  A    between atoms: N_14  and  C_33
                            x       y       z     vdW  Elec       q    Type
                         _______ _______ _______ _____ _____    ______ ____

>  <TORSDO>
F 4

$$$$
=
 OpenBabel10252415033D

 34 38  0  0  1  0  0  0  0  0999 V2000
  186.2470  178.6760  141.6800 C   0  0  0  0  0  0  0  0  0  0  0  0
  183.8340  178.4310  141.4520 C   0  0  0  0  0  0  0  0  0  0  0  0
  185.3920  178.3880  139.3490 C   0  0  2  0  0  3  0  0  0  0  0  0
  184.3810  177.1500  137.4610 C   0  0  0  0  0  0  0  0  0  0  0  0
  184.8200  178.8490  143.6280 C   0  0  0  0  0  3  0  0  0  0  0  0
  183.7000  178.6240  142.8300 C   0  0  0  0  0  3  0  0  0  0  0  0
  183.0800  178.8460  138.3130 N   0  0  0  0  0  0  0  0  0  0  0  0
  185.1150  178.4860  140.8470 C   0  0  0  0  0  0  0  0  0  0  0  0
  181.1890  178.9960  136.8210 C   0  0  0  0  0  2  0  0  0  0  0  0
  182.9860  176.9840  136.3460 S   0  0  0  0  0  0  0  0  0  0  0  0
  186.0890  178.8610  143.0550 C   0  0  0  0  0  3  0  0  0  0  0  0
  187.6960  178.4320  139.6210 C   0  0  0  0  0  2  0  0  0  0  0  0
  187.6490  178.5540  141.1450 C   0  0  0  0  0  2  0  0  0  0  0  0
  182.7110  178.1450  140.7570 F   0  0  0  0  0  0  0  0  0  0  0  0
  185.6610  176.6150  137.1570 N   0  0  0  0  0  2  0  0  0  0  0  0
  186.8550  177.2350  137.7280 C   0  0  1  0  0  3  0  0  0  0  0  0
  182.3120  178.4000  137.2040 C   0  0  0  0  0  0  0  0  0  0  0  0
  184.2410  178.0350  138.4330 C   0  0  0  0  0  0  0  0  0  0  0  0
  186.6120  177.5720  139.1460 N   0  0  2  0  0  0  0  0  0  0  0  0
  188.6530  177.8720  135.1860 C   0  0  0  0  0  2  0  0  0  0  0  0
  188.8110  176.4670  134.6200 C   0  0  0  0  0  2  0  0  0  0  0  0
  188.0590  176.2710  137.5740 C   0  0  2  0  0  3  0  0  0  0  0  0
  187.6600  175.6090  135.1210 C   0  0  0  0  0  2  0  0  0  0  0  0
  189.4180  176.9560  137.3620 C   0  0  0  0  0  2  0  0  0  0  0  0
  187.8790  175.1350  136.5560 C   0  0  0  0  0  2  0  0  0  0  0  0
  189.4010  178.0940  136.4310 N   0  0  0  0  0  2  0  0  0  0  0  0
  180.6830  180.1280  137.5220 N   0  0  0  0  0  0  0  0  0  0  0  0
  180.7150  181.2950  136.9720 C   0  0  0  0  0  3  0  0  0  0  0  0
  180.1850  182.4780  137.7050 C   0  0  0  0  0  2  0  0  0  0  0  0
  178.9310  183.8100  135.9960 C   0  0  0  0  0  1  0  0  0  0  0  0
  180.1190  183.6270  136.8160 N   0  0  0  0  0  0  0  0  0  0  0  0
  181.1070  185.5990  136.0390 O   0  0  0  0  0  0  0  0  0  0  0  0
  182.3020  184.4180  137.5920 O   0  0  0  0  0  1  0  0  0  0  0  0
  181.1800  184.5900  136.7900 C   0  0  0  0  0  0  0  0  0  0  0  0
  1 11  1  0  0  0  0
  2  6  2  0  0  0  0
  3 18  1  6  0  0  0
  3  8  1  0  0  0  0
  4 18  2  0  0  0  0
  6  5  1  0  0  0  0
  7 18  1  0  0  0  0
  8  2  1  0  0  0  0
  8  1  2  0  0  0  0
  9 17  1  0  0  0  0
  9 27  1  0  0  0  0
 10 17  1  0  0  0  0
 10  4  1  0  0  0  0
 11  5  2  0  0  0  0
 12 13  1  0  0  0  0
 13  1  1  0  0  0  0
 14  2  1  0  0  0  0
 15  4  1  0  0  0  0
 16 15  1  1  0  0  0
 16 19  1  0  0  0  0
 17  7  2  0  0  0  0
 19  3  1  0  0  0  0
 19 12  1  6  0  0  0
 20 26  1  0  0  0  0
 21 23  1  0  0  0  0
 21 20  1  0  0  0  0
 22 25  1  6  0  0  0
 22 16  1  0  0  0  0
 23 25  1  0  0  0  0
 24 22  1  0  0  0  0
 26 24  1  0  0  0  0
 28 27  2  0  0  0  0
 28 29  1  0  0  0  0
 30 31  1  0  0  0  0
 31 29  1  0  0  0  0
 32 34  2  0  0  0  0
 34 31  1  0  0  0  0
 34 33  1  0  0  0  0
M  END
>  <MODEL>
9

>  <REMARK>
 VINA RESULT:      -6.4      6.098      8.983
  Name = 
  4 active torsions:
  status: ('A' for Active; 'I' for Inactive)
    1  A    between atoms: N_3  and  C_17
    2  A    between atoms: C_12  and  C_28
    3  A    between atoms: C_13  and  C_33
    4  A    between atoms: N_14  and  C_33
                            x       y       z     vdW  Elec       q    Type
                         _______ _______ _______ _____ _____    ______ ____

>  <TORSDO>
F 4

$$$$
