=
 OpenBabel10262422193D

 43 47  0  0  1  0  0  0  0  0999 V2000
  190.6650  177.6980  142.4630 C   0  0  0  0  0  0  0  0  0  0  0  0
  188.5610  177.1900  137.8920 C   0  0  0  0  0  0  0  0  0  0  0  0
  186.1720  178.7320  137.9560 N   0  0  0  0  0  0  0  0  0  0  0  0
  190.2540  177.1700  140.1350 C   0  0  0  0  0  0  0  0  0  0  0  0
  189.3900  178.2630  142.5650 C   0  0  0  0  0  3  0  0  0  0  0  0
  191.4840  177.6770  143.5410 F   0  0  0  0  0  0  0  0  0  0  0  0
  188.9610  177.7400  140.2330 C   0  0  0  0  0  0  0  0  0  0  0  0
  191.0970  177.1560  141.2490 C   0  0  0  0  0  3  0  0  0  0  0  0
  188.5410  178.2850  141.4550 C   0  0  0  0  0  3  0  0  0  0  0  0
  186.8370  178.3830  139.1480 N   0  0  0  0  0  2  0  0  0  0  0  0
  188.1300  177.7680  139.1020 C   0  0  0  0  0  0  0  0  0  0  0  0
  189.8520  176.6470  137.8060 C   0  0  0  0  0  3  0  0  0  0  0  0
  187.6640  177.2520  136.6760 C   0  0  2  0  0  3  0  0  0  0  0  0
  186.2140  177.5660  137.0730 C   0  0  0  0  0  2  0  0  0  0  0  0
  190.6910  176.6330  138.9220 C   0  0  0  0  0  3  0  0  0  0  0  0
  184.7700  179.0120  138.2840 C   0  0  2  0  0  3  0  0  0  0  0  0
  184.6860  180.0400  139.2300 O   0  0  0  0  0  1  0  0  0  0  0  0
  184.0570  177.7720  138.8270 C   0  0  0  0  0  2  0  0  0  0  0  0
  182.6670  178.1020  139.3490 C   0  0  1  0  0  3  0  0  0  0  0  0
  181.7160  177.4510  138.5620 O   0  0  0  0  0  1  0  0  0  0  0  0
  182.5490  177.6320  140.7950 C   0  0  0  0  0  2  0  0  0  0  0  0
  182.4840  178.7870  141.7970 C   0  0  2  0  0  3  0  0  0  0  0  0
  184.5690  178.8790  143.2430 C   0  0  0  0  0  0  0  0  0  0  0  0
  183.2220  178.4560  143.0080 N   0  0  0  0  0  2  0  0  0  0  0  0
  185.1720  179.5750  142.3790 O   0  0  0  0  0  0  0  0  0  0  0  0
  185.2490  178.4820  144.4890 C   0  0  0  0  0  0  0  0  0  0  0  0
  185.4830  178.4820  146.9540 C   0  0  0  0  0  2  0  0  0  0  0  0
  187.2290  177.4510  145.4990 C   0  0  0  0  0  3  0  0  0  0  0  0
  186.9850  178.2670  146.7400 C   0  0  0  0  0  2  0  0  0  0  0  0
  186.4310  177.5920  144.4350 C   0  0  0  0  0  3  0  0  0  0  0  0
  184.8270  178.9410  145.6770 C   0  0  0  0  0  3  0  0  0  0  0  0
  181.0440  179.1580  142.1370 C   0  0  0  0  0  2  0  0  0  0  0  0
  179.0160  179.3540  143.9950 S   0  0  0  0  0  1  0  0  0  0  0  0
  180.6970  178.8010  143.5760 C   0  0  0  0  0  2  0  0  0  0  0  0
  187.6940  175.9440  135.8920 C   0  0  0  0  0  2  0  0  0  0  0  0
  184.7960  173.6180  135.4560 C   0  0  0  0  0  2  0  0  0  0  0  0
  184.7660  173.2470  136.9470 C   0  0  2  0  0  3  0  0  0  0  0  0
  187.2210  173.9360  137.0020 C   0  0  0  0  0  2  0  0  0  0  0  0
  185.9490  174.5760  135.1180 C   0  0  0  0  0  2  0  0  0  0  0  0
  186.6110  175.0770  136.3230 N   0  0  0  0  0  0  0  0  0  0  0  0
  186.1530  172.9860  137.5600 C   0  0  0  0  0  2  0  0  0  0  0  0
  183.8140  172.2550  137.2640 O   0  0  0  0  0  0  0  0  0  0  0  0
  183.8260  171.2820  136.2490 C   0  0  0  0  0  1  0  0  0  0  0  0
  1  5  1  0  0  0  0
  1  6  1  0  0  0  0
  2 11  1  0  0  0  0
  3 16  1  0  0  0  0
  3 10  1  0  0  0  0
  4  7  1  0  0  0  0
  4  8  1  0  0  0  0
  7  9  1  0  0  0  0
  8  1  2  0  0  0  0
  9  5  2  0  0  0  0
 11 10  1  0  0  0  0
 11  7  2  0  0  0  0
 12  2  2  0  0  0  0
 12 15  1  0  0  0  0
 13 35  1  1  0  0  0
 13 14  1  0  0  0  0
 13  2  1  0  0  0  0
 14  3  1  0  0  0  0
 15  4  2  0  0  0  0
 16 18  1  0  0  0  0
 16 17  1  1  0  0  0
 18 19  1  0  0  0  0
 19 20  1  6  0  0  0
 19 21  1  0  0  0  0
 22 21  1  6  0  0  0
 22 32  1  0  0  0  0
 22 24  1  0  0  0  0
 23 26  1  0  0  0  0
 24 23  1  0  0  0  0
 25 23  2  0  0  0  0
 26 31  2  0  0  0  0
 28 29  1  0  0  0  0
 29 27  1  0  0  0  0
 30 26  1  0  0  0  0
 30 28  2  0  0  0  0
 31 27  1  0  0  0  0
 32 34  1  0  0  0  0
 34 33  1  0  0  0  0
 35 40  1  0  0  0  0
 36 37  1  0  0  0  0
 37 42  1  6  0  0  0
 37 41  1  0  0  0  0
 38 41  1  0  0  0  0
 39 36  1  0  0  0  0
 39 40  1  0  0  0  0
 40 38  1  0  0  0  0
 43 42  1  0  0  0  0
M  END
>  <MODEL>
1

>  <REMARK>
 VINA RESULT:      -8.8      0.000      0.000
  Name = 
  12 active torsions:
  status: ('A' for Active; 'I' for Inactive)
    1  A    between atoms: C_1  and  C_34
    2  A    between atoms: C_1  and  N_35
    3  A    between atoms: C_2  and  C_6
    4  A    between atoms: C_2  and  N_13
    5  A    between atoms: C_3  and  C_4
    6  A    between atoms: C_3  and  C_12
    7  A    between atoms: C_4  and  C_15
    8  A    between atoms: C_4  and  N_22
    9  A    between atoms: C_6  and  C_12
   10  A    between atoms: C_11  and  C_14
   11  A    between atoms: C_15  and  C_42
   12  A    between atoms: C_19  and  O_25
                            x       y       z     vdW  Elec       q    Type
                         _______ _______ _______ _____ _____    ______ ____

>  <TORSDO>
F 12

$$$$
=
 OpenBabel10262422193D

 43 47  0  0  1  0  0  0  0  0999 V2000
  188.3760  177.8890  148.2400 C   0  0  0  0  0  0  0  0  0  0  0  0
  186.7210  177.9850  143.4620 C   0  0  0  0  0  0  0  0  0  0  0  0
  188.8460  176.9550  141.8780 N   0  0  0  0  0  0  0  0  0  0  0  0
  186.9980  178.0740  146.2570 C   0  0  0  0  0  0  0  0  0  0  0  0
  189.4900  177.6010  147.4440 C   0  0  0  0  0  3  0  0  0  0  0  0
  188.5030  177.9420  149.5870 F   0  0  0  0  0  0  0  0  0  0  0  0
  188.1220  177.7840  145.4470 C   0  0  0  0  0  0  0  0  0  0  0  0
  187.1320  178.1220  147.6470 C   0  0  0  0  0  3  0  0  0  0  0  0
  189.3640  177.5460  146.0530 C   0  0  0  0  0  3  0  0  0  0  0  0
  189.0730  177.3730  143.2030 N   0  0  0  0  0  2  0  0  0  0  0  0
  187.9710  177.7160  144.0520 C   0  0  0  0  0  0  0  0  0  0  0  0
  185.6120  178.2530  144.2790 C   0  0  0  0  0  3  0  0  0  0  0  0
  186.5690  177.8840  141.9610 C   0  0  2  0  0  3  0  0  0  0  0  0
  187.9360  177.9220  141.2620 C   0  0  0  0  0  2  0  0  0  0  0  0
  185.7510  178.3010  145.6680 C   0  0  0  0  0  3  0  0  0  0  0  0
  190.1260  177.0040  141.1610 C   0  0  2  0  0  3  0  0  0  0  0  0
  191.1250  177.5330  141.9850 O   0  0  0  0  0  1  0  0  0  0  0  0
  190.0280  177.8460  139.8870 C   0  0  0  0  0  2  0  0  0  0  0  0
  190.5750  177.1040  138.6770 C   0  0  1  0  0  3  0  0  0  0  0  0
  191.8940  176.7260  138.9300 O   0  0  0  0  0  1  0  0  0  0  0  0
  189.7230  175.8650  138.4190 C   0  0  0  0  0  2  0  0  0  0  0  0
  188.7090  176.0600  137.2890 C   0  0  2  0  0  3  0  0  0  0  0  0
  186.5730  174.7160  137.0100 C   0  0  0  0  0  0  0  0  0  0  0  0
  188.0010  174.8170  137.0180 N   0  0  0  0  0  2  0  0  0  0  0  0
  185.8660  175.7350  137.2440 O   0  0  0  0  0  0  0  0  0  0  0  0
  185.9390  173.4120  136.7450 C   0  0  0  0  0  0  0  0  0  0  0  0
  185.8080  171.2350  135.5710 C   0  0  0  0  0  2  0  0  0  0  0  0
  183.9820  171.9810  137.1000 C   0  0  0  0  0  3  0  0  0  0  0  0
  184.2940  171.2810  135.8060 C   0  0  0  0  0  2  0  0  0  0  0  0
  184.7370  173.0060  137.5090 C   0  0  0  0  0  3  0  0  0  0  0  0
  186.4190  172.5950  135.7950 C   0  0  0  0  0  3  0  0  0  0  0  0
  189.3730  176.5820  136.0190 C   0  0  0  0  0  2  0  0  0  0  0  0
  187.6610  178.5970  136.7980 S   0  0  0  0  0  1  0  0  0  0  0  0
  188.6870  177.8400  135.5030 C   0  0  0  0  0  2  0  0  0  0  0  0
  185.6970  179.0060  141.4090 C   0  0  0  0  0  2  0  0  0  0  0  0
  182.1430  178.1020  140.6650 C   0  0  0  0  0  2  0  0  0  0  0  0
  182.4580  177.7330  139.2070 C   0  0  2  0  0  3  0  0  0  0  0  0
  184.4810  179.2710  139.4240 C   0  0  0  0  0  2  0  0  0  0  0  0
  183.3790  178.6290  141.4110 C   0  0  0  0  0  2  0  0  0  0  0  0
  184.6030  178.4540  140.6290 N   0  0  0  0  0  0  0  0  0  0  0  0
  183.3910  178.7270  138.4920 C   0  0  0  0  0  2  0  0  0  0  0  0
  181.3170  177.3880  138.4520 O   0  0  0  0  0  0  0  0  0  0  0  0
  181.1650  178.3240  137.4160 C   0  0  0  0  0  1  0  0  0  0  0  0
  1  6  1  0  0  0  0
  2 11  2  0  0  0  0
  2 12  1  0  0  0  0
  3 10  1  0  0  0  0
  4  8  2  0  0  0  0
  5  1  2  0  0  0  0
  7  9  2  0  0  0  0
  7  4  1  0  0  0  0
  8  1  1  0  0  0  0
  9  5  1  0  0  0  0
 10 11  1  0  0  0  0
 11  7  1  0  0  0  0
 12 15  2  0  0  0  0
 13 35  1  6  0  0  0
 13  2  1  0  0  0  0
 14  3  1  0  0  0  0
 14 13  1  0  0  0  0
 15  4  1  0  0  0  0
 16  3  1  0  0  0  0
 16 17  1  1  0  0  0
 18 16  1  0  0  0  0
 19 20  1  1  0  0  0
 19 18  1  0  0  0  0
 21 19  1  0  0  0  0
 22 32  1  6  0  0  0
 22 21  1  0  0  0  0
 23 24  1  0  0  0  0
 23 25  2  0  0  0  0
 24 22  1  0  0  0  0
 26 23  1  0  0  0  0
 26 30  1  0  0  0  0
 27 31  1  0  0  0  0
 27 29  1  0  0  0  0
 28 30  2  0  0  0  0
 29 28  1  0  0  0  0
 31 26  2  0  0  0  0
 34 32  1  0  0  0  0
 34 33  1  0  0  0  0
 36 39  1  0  0  0  0
 37 42  1  6  0  0  0
 37 36  1  0  0  0  0
 38 40  1  0  0  0  0
 40 35  1  0  0  0  0
 40 39  1  0  0  0  0
 41 37  1  0  0  0  0
 41 38  1  0  0  0  0
 43 42  1  0  0  0  0
M  END
>  <MODEL>
2

>  <REMARK>
 VINA RESULT:      -8.4      3.063      7.922
  Name = 
  12 active torsions:
  status: ('A' for Active; 'I' for Inactive)
    1  A    between atoms: C_1  and  C_34
    2  A    between atoms: C_1  and  N_35
    3  A    between atoms: C_2  and  C_6
    4  A    between atoms: C_2  and  N_13
    5  A    between atoms: C_3  and  C_4
    6  A    between atoms: C_3  and  C_12
    7  A    between atoms: C_4  and  C_15
    8  A    between atoms: C_4  and  N_22
    9  A    between atoms: C_6  and  C_12
   10  A    between atoms: C_11  and  C_14
   11  A    between atoms: C_15  and  C_42
   12  A    between atoms: C_19  and  O_25
                            x       y       z     vdW  Elec       q    Type
                         _______ _______ _______ _____ _____    ______ ____

>  <TORSDO>
F 12

$$$$
=
 OpenBabel10262422193D

 43 47  0  0  1  0  0  0  0  0999 V2000
  191.1130  176.6400  147.1620 C   0  0  0  0  0  0  0  0  0  0  0  0
  187.5400  177.7230  143.7500 C   0  0  0  0  0  0  0  0  0  0  0  0
  188.6720  177.1130  141.2130 N   0  0  0  0  0  0  0  0  0  0  0  0
  189.0220  177.2130  146.0830 C   0  0  0  0  0  0  0  0  0  0  0  0
  191.7390  176.5590  145.9140 C   0  0  0  0  0  3  0  0  0  0  0  0
  191.8220  176.4040  148.2920 F   0  0  0  0  0  0  0  0  0  0  0  0
  189.6510  177.1330  144.8180 C   0  0  0  0  0  0  0  0  0  0  0  0
  189.7550  176.9630  147.2450 C   0  0  0  0  0  3  0  0  0  0  0  0
  191.0120  176.8030  144.7460 C   0  0  0  0  0  3  0  0  0  0  0  0
  189.4880  177.2410  142.3540 N   0  0  0  0  0  2  0  0  0  0  0  0
  188.8990  177.3650  143.6550 C   0  0  0  0  0  0  0  0  0  0  0  0
  186.9260  177.7790  145.0110 C   0  0  0  0  0  3  0  0  0  0  0  0
  186.7380  177.9440  142.4880 C   0  0  2  0  0  3  0  0  0  0  0  0
  187.6580  178.1670  141.2790 C   0  0  0  0  0  2  0  0  0  0  0  0
  187.6630  177.5300  146.1700 C   0  0  0  0  0  3  0  0  0  0  0  0
  189.5070  177.3490  140.0300 C   0  0  2  0  0  3  0  0  0  0  0  0
  190.8620  177.3180  140.3750 O   0  0  0  0  0  1  0  0  0  0  0  0
  189.1870  178.6930  139.3710 C   0  0  0  0  0  2  0  0  0  0  0  0
  188.8220  178.5300  137.9040 C   0  0  1  0  0  3  0  0  0  0  0  0
  188.7990  179.7860  137.2960 O   0  0  0  0  0  1  0  0  0  0  0  0
  189.8610  177.6460  137.2220 C   0  0  0  0  0  2  0  0  0  0  0  0
  189.2620  176.7370  136.1470 C   0  0  2  0  0  3  0  0  0  0  0  0
  186.9070  175.7870  136.1530 C   0  0  0  0  0  0  0  0  0  0  0  0
  188.2190  175.8930  136.7140 N   0  0  0  0  0  2  0  0  0  0  0  0
  186.6090  176.4410  135.1150 O   0  0  0  0  0  0  0  0  0  0  0  0
  185.9060  174.9230  136.8040 C   0  0  0  0  0  0  0  0  0  0  0  0
  185.1600  172.7590  137.7500 C   0  0  0  0  0  2  0  0  0  0  0  0
  183.5740  174.6710  137.5120 C   0  0  0  0  0  3  0  0  0  0  0  0
  183.7290  173.1790  137.3950 C   0  0  0  0  0  2  0  0  0  0  0  0
  184.5890  175.4800  137.1920 C   0  0  0  0  0  3  0  0  0  0  0  0
  186.1600  173.6240  137.0260 C   0  0  0  0  0  3  0  0  0  0  0  0
  190.3280  175.8820  135.4710 C   0  0  0  0  0  2  0  0  0  0  0  0
  191.8770  174.3030  137.1170 S   0  0  0  0  0  1  0  0  0  0  0  0
  191.6330  175.8860  136.2560 C   0  0  0  0  0  2  0  0  0  0  0  0
  185.7970  179.1370  142.6240 C   0  0  0  0  0  2  0  0  0  0  0  0
  182.1240  179.0610  143.3340 C   0  0  0  0  0  2  0  0  0  0  0  0
  181.8160  178.2400  142.0720 C   0  0  2  0  0  3  0  0  0  0  0  0
  183.9950  179.1720  141.1290 C   0  0  0  0  0  2  0  0  0  0  0  0
  183.6160  179.4160  143.4460 C   0  0  0  0  0  2  0  0  0  0  0  0
  184.4200  178.7100  142.4480 N   0  0  0  0  0  0  0  0  0  0  0  0
  182.5650  178.7120  140.8130 C   0  0  0  0  0  2  0  0  0  0  0  0
  180.4380  178.0250  141.8600 O   0  0  0  0  0  0  0  0  0  0  0  0
  179.7180  178.7240  142.8450 C   0  0  0  0  0  1  0  0  0  0  0  0
  1  8  1  0  0  0  0
  1  6  1  0  0  0  0
  2 12  1  0  0  0  0
  3 14  1  0  0  0  0
  3 10  1  0  0  0  0
  4 15  1  0  0  0  0
  4  8  2  0  0  0  0
  5  1  2  0  0  0  0
  7  4  1  0  0  0  0
  9  7  2  0  0  0  0
  9  5  1  0  0  0  0
 10 11  1  0  0  0  0
 11  2  2  0  0  0  0
 11  7  1  0  0  0  0
 12 15  2  0  0  0  0
 13 35  1  1  0  0  0
 13  2  1  0  0  0  0
 14 13  1  0  0  0  0
 16 17  1  1  0  0  0
 16  3  1  0  0  0  0
 18 16  1  0  0  0  0
 19 20  1  6  0  0  0
 19 18  1  0  0  0  0
 21 19  1  0  0  0  0
 22 32  1  1  0  0  0
 22 24  1  0  0  0  0
 22 21  1  0  0  0  0
 23 24  1  0  0  0  0
 23 26  1  0  0  0  0
 25 23  2  0  0  0  0
 26 31  2  0  0  0  0
 26 30  1  0  0  0  0
 29 28  1  0  0  0  0
 29 27  1  0  0  0  0
 30 28  2  0  0  0  0
 31 27  1  0  0  0  0
 32 34  1  0  0  0  0
 34 33  1  0  0  0  0
 36 39  1  0  0  0  0
 37 42  1  6  0  0  0
 37 36  1  0  0  0  0
 38 40  1  0  0  0  0
 40 35  1  0  0  0  0
 40 39  1  0  0  0  0
 41 38  1  0  0  0  0
 41 37  1  0  0  0  0
 42 43  1  0  0  0  0
M  END
>  <MODEL>
3

>  <REMARK>
 VINA RESULT:      -8.4      3.467      8.064
  Name = 
  12 active torsions:
  status: ('A' for Active; 'I' for Inactive)
    1  A    between atoms: C_1  and  C_34
    2  A    between atoms: C_1  and  N_35
    3  A    between atoms: C_2  and  C_6
    4  A    between atoms: C_2  and  N_13
    5  A    between atoms: C_3  and  C_4
    6  A    between atoms: C_3  and  C_12
    7  A    between atoms: C_4  and  C_15
    8  A    between atoms: C_4  and  N_22
    9  A    between atoms: C_6  and  C_12
   10  A    between atoms: C_11  and  C_14
   11  A    between atoms: C_15  and  C_42
   12  A    between atoms: C_19  and  O_25
                            x       y       z     vdW  Elec       q    Type
                         _______ _______ _______ _____ _____    ______ ____

>  <TORSDO>
F 12

$$$$
=
 OpenBabel10262422193D

 43 47  0  0  1  0  0  0  0  0999 V2000
  191.2410  176.6420  147.2460 C   0  0  0  0  0  0  0  0  0  0  0  0
  187.4930  177.6500  144.0040 C   0  0  0  0  0  0  0  0  0  0  0  0
  188.5230  177.0760  141.4150 N   0  0  0  0  0  0  0  0  0  0  0  0
  189.0900  177.1680  146.2650 C   0  0  0  0  0  0  0  0  0  0  0  0
  191.8120  176.5800  145.9710 C   0  0  0  0  0  3  0  0  0  0  0  0
  192.0060  176.4190  148.3410 F   0  0  0  0  0  0  0  0  0  0  0  0
  189.6640  177.1080  144.9720 C   0  0  0  0  0  0  0  0  0  0  0  0
  189.8810  176.9320  147.3920 C   0  0  0  0  0  3  0  0  0  0  0  0
  191.0270  176.8100  144.8370 C   0  0  0  0  0  3  0  0  0  0  0  0
  189.3870  177.2200  142.5190 N   0  0  0  0  0  2  0  0  0  0  0  0
  188.8540  177.3250  143.8450 C   0  0  0  0  0  0  0  0  0  0  0  0
  186.9360  177.6880  145.2900 C   0  0  0  0  0  3  0  0  0  0  0  0
  186.6290  177.8560  142.7790 C   0  0  2  0  0  3  0  0  0  0  0  0
  187.4890  178.1050  141.5310 C   0  0  0  0  0  2  0  0  0  0  0  0
  187.7300  177.4530  146.4150 C   0  0  0  0  0  3  0  0  0  0  0  0
  189.2980  177.3360  140.1970 C   0  0  2  0  0  3  0  0  0  0  0  0
  190.6320  177.6080  140.5160 O   0  0  0  0  0  1  0  0  0  0  0  0
  188.7220  178.5090  139.4000 C   0  0  0  0  0  2  0  0  0  0  0  0
  188.2890  178.0860  138.0050 C   0  0  1  0  0  3  0  0  0  0  0  0
  187.6160  179.1450  137.3940 O   0  0  0  0  0  1  0  0  0  0  0  0
  189.5220  177.7180  137.1860 C   0  0  0  0  0  2  0  0  0  0  0  0
  189.4710  176.2910  136.6350 C   0  0  2  0  0  3  0  0  0  0  0  0
  191.1010  174.3870  137.0400 C   0  0  0  0  0  0  0  0  0  0  0  0
  190.8070  175.7120  136.5880 N   0  0  0  0  0  2  0  0  0  0  0  0
  190.1810  173.6590  137.5050 O   0  0  0  0  0  0  0  0  0  0  0  0
  192.4870  173.8880  136.9750 C   0  0  0  0  0  0  0  0  0  0  0  0
  194.8780  173.9680  137.6110 C   0  0  0  0  0  2  0  0  0  0  0  0
  194.0720  172.3990  135.8460 C   0  0  0  0  0  3  0  0  0  0  0  0
  195.1870  173.3220  136.2560 C   0  0  0  0  0  2  0  0  0  0  0  0
  192.8050  172.6970  136.1540 C   0  0  0  0  0  3  0  0  0  0  0  0
  193.4750  174.5180  137.6280 C   0  0  0  0  0  3  0  0  0  0  0  0
  188.8210  176.2410  135.2560 C   0  0  0  0  0  2  0  0  0  0  0  0
  186.8860  174.8530  136.6440 S   0  0  0  0  0  1  0  0  0  0  0  0
  187.8660  175.0630  135.1270 C   0  0  0  0  0  2  0  0  0  0  0  0
  185.6680  179.0260  142.9630 C   0  0  0  0  0  2  0  0  0  0  0  0
  181.9320  179.0030  143.1790 C   0  0  0  0  0  2  0  0  0  0  0  0
  181.7820  178.2100  141.8710 C   0  0  2  0  0  3  0  0  0  0  0  0
  184.0800  179.1200  141.2440 C   0  0  0  0  0  2  0  0  0  0  0  0
  183.4010  179.3290  143.4950 C   0  0  0  0  0  2  0  0  0  0  0  0
  184.3200  178.6280  142.5980 N   0  0  0  0  0  0  0  0  0  0  0  0
  182.6980  178.6910  140.7330 C   0  0  0  0  0  2  0  0  0  0  0  0
  180.4410  178.0240  141.4750 O   0  0  0  0  0  0  0  0  0  0  0  0
  180.4150  177.1360  140.3860 C   0  0  0  0  0  1  0  0  0  0  0  0
  1  8  1  0  0  0  0
  1  6  1  0  0  0  0
  2 12  1  0  0  0  0
  3 14  1  0  0  0  0
  3 10  1  0  0  0  0
  4 15  1  0  0  0  0
  4  8  2  0  0  0  0
  5  1  2  0  0  0  0
  7  4  1  0  0  0  0
  9  7  2  0  0  0  0
  9  5  1  0  0  0  0
 10 11  1  0  0  0  0
 11  2  2  0  0  0  0
 11  7  1  0  0  0  0
 12 15  2  0  0  0  0
 13 35  1  1  0  0  0
 13  2  1  0  0  0  0
 14 13  1  0  0  0  0
 16 17  1  1  0  0  0
 16  3  1  0  0  0  0
 18 16  1  0  0  0  0
 19 20  1  6  0  0  0
 19 18  1  0  0  0  0
 21 19  1  0  0  0  0
 22 32  1  6  0  0  0
 22 21  1  0  0  0  0
 23 25  2  0  0  0  0
 24 22  1  0  0  0  0
 24 23  1  0  0  0  0
 26 23  1  0  0  0  0
 26 31  2  0  0  0  0
 27 31  1  0  0  0  0
 28 30  2  0  0  0  0
 28 29  1  0  0  0  0
 29 27  1  0  0  0  0
 30 26  1  0  0  0  0
 34 32  1  0  0  0  0
 34 33  1  0  0  0  0
 36 39  1  0  0  0  0
 37 42  1  6  0  0  0
 37 36  1  0  0  0  0
 38 40  1  0  0  0  0
 40 35  1  0  0  0  0
 40 39  1  0  0  0  0
 41 38  1  0  0  0  0
 41 37  1  0  0  0  0
 43 42  1  0  0  0  0
M  END
>  <MODEL>
4

>  <REMARK>
 VINA RESULT:      -8.3      3.652      8.447
  Name = 
  12 active torsions:
  status: ('A' for Active; 'I' for Inactive)
    1  A    between atoms: C_1  and  C_34
    2  A    between atoms: C_1  and  N_35
    3  A    between atoms: C_2  and  C_6
    4  A    between atoms: C_2  and  N_13
    5  A    between atoms: C_3  and  C_4
    6  A    between atoms: C_3  and  C_12
    7  A    between atoms: C_4  and  C_15
    8  A    between atoms: C_4  and  N_22
    9  A    between atoms: C_6  and  C_12
   10  A    between atoms: C_11  and  C_14
   11  A    between atoms: C_15  and  C_42
   12  A    between atoms: C_19  and  O_25
                            x       y       z     vdW  Elec       q    Type
                         _______ _______ _______ _____ _____    ______ ____

>  <TORSDO>
F 12

$$$$
=
 OpenBabel10262422193D

 43 47  0  0  1  0  0  0  0  0999 V2000
  188.5030  177.9330  148.1870 C   0  0  0  0  0  0  0  0  0  0  0  0
  186.2770  178.0440  143.6480 C   0  0  0  0  0  0  0  0  0  0  0  0
  188.2480  177.1760  141.7890 N   0  0  0  0  0  0  0  0  0  0  0  0
  186.8860  178.0840  146.3910 C   0  0  0  0  0  0  0  0  0  0  0  0
  189.5250  177.7280  147.2560 C   0  0  0  0  0  3  0  0  0  0  0  0
  188.7890  177.9610  149.5110 F   0  0  0  0  0  0  0  0  0  0  0  0
  187.9180  177.8780  145.4430 C   0  0  0  0  0  0  0  0  0  0  0  0
  187.1850  178.1070  147.7550 C   0  0  0  0  0  3  0  0  0  0  0  0
  189.2350  177.6990  145.8890 C   0  0  0  0  0  3  0  0  0  0  0  0
  188.6110  177.5760  143.0910 N   0  0  0  0  0  2  0  0  0  0  0  0
  187.6020  177.8340  144.0750 C   0  0  0  0  0  0  0  0  0  0  0  0
  185.2630  178.2280  144.6000 C   0  0  0  0  0  3  0  0  0  0  0  0
  185.9500  177.9700  142.1730 C   0  0  2  0  0  3  0  0  0  0  0  0
  187.2180  178.1030  141.3170 C   0  0  0  0  0  2  0  0  0  0  0  0
  185.5660  178.2520  145.9630 C   0  0  0  0  0  3  0  0  0  0  0  0
  189.4260  177.3160  140.9270 C   0  0  2  0  0  3  0  0  0  0  0  0
  190.5770  177.5030  141.7000 O   0  0  0  0  0  1  0  0  0  0  0  0
  189.2790  178.4890  139.9540 C   0  0  0  0  0  2  0  0  0  0  0  0
  189.0770  178.0140  138.5240 C   0  0  1  0  0  3  0  0  0  0  0  0
  188.7090  179.1010  137.7290 O   0  0  0  0  0  1  0  0  0  0  0  0
  190.3790  177.4120  138.0050 C   0  0  0  0  0  2  0  0  0  0  0  0
  190.1680  176.1230  137.2090 C   0  0  2  0  0  3  0  0  0  0  0  0
  187.8190  175.4440  136.5220 C   0  0  0  0  0  0  0  0  0  0  0  0
  188.8590  175.5520  137.4990 N   0  0  0  0  0  2  0  0  0  0  0  0
  188.0150  175.8520  135.3430 O   0  0  0  0  0  0  0  0  0  0  0  0
  186.5170  174.8710  136.9070 C   0  0  0  0  0  0  0  0  0  0  0  0
  185.0860  173.0010  137.6750 C   0  0  0  0  0  2  0  0  0  0  0  0
  184.0880  175.1810  136.9820 C   0  0  0  0  0  3  0  0  0  0  0  0
  183.9240  173.6860  136.9460 C   0  0  0  0  0  2  0  0  0  0  0  0
  185.3080  175.7250  136.9210 C   0  0  0  0  0  3  0  0  0  0  0  0
  186.4050  173.5700  137.2190 C   0  0  0  0  0  3  0  0  0  0  0  0
  191.2660  175.1010  137.4850 C   0  0  0  0  0  2  0  0  0  0  0  0
  193.9460  174.4680  137.5910 S   0  0  0  0  0  1  0  0  0  0  0  0
  192.6420  175.6450  137.1260 C   0  0  0  0  0  2  0  0  0  0  0  0
  184.9570  179.0530  141.7640 C   0  0  0  0  0  2  0  0  0  0  0  0
  181.5450  178.1090  140.5520 C   0  0  0  0  0  2  0  0  0  0  0  0
  182.0460  177.8100  139.1300 C   0  0  2  0  0  3  0  0  0  0  0  0
  183.9870  179.3780  139.6570 C   0  0  0  0  0  2  0  0  0  0  0  0
  182.6680  178.6290  141.4650 C   0  0  0  0  0  2  0  0  0  0  0  0
  183.9820  178.5120  140.8340 N   0  0  0  0  0  0  0  0  0  0  0  0
  183.0330  178.8530  138.5760 C   0  0  0  0  0  2  0  0  0  0  0  0
  181.0150  177.4750  138.2270 O   0  0  0  0  0  0  0  0  0  0  0  0
  181.4180  177.8390  136.9310 C   0  0  0  0  0  1  0  0  0  0  0  0
  1  6  1  0  0  0  0
  2 11  2  0  0  0  0
  2 12  1  0  0  0  0
  3 10  1  0  0  0  0
  4  8  2  0  0  0  0
  5  1  2  0  0  0  0
  7  9  2  0  0  0  0
  7  4  1  0  0  0  0
  8  1  1  0  0  0  0
  9  5  1  0  0  0  0
 10 11  1  0  0  0  0
 11  7  1  0  0  0  0
 12 15  2  0  0  0  0
 13 35  1  6  0  0  0
 13  2  1  0  0  0  0
 14  3  1  0  0  0  0
 14 13  1  0  0  0  0
 15  4  1  0  0  0  0
 16 17  1  1  0  0  0
 16  3  1  0  0  0  0
 18 16  1  0  0  0  0
 19 20  1  6  0  0  0
 19 18  1  0  0  0  0
 21 19  1  0  0  0  0
 22 32  1  1  0  0  0
 22 24  1  0  0  0  0
 22 21  1  0  0  0  0
 23 26  1  0  0  0  0
 23 24  1  0  0  0  0
 25 23  2  0  0  0  0
 26 30  1  0  0  0  0
 26 31  2  0  0  0  0
 29 28  1  0  0  0  0
 29 27  1  0  0  0  0
 30 28  2  0  0  0  0
 31 27  1  0  0  0  0
 34 32  1  0  0  0  0
 34 33  1  0  0  0  0
 36 39  1  0  0  0  0
 37 42  1  6  0  0  0
 37 36  1  0  0  0  0
 38 40  1  0  0  0  0
 40 39  1  0  0  0  0
 40 35  1  0  0  0  0
 41 37  1  0  0  0  0
 41 38  1  0  0  0  0
 43 42  1  0  0  0  0
M  END
>  <MODEL>
5

>  <REMARK>
 VINA RESULT:      -8.2      3.520      7.999
  Name = 
  12 active torsions:
  status: ('A' for Active; 'I' for Inactive)
    1  A    between atoms: C_1  and  C_34
    2  A    between atoms: C_1  and  N_35
    3  A    between atoms: C_2  and  C_6
    4  A    between atoms: C_2  and  N_13
    5  A    between atoms: C_3  and  C_4
    6  A    between atoms: C_3  and  C_12
    7  A    between atoms: C_4  and  C_15
    8  A    between atoms: C_4  and  N_22
    9  A    between atoms: C_6  and  C_12
   10  A    between atoms: C_11  and  C_14
   11  A    between atoms: C_15  and  C_42
   12  A    between atoms: C_19  and  O_25
                            x       y       z     vdW  Elec       q    Type
                         _______ _______ _______ _____ _____    ______ ____

>  <TORSDO>
F 12

$$$$
=
 OpenBabel10262422193D

 43 47  0  0  1  0  0  0  0  0999 V2000
  191.1900  176.7080  147.0970 C   0  0  0  0  0  0  0  0  0  0  0  0
  187.1390  177.7080  144.2410 C   0  0  0  0  0  0  0  0  0  0  0  0
  188.0160  177.5060  141.5430 N   0  0  0  0  0  0  0  0  0  0  0  0
  188.9360  177.1380  146.3250 C   0  0  0  0  0  0  0  0  0  0  0  0
  191.6670  176.8320  145.7890 C   0  0  0  0  0  3  0  0  0  0  0  0
  192.0510  176.4410  148.1090 F   0  0  0  0  0  0  0  0  0  0  0  0
  189.4130  177.2660  144.9980 C   0  0  0  0  0  0  0  0  0  0  0  0
  189.8260  176.8570  147.3640 C   0  0  0  0  0  3  0  0  0  0  0  0
  190.7830  177.1090  144.7420 C   0  0  0  0  0  3  0  0  0  0  0  0
  188.9450  177.6100  142.5970 N   0  0  0  0  0  2  0  0  0  0  0  0
  188.5060  177.5260  143.9580 C   0  0  0  0  0  0  0  0  0  0  0  0
  186.6780  177.5600  145.5580 C   0  0  0  0  0  3  0  0  0  0  0  0
  186.1710  177.9630  143.1070 C   0  0  2  0  0  3  0  0  0  0  0  0
  186.9110  178.4190  141.8400 C   0  0  0  0  0  2  0  0  0  0  0  0
  187.5720  177.2800  146.5940 C   0  0  0  0  0  3  0  0  0  0  0  0
  188.6720  177.9610  140.3120 C   0  0  2  0  0  3  0  0  0  0  0  0
  187.7540  178.6140  139.4830 O   0  0  0  0  0  1  0  0  0  0  0  0
  189.3030  176.7980  139.5440 C   0  0  0  0  0  2  0  0  0  0  0  0
  189.0300  176.8930  138.0510 C   0  0  1  0  0  3  0  0  0  0  0  0
  190.2190  177.2000  137.3870 O   0  0  0  0  0  1  0  0  0  0  0  0
  188.4920  175.5550  137.5540 C   0  0  0  0  0  2  0  0  0  0  0  0
  187.5280  175.7000  136.3740 C   0  0  2  0  0  3  0  0  0  0  0  0
  185.3650  176.8480  137.0460 C   0  0  0  0  0  0  0  0  0  0  0  0
  186.1460  175.6680  136.8360 N   0  0  0  0  0  2  0  0  0  0  0  0
  185.8670  177.9860  136.8260 O   0  0  0  0  0  0  0  0  0  0  0  0
  183.9800  176.7250  137.5340 C   0  0  0  0  0  0  0  0  0  0  0  0
  182.2050  175.5830  138.8310 C   0  0  0  0  0  2  0  0  0  0  0  0
  181.6700  177.5240  137.3560 C   0  0  0  0  0  3  0  0  0  0  0  0
  181.1980  176.1810  137.8420 C   0  0  0  0  0  2  0  0  0  0  0  0
  182.9750  177.7530  137.1760 C   0  0  0  0  0  3  0  0  0  0  0  0
  183.6050  175.6730  138.2790 C   0  0  0  0  0  3  0  0  0  0  0  0
  187.7600  174.6230  135.3190 C   0  0  0  0  0  2  0  0  0  0  0  0
  187.4940  171.9510  135.9440 S   0  0  0  0  0  1  0  0  0  0  0  0
  186.7240  173.5100  135.4150 C   0  0  0  0  0  2  0  0  0  0  0  0
  185.1330  179.0150  143.4820 C   0  0  0  0  0  2  0  0  0  0  0  0
  181.3930  179.0460  143.3580 C   0  0  0  0  0  2  0  0  0  0  0  0
  181.3480  178.1580  142.1050 C   0  0  2  0  0  3  0  0  0  0  0  0
  183.7090  178.9940  141.6230 C   0  0  0  0  0  2  0  0  0  0  0  0
  182.8330  179.3810  143.7810 C   0  0  0  0  0  2  0  0  0  0  0  0
  183.8170  178.6040  143.0270 N   0  0  0  0  0  0  0  0  0  0  0  0
  182.3710  178.5420  141.0220 C   0  0  0  0  0  2  0  0  0  0  0  0
  180.0450  177.9550  141.6030 O   0  0  0  0  0  0  0  0  0  0  0  0
  179.9340  178.6110  140.3650 C   0  0  0  0  0  1  0  0  0  0  0  0
  1  8  1  0  0  0  0
  1  6  1  0  0  0  0
  2 12  1  0  0  0  0
  3 14  1  0  0  0  0
  3 10  1  0  0  0  0
  4 15  1  0  0  0  0
  4  8  2  0  0  0  0
  5  1  2  0  0  0  0
  7  4  1  0  0  0  0
  9  7  2  0  0  0  0
  9  5  1  0  0  0  0
 10 11  1  0  0  0  0
 11  2  2  0  0  0  0
 11  7  1  0  0  0  0
 12 15  2  0  0  0  0
 13 35  1  1  0  0  0
 13  2  1  0  0  0  0
 14 13  1  0  0  0  0
 16 17  1  6  0  0  0
 16  3  1  0  0  0  0
 18 16  1  0  0  0  0
 19 20  1  6  0  0  0
 19 18  1  0  0  0  0
 21 19  1  0  0  0  0
 22 32  1  6  0  0  0
 22 24  1  0  0  0  0
 22 21  1  0  0  0  0
 23 26  1  0  0  0  0
 24 23  1  0  0  0  0
 25 23  2  0  0  0  0
 26 31  2  0  0  0  0
 28 29  1  0  0  0  0
 29 27  1  0  0  0  0
 30 28  2  0  0  0  0
 30 26  1  0  0  0  0
 31 27  1  0  0  0  0
 32 34  1  0  0  0  0
 34 33  1  0  0  0  0
 36 39  1  0  0  0  0
 37 42  1  6  0  0  0
 37 36  1  0  0  0  0
 38 40  1  0  0  0  0
 40 35  1  0  0  0  0
 40 39  1  0  0  0  0
 41 38  1  0  0  0  0
 41 37  1  0  0  0  0
 43 42  1  0  0  0  0
M  END
>  <MODEL>
6

>  <REMARK>
 VINA RESULT:      -8.1      3.194      7.647
  Name = 
  12 active torsions:
  status: ('A' for Active; 'I' for Inactive)
    1  A    between atoms: C_1  and  C_34
    2  A    between atoms: C_1  and  N_35
    3  A    between atoms: C_2  and  C_6
    4  A    between atoms: C_2  and  N_13
    5  A    between atoms: C_3  and  C_4
    6  A    between atoms: C_3  and  C_12
    7  A    between atoms: C_4  and  C_15
    8  A    between atoms: C_4  and  N_22
    9  A    between atoms: C_6  and  C_12
   10  A    between atoms: C_11  and  C_14
   11  A    between atoms: C_15  and  C_42
   12  A    between atoms: C_19  and  O_25
                            x       y       z     vdW  Elec       q    Type
                         _______ _______ _______ _____ _____    ______ ____

>  <TORSDO>
F 12

$$$$
=
 OpenBabel10262422193D

 43 47  0  0  1  0  0  0  0  0999 V2000
  193.6740  175.7150  135.5760 C   0  0  0  0  0  0  0  0  0  0  0  0
  190.2760  177.0980  139.0570 C   0  0  0  0  0  0  0  0  0  0  0  0
  187.7260  176.6020  137.9000 N   0  0  0  0  0  0  0  0  0  0  0  0
  192.5980  176.4120  137.6310 C   0  0  0  0  0  0  0  0  0  0  0  0
  192.4330  175.6870  134.9310 C   0  0  0  0  0  3  0  0  0  0  0  0
  194.7990  175.3940  134.8930 F   0  0  0  0  0  0  0  0  0  0  0  0
  191.3400  176.3860  136.9820 C   0  0  0  0  0  0  0  0  0  0  0  0
  193.7550  176.0740  136.9240 C   0  0  0  0  0  3  0  0  0  0  0  0
  191.2700  176.0190  135.6300 C   0  0  0  0  0  3  0  0  0  0  0  0
  188.8850  176.6400  137.1000 N   0  0  0  0  0  2  0  0  0  0  0  0
  190.1810  176.7060  137.7080 C   0  0  0  0  0  0  0  0  0  0  0  0
  191.5280  177.1010  139.6900 C   0  0  0  0  0  3  0  0  0  0  0  0
  189.0160  177.4150  139.8310 C   0  0  2  0  0  3  0  0  0  0  0  0
  187.8360  177.6790  138.8840 C   0  0  0  0  0  2  0  0  0  0  0  0
  192.6830  176.7630  138.9800 C   0  0  0  0  0  3  0  0  0  0  0  0
  186.5710  176.8800  137.0390 C   0  0  2  0  0  3  0  0  0  0  0  0
  186.9440  177.7100  135.9770 O   0  0  0  0  0  1  0  0  0  0  0  0
  185.4320  177.5410  137.8170 C   0  0  0  0  0  2  0  0  0  0  0  0
  184.0930  176.8770  137.5330 C   0  0  1  0  0  3  0  0  0  0  0  0
  184.2270  175.4960  137.6810 O   0  0  0  0  0  1  0  0  0  0  0  0
  183.0520  177.4040  138.5160 C   0  0  0  0  0  2  0  0  0  0  0  0
  183.4660  178.7200  139.1770 C   0  0  2  0  0  3  0  0  0  0  0  0
  184.6010  178.9790  141.4340 C   0  0  0  0  0  0  0  0  0  0  0  0
  183.4890  178.5780  140.6270 N   0  0  0  0  0  2  0  0  0  0  0  0
  185.6240  179.4850  140.8940 O   0  0  0  0  0  0  0  0  0  0  0  0
  184.5480  178.7810  142.8940 C   0  0  0  0  0  0  0  0  0  0  0  0
  183.4270  178.9720  145.0930 C   0  0  0  0  0  2  0  0  0  0  0  0
  185.7820  178.1670  144.9190 C   0  0  0  0  0  3  0  0  0  0  0  0
  184.8240  179.0030  145.7220 C   0  0  0  0  0  2  0  0  0  0  0  0
  185.6670  178.1040  143.5890 C   0  0  0  0  0  3  0  0  0  0  0  0
  183.5080  179.2340  143.6110 C   0  0  0  0  0  3  0  0  0  0  0  0
  182.5490  179.8690  138.7710 C   0  0  0  0  0  2  0  0  0  0  0  0
  180.2390  181.2640  139.3320 S   0  0  0  0  0  1  0  0  0  0  0  0
  181.1410  179.6860  139.3200 C   0  0  0  0  0  2  0  0  0  0  0  0
  189.2070  178.6260  140.7390 C   0  0  0  0  0  2  0  0  0  0  0  0
  188.8030  176.2380  143.5910 C   0  0  0  0  0  2  0  0  0  0  0  0
  189.2770  177.2700  144.6270 C   0  0  2  0  0  3  0  0  0  0  0  0
  190.4810  178.4180  142.6930 C   0  0  0  0  0  2  0  0  0  0  0  0
  188.8620  176.7860  142.1560 C   0  0  0  0  0  2  0  0  0  0  0  0
  189.1460  178.2210  142.1320 N   0  0  0  0  0  0  0  0  0  0  0  0
  190.5100  178.0810  144.1900 C   0  0  0  0  0  2  0  0  0  0  0  0
  189.3780  176.7520  145.9350 O   0  0  0  0  0  0  0  0  0  0  0  0
  188.6330  177.5720  146.8000 C   0  0  0  0  0  1  0  0  0  0  0  0
  1  8  1  0  0  0  0
  2 12  1  0  0  0  0
  2 13  1  0  0  0  0
  3 14  1  0  0  0  0
  4 15  1  0  0  0  0
  5  1  2  0  0  0  0
  5  9  1  0  0  0  0
  6  1  1  0  0  0  0
  7  4  1  0  0  0  0
  7 11  1  0  0  0  0
  8  4  2  0  0  0  0
  9  7  2  0  0  0  0
 10 11  1  0  0  0  0
 10  3  1  0  0  0  0
 11  2  2  0  0  0  0
 13 35  1  6  0  0  0
 14 13  1  0  0  0  0
 15 12  2  0  0  0  0
 16 17  1  6  0  0  0
 16 18  1  0  0  0  0
 16  3  1  0  0  0  0
 19 20  1  1  0  0  0
 19 18  1  0  0  0  0
 19 21  1  0  0  0  0
 22 21  1  6  0  0  0
 22 24  1  0  0  0  0
 23 26  1  0  0  0  0
 24 23  1  0  0  0  0
 25 23  2  0  0  0  0
 26 30  1  0  0  0  0
 26 31  2  0  0  0  0
 27 29  1  0  0  0  0
 28 29  1  0  0  0  0
 30 28  2  0  0  0  0
 31 27  1  0  0  0  0
 32 22  1  0  0  0  0
 32 34  1  0  0  0  0
 34 33  1  0  0  0  0
 35 40  1  0  0  0  0
 36 37  1  0  0  0  0
 37 42  1  1  0  0  0
 38 41  1  0  0  0  0
 39 36  1  0  0  0  0
 40 39  1  0  0  0  0
 40 38  1  0  0  0  0
 41 37  1  0  0  0  0
 42 43  1  0  0  0  0
M  END
>  <MODEL>
7

>  <REMARK>
 VINA RESULT:      -8.0      2.816      5.571
  Name = 
  12 active torsions:
  status: ('A' for Active; 'I' for Inactive)
    1  A    between atoms: C_1  and  C_34
    2  A    between atoms: C_1  and  N_35
    3  A    between atoms: C_2  and  C_6
    4  A    between atoms: C_2  and  N_13
    5  A    between atoms: C_3  and  C_4
    6  A    between atoms: C_3  and  C_12
    7  A    between atoms: C_4  and  C_15
    8  A    between atoms: C_4  and  N_22
    9  A    between atoms: C_6  and  C_12
   10  A    between atoms: C_11  and  C_14
   11  A    between atoms: C_15  and  C_42
   12  A    between atoms: C_19  and  O_25
                            x       y       z     vdW  Elec       q    Type
                         _______ _______ _______ _____ _____    ______ ____

>  <TORSDO>
F 12

$$$$
=
 OpenBabel10262422193D

 43 47  0  0  1  0  0  0  0  0999 V2000
  188.3760  177.3030  147.5790 C   0  0  0  0  0  0  0  0  0  0  0  0
  188.6920  178.1620  142.6050 C   0  0  0  0  0  0  0  0  0  0  0  0
  186.1180  179.0680  141.8030 N   0  0  0  0  0  0  0  0  0  0  0  0
  189.1850  177.6250  145.3190 C   0  0  0  0  0  0  0  0  0  0  0  0
  187.0650  177.5280  147.1460 C   0  0  0  0  0  3  0  0  0  0  0  0
  188.6210  177.0360  148.8840 F   0  0  0  0  0  0  0  0  0  0  0  0
  187.8600  177.8520  144.8750 C   0  0  0  0  0  0  0  0  0  0  0  0
  189.4340  177.3560  146.6670 C   0  0  0  0  0  3  0  0  0  0  0  0
  186.8070  177.8030  145.8000 C   0  0  0  0  0  3  0  0  0  0  0  0
  186.3030  178.4310  143.0460 N   0  0  0  0  0  2  0  0  0  0  0  0
  187.6240  178.1440  143.5220 C   0  0  0  0  0  0  0  0  0  0  0  0
  190.0010  177.9530  143.0630 C   0  0  0  0  0  3  0  0  0  0  0  0
  188.4240  178.5020  141.1560 C   0  0  2  0  0  3  0  0  0  0  0  0
  186.9330  178.3540  140.8190 C   0  0  0  0  0  2  0  0  0  0  0  0
  190.2460  177.6830  144.4110 C   0  0  0  0  0  3  0  0  0  0  0  0
  184.7070  178.9250  141.4260 C   0  0  2  0  0  3  0  0  0  0  0  0
  184.0930  177.9370  142.2020 O   0  0  0  0  0  1  0  0  0  0  0  0
  184.5520  178.5690  139.9460 C   0  0  0  0  0  2  0  0  0  0  0  0
  183.4770  179.4080  139.2730 C   0  0  1  0  0  3  0  0  0  0  0  0
  184.0640  180.5460  138.7180 O   0  0  0  0  0  1  0  0  0  0  0  0
  182.8100  178.5850  138.1760 C   0  0  0  0  0  2  0  0  0  0  0  0
  181.3060  178.8450  138.0620 C   0  0  2  0  0  3  0  0  0  0  0  0
  180.8050  180.8020  136.5240 C   0  0  0  0  0  0  0  0  0  0  0  0
  181.0480  180.2590  137.8250 N   0  0  0  0  0  2  0  0  0  0  0  0
  180.8050  180.0450  135.5130 O   0  0  0  0  0  0  0  0  0  0  0  0
  180.5720  182.2490  136.3730 C   0  0  0  0  0  0  0  0  0  0  0  0
  179.7140  184.2140  135.1340 C   0  0  0  0  0  2  0  0  0  0  0  0
  181.0580  184.4970  137.2170 C   0  0  0  0  0  3  0  0  0  0  0  0
  180.7940  185.0410  135.8390 C   0  0  0  0  0  2  0  0  0  0  0  0
  180.9920  183.1810  137.4440 C   0  0  0  0  0  3  0  0  0  0  0  0
  180.0090  182.7410  135.2580 C   0  0  0  0  0  3  0  0  0  0  0  0
  180.5550  178.3680  139.3020 C   0  0  0  0  0  2  0  0  0  0  0  0
  180.5070  179.3880  141.8630 S   0  0  0  0  0  1  0  0  0  0  0  0
  180.0190  179.5370  140.1170 C   0  0  0  0  0  2  0  0  0  0  0  0
  189.2370  177.6210  140.2140 C   0  0  0  0  0  2  0  0  0  0  0  0
  188.9100  178.6470  136.6300 C   0  0  0  0  0  2  0  0  0  0  0  0
  187.8630  177.5630  136.3320 C   0  0  2  0  0  3  0  0  0  0  0  0
  188.8390  176.3000  138.3210 C   0  0  0  0  0  2  0  0  0  0  0  0
  189.4280  178.5730  138.0760 C   0  0  0  0  0  2  0  0  0  0  0  0
  188.6510  177.6340  138.8850 N   0  0  0  0  0  0  0  0  0  0  0  0
  188.1910  176.1850  136.9350 C   0  0  0  0  0  2  0  0  0  0  0  0
  187.4780  177.5070  134.9760 O   0  0  0  0  0  0  0  0  0  0  0  0
  186.6390  176.3940  134.7940 C   0  0  0  0  0  1  0  0  0  0  0  0
  1  6  1  0  0  0  0
  2 12  2  0  0  0  0
  2 11  1  0  0  0  0
  3 10  1  0  0  0  0
  4  8  1  0  0  0  0
  5  1  1  0  0  0  0
  7  4  1  0  0  0  0
  7  9  1  0  0  0  0
  8  1  2  0  0  0  0
  9  5  2  0  0  0  0
 10 11  1  0  0  0  0
 11  7  2  0  0  0  0
 12 15  1  0  0  0  0
 13 35  1  6  0  0  0
 13  2  1  0  0  0  0
 14 13  1  0  0  0  0
 14  3  1  0  0  0  0
 15  4  2  0  0  0  0
 16  3  1  0  0  0  0
 16 17  1  1  0  0  0
 18 16  1  0  0  0  0
 19 20  1  6  0  0  0
 19 18  1  0  0  0  0
 21 19  1  0  0  0  0
 22 21  1  1  0  0  0
 22 32  1  0  0  0  0
 23 24  1  0  0  0  0
 24 22  1  0  0  0  0
 25 23  2  0  0  0  0
 26 23  1  0  0  0  0
 26 30  1  0  0  0  0
 27 31  1  0  0  0  0
 27 29  1  0  0  0  0
 28 30  2  0  0  0  0
 29 28  1  0  0  0  0
 31 26  2  0  0  0  0
 32 34  1  0  0  0  0
 34 33  1  0  0  0  0
 36 39  1  0  0  0  0
 37 42  1  6  0  0  0
 37 36  1  0  0  0  0
 37 41  1  0  0  0  0
 38 40  1  0  0  0  0
 39 40  1  0  0  0  0
 40 35  1  0  0  0  0
 41 38  1  0  0  0  0
 43 42  1  0  0  0  0
M  END
>  <MODEL>
8

>  <REMARK>
 VINA RESULT:      -8.0      3.416      6.492
  Name = 
  12 active torsions:
  status: ('A' for Active; 'I' for Inactive)
    1  A    between atoms: C_1  and  C_34
    2  A    between atoms: C_1  and  N_35
    3  A    between atoms: C_2  and  C_6
    4  A    between atoms: C_2  and  N_13
    5  A    between atoms: C_3  and  C_4
    6  A    between atoms: C_3  and  C_12
    7  A    between atoms: C_4  and  C_15
    8  A    between atoms: C_4  and  N_22
    9  A    between atoms: C_6  and  C_12
   10  A    between atoms: C_11  and  C_14
   11  A    between atoms: C_15  and  C_42
   12  A    between atoms: C_19  and  O_25
                            x       y       z     vdW  Elec       q    Type
                         _______ _______ _______ _____ _____    ______ ____

>  <TORSDO>
F 12

$$$$
=
 OpenBabel10262422193D

 43 47  0  0  1  0  0  0  0  0999 V2000
  190.8800  177.7740  142.6470 C   0  0  0  0  0  0  0  0  0  0  0  0
  188.6120  177.2210  138.1610 C   0  0  0  0  0  0  0  0  0  0  0  0
  186.1490  178.6300  138.3510 N   0  0  0  0  0  0  0  0  0  0  0  0
  190.3980  177.2600  140.3300 C   0  0  0  0  0  0  0  0  0  0  0  0
  189.5820  178.2680  142.8120 C   0  0  0  0  0  3  0  0  0  0  0  0
  191.7440  177.7820  143.6900 F   0  0  0  0  0  0  0  0  0  0  0  0
  189.0820  177.7560  140.4920 C   0  0  0  0  0  0  0  0  0  0  0  0
  191.2880  177.2750  141.4070 C   0  0  0  0  0  3  0  0  0  0  0  0
  188.6860  178.2610  141.7390 C   0  0  0  0  0  3  0  0  0  0  0  0
  186.8820  178.3000  139.5080 N   0  0  0  0  0  2  0  0  0  0  0  0
  188.2030  177.7570  139.3970 C   0  0  0  0  0  0  0  0  0  0  0  0
  189.9250  176.7490  138.0110 C   0  0  0  0  0  3  0  0  0  0  0  0
  187.6620  177.2510  136.9840 C   0  0  2  0  0  3  0  0  0  0  0  0
  186.2160  177.4800  137.4470 C   0  0  0  0  0  2  0  0  0  0  0  0
  190.8110  176.7650  139.0900 C   0  0  0  0  0  3  0  0  0  0  0  0
  184.7490  178.8290  138.7420 C   0  0  2  0  0  3  0  0  0  0  0  0
  184.5350  180.1570  139.1260 O   0  0  0  0  0  1  0  0  0  0  0  0
  184.3460  177.9030  139.8910 C   0  0  0  0  0  2  0  0  0  0  0  0
  183.7710  178.6780  141.0660 C   0  0  1  0  0  3  0  0  0  0  0  0
  182.3770  178.6420  141.0010 O   0  0  0  0  0  1  0  0  0  0  0  0
  184.2430  178.0390  142.3680 C   0  0  0  0  0  2  0  0  0  0  0  0
  184.2800  179.0240  143.5390 C   0  0  2  0  0  3  0  0  0  0  0  0
  185.5550  178.2320  145.5870 C   0  0  0  0  0  0  0  0  0  0  0  0
  185.5100  178.8630  144.3040 N   0  0  0  0  0  2  0  0  0  0  0  0
  184.4970  177.7800  146.1070 O   0  0  0  0  0  0  0  0  0  0  0  0
  186.8410  178.1280  146.3010 C   0  0  0  0  0  0  0  0  0  0  0  0
  189.2160  177.4450  146.4510 C   0  0  0  0  0  2  0  0  0  0  0  0
  188.0210  178.3780  148.4330 C   0  0  0  0  0  3  0  0  0  0  0  0
  189.0190  177.3530  147.9680 C   0  0  0  0  0  2  0  0  0  0  0  0
  186.9800  178.7020  147.6590 C   0  0  0  0  0  3  0  0  0  0  0  0
  187.8850  177.4920  145.7470 C   0  0  0  0  0  3  0  0  0  0  0  0
  183.0660  178.8680  144.4480 C   0  0  0  0  0  2  0  0  0  0  0  0
  180.3640  178.6310  143.9510 S   0  0  0  0  0  1  0  0  0  0  0  0
  181.8690  179.6520  143.9260 C   0  0  0  0  0  2  0  0  0  0  0  0
  187.7280  175.9590  136.1770 C   0  0  0  0  0  2  0  0  0  0  0  0
  184.6180  173.9550  135.6160 C   0  0  0  0  0  2  0  0  0  0  0  0
  184.7150  173.2710  136.9880 C   0  0  2  0  0  3  0  0  0  0  0  0
  187.2110  173.7890  136.8900 C   0  0  0  0  0  2  0  0  0  0  0  0
  185.8050  174.8960  135.3500 C   0  0  0  0  0  2  0  0  0  0  0  0
  186.6290  175.0830  136.5440 N   0  0  0  0  0  0  0  0  0  0  0  0
  186.1330  172.8030  137.3610 C   0  0  0  0  0  2  0  0  0  0  0  0
  183.7240  172.2900  137.2020 O   0  0  0  0  0  0  0  0  0  0  0  0
  184.0690  171.1370  136.4770 C   0  0  0  0  0  1  0  0  0  0  0  0
  1  5  1  0  0  0  0
  1  6  1  0  0  0  0
  2 11  1  0  0  0  0
  3 16  1  0  0  0  0
  3 10  1  0  0  0  0
  4  7  1  0  0  0  0
  4  8  1  0  0  0  0
  7  9  1  0  0  0  0
  8  1  2  0  0  0  0
  9  5  2  0  0  0  0
 11 10  1  0  0  0  0
 11  7  2  0  0  0  0
 12  2  2  0  0  0  0
 12 15  1  0  0  0  0
 13 35  1  1  0  0  0
 13 14  1  0  0  0  0
 13  2  1  0  0  0  0
 14  3  1  0  0  0  0
 15  4  2  0  0  0  0
 16 17  1  1  0  0  0
 16 18  1  0  0  0  0
 18 19  1  0  0  0  0
 19 20  1  6  0  0  0
 19 21  1  0  0  0  0
 22 21  1  6  0  0  0
 22 24  1  0  0  0  0
 22 32  1  0  0  0  0
 23 25  2  0  0  0  0
 23 26  1  0  0  0  0
 24 23  1  0  0  0  0
 26 30  1  0  0  0  0
 27 29  1  0  0  0  0
 29 28  1  0  0  0  0
 30 28  2  0  0  0  0
 31 26  2  0  0  0  0
 31 27  1  0  0  0  0
 34 33  1  0  0  0  0
 34 32  1  0  0  0  0
 35 40  1  0  0  0  0
 36 37  1  0  0  0  0
 37 42  1  6  0  0  0
 37 41  1  0  0  0  0
 38 41  1  0  0  0  0
 39 36  1  0  0  0  0
 39 40  1  0  0  0  0
 40 38  1  0  0  0  0
 43 42  1  0  0  0  0
M  END
>  <MODEL>
9

>  <REMARK>
 VINA RESULT:      -7.9      1.244      1.769
  Name = 
  12 active torsions:
  status: ('A' for Active; 'I' for Inactive)
    1  A    between atoms: C_1  and  C_34
    2  A    between atoms: C_1  and  N_35
    3  A    between atoms: C_2  and  C_6
    4  A    between atoms: C_2  and  N_13
    5  A    between atoms: C_3  and  C_4
    6  A    between atoms: C_3  and  C_12
    7  A    between atoms: C_4  and  C_15
    8  A    between atoms: C_4  and  N_22
    9  A    between atoms: C_6  and  C_12
   10  A    between atoms: C_11  and  C_14
   11  A    between atoms: C_15  and  C_42
   12  A    between atoms: C_19  and  O_25
                            x       y       z     vdW  Elec       q    Type
                         _______ _______ _______ _____ _____    ______ ____

>  <TORSDO>
F 12

$$$$
