=
 OpenBabel10262423033D

 37 42  0  0  1  0  0  0  0  0999 V2000
  180.0920  179.1390  141.2320 C   0  0  0  0  0  1  0  0  0  0  0  0
  184.6100  178.4850  138.3460 C   0  0  1  0  0  3  0  0  0  0  0  0
  182.7520  180.2000  138.9700 C   0  0  0  0  0  2  0  0  0  0  0  0
  184.2640  176.9590  138.2970 C   0  0  2  0  0  3  0  0  0  0  0  0
  182.4180  175.3750  139.0810 C   0  0  0  0  0  2  0  0  0  0  0  0
  184.7790  176.2850  137.0210 C   0  0  0  0  0  2  0  0  0  0  0  0
  183.9220  179.3480  139.4350 C   0  0  1  0  0  3  0  0  0  0  0  0
  182.4560  176.5860  139.9090 N   0  0  1  0  0  0  0  0  0  0  0  0
  181.3560  178.7070  140.5220 C   0  0  2  0  0  0  0  0  0  0  0  0
  186.5440  178.5750  137.2070 C   0  0  0  0  0  2  0  0  0  0  0  0
  183.7190  178.7170  140.8170 C   0  0  0  0  0  2  0  0  0  0  0  0
  182.4510  178.9940  141.3960 O   0  0  0  0  0  0  0  0  0  0  0  0
  185.9940  178.6620  138.4910 O   0  0  0  0  0  0  0  0  0  0  0  0
  182.7740  176.6620  138.4610 C   0  0  1  0  0  0  0  0  0  0  0  0
  181.4140  179.5170  139.2230 C   0  0  0  0  0  2  0  0  0  0  0  0
  186.2770  176.1210  136.9810 C   0  0  0  0  0  0  0  0  0  0  0  0
  181.1750  177.2030  140.1990 C   0  0  0  0  0  2  0  0  0  0  0  0
  187.0780  177.1940  137.0140 C   0  0  0  0  0  3  0  0  0  0  0  0
  182.1790  177.8860  136.1580 C   0  0  0  0  0  2  0  0  0  0  0  0
  181.0220  178.7060  135.6780 C   0  0  0  0  0  0  0  0  0  0  0  0
  180.6160  175.6880  135.3860 C   0  0  1  0  0  3  0  0  0  0  0  0
  179.9260  178.1730  135.1070 C   0  0  0  0  0  3  0  0  0  0  0  0
  179.6550  176.7200  134.7860 C   0  0  0  0  0  2  0  0  0  0  0  0
  180.8140  175.8020  136.9080 C   0  0  1  0  0  3  0  0  0  0  0  0
  180.1790  174.3490  135.0330 N   0  0  0  0  0  1  0  0  0  0  0  0
  181.7500  176.9580  137.3070 C   0  0  1  0  0  3  0  0  0  0  0  0
  179.1820  174.6600  138.2370 O   0  0  0  0  0  1  0  0  0  0  0  0
  179.4930  175.8930  137.6650 C   0  0  0  0  0  2  0  0  0  0  0  0
  180.7970  180.9300  134.6100 C   0  0  0  0  0  1  0  0  0  0  0  0
  181.0780  180.1810  135.9010 C   0  0  0  0  0  2  0  0  0  0  0  0
  186.0120  173.6440  136.7380 C   0  0  0  0  0  3  0  0  0  0  0  0
  186.8540  174.7640  136.8260 C   0  0  0  0  0  0  0  0  0  0  0  0
  188.2460  174.5700  136.7710 C   0  0  0  0  0  3  0  0  0  0  0  0
  190.1240  173.1150  136.5770 F   0  0  0  0  0  0  0  0  0  0  0  0
  187.9310  172.1810  136.5420 C   0  0  0  0  0  3  0  0  0  0  0  0
  188.7820  173.2860  136.6290 C   0  0  0  0  0  0  0  0  0  0  0  0
  186.5480  172.3590  136.5960 C   0  0  0  0  0  3  0  0  0  0  0  0
  2 13  1  1  0  0  0
  2  7  1  0  0  0  0
  3 15  1  0  0  0  0
  4  6  1  6  0  0  0
  4  2  1  0  0  0  0
  4 14  1  0  0  0  0
  7  3  1  6  0  0  0
  7 11  1  0  0  0  0
  8  5  1  6  0  0  0
  8 17  1  0  0  0  0
  9  1  1  1  0  0  0
  9 12  1  0  0  0  0
 10 13  1  0  0  0  0
 11 12  1  0  0  0  0
 14  5  1  6  0  0  0
 14  8  1  0  0  0  0
 15  9  1  0  0  0  0
 16 18  2  0  0  0  0
 16  6  1  0  0  0  0
 17  9  1  0  0  0  0
 18 10  1  0  0  0  0
 20 30  1  0  0  0  0
 20 19  1  0  0  0  0
 21 25  1  1  0  0  0
 21 24  1  0  0  0  0
 22 20  2  0  0  0  0
 23 22  1  0  0  0  0
 23 21  1  0  0  0  0
 24 26  1  0  0  0  0
 24 28  1  1  0  0  0
 26 19  1  6  0  0  0
 26 14  1  0  0  0  0
 28 27  1  0  0  0  0
 29 30  1  0  0  0  0
 31 32  1  0  0  0  0
 32 16  1  0  0  0  0
 33 32  2  0  0  0  0
 34 36  1  0  0  0  0
 35 37  1  0  0  0  0
 35 36  2  0  0  0  0
 36 33  1  0  0  0  0
 37 31  2  0  0  0  0
M  END
>  <MODEL>
1

>  <REMARK>
 VINA RESULT:      -7.4      0.000      0.000
  Name = 
  4 active torsions:
  status: ('A' for Active; 'I' for Inactive)
    1  A    between atoms: C_5  and  C_23
    2  A    between atoms: C_6  and  C_31
    3  A    between atoms: C_27  and  C_33
    4  A    between atoms: C_29  and  C_36
                            x       y       z     vdW  Elec       q    Type
                         _______ _______ _______ _____ _____    ______ ____

>  <TORSDO>
F 4

$$$$
=
 OpenBabel10262423033D

 37 42  0  0  1  0  0  0  0  0999 V2000
  178.9310  179.2560  135.5740 C   0  0  0  0  0  1  0  0  0  0  0  0
  181.5240  174.6590  136.7190 C   0  0  1  0  0  3  0  0  0  0  0  0
  179.2190  175.8590  136.8780 C   0  0  0  0  0  2  0  0  0  0  0  0
  182.8390  175.5060  136.7730 C   0  0  2  0  0  3  0  0  0  0  0  0
  183.5710  177.9440  136.5460 C   0  0  0  0  0  2  0  0  0  0  0  0
  183.8660  174.9250  137.7510 C   0  0  0  0  0  2  0  0  0  0  0  0
  180.3000  175.2680  135.9880 C   0  0  1  0  0  3  0  0  0  0  0  0
  182.3060  177.7090  135.8410 N   0  0  1  0  0  0  0  0  0  0  0  0
  179.8700  178.0880  135.7850 C   0  0  2  0  0  0  0  0  0  0  0  0
  182.2730  172.5840  137.1430 C   0  0  0  0  0  2  0  0  0  0  0  0
  180.5660  176.0780  134.7140 C   0  0  0  0  0  2  0  0  0  0  0  0
  179.7930  177.2680  134.6160 O   0  0  0  0  0  0  0  0  0  0  0  0
  181.7780  173.4110  136.1290 O   0  0  0  0  0  0  0  0  0  0  0  0
  182.6050  176.9810  137.0990 C   0  0  1  0  0  0  0  0  0  0  0  0
  179.3760  177.3650  137.0420 C   0  0  0  0  0  2  0  0  0  0  0  0
  184.5080  173.6480  137.2730 C   0  0  0  0  0  0  0  0  0  0  0  0
  181.2680  178.7030  136.0430 C   0  0  0  0  0  2  0  0  0  0  0  0
  183.7630  172.5580  137.0480 C   0  0  0  0  0  3  0  0  0  0  0  0
  181.7420  176.3880  139.5610 C   0  0  0  0  0  2  0  0  0  0  0  0
  180.6890  176.9510  140.4640 C   0  0  0  0  0  0  0  0  0  0  0  0
  183.3770  178.4030  140.6270 C   0  0  1  0  0  3  0  0  0  0  0  0
  180.9170  177.9640  141.3210 C   0  0  0  0  0  3  0  0  0  0  0  0
  182.2220  178.6790  141.5940 C   0  0  0  0  0  2  0  0  0  0  0  0
  183.0340  178.6070  139.1400 C   0  0  1  0  0  3  0  0  0  0  0  0
  184.5270  179.2110  140.9950 N   0  0  0  0  0  1  0  0  0  0  0  0
  182.2150  177.4450  138.5480 C   0  0  1  0  0  3  0  0  0  0  0  0
  183.2930  180.9550  138.7480 O   0  0  0  0  0  1  0  0  0  0  0  0
  182.3450  179.9410  138.8760 C   0  0  0  0  0  2  0  0  0  0  0  0
  179.3460  174.8710  140.3760 C   0  0  0  0  0  1  0  0  0  0  0  0
  179.3100  176.3890  140.3560 C   0  0  0  0  0  2  0  0  0  0  0  0
  186.6410  172.3470  137.1250 C   0  0  0  0  0  3  0  0  0  0  0  0
  185.9830  173.5870  137.1280 C   0  0  0  0  0  0  0  0  0  0  0  0
  186.7480  174.7590  137.0000 C   0  0  0  0  0  3  0  0  0  0  0  0
  188.8620  175.8290  136.7450 F   0  0  0  0  0  0  0  0  0  0  0  0
  188.7800  173.4510  136.8660 C   0  0  0  0  0  3  0  0  0  0  0  0
  188.1380  174.6920  136.8680 C   0  0  0  0  0  0  0  0  0  0  0  0
  188.0320  172.2790  136.9940 C   0  0  0  0  0  3  0  0  0  0  0  0
  2 13  1  6  0  0  0
  2  4  1  0  0  0  0
  3 15  1  0  0  0  0
  4 14  1  0  0  0  0
  4  6  1  1  0  0  0
  7 11  1  6  0  0  0
  7  2  1  0  0  0  0
  7  3  1  0  0  0  0
  8 17  1  1  0  0  0
  8  5  1  0  0  0  0
  8 14  1  0  0  0  0
  9  1  1  6  0  0  0
  9 17  1  0  0  0  0
  9 15  1  0  0  0  0
 12 11  1  0  0  0  0
 12  9  1  0  0  0  0
 13 10  1  0  0  0  0
 14  5  1  1  0  0  0
 14 26  1  0  0  0  0
 16  6  1  0  0  0  0
 18 10  1  0  0  0  0
 18 16  2  0  0  0  0
 19 20  1  0  0  0  0
 20 22  2  0  0  0  0
 21 25  1  1  0  0  0
 21 23  1  0  0  0  0
 22 23  1  0  0  0  0
 24 28  1  1  0  0  0
 24 21  1  0  0  0  0
 26 24  1  0  0  0  0
 26 19  1  1  0  0  0
 27 28  1  0  0  0  0
 30 29  1  0  0  0  0
 30 20  1  0  0  0  0
 31 32  1  0  0  0  0
 32 16  1  0  0  0  0
 33 32  2  0  0  0  0
 34 36  1  0  0  0  0
 35 36  2  0  0  0  0
 35 37  1  0  0  0  0
 36 33  1  0  0  0  0
 37 31  2  0  0  0  0
M  END
>  <MODEL>
2

>  <REMARK>
 VINA RESULT:      -7.0      1.968      5.169
  Name = 
  4 active torsions:
  status: ('A' for Active; 'I' for Inactive)
    1  A    between atoms: C_5  and  C_23
    2  A    between atoms: C_6  and  C_31
    3  A    between atoms: C_27  and  C_33
    4  A    between atoms: C_29  and  C_36
                            x       y       z     vdW  Elec       q    Type
                         _______ _______ _______ _____ _____    ______ ____

>  <TORSDO>
F 4

$$$$
=
 OpenBabel10262423033D

 37 42  0  0  1  0  0  0  0  0999 V2000
  179.0350  173.5250  136.7100 C   0  0  0  0  0  1  0  0  0  0  0  0
  180.6200  177.5630  139.9270 C   0  0  1  0  0  3  0  0  0  0  0  0
  178.9310  176.9170  138.0540 C   0  0  0  0  0  2  0  0  0  0  0  0
  182.0250  176.8740  139.9690 C   0  0  2  0  0  3  0  0  0  0  0  0
  183.2050  174.8420  138.9640 C   0  0  0  0  0  2  0  0  0  0  0  0
  183.1640  177.8830  140.1460 C   0  0  0  0  0  2  0  0  0  0  0  0
  179.4060  176.7070  139.4820 C   0  0  1  0  0  3  0  0  0  0  0  0
  181.7520  174.6410  138.9970 N   0  0  1  0  0  0  0  0  0  0  0  0
  179.6560  174.4800  137.7050 C   0  0  2  0  0  0  0  0  0  0  0  0
  180.9250  179.3530  141.2500 C   0  0  0  0  0  2  0  0  0  0  0  0
  179.3640  175.2450  139.9410 C   0  0  0  0  0  2  0  0  0  0  0  0
  178.9380  174.3360  138.9340 O   0  0  0  0  0  0  0  0  0  0  0  0
  180.3080  178.0990  141.1860 O   0  0  0  0  0  0  0  0  0  0  0  0
  182.3120  175.9930  138.7530 C   0  0  1  0  0  0  0  0  0  0  0  0
  179.5120  175.8800  137.1010 C   0  0  0  0  0  2  0  0  0  0  0  0
  183.2320  178.4890  141.5240 C   0  0  0  0  0  0  0  0  0  0  0  0
  181.1540  174.0940  137.7920 C   0  0  0  0  0  2  0  0  0  0  0  0
  182.2090  179.2110  141.9990 C   0  0  0  0  0  3  0  0  0  0  0  0
  182.3760  178.1210  137.1330 C   0  0  0  0  0  2  0  0  0  0  0  0
  181.9100  178.3850  135.7350 C   0  0  0  0  0  0  0  0  0  0  0  0
  184.6920  177.1230  135.9030 C   0  0  1  0  0  3  0  0  0  0  0  0
  182.6680  178.1520  134.6470 C   0  0  0  0  0  3  0  0  0  0  0  0
  184.0970  177.6570  134.5960 C   0  0  0  0  0  2  0  0  0  0  0  0
  183.8460  176.0420  136.6000 C   0  0  1  0  0  3  0  0  0  0  0  0
  186.0390  176.6350  135.6650 N   0  0  0  0  0  1  0  0  0  0  0  0
  182.6310  176.6200  137.3480 C   0  0  1  0  0  3  0  0  0  0  0  0
  184.1210  173.7610  135.9240 O   0  0  0  0  0  1  0  0  0  0  0  0
  183.4150  174.9320  135.6480 C   0  0  0  0  0  2  0  0  0  0  0  0
  180.3100  180.1980  136.2760 C   0  0  0  0  0  1  0  0  0  0  0  0
  180.5130  178.8790  135.5510 C   0  0  0  0  0  2  0  0  0  0  0  0
  185.7200  178.2540  141.6770 C   0  0  0  0  0  3  0  0  0  0  0  0
  184.4750  178.3430  142.3210 C   0  0  0  0  0  0  0  0  0  0  0  0
  184.4330  178.2840  143.7250 C   0  0  0  0  0  3  0  0  0  0  0  0
  185.5540  178.0880  145.8190 F   0  0  0  0  0  0  0  0  0  0  0  0
  186.8410  178.0560  143.8130 C   0  0  0  0  0  3  0  0  0  0  0  0
  185.6090  178.1430  144.4670 C   0  0  0  0  0  0  0  0  0  0  0  0
  186.8960  178.1120  142.4200 C   0  0  0  0  0  3  0  0  0  0  0  0
  2  4  1  0  0  0  0
  2 13  1  1  0  0  0
  4  6  1  6  0  0  0
  5  8  1  0  0  0  0
  6 16  1  0  0  0  0
  7  3  1  6  0  0  0
  7  2  1  0  0  0  0
  7 11  1  0  0  0  0
  8 17  1  6  0  0  0
  9  1  1  6  0  0  0
  9 17  1  0  0  0  0
  9 12  1  0  0  0  0
 10 18  1  0  0  0  0
 12 11  1  0  0  0  0
 13 10  1  0  0  0  0
 14  5  1  1  0  0  0
 14  8  1  0  0  0  0
 14  4  1  0  0  0  0
 15  9  1  0  0  0  0
 15  3  1  0  0  0  0
 16 18  2  0  0  0  0
 16 32  1  0  0  0  0
 20 19  1  0  0  0  0
 21 25  1  6  0  0  0
 21 24  1  0  0  0  0
 22 20  2  0  0  0  0
 23 22  1  0  0  0  0
 23 21  1  0  0  0  0
 24 28  1  6  0  0  0
 24 26  1  0  0  0  0
 26 19  1  1  0  0  0
 26 14  1  0  0  0  0
 28 27  1  0  0  0  0
 30 20  1  0  0  0  0
 30 29  1  0  0  0  0
 31 32  2  0  0  0  0
 31 37  1  0  0  0  0
 32 33  1  0  0  0  0
 33 36  2  0  0  0  0
 35 36  1  0  0  0  0
 36 34  1  0  0  0  0
 37 35  2  0  0  0  0
M  END
>  <MODEL>
3

>  <REMARK>
 VINA RESULT:      -6.7      3.206      5.643
  Name = 
  4 active torsions:
  status: ('A' for Active; 'I' for Inactive)
    1  A    between atoms: C_5  and  C_23
    2  A    between atoms: C_6  and  C_31
    3  A    between atoms: C_27  and  C_33
    4  A    between atoms: C_29  and  C_36
                            x       y       z     vdW  Elec       q    Type
                         _______ _______ _______ _____ _____    ______ ____

>  <TORSDO>
F 4

$$$$
=
 OpenBabel10262423033D

 37 42  0  0  1  0  0  0  0  0999 V2000
  190.2040  176.6260  134.5940 C   0  0  0  0  0  1  0  0  0  0  0  0
  187.2300  177.8940  138.9200 C   0  0  1  0  0  3  0  0  0  0  0  0
  189.3250  176.5620  138.1360 C   0  0  0  0  0  2  0  0  0  0  0  0
  186.0250  178.0820  137.9390 C   0  0  2  0  0  3  0  0  0  0  0  0
  185.5150  177.8440  135.4460 C   0  0  0  0  0  2  0  0  0  0  0  0
  184.6800  177.7610  138.6000 C   0  0  0  0  0  2  0  0  0  0  0  0
  188.6610  177.9160  138.3220 C   0  0  1  0  0  3  0  0  0  0  0  0
  186.9470  178.0720  135.6680 N   0  0  1  0  0  0  0  0  0  0  0  0
  189.2220  177.1210  135.6330 C   0  0  2  0  0  0  0  0  0  0  0  0
  186.3120  178.3930  140.9080 C   0  0  0  0  0  2  0  0  0  0  0  0
  188.9390  178.9050  137.1850 C   0  0  0  0  0  2  0  0  0  0  0  0
  189.7240  178.3650  136.1300 O   0  0  0  0  0  0  0  0  0  0  0  0
  187.1880  178.8690  139.9280 O   0  0  0  0  0  0  0  0  0  0  0  0
  186.1580  177.2800  136.6440 C   0  0  1  0  0  0  0  0  0  0  0  0
  189.1630  176.0380  136.7140 C   0  0  0  0  0  2  0  0  0  0  0  0
  184.2370  178.7880  139.6100 C   0  0  0  0  0  0  0  0  0  0  0  0
  187.8540  177.2260  134.9150 C   0  0  0  0  0  2  0  0  0  0  0  0
  184.9770  179.0300  140.6990 C   0  0  0  0  0  3  0  0  0  0  0  0
  186.8370  174.8570  137.5520 C   0  0  0  0  0  2  0  0  0  0  0  0
  187.1740  173.5530  136.8990 C   0  0  0  0  0  0  0  0  0  0  0  0
  184.1750  174.0080  137.2960 C   0  0  1  0  0  3  0  0  0  0  0  0
  186.2510  172.6290  136.5730 C   0  0  0  0  0  3  0  0  0  0  0  0
  184.7600  172.6710  136.8300 C   0  0  0  0  0  2  0  0  0  0  0  0
  184.5300  175.2110  136.4020 C   0  0  1  0  0  3  0  0  0  0  0  0
  182.7340  173.8900  137.4340 N   0  0  0  0  0  1  0  0  0  0  0  0
  185.9660  175.7210  136.6250 C   0  0  1  0  0  3  0  0  0  0  0  0
  182.9560  175.2320  134.5980 O   0  0  0  0  0  1  0  0  0  0  0  0
  184.2790  174.9360  134.9230 C   0  0  0  0  0  2  0  0  0  0  0  0
  188.7140  172.6220  135.1960 C   0  0  0  0  0  1  0  0  0  0  0  0
  188.6040  173.3020  136.5490 C   0  0  0  0  0  2  0  0  0  0  0  0
  181.7830  178.9850  140.0630 C   0  0  0  0  0  3  0  0  0  0  0  0
  182.9350  179.4730  139.4250 C   0  0  0  0  0  0  0  0  0  0  0  0
  182.8250  180.6120  138.6080 C   0  0  0  0  0  3  0  0  0  0  0  0
  181.5010  182.3460  137.6470 F   0  0  0  0  0  0  0  0  0  0  0  0
  180.4550  180.7530  139.0780 C   0  0  0  0  0  3  0  0  0  0  0  0
  181.5920  181.2490  138.4360 C   0  0  0  0  0  0  0  0  0  0  0  0
  180.5500  179.6220  139.8910 C   0  0  0  0  0  3  0  0  0  0  0  0
  2 13  1  1  0  0  0
  3  7  1  0  0  0  0
  4  6  1  1  0  0  0
  4  2  1  0  0  0  0
  5  8  1  0  0  0  0
  6 16  1  0  0  0  0
  7 11  1  6  0  0  0
  7  2  1  0  0  0  0
  8 17  1  6  0  0  0
  8 14  1  0  0  0  0
  9  1  1  6  0  0  0
  9 12  1  0  0  0  0
  9 15  1  0  0  0  0
 12 11  1  0  0  0  0
 13 10  1  0  0  0  0
 14  5  1  6  0  0  0
 14  4  1  0  0  0  0
 15  3  1  0  0  0  0
 16 18  2  0  0  0  0
 17  9  1  0  0  0  0
 18 10  1  0  0  0  0
 20 19  1  0  0  0  0
 21 25  1  6  0  0  0
 22 23  1  0  0  0  0
 22 20  2  0  0  0  0
 23 21  1  0  0  0  0
 24 28  1  6  0  0  0
 24 26  1  0  0  0  0
 24 21  1  0  0  0  0
 26 14  1  0  0  0  0
 26 19  1  1  0  0  0
 27 28  1  0  0  0  0
 29 30  1  0  0  0  0
 30 20  1  0  0  0  0
 32 16  1  0  0  0  0
 32 31  2  0  0  0  0
 33 32  1  0  0  0  0
 34 36  1  0  0  0  0
 35 37  2  0  0  0  0
 36 33  2  0  0  0  0
 36 35  1  0  0  0  0
 37 31  1  0  0  0  0
M  END
>  <MODEL>
4

>  <REMARK>
 VINA RESULT:      -6.1      3.418      7.388
  Name = 
  4 active torsions:
  status: ('A' for Active; 'I' for Inactive)
    1  A    between atoms: C_5  and  C_23
    2  A    between atoms: C_6  and  C_31
    3  A    between atoms: C_27  and  C_33
    4  A    between atoms: C_29  and  C_36
                            x       y       z     vdW  Elec       q    Type
                         _______ _______ _______ _____ _____    ______ ____

>  <TORSDO>
F 4

$$$$
=
 OpenBabel10262423033D

 37 42  0  0  1  0  0  0  0  0999 V2000
  181.8180  182.7650  138.5410 C   0  0  0  0  0  1  0  0  0  0  0  0
  180.0100  177.7290  137.8070 C   0  0  1  0  0  3  0  0  0  0  0  0
  179.3090  180.1150  138.5800 C   0  0  0  0  0  2  0  0  0  0  0  0
  181.4850  177.2520  138.0230 C   0  0  2  0  0  3  0  0  0  0  0  0
  183.7720  178.2500  138.5710 C   0  0  0  0  0  2  0  0  0  0  0  0
  181.5590  175.8530  138.6450 C   0  0  0  0  0  2  0  0  0  0  0  0
  179.7770  179.2190  137.4450 C   0  0  1  0  0  3  0  0  0  0  0  0
  182.8990  179.2520  137.9500 N   0  0  1  0  0  0  0  0  0  0  0  0
  181.5610  181.3020  138.2530 C   0  0  2  0  0  0  0  0  0  0  0  0
  178.9310  175.7950  137.4300 C   0  0  0  0  0  2  0  0  0  0  0  0
  180.7860  179.8860  136.5030 C   0  0  0  0  0  2  0  0  0  0  0  0
  181.1470  181.2060  136.8880 O   0  0  0  0  0  0  0  0  0  0  0  0
  179.3950  176.9600  136.8080 O   0  0  0  0  0  0  0  0  0  0  0  0
  182.3280  178.2210  138.8520 C   0  0  1  0  0  0  0  0  0  0  0  0
  180.4670  180.8610  139.2310 C   0  0  0  0  0  2  0  0  0  0  0  0
  181.1600  174.7460  137.7040 C   0  0  0  0  0  0  0  0  0  0  0  0
  182.8840  180.5620  138.5740 C   0  0  0  0  0  2  0  0  0  0  0  0
  179.9230  174.7050  137.1920 C   0  0  0  0  0  3  0  0  0  0  0  0
  183.0780  179.2690  141.1960 C   0  0  0  0  0  2  0  0  0  0  0  0
  183.3290  178.7050  142.5610 C   0  0  0  0  0  0  0  0  0  0  0  0
  180.3960  179.3790  142.0120 C   0  0  1  0  0  3  0  0  0  0  0  0
  182.3660  178.5660  143.4910 C   0  0  0  0  0  3  0  0  0  0  0  0
  180.9140  178.9770  143.3970 C   0  0  0  0  0  2  0  0  0  0  0  0
  180.6630  178.3470  140.9020 C   0  0  1  0  0  3  0  0  0  0  0  0
  178.9780  179.6830  142.0890 N   0  0  0  0  0  1  0  0  0  0  0  0
  182.1190  178.3660  140.4020 C   0  0  1  0  0  3  0  0  0  0  0  0
  178.9430  176.6810  140.8870 O   0  0  0  0  0  1  0  0  0  0  0  0
  180.2490  176.9350  141.3030 C   0  0  0  0  0  2  0  0  0  0  0  0
  185.0630  178.5090  144.3190 C   0  0  0  0  0  1  0  0  0  0  0  0
  184.7090  178.2260  142.8700 C   0  0  0  0  0  2  0  0  0  0  0  0
  181.6880  172.4700  136.8060 C   0  0  0  0  0  3  0  0  0  0  0  0
  182.1250  173.6590  137.4100 C   0  0  0  0  0  0  0  0  0  0  0  0
  183.4870  173.7930  137.7340 C   0  0  0  0  0  3  0  0  0  0  0  0
  185.6980  172.9040  137.7740 F   0  0  0  0  0  0  0  0  0  0  0  0
  183.9400  171.5830  136.8550 C   0  0  0  0  0  3  0  0  0  0  0  0
  184.3900  172.7610  137.4570 C   0  0  0  0  0  0  0  0  0  0  0  0
  182.5900  171.4370  136.5300 C   0  0  0  0  0  3  0  0  0  0  0  0
  2 13  1  6  0  0  0
  2  4  1  0  0  0  0
  3 15  1  0  0  0  0
  4  6  1  1  0  0  0
  4 14  1  0  0  0  0
  7 11  1  1  0  0  0
  7  2  1  0  0  0  0
  7  3  1  0  0  0  0
  8  5  1  1  0  0  0
  8 17  1  0  0  0  0
  8 14  1  0  0  0  0
  9  1  1  1  0  0  0
  9 17  1  0  0  0  0
  9 15  1  0  0  0  0
 11 12  1  0  0  0  0
 12  9  1  0  0  0  0
 13 10  1  0  0  0  0
 14  5  1  1  0  0  0
 14 26  1  0  0  0  0
 16  6  1  0  0  0  0
 18 10  1  0  0  0  0
 18 16  2  0  0  0  0
 19 20  1  0  0  0  0
 20 30  1  0  0  0  0
 20 22  2  0  0  0  0
 21 25  1  1  0  0  0
 21 23  1  0  0  0  0
 23 22  1  0  0  0  0
 24 28  1  1  0  0  0
 24 21  1  0  0  0  0
 26 24  1  0  0  0  0
 26 19  1  6  0  0  0
 27 28  1  0  0  0  0
 30 29  1  0  0  0  0
 31 32  1  0  0  0  0
 32 16  1  0  0  0  0
 32 33  2  0  0  0  0
 35 36  2  0  0  0  0
 36 33  1  0  0  0  0
 36 34  1  0  0  0  0
 37 31  2  0  0  0  0
 37 35  1  0  0  0  0
M  END
>  <MODEL>
5

>  <REMARK>
 VINA RESULT:      -6.0      2.829      5.632
  Name = 
  4 active torsions:
  status: ('A' for Active; 'I' for Inactive)
    1  A    between atoms: C_5  and  C_23
    2  A    between atoms: C_6  and  C_31
    3  A    between atoms: C_27  and  C_33
    4  A    between atoms: C_29  and  C_36
                            x       y       z     vdW  Elec       q    Type
                         _______ _______ _______ _____ _____    ______ ____

>  <TORSDO>
F 4

$$$$
=
 OpenBabel10262423033D

 37 42  0  0  1  0  0  0  0  0999 V2000
  178.9300  180.3430  137.0210 C   0  0  0  0  0  1  0  0  0  0  0  0
  183.6720  179.1010  139.2890 C   0  0  1  0  0  3  0  0  0  0  0  0
  182.3700  179.1200  137.0350 C   0  0  0  0  0  2  0  0  0  0  0  0
  182.8900  178.9000  140.6300 C   0  0  2  0  0  3  0  0  0  0  0  0
  180.4840  178.9850  141.4870 C   0  0  0  0  0  2  0  0  0  0  0  0
  183.5430  177.8490  141.5340 C   0  0  0  0  0  2  0  0  0  0  0  0
  182.9870  179.9240  138.1670 C   0  0  1  0  0  3  0  0  0  0  0  0
  180.6400  179.8110  140.2850 N   0  0  1  0  0  0  0  0  0  0  0  0
  180.1460  180.0810  137.8830 C   0  0  2  0  0  0  0  0  0  0  0  0
  185.7900  178.6720  139.9020 C   0  0  0  0  0  2  0  0  0  0  0  0
  182.1580  181.1430  138.5870 C   0  0  0  0  0  2  0  0  0  0  0  0
  180.9310  181.2760  137.8810 O   0  0  0  0  0  0  0  0  0  0  0  0
  184.9150  179.7020  139.5410 O   0  0  0  0  0  0  0  0  0  0  0  0
  181.4140  178.5530  140.4310 C   0  0  1  0  0  0  0  0  0  0  0  0
  180.8770  178.8970  137.2430 C   0  0  0  0  0  2  0  0  0  0  0  0
  184.8360  178.3040  142.1600 C   0  0  0  0  0  0  0  0  0  0  0  0
  179.6050  179.6760  139.2770 C   0  0  0  0  0  2  0  0  0  0  0  0
  185.8830  178.6300  141.3920 C   0  0  0  0  0  3  0  0  0  0  0  0
  179.5040  176.7060  140.1160 C   0  0  0  0  0  2  0  0  0  0  0  0
  179.4110  175.2390  140.4010 C   0  0  0  0  0  0  0  0  0  0  0  0
  180.6690  175.9060  137.6930 C   0  0  1  0  0  3  0  0  0  0  0  0
  179.7850  174.2910  139.5210 C   0  0  0  0  0  3  0  0  0  0  0  0
  180.2960  174.4790  138.1100 C   0  0  0  0  0  2  0  0  0  0  0  0
  181.6480  176.6190  138.6440 C   0  0  1  0  0  3  0  0  0  0  0  0
  181.1960  175.8980  136.3400 N   0  0  0  0  0  1  0  0  0  0  0  0
  180.9700  177.1330  139.9270 C   0  0  1  0  0  3  0  0  0  0  0  0
  183.9450  176.1260  138.1820 O   0  0  0  0  0  1  0  0  0  0  0  0
  182.8630  175.7620  138.9830 C   0  0  0  0  0  2  0  0  0  0  0  0
  179.4250  173.4300  142.0940 C   0  0  0  0  0  1  0  0  0  0  0  0
  178.9310  174.8240  141.7520 C   0  0  0  0  0  2  0  0  0  0  0  0
  183.9030  178.7720  144.4350 C   0  0  0  0  0  3  0  0  0  0  0  0
  184.9630  178.3130  143.6380 C   0  0  0  0  0  0  0  0  0  0  0  0
  186.1410  177.8710  144.2660 C   0  0  0  0  0  3  0  0  0  0  0  0
  187.3930  177.4590  146.2510 F   0  0  0  0  0  0  0  0  0  0  0  0
  185.1900  178.3470  146.4400 C   0  0  0  0  0  3  0  0  0  0  0  0
  186.2530  177.8870  145.6590 C   0  0  0  0  0  0  0  0  0  0  0  0
  184.0150  178.7890  145.8290 C   0  0  0  0  0  3  0  0  0  0  0  0
  2 13  1  1  0  0  0
  2  4  1  0  0  0  0
  3 15  1  0  0  0  0
  4  6  1  6  0  0  0
  6 16  1  0  0  0  0
  7  3  1  1  0  0  0
  7 11  1  0  0  0  0
  7  2  1  0  0  0  0
  8 17  1  6  0  0  0
  8 14  1  0  0  0  0
  8  5  1  0  0  0  0
  9  1  1  6  0  0  0
  9 17  1  0  0  0  0
 10 18  1  0  0  0  0
 12  9  1  0  0  0  0
 12 11  1  0  0  0  0
 13 10  1  0  0  0  0
 14  4  1  0  0  0  0
 14  5  1  1  0  0  0
 15  9  1  0  0  0  0
 16 32  1  0  0  0  0
 18 16  2  0  0  0  0
 19 20  1  0  0  0  0
 20 30  1  0  0  0  0
 21 25  1  6  0  0  0
 21 23  1  0  0  0  0
 21 24  1  0  0  0  0
 22 20  2  0  0  0  0
 23 22  1  0  0  0  0
 24 28  1  1  0  0  0
 24 26  1  0  0  0  0
 26 19  1  6  0  0  0
 26 14  1  0  0  0  0
 27 28  1  0  0  0  0
 30 29  1  0  0  0  0
 31 37  1  0  0  0  0
 32 33  1  0  0  0  0
 32 31  2  0  0  0  0
 33 36  2  0  0  0  0
 36 34  1  0  0  0  0
 36 35  1  0  0  0  0
 37 35  2  0  0  0  0
M  END
>  <MODEL>
6

>  <REMARK>
 VINA RESULT:      -5.7      3.569      5.974
  Name = 
  4 active torsions:
  status: ('A' for Active; 'I' for Inactive)
    1  A    between atoms: C_5  and  C_23
    2  A    between atoms: C_6  and  C_31
    3  A    between atoms: C_27  and  C_33
    4  A    between atoms: C_29  and  C_36
                            x       y       z     vdW  Elec       q    Type
                         _______ _______ _______ _____ _____    ______ ____

>  <TORSDO>
F 4

$$$$
=
 OpenBabel10262423033D

 37 42  0  0  1  0  0  0  0  0999 V2000
  180.5100  182.0610  137.8880 C   0  0  0  0  0  1  0  0  0  0  0  0
  179.8550  176.7170  138.3070 C   0  0  1  0  0  3  0  0  0  0  0  0
  178.9400  179.0110  139.1330 C   0  0  0  0  0  2  0  0  0  0  0  0
  181.3680  176.5810  137.9330 C   0  0  2  0  0  3  0  0  0  0  0  0
  183.3710  178.0860  137.4270 C   0  0  0  0  0  2  0  0  0  0  0  0
  182.0160  175.3440  138.5640 C   0  0  0  0  0  2  0  0  0  0  0  0
  179.1430  178.0530  137.9710 C   0  0  1  0  0  3  0  0  0  0  0  0
  182.1100  178.7820  137.1500 N   0  0  1  0  0  0  0  0  0  0  0  0
  180.5300  180.5490  137.8330 C   0  0  2  0  0  0  0  0  0  0  0  0
  179.2230  174.5730  138.5380 C   0  0  0  0  0  2  0  0  0  0  0  0
  179.5180  178.7440  136.6550 C   0  0  0  0  0  2  0  0  0  0  0  0
  179.6640  180.1540  136.7660 O   0  0  0  0  0  0  0  0  0  0  0  0
  179.1140  175.6900  137.7020 O   0  0  0  0  0  0  0  0  0  0  0  0
  182.1980  177.8180  138.2750 C   0  0  1  0  0  0  0  0  0  0  0  0
  180.0370  180.0660  139.2000 C   0  0  0  0  0  2  0  0  0  0  0  0
  181.5720  174.0420  137.9480 C   0  0  0  0  0  0  0  0  0  0  0  0
  182.0130  180.1470  137.6340 C   0  0  0  0  0  2  0  0  0  0  0  0
  180.2850  173.6760  137.9910 C   0  0  0  0  0  3  0  0  0  0  0  0
  181.9060  177.3690  140.8960 C   0  0  0  0  0  2  0  0  0  0  0  0
  181.6580  178.2440  142.0850 C   0  0  0  0  0  0  0  0  0  0  0  0
  184.6070  177.9980  141.3120 C   0  0  1  0  0  3  0  0  0  0  0  0
  182.6450  178.8210  142.7960 C   0  0  0  0  0  3  0  0  0  0  0  0
  184.1390  178.6780  142.6030 C   0  0  0  0  0  2  0  0  0  0  0  0
  184.0240  178.6000  140.0200 C   0  0  1  0  0  3  0  0  0  0  0  0
  186.0590  177.9990  141.2580 N   0  0  0  0  0  1  0  0  0  0  0  0
  182.5690  178.1670  139.7610 C   0  0  1  0  0  3  0  0  0  0  0  0
  184.5700  180.5250  138.7060 O   0  0  0  0  0  1  0  0  0  0  0  0
  184.1520  180.1180  139.9720 C   0  0  0  0  0  2  0  0  0  0  0  0
  180.0470  178.4250  143.9590 C   0  0  0  0  0  1  0  0  0  0  0  0
  180.2390  178.5250  142.4560 C   0  0  0  0  0  2  0  0  0  0  0  0
  183.9140  173.5630  137.2060 C   0  0  0  0  0  3  0  0  0  0  0  0
  182.5870  173.1340  137.3600 C   0  0  0  0  0  0  0  0  0  0  0  0
  182.2420  171.8370  136.9410 C   0  0  0  0  0  3  0  0  0  0  0  0
  182.8580  169.7420  135.9860 F   0  0  0  0  0  0  0  0  0  0  0  0
  184.5220  171.4290  136.2380 C   0  0  0  0  0  3  0  0  0  0  0  0
  183.2040  170.9890  136.3850 C   0  0  0  0  0  0  0  0  0  0  0  0
  184.8770  172.7160  136.6490 C   0  0  0  0  0  3  0  0  0  0  0  0
  2 13  1  6  0  0  0
  3 15  1  0  0  0  0
  4 14  1  0  0  0  0
  4  2  1  0  0  0  0
  4  6  1  1  0  0  0
  7 11  1  6  0  0  0
  7  2  1  0  0  0  0
  7  3  1  0  0  0  0
  8  5  1  6  0  0  0
  8 17  1  0  0  0  0
  8 14  1  0  0  0  0
  9  1  1  1  0  0  0
  9 15  1  0  0  0  0
 11 12  1  0  0  0  0
 12  9  1  0  0  0  0
 13 10  1  0  0  0  0
 14  5  1  6  0  0  0
 14 26  1  0  0  0  0
 16 18  2  0  0  0  0
 16  6  1  0  0  0  0
 17  9  1  0  0  0  0
 18 10  1  0  0  0  0
 19 20  1  0  0  0  0
 20 30  1  0  0  0  0
 20 22  2  0  0  0  0
 21 25  1  6  0  0  0
 21 23  1  0  0  0  0
 23 22  1  0  0  0  0
 24 28  1  1  0  0  0
 24 21  1  0  0  0  0
 26 24  1  0  0  0  0
 26 19  1  1  0  0  0
 27 28  1  0  0  0  0
 30 29  1  0  0  0  0
 31 32  1  0  0  0  0
 32 16  1  0  0  0  0
 33 32  2  0  0  0  0
 34 36  1  0  0  0  0
 35 36  2  0  0  0  0
 35 37  1  0  0  0  0
 36 33  1  0  0  0  0
 37 31  2  0  0  0  0
M  END
>  <MODEL>
7

>  <REMARK>
 VINA RESULT:      -4.9      2.768      5.866
  Name = 
  4 active torsions:
  status: ('A' for Active; 'I' for Inactive)
    1  A    between atoms: C_5  and  C_23
    2  A    between atoms: C_6  and  C_31
    3  A    between atoms: C_27  and  C_33
    4  A    between atoms: C_29  and  C_36
                            x       y       z     vdW  Elec       q    Type
                         _______ _______ _______ _____ _____    ______ ____

>  <TORSDO>
F 4

$$$$
=
 OpenBabel10262423033D

 37 42  0  0  1  0  0  0  0  0999 V2000
  185.5370  177.6400  142.6340 C   0  0  0  0  0  1  0  0  0  0  0  0
  180.9940  179.0820  140.0940 C   0  0  1  0  0  3  0  0  0  0  0  0
  182.0700  177.2260  141.5680 C   0  0  0  0  0  2  0  0  0  0  0  0
  181.8950  179.9110  139.1190 C   0  0  2  0  0  3  0  0  0  0  0  0
  184.3750  180.3840  138.7200 C   0  0  0  0  0  2  0  0  0  0  0  0
  181.2930  180.0120  137.7130 C   0  0  0  0  0  2  0  0  0  0  0  0
  181.5980  178.6660  141.4600 C   0  0  1  0  0  3  0  0  0  0  0  0
  184.1340  179.9920  140.1120 N   0  0  1  0  0  0  0  0  0  0  0  0
  184.4020  178.2620  141.8500 C   0  0  2  0  0  0  0  0  0  0  0  0
  178.9310  179.4970  139.3090 C   0  0  0  0  0  2  0  0  0  0  0  0
  182.5110  179.6740  142.1680 C   0  0  0  0  0  2  0  0  0  0  0  0
  183.6670  179.0900  142.7550 O   0  0  0  0  0  0  0  0  0  0  0  0
  179.8060  179.7790  140.3630 O   0  0  0  0  0  0  0  0  0  0  0  0
  183.3300  179.3920  139.0200 C   0  0  1  0  0  0  0  0  0  0  0  0
  183.5670  177.0960  141.3110 C   0  0  0  0  0  2  0  0  0  0  0  0
  180.0850  180.9110  137.6310 C   0  0  0  0  0  0  0  0  0  0  0  0
  185.0600  179.0270  140.6750 C   0  0  0  0  0  2  0  0  0  0  0  0
  178.9820  180.6280  138.3350 C   0  0  0  0  0  3  0  0  0  0  0  0
  182.5090  177.2020  137.7210 C   0  0  0  0  0  2  0  0  0  0  0  0
  182.8520  175.7470  137.8050 C   0  0  0  0  0  0  0  0  0  0  0  0
  184.7320  177.3690  136.0190 C   0  0  1  0  0  3  0  0  0  0  0  0
  183.8550  175.1840  137.1070 C   0  0  0  0  0  3  0  0  0  0  0  0
  184.7720  175.8400  136.0980 C   0  0  0  0  0  2  0  0  0  0  0  0
  184.9290  178.0880  137.3660 C   0  0  1  0  0  3  0  0  0  0  0  0
  185.7100  177.8350  135.0510 N   0  0  0  0  0  1  0  0  0  0  0  0
  183.6670  178.0650  138.2480 C   0  0  1  0  0  3  0  0  0  0  0  0
  187.2090  178.4440  138.0040 O   0  0  0  0  0  1  0  0  0  0  0  0
  186.1350  177.5650  138.1380 C   0  0  0  0  0  2  0  0  0  0  0  0
  180.6170  175.3490  138.7970 C   0  0  0  0  0  1  0  0  0  0  0  0
  182.0670  174.9030  138.7540 C   0  0  0  0  0  2  0  0  0  0  0  0
  179.4260  182.0000  135.4770 C   0  0  0  0  0  3  0  0  0  0  0  0
  180.1030  182.0680  136.7040 C   0  0  0  0  0  0  0  0  0  0  0  0
  180.8000  183.2450  137.0290 C   0  0  0  0  0  3  0  0  0  0  0  0
  181.4890  185.4580  136.4720 F   0  0  0  0  0  0  0  0  0  0  0  0
  180.1350  184.2490  134.9290 C   0  0  0  0  0  3  0  0  0  0  0  0
  180.8150  184.3300  136.1470 C   0  0  0  0  0  0  0  0  0  0  0  0
  179.4410  183.0850  134.5940 C   0  0  0  0  0  3  0  0  0  0  0  0
  2 13  1  1  0  0  0
  2  7  1  0  0  0  0
  4  6  1  6  0  0  0
  4  2  1  0  0  0  0
  7  3  1  6  0  0  0
  7 11  1  0  0  0  0
  8  5  1  6  0  0  0
  8 17  1  0  0  0  0
  9  1  1  1  0  0  0
  9 12  1  0  0  0  0
 10 13  1  0  0  0  0
 11 12  1  0  0  0  0
 14  5  1  6  0  0  0
 14  4  1  0  0  0  0
 14  8  1  0  0  0  0
 15  3  1  0  0  0  0
 15  9  1  0  0  0  0
 16  6  1  0  0  0  0
 16 18  2  0  0  0  0
 17  9  1  0  0  0  0
 18 10  1  0  0  0  0
 19 20  1  0  0  0  0
 20 30  1  0  0  0  0
 21 25  1  6  0  0  0
 21 23  1  0  0  0  0
 21 24  1  0  0  0  0
 22 20  2  0  0  0  0
 23 22  1  0  0  0  0
 24 28  1  1  0  0  0
 24 26  1  0  0  0  0
 26 19  1  6  0  0  0
 26 14  1  0  0  0  0
 27 28  1  0  0  0  0
 30 29  1  0  0  0  0
 31 32  1  0  0  0  0
 32 33  2  0  0  0  0
 32 16  1  0  0  0  0
 35 36  2  0  0  0  0
 36 34  1  0  0  0  0
 36 33  1  0  0  0  0
 37 35  1  0  0  0  0
 37 31  2  0  0  0  0
M  END
>  <MODEL>
8

>  <REMARK>
 VINA RESULT:      -4.7      3.654      7.323
  Name = 
  4 active torsions:
  status: ('A' for Active; 'I' for Inactive)
    1  A    between atoms: C_5  and  C_23
    2  A    between atoms: C_6  and  C_31
    3  A    between atoms: C_27  and  C_33
    4  A    between atoms: C_29  and  C_36
                            x       y       z     vdW  Elec       q    Type
                         _______ _______ _______ _____ _____    ______ ____

>  <TORSDO>
F 4

$$$$
