=
 OpenBabel10262422243D

 43 47  0  0  1  0  0  0  0  0999 V2000
  183.4740  172.2570  135.8670 C   0  0  2  0  0  3  0  0  0  0  0  0
  185.0460  176.8490  137.3230 C   0  0  2  0  0  3  0  0  0  0  0  0
  187.7640  176.6520  137.9060 C   0  0  2  0  0  3  0  0  0  0  0  0
  183.6120  174.8230  135.6870 C   0  0  1  0  0  3  0  0  0  0  0  0
  184.2780  172.2830  137.1750 C   0  0  0  0  0  2  0  0  0  0  0  0
  184.3200  171.9820  134.7910 O   0  0  0  0  0  1  0  0  0  0  0  0
  185.0170  174.5280  136.2560 C   0  0  2  0  0  3  0  0  0  0  0  0
  182.7220  173.5700  135.6240 C   0  0  0  0  0  2  0  0  0  0  0  0
  184.9120  173.6440  137.5020 C   0  0  0  0  0  2  0  0  0  0  0  0
  187.2090  175.5060  137.0590 C   0  0  0  0  0  2  0  0  0  0  0  0
  185.8240  175.8150  136.4830 C   0  0  2  0  0  3  0  0  0  0  0  0
  183.7170  177.1510  136.6380 C   0  0  0  0  0  2  0  0  0  0  0  0
  185.7840  178.1110  137.5330 N   0  0  0  0  0  0  0  0  0  0  0  0
  187.2450  177.9930  137.3930 C   0  0  0  0  0  2  0  0  0  0  0  0
  182.8830  175.8820  136.5150 C   0  0  0  0  0  2  0  0  0  0  0  0
  189.2880  176.6350  137.9340 C   0  0  2  0  0  3  0  0  0  0  0  0
  189.7660  175.3680  137.6340 F   0  0  0  0  0  0  0  0  0  0  0  0
  189.7580  177.0440  139.2480 N   0  0  0  0  0  2  0  0  0  0  0  0
  191.1360  177.0270  139.6200 C   0  0  0  0  0  0  0  0  0  0  0  0
  192.0260  176.7320  138.7790 O   0  0  0  0  0  0  0  0  0  0  0  0
  191.5970  177.4330  141.3020 S   0  0  0  0  0  0  0  0  0  0  0  0
  190.0600  176.7930  142.0620 C   0  0  1  0  0  3  0  0  0  0  0  0
  190.3260  175.6770  143.0670 C   0  0  0  0  0  2  0  0  0  0  0  0
  191.3960  176.6350  145.1010 C   0  0  0  0  0  1  0  0  0  0  0  0
  191.6380  175.8960  143.8000 C   0  0  0  0  0  2  0  0  0  0  0  0
  189.3620  177.8340  142.6810 O   0  0  0  0  0  0  0  0  0  0  0  0
  188.0140  177.5690  142.4230 C   0  0  2  0  0  3  0  0  0  0  0  0
  187.5560  178.4050  141.4020 O   0  0  0  0  0  1  0  0  0  0  0  0
  187.2030  177.7780  143.6600 C   0  0  0  0  0  0  0  0  0  0  0  0
  185.1070  178.4160  144.6960 C   0  0  0  0  0  3  0  0  0  0  0  0
  186.9740  177.7220  146.0750 C   0  0  0  0  0  3  0  0  0  0  0  0
  185.6520  178.1670  145.9590 C   0  0  0  0  0  3  0  0  0  0  0  0
  187.7480  177.5270  144.9270 C   0  0  0  0  0  3  0  0  0  0  0  0
  185.8810  178.2210  143.5480 C   0  0  0  0  0  3  0  0  0  0  0  0
  185.5360  178.5240  138.8530 N   0  0  0  0  0  2  0  0  0  0  0  0
  182.3650  178.2390  140.8140 C   0  0  0  0  0  3  0  0  0  0  0  0
  181.6090  179.2820  140.2550 C   0  0  0  0  0  0  0  0  0  0  0  0
  183.4610  179.8050  138.7760 C   0  0  0  0  0  3  0  0  0  0  0  0
  183.6610  177.9840  140.3570 C   0  0  0  0  0  3  0  0  0  0  0  0
  184.2150  178.7700  139.3370 C   0  0  0  0  0  0  0  0  0  0  0  0
  182.1660  180.0600  139.2340 C   0  0  0  0  0  3  0  0  0  0  0  0
  180.3120  179.5640  140.6910 O   0  0  0  0  0  0  0  0  0  0  0  0
  180.0050  179.8470  142.0490 C   0  0  0  0  0  1  0  0  0  0  0  0
  1  6  1  6  0  0  0
  1  5  1  0  0  0  0
  2 12  1  6  0  0  0
  2 13  1  0  0  0  0
  3 16  1  6  0  0  0
  4  8  1  1  0  0  0
  4  7  1  0  0  0  0
  4 15  1  0  0  0  0
  5  9  1  0  0  0  0
  7 11  1  0  0  0  0
  7  9  1  1  0  0  0
  8  1  1  0  0  0  0
 10  3  1  0  0  0  0
 11 10  1  1  0  0  0
 11  2  1  0  0  0  0
 13 35  1  0  0  0  0
 14 13  1  0  0  0  0
 14  3  1  0  0  0  0
 15 12  1  0  0  0  0
 16 17  1  1  0  0  0
 16 18  1  0  0  0  0
 18 19  1  0  0  0  0
 19 21  1  0  0  0  0
 20 19  2  0  0  0  0
 21 22  1  0  0  0  0
 22 26  1  0  0  0  0
 22 23  1  1  0  0  0
 23 25  1  0  0  0  0
 25 24  1  0  0  0  0
 27 28  1  6  0  0  0
 27 26  1  0  0  0  0
 27 29  1  0  0  0  0
 29 33  1  0  0  0  0
 30 32  2  0  0  0  0
 32 31  1  0  0  0  0
 33 31  2  0  0  0  0
 34 29  2  0  0  0  0
 34 30  1  0  0  0  0
 35 40  1  0  0  0  0
 37 42  1  0  0  0  0
 37 36  2  0  0  0  0
 38 41  2  0  0  0  0
 38 40  1  0  0  0  0
 39 36  1  0  0  0  0
 40 39  2  0  0  0  0
 41 37  1  0  0  0  0
 42 43  1  0  0  0  0
M  END
>  <MODEL>
1

>  <REMARK>
 VINA RESULT:      -8.4      0.000      0.000
  Name = 
  12 active torsions:
  status: ('A' for Active; 'I' for Inactive)
    1  A    between atoms: N_1  and  N_34
    2  A    between atoms: N_1  and  C_35
    3  A    between atoms: C_2  and  N_6
    4  A    between atoms: C_2  and  C_13
    5  A    between atoms: S_3  and  C_4
    6  A    between atoms: S_3  and  C_12
    7  A    between atoms: C_4  and  C_15
    8  A    between atoms: C_4  and  O_22
    9  A    between atoms: C_11  and  C_14
   10  A    between atoms: C_14  and  O_22
   11  A    between atoms: C_15  and  C_42
   12  A    between atoms: C_19  and  O_25
                            x       y       z     vdW  Elec       q    Type
                         _______ _______ _______ _____ _____    ______ ____

>  <TORSDO>
F 12

$$$$
=
 OpenBabel10262422243D

 43 47  0  0  1  0  0  0  0  0999 V2000
  196.6140  174.2920  137.1330 C   0  0  2  0  0  3  0  0  0  0  0  0
  191.5720  174.0790  136.6660 C   0  0  2  0  0  3  0  0  0  0  0  0
  190.4960  176.0020  138.3730 C   0  0  2  0  0  3  0  0  0  0  0  0
  194.4160  174.1230  135.8000 C   0  0  1  0  0  3  0  0  0  0  0  0
  195.8410  174.2140  138.4590 C   0  0  0  0  0  2  0  0  0  0  0  0
  196.8840  175.6230  136.8150 O   0  0  0  0  0  1  0  0  0  0  0  0
  193.9360  174.9960  136.9800 C   0  0  2  0  0  3  0  0  0  0  0  0
  195.8570  173.6180  135.9830 C   0  0  0  0  0  2  0  0  0  0  0  0
  194.3180  174.3470  138.3120 C   0  0  0  0  0  2  0  0  0  0  0  0
  191.9800  176.1920  138.0520 C   0  0  0  0  0  2  0  0  0  0  0  0
  192.4420  175.3360  136.8690 C   0  0  2  0  0  3  0  0  0  0  0  0
  192.0560  173.3320  135.4280 C   0  0  0  0  0  2  0  0  0  0  0  0
  190.1320  174.3770  136.5250 N   0  0  0  0  0  0  0  0  0  0  0  0
  189.7170  175.6650  137.1030 C   0  0  0  0  0  2  0  0  0  0  0  0
  193.5090  172.9080  135.5970 C   0  0  0  0  0  2  0  0  0  0  0  0
  189.9140  177.2330  139.0570 C   0  0  2  0  0  3  0  0  0  0  0  0
  189.8160  178.2870  138.1620 F   0  0  0  0  0  0  0  0  0  0  0  0
  190.7570  177.6130  140.1800 N   0  0  0  0  0  2  0  0  0  0  0  0
  190.7600  176.9100  141.4220 C   0  0  0  0  0  0  0  0  0  0  0  0
  190.0810  175.8590  141.5680 O   0  0  0  0  0  0  0  0  0  0  0  0
  191.7440  177.5330  142.7820 S   0  0  0  0  0  0  0  0  0  0  0  0
  190.5770  177.0110  144.0930 C   0  0  1  0  0  3  0  0  0  0  0  0
  191.1420  177.2200  145.4940 C   0  0  0  0  0  2  0  0  0  0  0  0
  192.0060  175.9880  147.4780 C   0  0  0  0  0  1  0  0  0  0  0  0
  191.9150  176.0010  145.9650 C   0  0  0  0  0  2  0  0  0  0  0  0
  189.3670  177.6970  143.9600 O   0  0  0  0  0  0  0  0  0  0  0  0
  188.3960  176.8180  144.4450 C   0  0  2  0  0  3  0  0  0  0  0  0
  187.7160  176.2300  143.3750 O   0  0  0  0  0  1  0  0  0  0  0  0
  187.4340  177.5470  145.3250 C   0  0  0  0  0  0  0  0  0  0  0  0
  186.8480  178.3990  147.5160 C   0  0  0  0  0  3  0  0  0  0  0  0
  185.3540  178.7550  145.6430 C   0  0  0  0  0  3  0  0  0  0  0  0
  185.6590  178.9190  146.9990 C   0  0  0  0  0  3  0  0  0  0  0  0
  186.2410  178.0710  144.8070 C   0  0  0  0  0  3  0  0  0  0  0  0
  187.7350  177.7140  146.6800 C   0  0  0  0  0  3  0  0  0  0  0  0
  189.4310  173.3760  137.2180 N   0  0  0  0  0  2  0  0  0  0  0  0
  187.1920  171.2310  135.1270 C   0  0  0  0  0  3  0  0  0  0  0  0
  185.9340  171.5690  135.6490 C   0  0  0  0  0  0  0  0  0  0  0  0
  187.0070  173.0970  137.1990 C   0  0  0  0  0  3  0  0  0  0  0  0
  188.3500  171.8230  135.6400 C   0  0  0  0  0  3  0  0  0  0  0  0
  188.2600  172.7570  136.6820 C   0  0  0  0  0  0  0  0  0  0  0  0
  185.8500  172.5050  136.6860 C   0  0  0  0  0  3  0  0  0  0  0  0
  184.7580  170.9930  135.1600 O   0  0  0  0  0  0  0  0  0  0  0  0
  183.7760  170.4150  136.0090 C   0  0  0  0  0  1  0  0  0  0  0  0
  1  6  1  6  0  0  0
  1  5  1  0  0  0  0
  2 12  1  6  0  0  0
  2 11  1  0  0  0  0
  3 16  1  6  0  0  0
  4 15  1  1  0  0  0
  4  8  1  0  0  0  0
  4  7  1  0  0  0  0
  7  9  1  1  0  0  0
  8  1  1  0  0  0  0
  9  5  1  0  0  0  0
 10  3  1  0  0  0  0
 11  7  1  0  0  0  0
 11 10  1  1  0  0  0
 12 15  1  0  0  0  0
 13  2  1  0  0  0  0
 13 14  1  0  0  0  0
 13 35  1  0  0  0  0
 14  3  1  0  0  0  0
 16 17  1  6  0  0  0
 16 18  1  0  0  0  0
 18 19  1  0  0  0  0
 19 20  2  0  0  0  0
 19 21  1  0  0  0  0
 21 22  1  0  0  0  0
 22 23  1  1  0  0  0
 23 25  1  0  0  0  0
 25 24  1  0  0  0  0
 26 22  1  0  0  0  0
 26 27  1  0  0  0  0
 27 28  1  6  0  0  0
 27 29  1  0  0  0  0
 29 34  1  0  0  0  0
 31 32  2  0  0  0  0
 32 30  1  0  0  0  0
 33 29  2  0  0  0  0
 33 31  1  0  0  0  0
 34 30  2  0  0  0  0
 36 39  2  0  0  0  0
 36 37  1  0  0  0  0
 37 41  2  0  0  0  0
 39 40  1  0  0  0  0
 40 38  2  0  0  0  0
 40 35  1  0  0  0  0
 41 38  1  0  0  0  0
 42 37  1  0  0  0  0
 42 43  1  0  0  0  0
M  END
>  <MODEL>
2

>  <REMARK>
 VINA RESULT:      -8.2      3.745      7.202
  Name = 
  12 active torsions:
  status: ('A' for Active; 'I' for Inactive)
    1  A    between atoms: N_1  and  N_34
    2  A    between atoms: N_1  and  C_35
    3  A    between atoms: C_2  and  N_6
    4  A    between atoms: C_2  and  C_13
    5  A    between atoms: S_3  and  C_4
    6  A    between atoms: S_3  and  C_12
    7  A    between atoms: C_4  and  C_15
    8  A    between atoms: C_4  and  O_22
    9  A    between atoms: C_11  and  C_14
   10  A    between atoms: C_14  and  O_22
   11  A    between atoms: C_15  and  C_42
   12  A    between atoms: C_19  and  O_25
                            x       y       z     vdW  Elec       q    Type
                         _______ _______ _______ _____ _____    ______ ____

>  <TORSDO>
F 12

$$$$
=
 OpenBabel10262422243D

 43 47  0  0  1  0  0  0  0  0999 V2000
  190.0300  177.3790  144.5850 C   0  0  2  0  0  3  0  0  0  0  0  0
  190.8680  177.0100  139.6000 C   0  0  2  0  0  3  0  0  0  0  0  0
  188.3870  177.0770  138.3320 C   0  0  2  0  0  3  0  0  0  0  0  0
  191.2600  177.9480  142.3940 C   0  0  1  0  0  3  0  0  0  0  0  0
  189.1850  176.3200  143.8600 C   0  0  0  0  0  2  0  0  0  0  0  0
  189.3200  178.5760  144.6770 O   0  0  0  0  0  1  0  0  0  0  0  0
  189.8420  177.6980  141.8360 C   0  0  2  0  0  3  0  0  0  0  0  0
  191.3760  177.6170  143.8910 C   0  0  0  0  0  2  0  0  0  0  0  0
  189.3050  176.3520  142.3290 C   0  0  0  0  0  2  0  0  0  0  0  0
  188.3820  177.5950  139.7720 C   0  0  0  0  0  2  0  0  0  0  0  0
  189.7910  177.8570  140.3100 C   0  0  2  0  0  3  0  0  0  0  0  0
  192.2410  177.3900  140.1440 C   0  0  0  0  0  2  0  0  0  0  0  0
  190.8650  177.1650  138.1310 N   0  0  0  0  0  0  0  0  0  0  0  0
  189.5870  177.6350  137.5710 C   0  0  0  0  0  2  0  0  0  0  0  0
  192.3100  177.1270  141.6430 C   0  0  0  0  0  2  0  0  0  0  0  0
  187.0850  177.4160  137.6160 C   0  0  2  0  0  3  0  0  0  0  0  0
  187.3410  178.0750  136.4240 F   0  0  0  0  0  0  0  0  0  0  0  0
  186.2560  178.2480  138.4750 N   0  0  0  0  0  2  0  0  0  0  0  0
  184.8420  178.3590  138.3190 C   0  0  0  0  0  0  0  0  0  0  0  0
  184.2310  177.6590  137.4690 O   0  0  0  0  0  0  0  0  0  0  0  0
  183.9310  179.5060  139.3500 S   0  0  0  0  0  0  0  0  0  0  0  0
  183.5100  178.2800  140.6430 C   0  0  1  0  0  3  0  0  0  0  0  0
  182.8260  177.0420  140.0720 C   0  0  0  0  0  2  0  0  0  0  0  0
  180.8180  178.0740  141.1220 C   0  0  0  0  0  1  0  0  0  0  0  0
  181.3250  177.2430  139.9600 C   0  0  0  0  0  2  0  0  0  0  0  0
  184.6600  177.9080  141.3440 O   0  0  0  0  0  0  0  0  0  0  0  0
  185.0370  179.0510  142.0550 C   0  0  2  0  0  3  0  0  0  0  0  0
  186.3320  179.4260  141.6920 O   0  0  0  0  0  1  0  0  0  0  0  0
  184.9700  178.7890  143.5240 C   0  0  0  0  0  0  0  0  0  0  0  0
  183.7510  178.9290  145.6130 C   0  0  0  0  0  3  0  0  0  0  0  0
  185.9500  177.9150  145.5640 C   0  0  0  0  0  3  0  0  0  0  0  0
  184.8090  178.3010  146.2760 C   0  0  0  0  0  3  0  0  0  0  0  0
  186.0300  178.1580  144.1900 C   0  0  0  0  0  3  0  0  0  0  0  0
  183.8310  179.1720  144.2380 C   0  0  0  0  0  3  0  0  0  0  0  0
  191.1070  175.8970  137.5790 N   0  0  0  0  0  2  0  0  0  0  0  0
  194.1970  173.8220  137.2180 C   0  0  0  0  0  3  0  0  0  0  0  0
  195.0010  174.6710  136.4400 C   0  0  0  0  0  0  0  0  0  0  0  0
  193.2170  176.3180  136.4290 C   0  0  0  0  0  3  0  0  0  0  0  0
  192.9120  174.2200  137.5970 C   0  0  0  0  0  3  0  0  0  0  0  0
  192.4160  175.4700  137.1990 C   0  0  0  0  0  0  0  0  0  0  0  0
  194.5030  175.9190  136.0500 C   0  0  0  0  0  3  0  0  0  0  0  0
  196.2880  174.3020  136.0430 O   0  0  0  0  0  0  0  0  0  0  0  0
  197.3030  175.2530  135.7500 C   0  0  0  0  0  1  0  0  0  0  0  0
  1  6  1  6  0  0  0
  2 12  1  1  0  0  0
  2 11  1  0  0  0  0
  3 16  1  6  0  0  0
  3 10  1  0  0  0  0
  4 15  1  6  0  0  0
  4  8  1  0  0  0  0
  5  1  1  0  0  0  0
  7  9  1  6  0  0  0
  7  4  1  0  0  0  0
  8  1  1  0  0  0  0
  9  5  1  0  0  0  0
 11 10  1  6  0  0  0
 11  7  1  0  0  0  0
 12 15  1  0  0  0  0
 13  2  1  0  0  0  0
 14 13  1  0  0  0  0
 14  3  1  0  0  0  0
 16 17  1  6  0  0  0
 16 18  1  0  0  0  0
 19 18  1  0  0  0  0
 19 21  1  0  0  0  0
 20 19  2  0  0  0  0
 21 22  1  0  0  0  0
 22 23  1  6  0  0  0
 22 26  1  0  0  0  0
 25 23  1  0  0  0  0
 25 24  1  0  0  0  0
 26 27  1  0  0  0  0
 27 28  1  6  0  0  0
 27 29  1  0  0  0  0
 29 33  2  0  0  0  0
 29 34  1  0  0  0  0
 30 32  1  0  0  0  0
 31 32  2  0  0  0  0
 33 31  1  0  0  0  0
 34 30  2  0  0  0  0
 35 13  1  0  0  0  0
 36 39  1  0  0  0  0
 37 36  2  0  0  0  0
 38 40  1  0  0  0  0
 40 35  1  0  0  0  0
 40 39  2  0  0  0  0
 41 38  2  0  0  0  0
 41 37  1  0  0  0  0
 42 37  1  0  0  0  0
 43 42  1  0  0  0  0
M  END
>  <MODEL>
3

>  <REMARK>
 VINA RESULT:      -8.2      3.135      8.778
  Name = 
  12 active torsions:
  status: ('A' for Active; 'I' for Inactive)
    1  A    between atoms: N_1  and  N_34
    2  A    between atoms: N_1  and  C_35
    3  A    between atoms: C_2  and  N_6
    4  A    between atoms: C_2  and  C_13
    5  A    between atoms: S_3  and  C_4
    6  A    between atoms: S_3  and  C_12
    7  A    between atoms: C_4  and  C_15
    8  A    between atoms: C_4  and  O_22
    9  A    between atoms: C_11  and  C_14
   10  A    between atoms: C_14  and  O_22
   11  A    between atoms: C_15  and  C_42
   12  A    between atoms: C_19  and  O_25
                            x       y       z     vdW  Elec       q    Type
                         _______ _______ _______ _____ _____    ______ ____

>  <TORSDO>
F 12

$$$$
=
 OpenBabel10262422243D

 43 47  0  0  1  0  0  0  0  0999 V2000
  181.1850  178.5990  140.9550 C   0  0  2  0  0  3  0  0  0  0  0  0
  186.0200  178.2370  142.4280 C   0  0  2  0  0  3  0  0  0  0  0  0
  187.5750  177.9900  140.1280 C   0  0  2  0  0  3  0  0  0  0  0  0
  183.2320  179.2670  142.3690 C   0  0  1  0  0  3  0  0  0  0  0  0
  181.9690  177.4350  140.3300 C   0  0  0  0  0  2  0  0  0  0  0  0
  181.2160  179.7060  140.1070 O   0  0  0  0  0  1  0  0  0  0  0  0
  183.9450  178.8430  141.0670 C   0  0  2  0  0  3  0  0  0  0  0  0
  181.7210  178.9800  142.3390 C   0  0  0  0  0  2  0  0  0  0  0  0
  183.4760  177.4520  140.6310 C   0  0  0  0  0  2  0  0  0  0  0  0
  186.1630  178.5300  139.8890 C   0  0  0  0  0  2  0  0  0  0  0  0
  185.4710  178.9660  141.1840 C   0  0  2  0  0  3  0  0  0  0  0  0
  185.3300  178.7860  143.6730 C   0  0  0  0  0  2  0  0  0  0  0  0
  187.4840  178.3640  142.5860 N   0  0  0  0  0  0  0  0  0  0  0  0
  188.2060  178.6710  141.3410 C   0  0  0  0  0  2  0  0  0  0  0  0
  183.8260  178.5610  143.5890 C   0  0  0  0  0  2  0  0  0  0  0  0
  188.4510  178.1600  138.8930 C   0  0  2  0  0  3  0  0  0  0  0  0
  189.1350  179.3640  138.9430 F   0  0  0  0  0  0  0  0  0  0  0  0
  187.6240  178.1100  137.6970 N   0  0  0  0  0  2  0  0  0  0  0  0
  188.1370  177.7580  136.4120 C   0  0  0  0  0  0  0  0  0  0  0  0
  189.3330  177.3870  136.2760 O   0  0  0  0  0  0  0  0  0  0  0  0
  187.0630  177.8460  134.9820 S   0  0  0  0  0  0  0  0  0  0  0  0
  185.9710  176.4710  135.5020 C   0  0  1  0  0  3  0  0  0  0  0  0
  184.6310  176.4830  134.7730 C   0  0  0  0  0  2  0  0  0  0  0  0
  183.9850  177.1880  137.0720 C   0  0  0  0  0  1  0  0  0  0  0  0
  183.4770  176.6670  135.7420 C   0  0  0  0  0  2  0  0  0  0  0  0
  186.6120  175.2470  135.2990 O   0  0  0  0  0  0  0  0  0  0  0  0
  186.5490  174.5950  136.5330 C   0  0  2  0  0  3  0  0  0  0  0  0
  187.8360  174.2470  136.9500 O   0  0  0  0  0  1  0  0  0  0  0  0
  185.6950  173.3740  136.4280 C   0  0  0  0  0  0  0  0  0  0  0  0
  185.3080  171.1750  135.4860 C   0  0  0  0  0  3  0  0  0  0  0  0
  183.7220  172.1110  137.0590 C   0  0  0  0  0  3  0  0  0  0  0  0
  184.1230  171.0670  136.2190 C   0  0  0  0  0  3  0  0  0  0  0  0
  184.5070  173.2630  137.1640 C   0  0  0  0  0  3  0  0  0  0  0  0
  186.0940  172.3270  135.5910 C   0  0  0  0  0  3  0  0  0  0  0  0
  187.9620  177.1220  143.0370 N   0  0  0  0  0  2  0  0  0  0  0  0
  190.9440  176.4940  145.2040 C   0  0  0  0  0  3  0  0  0  0  0  0
  190.4130  176.7680  146.4750 C   0  0  0  0  0  0  0  0  0  0  0  0
  188.2700  177.2700  145.4520 C   0  0  0  0  0  3  0  0  0  0  0  0
  190.1410  176.6090  144.0660 C   0  0  0  0  0  3  0  0  0  0  0  0
  188.8000  177.0020  144.1870 C   0  0  0  0  0  0  0  0  0  0  0  0
  189.0740  177.1550  146.5900 C   0  0  0  0  0  3  0  0  0  0  0  0
  191.1900  176.6650  147.6320 O   0  0  0  0  0  0  0  0  0  0  0  0
  192.3820  175.8930  147.6890 C   0  0  0  0  0  1  0  0  0  0  0  0
  1  6  1  6  0  0  0
  1  8  1  0  0  0  0
  2 13  1  0  0  0  0
  2 12  1  1  0  0  0
  3 16  1  6  0  0  0
  3 14  1  0  0  0  0
  4  8  1  6  0  0  0
  4 15  1  0  0  0  0
  5  9  1  0  0  0  0
  5  1  1  0  0  0  0
  7  9  1  1  0  0  0
  7 11  1  0  0  0  0
  7  4  1  0  0  0  0
 10  3  1  0  0  0  0
 11 10  1  6  0  0  0
 11  2  1  0  0  0  0
 13 35  1  0  0  0  0
 14 13  1  0  0  0  0
 15 12  1  0  0  0  0
 16 17  1  1  0  0  0
 18 16  1  0  0  0  0
 19 18  1  0  0  0  0
 20 19  2  0  0  0  0
 21 22  1  0  0  0  0
 21 19  1  0  0  0  0
 22 23  1  6  0  0  0
 23 25  1  0  0  0  0
 25 24  1  0  0  0  0
 26 22  1  0  0  0  0
 26 27  1  0  0  0  0
 27 28  1  6  0  0  0
 29 27  1  0  0  0  0
 29 33  1  0  0  0  0
 30 34  1  0  0  0  0
 30 32  2  0  0  0  0
 31 33  2  0  0  0  0
 32 31  1  0  0  0  0
 34 29  2  0  0  0  0
 35 40  1  0  0  0  0
 36 37  1  0  0  0  0
 37 41  2  0  0  0  0
 37 42  1  0  0  0  0
 38 41  1  0  0  0  0
 39 40  1  0  0  0  0
 39 36  2  0  0  0  0
 40 38  2  0  0  0  0
 42 43  1  0  0  0  0
M  END
>  <MODEL>
4

>  <REMARK>
 VINA RESULT:      -8.1      2.568      8.258
  Name = 
  12 active torsions:
  status: ('A' for Active; 'I' for Inactive)
    1  A    between atoms: N_1  and  N_34
    2  A    between atoms: N_1  and  C_35
    3  A    between atoms: C_2  and  N_6
    4  A    between atoms: C_2  and  C_13
    5  A    between atoms: S_3  and  C_4
    6  A    between atoms: S_3  and  C_12
    7  A    between atoms: C_4  and  C_15
    8  A    between atoms: C_4  and  O_22
    9  A    between atoms: C_11  and  C_14
   10  A    between atoms: C_14  and  O_22
   11  A    between atoms: C_15  and  C_42
   12  A    between atoms: C_19  and  O_25
                            x       y       z     vdW  Elec       q    Type
                         _______ _______ _______ _____ _____    ______ ____

>  <TORSDO>
F 12

$$$$
=
 OpenBabel10262422243D

 43 47  0  0  1  0  0  0  0  0999 V2000
  188.6560  177.3350  145.6300 C   0  0  2  0  0  3  0  0  0  0  0  0
  190.5300  176.9570  140.9370 C   0  0  2  0  0  3  0  0  0  0  0  0
  188.4300  177.4130  139.1620 C   0  0  2  0  0  3  0  0  0  0  0  0
  190.4120  177.7660  143.7950 C   0  0  1  0  0  3  0  0  0  0  0  0
  187.8570  176.4260  144.6820 C   0  0  0  0  0  2  0  0  0  0  0  0
  188.1140  178.6210  145.6290 O   0  0  0  0  0  1  0  0  0  0  0  0
  189.1340  177.7380  142.9280 C   0  0  2  0  0  3  0  0  0  0  0  0
  190.1420  177.3890  145.2620 C   0  0  0  0  0  2  0  0  0  0  0  0
  188.3210  176.4750  143.2180 C   0  0  0  0  0  2  0  0  0  0  0  0
  188.1740  177.8940  140.5920 C   0  0  0  0  0  2  0  0  0  0  0  0
  189.4490  177.9370  141.4380 C   0  0  2  0  0  3  0  0  0  0  0  0
  191.7850  177.1210  141.7870 C   0  0  0  0  0  2  0  0  0  0  0  0
  190.8780  177.1430  139.5130 N   0  0  0  0  0  0  0  0  0  0  0  0
  189.8350  177.8070  138.7130 C   0  0  0  0  0  2  0  0  0  0  0  0
  191.4800  176.8180  143.2490 C   0  0  0  0  0  2  0  0  0  0  0  0
  187.3810  177.9540  138.1980 C   0  0  2  0  0  3  0  0  0  0  0  0
  187.9570  178.8270  137.2900 F   0  0  0  0  0  0  0  0  0  0  0  0
  186.3350  178.6350  138.9450 N   0  0  0  0  0  2  0  0  0  0  0  0
  184.9440  178.4210  138.7060 C   0  0  0  0  0  0  0  0  0  0  0  0
  184.5590  177.5520  137.8800 O   0  0  0  0  0  0  0  0  0  0  0  0
  183.7380  179.4010  139.5960 S   0  0  0  0  0  0  0  0  0  0  0  0
  183.7210  178.3410  141.0890 C   0  0  1  0  0  3  0  0  0  0  0  0
  184.6700  178.8440  142.1720 C   0  0  0  0  0  2  0  0  0  0  0  0
  184.8630  178.6260  144.6450 C   0  0  0  0  0  1  0  0  0  0  0  0
  183.9510  179.0150  143.4990 C   0  0  0  0  0  2  0  0  0  0  0  0
  182.4230  178.2500  141.5970 O   0  0  0  0  0  0  0  0  0  0  0  0
  181.5870  178.4150  140.4890 C   0  0  2  0  0  3  0  0  0  0  0  0
  180.6260  179.3920  140.7640 O   0  0  0  0  0  1  0  0  0  0  0  0
  180.9220  177.1220  140.1490 C   0  0  0  0  0  0  0  0  0  0  0  0
  180.7690  175.1680  138.7250 C   0  0  0  0  0  3  0  0  0  0  0  0
  179.2450  175.4250  140.5890 C   0  0  0  0  0  3  0  0  0  0  0  0
  179.7030  174.6890  139.4920 C   0  0  0  0  0  3  0  0  0  0  0  0
  179.8530  176.6400  140.9180 C   0  0  0  0  0  3  0  0  0  0  0  0
  181.3780  176.3830  139.0530 C   0  0  0  0  0  3  0  0  0  0  0  0
  191.0620  175.8660  138.9590 N   0  0  0  0  0  2  0  0  0  0  0  0
  193.8850  176.3330  136.5520 C   0  0  0  0  0  3  0  0  0  0  0  0
  194.0420  175.0250  136.0670 C   0  0  0  0  0  0  0  0  0  0  0  0
  192.2260  174.2940  137.5010 C   0  0  0  0  0  3  0  0  0  0  0  0
  192.9040  176.6170  137.5060 C   0  0  0  0  0  3  0  0  0  0  0  0
  192.0730  175.5960  137.9870 C   0  0  0  0  0  0  0  0  0  0  0  0
  193.2070  174.0100  136.5470 C   0  0  0  0  0  3  0  0  0  0  0  0
  195.0150  174.7070  135.1150 O   0  0  0  0  0  0  0  0  0  0  0  0
  195.6660  173.4460  135.0750 C   0  0  0  0  0  1  0  0  0  0  0  0
  1  6  1  6  0  0  0
  2 11  1  0  0  0  0
  2 12  1  1  0  0  0
  3 16  1  6  0  0  0
  3 10  1  0  0  0  0
  4 15  1  6  0  0  0
  4  8  1  0  0  0  0
  5  1  1  0  0  0  0
  7  9  1  6  0  0  0
  7  4  1  0  0  0  0
  8  1  1  0  0  0  0
  9  5  1  0  0  0  0
 11 10  1  6  0  0  0
 11  7  1  0  0  0  0
 12 15  1  0  0  0  0
 13  2  1  0  0  0  0
 14  3  1  0  0  0  0
 14 13  1  0  0  0  0
 16 17  1  6  0  0  0
 16 18  1  0  0  0  0
 19 18  1  0  0  0  0
 19 21  1  0  0  0  0
 20 19  2  0  0  0  0
 21 22  1  0  0  0  0
 22 26  1  0  0  0  0
 22 23  1  1  0  0  0
 23 25  1  0  0  0  0
 25 24  1  0  0  0  0
 27 28  1  1  0  0  0
 27 26  1  0  0  0  0
 29 27  1  0  0  0  0
 29 33  1  0  0  0  0
 30 34  1  0  0  0  0
 30 32  2  0  0  0  0
 31 33  2  0  0  0  0
 32 31  1  0  0  0  0
 34 29  2  0  0  0  0
 35 13  1  0  0  0  0
 36 39  1  0  0  0  0
 37 41  1  0  0  0  0
 37 36  2  0  0  0  0
 38 40  1  0  0  0  0
 39 40  2  0  0  0  0
 40 35  1  0  0  0  0
 41 38  2  0  0  0  0
 42 37  1  0  0  0  0
 43 42  1  0  0  0  0
M  END
>  <MODEL>
5

>  <REMARK>
 VINA RESULT:      -7.7      3.081      9.126
  Name = 
  12 active torsions:
  status: ('A' for Active; 'I' for Inactive)
    1  A    between atoms: N_1  and  N_34
    2  A    between atoms: N_1  and  C_35
    3  A    between atoms: C_2  and  N_6
    4  A    between atoms: C_2  and  C_13
    5  A    between atoms: S_3  and  C_4
    6  A    between atoms: S_3  and  C_12
    7  A    between atoms: C_4  and  C_15
    8  A    between atoms: C_4  and  O_22
    9  A    between atoms: C_11  and  C_14
   10  A    between atoms: C_14  and  O_22
   11  A    between atoms: C_15  and  C_42
   12  A    between atoms: C_19  and  O_25
                            x       y       z     vdW  Elec       q    Type
                         _______ _______ _______ _____ _____    ______ ____

>  <TORSDO>
F 12

$$$$
=
 OpenBabel10262422243D

 43 47  0  0  1  0  0  0  0  0999 V2000
  179.0610  178.4200  140.7430 C   0  0  2  0  0  3  0  0  0  0  0  0
  183.7200  178.5100  142.7360 C   0  0  2  0  0  3  0  0  0  0  0  0
  185.5320  178.3890  140.6210 C   0  0  2  0  0  3  0  0  0  0  0  0
  180.8730  179.2810  142.3580 C   0  0  1  0  0  3  0  0  0  0  0  0
  180.0100  177.3270  140.2260 C   0  0  0  0  0  2  0  0  0  0  0  0
  179.0850  179.5190  139.8840 O   0  0  0  0  0  1  0  0  0  0  0  0
  181.7590  178.9140  141.1480 C   0  0  2  0  0  3  0  0  0  0  0  0
  179.4070  178.8570  142.1700 C   0  0  0  0  0  2  0  0  0  0  0  0
  181.4670  177.4840  140.6880 C   0  0  0  0  0  2  0  0  0  0  0  0
  184.1120  178.7970  140.2220 C   0  0  0  0  0  2  0  0  0  0  0  0
  183.2470  179.1770  141.4270 C   0  0  2  0  0  3  0  0  0  0  0  0
  182.8520  179.0020  143.8890 C   0  0  0  0  0  2  0  0  0  0  0  0
  185.1400  178.7700  143.0480 N   0  0  0  0  0  0  0  0  0  0  0  0
  185.9640  179.1330  141.8830 C   0  0  0  0  0  2  0  0  0  0  0  0
  181.3920  178.6410  143.6470 C   0  0  0  0  0  2  0  0  0  0  0  0
  186.5190  178.6300  139.4850 C   0  0  2  0  0  3  0  0  0  0  0  0
  186.0420  178.0860  138.3020 F   0  0  0  0  0  0  0  0  0  0  0  0
  187.8040  178.0380  139.8200 N   0  0  0  0  0  2  0  0  0  0  0  0
  189.0260  178.4240  139.1890 C   0  0  0  0  0  0  0  0  0  0  0  0
  189.0510  179.3720  138.3610 O   0  0  0  0  0  0  0  0  0  0  0  0
  190.5350  177.5460  139.5860 S   0  0  0  0  0  0  0  0  0  0  0  0
  190.6320  176.6410  137.9970 C   0  0  1  0  0  3  0  0  0  0  0  0
  191.8080  175.6710  137.9490 C   0  0  0  0  0  2  0  0  0  0  0  0
  193.9440  175.3480  136.7090 C   0  0  0  0  0  1  0  0  0  0  0  0
  193.0620  176.3500  137.4290 C   0  0  0  0  0  2  0  0  0  0  0  0
  189.4380  175.9550  137.7630 O   0  0  0  0  0  0  0  0  0  0  0  0
  189.2180  176.0700  136.3870 C   0  0  2  0  0  3  0  0  0  0  0  0
  189.8770  177.2000  135.8970 O   0  0  0  0  0  1  0  0  0  0  0  0
  187.7540  176.1670  136.1060 C   0  0  0  0  0  0  0  0  0  0  0  0
  185.5140  175.2870  136.3880 C   0  0  0  0  0  3  0  0  0  0  0  0
  185.8680  177.2920  135.0760 C   0  0  0  0  0  3  0  0  0  0  0  0
  185.0040  176.3280  135.6080 C   0  0  0  0  0  3  0  0  0  0  0  0
  187.2410  177.2120  135.3250 C   0  0  0  0  0  3  0  0  0  0  0  0
  186.8880  175.2070  136.6380 C   0  0  0  0  0  3  0  0  0  0  0  0
  185.6760  177.5800  143.5690 N   0  0  0  0  0  2  0  0  0  0  0  0
  187.6610  177.7810  146.7320 C   0  0  0  0  0  3  0  0  0  0  0  0
  188.9610  177.5690  146.2450 C   0  0  0  0  0  0  0  0  0  0  0  0
  188.0680  177.3700  143.9980 C   0  0  0  0  0  3  0  0  0  0  0  0
  186.5730  177.7860  145.8540 C   0  0  0  0  0  3  0  0  0  0  0  0
  186.7730  177.5760  144.4830 C   0  0  0  0  0  0  0  0  0  0  0  0
  189.1560  177.3650  144.8750 C   0  0  0  0  0  3  0  0  0  0  0  0
  190.0690  177.5560  147.0960 O   0  0  0  0  0  0  0  0  0  0  0  0
  190.8540  176.3930  147.3170 C   0  0  0  0  0  1  0  0  0  0  0  0
  1  6  1  6  0  0  0
  1  8  1  0  0  0  0
  2 13  1  0  0  0  0
  2 12  1  1  0  0  0
  3 16  1  6  0  0  0
  3 14  1  0  0  0  0
  4  8  1  6  0  0  0
  4 15  1  0  0  0  0
  5  9  1  0  0  0  0
  5  1  1  0  0  0  0
  7  9  1  1  0  0  0
  7 11  1  0  0  0  0
  7  4  1  0  0  0  0
 10  3  1  0  0  0  0
 11 10  1  6  0  0  0
 11  2  1  0  0  0  0
 13 35  1  0  0  0  0
 14 13  1  0  0  0  0
 15 12  1  0  0  0  0
 16 17  1  6  0  0  0
 16 18  1  0  0  0  0
 19 21  1  0  0  0  0
 19 18  1  0  0  0  0
 20 19  2  0  0  0  0
 22 23  1  1  0  0  0
 22 21  1  0  0  0  0
 24 25  1  0  0  0  0
 25 23  1  0  0  0  0
 26 22  1  0  0  0  0
 27 28  1  1  0  0  0
 27 26  1  0  0  0  0
 29 27  1  0  0  0  0
 29 34  1  0  0  0  0
 30 34  2  0  0  0  0
 31 33  1  0  0  0  0
 31 32  2  0  0  0  0
 32 30  1  0  0  0  0
 33 29  2  0  0  0  0
 35 40  1  0  0  0  0
 37 36  1  0  0  0  0
 37 42  1  0  0  0  0
 38 40  2  0  0  0  0
 38 41  1  0  0  0  0
 39 36  2  0  0  0  0
 40 39  1  0  0  0  0
 41 37  2  0  0  0  0
 42 43  1  0  0  0  0
M  END
>  <MODEL>
6

>  <REMARK>
 VINA RESULT:      -7.7      2.491      7.372
  Name = 
  12 active torsions:
  status: ('A' for Active; 'I' for Inactive)
    1  A    between atoms: N_1  and  N_34
    2  A    between atoms: N_1  and  C_35
    3  A    between atoms: C_2  and  N_6
    4  A    between atoms: C_2  and  C_13
    5  A    between atoms: S_3  and  C_4
    6  A    between atoms: S_3  and  C_12
    7  A    between atoms: C_4  and  C_15
    8  A    between atoms: C_4  and  O_22
    9  A    between atoms: C_11  and  C_14
   10  A    between atoms: C_14  and  O_22
   11  A    between atoms: C_15  and  C_42
   12  A    between atoms: C_19  and  O_25
                            x       y       z     vdW  Elec       q    Type
                         _______ _______ _______ _____ _____    ______ ____

>  <TORSDO>
F 12

$$$$
=
 OpenBabel10262422243D

 43 47  0  0  1  0  0  0  0  0999 V2000
  191.3000  177.5040  145.5280 C   0  0  2  0  0  3  0  0  0  0  0  0
  187.6550  177.8890  142.0280 C   0  0  2  0  0  3  0  0  0  0  0  0
  188.9040  178.2530  139.5630 C   0  0  2  0  0  3  0  0  0  0  0  0
  189.0880  176.8160  144.4020 C   0  0  1  0  0  3  0  0  0  0  0  0
  191.4350  178.7050  144.5790 C   0  0  0  0  0  2  0  0  0  0  0  0
  192.0560  176.4320  145.0520 O   0  0  0  0  0  1  0  0  0  0  0  0
  189.8690  177.3030  143.1620 C   0  0  2  0  0  3  0  0  0  0  0  0
  189.8400  177.0780  145.7170 C   0  0  0  0  0  2  0  0  0  0  0  0
  190.4410  178.7010  143.4080 C   0  0  0  0  0  2  0  0  0  0  0  0
  189.8120  177.6990  140.6630 C   0  0  0  0  0  2  0  0  0  0  0  0
  189.0280  177.2010  141.8800 C   0  0  2  0  0  3  0  0  0  0  0  0
  186.9170  177.2800  143.2160 C   0  0  0  0  0  2  0  0  0  0  0  0
  186.8100  177.7810  140.8210 N   0  0  0  0  0  0  0  0  0  0  0  0
  187.5560  177.5360  139.5760 C   0  0  0  0  0  2  0  0  0  0  0  0
  187.7150  177.4830  144.4970 C   0  0  0  0  0  2  0  0  0  0  0  0
  189.5630  178.1460  138.1930 C   0  0  2  0  0  3  0  0  0  0  0  0
  189.0720  179.1220  137.3390 F   0  0  0  0  0  0  0  0  0  0  0  0
  189.3150  176.8270  137.6320 N   0  0  0  0  0  2  0  0  0  0  0  0
  189.2170  176.5850  136.2290 C   0  0  0  0  0  0  0  0  0  0  0  0
  189.4310  177.5090  135.4000 O   0  0  0  0  0  0  0  0  0  0  0  0
  188.7860  174.9470  135.6470 S   0  0  0  0  0  0  0  0  0  0  0  0
  187.0010  175.3000  135.4430 C   0  0  1  0  0  3  0  0  0  0  0  0
  186.1990  174.0550  135.0790 C   0  0  0  0  0  2  0  0  0  0  0  0
  184.5730  172.8330  136.5160 C   0  0  0  0  0  1  0  0  0  0  0  0
  186.0390  173.1330  136.2750 C   0  0  0  0  0  2  0  0  0  0  0  0
  186.4890  175.8730  136.6090 O   0  0  0  0  0  0  0  0  0  0  0  0
  185.6400  176.8920  136.1700 C   0  0  2  0  0  3  0  0  0  0  0  0
  186.1580  178.1330  136.5480 O   0  0  0  0  0  1  0  0  0  0  0  0
  184.2740  176.7090  136.7470 C   0  0  0  0  0  0  0  0  0  0  0  0
  182.8630  175.9460  138.5620 C   0  0  0  0  0  3  0  0  0  0  0  0
  181.8650  176.9540  136.5990 C   0  0  0  0  0  3  0  0  0  0  0  0
  181.7290  176.3630  137.8600 C   0  0  0  0  0  3  0  0  0  0  0  0
  183.1360  177.1280  136.0430 C   0  0  0  0  0  3  0  0  0  0  0  0
  184.1340  176.1200  138.0070 C   0  0  0  0  0  3  0  0  0  0  0  0
  186.1510  179.0120  140.6640 N   0  0  0  0  0  2  0  0  0  0  0  0
  182.8800  179.7530  139.0110 C   0  0  0  0  0  3  0  0  0  0  0  0
  181.9790  179.2530  139.9650 C   0  0  0  0  0  0  0  0  0  0  0  0
  183.8510  178.6030  141.3660 C   0  0  0  0  0  3  0  0  0  0  0  0
  184.2570  179.6770  139.2360 C   0  0  0  0  0  3  0  0  0  0  0  0
  184.7480  179.0970  140.4140 C   0  0  0  0  0  0  0  0  0  0  0  0
  182.4740  178.6800  141.1420 C   0  0  0  0  0  3  0  0  0  0  0  0
  180.5970  179.3130  139.7700 O   0  0  0  0  0  0  0  0  0  0  0  0
  180.0120  179.7080  138.5370 C   0  0  0  0  0  1  0  0  0  0  0  0
  1  6  1  6  0  0  0
  1  8  1  0  0  0  0
  2 12  1  1  0  0  0
  3 16  1  6  0  0  0
  3 14  1  0  0  0  0
  3 10  1  0  0  0  0
  4 15  1  1  0  0  0
  4  8  1  0  0  0  0
  5  1  1  0  0  0  0
  7  9  1  1  0  0  0
  7  4  1  0  0  0  0
  9  5  1  0  0  0  0
 11 10  1  6  0  0  0
 11  2  1  0  0  0  0
 11  7  1  0  0  0  0
 12 15  1  0  0  0  0
 13  2  1  0  0  0  0
 14 13  1  0  0  0  0
 16 17  1  6  0  0  0
 18 16  1  0  0  0  0
 19 18  1  0  0  0  0
 20 19  2  0  0  0  0
 21 19  1  0  0  0  0
 22 23  1  1  0  0  0
 22 21  1  0  0  0  0
 22 26  1  0  0  0  0
 23 25  1  0  0  0  0
 25 24  1  0  0  0  0
 27 28  1  1  0  0  0
 27 26  1  0  0  0  0
 27 29  1  0  0  0  0
 29 34  1  0  0  0  0
 31 32  2  0  0  0  0
 32 30  1  0  0  0  0
 33 31  1  0  0  0  0
 33 29  2  0  0  0  0
 34 30  2  0  0  0  0
 35 13  1  0  0  0  0
 36 39  2  0  0  0  0
 36 37  1  0  0  0  0
 37 41  2  0  0  0  0
 39 40  1  0  0  0  0
 40 35  1  0  0  0  0
 40 38  2  0  0  0  0
 41 38  1  0  0  0  0
 42 37  1  0  0  0  0
 43 42  1  0  0  0  0
M  END
>  <MODEL>
7

>  <REMARK>
 VINA RESULT:      -7.5      2.379      7.313
  Name = 
  12 active torsions:
  status: ('A' for Active; 'I' for Inactive)
    1  A    between atoms: N_1  and  N_34
    2  A    between atoms: N_1  and  C_35
    3  A    between atoms: C_2  and  N_6
    4  A    between atoms: C_2  and  C_13
    5  A    between atoms: S_3  and  C_4
    6  A    between atoms: S_3  and  C_12
    7  A    between atoms: C_4  and  C_15
    8  A    between atoms: C_4  and  O_22
    9  A    between atoms: C_11  and  C_14
   10  A    between atoms: C_14  and  O_22
   11  A    between atoms: C_15  and  C_42
   12  A    between atoms: C_19  and  O_25
                            x       y       z     vdW  Elec       q    Type
                         _______ _______ _______ _____ _____    ______ ____

>  <TORSDO>
F 12

$$$$
=
 OpenBabel10262422243D

 43 47  0  0  1  0  0  0  0  0999 V2000
  180.5550  177.9010  138.7010 C   0  0  2  0  0  3  0  0  0  0  0  0
  183.6900  178.5620  142.6280 C   0  0  2  0  0  3  0  0  0  0  0  0
  186.2920  178.2650  141.6750 C   0  0  2  0  0  3  0  0  0  0  0  0
  181.3810  179.0920  140.8310 C   0  0  1  0  0  3  0  0  0  0  0  0
  181.6240  176.8100  138.8700 C   0  0  0  0  0  2  0  0  0  0  0  0
  181.0000  178.8710  137.8010 O   0  0  0  0  0  1  0  0  0  0  0  0
  182.7350  178.6170  140.2590 C   0  0  2  0  0  3  0  0  0  0  0  0
  180.1800  178.5540  140.0360 C   0  0  0  0  0  2  0  0  0  0  0  0
  182.6830  177.1220  139.9390 C   0  0  0  0  0  2  0  0  0  0  0  0
  185.2420  178.5220  140.5930 C   0  0  0  0  0  2  0  0  0  0  0  0
  183.9090  179.0100  141.1680 C   0  0  2  0  0  3  0  0  0  0  0  0
  182.3810  179.1530  143.1400 C   0  0  0  0  0  2  0  0  0  0  0  0
  184.7890  178.9530  143.5340 N   0  0  0  0  0  0  0  0  0  0  0  0
  186.0740  179.2020  142.8610 C   0  0  0  0  0  2  0  0  0  0  0  0
  181.2120  178.6700  142.2920 C   0  0  0  0  0  2  0  0  0  0  0  0
  187.7050  178.4080  141.1220 C   0  0  2  0  0  3  0  0  0  0  0  0
  188.3460  179.4930  141.6980 F   0  0  0  0  0  0  0  0  0  0  0  0
  187.6510  178.5730  139.6780 N   0  0  0  0  0  2  0  0  0  0  0  0
  188.7850  178.3830  138.8310 C   0  0  0  0  0  0  0  0  0  0  0  0
  189.8790  177.9740  139.3020 O   0  0  0  0  0  0  0  0  0  0  0  0
  188.6420  178.7320  137.0800 S   0  0  0  0  0  0  0  0  0  0  0  0
  188.4490  176.9840  136.5710 C   0  0  1  0  0  3  0  0  0  0  0  0
  189.7800  176.2400  136.5230 C   0  0  0  0  0  2  0  0  0  0  0  0
  190.3600  173.8190  136.5570 C   0  0  0  0  0  1  0  0  0  0  0  0
  189.7230  174.9560  137.3310 C   0  0  0  0  0  2  0  0  0  0  0  0
  187.5670  176.3280  137.4340 O   0  0  0  0  0  0  0  0  0  0  0  0
  186.3350  176.3430  136.7740 C   0  0  2  0  0  3  0  0  0  0  0  0
  185.5520  177.3920  137.2620 O   0  0  0  0  0  1  0  0  0  0  0  0
  185.6300  175.0410  136.9700 C   0  0  0  0  0  0  0  0  0  0  0  0
  183.5610  173.8130  137.2550 C   0  0  0  0  0  3  0  0  0  0  0  0
  185.6730  172.6280  137.2160 C   0  0  0  0  0  3  0  0  0  0  0  0
  184.2780  172.6160  137.3250 C   0  0  0  0  0  3  0  0  0  0  0  0
  186.3480  173.8390  137.0380 C   0  0  0  0  0  3  0  0  0  0  0  0
  184.2360  175.0250  137.0770 C   0  0  0  0  0  3  0  0  0  0  0  0
  184.9970  177.8830  144.4210 N   0  0  0  0  0  2  0  0  0  0  0  0
  188.2730  177.1530  146.0700 C   0  0  0  0  0  3  0  0  0  0  0  0
  188.1400  177.8820  147.2620 C   0  0  0  0  0  0  0  0  0  0  0  0
  185.9310  178.5980  146.5580 C   0  0  0  0  0  3  0  0  0  0  0  0
  187.2400  177.1490  145.1280 C   0  0  0  0  0  3  0  0  0  0  0  0
  186.0660  177.8760  145.3690 C   0  0  0  0  0  0  0  0  0  0  0  0
  186.9640  178.6010  147.4990 C   0  0  0  0  0  3  0  0  0  0  0  0
  189.1550  177.9070  148.2230 O   0  0  0  0  0  0  0  0  0  0  0  0
  190.4800  177.4740  147.9500 C   0  0  0  0  0  1  0  0  0  0  0  0
  1  6  1  6  0  0  0
  1  5  1  0  0  0  0
  1  8  1  0  0  0  0
  2 12  1  1  0  0  0
  2 13  1  0  0  0  0
  3 16  1  6  0  0  0
  3 14  1  0  0  0  0
  4  8  1  6  0  0  0
  4 15  1  0  0  0  0
  5  9  1  0  0  0  0
  7  9  1  1  0  0  0
  7  4  1  0  0  0  0
  7 11  1  0  0  0  0
 10  3  1  0  0  0  0
 11 10  1  6  0  0  0
 11  2  1  0  0  0  0
 13 35  1  0  0  0  0
 14 13  1  0  0  0  0
 15 12  1  0  0  0  0
 16 17  1  1  0  0  0
 18 16  1  0  0  0  0
 19 20  2  0  0  0  0
 19 18  1  0  0  0  0
 21 19  1  0  0  0  0
 22 23  1  1  0  0  0
 22 21  1  0  0  0  0
 22 26  1  0  0  0  0
 23 25  1  0  0  0  0
 24 25  1  0  0  0  0
 27 29  1  0  0  0  0
 27 28  1  1  0  0  0
 27 26  1  0  0  0  0
 29 33  2  0  0  0  0
 29 34  1  0  0  0  0
 30 32  1  0  0  0  0
 31 32  2  0  0  0  0
 33 31  1  0  0  0  0
 34 30  2  0  0  0  0
 35 40  1  0  0  0  0
 36 37  1  0  0  0  0
 37 41  2  0  0  0  0
 37 42  1  0  0  0  0
 38 41  1  0  0  0  0
 39 40  1  0  0  0  0
 39 36  2  0  0  0  0
 40 38  2  0  0  0  0
 43 42  1  0  0  0  0
M  END
>  <MODEL>
8

>  <REMARK>
 VINA RESULT:      -7.5      2.671      7.113
  Name = 
  12 active torsions:
  status: ('A' for Active; 'I' for Inactive)
    1  A    between atoms: N_1  and  N_34
    2  A    between atoms: N_1  and  C_35
    3  A    between atoms: C_2  and  N_6
    4  A    between atoms: C_2  and  C_13
    5  A    between atoms: S_3  and  C_4
    6  A    between atoms: S_3  and  C_12
    7  A    between atoms: C_4  and  C_15
    8  A    between atoms: C_4  and  O_22
    9  A    between atoms: C_11  and  C_14
   10  A    between atoms: C_14  and  O_22
   11  A    between atoms: C_15  and  C_42
   12  A    between atoms: C_19  and  O_25
                            x       y       z     vdW  Elec       q    Type
                         _______ _______ _______ _____ _____    ______ ____

>  <TORSDO>
F 12

$$$$
=
 OpenBabel10262422243D

 43 47  0  0  1  0  0  0  0  0999 V2000
  188.7540  177.3780  144.9230 C   0  0  2  0  0  3  0  0  0  0  0  0
  190.2940  177.2120  140.0980 C   0  0  2  0  0  3  0  0  0  0  0  0
  188.0290  177.4530  138.4920 C   0  0  2  0  0  3  0  0  0  0  0  0
  190.3110  177.9960  142.9660 C   0  0  1  0  0  3  0  0  0  0  0  0
  187.9840  176.3950  144.0280 C   0  0  0  0  0  2  0  0  0  0  0  0
  188.0830  178.6010  144.9780 O   0  0  0  0  0  1  0  0  0  0  0  0
  188.9800  177.8380  142.1980 C   0  0  2  0  0  3  0  0  0  0  0  0
  190.1950  177.5880  144.4440 C   0  0  0  0  0  2  0  0  0  0  0  0
  188.3270  176.4960  142.5340 C   0  0  0  0  0  2  0  0  0  0  0  0
  187.8340  177.9000  139.9420 C   0  0  0  0  0  2  0  0  0  0  0  0
  189.1590  178.0730  140.6900 C   0  0  2  0  0  3  0  0  0  0  0  0
  191.5870  177.5040  140.8530 C   0  0  0  0  0  2  0  0  0  0  0  0
  190.5110  177.4380  138.6540 N   0  0  0  0  0  0  0  0  0  0  0  0
  189.3480  177.9930  137.9420 C   0  0  0  0  0  2  0  0  0  0  0  0
  191.4270  177.1660  142.3290 C   0  0  0  0  0  2  0  0  0  0  0  0
  186.8590  177.8850  137.6160 C   0  0  2  0  0  3  0  0  0  0  0  0
  187.0000  179.2090  137.2310 F   0  0  0  0  0  0  0  0  0  0  0  0
  185.6120  177.7110  138.3450 N   0  0  0  0  0  2  0  0  0  0  0  0
  184.3550  177.5120  137.6980 C   0  0  0  0  0  0  0  0  0  0  0  0
  184.2870  177.3910  136.4460 O   0  0  0  0  0  0  0  0  0  0  0  0
  182.8620  177.4320  138.6840 S   0  0  0  0  0  0  0  0  0  0  0  0
  182.5390  179.2340  138.6530 C   0  0  1  0  0  3  0  0  0  0  0  0
  181.2210  179.5780  137.9660 C   0  0  0  0  0  2  0  0  0  0  0  0
  180.2360  181.7940  138.5350 C   0  0  0  0  0  1  0  0  0  0  0  0
  181.1610  181.0490  137.5930 C   0  0  0  0  0  2  0  0  0  0  0  0
  182.5440  179.7450  139.9540 O   0  0  0  0  0  0  0  0  0  0  0  0
  182.1940  178.6640  140.7690 C   0  0  2  0  0  3  0  0  0  0  0  0
  180.8410  178.7480  141.1070 O   0  0  0  0  0  1  0  0  0  0  0  0
  183.0320  178.6580  142.0050 C   0  0  0  0  0  0  0  0  0  0  0  0
  183.2180  178.9750  144.4000 C   0  0  0  0  0  3  0  0  0  0  0  0
  185.1620  178.3170  143.1150 C   0  0  0  0  0  3  0  0  0  0  0  0
  184.5740  178.6430  144.3410 C   0  0  0  0  0  3  0  0  0  0  0  0
  184.3920  178.3240  141.9480 C   0  0  0  0  0  3  0  0  0  0  0  0
  182.4470  178.9820  143.2330 C   0  0  0  0  0  3  0  0  0  0  0  0
  190.7840  176.1880  138.0740 N   0  0  0  0  0  2  0  0  0  0  0  0
  192.7540  175.2230  135.0460 C   0  0  0  0  0  3  0  0  0  0  0  0
  194.0480  175.6040  135.4370 C   0  0  0  0  0  0  0  0  0  0  0  0
  193.1630  176.3630  137.5650 C   0  0  0  0  0  3  0  0  0  0  0  0
  191.6730  175.4130  135.9110 C   0  0  0  0  0  3  0  0  0  0  0  0
  191.8740  175.9880  137.1740 C   0  0  0  0  0  0  0  0  0  0  0  0
  194.2440  176.1720  136.7000 C   0  0  0  0  0  3  0  0  0  0  0  0
  195.1500  175.4290  134.5950 O   0  0  0  0  0  0  0  0  0  0  0  0
  196.4090  176.0380  134.8430 C   0  0  0  0  0  1  0  0  0  0  0  0
  1  6  1  6  0  0  0
  2 11  1  0  0  0  0
  2 12  1  1  0  0  0
  3 16  1  6  0  0  0
  3 10  1  0  0  0  0
  4 15  1  6  0  0  0
  4  8  1  0  0  0  0
  5  1  1  0  0  0  0
  7  9  1  6  0  0  0
  7  4  1  0  0  0  0
  8  1  1  0  0  0  0
  9  5  1  0  0  0  0
 11 10  1  6  0  0  0
 11  7  1  0  0  0  0
 12 15  1  0  0  0  0
 13  2  1  0  0  0  0
 14  3  1  0  0  0  0
 14 13  1  0  0  0  0
 16 17  1  1  0  0  0
 16 18  1  0  0  0  0
 19 18  1  0  0  0  0
 19 21  1  0  0  0  0
 20 19  2  0  0  0  0
 22 23  1  1  0  0  0
 22 21  1  0  0  0  0
 22 26  1  0  0  0  0
 25 23  1  0  0  0  0
 25 24  1  0  0  0  0
 26 27  1  0  0  0  0
 27 28  1  1  0  0  0
 27 29  1  0  0  0  0
 29 34  1  0  0  0  0
 31 32  2  0  0  0  0
 32 30  1  0  0  0  0
 33 29  2  0  0  0  0
 33 31  1  0  0  0  0
 34 30  2  0  0  0  0
 35 13  1  0  0  0  0
 36 37  2  0  0  0  0
 36 39  1  0  0  0  0
 37 41  1  0  0  0  0
 39 40  2  0  0  0  0
 40 38  1  0  0  0  0
 40 35  1  0  0  0  0
 41 38  2  0  0  0  0
 42 43  1  0  0  0  0
 42 37  1  0  0  0  0
M  END
>  <MODEL>
9

>  <REMARK>
 VINA RESULT:      -7.5      3.039      9.014
  Name = 
  12 active torsions:
  status: ('A' for Active; 'I' for Inactive)
    1  A    between atoms: N_1  and  N_34
    2  A    between atoms: N_1  and  C_35
    3  A    between atoms: C_2  and  N_6
    4  A    between atoms: C_2  and  C_13
    5  A    between atoms: S_3  and  C_4
    6  A    between atoms: S_3  and  C_12
    7  A    between atoms: C_4  and  C_15
    8  A    between atoms: C_4  and  O_22
    9  A    between atoms: C_11  and  C_14
   10  A    between atoms: C_14  and  O_22
   11  A    between atoms: C_15  and  C_42
   12  A    between atoms: C_19  and  O_25
                            x       y       z     vdW  Elec       q    Type
                         _______ _______ _______ _____ _____    ______ ____

>  <TORSDO>
F 12

$$$$
