=
 OpenBabel10262422183D

 43 49  0  0  1  0  0  0  0  0999 V2000
  184.6230  178.6970  145.7140 C   0  0  0  0  0  0  0  0  0  0  0  0
  182.1770  178.9770  141.2640 C   0  0  0  0  0  0  0  0  0  0  0  0
  184.1600  178.9270  139.1540 C   0  0  2  0  0  3  0  0  0  0  0  0
  182.9380  178.7680  143.9510 C   0  0  0  0  0  0  0  0  0  0  0  0
  185.6860  179.0100  144.6950 C   0  0  0  0  0  2  0  0  0  0  0  0
  184.9640  178.5730  147.0200 F   0  0  0  0  0  0  0  0  0  0  0  0
  183.9190  178.7080  142.9430 C   0  0  0  0  0  0  0  0  0  0  0  0
  183.3330  178.6520  145.3640 C   0  0  0  0  0  3  0  0  0  0  0  0
  185.3480  178.4200  143.3230 C   0  0  0  0  0  2  0  0  0  0  0  0
  184.5160  178.7150  140.5540 N   0  0  0  0  0  2  0  0  0  0  0  0
  183.5380  178.8190  141.5960 C   0  0  0  0  0  0  0  0  0  0  0  0
  181.2140  179.0390  142.2760 C   0  0  0  0  0  3  0  0  0  0  0  0
  181.7490  179.1130  139.8290 C   0  0  2  0  0  3  0  0  0  0  0  0
  182.7420  178.4250  138.8860 C   0  0  0  0  0  2  0  0  0  0  0  0
  181.5920  178.9310  143.6150 C   0  0  0  0  0  3  0  0  0  0  0  0
  185.1360  178.2510  138.2510 C   0  0  0  0  0  0  0  0  0  0  0  0
  186.5330  178.2540  138.5650 N   0  0  0  0  0  2  0  0  0  0  0  0
  184.7120  177.6420  137.2330 O   0  0  0  0  0  0  0  0  0  0  0  0
  187.5360  177.5990  137.7350 C   0  0  1  0  0  3  0  0  0  0  0  0
  188.1720  178.6110  136.7970 C   0  0  0  0  0  1  0  0  0  0  0  0
  188.6110  177.0030  138.6240 C   0  0  2  0  0  3  0  0  0  0  0  0
  189.3480  178.0910  139.3010 N   0  0  2  0  0  0  0  0  0  0  0  0
  190.8630  176.4050  140.1330 N   0  0  0  0  0  2  0  0  0  0  0  0
  189.9360  177.3910  138.1500 C   0  0  1  0  0  3  0  0  0  0  0  0
  190.0790  177.5860  140.4690 C   0  0  2  0  0  3  0  0  0  0  0  0
  190.9730  176.4250  138.6860 C   0  0  0  0  0  2  0  0  0  0  0  0
  189.1760  177.3730  141.6880 C   0  0  0  0  0  2  0  0  0  0  0  0
  189.4580  176.0630  142.4100 C   0  0  0  0  0  2  0  0  0  0  0  0
  189.7700  176.3250  143.8040 N   0  0  0  0  0  0  0  0  0  0  0  0
  191.6180  177.0940  145.2720 C   0  0  0  0  0  2  0  0  0  0  0  0
  189.4440  178.0260  145.5810 C   0  0  0  0  0  2  0  0  0  0  0  0
  190.4680  177.1650  146.1770 N   0  0  0  0  0  2  0  0  0  0  0  0
  189.0350  177.5320  144.1850 C   0  0  0  0  0  2  0  0  0  0  0  0
  191.2060  176.6090  143.8730 C   0  0  0  0  0  2  0  0  0  0  0  0
  181.6240  180.5230  139.4860 N   0  0  0  0  0  2  0  0  0  0  0  0
  180.5510  182.8790  137.7100 N   0  0  0  0  0  0  0  0  0  0  0  0
  179.4010  181.4460  139.2600 C   0  0  0  0  0  2  0  0  0  0  0  0
  180.9010  181.5030  137.3980 C   0  0  0  0  0  2  0  0  0  0  0  0
  180.4930  180.6550  138.5810 C   0  0  1  0  0  3  0  0  0  0  0  0
  179.3770  182.7930  138.5660 C   0  0  0  0  0  2  0  0  0  0  0  0
  180.1380  183.5070  136.4650 C   0  0  0  0  0  2  0  0  0  0  0  0
  181.9690  184.8620  137.1750 O   0  0  0  0  0  1  0  0  0  0  0  0
  181.0530  184.6750  136.1400 C   0  0  0  0  0  2  0  0  0  0  0  0
  1  6  1  0  0  0  0
  2 11  2  0  0  0  0
  2 12  1  0  0  0  0
  3 16  1  6  0  0  0
  3 10  1  0  0  0  0
  4  8  1  0  0  0  0
  5  1  1  0  0  0  0
  7  9  1  0  0  0  0
  7  4  2  0  0  0  0
  8  1  2  0  0  0  0
  9  5  1  0  0  0  0
 10 11  1  0  0  0  0
 11  7  1  0  0  0  0
 12 15  2  0  0  0  0
 13 35  1  6  0  0  0
 13  2  1  0  0  0  0
 14  3  1  0  0  0  0
 14 13  1  0  0  0  0
 15  4  1  0  0  0  0
 16 17  1  0  0  0  0
 18 16  2  0  0  0  0
 19 20  1  6  0  0  0
 19 17  1  0  0  0  0
 21 19  1  6  0  0  0
 21 22  1  0  0  0  0
 22 25  1  0  0  0  0
 23 25  1  0  0  0  0
 24 21  1  0  0  0  0
 24 26  1  0  0  0  0
 24 22  1  0  0  0  0
 25 27  1  0  0  0  0
 26 23  1  0  0  0  0
 27 28  1  0  0  0  0
 28 29  1  0  0  0  0
 29 34  1  0  0  0  0
 29 33  1  0  0  0  0
 30 32  1  0  0  0  0
 31 32  1  0  0  0  0
 33 31  1  0  0  0  0
 34 30  1  0  0  0  0
 36 40  1  0  0  0  0
 38 36  1  0  0  0  0
 38 39  1  0  0  0  0
 39 37  1  0  0  0  0
 39 35  1  0  0  0  0
 40 37  1  0  0  0  0
 41 36  1  0  0  0  0
 43 41  1  0  0  0  0
 43 42  1  0  0  0  0
M  END
>  <MODEL>
1

>  <REMARK>
 VINA RESULT:      -9.4      0.000      0.000
  Name = 
  10 active torsions:
  status: ('A' for Active; 'I' for Inactive)
    1  A    between atoms: N_1  and  C_34
    2  A    between atoms: N_1  and  C_35
    3  A    between atoms: C_2  and  C_13
    4  A    between atoms: C_3  and  C_12
    5  A    between atoms: N_6  and  C_12
    6  A    between atoms: C_9  and  N_19
    7  A    between atoms: C_9  and  C_37
    8  A    between atoms: N_11  and  C_14
    9  A    between atoms: C_14  and  C_41
   10  A    between atoms: C_22  and  C_41
                            x       y       z     vdW  Elec       q    Type
                         _______ _______ _______ _____ _____    ______ ____

>  <TORSDO>
F 10

$$$$
=
 OpenBabel10262422183D

 43 49  0  0  1  0  0  0  0  0999 V2000
  188.4410  177.5370  145.5150 C   0  0  0  0  0  0  0  0  0  0  0  0
  190.5510  177.3620  140.8910 C   0  0  0  0  0  0  0  0  0  0  0  0
  188.4130  177.3220  138.9380 C   0  0  2  0  0  3  0  0  0  0  0  0
  189.9880  177.5390  143.6280 C   0  0  0  0  0  0  0  0  0  0  0  0
  187.3180  177.1760  144.5790 C   0  0  0  0  0  2  0  0  0  0  0  0
  188.1940  177.6470  146.8420 F   0  0  0  0  0  0  0  0  0  0  0  0
  188.9310  177.5550  142.6970 C   0  0  0  0  0  0  0  0  0  0  0  0
  189.6960  177.6390  145.0670 C   0  0  0  0  0  3  0  0  0  0  0  0
  187.5240  177.7800  143.1860 C   0  0  0  0  0  2  0  0  0  0  0  0
  188.1550  177.5200  140.3610 N   0  0  0  0  0  2  0  0  0  0  0  0
  189.2130  177.4610  141.3260 C   0  0  0  0  0  0  0  0  0  0  0  0
  191.5900  177.3440  141.8260 C   0  0  0  0  0  3  0  0  0  0  0  0
  190.8740  177.2440  139.4270 C   0  0  2  0  0  3  0  0  0  0  0  0
  189.7830  177.8870  138.5640 C   0  0  0  0  0  2  0  0  0  0  0  0
  191.3100  177.4360  143.1910 C   0  0  0  0  0  3  0  0  0  0  0  0
  187.3430  177.9540  138.1130 C   0  0  0  0  0  0  0  0  0  0  0  0
  185.9940  177.4790  138.1930 N   0  0  0  0  0  2  0  0  0  0  0  0
  187.6300  178.9360  137.3780 O   0  0  0  0  0  0  0  0  0  0  0  0
  184.8990  178.0620  137.4280 C   0  0  1  0  0  3  0  0  0  0  0  0
  184.4910  177.1190  136.3090 C   0  0  0  0  0  1  0  0  0  0  0  0
  183.7110  178.2870  138.3450 C   0  0  2  0  0  3  0  0  0  0  0  0
  183.6430  179.7150  138.7200 N   0  0  2  0  0  0  0  0  0  0  0  0
  181.8680  179.1210  140.2450 N   0  0  0  0  0  2  0  0  0  0  0  0
  184.1620  178.7170  139.6650 C   0  0  1  0  0  3  0  0  0  0  0  0
  182.3110  180.0640  139.2270 C   0  0  2  0  0  3  0  0  0  0  0  0
  183.0760  178.4490  140.6880 C   0  0  0  0  0  2  0  0  0  0  0  0
  181.2820  180.2570  138.1080 C   0  0  0  0  0  2  0  0  0  0  0  0
  180.3640  181.4470  138.3490 C   0  0  0  0  0  2  0  0  0  0  0  0
  180.8140  182.5840  137.5650 N   0  0  0  0  0  0  0  0  0  0  0  0
  180.8230  183.4640  135.2440 C   0  0  0  0  0  2  0  0  0  0  0  0
  180.2130  184.9300  137.0240 C   0  0  0  0  0  2  0  0  0  0  0  0
  181.2320  184.6420  136.0120 N   0  0  0  0  0  2  0  0  0  0  0  0
  179.9670  183.7180  137.9370 C   0  0  0  0  0  2  0  0  0  0  0  0
  180.5670  182.2560  136.1590 C   0  0  0  0  0  2  0  0  0  0  0  0
  191.0350  175.8410  139.0720 N   0  0  0  0  0  2  0  0  0  0  0  0
  193.4450  174.2020  137.9040 N   0  0  0  0  0  0  0  0  0  0  0  0
  192.9660  176.5560  137.8060 C   0  0  0  0  0  2  0  0  0  0  0  0
  192.0710  174.3650  137.4610 C   0  0  0  0  0  2  0  0  0  0  0  0
  191.6650  175.7900  137.7620 C   0  0  1  0  0  3  0  0  0  0  0  0
  194.0610  175.5110  137.7370 C   0  0  0  0  0  2  0  0  0  0  0  0
  194.0900  173.2940  136.9690 C   0  0  0  0  0  2  0  0  0  0  0  0
  195.1400  172.6660  139.0180 O   0  0  0  0  0  1  0  0  0  0  0  0
  195.2810  172.6220  137.6300 C   0  0  0  0  0  2  0  0  0  0  0  0
  1  6  1  0  0  0  0
  2 11  2  0  0  0  0
  2 12  1  0  0  0  0
  3 16  1  6  0  0  0
  3 10  1  0  0  0  0
  4  8  1  0  0  0  0
  5  1  1  0  0  0  0
  7  9  1  0  0  0  0
  7  4  2  0  0  0  0
  8  1  2  0  0  0  0
  9  5  1  0  0  0  0
 10 11  1  0  0  0  0
 11  7  1  0  0  0  0
 12 15  2  0  0  0  0
 13 35  1  6  0  0  0
 13  2  1  0  0  0  0
 14  3  1  0  0  0  0
 14 13  1  0  0  0  0
 15  4  1  0  0  0  0
 16 17  1  0  0  0  0
 18 16  2  0  0  0  0
 19 20  1  6  0  0  0
 19 17  1  0  0  0  0
 21 19  1  6  0  0  0
 21 22  1  0  0  0  0
 21 24  1  0  0  0  0
 22 25  1  0  0  0  0
 22 24  1  0  0  0  0
 23 26  1  0  0  0  0
 24 26  1  0  0  0  0
 25 23  1  0  0  0  0
 27 28  1  0  0  0  0
 27 25  1  0  0  0  0
 29 33  1  0  0  0  0
 29 28  1  0  0  0  0
 30 32  1  0  0  0  0
 30 34  1  0  0  0  0
 31 33  1  0  0  0  0
 32 31  1  0  0  0  0
 34 29  1  0  0  0  0
 38 39  1  0  0  0  0
 38 36  1  0  0  0  0
 39 37  1  0  0  0  0
 39 35  1  0  0  0  0
 40 37  1  0  0  0  0
 40 36  1  0  0  0  0
 41 43  1  0  0  0  0
 41 36  1  0  0  0  0
 43 42  1  0  0  0  0
M  END
>  <MODEL>
2

>  <REMARK>
 VINA RESULT:      -8.9      2.701     10.324
  Name = 
  10 active torsions:
  status: ('A' for Active; 'I' for Inactive)
    1  A    between atoms: N_1  and  C_34
    2  A    between atoms: N_1  and  C_35
    3  A    between atoms: C_2  and  C_13
    4  A    between atoms: C_3  and  C_12
    5  A    between atoms: N_6  and  C_12
    6  A    between atoms: C_9  and  N_19
    7  A    between atoms: C_9  and  C_37
    8  A    between atoms: N_11  and  C_14
    9  A    between atoms: C_14  and  C_41
   10  A    between atoms: C_22  and  C_41
                            x       y       z     vdW  Elec       q    Type
                         _______ _______ _______ _____ _____    ______ ____

>  <TORSDO>
F 10

$$$$
=
 OpenBabel10262422183D

 43 49  0  0  1  0  0  0  0  0999 V2000
  184.6940  178.8150  145.8010 C   0  0  0  0  0  0  0  0  0  0  0  0
  182.5640  178.8300  141.1830 C   0  0  0  0  0  0  0  0  0  0  0  0
  184.6940  178.8270  139.2200 C   0  0  2  0  0  3  0  0  0  0  0  0
  183.1390  178.7430  143.9220 C   0  0  0  0  0  0  0  0  0  0  0  0
  185.8100  179.1560  144.8490 C   0  0  0  0  0  2  0  0  0  0  0  0
  184.9470  178.7490  147.1300 F   0  0  0  0  0  0  0  0  0  0  0  0
  184.1930  178.7060  142.9880 C   0  0  0  0  0  0  0  0  0  0  0  0
  183.4380  178.6890  145.3620 C   0  0  0  0  0  3  0  0  0  0  0  0
  185.6030  178.5090  143.4770 C   0  0  0  0  0  2  0  0  0  0  0  0
  184.9590  178.6760  140.6480 N   0  0  0  0  0  2  0  0  0  0  0  0
  183.9050  178.7570  141.6150 C   0  0  0  0  0  0  0  0  0  0  0  0
  181.5290  178.8700  142.1220 C   0  0  0  0  0  3  0  0  0  0  0  0
  182.2340  178.9010  139.7170 C   0  0  2  0  0  3  0  0  0  0  0  0
  183.3270  178.2410  138.8700 C   0  0  0  0  0  2  0  0  0  0  0  0
  181.8150  178.8220  143.4870 C   0  0  0  0  0  3  0  0  0  0  0  0
  185.7660  178.1790  138.4110 C   0  0  0  0  0  0  0  0  0  0  0  0
  187.1430  178.4900  138.6540 N   0  0  0  0  0  2  0  0  0  0  0  0
  185.4500  177.3250  137.5420 O   0  0  0  0  0  0  0  0  0  0  0  0
  188.2390  177.8810  137.9120 C   0  0  1  0  0  3  0  0  0  0  0  0
  188.5180  178.6820  136.6520 C   0  0  0  0  0  1  0  0  0  0  0  0
  189.4840  177.8690  138.7770 C   0  0  2  0  0  3  0  0  0  0  0  0
  189.9270  176.4730  138.9810 N   0  0  2  0  0  0  0  0  0  0  0  0
  191.5620  177.3310  140.5380 N   0  0  0  0  0  2  0  0  0  0  0  0
  189.2160  177.1970  140.0450 C   0  0  1  0  0  3  0  0  0  0  0  0
  191.3250  176.4230  139.4230 C   0  0  2  0  0  3  0  0  0  0  0  0
  190.2440  177.6190  141.0750 C   0  0  0  0  0  2  0  0  0  0  0  0
  192.3190  176.6230  138.2750 C   0  0  0  0  0  2  0  0  0  0  0  0
  192.8950  175.3120  137.7580 C   0  0  0  0  0  2  0  0  0  0  0  0
  194.3360  175.4290  137.6130 N   0  0  0  0  0  0  0  0  0  0  0  0
  196.4400  174.1860  138.0420 C   0  0  0  0  0  2  0  0  0  0  0  0
  196.1400  175.2340  135.9200 C   0  0  0  0  0  2  0  0  0  0  0  0
  196.9050  175.2670  137.1690 N   0  0  0  0  0  2  0  0  0  0  0  0
  194.6290  175.3290  136.1820 C   0  0  0  0  0  2  0  0  0  0  0  0
  194.9280  174.2760  138.2950 C   0  0  0  0  0  2  0  0  0  0  0  0
  182.0600  180.2910  139.3200 N   0  0  0  0  0  2  0  0  0  0  0  0
  180.4530  182.6810  138.0710 N   0  0  0  0  0  0  0  0  0  0  0  0
  179.6990  180.8060  139.3730 C   0  0  0  0  0  2  0  0  0  0  0  0
  181.0130  181.4730  137.4890 C   0  0  0  0  0  2  0  0  0  0  0  0
  180.8560  180.3670  138.5070 C   0  0  1  0  0  3  0  0  0  0  0  0
  179.3830  182.2260  138.9480 C   0  0  0  0  0  2  0  0  0  0  0  0
  179.8380  183.4310  136.9870 C   0  0  0  0  0  2  0  0  0  0  0  0
  181.0810  184.8810  135.5560 O   0  0  0  0  0  1  0  0  0  0  0  0
  180.5230  184.7780  136.8300 C   0  0  0  0  0  2  0  0  0  0  0  0
  1  6  1  0  0  0  0
  2 11  2  0  0  0  0
  2 12  1  0  0  0  0
  3 16  1  6  0  0  0
  3 10  1  0  0  0  0
  4  8  1  0  0  0  0
  5  1  1  0  0  0  0
  7  9  1  0  0  0  0
  7  4  2  0  0  0  0
  8  1  2  0  0  0  0
  9  5  1  0  0  0  0
 10 11  1  0  0  0  0
 11  7  1  0  0  0  0
 12 15  2  0  0  0  0
 13 35  1  6  0  0  0
 13  2  1  0  0  0  0
 14  3  1  0  0  0  0
 14 13  1  0  0  0  0
 15  4  1  0  0  0  0
 16 17  1  0  0  0  0
 18 16  2  0  0  0  0
 19 20  1  6  0  0  0
 19 17  1  0  0  0  0
 21 19  1  6  0  0  0
 21 22  1  0  0  0  0
 21 24  1  0  0  0  0
 22 25  1  0  0  0  0
 22 24  1  0  0  0  0
 23 26  1  0  0  0  0
 24 26  1  0  0  0  0
 25 23  1  0  0  0  0
 27 25  1  0  0  0  0
 28 27  1  0  0  0  0
 29 28  1  0  0  0  0
 29 34  1  0  0  0  0
 30 34  1  0  0  0  0
 31 33  1  0  0  0  0
 31 32  1  0  0  0  0
 32 30  1  0  0  0  0
 33 29  1  0  0  0  0
 36 40  1  0  0  0  0
 38 36  1  0  0  0  0
 38 39  1  0  0  0  0
 39 35  1  0  0  0  0
 39 37  1  0  0  0  0
 40 37  1  0  0  0  0
 41 36  1  0  0  0  0
 42 43  1  0  0  0  0
 43 41  1  0  0  0  0
M  END
>  <MODEL>
3

>  <REMARK>
 VINA RESULT:      -8.9      2.175      3.904
  Name = 
  10 active torsions:
  status: ('A' for Active; 'I' for Inactive)
    1  A    between atoms: N_1  and  C_34
    2  A    between atoms: N_1  and  C_35
    3  A    between atoms: C_2  and  C_13
    4  A    between atoms: C_3  and  C_12
    5  A    between atoms: N_6  and  C_12
    6  A    between atoms: C_9  and  N_19
    7  A    between atoms: C_9  and  C_37
    8  A    between atoms: N_11  and  C_14
    9  A    between atoms: C_14  and  C_41
   10  A    between atoms: C_22  and  C_41
                            x       y       z     vdW  Elec       q    Type
                         _______ _______ _______ _____ _____    ______ ____

>  <TORSDO>
F 10

$$$$
=
 OpenBabel10262422183D

 43 49  0  0  1  0  0  0  0  0999 V2000
  183.8430  178.8220  145.1820 C   0  0  0  0  0  0  0  0  0  0  0  0
  182.1380  179.0890  140.3980 C   0  0  0  0  0  0  0  0  0  0  0  0
  184.4200  178.8960  138.6270 C   0  0  2  0  0  3  0  0  0  0  0  0
  182.4590  178.9190  143.1750 C   0  0  0  0  0  0  0  0  0  0  0  0
  185.0660  179.0610  144.3370 C   0  0  0  0  0  2  0  0  0  0  0  0
  183.9710  178.7180  146.5270 F   0  0  0  0  0  0  0  0  0  0  0  0
  183.5820  178.7890  142.3350 C   0  0  0  0  0  0  0  0  0  0  0  0
  182.6240  178.8230  144.6340 C   0  0  0  0  0  3  0  0  0  0  0  0
  184.9190  178.4500  142.9400 C   0  0  0  0  0  2  0  0  0  0  0  0
  184.5440  178.7060  140.0700 N   0  0  0  0  0  2  0  0  0  0  0  0
  183.4210  178.8800  140.9430 C   0  0  0  0  0  0  0  0  0  0  0  0
  181.0330  179.2200  141.2450 C   0  0  0  0  0  3  0  0  0  0  0  0
  181.9450  179.2050  138.9110 C   0  0  2  0  0  3  0  0  0  0  0  0
  183.0400  178.4490  138.1500 C   0  0  0  0  0  2  0  0  0  0  0  0
  181.1920  179.1320  142.6290 C   0  0  0  0  0  3  0  0  0  0  0  0
  185.4920  178.1540  137.9020 C   0  0  0  0  0  0  0  0  0  0  0  0
  186.8580  178.2630  138.3210 N   0  0  0  0  0  2  0  0  0  0  0  0
  185.1780  177.3980  136.9450 O   0  0  0  0  0  0  0  0  0  0  0  0
  187.9490  177.5530  137.6670 C   0  0  1  0  0  3  0  0  0  0  0  0
  188.7340  178.5090  136.7860 C   0  0  0  0  0  1  0  0  0  0  0  0
  188.8750  176.9780  138.7220 C   0  0  2  0  0  3  0  0  0  0  0  0
  189.4660  178.0790  139.5110 N   0  0  2  0  0  0  0  0  0  0  0  0
  190.8600  176.4230  140.5830 N   0  0  0  0  0  2  0  0  0  0  0  0
  190.2510  177.3960  138.4740 C   0  0  1  0  0  3  0  0  0  0  0  0
  190.0050  177.5870  140.7840 C   0  0  2  0  0  3  0  0  0  0  0  0
  191.2070  176.4510  139.1730 C   0  0  0  0  0  2  0  0  0  0  0  0
  188.9180  177.3490  141.8370 C   0  0  0  0  0  2  0  0  0  0  0  0
  189.1010  176.0390  142.5900 C   0  0  0  0  0  2  0  0  0  0  0  0
  189.2950  176.3060  144.0050 N   0  0  0  0  0  0  0  0  0  0  0  0
  190.7910  177.5210  145.5670 C   0  0  0  0  0  2  0  0  0  0  0  0
  188.4310  177.7210  145.8510 C   0  0  0  0  0  2  0  0  0  0  0  0
  189.6620  177.1850  146.4370 N   0  0  0  0  0  2  0  0  0  0  0  0
  188.2170  177.2050  144.4190 C   0  0  0  0  0  2  0  0  0  0  0  0
  190.5710  177.0130  144.1340 C   0  0  0  0  0  2  0  0  0  0  0  0
  181.9420  180.6100  138.5250 N   0  0  0  0  0  2  0  0  0  0  0  0
  180.2610  179.8600  135.9820 N   0  0  0  0  0  0  0  0  0  0  0  0
  180.6670  181.9950  137.0100 C   0  0  0  0  0  2  0  0  0  0  0  0
  179.9870  179.7370  137.4040 C   0  0  0  0  0  2  0  0  0  0  0  0
  180.5950  180.9400  138.0870 C   0  0  1  0  0  3  0  0  0  0  0  0
  180.2960  181.2920  135.7200 C   0  0  0  0  0  2  0  0  0  0  0  0
  179.1120  179.3150  135.2770 C   0  0  0  0  0  2  0  0  0  0  0  0
  180.8630  177.7990  134.7000 O   0  0  0  0  0  1  0  0  0  0  0  0
  179.4870  178.0090  134.5980 C   0  0  0  0  0  2  0  0  0  0  0  0
  1  6  1  0  0  0  0
  2 11  2  0  0  0  0
  2 12  1  0  0  0  0
  3 16  1  6  0  0  0
  3 10  1  0  0  0  0
  4  8  1  0  0  0  0
  5  1  1  0  0  0  0
  7  9  1  0  0  0  0
  7  4  2  0  0  0  0
  8  1  2  0  0  0  0
  9  5  1  0  0  0  0
 10 11  1  0  0  0  0
 11  7  1  0  0  0  0
 12 15  2  0  0  0  0
 13 35  1  6  0  0  0
 13  2  1  0  0  0  0
 14  3  1  0  0  0  0
 14 13  1  0  0  0  0
 15  4  1  0  0  0  0
 16 17  1  0  0  0  0
 18 16  2  0  0  0  0
 19 20  1  6  0  0  0
 19 17  1  0  0  0  0
 21 19  1  6  0  0  0
 21 22  1  0  0  0  0
 22 25  1  0  0  0  0
 23 25  1  0  0  0  0
 24 21  1  0  0  0  0
 24 26  1  0  0  0  0
 24 22  1  0  0  0  0
 25 27  1  0  0  0  0
 26 23  1  0  0  0  0
 27 28  1  0  0  0  0
 28 29  1  0  0  0  0
 29 34  1  0  0  0  0
 29 33  1  0  0  0  0
 30 32  1  0  0  0  0
 31 32  1  0  0  0  0
 33 31  1  0  0  0  0
 34 30  1  0  0  0  0
 36 38  1  0  0  0  0
 37 39  1  0  0  0  0
 38 39  1  0  0  0  0
 39 35  1  0  0  0  0
 40 36  1  0  0  0  0
 40 37  1  0  0  0  0
 41 36  1  0  0  0  0
 43 42  1  0  0  0  0
 43 41  1  0  0  0  0
M  END
>  <MODEL>
4

>  <REMARK>
 VINA RESULT:      -8.1      1.532      2.048
  Name = 
  10 active torsions:
  status: ('A' for Active; 'I' for Inactive)
    1  A    between atoms: N_1  and  C_34
    2  A    between atoms: N_1  and  C_35
    3  A    between atoms: C_2  and  C_13
    4  A    between atoms: C_3  and  C_12
    5  A    between atoms: N_6  and  C_12
    6  A    between atoms: C_9  and  N_19
    7  A    between atoms: C_9  and  C_37
    8  A    between atoms: N_11  and  C_14
    9  A    between atoms: C_14  and  C_41
   10  A    between atoms: C_22  and  C_41
                            x       y       z     vdW  Elec       q    Type
                         _______ _______ _______ _____ _____    ______ ____

>  <TORSDO>
F 10

$$$$
=
 OpenBabel10262422183D

 43 49  0  0  1  0  0  0  0  0999 V2000
  189.0290  177.7370  145.0620 C   0  0  0  0  0  0  0  0  0  0  0  0
  190.6980  177.3770  140.2710 C   0  0  0  0  0  0  0  0  0  0  0  0
  188.3890  177.2000  138.5350 C   0  0  2  0  0  3  0  0  0  0  0  0
  190.3920  177.6770  143.0390 C   0  0  0  0  0  0  0  0  0  0  0  0
  187.8330  177.3090  144.2550 C   0  0  0  0  0  2  0  0  0  0  0  0
  188.9060  177.9070  146.4010 F   0  0  0  0  0  0  0  0  0  0  0  0
  189.2520  177.6270  142.2130 C   0  0  0  0  0  0  0  0  0  0  0  0
  190.2350  177.8420  144.4930 C   0  0  0  0  0  3  0  0  0  0  0  0
  187.8920  177.8470  142.8230 C   0  0  0  0  0  2  0  0  0  0  0  0
  188.2610  177.4610  139.9650 N   0  0  0  0  0  2  0  0  0  0  0  0
  189.4060  177.4700  140.8270 C   0  0  0  0  0  0  0  0  0  0  0  0
  191.8210  177.4250  141.1040 C   0  0  0  0  0  3  0  0  0  0  0  0
  190.8860  177.1940  138.7910 C   0  0  2  0  0  3  0  0  0  0  0  0
  189.7030  177.7710  138.0060 C   0  0  0  0  0  2  0  0  0  0  0  0
  191.6690  177.5780  142.4830 C   0  0  0  0  0  3  0  0  0  0  0  0
  187.2300  177.7690  137.7870 C   0  0  0  0  0  0  0  0  0  0  0  0
  186.2500  176.9030  137.2040 N   0  0  0  0  0  2  0  0  0  0  0  0
  187.1010  179.0200  137.7110 O   0  0  0  0  0  0  0  0  0  0  0  0
  185.0870  177.3940  136.4760 C   0  0  1  0  0  3  0  0  0  0  0  0
  185.2850  177.1870  134.9840 C   0  0  0  0  0  1  0  0  0  0  0  0
  183.8560  176.6290  136.9230 C   0  0  2  0  0  3  0  0  0  0  0  0
  184.0170  176.2210  138.3350 N   0  0  2  0  0  0  0  0  0  0  0  0
  181.9760  174.9530  138.0900 N   0  0  0  0  0  2  0  0  0  0  0  0
  184.2050  175.2500  137.2490 C   0  0  1  0  0  3  0  0  0  0  0  0
  182.7230  175.8770  138.9350 C   0  0  2  0  0  3  0  0  0  0  0  0
  182.9640  174.3820  137.1930 C   0  0  0  0  0  2  0  0  0  0  0  0
  181.9050  177.1100  139.3320 C   0  0  0  0  0  2  0  0  0  0  0  0
  182.7760  178.2930  139.7310 C   0  0  0  0  0  2  0  0  0  0  0  0
  183.1000  178.2130  141.1450 N   0  0  0  0  0  0  0  0  0  0  0  0
  184.6680  179.1310  142.8350 C   0  0  0  0  0  2  0  0  0  0  0  0
  182.3440  179.0340  143.3610 C   0  0  0  0  0  2  0  0  0  0  0  0
  183.6630  178.4840  143.6810 N   0  0  0  0  0  2  0  0  0  0  0  0
  182.0140  178.8750  141.8680 C   0  0  0  0  0  2  0  0  0  0  0  0
  184.3320  178.9800  141.3430 C   0  0  0  0  0  2  0  0  0  0  0  0
  191.0460  175.7780  138.4880 N   0  0  0  0  0  2  0  0  0  0  0  0
  193.4650  174.0080  137.5540 N   0  0  0  0  0  0  0  0  0  0  0  0
  193.1130  176.3810  137.3900 C   0  0  0  0  0  2  0  0  0  0  0  0
  192.1440  174.2310  136.9900 C   0  0  0  0  0  2  0  0  0  0  0  0
  191.7850  175.6780  137.2400 C   0  0  1  0  0  3  0  0  0  0  0  0
  194.1580  175.2830  137.4290 C   0  0  0  0  0  2  0  0  0  0  0  0
  194.1430  173.0570  136.6880 C   0  0  0  0  0  2  0  0  0  0  0  0
  193.6530  170.7270  136.5170 O   0  0  0  0  0  1  0  0  0  0  0  0
  193.1660  171.9970  136.2090 C   0  0  0  0  0  2  0  0  0  0  0  0
  1  6  1  0  0  0  0
  2 11  2  0  0  0  0
  2 12  1  0  0  0  0
  3 16  1  6  0  0  0
  3 10  1  0  0  0  0
  4  8  1  0  0  0  0
  5  1  1  0  0  0  0
  7  9  1  0  0  0  0
  7  4  2  0  0  0  0
  8  1  2  0  0  0  0
  9  5  1  0  0  0  0
 10 11  1  0  0  0  0
 11  7  1  0  0  0  0
 12 15  2  0  0  0  0
 13 35  1  1  0  0  0
 13  2  1  0  0  0  0
 14  3  1  0  0  0  0
 14 13  1  0  0  0  0
 15  4  1  0  0  0  0
 17 16  1  0  0  0  0
 18 16  2  0  0  0  0
 19 20  1  6  0  0  0
 19 17  1  0  0  0  0
 21 19  1  6  0  0  0
 21 24  1  0  0  0  0
 21 22  1  0  0  0  0
 22 25  1  0  0  0  0
 23 25  1  0  0  0  0
 24 22  1  0  0  0  0
 25 27  1  0  0  0  0
 26 24  1  0  0  0  0
 26 23  1  0  0  0  0
 27 28  1  0  0  0  0
 28 29  1  0  0  0  0
 29 34  1  0  0  0  0
 29 33  1  0  0  0  0
 30 32  1  0  0  0  0
 31 32  1  0  0  0  0
 33 31  1  0  0  0  0
 34 30  1  0  0  0  0
 37 40  1  0  0  0  0
 38 39  1  0  0  0  0
 38 36  1  0  0  0  0
 39 37  1  0  0  0  0
 39 35  1  0  0  0  0
 40 36  1  0  0  0  0
 41 36  1  0  0  0  0
 43 42  1  0  0  0  0
 43 41  1  0  0  0  0
M  END
>  <MODEL>
5

>  <REMARK>
 VINA RESULT:      -8.0      3.203      9.197
  Name = 
  10 active torsions:
  status: ('A' for Active; 'I' for Inactive)
    1  A    between atoms: N_1  and  C_34
    2  A    between atoms: N_1  and  C_35
    3  A    between atoms: C_2  and  C_13
    4  A    between atoms: C_3  and  C_12
    5  A    between atoms: N_6  and  C_12
    6  A    between atoms: C_9  and  N_19
    7  A    between atoms: C_9  and  C_37
    8  A    between atoms: N_11  and  C_14
    9  A    between atoms: C_14  and  C_41
   10  A    between atoms: C_22  and  C_41
                            x       y       z     vdW  Elec       q    Type
                         _______ _______ _______ _____ _____    ______ ____

>  <TORSDO>
F 10

$$$$
=
 OpenBabel10262422183D

 43 49  0  0  1  0  0  0  0  0999 V2000
  189.0980  177.6820  145.3790 C   0  0  0  0  0  0  0  0  0  0  0  0
  190.6350  177.4010  140.5390 C   0  0  0  0  0  0  0  0  0  0  0  0
  188.2780  177.2940  138.8610 C   0  0  2  0  0  3  0  0  0  0  0  0
  190.4060  177.6450  143.3190 C   0  0  0  0  0  0  0  0  0  0  0  0
  187.8750  177.2880  144.5950 C   0  0  0  0  0  2  0  0  0  0  0  0
  189.0130  177.8240  146.7230 F   0  0  0  0  0  0  0  0  0  0  0  0
  189.2440  177.6290  142.5230 C   0  0  0  0  0  0  0  0  0  0  0  0
  190.2890  177.7810  144.7800 C   0  0  0  0  0  3  0  0  0  0  0  0
  187.9040  177.8560  143.1730 C   0  0  0  0  0  2  0  0  0  0  0  0
  188.1920  177.5270  140.2990 N   0  0  0  0  0  2  0  0  0  0  0  0
  189.3590  177.5010  141.1300 C   0  0  0  0  0  0  0  0  0  0  0  0
  191.7800  177.4140  141.3420 C   0  0  0  0  0  3  0  0  0  0  0  0
  190.7810  177.2470  139.0500 C   0  0  2  0  0  3  0  0  0  0  0  0
  189.5860  177.8580  138.3090 C   0  0  0  0  0  2  0  0  0  0  0  0
  191.6660  177.5400  142.7270 C   0  0  0  0  0  3  0  0  0  0  0  0
  187.1090  177.8960  138.1570 C   0  0  0  0  0  0  0  0  0  0  0  0
  185.7740  177.5810  138.5710 N   0  0  0  0  0  2  0  0  0  0  0  0
  187.3090  178.7170  137.2220 O   0  0  0  0  0  0  0  0  0  0  0  0
  184.5910  178.1470  137.9370 C   0  0  1  0  0  3  0  0  0  0  0  0
  184.2030  177.3120  136.7280 C   0  0  0  0  0  1  0  0  0  0  0  0
  183.4430  178.1460  138.9290 C   0  0  2  0  0  3  0  0  0  0  0  0
  182.8670  179.5050  139.0150 N   0  0  2  0  0  0  0  0  0  0  0  0
  181.5010  178.6960  140.8350 N   0  0  0  0  0  2  0  0  0  0  0  0
  183.7570  179.0000  140.0700 C   0  0  1  0  0  3  0  0  0  0  0  0
  181.5230  179.4720  139.6010 C   0  0  2  0  0  3  0  0  0  0  0  0
  182.8900  178.6130  141.2510 C   0  0  0  0  0  2  0  0  0  0  0  0
  180.4500  179.0260  138.6020 C   0  0  0  0  0  2  0  0  0  0  0  0
  179.4690  178.0250  139.1960 C   0  0  0  0  0  2  0  0  0  0  0  0
  179.4720  176.8040  138.4090 N   0  0  0  0  0  0  0  0  0  0  0  0
  180.5520  175.7710  136.4270 C   0  0  0  0  0  2  0  0  0  0  0  0
  180.3520  174.4840  138.4250 C   0  0  0  0  0  2  0  0  0  0  0  0
  179.8910  174.6180  137.0420 N   0  0  0  0  0  2  0  0  0  0  0  0
  180.1070  175.7710  139.2290 C   0  0  0  0  0  2  0  0  0  0  0  0
  180.3140  177.0550  137.2370 C   0  0  0  0  0  2  0  0  0  0  0  0
  190.9120  175.8350  138.7130 N   0  0  0  0  0  2  0  0  0  0  0  0
  193.5190  174.2970  137.8800 N   0  0  0  0  0  0  0  0  0  0  0  0
  192.9060  176.6030  137.5850 C   0  0  0  0  0  2  0  0  0  0  0  0
  192.1850  174.3410  137.3040 C   0  0  0  0  0  2  0  0  0  0  0  0
  191.6660  175.7500  137.4730 C   0  0  1  0  0  3  0  0  0  0  0  0
  194.0660  175.6320  137.6850 C   0  0  0  0  0  2  0  0  0  0  0  0
  194.3040  173.3810  137.0700 C   0  0  0  0  0  2  0  0  0  0  0  0
  195.5150  173.0130  139.0940 O   0  0  0  0  0  1  0  0  0  0  0  0
  195.0140  172.3740  137.9590 C   0  0  0  0  0  2  0  0  0  0  0  0
  1  6  1  0  0  0  0
  2 11  2  0  0  0  0
  2 12  1  0  0  0  0
  3 16  1  6  0  0  0
  3 10  1  0  0  0  0
  4  8  1  0  0  0  0
  5  1  1  0  0  0  0
  7  9  1  0  0  0  0
  7  4  2  0  0  0  0
  8  1  2  0  0  0  0
  9  5  1  0  0  0  0
 10 11  1  0  0  0  0
 11  7  1  0  0  0  0
 12 15  2  0  0  0  0
 13 35  1  1  0  0  0
 13  2  1  0  0  0  0
 14  3  1  0  0  0  0
 14 13  1  0  0  0  0
 15  4  1  0  0  0  0
 16 17  1  0  0  0  0
 18 16  2  0  0  0  0
 19 20  1  6  0  0  0
 19 17  1  0  0  0  0
 21 19  1  6  0  0  0
 21 22  1  0  0  0  0
 21 24  1  0  0  0  0
 22 25  1  0  0  0  0
 22 24  1  0  0  0  0
 23 26  1  0  0  0  0
 24 26  1  0  0  0  0
 25 23  1  0  0  0  0
 27 28  1  0  0  0  0
 27 25  1  0  0  0  0
 29 28  1  0  0  0  0
 29 33  1  0  0  0  0
 30 32  1  0  0  0  0
 30 34  1  0  0  0  0
 31 33  1  0  0  0  0
 32 31  1  0  0  0  0
 34 29  1  0  0  0  0
 37 40  1  0  0  0  0
 38 39  1  0  0  0  0
 38 36  1  0  0  0  0
 39 37  1  0  0  0  0
 39 35  1  0  0  0  0
 40 36  1  0  0  0  0
 41 36  1  0  0  0  0
 41 43  1  0  0  0  0
 43 42  1  0  0  0  0
M  END
>  <MODEL>
6

>  <REMARK>
 VINA RESULT:      -8.0      3.201     10.100
  Name = 
  10 active torsions:
  status: ('A' for Active; 'I' for Inactive)
    1  A    between atoms: N_1  and  C_34
    2  A    between atoms: N_1  and  C_35
    3  A    between atoms: C_2  and  C_13
    4  A    between atoms: C_3  and  C_12
    5  A    between atoms: N_6  and  C_12
    6  A    between atoms: C_9  and  N_19
    7  A    between atoms: C_9  and  C_37
    8  A    between atoms: N_11  and  C_14
    9  A    between atoms: C_14  and  C_41
   10  A    between atoms: C_22  and  C_41
                            x       y       z     vdW  Elec       q    Type
                         _______ _______ _______ _____ _____    ______ ____

>  <TORSDO>
F 10

$$$$
=
 OpenBabel10262422183D

 43 49  0  0  1  0  0  0  0  0999 V2000
  184.8990  172.7570  135.4280 C   0  0  0  0  0  0  0  0  0  0  0  0
  189.6220  174.1940  136.6500 C   0  0  0  0  0  0  0  0  0  0  0  0
  189.4610  176.7890  137.9230 C   0  0  2  0  0  3  0  0  0  0  0  0
  187.3040  172.8550  135.8260 C   0  0  0  0  0  0  0  0  0  0  0  0
  184.7960  174.2210  135.7600 C   0  0  0  0  0  2  0  0  0  0  0  0
  183.7900  172.0800  135.0420 F   0  0  0  0  0  0  0  0  0  0  0  0
  187.1960  174.1020  136.4730 C   0  0  0  0  0  0  0  0  0  0  0  0
  186.0880  172.1460  135.3980 C   0  0  0  0  0  3  0  0  0  0  0  0
  185.8300  174.6390  136.8090 C   0  0  0  0  0  2  0  0  0  0  0  0
  188.2670  176.0230  137.5790 N   0  0  0  0  0  2  0  0  0  0  0  0
  188.3580  174.7750  136.8800 C   0  0  0  0  0  0  0  0  0  0  0  0
  189.7140  172.9570  136.0020 C   0  0  0  0  0  3  0  0  0  0  0  0
  190.8800  174.9050  137.0640 C   0  0  2  0  0  3  0  0  0  0  0  0
  190.6220  175.8490  138.2430 C   0  0  0  0  0  2  0  0  0  0  0  0
  188.5590  172.2880  135.5950 C   0  0  0  0  0  3  0  0  0  0  0  0
  189.1920  177.7010  139.0720 C   0  0  0  0  0  0  0  0  0  0  0  0
  189.1750  177.1920  140.4110 N   0  0  0  0  0  2  0  0  0  0  0  0
  189.0210  178.9300  138.8560 O   0  0  0  0  0  0  0  0  0  0  0  0
  188.9340  178.0300  141.5770 C   0  0  1  0  0  3  0  0  0  0  0  0
  187.4410  178.2250  141.7760 C   0  0  0  0  0  1  0  0  0  0  0  0
  189.5140  177.3560  142.8070 C   0  0  2  0  0  3  0  0  0  0  0  0
  190.4550  178.2800  143.4760 N   0  0  2  0  0  0  0  0  0  0  0  0
  191.0390  176.4520  144.9430 N   0  0  0  0  0  2  0  0  0  0  0  0
  190.9530  177.1690  142.6530 C   0  0  1  0  0  3  0  0  0  0  0  0
  190.7010  177.8670  144.8620 C   0  0  2  0  0  3  0  0  0  0  0  0
  191.4300  176.0820  143.5950 C   0  0  0  0  0  2  0  0  0  0  0  0
  189.5640  178.2600  145.8100 C   0  0  0  0  0  2  0  0  0  0  0  0
  188.7620  177.0620  146.3000 C   0  0  0  0  0  2  0  0  0  0  0  0
  187.3850  177.4550  146.5430 N   0  0  0  0  0  0  0  0  0  0  0  0
  186.0320  179.2480  147.5970 C   0  0  0  0  0  2  0  0  0  0  0  0
  185.4330  178.4920  145.4160 C   0  0  0  0  0  2  0  0  0  0  0  0
  185.0200  178.5280  146.8210 N   0  0  0  0  0  2  0  0  0  0  0  0
  186.8250  177.8610  145.2530 C   0  0  0  0  0  2  0  0  0  0  0  0
  187.4250  178.6230  147.4260 C   0  0  0  0  0  2  0  0  0  0  0  0
  191.4180  175.6490  135.9330 N   0  0  0  0  0  2  0  0  0  0  0  0
  194.4080  175.4710  136.8730 N   0  0  0  0  0  0  0  0  0  0  0  0
  193.4800  175.8710  134.6920 C   0  0  0  0  0  2  0  0  0  0  0  0
  193.4040  174.4520  136.6160 C   0  0  0  0  0  2  0  0  0  0  0  0
  192.5760  174.9210  135.4410 C   0  0  1  0  0  3  0  0  0  0  0  0
  194.6960  176.0640  135.5760 C   0  0  0  0  0  2  0  0  0  0  0  0
  195.6100  174.7830  137.3150 C   0  0  0  0  0  2  0  0  0  0  0  0
  195.5690  172.8530  138.7190 O   0  0  0  0  0  1  0  0  0  0  0  0
  195.4150  174.2400  138.7200 C   0  0  0  0  0  2  0  0  0  0  0  0
  1  5  1  0  0  0  0
  2 11  1  0  0  0  0
  2 13  1  0  0  0  0
  3 14  1  0  0  0  0
  3 16  1  1  0  0  0
  4  7  1  0  0  0  0
  5  9  1  0  0  0  0
  6  1  1  0  0  0  0
  7  9  1  0  0  0  0
  7 11  2  0  0  0  0
  8  1  2  0  0  0  0
  8  4  1  0  0  0  0
 10  3  1  0  0  0  0
 11 10  1  0  0  0  0
 12  2  2  0  0  0  0
 13 35  1  6  0  0  0
 13 14  1  0  0  0  0
 15  4  2  0  0  0  0
 15 12  1  0  0  0  0
 16 17  1  0  0  0  0
 17 19  1  0  0  0  0
 18 16  2  0  0  0  0
 19 20  1  1  0  0  0
 21 19  1  6  0  0  0
 21 22  1  0  0  0  0
 22 25  1  0  0  0  0
 24 21  1  0  0  0  0
 24 22  1  0  0  0  0
 24 26  1  0  0  0  0
 25 23  1  0  0  0  0
 25 27  1  0  0  0  0
 26 23  1  0  0  0  0
 27 28  1  0  0  0  0
 28 29  1  0  0  0  0
 29 34  1  0  0  0  0
 31 32  1  0  0  0  0
 32 30  1  0  0  0  0
 33 31  1  0  0  0  0
 33 29  1  0  0  0  0
 34 30  1  0  0  0  0
 36 41  1  0  0  0  0
 37 39  1  0  0  0  0
 37 40  1  0  0  0  0
 38 36  1  0  0  0  0
 39 35  1  0  0  0  0
 39 38  1  0  0  0  0
 40 36  1  0  0  0  0
 41 43  1  0  0  0  0
 42 43  1  0  0  0  0
M  END
>  <MODEL>
7

>  <REMARK>
 VINA RESULT:      -7.9      5.477      9.907
  Name = 
  10 active torsions:
  status: ('A' for Active; 'I' for Inactive)
    1  A    between atoms: N_1  and  C_34
    2  A    between atoms: N_1  and  C_35
    3  A    between atoms: C_2  and  C_13
    4  A    between atoms: C_3  and  C_12
    5  A    between atoms: N_6  and  C_12
    6  A    between atoms: C_9  and  N_19
    7  A    between atoms: C_9  and  C_37
    8  A    between atoms: N_11  and  C_14
    9  A    between atoms: C_14  and  C_41
   10  A    between atoms: C_22  and  C_41
                            x       y       z     vdW  Elec       q    Type
                         _______ _______ _______ _____ _____    ______ ____

>  <TORSDO>
F 10

$$$$
=
 OpenBabel10262422183D

 43 49  0  0  1  0  0  0  0  0999 V2000
  193.2300  174.4010  135.7830 C   0  0  0  0  0  0  0  0  0  0  0  0
  189.4110  177.3780  137.3360 C   0  0  0  0  0  0  0  0  0  0  0  0
  189.3290  177.2860  140.2290 C   0  0  2  0  0  3  0  0  0  0  0  0
  191.3770  175.9830  135.9120 C   0  0  0  0  0  0  0  0  0  0  0  0
  193.0180  174.0530  137.2320 C   0  0  0  0  0  2  0  0  0  0  0  0
  194.1860  173.7540  135.0740 F   0  0  0  0  0  0  0  0  0  0  0  0
  191.3800  175.9490  137.3200 C   0  0  0  0  0  0  0  0  0  0  0  0
  192.4140  175.2570  135.1610 C   0  0  0  0  0  3  0  0  0  0  0  0
  192.5080  175.2530  138.0360 C   0  0  0  0  0  2  0  0  0  0  0  0
  190.4030  176.6560  139.4660 N   0  0  0  0  0  2  0  0  0  0  0  0
  190.3910  176.6430  138.0340 C   0  0  0  0  0  0  0  0  0  0  0  0
  189.4170  177.4000  135.9380 C   0  0  0  0  0  3  0  0  0  0  0  0
  188.3320  178.1160  138.0800 C   0  0  2  0  0  3  0  0  0  0  0  0
  188.7980  178.5110  139.4860 C   0  0  0  0  0  2  0  0  0  0  0  0
  190.3990  176.7080  135.2280 C   0  0  0  0  0  3  0  0  0  0  0  0
  189.8010  177.6640  141.5930 C   0  0  0  0  0  0  0  0  0  0  0  0
  190.8720  176.9430  142.2130 N   0  0  0  0  0  2  0  0  0  0  0  0
  189.2740  178.6480  142.1760 O   0  0  0  0  0  0  0  0  0  0  0  0
  191.3900  177.2710  143.5350 C   0  0  1  0  0  3  0  0  0  0  0  0
  191.6820  178.7590  143.6210 C   0  0  0  0  0  1  0  0  0  0  0  0
  190.3560  176.9070  144.5830 C   0  0  2  0  0  3  0  0  0  0  0  0
  189.7450  178.1410  145.1200 N   0  0  2  0  0  0  0  0  0  0  0  0
  188.6110  176.7500  146.7360 N   0  0  0  0  0  2  0  0  0  0  0  0
  190.7590  177.4100  145.8920 C   0  0  1  0  0  3  0  0  0  0  0  0
  188.4730  177.8510  145.7910 C   0  0  2  0  0  3  0  0  0  0  0  0
  190.0380  176.6410  146.9800 C   0  0  0  0  0  2  0  0  0  0  0  0
  187.3160  177.6470  144.8080 C   0  0  0  0  0  2  0  0  0  0  0  0
  186.0080  178.2520  145.3000 C   0  0  0  0  0  2  0  0  0  0  0  0
  185.0100  178.1950  144.2460 N   0  0  0  0  0  0  0  0  0  0  0  0
  182.8390  179.1890  143.5700 C   0  0  0  0  0  2  0  0  0  0  0  0
  184.5710  179.0020  141.9410 C   0  0  0  0  0  2  0  0  0  0  0  0
  183.2520  178.5080  142.3410 N   0  0  0  0  0  2  0  0  0  0  0  0
  185.6060  178.8180  143.0630 C   0  0  0  0  0  2  0  0  0  0  0  0
  183.8780  179.0130  144.6880 C   0  0  0  0  0  2  0  0  0  0  0  0
  187.1360  177.2880  138.1610 N   0  0  0  0  0  2  0  0  0  0  0  0
  184.0290  176.8850  137.9730 N   0  0  0  0  0  0  0  0  0  0  0  0
  185.6820  177.0990  136.2400 C   0  0  0  0  0  2  0  0  0  0  0  0
  184.8450  178.0510  138.2680 C   0  0  0  0  0  2  0  0  0  0  0  0
  186.0870  177.9610  137.4110 C   0  0  1  0  0  3  0  0  0  0  0  0
  184.3040  176.5660  136.5800 C   0  0  0  0  0  2  0  0  0  0  0  0
  182.6390  177.3050  138.0580 C   0  0  0  0  0  2  0  0  0  0  0  0
  181.4360  178.7600  139.5180 O   0  0  0  0  0  1  0  0  0  0  0  0
  182.5480  178.6880  138.6800 C   0  0  0  0  0  2  0  0  0  0  0  0
  1  5  1  0  0  0  0
  2 11  1  0  0  0  0
  2 13  1  0  0  0  0
  3 16  1  1  0  0  0
  4  7  1  0  0  0  0
  5  9  1  0  0  0  0
  6  1  1  0  0  0  0
  7 11  2  0  0  0  0
  7  9  1  0  0  0  0
  8  1  2  0  0  0  0
  8  4  1  0  0  0  0
 10  3  1  0  0  0  0
 11 10  1  0  0  0  0
 12  2  2  0  0  0  0
 13 35  1  1  0  0  0
 13 14  1  0  0  0  0
 14  3  1  0  0  0  0
 15  4  2  0  0  0  0
 15 12  1  0  0  0  0
 16 18  2  0  0  0  0
 16 17  1  0  0  0  0
 17 19  1  0  0  0  0
 19 20  1  6  0  0  0
 21 19  1  6  0  0  0
 21 22  1  0  0  0  0
 21 24  1  0  0  0  0
 22 25  1  0  0  0  0
 22 24  1  0  0  0  0
 23 26  1  0  0  0  0
 24 26  1  0  0  0  0
 25 23  1  0  0  0  0
 27 28  1  0  0  0  0
 27 25  1  0  0  0  0
 29 34  1  0  0  0  0
 29 28  1  0  0  0  0
 30 34  1  0  0  0  0
 31 32  1  0  0  0  0
 31 33  1  0  0  0  0
 32 30  1  0  0  0  0
 33 29  1  0  0  0  0
 36 41  1  0  0  0  0
 36 38  1  0  0  0  0
 37 40  1  0  0  0  0
 37 39  1  0  0  0  0
 39 35  1  0  0  0  0
 39 38  1  0  0  0  0
 40 36  1  0  0  0  0
 41 43  1  0  0  0  0
 43 42  1  0  0  0  0
M  END
>  <MODEL>
8

>  <REMARK>
 VINA RESULT:      -7.5      3.652      8.236
  Name = 
  10 active torsions:
  status: ('A' for Active; 'I' for Inactive)
    1  A    between atoms: N_1  and  C_34
    2  A    between atoms: N_1  and  C_35
    3  A    between atoms: C_2  and  C_13
    4  A    between atoms: C_3  and  C_12
    5  A    between atoms: N_6  and  C_12
    6  A    between atoms: C_9  and  N_19
    7  A    between atoms: C_9  and  C_37
    8  A    between atoms: N_11  and  C_14
    9  A    between atoms: C_14  and  C_41
   10  A    between atoms: C_22  and  C_41
                            x       y       z     vdW  Elec       q    Type
                         _______ _______ _______ _____ _____    ______ ____

>  <TORSDO>
F 10

$$$$
=
 OpenBabel10262422183D

 43 49  0  0  1  0  0  0  0  0999 V2000
  191.0340  177.9080  144.1930 C   0  0  0  0  0  0  0  0  0  0  0  0
  190.7020  177.0950  139.1840 C   0  0  0  0  0  0  0  0  0  0  0  0
  187.9250  177.3840  138.4170 C   0  0  2  0  0  3  0  0  0  0  0  0
  191.5090  177.5120  141.8330 C   0  0  0  0  0  0  0  0  0  0  0  0
  189.5650  177.7320  143.9150 C   0  0  0  0  0  2  0  0  0  0  0  0
  191.4520  178.1290  145.4630 F   0  0  0  0  0  0  0  0  0  0  0  0
  190.1570  177.6920  141.4800 C   0  0  0  0  0  0  0  0  0  0  0  0
  191.9370  177.7380  143.2230 C   0  0  0  0  0  3  0  0  0  0  0  0
  189.1910  178.2140  142.5110 C   0  0  0  0  0  2  0  0  0  0  0  0
  188.3900  177.6970  139.7650 N   0  0  0  0  0  2  0  0  0  0  0  0
  189.7520  177.4770  140.1530 C   0  0  0  0  0  0  0  0  0  0  0  0
  192.0400  176.9170  139.5500 C   0  0  0  0  0  3  0  0  0  0  0  0
  190.2870  176.8440  137.7600 C   0  0  2  0  0  3  0  0  0  0  0  0
  189.0320  177.6470  137.3990 C   0  0  0  0  0  2  0  0  0  0  0  0
  192.4430  177.1280  140.8690 C   0  0  0  0  0  3  0  0  0  0  0  0
  186.7050  178.1740  138.0820 C   0  0  0  0  0  0  0  0  0  0  0  0
  185.5110  178.0260  138.8590 N   0  0  0  0  0  2  0  0  0  0  0  0
  186.7500  179.0030  137.1340 O   0  0  0  0  0  0  0  0  0  0  0  0
  184.2920  178.7790  138.5950 C   0  0  1  0  0  3  0  0  0  0  0  0
  183.3700  177.9730  137.6970 C   0  0  0  0  0  1  0  0  0  0  0  0
  183.5830  179.0610  139.9070 C   0  0  2  0  0  3  0  0  0  0  0  0
  183.7030  177.8840  140.7930 N   0  0  2  0  0  0  0  0  0  0  0  0
  182.1920  179.0040  142.3090 N   0  0  0  0  0  2  0  0  0  0  0  0
  182.4490  178.1580  140.0760 C   0  0  1  0  0  3  0  0  0  0  0  0
  183.4310  178.2450  142.1890 C   0  0  2  0  0  3  0  0  0  0  0  0
  181.4720  178.7460  141.0740 C   0  0  0  0  0  2  0  0  0  0  0  0
  184.6180  178.9360  142.8650 C   0  0  0  0  0  2  0  0  0  0  0  0
  185.6630  177.9530  143.3750 C   0  0  0  0  0  2  0  0  0  0  0  0
  186.1130  178.3520  144.6970 N   0  0  0  0  0  0  0  0  0  0  0  0
  185.2580  178.8660  146.9690 C   0  0  0  0  0  2  0  0  0  0  0  0
  187.1520  177.4320  146.7540 C   0  0  0  0  0  2  0  0  0  0  0  0
  186.6980  178.7470  147.2110 N   0  0  0  0  0  2  0  0  0  0  0  0
  186.8070  177.1990  145.2740 C   0  0  0  0  0  2  0  0  0  0  0  0
  184.9130  178.6230  145.4910 C   0  0  0  0  0  2  0  0  0  0  0  0
  190.0470  175.4210  137.5620 N   0  0  0  0  0  2  0  0  0  0  0  0
  192.9410  174.2260  137.3440 N   0  0  0  0  0  0  0  0  0  0  0  0
  191.9110  176.0440  136.1560 C   0  0  0  0  0  2  0  0  0  0  0  0
  191.6570  173.7680  136.8440 C   0  0  0  0  0  2  0  0  0  0  0  0
  190.8660  174.9910  136.4410 C   0  0  1  0  0  3  0  0  0  0  0  0
  193.2300  175.4470  136.6050 C   0  0  0  0  0  2  0  0  0  0  0  0
  193.9300  173.2350  136.9520 C   0  0  0  0  0  2  0  0  0  0  0  0
  195.4190  172.6340  138.7180 O   0  0  0  0  0  1  0  0  0  0  0  0
  195.2520  173.5120  137.6470 C   0  0  0  0  0  2  0  0  0  0  0  0
  1  6  1  0  0  0  0
  2 12  2  0  0  0  0
  2 11  1  0  0  0  0
  3 16  1  6  0  0  0
  3 10  1  0  0  0  0
  4  8  1  0  0  0  0
  5  1  1  0  0  0  0
  7  4  1  0  0  0  0
  7  9  1  0  0  0  0
  8  1  2  0  0  0  0
  9  5  1  0  0  0  0
 10 11  1  0  0  0  0
 11  7  2  0  0  0  0
 12 15  1  0  0  0  0
 13 35  1  1  0  0  0
 13  2  1  0  0  0  0
 14 13  1  0  0  0  0
 14  3  1  0  0  0  0
 15  4  2  0  0  0  0
 16 17  1  0  0  0  0
 18 16  2  0  0  0  0
 19 20  1  6  0  0  0
 19 17  1  0  0  0  0
 21 19  1  6  0  0  0
 21 24  1  0  0  0  0
 21 22  1  0  0  0  0
 22 25  1  0  0  0  0
 24 22  1  0  0  0  0
 24 26  1  0  0  0  0
 25 23  1  0  0  0  0
 25 27  1  0  0  0  0
 26 23  1  0  0  0  0
 27 28  1  0  0  0  0
 28 29  1  0  0  0  0
 29 33  1  0  0  0  0
 29 34  1  0  0  0  0
 30 32  1  0  0  0  0
 31 32  1  0  0  0  0
 33 31  1  0  0  0  0
 34 30  1  0  0  0  0
 37 39  1  0  0  0  0
 37 40  1  0  0  0  0
 38 36  1  0  0  0  0
 39 38  1  0  0  0  0
 39 35  1  0  0  0  0
 40 36  1  0  0  0  0
 41 36  1  0  0  0  0
 41 43  1  0  0  0  0
 43 42  1  0  0  0  0
M  END
>  <MODEL>
9

>  <REMARK>
 VINA RESULT:      -7.5      3.086      9.031
  Name = 
  10 active torsions:
  status: ('A' for Active; 'I' for Inactive)
    1  A    between atoms: N_1  and  C_34
    2  A    between atoms: N_1  and  C_35
    3  A    between atoms: C_2  and  C_13
    4  A    between atoms: C_3  and  C_12
    5  A    between atoms: N_6  and  C_12
    6  A    between atoms: C_9  and  N_19
    7  A    between atoms: C_9  and  C_37
    8  A    between atoms: N_11  and  C_14
    9  A    between atoms: C_14  and  C_41
   10  A    between atoms: C_22  and  C_41
                            x       y       z     vdW  Elec       q    Type
                         _______ _______ _______ _____ _____    ______ ____

>  <TORSDO>
F 10

$$$$
