=
 OpenBabel10262423333D

 34 39  0  0  0  0  0  0  0  0999 V2000
  186.6690  177.9250  143.8480 C   0  0  0  0  0  0  0  0  0  0  0  0
  188.0220  177.7480  147.5620 C   0  0  0  0  0  3  0  0  0  0  0  0
  185.9030  178.1790  146.6000 C   0  0  0  0  0  3  0  0  0  0  0  0
  186.1730  178.5650  141.5080 C   0  0  0  0  0  0  0  0  0  0  0  0
  187.0350  178.0620  142.4190 C   0  0  0  0  0  3  0  0  0  0  0  0
  184.4590  178.6640  143.2720 N   0  0  0  0  0  0  0  0  0  0  0  0
  183.4540  179.2200  144.1280 C   0  0  0  0  0  3  0  0  0  0  0  0
  184.8230  179.1220  141.9330 C   0  0  0  0  0  2  0  0  0  0  0  0
  184.9920  178.2890  145.5060 N   0  0  0  0  0  0  0  0  0  0  0  0
  185.4120  178.1650  144.1780 C   0  0  0  0  0  0  0  0  0  0  0  0
  183.7570  179.0000  145.4190 C   0  0  0  0  0  3  0  0  0  0  0  0
  189.2890  177.3750  147.6920 C   0  0  0  0  0  3  0  0  0  0  0  0
  190.2570  176.9270  146.6810 C   0  0  0  0  0  0  0  0  0  0  0  0
  190.0430  176.8880  145.3660 C   0  0  0  0  0  3  0  0  0  0  0  0
  187.1830  177.8350  146.3650 C   0  0  0  0  0  0  0  0  0  0  0  0
  188.8610  177.2410  144.5740 C   0  0  0  0  0  3  0  0  0  0  0  0
  187.6430  177.6420  144.9430 C   0  0  0  0  0  0  0  0  0  0  0  0
  191.5820  176.5030  147.1780 C   0  0  0  0  0  0  0  0  0  0  0  0
  192.2810  175.4910  146.5290 O   0  0  0  0  0  0  0  0  0  0  0  0
  192.0950  177.0480  148.1920 O   0  0  0  0  0  1  0  0  0  0  0  0
  186.5410  178.7010  140.1260 N   0  0  0  0  0  2  0  0  0  0  0  0
  188.9280  177.6000  137.4440 C   0  0  0  0  0  3  0  0  0  0  0  0
  188.7780  177.7410  140.2200 C   0  0  0  0  0  3  0  0  0  0  0  0
  192.4440  176.4230  137.8070 C   0  0  0  0  0  0  0  0  0  0  0  0
  193.0350  176.7640  139.1200 C   0  0  0  0  0  0  0  0  0  0  0  0
  191.1700  176.6320  137.4450 C   0  0  0  0  0  3  0  0  0  0  0  0
  194.2300  176.4420  139.3500 O   0  0  0  0  0  0  0  0  0  0  0  0
  190.0200  177.1720  138.2070 C   0  0  0  0  0  0  0  0  0  0  0  0
  193.2810  175.8510  136.8580 O   0  0  0  0  0  1  0  0  0  0  0  0
  191.0220  176.7590  140.5120 C   0  0  0  0  0  2  0  0  0  0  0  0
  189.9350  177.2360  139.6160 C   0  0  0  0  0  0  0  0  0  0  0  0
  192.2960  177.4980  140.1840 C   0  0  0  0  0  2  0  0  0  0  0  0
  187.6960  178.1780  139.4520 C   0  0  0  0  0  0  0  0  0  0  0  0
  187.7800  178.1040  138.0570 C   0  0  0  0  0  3  0  0  0  0  0  0
  1 10  2  0  0  0  0
  1 17  1  0  0  0  0
  2 12  2  0  0  0  0
  4  8  1  0  0  0  0
  4  5  2  0  0  0  0
  5  1  1  0  0  0  0
  6  7  1  0  0  0  0
  6 10  1  0  0  0  0
  7 11  2  0  0  0  0
  8  6  1  0  0  0  0
  9  3  1  0  0  0  0
 10  9  1  0  0  0  0
 11  9  1  0  0  0  0
 13 18  1  0  0  0  0
 13 12  1  0  0  0  0
 14 13  2  0  0  0  0
 15  3  2  0  0  0  0
 15  2  1  0  0  0  0
 16 17  2  0  0  0  0
 16 14  1  0  0  0  0
 17 15  1  0  0  0  0
 18 20  1  0  0  0  0
 19 18  2  0  0  0  0
 21  4  1  0  0  0  0
 22 34  2  0  0  0  0
 22 28  1  0  0  0  0
 24 25  1  0  0  0  0
 25 27  2  0  0  0  0
 25 32  1  0  0  0  0
 26 24  2  0  0  0  0
 26 28  1  0  0  0  0
 28 31  2  0  0  0  0
 29 24  1  0  0  0  0
 31 23  1  0  0  0  0
 31 30  1  0  0  0  0
 32 30  1  0  0  0  0
 33 21  1  0  0  0  0
 33 23  2  0  0  0  0
 34 33  1  0  0  0  0
M  END
>  <MODEL>
1

>  <REMARK>
 VINA RESULT:     -12.5      0.000      0.000
  Name = 
  3 active torsions:
  status: ('A' for Active; 'I' for Inactive)
    1  A    between atoms: C_3  and  C_25
    2  A    between atoms: C_8  and  N_18
    3  A    between atoms: N_18  and  C_30
                            x       y       z     vdW  Elec       q    Type
                         _______ _______ _______ _____ _____    ______ ____

>  <TORSDO>
F 3

$$$$
=
 OpenBabel10262423333D

 34 39  0  0  0  0  0  0  0  0999 V2000
  187.2510  177.8340  143.6710 C   0  0  0  0  0  0  0  0  0  0  0  0
  188.1810  177.8060  147.5170 C   0  0  0  0  0  3  0  0  0  0  0  0
  186.1880  178.2140  146.3080 C   0  0  0  0  0  3  0  0  0  0  0  0
  187.0260  178.3780  141.2660 C   0  0  0  0  0  0  0  0  0  0  0  0
  187.7740  177.9070  142.2880 C   0  0  0  0  0  3  0  0  0  0  0  0
  185.1290  178.5680  142.8230 N   0  0  0  0  0  0  0  0  0  0  0  0
  184.0430  179.1690  143.5380 C   0  0  0  0  0  3  0  0  0  0  0  0
  185.6450  178.9650  141.5150 C   0  0  0  0  0  2  0  0  0  0  0  0
  185.4050  178.2850  145.1160 N   0  0  0  0  0  0  0  0  0  0  0  0
  185.9690  178.1000  143.8490 C   0  0  0  0  0  0  0  0  0  0  0  0
  184.1980  179.0020  144.8630 C   0  0  0  0  0  3  0  0  0  0  0  0
  189.4220  177.4270  147.8020 C   0  0  0  0  0  3  0  0  0  0  0  0
  190.4890  176.9270  146.9250 C   0  0  0  0  0  0  0  0  0  0  0  0
  190.4210  176.8340  145.5970 C   0  0  0  0  0  3  0  0  0  0  0  0
  187.4810  177.8480  146.2320 C   0  0  0  0  0  0  0  0  0  0  0  0
  189.3390  177.1640  144.6650 C   0  0  0  0  0  3  0  0  0  0  0  0
  188.0930  177.5900  144.8790 C   0  0  0  0  0  0  0  0  0  0  0  0
  191.7450  176.5130  147.5830 C   0  0  0  0  0  0  0  0  0  0  0  0
  192.4020  175.3590  147.1730 O   0  0  0  0  0  0  0  0  0  0  0  0
  192.2370  177.1960  148.5230 O   0  0  0  0  0  1  0  0  0  0  0  0
  187.5470  178.4520  139.9300 N   0  0  0  0  0  2  0  0  0  0  0  0
  190.9450  177.0190  139.2200 C   0  0  0  0  0  3  0  0  0  0  0  0
  188.3300  176.8370  138.2820 C   0  0  0  0  0  3  0  0  0  0  0  0
  191.8700  174.3190  136.8260 C   0  0  0  0  0  0  0  0  0  0  0  0
  190.7080  173.5210  136.3780 C   0  0  0  0  0  0  0  0  0  0  0  0
  191.8160  175.4110  137.6020 C   0  0  0  0  0  3  0  0  0  0  0  0
  190.9000  172.5590  135.5870 O   0  0  0  0  0  0  0  0  0  0  0  0
  190.6600  176.1460  138.1640 C   0  0  0  0  0  0  0  0  0  0  0  0
  193.1310  173.8960  136.4230 O   0  0  0  0  0  1  0  0  0  0  0  0
  188.9410  175.2060  136.5360 C   0  0  0  0  0  2  0  0  0  0  0  0
  189.3330  176.0660  137.6850 C   0  0  0  0  0  0  0  0  0  0  0  0
  189.3150  173.7750  136.8360 C   0  0  0  0  0  2  0  0  0  0  0  0
  188.6190  177.6970  139.3440 C   0  0  0  0  0  0  0  0  0  0  0  0
  189.9370  177.7820  139.8100 C   0  0  0  0  0  3  0  0  0  0  0  0
  1 10  2  0  0  0  0
  1 17  1  0  0  0  0
  2 12  2  0  0  0  0
  4  8  1  0  0  0  0
  4  5  2  0  0  0  0
  5  1  1  0  0  0  0
  6  7  1  0  0  0  0
  6 10  1  0  0  0  0
  7 11  2  0  0  0  0
  8  6  1  0  0  0  0
  9  3  1  0  0  0  0
 10  9  1  0  0  0  0
 11  9  1  0  0  0  0
 13 18  1  0  0  0  0
 13 12  1  0  0  0  0
 14 13  2  0  0  0  0
 15  3  2  0  0  0  0
 15  2  1  0  0  0  0
 16 17  2  0  0  0  0
 16 14  1  0  0  0  0
 17 15  1  0  0  0  0
 18 20  1  0  0  0  0
 19 18  2  0  0  0  0
 21  4  1  0  0  0  0
 22 34  1  0  0  0  0
 23 33  1  0  0  0  0
 24 26  2  0  0  0  0
 25 24  1  0  0  0  0
 25 32  1  0  0  0  0
 26 28  1  0  0  0  0
 27 25  2  0  0  0  0
 28 22  2  0  0  0  0
 29 24  1  0  0  0  0
 30 32  1  0  0  0  0
 30 31  1  0  0  0  0
 31 28  1  0  0  0  0
 31 23  2  0  0  0  0
 33 34  2  0  0  0  0
 33 21  1  0  0  0  0
M  END
>  <MODEL>
2

>  <REMARK>
 VINA RESULT:     -12.0      1.472      2.226
  Name = 
  3 active torsions:
  status: ('A' for Active; 'I' for Inactive)
    1  A    between atoms: C_3  and  C_25
    2  A    between atoms: C_8  and  N_18
    3  A    between atoms: N_18  and  C_30
                            x       y       z     vdW  Elec       q    Type
                         _______ _______ _______ _____ _____    ______ ____

>  <TORSDO>
F 3

$$$$
=
 OpenBabel10262423333D

 34 39  0  0  0  0  0  0  0  0999 V2000
  187.5920  177.7140  145.0850 C   0  0  0  0  0  0  0  0  0  0  0  0
  191.2310  177.2290  143.6110 C   0  0  0  0  0  3  0  0  0  0  0  0
  190.3430  177.3380  145.8020 C   0  0  0  0  0  3  0  0  0  0  0  0
  185.3900  178.6070  145.7810 C   0  0  0  0  0  0  0  0  0  0  0  0
  186.2080  178.1620  144.8030 C   0  0  0  0  0  3  0  0  0  0  0  0
  187.1360  178.0370  147.4200 N   0  0  0  0  0  0  0  0  0  0  0  0
  188.0670  178.2110  148.4940 C   0  0  0  0  0  3  0  0  0  0  0  0
  185.8940  178.7770  147.2050 C   0  0  0  0  0  2  0  0  0  0  0  0
  189.2780  177.4250  146.7490 N   0  0  0  0  0  0  0  0  0  0  0  0
  187.9500  177.6160  146.3540 C   0  0  0  0  0  0  0  0  0  0  0  0
  189.3050  177.8520  148.1100 C   0  0  0  0  0  3  0  0  0  0  0  0
  191.3030  177.1260  142.2890 C   0  0  0  0  0  3  0  0  0  0  0  0
  190.2370  177.0730  141.2800 C   0  0  0  0  0  0  0  0  0  0  0  0
  188.9330  177.2050  141.5210 C   0  0  0  0  0  3  0  0  0  0  0  0
  190.0610  177.3260  144.4860 C   0  0  0  0  0  0  0  0  0  0  0  0
  188.2050  177.4170  142.7760 C   0  0  0  0  0  3  0  0  0  0  0  0
  188.6290  177.4750  144.0400 C   0  0  0  0  0  0  0  0  0  0  0  0
  190.6630  176.8730  139.8790 C   0  0  0  0  0  0  0  0  0  0  0  0
  189.7300  176.5330  138.9060 O   0  0  0  0  0  0  0  0  0  0  0  0
  191.8720  177.0070  139.5470 O   0  0  0  0  0  1  0  0  0  0  0  0
  184.0520  179.0470  145.4950 N   0  0  0  0  0  2  0  0  0  0  0  0
  181.2010  178.7770  143.0650 C   0  0  0  0  0  3  0  0  0  0  0  0
  183.9830  178.6700  143.0890 C   0  0  0  0  0  3  0  0  0  0  0  0
  181.3370  178.4900  139.3530 C   0  0  0  0  0  0  0  0  0  0  0  0
  182.6520  178.8690  138.7910 C   0  0  0  0  0  0  0  0  0  0  0  0
  181.0400  178.4010  140.6580 C   0  0  0  0  0  3  0  0  0  0  0  0
  182.8110  178.8390  137.5420 O   0  0  0  0  0  0  0  0  0  0  0  0
  181.8850  178.5790  141.8600 C   0  0  0  0  0  0  0  0  0  0  0  0
  180.3120  178.2160  138.4560 O   0  0  0  0  0  1  0  0  0  0  0  0
  184.1090  178.2590  140.6600 C   0  0  0  0  0  2  0  0  0  0  0  0
  183.2970  178.5150  141.8790 C   0  0  0  0  0  0  0  0  0  0  0  0
  183.8000  179.3150  139.6270 C   0  0  0  0  0  2  0  0  0  0  0  0
  183.2950  178.8790  144.2860 C   0  0  0  0  0  0  0  0  0  0  0  0
  181.8960  178.9320  144.2650 C   0  0  0  0  0  3  0  0  0  0  0  0
  1 10  2  0  0  0  0
  2 15  1  0  0  0  0
  3  9  1  0  0  0  0
  4  8  1  0  0  0  0
  5  1  1  0  0  0  0
  5  4  2  0  0  0  0
  6  7  1  0  0  0  0
  8  6  1  0  0  0  0
  9 11  1  0  0  0  0
 10  9  1  0  0  0  0
 10  6  1  0  0  0  0
 11  7  2  0  0  0  0
 12  2  2  0  0  0  0
 13 14  2  0  0  0  0
 13 12  1  0  0  0  0
 14 16  1  0  0  0  0
 15  3  2  0  0  0  0
 16 17  2  0  0  0  0
 17 15  1  0  0  0  0
 17  1  1  0  0  0  0
 18 13  1  0  0  0  0
 19 18  2  0  0  0  0
 20 18  1  0  0  0  0
 21  4  1  0  0  0  0
 22 34  1  0  0  0  0
 23 33  1  0  0  0  0
 24 26  2  0  0  0  0
 25 24  1  0  0  0  0
 25 32  1  0  0  0  0
 26 28  1  0  0  0  0
 27 25  2  0  0  0  0
 28 31  1  0  0  0  0
 28 22  2  0  0  0  0
 29 24  1  0  0  0  0
 30 31  1  0  0  0  0
 31 23  2  0  0  0  0
 32 30  1  0  0  0  0
 33 21  1  0  0  0  0
 34 33  2  0  0  0  0
M  END
>  <MODEL>
3

>  <REMARK>
 VINA RESULT:     -11.8      3.641      7.158
  Name = 
  3 active torsions:
  status: ('A' for Active; 'I' for Inactive)
    1  A    between atoms: C_3  and  C_25
    2  A    between atoms: C_8  and  N_18
    3  A    between atoms: N_18  and  C_30
                            x       y       z     vdW  Elec       q    Type
                         _______ _______ _______ _____ _____    ______ ____

>  <TORSDO>
F 3

$$$$
=
 OpenBabel10262423333D

 34 39  0  0  0  0  0  0  0  0999 V2000
  185.2610  178.2470  142.7750 C   0  0  0  0  0  0  0  0  0  0  0  0
  185.2990  178.5900  146.7160 C   0  0  0  0  0  3  0  0  0  0  0  0
  183.6090  178.7410  145.0670 C   0  0  0  0  0  3  0  0  0  0  0  0
  185.5520  178.5830  140.3390 C   0  0  0  0  0  0  0  0  0  0  0  0
  186.0780  178.2540  141.5390 C   0  0  0  0  0  3  0  0  0  0  0  0
  183.3440  178.7380  141.4170 N   0  0  0  0  0  0  0  0  0  0  0  0
  182.0900  179.3030  141.8160 C   0  0  0  0  0  3  0  0  0  0  0  0
  184.1180  179.0730  140.2220 C   0  0  0  0  0  2  0  0  0  0  0  0
  183.1130  178.6560  143.7310 N   0  0  0  0  0  0  0  0  0  0  0  0
  183.9580  178.4200  142.6410 C   0  0  0  0  0  0  0  0  0  0  0  0
  181.9520  179.2510  143.1520 C   0  0  0  0  0  3  0  0  0  0  0  0
  186.4640  178.3370  147.3010 C   0  0  0  0  0  3  0  0  0  0  0  0
  187.7300  177.8590  146.7300 C   0  0  0  0  0  0  0  0  0  0  0  0
  187.9700  177.6580  145.4340 C   0  0  0  0  0  3  0  0  0  0  0  0
  184.9060  178.4760  145.3100 C   0  0  0  0  0  0  0  0  0  0  0  0
  187.1080  177.8260  144.2610 C   0  0  0  0  0  3  0  0  0  0  0  0
  185.8230  178.1650  144.1550 C   0  0  0  0  0  0  0  0  0  0  0  0
  188.8280  177.6000  147.6840 C   0  0  0  0  0  0  0  0  0  0  0  0
  188.8430  178.2330  148.9220 O   0  0  0  0  0  1  0  0  0  0  0  0
  189.7640  176.8070  147.3920 O   0  0  0  0  0  0  0  0  0  0  0  0
  186.3560  178.5950  139.1490 N   0  0  0  0  0  2  0  0  0  0  0  0
  189.9890  177.7000  139.4690 C   0  0  0  0  0  3  0  0  0  0  0  0
  187.7730  177.0410  137.9190 C   0  0  0  0  0  3  0  0  0  0  0  0
  191.8970  175.0600  137.6610 C   0  0  0  0  0  0  0  0  0  0  0  0
  191.0230  174.0590  137.0110 C   0  0  0  0  0  0  0  0  0  0  0  0
  191.4810  176.1700  138.2890 C   0  0  0  0  0  3  0  0  0  0  0  0
  191.5540  173.0990  136.3920 O   0  0  0  0  0  0  0  0  0  0  0  0
  190.1250  176.7360  138.4640 C   0  0  0  0  0  0  0  0  0  0  0  0
  193.2660  174.8280  137.6360 O   0  0  0  0  0  1  0  0  0  0  0  0
  189.0550  175.4390  136.5510 C   0  0  0  0  0  2  0  0  0  0  0  0
  188.9990  176.4130  137.6730 C   0  0  0  0  0  0  0  0  0  0  0  0
  189.5360  174.1070  137.0730 C   0  0  0  0  0  2  0  0  0  0  0  0
  187.6420  177.9940  138.9310 C   0  0  0  0  0  0  0  0  0  0  0  0
  188.7610  178.3190  139.7070 C   0  0  0  0  0  3  0  0  0  0  0  0
  1 17  1  0  0  0  0
  2 12  2  0  0  0  0
  3 15  2  0  0  0  0
  4  5  2  0  0  0  0
  5  1  1  0  0  0  0
  6  7  1  0  0  0  0
  6 10  1  0  0  0  0
  7 11  2  0  0  0  0
  8  4  1  0  0  0  0
  8  6  1  0  0  0  0
  9  3  1  0  0  0  0
 10  1  2  0  0  0  0
 10  9  1  0  0  0  0
 11  9  1  0  0  0  0
 13 12  1  0  0  0  0
 13 18  1  0  0  0  0
 14 13  2  0  0  0  0
 15  2  1  0  0  0  0
 16 14  1  0  0  0  0
 17 16  2  0  0  0  0
 17 15  1  0  0  0  0
 18 19  1  0  0  0  0
 20 18  2  0  0  0  0
 21  4  1  0  0  0  0
 22 34  1  0  0  0  0
 23 33  1  0  0  0  0
 24 26  2  0  0  0  0
 25 32  1  0  0  0  0
 25 24  1  0  0  0  0
 26 28  1  0  0  0  0
 27 25  2  0  0  0  0
 28 22  2  0  0  0  0
 29 24  1  0  0  0  0
 30 32  1  0  0  0  0
 30 31  1  0  0  0  0
 31 23  2  0  0  0  0
 31 28  1  0  0  0  0
 33 21  1  0  0  0  0
 33 34  2  0  0  0  0
M  END
>  <MODEL>
4

>  <REMARK>
 VINA RESULT:     -11.4      1.640      2.739
  Name = 
  3 active torsions:
  status: ('A' for Active; 'I' for Inactive)
    1  A    between atoms: C_3  and  C_25
    2  A    between atoms: C_8  and  N_18
    3  A    between atoms: N_18  and  C_30
                            x       y       z     vdW  Elec       q    Type
                         _______ _______ _______ _____ _____    ______ ____

>  <TORSDO>
F 3

$$$$
=
 OpenBabel10262423333D

 34 39  0  0  0  0  0  0  0  0999 V2000
  185.7070  178.2080  142.8330 C   0  0  0  0  0  0  0  0  0  0  0  0
  185.6740  178.5060  146.7780 C   0  0  0  0  0  3  0  0  0  0  0  0
  184.0040  178.6110  145.1050 C   0  0  0  0  0  3  0  0  0  0  0  0
  186.0210  178.5840  140.4060 C   0  0  0  0  0  0  0  0  0  0  0  0
  186.5410  178.2620  141.6100 C   0  0  0  0  0  3  0  0  0  0  0  0
  183.7930  178.6420  141.4510 N   0  0  0  0  0  0  0  0  0  0  0  0
  182.5120  179.1530  141.8380 C   0  0  0  0  0  3  0  0  0  0  0  0
  184.5700  179.0200  140.2730 C   0  0  0  0  0  2  0  0  0  0  0  0
  183.5310  178.5230  143.7610 N   0  0  0  0  0  0  0  0  0  0  0  0
  184.4000  178.3330  142.6810 C   0  0  0  0  0  0  0  0  0  0  0  0
  182.3560  179.0800  143.1720 C   0  0  0  0  0  3  0  0  0  0  0  0
  186.8390  178.2910  147.3780 C   0  0  0  0  0  3  0  0  0  0  0  0
  188.1310  177.8680  146.8210 C   0  0  0  0  0  0  0  0  0  0  0  0
  188.3980  177.6920  145.5270 C   0  0  0  0  0  3  0  0  0  0  0  0
  185.3060  178.3940  145.3650 C   0  0  0  0  0  0  0  0  0  0  0  0
  187.5470  177.8410  144.3420 C   0  0  0  0  0  3  0  0  0  0  0  0
  186.2510  178.1320  144.2210 C   0  0  0  0  0  0  0  0  0  0  0  0
  189.2240  177.6410  147.7880 C   0  0  0  0  0  0  0  0  0  0  0  0
  190.2640  176.7720  147.4770 O   0  0  0  0  0  0  0  0  0  0  0  0
  189.2300  178.2270  148.9050 O   0  0  0  0  0  1  0  0  0  0  0  0
  186.8410  178.6410  139.2280 N   0  0  0  0  0  2  0  0  0  0  0  0
  188.5400  175.8810  137.3310 C   0  0  0  0  0  3  0  0  0  0  0  0
  189.0860  177.7050  139.3620 C   0  0  0  0  0  3  0  0  0  0  0  0
  192.1020  174.8020  137.4990 C   0  0  0  0  0  0  0  0  0  0  0  0
  192.9810  175.8090  138.1330 C   0  0  0  0  0  0  0  0  0  0  0  0
  190.7670  174.8820  137.3990 C   0  0  0  0  0  3  0  0  0  0  0  0
  194.2150  175.5680  138.2210 O   0  0  0  0  0  0  0  0  0  0  0  0
  189.8150  175.8940  137.9090 C   0  0  0  0  0  0  0  0  0  0  0  0
  192.7070  173.6830  136.9420 O   0  0  0  0  0  1  0  0  0  0  0  0
  191.3890  176.8730  139.6560 C   0  0  0  0  0  2  0  0  0  0  0  0
  190.0830  176.8150  138.9470 C   0  0  0  0  0  0  0  0  0  0  0  0
  192.4890  177.1140  138.6520 C   0  0  0  0  0  2  0  0  0  0  0  0
  187.8200  177.6940  138.7730 C   0  0  0  0  0  0  0  0  0  0  0  0
  187.5540  176.7740  137.7510 C   0  0  0  0  0  3  0  0  0  0  0  0
  1 17  1  0  0  0  0
  2 12  2  0  0  0  0
  3 15  2  0  0  0  0
  4  5  2  0  0  0  0
  5  1  1  0  0  0  0
  6  7  1  0  0  0  0
  6 10  1  0  0  0  0
  7 11  2  0  0  0  0
  8  4  1  0  0  0  0
  8  6  1  0  0  0  0
  9  3  1  0  0  0  0
 10  1  2  0  0  0  0
 10  9  1  0  0  0  0
 11  9  1  0  0  0  0
 13 12  1  0  0  0  0
 13 18  1  0  0  0  0
 14 13  2  0  0  0  0
 15  2  1  0  0  0  0
 16 14  1  0  0  0  0
 17 16  2  0  0  0  0
 17 15  1  0  0  0  0
 18 20  1  0  0  0  0
 19 18  2  0  0  0  0
 21  4  1  0  0  0  0
 22 34  2  0  0  0  0
 22 28  1  0  0  0  0
 24 25  1  0  0  0  0
 25 27  2  0  0  0  0
 25 32  1  0  0  0  0
 26 24  2  0  0  0  0
 26 28  1  0  0  0  0
 28 31  2  0  0  0  0
 29 24  1  0  0  0  0
 31 23  1  0  0  0  0
 31 30  1  0  0  0  0
 32 30  1  0  0  0  0
 33 21  1  0  0  0  0
 33 23  2  0  0  0  0
 34 33  1  0  0  0  0
M  END
>  <MODEL>
5

>  <REMARK>
 VINA RESULT:     -11.3      1.382      1.901
  Name = 
  3 active torsions:
  status: ('A' for Active; 'I' for Inactive)
    1  A    between atoms: C_3  and  C_25
    2  A    between atoms: C_8  and  N_18
    3  A    between atoms: N_18  and  C_30
                            x       y       z     vdW  Elec       q    Type
                         _______ _______ _______ _____ _____    ______ ____

>  <TORSDO>
F 3

$$$$
=
 OpenBabel10262423333D

 34 39  0  0  0  0  0  0  0  0999 V2000
  188.7820  177.2930  143.8440 C   0  0  0  0  0  0  0  0  0  0  0  0
  191.8120  177.1890  141.3020 C   0  0  0  0  0  3  0  0  0  0  0  0
  191.6070  176.8420  143.6340 C   0  0  0  0  0  3  0  0  0  0  0  0
  186.9150  177.9820  145.3160 C   0  0  0  0  0  0  0  0  0  0  0  0
  187.3950  177.7570  144.0740 C   0  0  0  0  0  3  0  0  0  0  0  0
  189.0400  177.1360  146.2260 N   0  0  0  0  0  0  0  0  0  0  0  0
  190.2500  177.1140  146.9920 C   0  0  0  0  0  3  0  0  0  0  0  0
  187.8190  177.8770  146.5340 C   0  0  0  0  0  2  0  0  0  0  0  0
  190.8690  176.7160  144.8490 N   0  0  0  0  0  0  0  0  0  0  0  0
  189.4910  176.9530  144.9070 C   0  0  0  0  0  0  0  0  0  0  0  0
  191.3080  176.8660  146.1990 C   0  0  0  0  0  3  0  0  0  0  0  0
  191.4920  177.3520  140.0240 C   0  0  0  0  0  3  0  0  0  0  0  0
  190.1760  177.4760  139.3810 C   0  0  0  0  0  0  0  0  0  0  0  0
  189.0050  177.5300  140.0160 C   0  0  0  0  0  3  0  0  0  0  0  0
  190.9530  177.0850  142.4830 C   0  0  0  0  0  0  0  0  0  0  0  0
  188.6840  177.4730  141.4450 C   0  0  0  0  0  3  0  0  0  0  0  0
  189.4600  177.2880  142.5150 C   0  0  0  0  0  0  0  0  0  0  0  0
  190.1670  177.5680  137.9070 C   0  0  0  0  0  0  0  0  0  0  0  0
  189.4310  178.5620  137.2720 O   0  0  0  0  0  1  0  0  0  0  0  0
  190.8230  176.7500  137.2060 O   0  0  0  0  0  0  0  0  0  0  0  0
  185.5690  178.4400  145.5270 N   0  0  0  0  0  2  0  0  0  0  0  0
  182.2090  179.0560  143.9680 C   0  0  0  0  0  3  0  0  0  0  0  0
  184.7940  178.3450  143.2190 C   0  0  0  0  0  3  0  0  0  0  0  0
  181.3080  179.1410  140.3540 C   0  0  0  0  0  0  0  0  0  0  0  0
  182.4850  179.2830  139.4680 C   0  0  0  0  0  0  0  0  0  0  0  0
  181.3460  178.9820  141.6850 C   0  0  0  0  0  3  0  0  0  0  0  0
  182.3040  179.3520  138.2240 O   0  0  0  0  0  0  0  0  0  0  0  0
  182.4910  178.8440  142.6130 C   0  0  0  0  0  0  0  0  0  0  0  0
  180.0520  179.1940  139.7630 O   0  0  0  0  0  1  0  0  0  0  0  0
  184.1870  178.1770  140.8350 C   0  0  0  0  0  2  0  0  0  0  0  0
  183.8020  178.4720  142.2400 C   0  0  0  0  0  0  0  0  0  0  0  0
  183.8820  179.3780  139.9730 C   0  0  0  0  0  2  0  0  0  0  0  0
  184.5080  178.5700  144.5670 C   0  0  0  0  0  0  0  0  0  0  0  0
  183.2060  178.9280  144.9350 C   0  0  0  0  0  3  0  0  0  0  0  0
  1  5  1  0  0  0  0
  1 10  2  0  0  0  0
  2 15  1  0  0  0  0
  3  9  1  0  0  0  0
  4 21  1  0  0  0  0
  4  8  1  0  0  0  0
  5  4  2  0  0  0  0
  6  8  1  0  0  0  0
  6  7  1  0  0  0  0
  9 10  1  0  0  0  0
  9 11  1  0  0  0  0
 10  6  1  0  0  0  0
 11  7  2  0  0  0  0
 12  2  2  0  0  0  0
 13 14  2  0  0  0  0
 13 12  1  0  0  0  0
 14 16  1  0  0  0  0
 15 17  1  0  0  0  0
 15  3  2  0  0  0  0
 16 17  2  0  0  0  0
 17  1  1  0  0  0  0
 18 13  1  0  0  0  0
 19 18  1  0  0  0  0
 20 18  2  0  0  0  0
 22 34  1  0  0  0  0
 23 33  1  0  0  0  0
 24 26  2  0  0  0  0
 25 32  1  0  0  0  0
 25 24  1  0  0  0  0
 26 28  1  0  0  0  0
 27 25  2  0  0  0  0
 28 22  2  0  0  0  0
 29 24  1  0  0  0  0
 30 31  1  0  0  0  0
 31 28  1  0  0  0  0
 31 23  2  0  0  0  0
 32 30  1  0  0  0  0
 33 34  2  0  0  0  0
 33 21  1  0  0  0  0
M  END
>  <MODEL>
6

>  <REMARK>
 VINA RESULT:     -11.2      3.799      7.846
  Name = 
  3 active torsions:
  status: ('A' for Active; 'I' for Inactive)
    1  A    between atoms: C_3  and  C_25
    2  A    between atoms: C_8  and  N_18
    3  A    between atoms: N_18  and  C_30
                            x       y       z     vdW  Elec       q    Type
                         _______ _______ _______ _____ _____    ______ ____

>  <TORSDO>
F 3

$$$$
=
 OpenBabel10262423333D

 34 39  0  0  0  0  0  0  0  0999 V2000
  184.4740  178.8610  142.0410 C   0  0  0  0  0  0  0  0  0  0  0  0
  185.3200  177.9940  138.2740 C   0  0  0  0  0  3  0  0  0  0  0  0
  183.3170  178.4530  139.4480 C   0  0  0  0  0  3  0  0  0  0  0  0
  184.1080  178.7970  144.4890 C   0  0  0  0  0  0  0  0  0  0  0  0
  184.9590  178.8340  143.4400 C   0  0  0  0  0  3  0  0  0  0  0  0
  182.2380  179.0040  142.9020 N   0  0  0  0  0  0  0  0  0  0  0  0
  181.0060  178.6900  142.2410 C   0  0  0  0  0  3  0  0  0  0  0  0
  182.6080  178.6650  144.2740 C   0  0  0  0  0  2  0  0  0  0  0  0
  182.5670  178.8260  140.6050 N   0  0  0  0  0  0  0  0  0  0  0  0
  183.1740  179.0080  141.8530 C   0  0  0  0  0  0  0  0  0  0  0  0
  181.1940  178.5930  140.9130 C   0  0  0  0  0  3  0  0  0  0  0  0
  186.6120  177.8950  137.9870 C   0  0  0  0  0  3  0  0  0  0  0  0
  187.7940  178.1460  138.8230 C   0  0  0  0  0  0  0  0  0  0  0  0
  187.7750  178.4580  140.1190 C   0  0  0  0  0  3  0  0  0  0  0  0
  184.6590  178.3810  139.5220 C   0  0  0  0  0  0  0  0  0  0  0  0
  186.6550  178.6490  141.0440 C   0  0  0  0  0  3  0  0  0  0  0  0
  185.3360  178.6270  140.8460 C   0  0  0  0  0  0  0  0  0  0  0  0
  189.1090  178.0180  138.1620 C   0  0  0  0  0  0  0  0  0  0  0  0
  190.0470  177.1100  138.6400 O   0  0  0  0  0  1  0  0  0  0  0  0
  189.4000  178.7280  137.1610 O   0  0  0  0  0  0  0  0  0  0  0  0
  184.5890  178.7610  145.8420 N   0  0  0  0  0  2  0  0  0  0  0  0
  187.4870  177.9530  148.0900 C   0  0  0  0  0  3  0  0  0  0  0  0
  186.9230  178.2390  145.3780 C   0  0  0  0  0  3  0  0  0  0  0  0
  190.9300  176.8890  147.1440 C   0  0  0  0  0  0  0  0  0  0  0  0
  191.0260  176.4180  145.7450 C   0  0  0  0  0  0  0  0  0  0  0  0
  189.8410  177.4230  147.7170 C   0  0  0  0  0  3  0  0  0  0  0  0
  192.1360  176.0040  145.3180 O   0  0  0  0  0  0  0  0  0  0  0  0
  188.5100  177.7450  147.1570 C   0  0  0  0  0  0  0  0  0  0  0  0
  192.0580  176.7540  147.9440 O   0  0  0  0  0  1  0  0  0  0  0  0
  189.2500  177.7520  144.7200 C   0  0  0  0  0  2  0  0  0  0  0  0
  188.2200  177.9020  145.7820 C   0  0  0  0  0  0  0  0  0  0  0  0
  189.8650  176.3770  144.8150 C   0  0  0  0  0  2  0  0  0  0  0  0
  185.9050  178.4330  146.3150 C   0  0  0  0  0  0  0  0  0  0  0  0
  186.1970  178.2860  147.6760 C   0  0  0  0  0  3  0  0  0  0  0  0
  1  5  1  0  0  0  0
  2 15  1  0  0  0  0
  3 15  2  0  0  0  0
  3  9  1  0  0  0  0
  4 21  1  0  0  0  0
  5  4  2  0  0  0  0
  6  8  1  0  0  0  0
  7  6  1  0  0  0  0
  8  4  1  0  0  0  0
  9 11  1  0  0  0  0
  9 10  1  0  0  0  0
 10  1  2  0  0  0  0
 10  6  1  0  0  0  0
 11  7  2  0  0  0  0
 12  2  2  0  0  0  0
 12 13  1  0  0  0  0
 13 14  2  0  0  0  0
 14 16  1  0  0  0  0
 15 17  1  0  0  0  0
 17 16  2  0  0  0  0
 17  1  1  0  0  0  0
 18 19  1  0  0  0  0
 18 13  1  0  0  0  0
 20 18  2  0  0  0  0
 21 33  1  0  0  0  0
 23 31  2  0  0  0  0
 23 33  1  0  0  0  0
 24 26  2  0  0  0  0
 24 29  1  0  0  0  0
 25 24  1  0  0  0  0
 27 25  2  0  0  0  0
 28 26  1  0  0  0  0
 28 22  2  0  0  0  0
 30 32  1  0  0  0  0
 30 31  1  0  0  0  0
 31 28  1  0  0  0  0
 32 25  1  0  0  0  0
 33 34  2  0  0  0  0
 34 22  1  0  0  0  0
M  END
>  <MODEL>
7

>  <REMARK>
 VINA RESULT:     -11.1      2.051      7.236
  Name = 
  3 active torsions:
  status: ('A' for Active; 'I' for Inactive)
    1  A    between atoms: C_3  and  C_25
    2  A    between atoms: C_8  and  N_18
    3  A    between atoms: N_18  and  C_30
                            x       y       z     vdW  Elec       q    Type
                         _______ _______ _______ _____ _____    ______ ____

>  <TORSDO>
F 3

$$$$
=
 OpenBabel10262423333D

 34 39  0  0  0  0  0  0  0  0999 V2000
  188.5130  177.4880  143.0010 C   0  0  0  0  0  0  0  0  0  0  0  0
  188.7460  177.5930  146.9490 C   0  0  0  0  0  3  0  0  0  0  0  0
  187.0040  177.9670  145.3920 C   0  0  0  0  0  3  0  0  0  0  0  0
  188.7250  177.9450  140.5770 C   0  0  0  0  0  0  0  0  0  0  0  0
  189.2750  177.5080  141.7310 C   0  0  0  0  0  3  0  0  0  0  0  0
  186.5840  178.2010  141.7640 N   0  0  0  0  0  0  0  0  0  0  0  0
  185.3950  178.8330  142.2530 C   0  0  0  0  0  3  0  0  0  0  0  0
  187.3290  178.5470  140.5550 C   0  0  0  0  0  2  0  0  0  0  0  0
  186.4460  177.9990  144.0780 N   0  0  0  0  0  0  0  0  0  0  0  0
  187.2230  177.7660  142.9380 C   0  0  0  0  0  0  0  0  0  0  0  0
  185.3100  178.7120  143.5890 C   0  0  0  0  0  3  0  0  0  0  0  0
  189.9120  177.2190  147.4630 C   0  0  0  0  0  3  0  0  0  0  0  0
  191.1120  176.6830  146.8080 C   0  0  0  0  0  0  0  0  0  0  0  0
  191.2800  176.5420  145.4930 C   0  0  0  0  0  3  0  0  0  0  0  0
  188.2860  177.5930  145.5590 C   0  0  0  0  0  0  0  0  0  0  0  0
  190.3840  176.8430  144.3720 C   0  0  0  0  0  3  0  0  0  0  0  0
  189.1250  177.2830  144.3470 C   0  0  0  0  0  0  0  0  0  0  0  0
  192.2260  176.2870  147.6930 C   0  0  0  0  0  0  0  0  0  0  0  0
  192.4930  177.0120  148.8490 O   0  0  0  0  0  1  0  0  0  0  0  0
  192.9500  175.2920  147.4140 O   0  0  0  0  0  0  0  0  0  0  0  0
  189.4760  177.9690  139.3520 N   0  0  0  0  0  2  0  0  0  0  0  0
  189.8550  174.8650  137.2720 C   0  0  0  0  0  3  0  0  0  0  0  0
  191.4370  176.7490  138.5760 C   0  0  0  0  0  3  0  0  0  0  0  0
  192.9790  173.3270  135.9480 C   0  0  0  0  0  0  0  0  0  0  0  0
  194.1350  174.2500  135.9770 C   0  0  0  0  0  0  0  0  0  0  0  0
  191.7630  173.5800  136.4540 C   0  0  0  0  0  3  0  0  0  0  0  0
  195.2420  173.8520  135.5270 O   0  0  0  0  0  0  0  0  0  0  0  0
  191.2480  174.7490  137.2020 C   0  0  0  0  0  0  0  0  0  0  0  0
  193.1580  172.0960  135.3290 O   0  0  0  0  0  1  0  0  0  0  0  0
  193.5310  175.6350  137.9010 C   0  0  0  0  0  2  0  0  0  0  0  0
  192.0460  175.7020  137.8750 C   0  0  0  0  0  0  0  0  0  0  0  0
  194.0540  175.6460  136.4860 C   0  0  0  0  0  2  0  0  0  0  0  0
  190.0460  176.8650  138.6310 C   0  0  0  0  0  0  0  0  0  0  0  0
  189.2580  175.9140  137.9720 C   0  0  0  0  0  3  0  0  0  0  0  0
  1 17  1  0  0  0  0
  2 12  2  0  0  0  0
  3 15  2  0  0  0  0
  4  5  2  0  0  0  0
  5  1  1  0  0  0  0
  6  7  1  0  0  0  0
  6 10  1  0  0  0  0
  7 11  2  0  0  0  0
  8  4  1  0  0  0  0
  8  6  1  0  0  0  0
  9  3  1  0  0  0  0
 10  1  2  0  0  0  0
 10  9  1  0  0  0  0
 11  9  1  0  0  0  0
 13 12  1  0  0  0  0
 13 18  1  0  0  0  0
 14 13  2  0  0  0  0
 15  2  1  0  0  0  0
 16 14  1  0  0  0  0
 17 16  2  0  0  0  0
 17 15  1  0  0  0  0
 18 19  1  0  0  0  0
 20 18  2  0  0  0  0
 21  4  1  0  0  0  0
 22 34  1  0  0  0  0
 23 33  1  0  0  0  0
 24 25  1  0  0  0  0
 24 26  2  0  0  0  0
 25 32  1  0  0  0  0
 26 28  1  0  0  0  0
 27 25  2  0  0  0  0
 28 22  2  0  0  0  0
 28 31  1  0  0  0  0
 29 24  1  0  0  0  0
 31 30  1  0  0  0  0
 31 23  2  0  0  0  0
 32 30  1  0  0  0  0
 33 21  1  0  0  0  0
 34 33  2  0  0  0  0
M  END
>  <MODEL>
8

>  <REMARK>
 VINA RESULT:     -10.9      1.836      2.761
  Name = 
  3 active torsions:
  status: ('A' for Active; 'I' for Inactive)
    1  A    between atoms: C_3  and  C_25
    2  A    between atoms: C_8  and  N_18
    3  A    between atoms: N_18  and  C_30
                            x       y       z     vdW  Elec       q    Type
                         _______ _______ _______ _____ _____    ______ ____

>  <TORSDO>
F 3

$$$$
=
 OpenBabel10262423333D

 34 39  0  0  0  0  0  0  0  0999 V2000
  187.9060  177.8770  144.4620 C   0  0  0  0  0  0  0  0  0  0  0  0
  184.2340  178.4530  145.8190 C   0  0  0  0  0  3  0  0  0  0  0  0
  186.3530  178.2210  146.8480 C   0  0  0  0  0  3  0  0  0  0  0  0
  189.9730  176.9420  143.4710 C   0  0  0  0  0  0  0  0  0  0  0  0
  188.7290  177.4420  143.3090 C   0  0  0  0  0  3  0  0  0  0  0  0
  189.7910  177.4260  145.8780 N   0  0  0  0  0  0  0  0  0  0  0  0
  189.8090  177.1960  147.2910 C   0  0  0  0  0  3  0  0  0  0  0  0
  190.5420  176.6950  144.8590 C   0  0  0  0  0  2  0  0  0  0  0  0
  187.7730  178.0800  146.8360 N   0  0  0  0  0  0  0  0  0  0  0  0
  188.4900  177.9070  145.6470 C   0  0  0  0  0  0  0  0  0  0  0  0
  188.6460  177.5790  147.8480 C   0  0  0  0  0  3  0  0  0  0  0  0
  183.3020  178.6280  144.8900 C   0  0  0  0  0  3  0  0  0  0  0  0
  183.4230  178.7340  143.4290 C   0  0  0  0  0  0  0  0  0  0  0  0
  184.5490  178.5850  142.7320 C   0  0  0  0  0  3  0  0  0  0  0  0
  185.6850  178.3050  145.6820 C   0  0  0  0  0  0  0  0  0  0  0  0
  185.9200  178.3020  143.1690 C   0  0  0  0  0  3  0  0  0  0  0  0
  186.4460  178.1770  144.3880 C   0  0  0  0  0  0  0  0  0  0  0  0
  182.1790  179.0110  142.6820 C   0  0  0  0  0  0  0  0  0  0  0  0
  182.0380  178.5690  141.3710 O   0  0  0  0  0  0  0  0  0  0  0  0
  181.2330  179.6500  143.2180 O   0  0  0  0  0  1  0  0  0  0  0  0
  190.7600  176.5150  142.3470 N   0  0  0  0  0  2  0  0  0  0  0  0
  191.2060  176.6910  138.6220 C   0  0  0  0  0  3  0  0  0  0  0  0
  189.2960  177.2860  140.5590 C   0  0  0  0  0  3  0  0  0  0  0  0
  188.7050  177.6390  136.0290 C   0  0  0  0  0  0  0  0  0  0  0  0
  187.3130  177.6030  136.5280 C   0  0  0  0  0  0  0  0  0  0  0  0
  189.8060  177.4450  136.7690 C   0  0  0  0  0  3  0  0  0  0  0  0
  186.3750  177.8770  135.7330 O   0  0  0  0  0  0  0  0  0  0  0  0
  189.9710  177.2130  138.2220 C   0  0  0  0  0  0  0  0  0  0  0  0
  188.8930  177.8770  134.6730 O   0  0  0  0  0  1  0  0  0  0  0  0
  187.6890  178.1280  138.8880 C   0  0  0  0  0  2  0  0  0  0  0  0
  189.0090  177.5230  139.2100 C   0  0  0  0  0  0  0  0  0  0  0  0
  186.9530  177.2300  137.9230 C   0  0  0  0  0  2  0  0  0  0  0  0
  190.5260  176.7530  140.9500 C   0  0  0  0  0  0  0  0  0  0  0  0
  191.4810  176.4550  139.9700 C   0  0  0  0  0  3  0  0  0  0  0  0
  1 10  2  0  0  0  0
  4  8  1  0  0  0  0
  5  4  2  0  0  0  0
  5  1  1  0  0  0  0
  6  7  1  0  0  0  0
  7 11  2  0  0  0  0
  8  6  1  0  0  0  0
  9  3  1  0  0  0  0
  9 11  1  0  0  0  0
 10  6  1  0  0  0  0
 10  9  1  0  0  0  0
 12  2  2  0  0  0  0
 13 12  1  0  0  0  0
 14 16  1  0  0  0  0
 14 13  2  0  0  0  0
 15  2  1  0  0  0  0
 15  3  2  0  0  0  0
 16 17  2  0  0  0  0
 17  1  1  0  0  0  0
 17 15  1  0  0  0  0
 18 20  1  0  0  0  0
 18 13  1  0  0  0  0
 19 18  2  0  0  0  0
 21  4  1  0  0  0  0
 22 34  1  0  0  0  0
 23 33  1  0  0  0  0
 24 25  1  0  0  0  0
 24 26  2  0  0  0  0
 25 32  1  0  0  0  0
 26 28  1  0  0  0  0
 27 25  2  0  0  0  0
 28 22  2  0  0  0  0
 28 31  1  0  0  0  0
 29 24  1  0  0  0  0
 30 31  1  0  0  0  0
 31 23  2  0  0  0  0
 32 30  1  0  0  0  0
 33 21  1  0  0  0  0
 34 33  2  0  0  0  0
M  END
>  <MODEL>
9

>  <REMARK>
 VINA RESULT:     -10.7      3.689      5.661
  Name = 
  3 active torsions:
  status: ('A' for Active; 'I' for Inactive)
    1  A    between atoms: C_3  and  C_25
    2  A    between atoms: C_8  and  N_18
    3  A    between atoms: N_18  and  C_30
                            x       y       z     vdW  Elec       q    Type
                         _______ _______ _______ _____ _____    ______ ____

>  <TORSDO>
F 3

$$$$
