=
 OpenBabel10262421233D

 32 36  0  0  1  0  0  0  0  0999 V2000
  191.0830  175.3100  135.5440 C   0  0  0  0  0  2  0  0  0  0  0  0
  186.5430  177.5410  137.5190 C   0  0  0  0  0  2  0  0  0  0  0  0
  191.2370  177.0890  139.8260 C   0  0  0  0  0  3  0  0  0  0  0  0
  190.3800  176.7230  140.8570 C   0  0  0  0  0  3  0  0  0  0  0  0
  184.6510  178.1050  139.1010 C   0  0  0  0  0  0  0  0  0  0  0  0
  184.2620  178.4900  140.4570 C   0  0  0  0  0  0  0  0  0  0  0  0
  188.0300  175.9110  136.4710 C   0  0  1  0  0  3  0  0  0  0  0  0
  188.8640  178.1360  135.9820 C   0  0  0  0  0  2  0  0  0  0  0  0
  184.4280  179.0060  142.5830 C   0  0  0  0  0  0  0  0  0  0  0  0
  190.0020  176.3190  135.1640 C   0  0  0  0  0  2  0  0  0  0  0  0
  190.7650  177.8780  138.7810 C   0  0  0  0  0  3  0  0  0  0  0  0
  188.9990  179.3750  137.3580 S   0  0  0  0  0  0  0  0  0  0  0  0
  189.4300  178.3000  138.7370 C   0  0  0  0  0  0  0  0  0  0  0  0
  187.0910  178.3350  139.9050 C   0  0  0  0  0  0  0  0  0  0  0  0
  183.0340  178.8700  142.3280 N   0  0  0  0  0  0  0  0  0  0  0  0
  189.2010  173.8510  135.8860 O   0  0  0  0  0  0  0  0  0  0  0  0
  189.2470  176.7620  136.3340 N   0  0  2  0  0  0  0  0  0  0  0  0
  182.9300  178.5620  141.0690 C   0  0  0  0  0  3  0  0  0  0  0  0
  188.3940  174.4660  136.8490 C   0  0  0  0  0  2  0  0  0  0  0  0
  190.5090  174.1210  136.3070 C   0  0  1  0  0  3  0  0  0  0  0  0
  189.0540  177.1530  140.8450 C   0  0  0  0  0  3  0  0  0  0  0  0
  188.5420  177.9510  139.8020 C   0  0  0  0  0  0  0  0  0  0  0  0
  186.6110  178.6080  141.1390 C   0  0  0  0  0  3  0  0  0  0  0  0
  187.2120  176.3990  137.6220 C   0  0  0  0  0  2  0  0  0  0  0  0
  183.7920  177.7140  138.2660 O   0  0  0  0  0  0  0  0  0  0  0  0
  184.9190  179.2730  143.7100 O   0  0  0  0  0  0  0  0  0  0  0  0
  186.1000  178.3090  138.7190 C   0  0  1  0  0  3  0  0  0  0  0  0
  185.1670  178.7710  141.3660 C   0  0  0  0  0  0  0  0  0  0  0  0
  191.3940  172.9050  136.1040 C   0  0  0  0  0  2  0  0  0  0  0  0
  192.9620  173.3830  135.3110 S   0  0  0  0  0  0  0  0  0  0  0  0
  194.0620  174.4220  137.5890 C   0  0  0  0  0  1  0  0  0  0  0  0
  193.9380  173.1210  136.8220 C   0  0  0  0  0  2  0  0  0  0  0  0
  1 20  1  0  0  0  0
  2 24  1  0  0  0  0
  3  4  1  0  0  0  0
  5  6  1  0  0  0  0
  6 18  1  0  0  0  0
  6 28  2  0  0  0  0
  7 19  1  1  0  0  0
  7 24  1  0  0  0  0
  8 17  1  0  0  0  0
  8 12  1  0  0  0  0
  9 26  2  0  0  0  0
 10  1  1  0  0  0  0
 11  3  2  0  0  0  0
 12 13  1  0  0  0  0
 13 11  1  0  0  0  0
 13 22  2  0  0  0  0
 14 23  2  0  0  0  0
 15  9  1  0  0  0  0
 16 20  1  0  0  0  0
 16 19  1  0  0  0  0
 17 10  1  6  0  0  0
 17  7  1  0  0  0  0
 18 15  2  0  0  0  0
 20 29  1  6  0  0  0
 21  4  2  0  0  0  0
 22 14  1  0  0  0  0
 22 21  1  0  0  0  0
 23 28  1  0  0  0  0
 25  5  2  0  0  0  0
 27  2  1  6  0  0  0
 27  5  1  0  0  0  0
 27 14  1  0  0  0  0
 28  9  1  0  0  0  0
 30 29  1  0  0  0  0
 30 32  1  0  0  0  0
 32 31  1  0  0  0  0
M  END
>  <MODEL>
1

>  <REMARK>
 VINA RESULT:      -6.2      0.000      0.000
  Name = 
  3 active torsions:
  status: ('A' for Active; 'I' for Inactive)
    1  A    between atoms: S_1  and  C_10
    2  A    between atoms: S_1  and  C_20
    3  A    between atoms: C_10  and  C_24
                            x       y       z     vdW  Elec       q    Type
                         _______ _______ _______ _____ _____    ______ ____

>  <TORSDO>
F 3

$$$$
=
 OpenBabel10262421233D

 32 36  0  0  1  0  0  0  0  0999 V2000
  191.2870  175.6180  135.6030 C   0  0  0  0  0  2  0  0  0  0  0  0
  185.8960  175.5880  136.2590 C   0  0  0  0  0  2  0  0  0  0  0  0
  189.4350  178.8190  138.4050 C   0  0  0  0  0  3  0  0  0  0  0  0
  188.6200  178.5300  139.4940 C   0  0  0  0  0  3  0  0  0  0  0  0
  183.6250  175.6380  137.3720 C   0  0  0  0  0  0  0  0  0  0  0  0
  182.7570  176.2830  138.3550 C   0  0  0  0  0  0  0  0  0  0  0  0
  188.1990  174.7790  136.1500 C   0  0  1  0  0  3  0  0  0  0  0  0
  187.9600  176.6260  134.5940 C   0  0  0  0  0  2  0  0  0  0  0  0
  182.0880  177.6570  139.9300 C   0  0  0  0  0  0  0  0  0  0  0  0
  189.9990  175.5900  134.7840 C   0  0  0  0  0  2  0  0  0  0  0  0
  188.9370  178.6800  137.1120 C   0  0  0  0  0  3  0  0  0  0  0  0
  187.1150  178.1810  135.1580 S   0  0  0  0  0  0  0  0  0  0  0  0
  187.6290  178.2340  136.8830 C   0  0  0  0  0  0  0  0  0  0  0  0
  185.3450  177.4820  137.9120 C   0  0  0  0  0  0  0  0  0  0  0  0
  181.0530  176.6880  139.8010 N   0  0  0  0  0  0  0  0  0  0  0  0
  190.3210  173.6880  136.6630 O   0  0  0  0  0  0  0  0  0  0  0  0
  188.8460  175.9970  135.5840 N   0  0  2  0  0  0  0  0  0  0  0  0
  181.4460  175.8690  138.8700 C   0  0  0  0  0  3  0  0  0  0  0  0
  189.0960  174.1010  137.1980 C   0  0  0  0  0  2  0  0  0  0  0  0
  191.1740  174.7780  136.8700 C   0  0  1  0  0  3  0  0  0  0  0  0
  187.3080  178.1080  139.2880 C   0  0  0  0  0  3  0  0  0  0  0  0
  186.7720  177.9550  137.9940 C   0  0  0  0  0  0  0  0  0  0  0  0
  184.4870  177.9450  138.8480 C   0  0  0  0  0  3  0  0  0  0  0  0
  186.9760  175.1770  136.9120 C   0  0  0  0  0  2  0  0  0  0  0  0
  183.3130  174.5280  136.8610 O   0  0  0  0  0  0  0  0  0  0  0  0
  182.0740  178.6010  140.7620 O   0  0  0  0  0  0  0  0  0  0  0  0
  184.8410  176.4120  136.9160 C   0  0  1  0  0  3  0  0  0  0  0  0
  183.1400  177.3700  138.9850 C   0  0  0  0  0  0  0  0  0  0  0  0
  192.5520  174.3000  137.2930 C   0  0  0  0  0  2  0  0  0  0  0  0
  193.6630  174.2040  135.8530 S   0  0  0  0  0  0  0  0  0  0  0  0
  194.9670  174.5900  138.2260 C   0  0  0  0  0  1  0  0  0  0  0  0
  195.0750  174.9170  136.7510 C   0  0  0  0  0  2  0  0  0  0  0  0
  1 20  1  0  0  0  0
  2 24  1  0  0  0  0
  3  4  1  0  0  0  0
  5  6  1  0  0  0  0
  6 18  1  0  0  0  0
  6 28  2  0  0  0  0
  7 24  1  1  0  0  0
  7 19  1  0  0  0  0
  8 12  1  0  0  0  0
  9 26  2  0  0  0  0
 10 17  1  0  0  0  0
 10  1  1  0  0  0  0
 11  3  2  0  0  0  0
 12 13  1  0  0  0  0
 13 11  1  0  0  0  0
 13 22  2  0  0  0  0
 14 22  1  0  0  0  0
 14 23  2  0  0  0  0
 15  9  1  0  0  0  0
 16 20  1  0  0  0  0
 16 19  1  0  0  0  0
 17  8  1  6  0  0  0
 17  7  1  0  0  0  0
 18 15  2  0  0  0  0
 20 29  1  6  0  0  0
 21  4  2  0  0  0  0
 22 21  1  0  0  0  0
 23 28  1  0  0  0  0
 25  5  2  0  0  0  0
 27  2  1  1  0  0  0
 27  5  1  0  0  0  0
 27 14  1  0  0  0  0
 28  9  1  0  0  0  0
 30 32  1  0  0  0  0
 30 29  1  0  0  0  0
 32 31  1  0  0  0  0
M  END
>  <MODEL>
2

>  <REMARK>
 VINA RESULT:      -5.6      2.025      2.609
  Name = 
  3 active torsions:
  status: ('A' for Active; 'I' for Inactive)
    1  A    between atoms: S_1  and  C_10
    2  A    between atoms: S_1  and  C_20
    3  A    between atoms: C_10  and  C_24
                            x       y       z     vdW  Elec       q    Type
                         _______ _______ _______ _____ _____    ______ ____

>  <TORSDO>
F 3

$$$$
=
 OpenBabel10262421233D

 32 36  0  0  1  0  0  0  0  0999 V2000
  186.3910  178.6350  137.5810 C   0  0  0  0  0  2  0  0  0  0  0  0
  191.4520  176.7100  137.1750 C   0  0  0  0  0  2  0  0  0  0  0  0
  186.9300  174.2760  136.0860 C   0  0  0  0  0  3  0  0  0  0  0  0
  187.6210  173.2890  136.7810 C   0  0  0  0  0  3  0  0  0  0  0  0
  193.4460  175.1660  137.3880 C   0  0  0  0  0  0  0  0  0  0  0  0
  193.9650  173.8090  137.2340 C   0  0  0  0  0  0  0  0  0  0  0  0
  189.4740  177.7810  138.1290 C   0  0  1  0  0  3  0  0  0  0  0  0
  189.4620  178.1440  135.7300 C   0  0  0  0  0  2  0  0  0  0  0  0
  194.0200  171.6580  136.8050 C   0  0  0  0  0  0  0  0  0  0  0  0
  187.7500  179.0040  136.9930 C   0  0  0  0  0  2  0  0  0  0  0  0
  187.6330  175.3000  135.4570 C   0  0  0  0  0  3  0  0  0  0  0  0
  189.7900  176.7110  134.5950 S   0  0  0  0  0  0  0  0  0  0  0  0
  189.0300  175.3680  135.5250 C   0  0  0  0  0  0  0  0  0  0  0  0
  191.2510  174.2750  136.3670 C   0  0  0  0  0  0  0  0  0  0  0  0
  195.2760  171.9630  137.4040 N   0  0  0  0  0  0  0  0  0  0  0  0
  187.6490  178.4170  139.6190 O   0  0  0  0  0  0  0  0  0  0  0  0
  188.6300  177.8410  136.9020 N   0  0  2  0  0  0  0  0  0  0  0  0
  195.2470  173.2360  137.6630 C   0  0  0  0  0  3  0  0  0  0  0  0
  188.6350  177.4550  139.3750 C   0  0  0  0  0  2  0  0  0  0  0  0
  186.5250  177.9430  138.9330 C   0  0  1  0  0  3  0  0  0  0  0  0
  189.0130  173.3260  136.8390 C   0  0  0  0  0  3  0  0  0  0  0  0
  189.7560  174.3480  136.2160 C   0  0  0  0  0  0  0  0  0  0  0  0
  191.8150  173.0470  136.3420 C   0  0  0  0  0  3  0  0  0  0  0  0
  190.4290  176.6360  138.0170 C   0  0  0  0  0  2  0  0  0  0  0  0
  194.1020  176.0450  138.0100 O   0  0  0  0  0  0  0  0  0  0  0  0
  193.6700  170.5040  136.4430 O   0  0  0  0  0  0  0  0  0  0  0  0
  192.1540  175.4930  136.6730 C   0  0  1  0  0  3  0  0  0  0  0  0
  193.2280  172.8590  136.7040 C   0  0  0  0  0  0  0  0  0  0  0  0
  185.2680  178.1710  139.7530 C   0  0  0  0  0  2  0  0  0  0  0  0
  185.6760  178.9760  141.3350 S   0  0  0  0  0  0  0  0  0  0  0  0
  184.2650  178.6520  143.6560 C   0  0  0  0  0  1  0  0  0  0  0  0
  184.2040  178.3230  142.1790 C   0  0  0  0  0  2  0  0  0  0  0  0
  1 20  1  0  0  0  0
  2 24  1  0  0  0  0
  3  4  1  0  0  0  0
  4 21  2  0  0  0  0
  5 25  2  0  0  0  0
  6  5  1  0  0  0  0
  6 18  1  0  0  0  0
  7 24  1  6  0  0  0
  7 19  1  0  0  0  0
  9 15  1  0  0  0  0
 10  1  1  0  0  0  0
 11 13  1  0  0  0  0
 11  3  2  0  0  0  0
 12 13  1  0  0  0  0
 12  8  1  0  0  0  0
 13 22  2  0  0  0  0
 14 27  1  0  0  0  0
 15 18  2  0  0  0  0
 17  8  1  6  0  0  0
 17 10  1  0  0  0  0
 17  7  1  0  0  0  0
 19 16  1  0  0  0  0
 20 16  1  0  0  0  0
 20 29  1  1  0  0  0
 22 14  1  0  0  0  0
 22 21  1  0  0  0  0
 23 14  2  0  0  0  0
 23 28  1  0  0  0  0
 26  9  2  0  0  0  0
 27  2  1  1  0  0  0
 27  5  1  0  0  0  0
 28  9  1  0  0  0  0
 28  6  2  0  0  0  0
 29 30  1  0  0  0  0
 30 32  1  0  0  0  0
 32 31  1  0  0  0  0
M  END
>  <MODEL>
3

>  <REMARK>
 VINA RESULT:      -5.4      2.639      8.491
  Name = 
  3 active torsions:
  status: ('A' for Active; 'I' for Inactive)
    1  A    between atoms: S_1  and  C_10
    2  A    between atoms: S_1  and  C_20
    3  A    between atoms: C_10  and  C_24
                            x       y       z     vdW  Elec       q    Type
                         _______ _______ _______ _____ _____    ______ ____

>  <TORSDO>
F 3

$$$$
=
 OpenBabel10262421233D

 32 36  0  0  1  0  0  0  0  0999 V2000
  178.9310  175.9160  137.6880 C   0  0  0  0  0  2  0  0  0  0  0  0
  182.9730  177.9460  140.6920 C   0  0  0  0  0  2  0  0  0  0  0  0
  182.9490  176.8360  135.5600 C   0  0  0  0  0  3  0  0  0  0  0  0
  184.1800  176.3230  135.9540 C   0  0  0  0  0  3  0  0  0  0  0  0
  185.2790  178.2890  141.6760 C   0  0  0  0  0  0  0  0  0  0  0  0
  186.7110  178.4270  141.4200 C   0  0  0  0  0  0  0  0  0  0  0  0
  181.1550  176.4750  139.9850 C   0  0  1  0  0  3  0  0  0  0  0  0
  180.7010  178.7100  139.1560 C   0  0  0  0  0  2  0  0  0  0  0  0
  188.6120  178.5190  140.3290 C   0  0  0  0  0  0  0  0  0  0  0  0
  179.2080  177.0290  138.6940 C   0  0  0  0  0  2  0  0  0  0  0  0
  182.3410  177.8320  136.3190 C   0  0  0  0  0  3  0  0  0  0  0  0
  182.0580  179.6570  138.3130 S   0  0  0  0  0  0  0  0  0  0  0  0
  182.9370  178.3180  137.4890 C   0  0  0  0  0  0  0  0  0  0  0  0
  184.9850  178.2430  139.1140 C   0  0  0  0  0  0  0  0  0  0  0  0
  188.9620  178.5010  141.7090 N   0  0  0  0  0  0  0  0  0  0  0  0
  179.8190  174.5110  139.4260 O   0  0  0  0  0  0  0  0  0  0  0  0
  180.6410  177.2770  138.8380 N   0  0  2  0  0  0  0  0  0  0  0  0
  187.8380  178.4440  142.3600 C   0  0  0  0  0  3  0  0  0  0  0  0
  181.1160  174.9690  139.6810 C   0  0  0  0  0  2  0  0  0  0  0  0
  179.6760  174.6330  138.0390 C   0  0  1  0  0  3  0  0  0  0  0  0
  184.8020  176.8100  137.1020 C   0  0  0  0  0  3  0  0  0  0  0  0
  184.2140  177.8160  137.8940 C   0  0  0  0  0  0  0  0  0  0  0  0
  186.3310  178.2990  139.0050 C   0  0  0  0  0  3  0  0  0  0  0  0
  182.6050  176.7740  140.1880 C   0  0  0  0  0  2  0  0  0  0  0  0
  184.8430  178.1060  142.8450 O   0  0  0  0  0  0  0  0  0  0  0  0
  189.4470  178.5420  139.3880 O   0  0  0  0  0  0  0  0  0  0  0  0
  184.3490  178.4920  140.5010 C   0  0  1  0  0  3  0  0  0  0  0  0
  187.1760  178.4850  140.1930 C   0  0  0  0  0  0  0  0  0  0  0  0
  178.9310  173.4360  137.4750 C   0  0  0  0  0  2  0  0  0  0  0  0
  180.0760  172.0480  137.1900 S   0  0  0  0  0  0  0  0  0  0  0  0
  182.7440  172.4950  136.7920 C   0  0  0  0  0  1  0  0  0  0  0  0
  181.3890  173.1180  136.5290 C   0  0  0  0  0  2  0  0  0  0  0  0
  1 20  1  0  0  0  0
  1 10  1  0  0  0  0
  3  4  2  0  0  0  0
  3 11  1  0  0  0  0
  4 21  1  0  0  0  0
  5 25  2  0  0  0  0
  6  5  1  0  0  0  0
  6 18  1  0  0  0  0
  7 19  1  6  0  0  0
  7 24  1  0  0  0  0
  9 15  1  0  0  0  0
 11 13  2  0  0  0  0
 12  8  1  0  0  0  0
 13 22  1  0  0  0  0
 13 12  1  0  0  0  0
 14 27  1  0  0  0  0
 15 18  2  0  0  0  0
 16 19  1  0  0  0  0
 17 10  1  1  0  0  0
 17  8  1  0  0  0  0
 17  7  1  0  0  0  0
 20 29  1  1  0  0  0
 20 16  1  0  0  0  0
 21 22  2  0  0  0  0
 22 14  1  0  0  0  0
 23 14  2  0  0  0  0
 23 28  1  0  0  0  0
 24  2  1  0  0  0  0
 26  9  2  0  0  0  0
 27  2  1  1  0  0  0
 27  5  1  0  0  0  0
 28  9  1  0  0  0  0
 28  6  2  0  0  0  0
 30 29  1  0  0  0  0
 32 31  1  0  0  0  0
 32 30  1  0  0  0  0
M  END
>  <MODEL>
4

>  <REMARK>
 VINA RESULT:      -5.4      4.696      7.922
  Name = 
  3 active torsions:
  status: ('A' for Active; 'I' for Inactive)
    1  A    between atoms: S_1  and  C_10
    2  A    between atoms: S_1  and  C_20
    3  A    between atoms: C_10  and  C_24
                            x       y       z     vdW  Elec       q    Type
                         _______ _______ _______ _____ _____    ______ ____

>  <TORSDO>
F 3

$$$$
=
 OpenBabel10262421233D

 32 36  0  0  1  0  0  0  0  0999 V2000
  180.0510  176.4050  137.0580 C   0  0  0  0  0  2  0  0  0  0  0  0
  185.3100  177.7490  137.2040 C   0  0  0  0  0  2  0  0  0  0  0  0
  183.1610  173.0350  136.3560 C   0  0  0  0  0  3  0  0  0  0  0  0
  184.1890  172.7220  137.2370 C   0  0  0  0  0  3  0  0  0  0  0  0
  187.7770  177.6880  137.7630 C   0  0  0  0  0  0  0  0  0  0  0  0
  188.9890  176.8780  137.8660 C   0  0  0  0  0  0  0  0  0  0  0  0
  182.9670  177.5720  137.8750 C   0  0  1  0  0  3  0  0  0  0  0  0
  183.0730  177.5820  135.4510 C   0  0  0  0  0  2  0  0  0  0  0  0
  190.3120  175.1290  137.8150 C   0  0  0  0  0  0  0  0  0  0  0  0
  181.0240  177.4250  136.4730 C   0  0  0  0  0  2  0  0  0  0  0  0
  183.2360  174.1960  135.5910 C   0  0  0  0  0  3  0  0  0  0  0  0
  184.3040  176.4870  134.5940 S   0  0  0  0  0  0  0  0  0  0  0  0
  184.3240  175.0710  135.7050 C   0  0  0  0  0  0  0  0  0  0  0  0
  186.6360  175.5780  136.8160 C   0  0  0  0  0  0  0  0  0  0  0  0
  191.0790  176.1730  138.4060 N   0  0  0  0  0  0  0  0  0  0  0  0
  180.9240  177.1950  139.1540 O   0  0  0  0  0  0  0  0  0  0  0  0
  182.4110  176.9880  136.6210 N   0  0  2  0  0  0  0  0  0  0  0  0
  190.2980  177.2120  138.4410 C   0  0  0  0  0  3  0  0  0  0  0  0
  182.3030  176.9650  139.1210 C   0  0  0  0  0  2  0  0  0  0  0  0
  180.3710  176.0810  138.5120 C   0  0  1  0  0  3  0  0  0  0  0  0
  185.2920  173.5660  137.3490 C   0  0  0  0  0  3  0  0  0  0  0  0
  185.3990  174.7500  136.5920 C   0  0  0  0  0  0  0  0  0  0  0  0
  187.7940  174.9130  137.0270 C   0  0  0  0  0  3  0  0  0  0  0  0
  184.4070  177.1910  138.0010 C   0  0  0  0  0  2  0  0  0  0  0  0
  187.7280  178.8490  138.2530 O   0  0  0  0  0  0  0  0  0  0  0  0
  190.7300  173.9540  137.6410 O   0  0  0  0  0  0  0  0  0  0  0  0
  186.6370  177.1180  136.9480 C   0  0  1  0  0  3  0  0  0  0  0  0
  189.0000  175.6250  137.4750 C   0  0  0  0  0  0  0  0  0  0  0  0
  179.1100  175.6280  139.2270 C   0  0  0  0  0  2  0  0  0  0  0  0
  179.3530  173.9810  139.9650 S   0  0  0  0  0  0  0  0  0  0  0  0
  179.0510  172.6560  137.5920 C   0  0  0  0  0  1  0  0  0  0  0  0
  180.1130  173.2940  138.4640 C   0  0  0  0  0  2  0  0  0  0  0  0
  1 20  1  0  0  0  0
  2 24  1  0  0  0  0
  3  4  1  0  0  0  0
  4 21  2  0  0  0  0
  5  6  1  0  0  0  0
  5 25  2  0  0  0  0
  6 18  1  0  0  0  0
  7 24  1  1  0  0  0
  7 19  1  0  0  0  0
  9 15  1  0  0  0  0
 10 17  1  0  0  0  0
 10  1  1  0  0  0  0
 11 13  1  0  0  0  0
 11  3  2  0  0  0  0
 12  8  1  0  0  0  0
 12 13  1  0  0  0  0
 13 22  2  0  0  0  0
 14 27  1  0  0  0  0
 14 23  2  0  0  0  0
 15 18  2  0  0  0  0
 17  8  1  6  0  0  0
 17  7  1  0  0  0  0
 19 16  1  0  0  0  0
 20 16  1  0  0  0  0
 20 29  1  1  0  0  0
 22 14  1  0  0  0  0
 22 21  1  0  0  0  0
 23 28  1  0  0  0  0
 26  9  2  0  0  0  0
 27  2  1  1  0  0  0
 27  5  1  0  0  0  0
 28  9  1  0  0  0  0
 28  6  2  0  0  0  0
 29 30  1  0  0  0  0
 31 32  1  0  0  0  0
 32 30  1  0  0  0  0
M  END
>  <MODEL>
5

>  <REMARK>
 VINA RESULT:      -5.4      4.306      8.383
  Name = 
  3 active torsions:
  status: ('A' for Active; 'I' for Inactive)
    1  A    between atoms: S_1  and  C_10
    2  A    between atoms: S_1  and  C_20
    3  A    between atoms: C_10  and  C_24
                            x       y       z     vdW  Elec       q    Type
                         _______ _______ _______ _____ _____    ______ ____

>  <TORSDO>
F 3

$$$$
=
 OpenBabel10262421233D

 32 36  0  0  1  0  0  0  0  0999 V2000
  186.1150  178.3410  136.9990 C   0  0  0  0  0  2  0  0  0  0  0  0
  191.3660  177.0100  137.3720 C   0  0  0  0  0  2  0  0  0  0  0  0
  187.3400  174.0290  135.8010 C   0  0  0  0  0  3  0  0  0  0  0  0
  188.0330  173.1530  136.6290 C   0  0  0  0  0  3  0  0  0  0  0  0
  193.4700  175.7170  137.9260 C   0  0  0  0  0  0  0  0  0  0  0  0
  194.1530  174.4250  137.9080 C   0  0  0  0  0  0  0  0  0  0  0  0
  189.1680  177.8710  137.9980 C   0  0  1  0  0  3  0  0  0  0  0  0
  189.4500  178.1540  135.6050 C   0  0  0  0  0  2  0  0  0  0  0  0
  194.5080  172.2830  137.5940 C   0  0  0  0  0  0  0  0  0  0  0  0
  187.4930  178.8480  136.5820 C   0  0  0  0  0  2  0  0  0  0  0  0
  188.0050  175.1080  135.2240 C   0  0  0  0  0  3  0  0  0  0  0  0
  190.0900  176.7330  134.5950 S   0  0  0  0  0  0  0  0  0  0  0  0
  189.3630  175.3410  135.4760 C   0  0  0  0  0  0  0  0  0  0  0  0
  191.5530  174.5430  136.6610 C   0  0  0  0  0  0  0  0  0  0  0  0
  195.6260  172.7520  138.3410 N   0  0  0  0  0  0  0  0  0  0  0  0
  187.0930  178.3370  139.1960 O   0  0  0  0  0  0  0  0  0  0  0  0
  188.5010  177.7930  136.6670 N   0  0  2  0  0  0  0  0  0  0  0  0
  195.4190  174.0210  138.5320 C   0  0  0  0  0  3  0  0  0  0  0  0
  188.2040  177.4900  139.1330 C   0  0  0  0  0  2  0  0  0  0  0  0
  186.1360  177.7130  138.3890 C   0  0  1  0  0  3  0  0  0  0  0  0
  189.3900  173.3540  136.8730 C   0  0  0  0  0  3  0  0  0  0  0  0
  190.0940  174.4350  136.3070 C   0  0  0  0  0  0  0  0  0  0  0  0
  192.2480  173.3890  136.7720 C   0  0  0  0  0  3  0  0  0  0  0  0
  190.2500  176.8430  138.0710 C   0  0  0  0  0  2  0  0  0  0  0  0
  193.9310  176.6860  138.5870 O   0  0  0  0  0  0  0  0  0  0  0  0
  194.3420  171.0850  137.2440 O   0  0  0  0  0  0  0  0  0  0  0  0
  192.2620  175.8670  137.0280 C   0  0  1  0  0  3  0  0  0  0  0  0
  193.6090  173.3800  137.3290 C   0  0  0  0  0  0  0  0  0  0  0  0
  184.7590  177.8180  139.0200 C   0  0  0  0  0  2  0  0  0  0  0  0
  183.4660  177.4110  137.8030 S   0  0  0  0  0  0  0  0  0  0  0  0
  183.8920  174.7220  137.5420 C   0  0  0  0  0  1  0  0  0  0  0  0
  183.2230  175.7310  138.4530 C   0  0  0  0  0  2  0  0  0  0  0  0
  1 20  1  0  0  0  0
  2 24  1  0  0  0  0
  3  4  1  0  0  0  0
  4 21  2  0  0  0  0
  5 25  2  0  0  0  0
  6  5  1  0  0  0  0
  6 18  1  0  0  0  0
  7 24  1  6  0  0  0
  7 19  1  0  0  0  0
  9 15  1  0  0  0  0
 10 17  1  0  0  0  0
 10  1  1  0  0  0  0
 11 13  1  0  0  0  0
 11  3  2  0  0  0  0
 12 13  1  0  0  0  0
 12  8  1  0  0  0  0
 13 22  2  0  0  0  0
 14 23  2  0  0  0  0
 14 27  1  0  0  0  0
 15 18  2  0  0  0  0
 17  8  1  6  0  0  0
 17  7  1  0  0  0  0
 19 16  1  0  0  0  0
 20 29  1  1  0  0  0
 20 16  1  0  0  0  0
 22 14  1  0  0  0  0
 22 21  1  0  0  0  0
 23 28  1  0  0  0  0
 26  9  2  0  0  0  0
 27  2  1  1  0  0  0
 27  5  1  0  0  0  0
 28  9  1  0  0  0  0
 28  6  2  0  0  0  0
 30 32  1  0  0  0  0
 30 29  1  0  0  0  0
 31 32  1  0  0  0  0
M  END
>  <MODEL>
6

>  <REMARK>
 VINA RESULT:      -5.1      2.831      8.205
  Name = 
  3 active torsions:
  status: ('A' for Active; 'I' for Inactive)
    1  A    between atoms: S_1  and  C_10
    2  A    between atoms: S_1  and  C_20
    3  A    between atoms: C_10  and  C_24
                            x       y       z     vdW  Elec       q    Type
                         _______ _______ _______ _____ _____    ______ ____

>  <TORSDO>
F 3

$$$$
=
 OpenBabel10262421233D

 32 36  0  0  1  0  0  0  0  0999 V2000
  180.2510  181.8550  138.9000 C   0  0  0  0  0  2  0  0  0  0  0  0
  180.2870  176.6270  137.4330 C   0  0  0  0  0  2  0  0  0  0  0  0
  184.0650  179.3800  139.8210 C   0  0  0  0  0  3  0  0  0  0  0  0
  184.7910  178.6750  138.8680 C   0  0  0  0  0  3  0  0  0  0  0  0
  181.0590  174.4260  136.4510 C   0  0  0  0  0  0  0  0  0  0  0  0
  182.1440  173.4550  136.3260 C   0  0  0  0  0  0  0  0  0  0  0  0
  180.0190  179.0510  137.2820 C   0  0  1  0  0  3  0  0  0  0  0  0
  179.5480  178.3670  139.5620 C   0  0  0  0  0  2  0  0  0  0  0  0
  184.1160  172.5230  136.5630 C   0  0  0  0  0  0  0  0  0  0  0  0
  179.4030  180.5910  139.0170 C   0  0  0  0  0  2  0  0  0  0  0  0
  182.8290  178.9010  140.2440 C   0  0  0  0  0  3  0  0  0  0  0  0
  180.7140  177.2020  140.4170 S   0  0  0  0  0  0  0  0  0  0  0  0
  182.2870  177.7240  139.7110 C   0  0  0  0  0  0  0  0  0  0  0  0
  182.5930  175.6930  138.0930 C   0  0  0  0  0  0  0  0  0  0  0  0
  183.4310  171.7330  135.5960 N   0  0  0  0  0  0  0  0  0  0  0  0
  180.1350  181.3750  136.5470 O   0  0  0  0  0  0  0  0  0  0  0  0
  180.1850  179.3920  138.7240 N   0  0  2  0  0  0  0  0  0  0  0  0
  182.2620  172.2830  135.4500 C   0  0  0  0  0  3  0  0  0  0  0  0
  180.6830  180.1000  136.3760 C   0  0  0  0  0  2  0  0  0  0  0  0
  180.9290  181.9620  137.5390 C   0  0  1  0  0  3  0  0  0  0  0  0
  184.2800  177.4890  138.3430 C   0  0  0  0  0  3  0  0  0  0  0  0
  183.0320  176.9760  138.7460 C   0  0  0  0  0  0  0  0  0  0  0  0
  183.5480  174.7710  137.8400 C   0  0  0  0  0  3  0  0  0  0  0  0
  180.7570  177.7850  136.9850 C   0  0  0  0  0  2  0  0  0  0  0  0
  180.0440  174.3650  135.7060 O   0  0  0  0  0  0  0  0  0  0  0  0
  185.2970  172.3110  136.9420 O   0  0  0  0  0  0  0  0  0  0  0  0
  181.1580  175.4250  137.5820 C   0  0  1  0  0  3  0  0  0  0  0  0
  183.2570  173.5930  137.0090 C   0  0  0  0  0  0  0  0  0  0  0  0
  181.1940  183.4210  137.2110 C   0  0  0  0  0  2  0  0  0  0  0  0
  180.5790  183.8220  135.5450 S   0  0  0  0  0  0  0  0  0  0  0  0
  179.7070  185.4500  137.5620 C   0  0  0  0  0  1  0  0  0  0  0  0
  179.3410  185.0020  136.1620 C   0  0  0  0  0  2  0  0  0  0  0  0
  1 10  1  0  0  0  0
  3 11  1  0  0  0  0
  4  3  2  0  0  0  0
  5 27  1  0  0  0  0
  6  5  1  0  0  0  0
  6 28  2  0  0  0  0
  7 19  1  6  0  0  0
  7 17  1  0  0  0  0
  8 12  1  0  0  0  0
  9 26  2  0  0  0  0
  9 28  1  0  0  0  0
 13 11  2  0  0  0  0
 13 12  1  0  0  0  0
 14 22  1  0  0  0  0
 15  9  1  0  0  0  0
 16 20  1  0  0  0  0
 17 10  1  6  0  0  0
 17  8  1  0  0  0  0
 18 15  2  0  0  0  0
 18  6  1  0  0  0  0
 19 16  1  0  0  0  0
 20 29  1  6  0  0  0
 20  1  1  0  0  0  0
 21 22  2  0  0  0  0
 21  4  1  0  0  0  0
 22 13  1  0  0  0  0
 23 14  2  0  0  0  0
 24  7  1  0  0  0  0
 24  2  1  0  0  0  0
 25  5  2  0  0  0  0
 27  2  1  6  0  0  0
 27 14  1  0  0  0  0
 28 23  1  0  0  0  0
 30 32  1  0  0  0  0
 30 29  1  0  0  0  0
 32 31  1  0  0  0  0
M  END
>  <MODEL>
7

>  <REMARK>
 VINA RESULT:      -5.1      6.065      9.963
  Name = 
  3 active torsions:
  status: ('A' for Active; 'I' for Inactive)
    1  A    between atoms: S_1  and  C_10
    2  A    between atoms: S_1  and  C_20
    3  A    between atoms: C_10  and  C_24
                            x       y       z     vdW  Elec       q    Type
                         _______ _______ _______ _____ _____    ______ ____

>  <TORSDO>
F 3

$$$$
=
 OpenBabel10262421233D

 32 36  0  0  1  0  0  0  0  0999 V2000
  187.8340  178.6220  137.2750 C   0  0  0  0  0  2  0  0  0  0  0  0
  184.7740  174.5850  135.3170 C   0  0  0  0  0  2  0  0  0  0  0  0
  183.5540  178.1260  138.9960 C   0  0  0  0  0  3  0  0  0  0  0  0
  183.0680  176.9530  139.5620 C   0  0  0  0  0  3  0  0  0  0  0  0
  183.2220  172.5880  135.2330 C   0  0  0  0  0  0  0  0  0  0  0  0
  181.9850  171.9780  135.7170 C   0  0  0  0  0  0  0  0  0  0  0  0
  186.6960  175.7510  136.2730 C   0  0  1  0  0  3  0  0  0  0  0  0
  185.4820  177.3040  134.8600 C   0  0  0  0  0  2  0  0  0  0  0  0
  180.1220  171.7050  136.8430 C   0  0  0  0  0  0  0  0  0  0  0  0
  187.3670  178.0320  135.9460 C   0  0  0  0  0  2  0  0  0  0  0  0
  183.7240  178.2100  137.6170 C   0  0  0  0  0  3  0  0  0  0  0  0
  183.6350  177.4190  135.0190 S   0  0  0  0  0  0  0  0  0  0  0  0
  183.4320  177.1230  136.7830 C   0  0  0  0  0  0  0  0  0  0  0  0
  182.5380  174.6730  136.5890 C   0  0  0  0  0  0  0  0  0  0  0  0
  180.3720  170.4560  136.2050 N   0  0  0  0  0  0  0  0  0  0  0  0
  188.5890  176.3750  137.6810 O   0  0  0  0  0  0  0  0  0  0  0  0
  186.2140  177.1530  136.1250 N   0  0  2  0  0  0  0  0  0  0  0  0
  181.4770  170.6120  135.5380 C   0  0  0  0  0  3  0  0  0  0  0  0
  187.4590  175.5560  137.5930 C   0  0  0  0  0  2  0  0  0  0  0  0
  188.1250  177.5380  138.3070 C   0  0  1  0  0  3  0  0  0  0  0  0
  182.7480  175.8680  138.7480 C   0  0  0  0  0  3  0  0  0  0  0  0
  182.9100  175.9180  137.3490 C   0  0  0  0  0  0  0  0  0  0  0  0
  181.4640  173.9790  137.0280 C   0  0  0  0  0  3  0  0  0  0  0  0
  185.5220  174.8330  136.3850 C   0  0  0  0  0  2  0  0  0  0  0  0
  184.0720  171.9120  134.5940 O   0  0  0  0  0  0  0  0  0  0  0  0
  179.1470  171.9280  137.6060 O   0  0  0  0  0  0  0  0  0  0  0  0
  183.3750  174.0800  135.4320 C   0  0  1  0  0  3  0  0  0  0  0  0
  181.1610  172.6430  136.4940 C   0  0  0  0  0  0  0  0  0  0  0  0
  189.1470  178.0450  139.3090 C   0  0  0  0  0  2  0  0  0  0  0  0
  188.6990  177.5220  140.9960 S   0  0  0  0  0  0  0  0  0  0  0  0
  186.3880  178.2500  142.2630 C   0  0  0  0  0  1  0  0  0  0  0  0
  187.2520  178.6190  141.0750 C   0  0  0  0  0  2  0  0  0  0  0  0
  1 20  1  0  0  0  0
  2 24  1  0  0  0  0
  3  4  1  0  0  0  0
  5 27  1  0  0  0  0
  5  6  1  0  0  0  0
  6 28  2  0  0  0  0
  7 24  1  1  0  0  0
  7 19  1  0  0  0  0
  8 12  1  0  0  0  0
  9 26  2  0  0  0  0
 10 17  1  0  0  0  0
 10  1  1  0  0  0  0
 11  3  2  0  0  0  0
 12 13  1  0  0  0  0
 13 22  2  0  0  0  0
 13 11  1  0  0  0  0
 14 23  2  0  0  0  0
 14 22  1  0  0  0  0
 15  9  1  0  0  0  0
 16 20  1  0  0  0  0
 17  8  1  6  0  0  0
 17  7  1  0  0  0  0
 18  6  1  0  0  0  0
 18 15  2  0  0  0  0
 19 16  1  0  0  0  0
 20 29  1  1  0  0  0
 21  4  2  0  0  0  0
 22 21  1  0  0  0  0
 25  5  2  0  0  0  0
 27  2  1  1  0  0  0
 27 14  1  0  0  0  0
 28  9  1  0  0  0  0
 28 23  1  0  0  0  0
 29 30  1  0  0  0  0
 30 32  1  0  0  0  0
 32 31  1  0  0  0  0
M  END
>  <MODEL>
8

>  <REMARK>
 VINA RESULT:      -5.0      4.657      7.021
  Name = 
  3 active torsions:
  status: ('A' for Active; 'I' for Inactive)
    1  A    between atoms: S_1  and  C_10
    2  A    between atoms: S_1  and  C_20
    3  A    between atoms: C_10  and  C_24
                            x       y       z     vdW  Elec       q    Type
                         _______ _______ _______ _____ _____    ______ ____

>  <TORSDO>
F 3

$$$$
=
 OpenBabel10262421233D

 32 36  0  0  1  0  0  0  0  0999 V2000
  187.9000  178.4550  139.5320 C   0  0  0  0  0  2  0  0  0  0  0  0
  191.8910  175.8180  136.9640 C   0  0  0  0  0  2  0  0  0  0  0  0
  186.8270  174.4960  137.3660 C   0  0  0  0  0  3  0  0  0  0  0  0
  187.4550  173.2780  137.6010 C   0  0  0  0  0  3  0  0  0  0  0  0
  193.4030  173.9430  136.1860 C   0  0  0  0  0  0  0  0  0  0  0  0
  193.4940  172.5820  135.6620 C   0  0  0  0  0  0  0  0  0  0  0  0
  190.6810  176.9830  138.7380 C   0  0  1  0  0  3  0  0  0  0  0  0
  189.9330  177.8520  136.5990 C   0  0  0  0  0  2  0  0  0  0  0  0
  192.8790  170.5980  134.9540 C   0  0  0  0  0  0  0  0  0  0  0  0
  189.0200  178.7020  138.5250 C   0  0  0  0  0  2  0  0  0  0  0  0
  187.4940  175.4940  136.6610 C   0  0  0  0  0  3  0  0  0  0  0  0
  189.4950  176.6630  135.2420 S   0  0  0  0  0  0  0  0  0  0  0  0
  188.8020  175.3030  136.1980 C   0  0  0  0  0  0  0  0  0  0  0  0
  190.8450  173.6860  135.9690 C   0  0  0  0  0  0  0  0  0  0  0  0
  194.2980  170.5440  135.0640 N   0  0  0  0  0  0  0  0  0  0  0  0
  189.6900  177.5890  140.8840 O   0  0  0  0  0  0  0  0  0  0  0  0
  189.5070  177.4520  137.9480 N   0  0  2  0  0  0  0  0  0  0  0  0
  194.6670  171.7170  135.4850 C   0  0  0  0  0  3  0  0  0  0  0  0
  190.2690  176.5470  140.1530 C   0  0  0  0  0  2  0  0  0  0  0  0
  188.3200  177.4760  140.6220 C   0  0  1  0  0  3  0  0  0  0  0  0
  188.7470  173.0600  137.1280 C   0  0  0  0  0  3  0  0  0  0  0  0
  189.4530  174.0480  136.4130 C   0  0  0  0  0  0  0  0  0  0  0  0
  191.0530  172.4140  135.5640 C   0  0  0  0  0  3  0  0  0  0  0  0
  191.2340  175.7420  138.1140 C   0  0  0  0  0  2  0  0  0  0  0  0
  194.4230  174.5400  136.6230 O   0  0  0  0  0  0  0  0  0  0  0  0
  192.1590  169.6280  134.6010 O   0  0  0  0  0  0  0  0  0  0  0  0
  192.0630  174.6350  136.0710 C   0  0  1  0  0  3  0  0  0  0  0  0
  192.4140  171.9110  135.3290 C   0  0  0  0  0  0  0  0  0  0  0  0
  187.5160  177.7350  141.8830 C   0  0  0  0  0  2  0  0  0  0  0  0
  188.4750  177.2670  143.3590 S   0  0  0  0  0  0  0  0  0  0  0  0
  187.5930  177.7210  145.9080 C   0  0  0  0  0  1  0  0  0  0  0  0
  187.0810  177.5420  144.4930 C   0  0  0  0  0  2  0  0  0  0  0  0
  1 20  1  0  0  0  0
  2 24  1  0  0  0  0
  3  4  1  0  0  0  0
  5 25  2  0  0  0  0
  6  5  1  0  0  0  0
  7 24  1  6  0  0  0
  7 19  1  0  0  0  0
  9 15  1  0  0  0  0
  9 28  1  0  0  0  0
 10  1  1  0  0  0  0
 11  3  2  0  0  0  0
 12 13  1  0  0  0  0
 12  8  1  0  0  0  0
 13 22  2  0  0  0  0
 13 11  1  0  0  0  0
 14 27  1  0  0  0  0
 14 22  1  0  0  0  0
 15 18  2  0  0  0  0
 17  8  1  6  0  0  0
 17 10  1  0  0  0  0
 17  7  1  0  0  0  0
 18  6  1  0  0  0  0
 19 16  1  0  0  0  0
 20 16  1  0  0  0  0
 20 29  1  1  0  0  0
 21  4  2  0  0  0  0
 22 21  1  0  0  0  0
 23 14  2  0  0  0  0
 26  9  2  0  0  0  0
 27  5  1  0  0  0  0
 27  2  1  1  0  0  0
 28 23  1  0  0  0  0
 28  6  2  0  0  0  0
 29 30  1  0  0  0  0
 30 32  1  0  0  0  0
 32 31  1  0  0  0  0
M  END
>  <MODEL>
9

>  <REMARK>
 VINA RESULT:      -5.0      3.073      8.660
  Name = 
  3 active torsions:
  status: ('A' for Active; 'I' for Inactive)
    1  A    between atoms: S_1  and  C_10
    2  A    between atoms: S_1  and  C_20
    3  A    between atoms: C_10  and  C_24
                            x       y       z     vdW  Elec       q    Type
                         _______ _______ _______ _____ _____    ______ ____

>  <TORSDO>
F 3

$$$$
