=
 OpenBabel10262419143D

 34 38  0  0  1  0  0  0  0  0999 V2000
  190.4630  177.2370  146.4740 C   0  0  0  0  0  0  0  0  0  0  0  0
  191.4520  175.4540  145.1510 C   0  0  0  0  0  0  0  0  0  0  0  0
  189.5960  176.9400  144.1620 C   0  0  0  0  0  0  0  0  0  0  0  0
  188.8710  177.3600  141.8760 C   0  0  0  0  0  0  0  0  0  0  0  0
  191.3500  176.9580  147.5150 C   0  0  0  0  0  3  0  0  0  0  0  0
  192.3290  175.1810  146.2070 C   0  0  0  0  0  3  0  0  0  0  0  0
  191.3560  176.8750  142.3690 C   0  0  0  0  0  2  0  0  0  0  0  0
  190.5600  176.5520  145.2420 C   0  0  0  0  0  0  0  0  0  0  0  0
  191.5710  177.5650  141.0230 C   0  0  0  0  0  2  0  0  0  0  0  0
  189.1360  177.4210  140.5680 C   0  0  0  0  0  3  0  0  0  0  0  0
  192.2960  175.9440  147.3730 C   0  0  0  0  0  3  0  0  0  0  0  0
  188.2540  177.4370  144.6090 C   0  0  0  0  0  0  0  0  0  0  0  0
  189.3690  178.2370  146.6910 C   0  0  0  0  0  2  0  0  0  0  0  0
  191.4090  174.4700  144.0290 C   0  0  0  0  0  1  0  0  0  0  0  0
  187.5860  177.6400  142.3330 O   0  0  0  0  0  0  0  0  0  0  0  0
  187.2850  177.7160  143.7010 C   0  0  0  0  0  0  0  0  0  0  0  0
  190.5020  177.1080  140.0320 C   0  0  1  0  0  3  0  0  0  0  0  0
  189.9330  177.0330  142.8560 C   0  0  0  0  0  0  0  0  0  0  0  0
  188.0690  177.7070  146.0820 C   0  0  0  0  0  2  0  0  0  0  0  0
  183.6340  178.6300  143.3580 C   0  0  0  0  0  0  0  0  0  0  0  0
  183.2570  178.8310  144.6880 C   0  0  0  0  0  3  0  0  0  0  0  0
  185.9090  178.1350  144.0660 C   0  0  0  0  0  0  0  0  0  0  0  0
  184.1970  178.6760  145.7100 C   0  0  0  0  0  3  0  0  0  0  0  0
  184.9510  178.2780  143.0500 C   0  0  0  0  0  3  0  0  0  0  0  0
  185.5130  178.3240  145.4010 C   0  0  0  0  0  3  0  0  0  0  0  0
  182.6760  178.7800  142.3170 N   0  0  0  0  0  1  0  0  0  0  0  0
  190.6870  177.7900  138.6880 C   0  0  0  0  0  2  0  0  0  0  0  0
  189.5480  177.4280  137.7520 C   0  0  0  0  0  2  0  0  0  0  0  0
  189.0910  179.7810  137.8790 O   0  0  0  0  0  1  0  0  0  0  0  0
  189.0430  178.6690  137.0320 C   0  0  2  0  0  3  0  0  0  0  0  0
  187.6280  178.4650  136.4940 C   0  0  0  0  0  2  0  0  0  0  0  0
  186.2880  178.6210  138.5970 O   0  0  0  0  0  1  0  0  0  0  0  0
  186.7060  177.8670  137.5090 C   0  0  0  0  0  0  0  0  0  0  0  0
  186.2900  176.6880  137.3640 O   0  0  0  0  0  0  0  0  0  0  0  0
  1 13  1  0  0  0  0
  1  5  1  0  0  0  0
  2  8  1  0  0  0  0
  2  6  2  0  0  0  0
  3 12  1  0  0  0  0
  3  8  1  0  0  0  0
  4 15  1  0  0  0  0
  4 18  1  0  0  0  0
  6 11  1  0  0  0  0
  7 18  1  0  0  0  0
  8  1  2  0  0  0  0
  9  7  1  0  0  0  0
 10  4  2  0  0  0  0
 11  5  2  0  0  0  0
 12 19  1  0  0  0  0
 14  2  1  0  0  0  0
 15 16  1  0  0  0  0
 16 22  1  0  0  0  0
 16 12  2  0  0  0  0
 17 27  1  6  0  0  0
 17 10  1  0  0  0  0
 17  9  1  0  0  0  0
 18  3  2  0  0  0  0
 19 13  1  0  0  0  0
 20 21  1  0  0  0  0
 21 23  2  0  0  0  0
 22 25  2  0  0  0  0
 24 20  2  0  0  0  0
 24 22  1  0  0  0  0
 25 23  1  0  0  0  0
 26 20  1  0  0  0  0
 28 27  1  0  0  0  0
 30 28  1  0  0  0  0
 30 29  1  1  0  0  0
 31 30  1  0  0  0  0
 31 33  1  0  0  0  0
 33 32  1  0  0  0  0
 34 33  2  0  0  0  0
M  END
>  <MODEL>
1

>  <REMARK>
 VINA RESULT:      -9.8      0.000      0.000
  Name = 
  6 active torsions:
  status: ('A' for Active; 'I' for Inactive)
    1  A    between atoms: C_3  and  C_13
    2  A    between atoms: C_3  and  C_29
    3  A    between atoms: C_12  and  C_28
    4  A    between atoms: C_13  and  C_33
    5  A    between atoms: C_20  and  C_22
    6  A    between atoms: C_22  and  C_33
                            x       y       z     vdW  Elec       q    Type
                         _______ _______ _______ _____ _____    ______ ____

>  <TORSDO>
F 6

$$$$
=
 OpenBabel10262419143D

 34 38  0  0  1  0  0  0  0  0999 V2000
  190.3550  177.4090  146.4030 C   0  0  0  0  0  0  0  0  0  0  0  0
  191.5760  175.5850  145.3580 C   0  0  0  0  0  0  0  0  0  0  0  0
  189.8300  176.9260  144.0210 C   0  0  0  0  0  0  0  0  0  0  0  0
  189.4180  177.1640  141.6330 C   0  0  0  0  0  0  0  0  0  0  0  0
  191.0960  177.2360  147.5730 C   0  0  0  0  0  3  0  0  0  0  0  0
  192.3050  175.4190  146.5400 C   0  0  0  0  0  3  0  0  0  0  0  0
  191.8240  176.8160  142.4950 C   0  0  0  0  0  2  0  0  0  0  0  0
  190.6450  176.6500  145.2470 C   0  0  0  0  0  0  0  0  0  0  0  0
  192.2030  177.4250  141.1460 C   0  0  0  0  0  2  0  0  0  0  0  0
  189.8600  177.1510  140.3730 C   0  0  0  0  0  3  0  0  0  0  0  0
  192.0860  176.2550  147.6340 C   0  0  0  0  0  3  0  0  0  0  0  0
  188.4230  177.3950  144.2440 C   0  0  0  0  0  0  0  0  0  0  0  0
  189.2100  178.3750  146.3970 C   0  0  0  0  0  2  0  0  0  0  0  0
  191.7210  174.5300  144.3130 C   0  0  0  0  0  1  0  0  0  0  0  0
  188.0730  177.4210  141.8890 O   0  0  0  0  0  0  0  0  0  0  0  0
  187.5820  177.5740  143.1940 C   0  0  0  0  0  0  0  0  0  0  0  0
  191.2970  176.8600  140.0520 C   0  0  1  0  0  3  0  0  0  0  0  0
  190.3420  176.9470  142.7700 C   0  0  0  0  0  0  0  0  0  0  0  0
  188.0260  177.7530  145.6540 C   0  0  0  0  0  2  0  0  0  0  0  0
  184.3240  178.6380  144.7860 C   0  0  0  0  0  0  0  0  0  0  0  0
  183.4900  178.7840  143.6740 C   0  0  0  0  0  3  0  0  0  0  0  0
  186.1560  177.9580  143.3360 C   0  0  0  0  0  0  0  0  0  0  0  0
  183.9850  178.5290  142.3940 C   0  0  0  0  0  3  0  0  0  0  0  0
  185.6510  178.2330  144.6160 C   0  0  0  0  0  3  0  0  0  0  0  0
  185.3110  178.1240  142.2250 C   0  0  0  0  0  3  0  0  0  0  0  0
  183.8230  178.9050  146.0900 N   0  0  0  0  0  1  0  0  0  0  0  0
  191.6460  177.4590  138.7020 C   0  0  0  0  0  2  0  0  0  0  0  0
  192.0220  176.3630  137.7200 C   0  0  0  0  0  2  0  0  0  0  0  0
  194.1830  176.7100  136.7360 O   0  0  0  0  0  1  0  0  0  0  0  0
  193.5140  176.0820  137.7910 C   0  0  2  0  0  3  0  0  0  0  0  0
  193.7990  174.5800  137.7870 C   0  0  0  0  0  2  0  0  0  0  0  0
  195.8020  175.2140  139.1370 O   0  0  0  0  0  1  0  0  0  0  0  0
  194.9930  174.2170  138.6100 C   0  0  0  0  0  0  0  0  0  0  0  0
  195.2510  173.0080  138.8460 O   0  0  0  0  0  0  0  0  0  0  0  0
  1  5  1  0  0  0  0
  2  6  2  0  0  0  0
  3 12  1  0  0  0  0
  3  8  1  0  0  0  0
  4 15  1  0  0  0  0
  4 18  1  0  0  0  0
  5 11  2  0  0  0  0
  6 11  1  0  0  0  0
  7 18  1  0  0  0  0
  8  2  1  0  0  0  0
  8  1  2  0  0  0  0
  9  7  1  0  0  0  0
 10  4  2  0  0  0  0
 12 19  1  0  0  0  0
 13  1  1  0  0  0  0
 14  2  1  0  0  0  0
 15 16  1  0  0  0  0
 16 22  1  0  0  0  0
 16 12  2  0  0  0  0
 17 27  1  6  0  0  0
 17 10  1  0  0  0  0
 17  9  1  0  0  0  0
 18  3  2  0  0  0  0
 19 13  1  0  0  0  0
 20 26  1  0  0  0  0
 21 20  2  0  0  0  0
 22 24  2  0  0  0  0
 23 21  1  0  0  0  0
 24 20  1  0  0  0  0
 25 23  2  0  0  0  0
 25 22  1  0  0  0  0
 28 30  1  0  0  0  0
 28 27  1  0  0  0  0
 30 29  1  6  0  0  0
 31 30  1  0  0  0  0
 31 33  1  0  0  0  0
 33 34  2  0  0  0  0
 33 32  1  0  0  0  0
M  END
>  <MODEL>
2

>  <REMARK>
 VINA RESULT:      -9.3      2.870      3.668
  Name = 
  6 active torsions:
  status: ('A' for Active; 'I' for Inactive)
    1  A    between atoms: C_3  and  C_13
    2  A    between atoms: C_3  and  C_29
    3  A    between atoms: C_12  and  C_28
    4  A    between atoms: C_13  and  C_33
    5  A    between atoms: C_20  and  C_22
    6  A    between atoms: C_22  and  C_33
                            x       y       z     vdW  Elec       q    Type
                         _______ _______ _______ _____ _____    ______ ____

>  <TORSDO>
F 6

$$$$
=
 OpenBabel10262419143D

 34 38  0  0  1  0  0  0  0  0999 V2000
  185.2850  178.9630  144.7980 C   0  0  0  0  0  0  0  0  0  0  0  0
  187.0370  177.3170  144.4370 C   0  0  0  0  0  0  0  0  0  0  0  0
  185.6870  178.2470  142.4510 C   0  0  0  0  0  0  0  0  0  0  0  0
  186.0940  178.2600  140.0500 C   0  0  0  0  0  0  0  0  0  0  0  0
  185.5930  178.9940  146.1590 C   0  0  0  0  0  3  0  0  0  0  0  0
  187.3290  177.3540  145.8040 C   0  0  0  0  0  3  0  0  0  0  0  0
  188.0790  178.3900  141.6920 C   0  0  0  0  0  2  0  0  0  0  0  0
  186.0600  178.1940  143.9010 C   0  0  0  0  0  0  0  0  0  0  0  0
  188.8090  178.9700  140.4820 C   0  0  0  0  0  2  0  0  0  0  0  0
  186.9410  178.2450  139.0180 C   0  0  0  0  0  3  0  0  0  0  0  0
  186.6300  178.2060  146.6580 C   0  0  0  0  0  3  0  0  0  0  0  0
  184.2390  178.4780  142.1400 C   0  0  0  0  0  0  0  0  0  0  0  0
  184.0870  179.7130  144.3000 C   0  0  0  0  0  2  0  0  0  0  0  0
  187.6820  176.2390  143.6310 C   0  0  0  0  0  1  0  0  0  0  0  0
  184.7220  178.2950  139.8160 O   0  0  0  0  0  0  0  0  0  0  0  0
  183.7940  178.4420  140.8580 C   0  0  0  0  0  0  0  0  0  0  0  0
  188.4260  178.1890  139.2250 C   0  0  1  0  0  3  0  0  0  0  0  0
  186.5910  178.2790  141.4460 C   0  0  0  0  0  0  0  0  0  0  0  0
  183.3330  178.8490  143.2870 C   0  0  0  0  0  2  0  0  0  0  0  0
  180.5800  179.9810  139.6000 C   0  0  0  0  0  0  0  0  0  0  0  0
  179.7010  178.8950  139.6400 C   0  0  0  0  0  3  0  0  0  0  0  0
  182.3670  178.5800  140.4750 C   0  0  0  0  0  0  0  0  0  0  0  0
  180.1510  177.6500  140.0860 C   0  0  0  0  0  3  0  0  0  0  0  0
  181.9070  179.8210  140.0090 C   0  0  0  0  0  3  0  0  0  0  0  0
  181.4780  177.4920  140.4950 C   0  0  0  0  0  3  0  0  0  0  0  0
  180.1250  181.2470  139.1390 N   0  0  0  0  0  1  0  0  0  0  0  0
  189.1300  178.7540  138.0060 C   0  0  0  0  0  2  0  0  0  0  0  0
  188.6220  178.0790  136.7430 C   0  0  0  0  0  2  0  0  0  0  0  0
  189.8750  177.2110  134.8890 O   0  0  0  0  0  1  0  0  0  0  0  0
  189.6280  177.0480  136.2560 C   0  0  2  0  0  3  0  0  0  0  0  0
  189.1540  175.6260  136.5500 C   0  0  0  0  0  2  0  0  0  0  0  0
  190.7150  175.5870  138.5000 O   0  0  0  0  0  1  0  0  0  0  0  0
  190.0630  174.8970  137.4870 C   0  0  0  0  0  0  0  0  0  0  0  0
  190.2180  173.6530  137.3740 O   0  0  0  0  0  0  0  0  0  0  0  0
  1  5  1  0  0  0  0
  2  6  2  0  0  0  0
  3  8  1  0  0  0  0
  4 18  1  0  0  0  0
  5 11  2  0  0  0  0
  6 11  1  0  0  0  0
  8  2  1  0  0  0  0
  8  1  2  0  0  0  0
  9  7  1  0  0  0  0
 10 17  1  0  0  0  0
 10  4  2  0  0  0  0
 12  3  1  0  0  0  0
 12 19  1  0  0  0  0
 13  1  1  0  0  0  0
 14  2  1  0  0  0  0
 15  4  1  0  0  0  0
 15 16  1  0  0  0  0
 16 12  2  0  0  0  0
 17 27  1  6  0  0  0
 17  9  1  0  0  0  0
 18  7  1  0  0  0  0
 18  3  2  0  0  0  0
 19 13  1  0  0  0  0
 20 21  2  0  0  0  0
 20 24  1  0  0  0  0
 21 23  1  0  0  0  0
 22 25  1  0  0  0  0
 22 16  1  0  0  0  0
 23 25  2  0  0  0  0
 24 22  2  0  0  0  0
 26 20  1  0  0  0  0
 28 27  1  0  0  0  0
 30 29  1  6  0  0  0
 30 31  1  0  0  0  0
 30 28  1  0  0  0  0
 31 33  1  0  0  0  0
 33 32  1  0  0  0  0
 34 33  2  0  0  0  0
M  END
>  <MODEL>
3

>  <REMARK>
 VINA RESULT:      -9.2      2.824      4.689
  Name = 
  6 active torsions:
  status: ('A' for Active; 'I' for Inactive)
    1  A    between atoms: C_3  and  C_13
    2  A    between atoms: C_3  and  C_29
    3  A    between atoms: C_12  and  C_28
    4  A    between atoms: C_13  and  C_33
    5  A    between atoms: C_20  and  C_22
    6  A    between atoms: C_22  and  C_33
                            x       y       z     vdW  Elec       q    Type
                         _______ _______ _______ _____ _____    ______ ____

>  <TORSDO>
F 6

$$$$
=
 OpenBabel10262419143D

 34 38  0  0  1  0  0  0  0  0999 V2000
  191.1720  175.8270  145.2370 C   0  0  0  0  0  0  0  0  0  0  0  0
  190.4240  177.5360  146.7950 C   0  0  0  0  0  0  0  0  0  0  0  0
  189.3180  177.3010  144.4810 C   0  0  0  0  0  0  0  0  0  0  0  0
  187.2040  178.1090  143.5810 C   0  0  0  0  0  0  0  0  0  0  0  0
  192.0660  175.3440  146.1940 C   0  0  0  0  0  3  0  0  0  0  0  0
  191.3310  177.0460  147.7410 C   0  0  0  0  0  3  0  0  0  0  0  0
  187.3830  177.4760  146.0750 C   0  0  0  0  0  2  0  0  0  0  0  0
  190.2730  176.8700  145.5520 C   0  0  0  0  0  0  0  0  0  0  0  0
  185.8630  177.3550  145.9680 C   0  0  0  0  0  2  0  0  0  0  0  0
  185.9370  178.4900  143.7620 C   0  0  0  0  0  3  0  0  0  0  0  0
  192.1300  175.9400  147.4530 C   0  0  0  0  0  3  0  0  0  0  0  0
  189.7910  177.1570  143.0660 C   0  0  0  0  0  0  0  0  0  0  0  0
  191.2080  175.2620  143.8500 C   0  0  0  0  0  2  0  0  0  0  0  0
  189.7580  178.8370  147.0990 C   0  0  0  0  0  1  0  0  0  0  0  0
  187.7540  178.1250  142.3010 O   0  0  0  0  0  0  0  0  0  0  0  0
  189.0330  177.6140  142.0360 C   0  0  0  0  0  0  0  0  0  0  0  0
  185.3130  178.5060  145.1260 C   0  0  1  0  0  3  0  0  0  0  0  0
  188.0280  177.6310  144.7160 C   0  0  0  0  0  0  0  0  0  0  0  0
  191.0750  176.4000  142.8360 C   0  0  0  0  0  2  0  0  0  0  0  0
  189.2720  178.4900  138.3680 C   0  0  0  0  0  0  0  0  0  0  0  0
  190.2950  177.6450  137.9310 C   0  0  0  0  0  3  0  0  0  0  0  0
  189.4640  177.5810  140.6170 C   0  0  0  0  0  0  0  0  0  0  0  0
  190.9120  176.7750  138.8330 C   0  0  0  0  0  3  0  0  0  0  0  0
  188.8640  178.4620  139.7040 C   0  0  0  0  0  3  0  0  0  0  0  0
  190.5030  176.7480  140.1690 C   0  0  0  0  0  3  0  0  0  0  0  0
  188.6480  179.3820  137.4520 N   0  0  0  0  0  1  0  0  0  0  0  0
  183.8040  178.4010  144.9940 C   0  0  0  0  0  2  0  0  0  0  0  0
  183.2980  179.3770  143.9460 C   0  0  0  0  0  2  0  0  0  0  0  0
  183.0610  178.6250  141.6790 O   0  0  0  0  0  1  0  0  0  0  0  0
  182.4320  178.6530  142.9270 C   0  0  2  0  0  3  0  0  0  0  0  0
  181.0490  179.2930  142.8160 C   0  0  0  0  0  2  0  0  0  0  0  0
  179.6830  177.8640  144.3440 O   0  0  0  0  0  1  0  0  0  0  0  0
  179.9410  178.3190  143.0580 C   0  0  0  0  0  0  0  0  0  0  0  0
  179.2250  177.9290  142.0990 O   0  0  0  0  0  0  0  0  0  0  0  0
  1  8  2  0  0  0  0
  1  5  1  0  0  0  0
  2 14  1  0  0  0  0
  2  6  2  0  0  0  0
  3 18  2  0  0  0  0
  3  8  1  0  0  0  0
  4 10  2  0  0  0  0
  4 18  1  0  0  0  0
  5 11  2  0  0  0  0
  8  2  1  0  0  0  0
  9  7  1  0  0  0  0
 10 17  1  0  0  0  0
 11  6  1  0  0  0  0
 12  3  1  0  0  0  0
 13  1  1  0  0  0  0
 15  4  1  0  0  0  0
 16 15  1  0  0  0  0
 16 12  2  0  0  0  0
 17 27  1  6  0  0  0
 17  9  1  0  0  0  0
 18  7  1  0  0  0  0
 19 12  1  0  0  0  0
 19 13  1  0  0  0  0
 20 24  1  0  0  0  0
 21 20  2  0  0  0  0
 21 23  1  0  0  0  0
 22 16  1  0  0  0  0
 23 25  2  0  0  0  0
 24 22  2  0  0  0  0
 25 22  1  0  0  0  0
 26 20  1  0  0  0  0
 28 27  1  0  0  0  0
 30 29  1  6  0  0  0
 30 28  1  0  0  0  0
 31 30  1  0  0  0  0
 31 33  1  0  0  0  0
 33 32  1  0  0  0  0
 34 33  2  0  0  0  0
M  END
>  <MODEL>
4

>  <REMARK>
 VINA RESULT:      -8.8      2.683      6.211
  Name = 
  6 active torsions:
  status: ('A' for Active; 'I' for Inactive)
    1  A    between atoms: C_3  and  C_13
    2  A    between atoms: C_3  and  C_29
    3  A    between atoms: C_12  and  C_28
    4  A    between atoms: C_13  and  C_33
    5  A    between atoms: C_20  and  C_22
    6  A    between atoms: C_22  and  C_33
                            x       y       z     vdW  Elec       q    Type
                         _______ _______ _______ _____ _____    ______ ____

>  <TORSDO>
F 6

$$$$
=
 OpenBabel10262419143D

 34 38  0  0  1  0  0  0  0  0999 V2000
  186.7670  177.2820  144.4980 C   0  0  0  0  0  0  0  0  0  0  0  0
  185.2880  179.1840  144.8230 C   0  0  0  0  0  0  0  0  0  0  0  0
  185.9260  178.4120  142.4500 C   0  0  0  0  0  0  0  0  0  0  0  0
  184.9410  178.8400  140.2640 C   0  0  0  0  0  0  0  0  0  0  0  0
  186.8030  177.0740  145.8790 C   0  0  0  0  0  3  0  0  0  0  0  0
  185.3410  178.9680  146.2040 C   0  0  0  0  0  3  0  0  0  0  0  0
  183.4320  178.7140  142.3520 C   0  0  0  0  0  2  0  0  0  0  0  0
  185.9370  178.2820  143.9420 C   0  0  0  0  0  0  0  0  0  0  0  0
  182.3370  178.4400  141.3220 C   0  0  0  0  0  2  0  0  0  0  0  0
  183.8810  179.1330  139.5070 C   0  0  0  0  0  3  0  0  0  0  0  0
  186.0730  177.9030  146.7290 C   0  0  0  0  0  3  0  0  0  0  0  0
  187.1910  178.0430  141.7360 C   0  0  0  0  0  0  0  0  0  0  0  0
  187.6580  176.4680  143.6110 C   0  0  0  0  0  2  0  0  0  0  0  0
  184.6580  180.4530  144.3550 C   0  0  0  0  0  1  0  0  0  0  0  0
  186.1870  178.6600  139.6660 O   0  0  0  0  0  0  0  0  0  0  0  0
  187.3040  178.2250  140.3950 C   0  0  0  0  0  0  0  0  0  0  0  0
  182.5260  179.3530  140.1120 C   0  0  1  0  0  3  0  0  0  0  0  0
  184.8100  178.6640  141.7290 C   0  0  0  0  0  0  0  0  0  0  0  0
  188.2750  177.3740  142.5440 C   0  0  0  0  0  2  0  0  0  0  0  0
  190.9350  177.4980  139.6430 C   0  0  0  0  0  0  0  0  0  0  0  0
  190.9240  177.3600  138.2520 C   0  0  0  0  0  3  0  0  0  0  0  0
  188.5460  177.9600  139.6290 C   0  0  0  0  0  0  0  0  0  0  0  0
  189.7270  177.5110  137.5480 C   0  0  0  0  0  3  0  0  0  0  0  0
  189.7520  177.7900  140.3270 C   0  0  0  0  0  3  0  0  0  0  0  0
  188.5450  177.8020  138.2320 C   0  0  0  0  0  3  0  0  0  0  0  0
  192.1510  177.3370  140.3630 N   0  0  0  0  0  1  0  0  0  0  0  0
  181.4560  179.0910  139.0680 C   0  0  0  0  0  2  0  0  0  0  0  0
  181.5950  180.0680  137.9130 C   0  0  0  0  0  2  0  0  0  0  0  0
  179.9680  181.3580  139.1170 O   0  0  0  0  0  1  0  0  0  0  0  0
  181.1220  181.4500  138.3330 C   0  0  2  0  0  3  0  0  0  0  0  0
  180.8760  182.3470  137.1210 C   0  0  0  0  0  2  0  0  0  0  0  0
  182.1260  184.5010  137.3090 O   0  0  0  0  0  0  0  0  0  0  0  0
  180.9360  183.8030  137.4580 C   0  0  0  0  0  0  0  0  0  0  0  0
  179.9020  184.4010  137.8530 O   0  0  0  0  0  1  0  0  0  0  0  0
  1  5  1  0  0  0  0
  2  6  2  0  0  0  0
  3  8  1  0  0  0  0
  4 18  1  0  0  0  0
  5 11  2  0  0  0  0
  6 11  1  0  0  0  0
  8  1  2  0  0  0  0
  8  2  1  0  0  0  0
  9  7  1  0  0  0  0
 10 17  1  0  0  0  0
 10  4  2  0  0  0  0
 12  3  1  0  0  0  0
 12 19  1  0  0  0  0
 13  1  1  0  0  0  0
 14  2  1  0  0  0  0
 15  4  1  0  0  0  0
 15 16  1  0  0  0  0
 16 12  2  0  0  0  0
 17 27  1  6  0  0  0
 17  9  1  0  0  0  0
 18  7  1  0  0  0  0
 18  3  2  0  0  0  0
 19 13  1  0  0  0  0
 20 24  1  0  0  0  0
 20 26  1  0  0  0  0
 21 20  2  0  0  0  0
 22 24  2  0  0  0  0
 22 16  1  0  0  0  0
 23 25  2  0  0  0  0
 23 21  1  0  0  0  0
 25 22  1  0  0  0  0
 28 30  1  0  0  0  0
 28 27  1  0  0  0  0
 30 29  1  6  0  0  0
 31 33  1  0  0  0  0
 31 30  1  0  0  0  0
 32 33  2  0  0  0  0
 33 34  1  0  0  0  0
M  END
>  <MODEL>
5

>  <REMARK>
 VINA RESULT:      -8.8      4.060      7.217
  Name = 
  6 active torsions:
  status: ('A' for Active; 'I' for Inactive)
    1  A    between atoms: C_3  and  C_13
    2  A    between atoms: C_3  and  C_29
    3  A    between atoms: C_12  and  C_28
    4  A    between atoms: C_13  and  C_33
    5  A    between atoms: C_20  and  C_22
    6  A    between atoms: C_22  and  C_33
                            x       y       z     vdW  Elec       q    Type
                         _______ _______ _______ _____ _____    ______ ____

>  <TORSDO>
F 6

$$$$
=
 OpenBabel10262419143D

 34 38  0  0  1  0  0  0  0  0999 V2000
  186.2800  176.7790  136.3310 C   0  0  0  0  0  0  0  0  0  0  0  0
  188.3920  177.9450  136.6270 C   0  0  0  0  0  0  0  0  0  0  0  0
  186.5880  178.0190  138.4640 C   0  0  0  0  0  0  0  0  0  0  0  0
  186.6720  178.6030  140.8270 C   0  0  0  0  0  0  0  0  0  0  0  0
  186.7300  176.2720  135.1110 C   0  0  0  0  0  3  0  0  0  0  0  0
  188.8250  177.4360  135.3990 C   0  0  0  0  0  3  0  0  0  0  0  0
  188.7100  177.4890  139.7030 C   0  0  0  0  0  2  0  0  0  0  0  0
  187.1360  177.5480  137.1520 C   0  0  0  0  0  0  0  0  0  0  0  0
  189.0730  177.1200  141.1410 C   0  0  0  0  0  2  0  0  0  0  0  0
  187.3490  178.6990  141.9740 C   0  0  0  0  0  3  0  0  0  0  0  0
  188.0100  176.5830  134.6560 C   0  0  0  0  0  3  0  0  0  0  0  0
  185.1120  178.2730  138.5210 C   0  0  0  0  0  0  0  0  0  0  0  0
  184.8590  176.5440  136.7430 C   0  0  0  0  0  2  0  0  0  0  0  0
  189.2300  179.0060  137.2600 C   0  0  0  0  0  1  0  0  0  0  0  0
  185.3370  178.9950  140.7790 O   0  0  0  0  0  0  0  0  0  0  0  0
  184.5450  178.7960  139.6380 C   0  0  0  0  0  0  0  0  0  0  0  0
  188.7940  178.3050  142.0640 C   0  0  1  0  0  3  0  0  0  0  0  0
  187.3080  178.0490  139.6080 C   0  0  0  0  0  0  0  0  0  0  0  0
  184.2850  177.8300  137.3400 C   0  0  0  0  0  2  0  0  0  0  0  0
  180.9870  178.8850  140.9090 C   0  0  0  0  0  0  0  0  0  0  0  0
  180.4020  179.8410  140.0730 C   0  0  0  0  0  3  0  0  0  0  0  0
  183.1080  179.1500  139.7460 C   0  0  0  0  0  0  0  0  0  0  0  0
  181.1670  180.4600  139.0820 C   0  0  0  0  0  3  0  0  0  0  0  0
  182.3330  178.5470  140.7490 C   0  0  0  0  0  3  0  0  0  0  0  0
  182.5130  180.1210  138.9230 C   0  0  0  0  0  3  0  0  0  0  0  0
  180.2120  178.2590  141.9240 N   0  0  0  0  0  1  0  0  0  0  0  0
  189.1360  177.9580  143.5020 C   0  0  0  0  0  2  0  0  0  0  0  0
  187.9940  177.1920  144.1460 C   0  0  0  0  0  2  0  0  0  0  0  0
  188.4280  177.6250  146.4660 O   0  0  0  0  0  1  0  0  0  0  0  0
  187.5420  177.8920  145.4180 C   0  0  2  0  0  3  0  0  0  0  0  0
  186.1200  177.4860  145.8020 C   0  0  0  0  0  2  0  0  0  0  0  0
  184.1360  178.9990  145.6740 O   0  0  0  0  0  0  0  0  0  0  0  0
  185.3110  178.6330  146.3170 C   0  0  0  0  0  0  0  0  0  0  0  0
  185.6830  179.2530  147.3470 O   0  0  0  0  0  1  0  0  0  0  0  0
  1 13  1  0  0  0  0
  1  8  1  0  0  0  0
  2  8  2  0  0  0  0
  2 14  1  0  0  0  0
  3 12  1  0  0  0  0
  3 18  2  0  0  0  0
  4 10  2  0  0  0  0
  5  1  2  0  0  0  0
  6  2  1  0  0  0  0
  7  9  1  0  0  0  0
  8  3  1  0  0  0  0
  9 17  1  0  0  0  0
 10 17  1  0  0  0  0
 11  5  1  0  0  0  0
 11  6  2  0  0  0  0
 12 16  2  0  0  0  0
 13 19  1  0  0  0  0
 15  4  1  0  0  0  0
 16 22  1  0  0  0  0
 16 15  1  0  0  0  0
 17 27  1  1  0  0  0
 18  7  1  0  0  0  0
 18  4  1  0  0  0  0
 19 12  1  0  0  0  0
 20 26  1  0  0  0  0
 21 20  2  0  0  0  0
 22 24  2  0  0  0  0
 23 21  1  0  0  0  0
 24 20  1  0  0  0  0
 25 23  2  0  0  0  0
 25 22  1  0  0  0  0
 27 28  1  0  0  0  0
 28 30  1  0  0  0  0
 30 31  1  0  0  0  0
 30 29  1  1  0  0  0
 31 33  1  0  0  0  0
 32 33  2  0  0  0  0
 33 34  1  0  0  0  0
M  END
>  <MODEL>
6

>  <REMARK>
 VINA RESULT:      -8.7      2.804      7.672
  Name = 
  6 active torsions:
  status: ('A' for Active; 'I' for Inactive)
    1  A    between atoms: C_3  and  C_13
    2  A    between atoms: C_3  and  C_29
    3  A    between atoms: C_12  and  C_28
    4  A    between atoms: C_13  and  C_33
    5  A    between atoms: C_20  and  C_22
    6  A    between atoms: C_22  and  C_33
                            x       y       z     vdW  Elec       q    Type
                         _______ _______ _______ _____ _____    ______ ____

>  <TORSDO>
F 6

$$$$
=
 OpenBabel10262419143D

 34 38  0  0  1  0  0  0  0  0999 V2000
  190.4990  177.2670  146.5630 C   0  0  0  0  0  0  0  0  0  0  0  0
  191.6520  175.4590  145.4190 C   0  0  0  0  0  0  0  0  0  0  0  0
  189.8640  176.8500  144.1960 C   0  0  0  0  0  0  0  0  0  0  0  0
  189.3500  177.1540  141.8350 C   0  0  0  0  0  0  0  0  0  0  0  0
  191.2890  177.0560  147.6950 C   0  0  0  0  0  3  0  0  0  0  0  0
  192.4300  175.2540  146.5640 C   0  0  0  0  0  3  0  0  0  0  0  0
  191.7870  176.7600  142.5810 C   0  0  0  0  0  2  0  0  0  0  0  0
  190.7290  176.5340  145.3770 C   0  0  0  0  0  0  0  0  0  0  0  0
  192.1130  177.4000  141.2320 C   0  0  0  0  0  2  0  0  0  0  0  0
  189.7360  177.1690  140.5570 C   0  0  0  0  0  3  0  0  0  0  0  0
  192.2690  176.0640  147.6870 C   0  0  0  0  0  3  0  0  0  0  0  0
  188.4740  177.3270  144.4930 C   0  0  0  0  0  0  0  0  0  0  0  0
  189.3650  178.2440  146.6330 C   0  0  0  0  0  2  0  0  0  0  0  0
  191.7400  174.4290  144.3430 C   0  0  0  0  0  1  0  0  0  0  0  0
  188.0200  177.4180  142.1570 O   0  0  0  0  0  0  0  0  0  0  0  0
  187.5890  177.5410  143.4860 C   0  0  0  0  0  0  0  0  0  0  0  0
  191.1540  176.8730  140.1650 C   0  0  1  0  0  3  0  0  0  0  0  0
  190.3210  176.8990  142.9240 C   0  0  0  0  0  0  0  0  0  0  0  0
  188.1430  177.6530  145.9280 C   0  0  0  0  0  2  0  0  0  0  0  0
  184.3880  178.4920  145.2570 C   0  0  0  0  0  0  0  0  0  0  0  0
  183.5350  178.7730  144.1860 C   0  0  0  0  0  3  0  0  0  0  0  0
  186.1750  177.9360  143.7010 C   0  0  0  0  0  0  0  0  0  0  0  0
  183.9980  178.6470  142.8750 C   0  0  0  0  0  3  0  0  0  0  0  0
  185.7020  178.0820  145.0140 C   0  0  0  0  0  3  0  0  0  0  0  0
  185.3110  178.2380  142.6330 C   0  0  0  0  0  3  0  0  0  0  0  0
  183.9200  178.6270  146.5930 N   0  0  0  0  0  1  0  0  0  0  0  0
  191.4500  177.5030  138.8170 C   0  0  0  0  0  2  0  0  0  0  0  0
  191.8730  176.4400  137.8190 C   0  0  0  0  0  2  0  0  0  0  0  0
  191.1680  174.1460  137.7930 O   0  0  0  0  0  1  0  0  0  0  0  0
  190.7360  175.4580  137.5820 C   0  0  2  0  0  3  0  0  0  0  0  0
  190.1510  175.6110  136.1780 C   0  0  0  0  0  2  0  0  0  0  0  0
  187.7760  176.2860  136.5570 O   0  0  0  0  0  1  0  0  0  0  0  0
  189.0500  176.6200  136.1180 C   0  0  0  0  0  0  0  0  0  0  0  0
  189.2830  177.7820  135.6930 O   0  0  0  0  0  0  0  0  0  0  0  0
  1 13  1  0  0  0  0
  1  5  1  0  0  0  0
  2  6  2  0  0  0  0
  3 12  1  0  0  0  0
  3  8  1  0  0  0  0
  4 15  1  0  0  0  0
  4 18  1  0  0  0  0
  6 11  1  0  0  0  0
  7 18  1  0  0  0  0
  8  2  1  0  0  0  0
  8  1  2  0  0  0  0
  9  7  1  0  0  0  0
 10  4  2  0  0  0  0
 11  5  2  0  0  0  0
 12 19  1  0  0  0  0
 14  2  1  0  0  0  0
 15 16  1  0  0  0  0
 16 22  1  0  0  0  0
 16 12  2  0  0  0  0
 17 27  1  6  0  0  0
 17 10  1  0  0  0  0
 17  9  1  0  0  0  0
 18  3  2  0  0  0  0
 19 13  1  0  0  0  0
 20 26  1  0  0  0  0
 21 20  2  0  0  0  0
 22 24  2  0  0  0  0
 23 21  1  0  0  0  0
 24 20  1  0  0  0  0
 25 23  2  0  0  0  0
 25 22  1  0  0  0  0
 28 27  1  0  0  0  0
 30 29  1  6  0  0  0
 30 28  1  0  0  0  0
 31 30  1  0  0  0  0
 33 31  1  0  0  0  0
 33 32  1  0  0  0  0
 34 33  2  0  0  0  0
M  END
>  <MODEL>
7

>  <REMARK>
 VINA RESULT:      -8.6      1.599      2.122
  Name = 
  6 active torsions:
  status: ('A' for Active; 'I' for Inactive)
    1  A    between atoms: C_3  and  C_13
    2  A    between atoms: C_3  and  C_29
    3  A    between atoms: C_12  and  C_28
    4  A    between atoms: C_13  and  C_33
    5  A    between atoms: C_20  and  C_22
    6  A    between atoms: C_22  and  C_33
                            x       y       z     vdW  Elec       q    Type
                         _______ _______ _______ _____ _____    ______ ____

>  <TORSDO>
F 6

$$$$
=
 OpenBabel10262419143D

 34 38  0  0  1  0  0  0  0  0999 V2000
  190.5050  176.0820  143.5730 C   0  0  0  0  0  0  0  0  0  0  0  0
  190.0810  177.6430  145.3870 C   0  0  0  0  0  0  0  0  0  0  0  0
  188.5760  177.6270  143.2970 C   0  0  0  0  0  0  0  0  0  0  0  0
  186.3530  178.5220  142.8680 C   0  0  0  0  0  0  0  0  0  0  0  0
  191.5450  175.5100  144.3070 C   0  0  0  0  0  3  0  0  0  0  0  0
  191.1320  177.0640  146.1070 C   0  0  0  0  0  3  0  0  0  0  0  0
  186.9600  177.6610  145.2220 C   0  0  0  0  0  2  0  0  0  0  0  0
  189.6970  177.0950  144.1370 C   0  0  0  0  0  0  0  0  0  0  0  0
  185.4430  177.5570  145.3780 C   0  0  0  0  0  2  0  0  0  0  0  0
  185.1460  178.8900  143.3060 C   0  0  0  0  0  3  0  0  0  0  0  0
  191.8440  175.9870  145.5820 C   0  0  0  0  0  3  0  0  0  0  0  0
  188.7860  177.6120  141.8130 C   0  0  0  0  0  0  0  0  0  0  0  0
  190.2820  175.6470  142.1560 C   0  0  0  0  0  2  0  0  0  0  0  0
  189.5070  178.9120  145.9210 C   0  0  0  0  0  1  0  0  0  0  0  0
  186.6650  178.6540  141.5170 O   0  0  0  0  0  0  0  0  0  0  0  0
  187.8670  178.1650  140.9820 C   0  0  0  0  0  0  0  0  0  0  0  0
  184.7750  178.7820  144.7560 C   0  0  1  0  0  3  0  0  0  0  0  0
  187.3560  177.9390  143.7890 C   0  0  0  0  0  0  0  0  0  0  0  0
  189.9930  176.8750  141.2890 C   0  0  0  0  0  2  0  0  0  0  0  0
  187.0690  178.0320  137.2900 C   0  0  0  0  0  0  0  0  0  0  0  0
  188.2520  178.5110  136.7180 C   0  0  0  0  0  3  0  0  0  0  0  0
  188.0370  178.2620  139.5110 C   0  0  0  0  0  0  0  0  0  0  0  0
  189.3230  178.8750  137.5370 C   0  0  0  0  0  3  0  0  0  0  0  0
  186.9620  177.9150  138.6780 C   0  0  0  0  0  3  0  0  0  0  0  0
  189.2140  178.7570  138.9250 C   0  0  0  0  0  3  0  0  0  0  0  0
  185.9750  177.6680  136.4580 N   0  0  0  0  0  1  0  0  0  0  0  0
  183.2660  178.6960  144.8880 C   0  0  0  0  0  2  0  0  0  0  0  0
  182.6170  178.6650  143.5150 C   0  0  0  0  0  2  0  0  0  0  0  0
  180.3930  178.2910  144.3360 O   0  0  0  0  0  1  0  0  0  0  0  0
  181.1860  179.1730  143.5970 C   0  0  2  0  0  3  0  0  0  0  0  0
  180.5920  179.3910  142.2060 C   0  0  0  0  0  2  0  0  0  0  0  0
  181.1450  177.5460  140.6150 O   0  0  0  0  0  0  0  0  0  0  0  0
  180.2520  178.1080  141.5160 C   0  0  0  0  0  0  0  0  0  0  0  0
  179.1670  177.5250  141.7720 O   0  0  0  0  0  1  0  0  0  0  0  0
  1  8  2  0  0  0  0
  1  5  1  0  0  0  0
  2 14  1  0  0  0  0
  2  6  2  0  0  0  0
  3 18  2  0  0  0  0
  3  8  1  0  0  0  0
  4 10  2  0  0  0  0
  4 18  1  0  0  0  0
  5 11  2  0  0  0  0
  7  9  1  0  0  0  0
  8  2  1  0  0  0  0
 10 17  1  0  0  0  0
 11  6  1  0  0  0  0
 12  3  1  0  0  0  0
 13  1  1  0  0  0  0
 15  4  1  0  0  0  0
 16 15  1  0  0  0  0
 16 12  2  0  0  0  0
 17 27  1  6  0  0  0
 17  9  1  0  0  0  0
 18  7  1  0  0  0  0
 19 12  1  0  0  0  0
 19 13  1  0  0  0  0
 20 24  1  0  0  0  0
 21 20  2  0  0  0  0
 21 23  1  0  0  0  0
 22 16  1  0  0  0  0
 23 25  2  0  0  0  0
 24 22  2  0  0  0  0
 25 22  1  0  0  0  0
 26 20  1  0  0  0  0
 28 30  1  0  0  0  0
 28 27  1  0  0  0  0
 30 29  1  6  0  0  0
 31 30  1  0  0  0  0
 32 33  2  0  0  0  0
 33 34  1  0  0  0  0
 33 31  1  0  0  0  0
M  END
>  <MODEL>
8

>  <REMARK>
 VINA RESULT:      -8.5      2.771      6.312
  Name = 
  6 active torsions:
  status: ('A' for Active; 'I' for Inactive)
    1  A    between atoms: C_3  and  C_13
    2  A    between atoms: C_3  and  C_29
    3  A    between atoms: C_12  and  C_28
    4  A    between atoms: C_13  and  C_33
    5  A    between atoms: C_20  and  C_22
    6  A    between atoms: C_22  and  C_33
                            x       y       z     vdW  Elec       q    Type
                         _______ _______ _______ _____ _____    ______ ____

>  <TORSDO>
F 6

$$$$
=
 OpenBabel10262419143D

 34 38  0  0  1  0  0  0  0  0999 V2000
  186.8360  177.3650  144.5500 C   0  0  0  0  0  0  0  0  0  0  0  0
  185.2920  179.2210  144.8360 C   0  0  0  0  0  0  0  0  0  0  0  0
  185.9370  178.4080  142.4790 C   0  0  0  0  0  0  0  0  0  0  0  0
  184.9190  178.7390  140.2920 C   0  0  0  0  0  0  0  0  0  0  0  0
  186.8920  177.1970  145.9350 C   0  0  0  0  0  3  0  0  0  0  0  0
  185.3650  179.0450  146.2220 C   0  0  0  0  0  3  0  0  0  0  0  0
  183.4340  178.6170  142.3970 C   0  0  0  0  0  2  0  0  0  0  0  0
  185.9660  178.3180  143.9750 C   0  0  0  0  0  0  0  0  0  0  0  0
  182.3400  178.2750  141.3850 C   0  0  0  0  0  2  0  0  0  0  0  0
  183.8430  178.9730  139.5370 C   0  0  0  0  0  3  0  0  0  0  0  0
  186.1390  178.0220  146.7690 C   0  0  0  0  0  3  0  0  0  0  0  0
  187.2080  178.0650  141.7630 C   0  0  0  0  0  0  0  0  0  0  0  0
  187.7480  176.5600  143.6770 C   0  0  0  0  0  2  0  0  0  0  0  0
  184.6120  180.4540  144.3400 C   0  0  0  0  0  1  0  0  0  0  0  0
  186.1650  178.5870  139.6880 O   0  0  0  0  0  0  0  0  0  0  0  0
  187.3030  178.2130  140.4180 C   0  0  0  0  0  0  0  0  0  0  0  0
  182.4850  179.1610  140.1490 C   0  0  1  0  0  3  0  0  0  0  0  0
  184.8070  178.5990  141.7620 C   0  0  0  0  0  0  0  0  0  0  0  0
  188.3230  177.4580  142.5790 C   0  0  0  0  0  2  0  0  0  0  0  0
  190.9370  177.5080  139.6540 C   0  0  0  0  0  0  0  0  0  0  0  0
  190.9300  177.4150  138.2590 C   0  0  0  0  0  3  0  0  0  0  0  0
  188.5480  177.9720  139.6470 C   0  0  0  0  0  0  0  0  0  0  0  0
  189.7360  177.5890  137.5560 C   0  0  0  0  0  3  0  0  0  0  0  0
  189.7510  177.7780  140.3430 C   0  0  0  0  0  3  0  0  0  0  0  0
  188.5510  177.8590  138.2460 C   0  0  0  0  0  3  0  0  0  0  0  0
  192.1510  177.3230  140.3720 N   0  0  0  0  0  1  0  0  0  0  0  0
  181.4170  178.8310  139.1230 C   0  0  0  0  0  2  0  0  0  0  0  0
  180.6470  177.5910  139.5430 C   0  0  0  0  0  2  0  0  0  0  0  0
  179.8680  175.5740  138.5020 O   0  0  0  0  0  1  0  0  0  0  0  0
  180.9660  176.4330  138.6110 C   0  0  2  0  0  3  0  0  0  0  0  0
  182.2020  175.6660  139.0790 C   0  0  0  0  0  2  0  0  0  0  0  0
  183.9860  174.3290  137.9510 O   0  0  0  0  0  1  0  0  0  0  0  0
  183.2120  175.4810  137.9920 C   0  0  0  0  0  0  0  0  0  0  0  0
  183.3440  176.3580  137.0990 O   0  0  0  0  0  0  0  0  0  0  0  0
  1  5  1  0  0  0  0
  2  6  2  0  0  0  0
  3  8  1  0  0  0  0
  4 18  1  0  0  0  0
  5 11  2  0  0  0  0
  6 11  1  0  0  0  0
  8  1  2  0  0  0  0
  8  2  1  0  0  0  0
  9  7  1  0  0  0  0
 10 17  1  0  0  0  0
 10  4  2  0  0  0  0
 12  3  1  0  0  0  0
 12 19  1  0  0  0  0
 13  1  1  0  0  0  0
 14  2  1  0  0  0  0
 15  4  1  0  0  0  0
 15 16  1  0  0  0  0
 16 12  2  0  0  0  0
 17 27  1  6  0  0  0
 17  9  1  0  0  0  0
 18  7  1  0  0  0  0
 18  3  2  0  0  0  0
 19 13  1  0  0  0  0
 20 24  1  0  0  0  0
 20 26  1  0  0  0  0
 21 20  2  0  0  0  0
 22 24  2  0  0  0  0
 22 16  1  0  0  0  0
 23 25  2  0  0  0  0
 23 21  1  0  0  0  0
 25 22  1  0  0  0  0
 27 28  1  0  0  0  0
 30 29  1  1  0  0  0
 30 31  1  0  0  0  0
 30 28  1  0  0  0  0
 32 33  1  0  0  0  0
 33 31  1  0  0  0  0
 34 33  2  0  0  0  0
M  END
>  <MODEL>
9

>  <REMARK>
 VINA RESULT:      -8.5      3.243      6.872
  Name = 
  6 active torsions:
  status: ('A' for Active; 'I' for Inactive)
    1  A    between atoms: C_3  and  C_13
    2  A    between atoms: C_3  and  C_29
    3  A    between atoms: C_12  and  C_28
    4  A    between atoms: C_13  and  C_33
    5  A    between atoms: C_20  and  C_22
    6  A    between atoms: C_22  and  C_33
                            x       y       z     vdW  Elec       q    Type
                         _______ _______ _______ _____ _____    ______ ____

>  <TORSDO>
F 6

$$$$
