=
 OpenBabel10252415063D

 34 38  0  0  1  0  0  0  0  0999 V2000
  189.7300  177.0670  146.9070 C   0  0  0  0  0  0  0  0  0  0  0  0
  190.4980  176.7570  144.6040 C   0  0  0  0  0  0  0  0  0  0  0  0
  188.2710  177.6480  145.0550 C   0  0  0  0  0  0  0  0  0  0  0  0
  186.9520  178.1310  142.8590 N   0  0  0  0  0  0  0  0  0  0  0  0
  191.9430  176.1800  146.4620 C   0  0  0  0  0  3  0  0  0  0  0  0
  191.7170  176.2690  145.0810 C   0  0  0  0  0  3  0  0  0  0  0  0
  189.0120  177.3500  142.7820 C   0  0  0  0  0  0  0  0  0  0  0  0
  189.5020  177.1570  145.5240 C   0  0  0  0  0  0  0  0  0  0  0  0
  187.2080  178.0920  141.5160 O   0  0  0  0  0  0  0  0  0  0  0  0
  190.9540  176.5770  147.3730 C   0  0  0  0  0  3  0  0  0  0  0  0
  187.5170  177.9590  147.2840 C   0  0  0  0  0  3  0  0  0  0  0  0
  188.7290  177.4720  147.7930 C   0  0  0  0  0  3  0  0  0  0  0  0
  190.2470  176.8530  143.2210 O   0  0  0  0  0  0  0  0  0  0  0  0
  188.4990  177.4900  141.4000 C   0  0  1  0  0  3  0  0  0  0  0  0
  188.0840  177.7320  143.5970 C   0  0  0  0  0  0  0  0  0  0  0  0
  187.3130  178.0380  145.9390 N   0  0  0  0  0  0  0  0  0  0  0  0
  189.3800  178.3610  140.6390 N   0  0  0  0  0  2  0  0  0  0  0  0
  190.2340  177.5070  139.8300 C   0  0  0  0  0  2  0  0  0  0  0  0
  189.4150  176.8220  138.7520 C   0  0  0  0  0  2  0  0  0  0  0  0
  189.7780  177.3780  137.3800 C   0  0  0  0  0  2  0  0  0  0  0  0
  188.9780  179.6420  137.4450 O   0  0  0  0  0  1  0  0  0  0  0  0
  188.7460  178.3870  136.8790 C   0  0  2  0  0  3  0  0  0  0  0  0
  187.3240  177.9390  137.1750 C   0  0  0  0  0  2  0  0  0  0  0  0
  185.4620  178.2660  138.3130 C   0  0  0  0  0  1  0  0  0  0  0  0
  186.7440  178.7810  138.1240 O   0  0  0  0  0  0  0  0  0  0  0  0
  185.6110  177.8740  143.3620 C   0  0  0  0  0  2  0  0  0  0  0  0
  184.7880  179.1490  143.3250 C   0  0  0  0  0  2  0  0  0  0  0  0
  180.5200  179.4850  142.0690 C   0  0  0  0  0  2  0  0  0  0  0  0
  181.0100  178.7930  143.3270 C   0  0  0  0  0  2  0  0  0  0  0  0
  183.4140  178.8450  142.8460 C   0  0  0  0  0  0  0  0  0  0  0  0
  182.4020  179.1250  143.6130 N   0  0  0  0  0  0  0  0  0  0  0  0
  182.3910  178.8680  140.5270 C   0  0  0  0  0  2  0  0  0  0  0  0
  183.2470  178.2710  141.5440 N   0  0  0  0  0  2  0  0  0  0  0  0
  180.9190  178.6730  140.8500 C   0  0  0  0  0  2  0  0  0  0  0  0
  1 10  1  0  0  0  0
  1 12  1  0  0  0  0
  2  6  2  0  0  0  0
  2  8  1  0  0  0  0
  3  8  1  0  0  0  0
  3 16  2  0  0  0  0
  4 26  1  0  0  0  0
  4 15  1  0  0  0  0
  5 10  2  0  0  0  0
  6  5  1  0  0  0  0
  7 13  1  0  0  0  0
  7 15  2  0  0  0  0
  8  1  2  0  0  0  0
  9  4  1  0  0  0  0
 11 12  2  0  0  0  0
 13  2  1  0  0  0  0
 14 17  1  6  0  0  0
 14  9  1  0  0  0  0
 14  7  1  0  0  0  0
 15  3  1  0  0  0  0
 16 11  1  0  0  0  0
 18 17  1  0  0  0  0
 19 18  1  0  0  0  0
 20 19  1  0  0  0  0
 22 23  1  0  0  0  0
 22 20  1  0  0  0  0
 22 21  1  1  0  0  0
 23 25  1  0  0  0  0
 25 24  1  0  0  0  0
 27 26  1  0  0  0  0
 28 29  1  0  0  0  0
 29 31  1  0  0  0  0
 30 27  1  0  0  0  0
 30 31  2  0  0  0  0
 32 34  1  0  0  0  0
 32 33  1  0  0  0  0
 33 30  1  0  0  0  0
 34 28  1  0  0  0  0
M  END
>  <MODEL>
1

>  <REMARK>
 VINA RESULT:      -8.6      0.000      0.000
  Name = 
  10 active torsions:
  status: ('A' for Active; 'I' for Inactive)
    1  A    between atoms: C_3  and  C_13
    2  A    between atoms: C_3  and  N_17
    3  A    between atoms: N_5  and  C_26
    4  A    between atoms: C_12  and  C_28
    5  A    between atoms: C_13  and  C_33
    6  A    between atoms: O_14  and  C_20
    7  A    between atoms: N_17  and  C_29
    8  A    between atoms: C_20  and  C_34
    9  A    between atoms: C_26  and  C_28
   10  A    between atoms: C_33  and  C_34
                            x       y       z     vdW  Elec       q    Type
                         _______ _______ _______ _____ _____    ______ ____

>  <TORSDO>
F 10

$$$$
=
 OpenBabel10252415063D

 34 38  0  0  1  0  0  0  0  0999 V2000
  184.2000  178.8270  142.7440 C   0  0  0  0  0  0  0  0  0  0  0  0
  186.0940  178.3220  144.2090 C   0  0  0  0  0  0  0  0  0  0  0  0
  186.4120  178.5050  141.7960 C   0  0  0  0  0  0  0  0  0  0  0  0
  188.8870  178.0670  141.1040 N   0  0  0  0  0  0  0  0  0  0  0  0
  183.8800  178.6450  145.1410 C   0  0  0  0  0  3  0  0  0  0  0  0
  185.2440  178.3690  145.3170 C   0  0  0  0  0  3  0  0  0  0  0  0
  188.2870  178.0080  143.2240 C   0  0  0  0  0  0  0  0  0  0  0  0
  185.5660  178.5510  142.9180 C   0  0  0  0  0  0  0  0  0  0  0  0
  190.0740  177.8410  141.7450 O   0  0  0  0  0  0  0  0  0  0  0  0
  183.3580  178.8720  143.8590 C   0  0  0  0  0  3  0  0  0  0  0  0
  184.5840  179.0000  140.3650 C   0  0  0  0  0  3  0  0  0  0  0  0
  183.7060  179.0530  141.4560 C   0  0  0  0  0  3  0  0  0  0  0  0
  187.4670  178.0450  144.3610 O   0  0  0  0  0  0  0  0  0  0  0  0
  189.7290  177.6850  143.1230 C   0  0  1  0  0  3  0  0  0  0  0  0
  187.8380  178.2220  142.0310 C   0  0  0  0  0  0  0  0  0  0  0  0
  185.9070  178.7300  140.5530 N   0  0  0  0  0  0  0  0  0  0  0  0
  190.4950  178.6220  143.9290 N   0  0  0  0  0  2  0  0  0  0  0  0
  191.7270  177.9520  144.3120 C   0  0  0  0  0  2  0  0  0  0  0  0
  191.4840  176.4600  144.4600 C   0  0  0  0  0  2  0  0  0  0  0  0
  191.7930  176.0140  145.8840 C   0  0  0  0  0  2  0  0  0  0  0  0
  192.0150  176.9200  148.0980 O   0  0  0  0  0  1  0  0  0  0  0  0
  191.2650  177.0020  146.9230 C   0  0  2  0  0  3  0  0  0  0  0  0
  189.7940  176.7710  147.2290 C   0  0  0  0  0  2  0  0  0  0  0  0
  188.1510  177.7810  148.3010 C   0  0  0  0  0  1  0  0  0  0  0  0
  189.1270  177.9920  147.3270 O   0  0  0  0  0  0  0  0  0  0  0  0
  188.6360  177.4930  139.7900 C   0  0  0  0  0  2  0  0  0  0  0  0
  189.4600  178.2160  138.7400 C   0  0  0  0  0  2  0  0  0  0  0  0
  187.6100  176.7410  134.9570 C   0  0  0  0  0  2  0  0  0  0  0  0
  188.8960  177.5410  135.0490 C   0  0  0  0  0  2  0  0  0  0  0  0
  188.7730  178.1380  137.4240 C   0  0  0  0  0  0  0  0  0  0  0  0
  189.3960  177.5970  136.4180 N   0  0  0  0  0  0  0  0  0  0  0  0
  186.3320  177.8370  136.8080 C   0  0  0  0  0  2  0  0  0  0  0  0
  187.4380  178.6440  137.3100 N   0  0  0  0  0  2  0  0  0  0  0  0
  186.4290  177.6280  135.3060 C   0  0  0  0  0  2  0  0  0  0  0  0
  1  8  1  0  0  0  0
  1 10  2  0  0  0  0
  2 13  1  0  0  0  0
  2  6  1  0  0  0  0
  3 15  1  0  0  0  0
  3  8  1  0  0  0  0
  4  9  1  0  0  0  0
  4 15  1  0  0  0  0
  5  6  2  0  0  0  0
  7 13  1  0  0  0  0
  8  2  2  0  0  0  0
  9 14  1  0  0  0  0
 10  5  1  0  0  0  0
 11 16  1  0  0  0  0
 11 12  2  0  0  0  0
 12  1  1  0  0  0  0
 14  7  1  0  0  0  0
 14 17  1  1  0  0  0
 15  7  2  0  0  0  0
 16  3  2  0  0  0  0
 17 18  1  0  0  0  0
 18 19  1  0  0  0  0
 19 20  1  0  0  0  0
 20 22  1  0  0  0  0
 22 23  1  0  0  0  0
 22 21  1  1  0  0  0
 23 25  1  0  0  0  0
 25 24  1  0  0  0  0
 26  4  1  0  0  0  0
 27 26  1  0  0  0  0
 28 29  1  0  0  0  0
 28 34  1  0  0  0  0
 29 31  1  0  0  0  0
 30 27  1  0  0  0  0
 31 30  2  0  0  0  0
 32 33  1  0  0  0  0
 33 30  1  0  0  0  0
 34 32  1  0  0  0  0
M  END
>  <MODEL>
2

>  <REMARK>
 VINA RESULT:      -8.5      2.203      7.255
  Name = 
  10 active torsions:
  status: ('A' for Active; 'I' for Inactive)
    1  A    between atoms: C_3  and  C_13
    2  A    between atoms: C_3  and  N_17
    3  A    between atoms: N_5  and  C_26
    4  A    between atoms: C_12  and  C_28
    5  A    between atoms: C_13  and  C_33
    6  A    between atoms: O_14  and  C_20
    7  A    between atoms: N_17  and  C_29
    8  A    between atoms: C_20  and  C_34
    9  A    between atoms: C_26  and  C_28
   10  A    between atoms: C_33  and  C_34
                            x       y       z     vdW  Elec       q    Type
                         _______ _______ _______ _____ _____    ______ ____

>  <TORSDO>
F 10

$$$$
=
 OpenBabel10252415063D

 34 38  0  0  1  0  0  0  0  0999 V2000
  184.2490  178.8000  142.5730 C   0  0  0  0  0  0  0  0  0  0  0  0
  186.2010  178.2910  143.9580 C   0  0  0  0  0  0  0  0  0  0  0  0
  186.4230  178.4950  141.5370 C   0  0  0  0  0  0  0  0  0  0  0  0
  188.8710  178.0730  140.7440 N   0  0  0  0  0  0  0  0  0  0  0  0
  184.0240  178.5970  144.9800 C   0  0  0  0  0  3  0  0  0  0  0  0
  185.3950  178.3260  145.0990 C   0  0  0  0  0  3  0  0  0  0  0  0
  188.3550  177.9940  142.8860 C   0  0  0  0  0  0  0  0  0  0  0  0
  185.6220  178.5290  142.6920 C   0  0  0  0  0  0  0  0  0  0  0  0
  190.0830  177.8470  141.3370 O   0  0  0  0  0  0  0  0  0  0  0  0
  183.4520  178.8330  143.7210 C   0  0  0  0  0  3  0  0  0  0  0  0
  184.5390  178.9940  140.1830 C   0  0  0  0  0  3  0  0  0  0  0  0
  183.7040  179.0340  141.3080 C   0  0  0  0  0  3  0  0  0  0  0  0
  187.5800  178.0190  144.0540 O   0  0  0  0  0  0  0  0  0  0  0  0
  189.7940  177.6790  142.7260 C   0  0  1  0  0  3  0  0  0  0  0  0
  187.8580  178.2160  141.7140 C   0  0  0  0  0  0  0  0  0  0  0  0
  185.8690  178.7280  140.3160 N   0  0  0  0  0  0  0  0  0  0  0  0
  190.5870  178.6130  143.5090 N   0  0  0  0  0  2  0  0  0  0  0  0
  191.6960  177.8640  144.0750 C   0  0  0  0  0  2  0  0  0  0  0  0
  191.2510  176.4530  144.4170 C   0  0  0  0  0  2  0  0  0  0  0  0
  191.8350  176.0270  145.7600 C   0  0  0  0  0  2  0  0  0  0  0  0
  192.1910  176.7550  148.0210 O   0  0  0  0  0  1  0  0  0  0  0  0
  191.3830  176.9400  146.8980 C   0  0  2  0  0  3  0  0  0  0  0  0
  189.9250  176.7100  147.2640 C   0  0  0  0  0  2  0  0  0  0  0  0
  187.9500  177.6190  147.6420 C   0  0  0  0  0  1  0  0  0  0  0  0
  189.1880  177.8760  147.0530 O   0  0  0  0  0  0  0  0  0  0  0  0
  188.5710  177.5090  139.4370 C   0  0  0  0  0  2  0  0  0  0  0  0
  189.7000  177.8120  138.4680 C   0  0  0  0  0  2  0  0  0  0  0  0
  191.8160  174.4290  136.4720 C   0  0  0  0  0  2  0  0  0  0  0  0
  190.5270  174.3100  137.2640 C   0  0  0  0  0  2  0  0  0  0  0  0
  190.4790  176.5740  138.2050 C   0  0  0  0  0  0  0  0  0  0  0  0
  189.9300  175.6170  137.5160 N   0  0  0  0  0  0  0  0  0  0  0  0
  192.9580  176.1840  137.8400 C   0  0  0  0  0  2  0  0  0  0  0  0
  191.8200  176.4820  138.7010 N   0  0  0  0  0  2  0  0  0  0  0  0
  192.9690  174.7260  137.4120 C   0  0  0  0  0  2  0  0  0  0  0  0
  1  8  1  0  0  0  0
  1 10  2  0  0  0  0
  2 13  1  0  0  0  0
  2  6  1  0  0  0  0
  3 15  1  0  0  0  0
  3  8  1  0  0  0  0
  4  9  1  0  0  0  0
  4 15  1  0  0  0  0
  5  6  2  0  0  0  0
  7 13  1  0  0  0  0
  8  2  2  0  0  0  0
  9 14  1  0  0  0  0
 10  5  1  0  0  0  0
 11 16  1  0  0  0  0
 11 12  2  0  0  0  0
 12  1  1  0  0  0  0
 14  7  1  0  0  0  0
 14 17  1  1  0  0  0
 15  7  2  0  0  0  0
 16  3  2  0  0  0  0
 17 18  1  0  0  0  0
 18 19  1  0  0  0  0
 19 20  1  0  0  0  0
 20 22  1  0  0  0  0
 22 23  1  0  0  0  0
 22 21  1  1  0  0  0
 25 23  1  0  0  0  0
 25 24  1  0  0  0  0
 26  4  1  0  0  0  0
 27 26  1  0  0  0  0
 28 29  1  0  0  0  0
 28 34  1  0  0  0  0
 29 31  1  0  0  0  0
 30 27  1  0  0  0  0
 30 33  1  0  0  0  0
 31 30  2  0  0  0  0
 32 33  1  0  0  0  0
 34 32  1  0  0  0  0
M  END
>  <MODEL>
3

>  <REMARK>
 VINA RESULT:      -8.3      2.364      7.945
  Name = 
  10 active torsions:
  status: ('A' for Active; 'I' for Inactive)
    1  A    between atoms: C_3  and  C_13
    2  A    between atoms: C_3  and  N_17
    3  A    between atoms: N_5  and  C_26
    4  A    between atoms: C_12  and  C_28
    5  A    between atoms: C_13  and  C_33
    6  A    between atoms: O_14  and  C_20
    7  A    between atoms: N_17  and  C_29
    8  A    between atoms: C_20  and  C_34
    9  A    between atoms: C_26  and  C_28
   10  A    between atoms: C_33  and  C_34
                            x       y       z     vdW  Elec       q    Type
                         _______ _______ _______ _____ _____    ______ ____

>  <TORSDO>
F 10

$$$$
=
 OpenBabel10252415063D

 34 38  0  0  1  0  0  0  0  0999 V2000
  189.6520  177.1460  147.0150 C   0  0  0  0  0  0  0  0  0  0  0  0
  190.2300  176.9270  144.6470 C   0  0  0  0  0  0  0  0  0  0  0  0
  188.0360  177.7650  145.3120 C   0  0  0  0  0  0  0  0  0  0  0  0
  186.5320  178.2990  143.2510 N   0  0  0  0  0  0  0  0  0  0  0  0
  191.8320  176.3110  146.3580 C   0  0  0  0  0  3  0  0  0  0  0  0
  191.4910  176.4430  145.0050 C   0  0  0  0  0  3  0  0  0  0  0  0
  188.5890  177.5560  142.9760 C   0  0  0  0  0  0  0  0  0  0  0  0
  189.3080  177.2780  145.6590 C   0  0  0  0  0  0  0  0  0  0  0  0
  186.6760  178.3110  141.8900 O   0  0  0  0  0  0  0  0  0  0  0  0
  190.9160  176.6610  147.3610 C   0  0  0  0  0  3  0  0  0  0  0  0
  187.4660  177.9870  147.6050 C   0  0  0  0  0  3  0  0  0  0  0  0
  188.7220  177.5030  147.9950 C   0  0  0  0  0  3  0  0  0  0  0  0
  189.8640  177.0650  143.2940 O   0  0  0  0  0  0  0  0  0  0  0  0
  187.9610  177.7340  141.6470 C   0  0  1  0  0  3  0  0  0  0  0  0
  187.7270  177.8940  143.8780 C   0  0  0  0  0  0  0  0  0  0  0  0
  187.1490  178.1080  146.2850 N   0  0  0  0  0  0  0  0  0  0  0  0
  188.7640  178.6450  140.8470 N   0  0  0  0  0  2  0  0  0  0  0  0
  188.8000  178.1120  139.4950 C   0  0  0  0  0  2  0  0  0  0  0  0
  189.9460  177.1260  139.3550 C   0  0  0  0  0  2  0  0  0  0  0  0
  190.4290  177.0800  137.9100 C   0  0  0  0  0  2  0  0  0  0  0  0
  191.1760  174.8200  138.2270 O   0  0  0  0  0  1  0  0  0  0  0  0
  191.5500  176.0620  137.7110 C   0  0  2  0  0  3  0  0  0  0  0  0
  192.8510  176.5200  138.3510 C   0  0  0  0  0  2  0  0  0  0  0  0
  193.9390  175.7050  136.6130 C   0  0  0  0  0  1  0  0  0  0  0  0
  193.7750  176.8680  137.3640 O   0  0  0  0  0  0  0  0  0  0  0  0
  185.2410  178.0030  143.8530 C   0  0  0  0  0  2  0  0  0  0  0  0
  184.3340  179.2170  143.7640 C   0  0  0  0  0  2  0  0  0  0  0  0
  180.4950  179.4540  141.5020 C   0  0  0  0  0  2  0  0  0  0  0  0
  180.6780  178.7760  142.8470 C   0  0  0  0  0  2  0  0  0  0  0  0
  183.1250  178.8810  142.9660 C   0  0  0  0  0  0  0  0  0  0  0  0
  181.9510  179.1400  143.4620 N   0  0  0  0  0  0  0  0  0  0  0  0
  182.6980  178.8760  140.4670 C   0  0  0  0  0  2  0  0  0  0  0  0
  183.2930  178.3010  141.6670 N   0  0  0  0  0  2  0  0  0  0  0  0
  181.1960  178.6490  140.4230 C   0  0  0  0  0  2  0  0  0  0  0  0
  1 10  1  0  0  0  0
  1 12  1  0  0  0  0
  2  6  2  0  0  0  0
  2  8  1  0  0  0  0
  3  8  1  0  0  0  0
  3 16  2  0  0  0  0
  4 26  1  0  0  0  0
  4 15  1  0  0  0  0
  5 10  2  0  0  0  0
  6  5  1  0  0  0  0
  7 13  1  0  0  0  0
  7 15  2  0  0  0  0
  8  1  2  0  0  0  0
  9  4  1  0  0  0  0
 11 12  2  0  0  0  0
 13  2  1  0  0  0  0
 14 17  1  6  0  0  0
 14  9  1  0  0  0  0
 14  7  1  0  0  0  0
 15  3  1  0  0  0  0
 16 11  1  0  0  0  0
 18 17  1  0  0  0  0
 19 18  1  0  0  0  0
 20 19  1  0  0  0  0
 22 20  1  0  0  0  0
 22 21  1  1  0  0  0
 22 23  1  0  0  0  0
 24 25  1  0  0  0  0
 25 23  1  0  0  0  0
 27 26  1  0  0  0  0
 28 29  1  0  0  0  0
 29 31  1  0  0  0  0
 30 31  2  0  0  0  0
 30 27  1  0  0  0  0
 32 33  1  0  0  0  0
 33 30  1  0  0  0  0
 34 32  1  0  0  0  0
 34 28  1  0  0  0  0
M  END
>  <MODEL>
4

>  <REMARK>
 VINA RESULT:      -8.3      1.751      2.550
  Name = 
  10 active torsions:
  status: ('A' for Active; 'I' for Inactive)
    1  A    between atoms: C_3  and  C_13
    2  A    between atoms: C_3  and  N_17
    3  A    between atoms: N_5  and  C_26
    4  A    between atoms: C_12  and  C_28
    5  A    between atoms: C_13  and  C_33
    6  A    between atoms: O_14  and  C_20
    7  A    between atoms: N_17  and  C_29
    8  A    between atoms: C_20  and  C_34
    9  A    between atoms: C_26  and  C_28
   10  A    between atoms: C_33  and  C_34
                            x       y       z     vdW  Elec       q    Type
                         _______ _______ _______ _____ _____    ______ ____

>  <TORSDO>
F 10

$$$$
=
 OpenBabel10252415063D

 34 38  0  0  1  0  0  0  0  0999 V2000
  188.9900  177.5140  147.1560 C   0  0  0  0  0  0  0  0  0  0  0  0
  190.2220  177.0100  145.1030 C   0  0  0  0  0  0  0  0  0  0  0  0
  187.9330  177.8500  144.9960 C   0  0  0  0  0  0  0  0  0  0  0  0
  187.0860  178.0590  142.5390 N   0  0  0  0  0  0  0  0  0  0  0  0
  191.2640  176.6790  147.2660 C   0  0  0  0  0  3  0  0  0  0  0  0
  191.3260  176.6210  145.8660 C   0  0  0  0  0  3  0  0  0  0  0  0
  189.1330  177.3590  142.9650 C   0  0  0  0  0  0  0  0  0  0  0  0
  189.0500  177.4570  145.7540 C   0  0  0  0  0  0  0  0  0  0  0  0
  187.6150  177.8990  141.2880 O   0  0  0  0  0  0  0  0  0  0  0  0
  190.1000  177.1230  147.9100 C   0  0  0  0  0  3  0  0  0  0  0  0
  186.7290  178.3470  146.9800 C   0  0  0  0  0  3  0  0  0  0  0  0
  187.8190  177.9630  147.7730 C   0  0  0  0  0  3  0  0  0  0  0  0
  190.2610  176.9590  143.6960 O   0  0  0  0  0  0  0  0  0  0  0  0
  188.9140  177.3410  141.5000 C   0  0  1  0  0  3  0  0  0  0  0  0
  188.0490  177.7810  143.5300 C   0  0  0  0  0  0  0  0  0  0  0  0
  186.8050  178.2850  145.6210 N   0  0  0  0  0  0  0  0  0  0  0  0
  189.9150  178.1680  140.8480 N   0  0  0  0  0  2  0  0  0  0  0  0
  190.6930  177.2980  139.9820 C   0  0  0  0  0  2  0  0  0  0  0  0
  189.7960  176.6770  138.9260 C   0  0  0  0  0  2  0  0  0  0  0  0
  190.0330  177.3430  137.5750 C   0  0  0  0  0  2  0  0  0  0  0  0
  189.1140  179.5630  137.5870 O   0  0  0  0  0  1  0  0  0  0  0  0
  188.8720  178.2510  137.1720 C   0  0  2  0  0  3  0  0  0  0  0  0
  187.5480  177.7640  137.7380 C   0  0  0  0  0  2  0  0  0  0  0  0
  186.4100  177.5890  135.8560 C   0  0  0  0  0  1  0  0  0  0  0  0
  186.9750  176.8270  136.8780 O   0  0  0  0  0  0  0  0  0  0  0  0
  185.6760  177.7980  142.7830 C   0  0  0  0  0  2  0  0  0  0  0  0
  184.8680  179.0650  142.5680 C   0  0  0  0  0  2  0  0  0  0  0  0
  183.8260  178.1320  138.3300 C   0  0  0  0  0  2  0  0  0  0  0  0
  184.3010  179.4810  138.8390 C   0  0  0  0  0  2  0  0  0  0  0  0
  184.1950  179.0110  141.2430 C   0  0  0  0  0  0  0  0  0  0  0  0
  184.8550  179.3820  140.1850 N   0  0  0  0  0  0  0  0  0  0  0  0
  182.4490  177.4340  140.2990 C   0  0  0  0  0  2  0  0  0  0  0  0
  182.8470  178.5320  141.1700 N   0  0  0  0  0  2  0  0  0  0  0  0
  182.4230  177.8590  138.8400 C   0  0  0  0  0  2  0  0  0  0  0  0
  1 12  1  0  0  0  0
  1 10  2  0  0  0  0
  2  8  2  0  0  0  0
  2  6  1  0  0  0  0
  3 16  2  0  0  0  0
  3  8  1  0  0  0  0
  4 26  1  0  0  0  0
  4 15  1  0  0  0  0
  5 10  1  0  0  0  0
  6  5  2  0  0  0  0
  7 15  2  0  0  0  0
  7 13  1  0  0  0  0
  8  1  1  0  0  0  0
  9 14  1  0  0  0  0
  9  4  1  0  0  0  0
 11 12  2  0  0  0  0
 13  2  1  0  0  0  0
 14 17  1  6  0  0  0
 14  7  1  0  0  0  0
 15  3  1  0  0  0  0
 16 11  1  0  0  0  0
 18 17  1  0  0  0  0
 19 18  1  0  0  0  0
 20 19  1  0  0  0  0
 22 20  1  0  0  0  0
 22 21  1  1  0  0  0
 22 23  1  0  0  0  0
 24 25  1  0  0  0  0
 25 23  1  0  0  0  0
 27 26  1  0  0  0  0
 28 29  1  0  0  0  0
 28 34  1  0  0  0  0
 29 31  1  0  0  0  0
 30 27  1  0  0  0  0
 31 30  2  0  0  0  0
 32 33  1  0  0  0  0
 33 30  1  0  0  0  0
 34 32  1  0  0  0  0
M  END
>  <MODEL>
5

>  <REMARK>
 VINA RESULT:      -8.1      1.282      1.818
  Name = 
  10 active torsions:
  status: ('A' for Active; 'I' for Inactive)
    1  A    between atoms: C_3  and  C_13
    2  A    between atoms: C_3  and  N_17
    3  A    between atoms: N_5  and  C_26
    4  A    between atoms: C_12  and  C_28
    5  A    between atoms: C_13  and  C_33
    6  A    between atoms: O_14  and  C_20
    7  A    between atoms: N_17  and  C_29
    8  A    between atoms: C_20  and  C_34
    9  A    between atoms: C_26  and  C_28
   10  A    between atoms: C_33  and  C_34
                            x       y       z     vdW  Elec       q    Type
                         _______ _______ _______ _____ _____    ______ ____

>  <TORSDO>
F 10

$$$$
=
 OpenBabel10252415063D

 34 38  0  0  1  0  0  0  0  0999 V2000
  190.0040  177.1220  146.1050 C   0  0  0  0  0  0  0  0  0  0  0  0
  187.6870  177.8800  145.8900 C   0  0  0  0  0  0  0  0  0  0  0  0
  189.0490  177.4870  143.9030 C   0  0  0  0  0  0  0  0  0  0  0  0
  187.7430  178.0080  141.7080 N   0  0  0  0  0  0  0  0  0  0  0  0
  188.6530  177.5130  148.0820 C   0  0  0  0  0  3  0  0  0  0  0  0
  187.5650  177.8870  147.2810 C   0  0  0  0  0  3  0  0  0  0  0  0
  186.7700  178.2330  143.6730 C   0  0  0  0  0  0  0  0  0  0  0  0
  188.9140  177.4960  145.3020 C   0  0  0  0  0  0  0  0  0  0  0  0
  186.4660  178.3670  141.3710 O   0  0  0  0  0  0  0  0  0  0  0  0
  189.8700  177.1320  147.4970 C   0  0  0  0  0  3  0  0  0  0  0  0
  191.2950  176.7460  144.0990 C   0  0  0  0  0  3  0  0  0  0  0  0
  191.2040  176.7440  145.4970 C   0  0  0  0  0  3  0  0  0  0  0  0
  186.6080  178.2550  145.0660 O   0  0  0  0  0  0  0  0  0  0  0  0
  185.8140  178.6320  142.6150 C   0  0  1  0  0  3  0  0  0  0  0  0
  187.8750  177.8780  143.1050 C   0  0  0  0  0  0  0  0  0  0  0  0
  190.2280  177.1130  143.3350 N   0  0  0  0  0  0  0  0  0  0  0  0
  184.6090  177.8260  142.7180 N   0  0  0  0  0  2  0  0  0  0  0  0
  183.4760  178.7290  142.5920 C   0  0  0  0  0  2  0  0  0  0  0  0
  182.8660  178.9910  143.9570 C   0  0  0  0  0  2  0  0  0  0  0  0
  181.3620  178.7410  143.9200 C   0  0  0  0  0  2  0  0  0  0  0  0
  180.0400  180.5430  143.0420 O   0  0  0  0  0  1  0  0  0  0  0  0
  180.7070  179.3680  142.6910 C   0  0  2  0  0  3  0  0  0  0  0  0
  179.7440  178.4090  142.0090 C   0  0  0  0  0  2  0  0  0  0  0  0
  180.7060  178.8170  140.0670 C   0  0  0  0  0  1  0  0  0  0  0  0
  180.3740  177.7790  140.9350 O   0  0  0  0  0  0  0  0  0  0  0  0
  188.8700  178.4360  140.8930 C   0  0  0  0  0  2  0  0  0  0  0  0
  189.2980  177.3140  139.9660 C   0  0  0  0  0  2  0  0  0  0  0  0
  188.0790  177.1110  135.6780 C   0  0  0  0  0  2  0  0  0  0  0  0
  189.4740  177.4380  136.1770 C   0  0  0  0  0  2  0  0  0  0  0  0
  188.9540  177.6640  138.5620 C   0  0  0  0  0  0  0  0  0  0  0  0
  189.6270  177.1180  137.5920 N   0  0  0  0  0  0  0  0  0  0  0  0
  186.7470  178.2510  137.4620 C   0  0  0  0  0  2  0  0  0  0  0  0
  187.8770  178.5780  138.3220 N   0  0  0  0  0  2  0  0  0  0  0  0
  187.1400  178.2600  135.9940 C   0  0  0  0  0  2  0  0  0  0  0  0
  1 10  2  0  0  0  0
  2  6  1  0  0  0  0
  3  8  1  0  0  0  0
  4 15  1  0  0  0  0
  6  5  2  0  0  0  0
  7 13  1  0  0  0  0
  8  2  2  0  0  0  0
  8  1  1  0  0  0  0
  9  4  1  0  0  0  0
  9 14  1  0  0  0  0
 10  5  1  0  0  0  0
 11 12  2  0  0  0  0
 12  1  1  0  0  0  0
 13  2  1  0  0  0  0
 14 17  1  6  0  0  0
 14  7  1  0  0  0  0
 15  7  2  0  0  0  0
 15  3  1  0  0  0  0
 16  3  2  0  0  0  0
 16 11  1  0  0  0  0
 18 17  1  0  0  0  0
 18 19  1  0  0  0  0
 20 19  1  0  0  0  0
 22 21  1  1  0  0  0
 22 20  1  0  0  0  0
 23 22  1  0  0  0  0
 24 25  1  0  0  0  0
 25 23  1  0  0  0  0
 26  4  1  0  0  0  0
 27 26  1  0  0  0  0
 28 34  1  0  0  0  0
 28 29  1  0  0  0  0
 29 31  1  0  0  0  0
 30 27  1  0  0  0  0
 31 30  2  0  0  0  0
 32 33  1  0  0  0  0
 33 30  1  0  0  0  0
 34 32  1  0  0  0  0
M  END
>  <MODEL>
6

>  <REMARK>
 VINA RESULT:      -8.0      2.286      6.264
  Name = 
  10 active torsions:
  status: ('A' for Active; 'I' for Inactive)
    1  A    between atoms: C_3  and  C_13
    2  A    between atoms: C_3  and  N_17
    3  A    between atoms: N_5  and  C_26
    4  A    between atoms: C_12  and  C_28
    5  A    between atoms: C_13  and  C_33
    6  A    between atoms: O_14  and  C_20
    7  A    between atoms: N_17  and  C_29
    8  A    between atoms: C_20  and  C_34
    9  A    between atoms: C_26  and  C_28
   10  A    between atoms: C_33  and  C_34
                            x       y       z     vdW  Elec       q    Type
                         _______ _______ _______ _____ _____    ______ ____

>  <TORSDO>
F 10

$$$$
=
 OpenBabel10252415063D

 34 38  0  0  1  0  0  0  0  0999 V2000
  185.3270  178.4390  145.4020 C   0  0  0  0  0  0  0  0  0  0  0  0
  187.2450  177.7460  144.0500 C   0  0  0  0  0  0  0  0  0  0  0  0
  185.2850  178.7460  142.9940 C   0  0  0  0  0  0  0  0  0  0  0  0
  185.5440  178.8970  140.4050 N   0  0  0  0  0  0  0  0  0  0  0  0
  187.2730  177.4440  146.4540 C   0  0  0  0  0  3  0  0  0  0  0  0
  187.8990  177.3140  145.2070 C   0  0  0  0  0  3  0  0  0  0  0  0
  187.1650  178.0700  141.6480 C   0  0  0  0  0  0  0  0  0  0  0  0
  185.9530  178.3100  144.1520 C   0  0  0  0  0  0  0  0  0  0  0  0
  186.5240  178.6370  139.4860 O   0  0  0  0  0  0  0  0  0  0  0  0
  185.9900  178.0050  146.5530 C   0  0  0  0  0  3  0  0  0  0  0  0
  183.4210  179.4280  144.2950 C   0  0  0  0  0  3  0  0  0  0  0  0
  184.0500  179.0030  145.4730 C   0  0  0  0  0  3  0  0  0  0  0  0
  187.8530  177.6230  142.7850 O   0  0  0  0  0  0  0  0  0  0  0  0
  187.5670  177.9960  140.2240 C   0  0  1  0  0  3  0  0  0  0  0  0
  185.9870  178.5980  141.7080 C   0  0  0  0  0  0  0  0  0  0  0  0
  184.0430  179.2930  143.0900 N   0  0  0  0  0  0  0  0  0  0  0  0
  188.8160  178.7140  140.0330 N   0  0  0  0  0  2  0  0  0  0  0  0
  189.6560  177.8930  139.1770 C   0  0  0  0  0  2  0  0  0  0  0  0
  190.4080  176.8720  140.0120 C   0  0  0  0  0  2  0  0  0  0  0  0
  191.0030  177.5360  141.2480 C   0  0  0  0  0  2  0  0  0  0  0  0
  190.2200  175.6240  142.4730 O   0  0  0  0  0  1  0  0  0  0  0  0
  191.2770  176.5290  142.3640 C   0  0  2  0  0  3  0  0  0  0  0  0
  191.5130  177.2150  143.7010 C   0  0  0  0  0  2  0  0  0  0  0  0
  191.4370  176.9560  145.8910 C   0  0  0  0  0  1  0  0  0  0  0  0
  191.6790  176.2610  144.7060 O   0  0  0  0  0  0  0  0  0  0  0  0
  184.1410  178.7540  140.0470 C   0  0  0  0  0  2  0  0  0  0  0  0
  183.7990  177.2880  139.8550 C   0  0  0  0  0  2  0  0  0  0  0  0
  179.6590  175.8070  140.6150 C   0  0  0  0  0  2  0  0  0  0  0  0
  180.3990  175.6970  139.2960 C   0  0  0  0  0  2  0  0  0  0  0  0
  182.3220  177.1140  139.8490 C   0  0  0  0  0  0  0  0  0  0  0  0
  181.8220  175.9800  139.4540 N   0  0  0  0  0  0  0  0  0  0  0  0
  180.5070  178.0410  141.3560 C   0  0  0  0  0  2  0  0  0  0  0  0
  181.4970  178.1960  140.2980 N   0  0  0  0  0  2  0  0  0  0  0  0
  179.2960  177.2570  140.8790 C   0  0  0  0  0  2  0  0  0  0  0  0
  1 12  1  0  0  0  0
  1 10  2  0  0  0  0
  2  8  2  0  0  0  0
  2  6  1  0  0  0  0
  3 16  2  0  0  0  0
  3  8  1  0  0  0  0
  4 15  1  0  0  0  0
  5 10  1  0  0  0  0
  6  5  2  0  0  0  0
  7 15  2  0  0  0  0
  7 13  1  0  0  0  0
  8  1  1  0  0  0  0
  9 14  1  0  0  0  0
  9  4  1  0  0  0  0
 11 12  2  0  0  0  0
 13  2  1  0  0  0  0
 14 17  1  1  0  0  0
 14  7  1  0  0  0  0
 15  3  1  0  0  0  0
 16 11  1  0  0  0  0
 18 19  1  0  0  0  0
 18 17  1  0  0  0  0
 19 20  1  0  0  0  0
 20 22  1  0  0  0  0
 22 21  1  1  0  0  0
 22 23  1  0  0  0  0
 23 25  1  0  0  0  0
 25 24  1  0  0  0  0
 26  4  1  0  0  0  0
 27 26  1  0  0  0  0
 28 34  1  0  0  0  0
 29 31  1  0  0  0  0
 29 28  1  0  0  0  0
 30 27  1  0  0  0  0
 30 33  1  0  0  0  0
 31 30  2  0  0  0  0
 33 32  1  0  0  0  0
 34 32  1  0  0  0  0
M  END
>  <MODEL>
7

>  <REMARK>
 VINA RESULT:      -8.0      1.898      4.561
  Name = 
  10 active torsions:
  status: ('A' for Active; 'I' for Inactive)
    1  A    between atoms: C_3  and  C_13
    2  A    between atoms: C_3  and  N_17
    3  A    between atoms: N_5  and  C_26
    4  A    between atoms: C_12  and  C_28
    5  A    between atoms: C_13  and  C_33
    6  A    between atoms: O_14  and  C_20
    7  A    between atoms: N_17  and  C_29
    8  A    between atoms: C_20  and  C_34
    9  A    between atoms: C_26  and  C_28
   10  A    between atoms: C_33  and  C_34
                            x       y       z     vdW  Elec       q    Type
                         _______ _______ _______ _____ _____    ______ ____

>  <TORSDO>
F 10

$$$$
=
 OpenBabel10252415063D

 34 38  0  0  1  0  0  0  0  0999 V2000
  188.8970  177.1340  145.6920 C   0  0  0  0  0  0  0  0  0  0  0  0
  186.7720  178.1560  146.3430 C   0  0  0  0  0  0  0  0  0  0  0  0
  187.2950  177.7850  143.9880 C   0  0  0  0  0  0  0  0  0  0  0  0
  185.3900  178.6280  142.4210 N   0  0  0  0  0  0  0  0  0  0  0  0
  188.3800  177.5040  148.0330 C   0  0  0  0  0  3  0  0  0  0  0  0
  187.1410  178.0600  147.6860 C   0  0  0  0  0  3  0  0  0  0  0  0
  185.1970  178.7920  144.6110 C   0  0  0  0  0  0  0  0  0  0  0  0
  187.6560  177.6910  145.3440 C   0  0  0  0  0  0  0  0  0  0  0  0
  184.1350  179.1510  142.5740 O   0  0  0  0  0  0  0  0  0  0  0  0
  189.2570  177.0420  147.0400 C   0  0  0  0  0  3  0  0  0  0  0  0
  189.3510  176.7890  143.3450 C   0  0  0  0  0  3  0  0  0  0  0  0
  189.7510  176.6790  144.6840 C   0  0  0  0  0  3  0  0  0  0  0  0
  185.5330  178.7150  145.9700 O   0  0  0  0  0  0  0  0  0  0  0  0
  183.9950  179.3810  143.9770 C   0  0  1  0  0  3  0  0  0  0  0  0
  185.9800  178.3680  143.6740 C   0  0  0  0  0  0  0  0  0  0  0  0
  188.1440  177.3330  143.0250 N   0  0  0  0  0  0  0  0  0  0  0  0
  182.8050  178.7050  144.4690 N   0  0  0  0  0  2  0  0  0  0  0  0
  181.7520  178.9270  143.4920 C   0  0  0  0  0  2  0  0  0  0  0  0
  180.3980  178.6160  144.1070 C   0  0  0  0  0  2  0  0  0  0  0  0
  179.2800  179.1040  143.1930 C   0  0  0  0  0  2  0  0  0  0  0  0
  179.5010  181.1830  142.0120 O   0  0  0  0  0  1  0  0  0  0  0  0
  179.8200  179.8250  141.9600 C   0  0  2  0  0  3  0  0  0  0  0  0
  179.2900  179.2180  140.6700 C   0  0  0  0  0  2  0  0  0  0  0  0
  181.2930  179.0340  139.7640 C   0  0  0  0  0  1  0  0  0  0  0  0
  180.1960  178.2790  140.1750 O   0  0  0  0  0  0  0  0  0  0  0  0
  186.2100  178.9970  141.2780 C   0  0  0  0  0  2  0  0  0  0  0  0
  185.5010  178.6280  139.9870 C   0  0  0  0  0  2  0  0  0  0  0  0
  188.2040  178.5370  136.4390 C   0  0  0  0  0  2  0  0  0  0  0  0
  186.9730  177.6700  136.6230 C   0  0  0  0  0  2  0  0  0  0  0  0
  186.5010  178.2190  138.9660 C   0  0  0  0  0  0  0  0  0  0  0  0
  186.1380  178.1510  137.7190 N   0  0  0  0  0  0  0  0  0  0  0  0
  189.0040  178.5940  138.8090 C   0  0  0  0  0  2  0  0  0  0  0  0
  187.8400  177.9320  139.3860 N   0  0  0  0  0  2  0  0  0  0  0  0
  189.2900  178.0950  137.4020 C   0  0  0  0  0  2  0  0  0  0  0  0
  1 10  2  0  0  0  0
  2  6  1  0  0  0  0
  3  8  1  0  0  0  0
  4  9  1  0  0  0  0
  4 15  1  0  0  0  0
  6  5  2  0  0  0  0
  7 13  1  0  0  0  0
  8  1  1  0  0  0  0
  8  2  2  0  0  0  0
  9 14  1  0  0  0  0
 10  5  1  0  0  0  0
 11 12  2  0  0  0  0
 12  1  1  0  0  0  0
 13  2  1  0  0  0  0
 14 17  1  1  0  0  0
 14  7  1  0  0  0  0
 15  3  1  0  0  0  0
 15  7  2  0  0  0  0
 16 11  1  0  0  0  0
 16  3  2  0  0  0  0
 18 19  1  0  0  0  0
 18 17  1  0  0  0  0
 20 19  1  0  0  0  0
 22 21  1  1  0  0  0
 22 20  1  0  0  0  0
 23 22  1  0  0  0  0
 24 25  1  0  0  0  0
 25 23  1  0  0  0  0
 26  4  1  0  0  0  0
 27 26  1  0  0  0  0
 28 29  1  0  0  0  0
 28 34  1  0  0  0  0
 29 31  1  0  0  0  0
 30 33  1  0  0  0  0
 30 27  1  0  0  0  0
 31 30  2  0  0  0  0
 32 33  1  0  0  0  0
 34 32  1  0  0  0  0
M  END
>  <MODEL>
8

>  <REMARK>
 VINA RESULT:      -8.0      2.510      6.452
  Name = 
  10 active torsions:
  status: ('A' for Active; 'I' for Inactive)
    1  A    between atoms: C_3  and  C_13
    2  A    between atoms: C_3  and  N_17
    3  A    between atoms: N_5  and  C_26
    4  A    between atoms: C_12  and  C_28
    5  A    between atoms: C_13  and  C_33
    6  A    between atoms: O_14  and  C_20
    7  A    between atoms: N_17  and  C_29
    8  A    between atoms: C_20  and  C_34
    9  A    between atoms: C_26  and  C_28
   10  A    between atoms: C_33  and  C_34
                            x       y       z     vdW  Elec       q    Type
                         _______ _______ _______ _____ _____    ______ ____

>  <TORSDO>
F 10

$$$$
=
 OpenBabel10252415063D

 34 38  0  0  1  0  0  0  0  0999 V2000
  184.9090  178.5590  145.2120 C   0  0  0  0  0  0  0  0  0  0  0  0
  187.0240  177.9250  144.1580 C   0  0  0  0  0  0  0  0  0  0  0  0
  185.1560  178.7170  142.8020 C   0  0  0  0  0  0  0  0  0  0  0  0
  185.7330  178.7310  140.2600 N   0  0  0  0  0  0  0  0  0  0  0  0
  186.7630  177.7700  146.5620 C   0  0  0  0  0  3  0  0  0  0  0  0
  187.5500  177.6110  145.4130 C   0  0  0  0  0  3  0  0  0  0  0  0
  187.2310  178.0970  141.7480 C   0  0  0  0  0  0  0  0  0  0  0  0
  185.6970  178.4000  144.0600 C   0  0  0  0  0  0  0  0  0  0  0  0
  186.8370  178.4880  139.4890 O   0  0  0  0  0  0  0  0  0  0  0  0
  185.4460  178.2420  146.4630 C   0  0  0  0  0  3  0  0  0  0  0  0
  183.1010  179.3410  143.8130 C   0  0  0  0  0  3  0  0  0  0  0  0
  183.6010  179.0330  145.0860 C   0  0  0  0  0  3  0  0  0  0  0  0
  187.7960  177.7700  142.9890 O   0  0  0  0  0  0  0  0  0  0  0  0
  187.8150  177.9680  140.3930 C   0  0  1  0  0  3  0  0  0  0  0  0
  186.0240  178.5430  141.6260 C   0  0  0  0  0  0  0  0  0  0  0  0
  183.8790  179.1790  142.7060 N   0  0  0  0  0  0  0  0  0  0  0  0
  189.0310  178.7600  140.3080 N   0  0  0  0  0  2  0  0  0  0  0  0
  190.0860  177.8800  139.8340 C   0  0  0  0  0  2  0  0  0  0  0  0
  190.4100  176.8400  140.8920 C   0  0  0  0  0  2  0  0  0  0  0  0
  191.3400  177.4310  141.9450 C   0  0  0  0  0  2  0  0  0  0  0  0
  190.2800  175.7220  143.2580 O   0  0  0  0  0  1  0  0  0  0  0  0
  191.3750  176.5880  143.2190 C   0  0  2  0  0  3  0  0  0  0  0  0
  191.3990  177.4510  144.4700 C   0  0  0  0  0  2  0  0  0  0  0  0
  192.0340  176.0620  146.0620 C   0  0  0  0  0  1  0  0  0  0  0  0
  190.9160  176.7280  145.5610 O   0  0  0  0  0  0  0  0  0  0  0  0
  184.3990  178.4670  139.7420 C   0  0  0  0  0  2  0  0  0  0  0  0
  183.8380  179.7170  139.0890 C   0  0  0  0  0  2  0  0  0  0  0  0
  179.6560  179.9730  140.6270 C   0  0  0  0  0  2  0  0  0  0  0  0
  180.3440  178.7010  140.1660 C   0  0  0  0  0  2  0  0  0  0  0  0
  182.3550  179.7150  139.1970 C   0  0  0  0  0  0  0  0  0  0  0  0
  181.7830  178.8900  140.0250 N   0  0  0  0  0  0  0  0  0  0  0  0
  180.6430  181.5720  138.9750 C   0  0  0  0  0  2  0  0  0  0  0  0
  181.6020  180.6370  138.4000 N   0  0  0  0  0  2  0  0  0  0  0  0
  179.3780  180.8650  139.4310 C   0  0  0  0  0  2  0  0  0  0  0  0
  1 10  2  0  0  0  0
  2  6  1  0  0  0  0
  3  8  1  0  0  0  0
  4 15  1  0  0  0  0
  6  5  2  0  0  0  0
  7 13  1  0  0  0  0
  8  2  2  0  0  0  0
  8  1  1  0  0  0  0
  9  4  1  0  0  0  0
  9 14  1  0  0  0  0
 10  5  1  0  0  0  0
 11 12  2  0  0  0  0
 12  1  1  0  0  0  0
 13  2  1  0  0  0  0
 14 17  1  1  0  0  0
 14  7  1  0  0  0  0
 15  7  2  0  0  0  0
 15  3  1  0  0  0  0
 16  3  2  0  0  0  0
 16 11  1  0  0  0  0
 18 17  1  0  0  0  0
 18 19  1  0  0  0  0
 19 20  1  0  0  0  0
 20 22  1  0  0  0  0
 22 21  1  1  0  0  0
 22 23  1  0  0  0  0
 23 25  1  0  0  0  0
 25 24  1  0  0  0  0
 26  4  1  0  0  0  0
 27 30  1  0  0  0  0
 27 26  1  0  0  0  0
 29 28  1  0  0  0  0
 30 31  2  0  0  0  0
 31 29  1  0  0  0  0
 32 34  1  0  0  0  0
 33 32  1  0  0  0  0
 33 30  1  0  0  0  0
 34 28  1  0  0  0  0
M  END
>  <MODEL>
9

>  <REMARK>
 VINA RESULT:      -7.9      1.984      4.817
  Name = 
  10 active torsions:
  status: ('A' for Active; 'I' for Inactive)
    1  A    between atoms: C_3  and  C_13
    2  A    between atoms: C_3  and  N_17
    3  A    between atoms: N_5  and  C_26
    4  A    between atoms: C_12  and  C_28
    5  A    between atoms: C_13  and  C_33
    6  A    between atoms: O_14  and  C_20
    7  A    between atoms: N_17  and  C_29
    8  A    between atoms: C_20  and  C_34
    9  A    between atoms: C_26  and  C_28
   10  A    between atoms: C_33  and  C_34
                            x       y       z     vdW  Elec       q    Type
                         _______ _______ _______ _____ _____    ______ ____

>  <TORSDO>
F 10

$$$$
