=
 OpenBabel10262421163D

 32 34  0  0  1  0  0  0  0  0999 V2000
  186.4890  178.2420  142.3340 C   0  0  0  0  0  3  0  0  0  0  0  0
  186.2950  178.5550  140.9870 C   0  0  0  0  0  0  0  0  0  0  0  0
  185.4130  178.2660  143.2290 C   0  0  0  0  0  0  0  0  0  0  0  0
  184.1260  178.6170  142.7500 C   0  0  0  0  0  0  0  0  0  0  0  0
  183.9840  178.9340  141.3960 C   0  0  0  0  0  3  0  0  0  0  0  0
  185.0500  178.8960  140.5550 N   0  0  0  0  0  0  0  0  0  0  0  0
  185.6850  177.9620  144.6710 C   0  0  2  0  0  3  0  0  0  0  0  0
  185.3940  179.1760  145.5590 C   0  0  0  0  0  2  0  0  0  0  0  0
  189.7190  177.1900  147.3510 C   0  0  0  0  0  3  0  0  0  0  0  0
  187.0610  177.4810  144.8440 N   0  0  0  0  0  0  0  0  0  0  0  0
  187.7790  178.3750  148.2680 C   0  0  0  0  0  3  0  0  0  0  0  0
  187.0950  178.2810  147.1250 C   0  0  0  0  0  0  0  0  0  0  0  0
  185.7100  178.8390  147.0160 C   0  0  0  0  0  2  0  0  0  0  0  0
  187.6990  177.5790  145.9720 C   0  0  0  0  0  0  0  0  0  0  0  0
  189.1420  177.8120  148.3860 C   0  0  0  0  0  3  0  0  0  0  0  0
  189.0240  177.0560  146.1030 N   0  0  0  0  0  2  0  0  0  0  0  0
  187.4220  178.5370  140.0390 C   0  0  0  0  0  0  0  0  0  0  0  0
  187.2140  178.2780  138.8230 O   0  0  0  0  0  0  0  0  0  0  0  0
  188.8260  178.7890  140.4960 C   0  0  0  0  0  2  0  0  0  0  0  0
  189.9290  177.3150  142.2040 C   0  0  0  0  0  0  0  0  0  0  0  0
  190.1010  178.2930  142.9800 O   0  0  0  0  0  0  0  0  0  0  0  0
  189.4750  177.5340  140.8570 N   0  0  0  0  0  0  0  0  0  0  0  0
  190.1470  175.9350  142.7250 C   0  0  0  0  0  2  0  0  0  0  0  0
  191.3890  175.9060  143.5930 C   0  0  0  0  0  1  0  0  0  0  0  0
  189.5260  176.4730  139.8560 C   0  0  0  0  0  2  0  0  0  0  0  0
  190.6830  177.4570  138.0370 F   0  0  0  0  0  0  0  0  0  0  0  0
  191.1270  175.2920  138.5300 O   0  0  0  0  0  1  0  0  0  0  0  0
  190.8230  176.5440  139.0650 C   0  0  2  0  0  3  0  0  0  0  0  0
  182.9700  178.6880  143.5470 O   0  0  0  0  0  0  0  0  0  0  0  0
  181.6720  179.0530  143.0890 C   0  0  0  0  0  2  0  0  0  0  0  0
  179.3180  179.3040  143.8580 C   0  0  0  0  0  1  0  0  0  0  0  0
  180.6050  178.5220  144.0320 C   0  0  0  0  0  2  0  0  0  0  0  0
  1  3  1  0  0  0  0
  2  1  2  0  0  0  0
  4  3  2  0  0  0  0
  4 29  1  0  0  0  0
  5  4  1  0  0  0  0
  6  2  1  0  0  0  0
  6  5  2  0  0  0  0
  7  3  1  6  0  0  0
  7 10  1  0  0  0  0
  7  8  1  0  0  0  0
  8 13  1  0  0  0  0
  9 15  2  0  0  0  0
 10 14  2  0  0  0  0
 11 15  1  0  0  0  0
 12 11  2  0  0  0  0
 13 12  1  0  0  0  0
 14 16  1  0  0  0  0
 14 12  1  0  0  0  0
 16  9  1  0  0  0  0
 17 19  1  0  0  0  0
 17  2  1  0  0  0  0
 18 17  2  0  0  0  0
 19 22  1  0  0  0  0
 20 23  1  0  0  0  0
 20 21  2  0  0  0  0
 22 20  1  0  0  0  0
 23 24  1  0  0  0  0
 25 22  1  0  0  0  0
 27 28  1  0  0  0  0
 28 26  1  6  0  0  0
 28 25  1  0  0  0  0
 30 29  1  0  0  0  0
 30 32  1  0  0  0  0
 31 32  1  0  0  0  0
M  END
>  <MODEL>
1

>  <REMARK>
 VINA RESULT:      -8.4      0.000      0.000
  Name = 
  10 active torsions:
  status: ('A' for Active; 'I' for Inactive)
    1  A    between atoms: C_2  and  C_5
    2  A    between atoms: C_3  and  C_22
    3  A    between atoms: C_4  and  C_24
    4  A    between atoms: C_13  and  O_18
    5  A    between atoms: C_13  and  C_29
    6  A    between atoms: C_14  and  O_18
    7  A    between atoms: C_15  and  N_20
    8  A    between atoms: C_15  and  C_26
    9  A    between atoms: C_16  and  N_20
   10  A    between atoms: C_16  and  C_24
                            x       y       z     vdW  Elec       q    Type
                         _______ _______ _______ _____ _____    ______ ____

>  <TORSDO>
F 10

$$$$
=
 OpenBabel10262421163D

 32 34  0  0  1  0  0  0  0  0999 V2000
  186.9840  178.0850  142.0980 C   0  0  0  0  0  3  0  0  0  0  0  0
  186.9830  178.4010  140.7370 C   0  0  0  0  0  0  0  0  0  0  0  0
  185.8260  178.2560  142.8650 C   0  0  0  0  0  0  0  0  0  0  0  0
  184.6550  178.7600  142.2430 C   0  0  0  0  0  0  0  0  0  0  0  0
  184.7080  179.0720  140.8820 C   0  0  0  0  0  3  0  0  0  0  0  0
  185.8490  178.8890  140.1680 N   0  0  0  0  0  0  0  0  0  0  0  0
  185.8940  177.9420  144.3290 C   0  0  2  0  0  3  0  0  0  0  0  0
  185.4460  179.1380  145.1760 C   0  0  0  0  0  2  0  0  0  0  0  0
  189.5140  177.2330  147.5590 C   0  0  0  0  0  3  0  0  0  0  0  0
  187.2410  177.4910  144.6960 N   0  0  0  0  0  0  0  0  0  0  0  0
  187.4330  178.3600  148.1950 C   0  0  0  0  0  3  0  0  0  0  0  0
  186.9240  178.2640  146.9640 C   0  0  0  0  0  0  0  0  0  0  0  0
  185.5560  178.7900  146.6600 C   0  0  0  0  0  2  0  0  0  0  0  0
  187.7070  177.5910  145.9050 C   0  0  0  0  0  0  0  0  0  0  0  0
  188.7780  177.8290  148.5050 C   0  0  0  0  0  3  0  0  0  0  0  0
  189.0110  177.0980  146.2220 N   0  0  0  0  0  2  0  0  0  0  0  0
  188.1990  178.2260  139.9230 C   0  0  0  0  0  0  0  0  0  0  0  0
  188.6340  179.1880  139.2350 O   0  0  0  0  0  0  0  0  0  0  0  0
  188.9160  176.9130  139.8700 C   0  0  0  0  0  2  0  0  0  0  0  0
  191.4200  177.0590  139.7480 C   0  0  0  0  0  0  0  0  0  0  0  0
  191.4140  176.6580  138.5530 O   0  0  0  0  0  0  0  0  0  0  0  0
  190.2130  177.0170  140.5290 N   0  0  0  0  0  0  0  0  0  0  0  0
  192.6780  177.6280  140.3110 C   0  0  0  0  0  2  0  0  0  0  0  0
  193.8750  177.0080  139.6190 C   0  0  0  0  0  1  0  0  0  0  0  0
  190.2360  177.2080  141.9750 C   0  0  0  0  0  2  0  0  0  0  0  0
  189.0220  175.5290  143.1230 F   0  0  0  0  0  0  0  0  0  0  0  0
  191.1430  175.9490  143.7940 O   0  0  0  0  0  1  0  0  0  0  0  0
  190.2900  175.8690  142.6930 C   0  0  2  0  0  3  0  0  0  0  0  0
  183.4360  178.9870  142.9040 O   0  0  0  0  0  0  0  0  0  0  0  0
  182.1430  178.7830  142.3450 C   0  0  0  0  0  2  0  0  0  0  0  0
  179.8860  178.2300  143.2380 C   0  0  0  0  0  1  0  0  0  0  0  0
  181.0630  179.1800  143.3380 C   0  0  0  0  0  2  0  0  0  0  0  0
  1  3  1  0  0  0  0
  2  1  2  0  0  0  0
  4  3  2  0  0  0  0
  4 29  1  0  0  0  0
  5  4  1  0  0  0  0
  6  2  1  0  0  0  0
  6  5  2  0  0  0  0
  7  3  1  6  0  0  0
  7 10  1  0  0  0  0
  7  8  1  0  0  0  0
  8 13  1  0  0  0  0
  9 15  2  0  0  0  0
 10 14  2  0  0  0  0
 11 15  1  0  0  0  0
 12 11  2  0  0  0  0
 13 12  1  0  0  0  0
 14 16  1  0  0  0  0
 14 12  1  0  0  0  0
 16  9  1  0  0  0  0
 17  2  1  0  0  0  0
 18 17  2  0  0  0  0
 19 17  1  0  0  0  0
 19 22  1  0  0  0  0
 20 23  1  0  0  0  0
 20 22  1  0  0  0  0
 21 20  2  0  0  0  0
 22 25  1  0  0  0  0
 24 23  1  0  0  0  0
 25 28  1  0  0  0  0
 28 26  1  1  0  0  0
 28 27  1  0  0  0  0
 30 29  1  0  0  0  0
 30 32  1  0  0  0  0
 31 32  1  0  0  0  0
M  END
>  <MODEL>
2

>  <REMARK>
 VINA RESULT:      -8.3      1.496      2.291
  Name = 
  10 active torsions:
  status: ('A' for Active; 'I' for Inactive)
    1  A    between atoms: C_2  and  C_5
    2  A    between atoms: C_3  and  C_22
    3  A    between atoms: C_4  and  C_24
    4  A    between atoms: C_13  and  O_18
    5  A    between atoms: C_13  and  C_29
    6  A    between atoms: C_14  and  O_18
    7  A    between atoms: C_15  and  N_20
    8  A    between atoms: C_15  and  C_26
    9  A    between atoms: C_16  and  N_20
   10  A    between atoms: C_16  and  C_24
                            x       y       z     vdW  Elec       q    Type
                         _______ _______ _______ _____ _____    ______ ____

>  <TORSDO>
F 10

$$$$
=
 OpenBabel10262421163D

 32 34  0  0  1  0  0  0  0  0999 V2000
  186.8510  177.9980  144.5900 C   0  0  0  0  0  3  0  0  0  0  0  0
  185.8900  178.4510  145.4970 C   0  0  0  0  0  0  0  0  0  0  0  0
  188.0400  177.4190  145.0470 C   0  0  0  0  0  0  0  0  0  0  0  0
  188.2580  177.3040  146.4440 C   0  0  0  0  0  0  0  0  0  0  0  0
  187.2720  177.7820  147.3110 C   0  0  0  0  0  3  0  0  0  0  0  0
  186.1280  178.3340  146.8320 N   0  0  0  0  0  0  0  0  0  0  0  0
  189.0550  176.9890  144.0310 C   0  0  2  0  0  3  0  0  0  0  0  0
  190.3280  177.8360  144.1250 C   0  0  0  0  0  2  0  0  0  0  0  0
  189.4200  177.2950  139.1510 C   0  0  0  0  0  3  0  0  0  0  0  0
  188.4780  177.0240  142.6820 N   0  0  0  0  0  0  0  0  0  0  0  0
  191.3870  177.5050  140.5980 C   0  0  0  0  0  3  0  0  0  0  0  0
  190.6660  177.3680  141.7140 C   0  0  0  0  0  0  0  0  0  0  0  0
  191.3260  177.3890  143.0580 C   0  0  0  0  0  2  0  0  0  0  0  0
  189.2060  177.1510  141.6140 C   0  0  0  0  0  0  0  0  0  0  0  0
  190.7420  177.4710  139.2680 C   0  0  0  0  0  3  0  0  0  0  0  0
  188.6010  177.1360  140.3180 N   0  0  0  0  0  2  0  0  0  0  0  0
  184.6380  179.0650  145.0240 C   0  0  0  0  0  0  0  0  0  0  0  0
  183.6010  179.0000  145.7370 O   0  0  0  0  0  0  0  0  0  0  0  0
  184.5600  179.7420  143.6910 C   0  0  0  0  0  2  0  0  0  0  0  0
  182.4450  179.0030  142.5570 C   0  0  0  0  0  0  0  0  0  0  0  0
  181.7410  179.5540  143.4460 O   0  0  0  0  0  0  0  0  0  0  0  0
  183.8680  178.8900  142.7300 N   0  0  0  0  0  0  0  0  0  0  0  0
  181.7840  178.5300  141.3060 C   0  0  0  0  0  2  0  0  0  0  0  0
  180.2880  178.7560  141.4010 C   0  0  0  0  0  1  0  0  0  0  0  0
  184.6720  178.0300  141.8680 C   0  0  0  0  0  2  0  0  0  0  0  0
  186.4660  179.5750  141.7830 F   0  0  0  0  0  0  0  0  0  0  0  0
  184.8410  179.7500  140.2170 O   0  0  0  0  0  1  0  0  0  0  0  0
  185.5910  178.8610  140.9870 C   0  0  2  0  0  3  0  0  0  0  0  0
  189.4110  176.7540  147.0280 O   0  0  0  0  0  0  0  0  0  0  0  0
  190.4250  177.4880  147.7060 C   0  0  0  0  0  2  0  0  0  0  0  0
  191.9860  175.9250  146.5580 C   0  0  0  0  0  1  0  0  0  0  0  0
  191.6840  176.6500  147.8550 C   0  0  0  0  0  2  0  0  0  0  0  0
  1  3  2  0  0  0  0
  1  2  1  0  0  0  0
  2  6  2  0  0  0  0
  3  4  1  0  0  0  0
  4 29  1  0  0  0  0
  4  5  2  0  0  0  0
  6  5  1  0  0  0  0
  7  8  1  0  0  0  0
  7  3  1  1  0  0  0
  9 15  2  0  0  0  0
  9 16  1  0  0  0  0
 10  7  1  0  0  0  0
 11 12  2  0  0  0  0
 12 13  1  0  0  0  0
 13  8  1  0  0  0  0
 14 12  1  0  0  0  0
 14 10  2  0  0  0  0
 15 11  1  0  0  0  0
 16 14  1  0  0  0  0
 17  2  1  0  0  0  0
 17 18  2  0  0  0  0
 19 17  1  0  0  0  0
 20 22  1  0  0  0  0
 20 21  2  0  0  0  0
 22 19  1  0  0  0  0
 23 24  1  0  0  0  0
 23 20  1  0  0  0  0
 25 22  1  0  0  0  0
 28 27  1  1  0  0  0
 28 26  1  0  0  0  0
 28 25  1  0  0  0  0
 29 30  1  0  0  0  0
 30 32  1  0  0  0  0
 31 32  1  0  0  0  0
M  END
>  <MODEL>
3

>  <REMARK>
 VINA RESULT:      -8.2      2.518      7.346
  Name = 
  10 active torsions:
  status: ('A' for Active; 'I' for Inactive)
    1  A    between atoms: C_2  and  C_5
    2  A    between atoms: C_3  and  C_22
    3  A    between atoms: C_4  and  C_24
    4  A    between atoms: C_13  and  O_18
    5  A    between atoms: C_13  and  C_29
    6  A    between atoms: C_14  and  O_18
    7  A    between atoms: C_15  and  N_20
    8  A    between atoms: C_15  and  C_26
    9  A    between atoms: C_16  and  N_20
   10  A    between atoms: C_16  and  C_24
                            x       y       z     vdW  Elec       q    Type
                         _______ _______ _______ _____ _____    ______ ____

>  <TORSDO>
F 10

$$$$
=
 OpenBabel10262421163D

 32 34  0  0  1  0  0  0  0  0999 V2000
  187.7420  178.3470  141.6600 C   0  0  0  0  0  3  0  0  0  0  0  0
  186.7880  178.4740  140.6480 C   0  0  0  0  0  0  0  0  0  0  0  0
  189.0700  178.0380  141.3460 C   0  0  0  0  0  0  0  0  0  0  0  0
  189.4320  177.8520  139.9880 C   0  0  0  0  0  0  0  0  0  0  0  0
  188.4390  177.9770  139.0130 C   0  0  0  0  0  3  0  0  0  0  0  0
  187.1600  178.2820  139.3540 N   0  0  0  0  0  0  0  0  0  0  0  0
  190.0440  177.8720  142.4740 C   0  0  2  0  0  3  0  0  0  0  0  0
  190.6610  176.4700  142.4730 C   0  0  0  0  0  2  0  0  0  0  0  0
  189.6740  177.5180  147.3500 C   0  0  0  0  0  3  0  0  0  0  0  0
  189.4020  178.1830  143.7570 N   0  0  0  0  0  0  0  0  0  0  0  0
  191.3560  176.2480  146.0980 C   0  0  0  0  0  3  0  0  0  0  0  0
  190.9430  176.7300  144.9220 C   0  0  0  0  0  0  0  0  0  0  0  0
  191.6240  176.3290  143.6510 C   0  0  0  0  0  2  0  0  0  0  0  0
  189.8300  177.7040  144.8860 C   0  0  0  0  0  0  0  0  0  0  0  0
  190.6960  176.6530  147.3580 C   0  0  0  0  0  3  0  0  0  0  0  0
  189.1970  178.0700  146.1150 N   0  0  0  0  0  2  0  0  0  0  0  0
  185.3870  178.7950  140.9700 C   0  0  0  0  0  0  0  0  0  0  0  0
  184.8150  179.7560  140.3880 O   0  0  0  0  0  0  0  0  0  0  0  0
  184.6300  178.0190  142.0030 C   0  0  0  0  0  2  0  0  0  0  0  0
  182.3350  178.9010  142.5170 C   0  0  0  0  0  0  0  0  0  0  0  0
  181.8790  178.4230  141.4430 O   0  0  0  0  0  0  0  0  0  0  0  0
  183.7520  178.9050  142.7600 N   0  0  0  0  0  0  0  0  0  0  0  0
  181.3780  179.4020  143.5450 C   0  0  0  0  0  2  0  0  0  0  0  0
  180.2970  178.3670  143.7870 C   0  0  0  0  0  1  0  0  0  0  0  0
  184.3340  179.6850  143.8470 C   0  0  0  0  0  2  0  0  0  0  0  0
  183.6320  178.5880  145.8260 F   0  0  0  0  0  0  0  0  0  0  0  0
  185.7560  179.3680  145.7430 O   0  0  0  0  0  1  0  0  0  0  0  0
  184.7270  178.7810  145.0050 C   0  0  2  0  0  3  0  0  0  0  0  0
  190.7260  177.5280  139.5440 O   0  0  0  0  0  0  0  0  0  0  0  0
  191.0520  176.4740  138.6450 C   0  0  0  0  0  2  0  0  0  0  0  0
  192.9640  175.1870  137.7040 C   0  0  0  0  0  1  0  0  0  0  0  0
  192.5260  176.5200  138.2800 C   0  0  0  0  0  2  0  0  0  0  0  0
  2 17  1  0  0  0  0
  2  1  2  0  0  0  0
  3  1  1  0  0  0  0
  4  3  2  0  0  0  0
  5  6  2  0  0  0  0
  5  4  1  0  0  0  0
  6  2  1  0  0  0  0
  7  3  1  6  0  0  0
  7 10  1  0  0  0  0
  8  7  1  0  0  0  0
  8 13  1  0  0  0  0
  9 15  2  0  0  0  0
 10 14  2  0  0  0  0
 11 15  1  0  0  0  0
 12 11  2  0  0  0  0
 13 12  1  0  0  0  0
 14 12  1  0  0  0  0
 14 16  1  0  0  0  0
 16  9  1  0  0  0  0
 17 19  1  0  0  0  0
 18 17  2  0  0  0  0
 19 22  1  0  0  0  0
 20 22  1  0  0  0  0
 20 23  1  0  0  0  0
 21 20  2  0  0  0  0
 22 25  1  0  0  0  0
 23 24  1  0  0  0  0
 25 28  1  0  0  0  0
 28 27  1  1  0  0  0
 28 26  1  0  0  0  0
 29  4  1  0  0  0  0
 30 29  1  0  0  0  0
 31 32  1  0  0  0  0
 32 30  1  0  0  0  0
M  END
>  <MODEL>
4

>  <REMARK>
 VINA RESULT:      -8.1      2.570      7.175
  Name = 
  10 active torsions:
  status: ('A' for Active; 'I' for Inactive)
    1  A    between atoms: C_2  and  C_5
    2  A    between atoms: C_3  and  C_22
    3  A    between atoms: C_4  and  C_24
    4  A    between atoms: C_13  and  O_18
    5  A    between atoms: C_13  and  C_29
    6  A    between atoms: C_14  and  O_18
    7  A    between atoms: C_15  and  N_20
    8  A    between atoms: C_15  and  C_26
    9  A    between atoms: C_16  and  N_20
   10  A    between atoms: C_16  and  C_24
                            x       y       z     vdW  Elec       q    Type
                         _______ _______ _______ _____ _____    ______ ____

>  <TORSDO>
F 10

$$$$
=
 OpenBabel10262421163D

 32 34  0  0  1  0  0  0  0  0999 V2000
  186.8870  177.8530  144.6820 C   0  0  0  0  0  3  0  0  0  0  0  0
  186.1020  178.3510  145.7240 C   0  0  0  0  0  0  0  0  0  0  0  0
  188.1130  177.2350  144.9520 C   0  0  0  0  0  0  0  0  0  0  0  0
  188.5490  177.1270  146.2960 C   0  0  0  0  0  0  0  0  0  0  0  0
  187.7340  177.6520  147.3030 C   0  0  0  0  0  3  0  0  0  0  0  0
  186.5480  178.2410  147.0050 N   0  0  0  0  0  0  0  0  0  0  0  0
  188.9340  176.7560  143.7930 C   0  0  2  0  0  3  0  0  0  0  0  0
  190.3670  177.2940  143.8670 C   0  0  0  0  0  2  0  0  0  0  0  0
  189.0200  177.6940  138.9810 C   0  0  0  0  0  3  0  0  0  0  0  0
  188.2880  177.1100  142.5240 N   0  0  0  0  0  0  0  0  0  0  0  0
  191.0800  177.2710  140.2400 C   0  0  0  0  0  3  0  0  0  0  0  0
  190.4250  177.1260  141.3950 C   0  0  0  0  0  0  0  0  0  0  0  0
  191.1640  176.8090  142.6580 C   0  0  0  0  0  2  0  0  0  0  0  0
  188.9500  177.2370  141.4130 C   0  0  0  0  0  0  0  0  0  0  0  0
  190.3530  177.5690  138.9870 C   0  0  0  0  0  3  0  0  0  0  0  0
  188.2690  177.5400  140.1930 N   0  0  0  0  0  2  0  0  0  0  0  0
  184.8110  179.0070  145.4490 C   0  0  0  0  0  0  0  0  0  0  0  0
  183.8330  178.8110  146.2190 O   0  0  0  0  0  0  0  0  0  0  0  0
  184.6250  179.8820  144.2480 C   0  0  0  0  0  2  0  0  0  0  0  0
  184.6300  178.9810  141.9040 C   0  0  0  0  0  0  0  0  0  0  0  0
  185.5720  179.7530  141.5790 O   0  0  0  0  0  0  0  0  0  0  0  0
  183.9750  179.1380  143.1750 N   0  0  0  0  0  0  0  0  0  0  0  0
  184.2520  177.8750  140.9780 C   0  0  0  0  0  2  0  0  0  0  0  0
  183.8270  178.4490  139.6410 C   0  0  0  0  0  1  0  0  0  0  0  0
  182.7190  178.4570  143.4730 C   0  0  0  0  0  2  0  0  0  0  0  0
  180.5060  179.0480  144.0780 F   0  0  0  0  0  0  0  0  0  0  0  0
  181.0970  179.2380  141.9010 O   0  0  0  0  0  1  0  0  0  0  0  0
  181.5360  179.3770  143.2170 C   0  0  2  0  0  3  0  0  0  0  0  0
  189.7620  176.5410  146.6970 O   0  0  0  0  0  0  0  0  0  0  0  0
  190.7740  177.1800  147.4670 C   0  0  0  0  0  2  0  0  0  0  0  0
  192.2790  175.4580  146.4830 C   0  0  0  0  0  1  0  0  0  0  0  0
  191.9210  176.2210  147.7430 C   0  0  0  0  0  2  0  0  0  0  0  0
  1  3  2  0  0  0  0
  1  2  1  0  0  0  0
  2  6  2  0  0  0  0
  3  4  1  0  0  0  0
  4 29  1  0  0  0  0
  4  5  2  0  0  0  0
  6  5  1  0  0  0  0
  7  8  1  0  0  0  0
  7  3  1  1  0  0  0
  9 15  2  0  0  0  0
  9 16  1  0  0  0  0
 10  7  1  0  0  0  0
 11 12  2  0  0  0  0
 12 14  1  0  0  0  0
 12 13  1  0  0  0  0
 13  8  1  0  0  0  0
 14 10  2  0  0  0  0
 15 11  1  0  0  0  0
 16 14  1  0  0  0  0
 17  2  1  0  0  0  0
 17 18  2  0  0  0  0
 19 17  1  0  0  0  0
 20 22  1  0  0  0  0
 21 20  2  0  0  0  0
 22 25  1  0  0  0  0
 22 19  1  0  0  0  0
 23 20  1  0  0  0  0
 24 23  1  0  0  0  0
 28 27  1  6  0  0  0
 28 25  1  0  0  0  0
 28 26  1  0  0  0  0
 29 30  1  0  0  0  0
 30 32  1  0  0  0  0
 31 32  1  0  0  0  0
M  END
>  <MODEL>
5

>  <REMARK>
 VINA RESULT:      -8.0      3.114      7.729
  Name = 
  10 active torsions:
  status: ('A' for Active; 'I' for Inactive)
    1  A    between atoms: C_2  and  C_5
    2  A    between atoms: C_3  and  C_22
    3  A    between atoms: C_4  and  C_24
    4  A    between atoms: C_13  and  O_18
    5  A    between atoms: C_13  and  C_29
    6  A    between atoms: C_14  and  O_18
    7  A    between atoms: C_15  and  N_20
    8  A    between atoms: C_15  and  C_26
    9  A    between atoms: C_16  and  N_20
   10  A    between atoms: C_16  and  C_24
                            x       y       z     vdW  Elec       q    Type
                         _______ _______ _______ _____ _____    ______ ____

>  <TORSDO>
F 10

$$$$
=
 OpenBabel10262421163D

 32 34  0  0  1  0  0  0  0  0999 V2000
  187.1000  178.0060  142.8120 C   0  0  0  0  0  3  0  0  0  0  0  0
  188.2950  177.5480  142.2520 C   0  0  0  0  0  0  0  0  0  0  0  0
  186.1000  178.5500  141.9990 C   0  0  0  0  0  0  0  0  0  0  0  0
  186.3180  178.6350  140.6010 C   0  0  0  0  0  0  0  0  0  0  0  0
  187.5340  178.1740  140.0890 C   0  0  0  0  0  3  0  0  0  0  0  0
  188.4810  177.6480  140.9080 N   0  0  0  0  0  0  0  0  0  0  0  0
  184.8550  179.0650  142.6570 C   0  0  2  0  0  3  0  0  0  0  0  0
  184.7350  178.5530  144.0960 C   0  0  0  0  0  2  0  0  0  0  0  0
  180.0540  178.2120  142.1410 C   0  0  0  0  0  3  0  0  0  0  0  0
  183.6720  178.7210  141.8590 N   0  0  0  0  0  0  0  0  0  0  0  0
  181.0480  178.6520  144.3380 C   0  0  0  0  0  3  0  0  0  0  0  0
  182.2800  178.7650  143.8340 C   0  0  0  0  0  0  0  0  0  0  0  0
  183.4430  179.0730  144.7240 C   0  0  0  0  0  2  0  0  0  0  0  0
  182.4840  178.6250  142.3760 C   0  0  0  0  0  0  0  0  0  0  0  0
  179.8920  178.3620  143.4610 C   0  0  0  0  0  3  0  0  0  0  0  0
  181.3550  178.3300  141.5480 N   0  0  0  0  0  2  0  0  0  0  0  0
  189.3550  176.9770  143.1010 C   0  0  0  0  0  0  0  0  0  0  0  0
  189.4710  175.7270  143.2010 O   0  0  0  0  0  0  0  0  0  0  0  0
  190.2860  177.8570  143.8770 C   0  0  0  0  0  2  0  0  0  0  0  0
  191.2500  176.7200  145.8980 C   0  0  0  0  0  0  0  0  0  0  0  0
  191.9930  176.0020  145.1750 O   0  0  0  0  0  0  0  0  0  0  0  0
  190.2250  177.5300  145.2980 N   0  0  0  0  0  0  0  0  0  0  0  0
  191.4940  176.7560  147.3690 C   0  0  0  0  0  2  0  0  0  0  0  0
  192.4250  175.6250  147.7620 C   0  0  0  0  0  1  0  0  0  0  0  0
  189.1800  178.1530  146.1030 C   0  0  0  0  0  2  0  0  0  0  0  0
  187.0110  177.2110  145.9660 F   0  0  0  0  0  0  0  0  0  0  0  0
  188.0030  177.2990  148.0000 O   0  0  0  0  0  1  0  0  0  0  0  0
  188.2160  177.1050  146.6350 C   0  0  2  0  0  3  0  0  0  0  0  0
  185.3990  179.1680  139.6810 O   0  0  0  0  0  0  0  0  0  0  0  0
  185.1080  178.6290  138.3960 C   0  0  0  0  0  2  0  0  0  0  0  0
  182.7890  179.5190  138.5630 C   0  0  0  0  0  1  0  0  0  0  0  0
  183.6310  178.2900  138.2810 C   0  0  0  0  0  2  0  0  0  0  0  0
  2  1  1  0  0  0  0
  2 17  1  0  0  0  0
  3  1  2  0  0  0  0
  4  3  1  0  0  0  0
  5  4  2  0  0  0  0
  5  6  1  0  0  0  0
  6  2  2  0  0  0  0
  7  3  1  6  0  0  0
  7  8  1  0  0  0  0
  8 13  1  0  0  0  0
  9 15  2  0  0  0  0
 10 14  2  0  0  0  0
 10  7  1  0  0  0  0
 12 11  2  0  0  0  0
 12 13  1  0  0  0  0
 14 12  1  0  0  0  0
 15 11  1  0  0  0  0
 16  9  1  0  0  0  0
 16 14  1  0  0  0  0
 17 18  2  0  0  0  0
 17 19  1  0  0  0  0
 19 22  1  0  0  0  0
 20 23  1  0  0  0  0
 21 20  2  0  0  0  0
 22 20  1  0  0  0  0
 22 25  1  0  0  0  0
 23 24  1  0  0  0  0
 25 28  1  0  0  0  0
 28 26  1  6  0  0  0
 28 27  1  0  0  0  0
 29  4  1  0  0  0  0
 30 29  1  0  0  0  0
 32 30  1  0  0  0  0
 32 31  1  0  0  0  0
M  END
>  <MODEL>
6

>  <REMARK>
 VINA RESULT:      -7.9      2.661      5.901
  Name = 
  10 active torsions:
  status: ('A' for Active; 'I' for Inactive)
    1  A    between atoms: C_2  and  C_5
    2  A    between atoms: C_3  and  C_22
    3  A    between atoms: C_4  and  C_24
    4  A    between atoms: C_13  and  O_18
    5  A    between atoms: C_13  and  C_29
    6  A    between atoms: C_14  and  O_18
    7  A    between atoms: C_15  and  N_20
    8  A    between atoms: C_15  and  C_26
    9  A    between atoms: C_16  and  N_20
   10  A    between atoms: C_16  and  C_24
                            x       y       z     vdW  Elec       q    Type
                         _______ _______ _______ _____ _____    ______ ____

>  <TORSDO>
F 10

$$$$
=
 OpenBabel10262421163D

 32 34  0  0  1  0  0  0  0  0999 V2000
  187.6670  178.3500  141.7660 C   0  0  0  0  0  3  0  0  0  0  0  0
  186.6570  178.5000  140.8130 C   0  0  0  0  0  0  0  0  0  0  0  0
  188.9770  178.0560  141.3690 C   0  0  0  0  0  0  0  0  0  0  0  0
  189.2620  177.9070  139.9880 C   0  0  0  0  0  0  0  0  0  0  0  0
  188.2150  178.0550  139.0740 C   0  0  0  0  0  3  0  0  0  0  0  0
  186.9560  178.3450  139.4950 N   0  0  0  0  0  0  0  0  0  0  0  0
  190.0130  177.8650  142.4350 C   0  0  2  0  0  3  0  0  0  0  0  0
  190.6380  176.4680  142.3570 C   0  0  0  0  0  2  0  0  0  0  0  0
  189.9190  177.3600  147.3110 C   0  0  0  0  0  3  0  0  0  0  0  0
  189.4420  178.1300  143.7610 N   0  0  0  0  0  0  0  0  0  0  0  0
  191.5360  176.1430  145.9290 C   0  0  0  0  0  3  0  0  0  0  0  0
  191.0560  176.6570  144.7930 C   0  0  0  0  0  0  0  0  0  0  0  0
  191.6670  176.3000  143.4740 C   0  0  0  0  0  2  0  0  0  0  0  0
  189.9360  177.6220  144.8490 C   0  0  0  0  0  0  0  0  0  0  0  0
  190.9460  176.5040  147.2360 C   0  0  0  0  0  3  0  0  0  0  0  0
  189.3700  177.9450  146.1220 N   0  0  0  0  0  2  0  0  0  0  0  0
  185.2750  178.8060  141.2220 C   0  0  0  0  0  0  0  0  0  0  0  0
  184.6840  179.8050  140.7320 O   0  0  0  0  0  0  0  0  0  0  0  0
  184.5620  177.9680  142.2380 C   0  0  0  0  0  2  0  0  0  0  0  0
  185.4470  178.3430  144.5580 C   0  0  0  0  0  0  0  0  0  0  0  0
  186.0790  177.2540  144.5240 O   0  0  0  0  0  0  0  0  0  0  0  0
  184.5050  178.6630  143.5190 N   0  0  0  0  0  0  0  0  0  0  0  0
  185.7370  179.3110  145.6550 C   0  0  0  0  0  2  0  0  0  0  0  0
  185.6550  178.6060  146.9950 C   0  0  0  0  0  1  0  0  0  0  0  0
  183.5640  179.7690  143.6600 C   0  0  0  0  0  2  0  0  0  0  0  0
  182.1410  178.0420  144.4370 F   0  0  0  0  0  0  0  0  0  0  0  0
  181.5990  179.0690  142.4930 O   0  0  0  0  0  1  0  0  0  0  0  0
  182.1390  179.2500  143.7670 C   0  0  2  0  0  3  0  0  0  0  0  0
  190.5290  177.6020  139.4640 O   0  0  0  0  0  0  0  0  0  0  0  0
  190.7800  177.0590  138.1720 C   0  0  0  0  0  2  0  0  0  0  0  0
  193.1950  176.4620  138.2710 C   0  0  0  0  0  1  0  0  0  0  0  0
  191.7800  175.9170  138.2580 C   0  0  0  0  0  2  0  0  0  0  0  0
  2 17  1  0  0  0  0
  2  1  2  0  0  0  0
  3  1  1  0  0  0  0
  4  3  2  0  0  0  0
  5  6  2  0  0  0  0
  5  4  1  0  0  0  0
  6  2  1  0  0  0  0
  7  3  1  6  0  0  0
  7 10  1  0  0  0  0
  8  7  1  0  0  0  0
  8 13  1  0  0  0  0
 10 14  2  0  0  0  0
 11 15  1  0  0  0  0
 12 14  1  0  0  0  0
 12 11  2  0  0  0  0
 13 12  1  0  0  0  0
 14 16  1  0  0  0  0
 15  9  2  0  0  0  0
 16  9  1  0  0  0  0
 17 19  1  0  0  0  0
 18 17  2  0  0  0  0
 19 22  1  0  0  0  0
 20 23  1  0  0  0  0
 21 20  2  0  0  0  0
 22 25  1  0  0  0  0
 22 20  1  0  0  0  0
 23 24  1  0  0  0  0
 25 28  1  0  0  0  0
 28 27  1  6  0  0  0
 28 26  1  0  0  0  0
 29  4  1  0  0  0  0
 30 32  1  0  0  0  0
 30 29  1  0  0  0  0
 32 31  1  0  0  0  0
M  END
>  <MODEL>
7

>  <REMARK>
 VINA RESULT:      -7.8      2.578      6.775
  Name = 
  10 active torsions:
  status: ('A' for Active; 'I' for Inactive)
    1  A    between atoms: C_2  and  C_5
    2  A    between atoms: C_3  and  C_22
    3  A    between atoms: C_4  and  C_24
    4  A    between atoms: C_13  and  O_18
    5  A    between atoms: C_13  and  C_29
    6  A    between atoms: C_14  and  O_18
    7  A    between atoms: C_15  and  N_20
    8  A    between atoms: C_15  and  C_26
    9  A    between atoms: C_16  and  N_20
   10  A    between atoms: C_16  and  C_24
                            x       y       z     vdW  Elec       q    Type
                         _______ _______ _______ _____ _____    ______ ____

>  <TORSDO>
F 10

$$$$
=
 OpenBabel10262421163D

 32 34  0  0  1  0  0  0  0  0999 V2000
  188.6750  177.4400  141.9510 C   0  0  0  0  0  3  0  0  0  0  0  0
  189.9330  176.8510  141.8000 C   0  0  0  0  0  0  0  0  0  0  0  0
  188.0920  178.1460  140.8930 C   0  0  0  0  0  0  0  0  0  0  0  0
  188.7980  178.2610  139.6690 C   0  0  0  0  0  0  0  0  0  0  0  0
  190.0590  177.6650  139.5710 C   0  0  0  0  0  3  0  0  0  0  0  0
  190.5920  176.9830  140.6180 N   0  0  0  0  0  0  0  0  0  0  0  0
  186.7590  178.7920  141.1230 C   0  0  2  0  0  3  0  0  0  0  0  0
  186.0930  178.2550  142.3940 C   0  0  0  0  0  2  0  0  0  0  0  0
  182.3740  178.5680  138.9400 C   0  0  0  0  0  3  0  0  0  0  0  0
  185.8970  178.6260  139.9470 N   0  0  0  0  0  0  0  0  0  0  0  0
  182.5840  178.8100  141.3700 C   0  0  0  0  0  3  0  0  0  0  0  0
  183.9190  178.7830  141.3260 C   0  0  0  0  0  0  0  0  0  0  0  0
  184.7280  178.9150  142.5790 C   0  0  0  0  0  2  0  0  0  0  0  0
  184.6010  178.6640  140.0190 C   0  0  0  0  0  0  0  0  0  0  0  0
  181.7810  178.6960  140.1340 C   0  0  0  0  0  3  0  0  0  0  0  0
  183.8050  178.5400  138.8370 N   0  0  0  0  0  2  0  0  0  0  0  0
  190.5560  176.1090  142.9100 C   0  0  0  0  0  0  0  0  0  0  0  0
  190.1850  174.9310  143.1610 O   0  0  0  0  0  0  0  0  0  0  0  0
  191.6050  176.7390  143.7730 C   0  0  0  0  0  2  0  0  0  0  0  0
  191.7700  176.0010  146.1680 C   0  0  0  0  0  0  0  0  0  0  0  0
  192.4460  174.9890  145.8400 O   0  0  0  0  0  0  0  0  0  0  0  0
  191.1470  176.8120  145.1560 N   0  0  0  0  0  0  0  0  0  0  0  0
  191.6800  176.3720  147.6100 C   0  0  0  0  0  2  0  0  0  0  0  0
  192.8040  175.7070  148.3800 C   0  0  0  0  0  1  0  0  0  0  0  0
  190.1440  177.8150  145.4970 C   0  0  0  0  0  2  0  0  0  0  0  0
  187.9480  177.1090  144.9570 F   0  0  0  0  0  0  0  0  0  0  0  0
  188.3300  177.8770  147.0520 O   0  0  0  0  0  1  0  0  0  0  0  0
  188.8670  177.1520  145.9880 C   0  0  2  0  0  3  0  0  0  0  0  0
  188.3280  178.9510  138.5390 O   0  0  0  0  0  0  0  0  0  0  0  0
  188.9860  179.0170  137.2780 C   0  0  0  0  0  2  0  0  0  0  0  0
  186.8390  177.8960  136.7020 C   0  0  0  0  0  1  0  0  0  0  0  0
  188.2620  178.1600  136.2520 C   0  0  0  0  0  2  0  0  0  0  0  0
  2  1  1  0  0  0  0
  2 17  1  0  0  0  0
  3  1  2  0  0  0  0
  4  3  1  0  0  0  0
  5  4  2  0  0  0  0
  5  6  1  0  0  0  0
  6  2  2  0  0  0  0
  7  3  1  6  0  0  0
  7  8  1  0  0  0  0
  8 13  1  0  0  0  0
  9 15  2  0  0  0  0
 10 14  2  0  0  0  0
 10  7  1  0  0  0  0
 12 11  2  0  0  0  0
 12 13  1  0  0  0  0
 14 12  1  0  0  0  0
 15 11  1  0  0  0  0
 16  9  1  0  0  0  0
 16 14  1  0  0  0  0
 17 18  2  0  0  0  0
 17 19  1  0  0  0  0
 19 22  1  0  0  0  0
 20 23  1  0  0  0  0
 21 20  2  0  0  0  0
 22 25  1  0  0  0  0
 22 20  1  0  0  0  0
 23 24  1  0  0  0  0
 25 28  1  0  0  0  0
 28 26  1  6  0  0  0
 28 27  1  0  0  0  0
 29  4  1  0  0  0  0
 30 29  1  0  0  0  0
 32 31  1  0  0  0  0
 32 30  1  0  0  0  0
M  END
>  <MODEL>
8

>  <REMARK>
 VINA RESULT:      -7.8      2.803      6.882
  Name = 
  10 active torsions:
  status: ('A' for Active; 'I' for Inactive)
    1  A    between atoms: C_2  and  C_5
    2  A    between atoms: C_3  and  C_22
    3  A    between atoms: C_4  and  C_24
    4  A    between atoms: C_13  and  O_18
    5  A    between atoms: C_13  and  C_29
    6  A    between atoms: C_14  and  O_18
    7  A    between atoms: C_15  and  N_20
    8  A    between atoms: C_15  and  C_26
    9  A    between atoms: C_16  and  N_20
   10  A    between atoms: C_16  and  C_24
                            x       y       z     vdW  Elec       q    Type
                         _______ _______ _______ _____ _____    ______ ____

>  <TORSDO>
F 10

$$$$
=
 OpenBabel10262421163D

 32 34  0  0  1  0  0  0  0  0999 V2000
  186.2840  178.0310  142.5910 C   0  0  0  0  0  3  0  0  0  0  0  0
  186.7340  177.8730  143.9030 C   0  0  0  0  0  0  0  0  0  0  0  0
  185.0020  178.5310  142.3360 C   0  0  0  0  0  0  0  0  0  0  0  0
  184.1640  178.8690  143.4290 C   0  0  0  0  0  0  0  0  0  0  0  0
  184.6550  178.6810  144.7250 C   0  0  0  0  0  3  0  0  0  0  0  0
  185.9070  178.1980  144.9340 N   0  0  0  0  0  0  0  0  0  0  0  0
  184.5550  178.6410  140.9100 C   0  0  2  0  0  3  0  0  0  0  0  0
  183.5760  177.5200  140.5460 C   0  0  0  0  0  2  0  0  0  0  0  0
  186.6850  177.9570  136.5470 C   0  0  0  0  0  3  0  0  0  0  0  0
  185.7130  178.6630  140.0090 N   0  0  0  0  0  0  0  0  0  0  0  0
  184.3370  177.3700  136.9310 C   0  0  0  0  0  3  0  0  0  0  0  0
  184.3820  177.7440  138.2130 C   0  0  0  0  0  0  0  0  0  0  0  0
  183.1660  177.6480  139.0800 C   0  0  0  0  0  2  0  0  0  0  0  0
  185.6380  178.2990  138.7640 C   0  0  0  0  0  0  0  0  0  0  0  0
  185.5320  177.4770  136.0660 C   0  0  0  0  0  3  0  0  0  0  0  0
  186.7850  178.3800  137.9140 N   0  0  0  0  0  2  0  0  0  0  0  0
  188.0810  177.3450  144.1800 C   0  0  0  0  0  0  0  0  0  0  0  0
  188.4300  176.2350  143.6950 O   0  0  0  0  0  0  0  0  0  0  0  0
  189.0410  178.0870  145.0570 C   0  0  0  0  0  2  0  0  0  0  0  0
  190.9150  176.8820  146.2160 C   0  0  0  0  0  0  0  0  0  0  0  0
  191.6620  177.0150  145.2090 O   0  0  0  0  0  0  0  0  0  0  0  0
  189.5200  177.2220  146.1300 N   0  0  0  0  0  0  0  0  0  0  0  0
  191.5160  176.4260  147.5030 C   0  0  0  0  0  2  0  0  0  0  0  0
  192.4410  175.2530  147.2480 C   0  0  0  0  0  1  0  0  0  0  0  0
  188.5770  176.8300  147.1710 C   0  0  0  0  0  2  0  0  0  0  0  0
  189.3880  178.6770  148.4130 F   0  0  0  0  0  0  0  0  0  0  0  0
  187.5710  177.5820  149.2050 O   0  0  0  0  0  1  0  0  0  0  0  0
  188.2270  178.0180  148.0540 C   0  0  2  0  0  3  0  0  0  0  0  0
  182.8560  179.3670  143.3080 O   0  0  0  0  0  0  0  0  0  0  0  0
  181.7320  178.9310  144.0640 C   0  0  0  0  0  2  0  0  0  0  0  0
  180.6790  179.3870  141.8550 C   0  0  0  0  0  1  0  0  0  0  0  0
  180.5660  178.6030  143.1470 C   0  0  0  0  0  2  0  0  0  0  0  0
  1  2  1  0  0  0  0
  2 17  1  0  0  0  0
  2  6  2  0  0  0  0
  3  1  2  0  0  0  0
  3  4  1  0  0  0  0
  4  5  2  0  0  0  0
  5  6  1  0  0  0  0
  7  3  1  1  0  0  0
  8  7  1  0  0  0  0
  9 16  1  0  0  0  0
 10  7  1  0  0  0  0
 11 12  2  0  0  0  0
 12 14  1  0  0  0  0
 12 13  1  0  0  0  0
 13  8  1  0  0  0  0
 14 10  2  0  0  0  0
 15  9  2  0  0  0  0
 15 11  1  0  0  0  0
 16 14  1  0  0  0  0
 17 19  1  0  0  0  0
 18 17  2  0  0  0  0
 19 22  1  0  0  0  0
 20 23  1  0  0  0  0
 21 20  2  0  0  0  0
 22 20  1  0  0  0  0
 22 25  1  0  0  0  0
 24 23  1  0  0  0  0
 25 28  1  0  0  0  0
 28 26  1  1  0  0  0
 28 27  1  0  0  0  0
 29  4  1  0  0  0  0
 29 30  1  0  0  0  0
 31 32  1  0  0  0  0
 32 30  1  0  0  0  0
M  END
>  <MODEL>
9

>  <REMARK>
 VINA RESULT:      -7.8      3.133      6.606
  Name = 
  10 active torsions:
  status: ('A' for Active; 'I' for Inactive)
    1  A    between atoms: C_2  and  C_5
    2  A    between atoms: C_3  and  C_22
    3  A    between atoms: C_4  and  C_24
    4  A    between atoms: C_13  and  O_18
    5  A    between atoms: C_13  and  C_29
    6  A    between atoms: C_14  and  O_18
    7  A    between atoms: C_15  and  N_20
    8  A    between atoms: C_15  and  C_26
    9  A    between atoms: C_16  and  N_20
   10  A    between atoms: C_16  and  C_24
                            x       y       z     vdW  Elec       q    Type
                         _______ _______ _______ _____ _____    ______ ____

>  <TORSDO>
F 10

$$$$
