=
 OpenBabel10262421213D

 32 35  0  0  1  0  0  0  0  0999 V2000
  184.3280  178.8220  144.5240 C   0  0  0  0  0  0  0  0  0  0  0  0
  183.4340  179.1980  145.4690 F   0  0  0  0  0  0  0  0  0  0  0  0
  186.1720  178.0420  142.5730 C   0  0  0  0  0  3  0  0  0  0  0  0
  185.4250  178.0290  144.8750 C   0  0  0  0  0  3  0  0  0  0  0  0
  185.0740  178.8360  142.2190 C   0  0  0  0  0  0  0  0  0  0  0  0
  184.1500  179.2210  143.1950 C   0  0  0  0  0  3  0  0  0  0  0  0
  186.3480  177.6370  143.8990 C   0  0  0  0  0  0  0  0  0  0  0  0
  187.5040  176.7590  144.2620 C   0  0  0  0  0  2  0  0  0  0  0  0
  188.8530  177.3410  143.8310 C   0  0  2  0  0  3  0  0  0  0  0  0
  189.6160  176.3740  142.9350 C   0  0  0  0  0  2  0  0  0  0  0  0
  190.5560  177.2940  141.6800 S   0  0  0  0  0  0  0  0  0  0  0  0
  189.2310  177.1460  140.4490 C   0  0  0  0  0  2  0  0  0  0  0  0
  188.6610  178.5170  140.1470 C   0  0  0  0  0  2  0  0  0  0  0  0
  188.9470  179.3440  138.0740 O   0  0  0  0  0  1  0  0  0  0  0  0
  188.1360  178.5330  138.7940 N   0  0  0  0  0  2  0  0  0  0  0  0
  189.6220  177.6850  144.9470 O   0  0  0  0  0  0  0  0  0  0  0  0
  189.0600  177.0070  145.9750 N   0  0  0  0  0  2  0  0  0  0  0  0
  189.8930  177.2510  147.1400 C   0  0  0  0  0  2  0  0  0  0  0  0
  187.6240  177.9630  147.8800 C   0  0  0  0  0  1  0  0  0  0  0  0
  189.1090  178.0200  148.1880 C   0  0  0  0  0  2  0  0  0  0  0  0
  184.8720  179.2410  140.8010 C   0  0  0  0  0  2  0  0  0  0  0  0
  183.6610  178.2960  138.6050 O   0  0  0  0  0  0  0  0  0  0  0  0
  183.4280  177.0000  140.6730 O   0  0  0  0  0  0  0  0  0  0  0  0
  183.4740  178.3890  140.0930 S   0  0  0  0  0  0  0  0  0  0  0  0
  182.0190  179.3120  140.4410 N   0  0  0  0  0  0  0  0  0  0  0  0
  180.6840  178.7460  140.0250 C   0  0  2  0  0  0  0  0  0  0  0  0
  180.7020  177.4150  139.5210 O   0  0  0  0  0  0  0  0  0  0  0  0
  180.8970  178.3980  138.5770 C   0  0  0  0  0  2  0  0  0  0  0  0
  181.2590  178.5080  141.3670 C   0  0  2  0  0  3  0  0  0  0  0  0
  180.5880  179.4120  142.3780 C   0  0  0  0  0  3  0  0  0  0  0  0
  179.2980  178.7680  142.8380 C   0  0  0  0  0  2  0  0  0  0  0  0
  180.5280  178.7020  143.7150 C   0  0  0  0  0  2  0  0  0  0  0  0
  1  4  1  0  0  0  0
  1  2  1  0  0  0  0
  3  7  1  0  0  0  0
  5  3  2  0  0  0  0
  5  6  1  0  0  0  0
  6  1  2  0  0  0  0
  7  8  1  0  0  0  0
  7  4  2  0  0  0  0
  9 10  1  1  0  0  0
  9  8  1  0  0  0  0
  9 16  1  0  0  0  0
 11 10  1  0  0  0  0
 12 11  1  0  0  0  0
 13 12  1  0  0  0  0
 14 15  1  0  0  0  0
 15 13  1  0  0  0  0
 16 17  1  0  0  0  0
 17 18  1  0  0  0  0
 18 20  1  0  0  0  0
 19 20  1  0  0  0  0
 21  5  1  0  0  0  0
 22 24  2  0  0  0  0
 24 25  1  0  0  0  0
 24 23  2  0  0  0  0
 24 21  1  0  0  0  0
 25 29  1  0  0  0  0
 26 28  1  6  0  0  0
 26 25  1  0  0  0  0
 26 29  1  0  0  0  0
 27 26  1  0  0  0  0
 28 27  1  0  0  0  0
 29 30  1  1  0  0  0
 30 31  1  0  0  0  0
 30 32  1  0  0  0  0
 31 32  1  0  0  0  0
M  END
>  <MODEL>
1

>  <REMARK>
 VINA RESULT:      -6.7      0.000      0.000
  Name = 
  15 active torsions:
  status: ('A' for Active; 'I' for Inactive)
    1  A    between atoms: C_1  and  C_30
    2  A    between atoms: N_2  and  S_27
    3  A    between atoms: C_6  and  S_17
    4  A    between atoms: C_6  and  C_31
    5  A    between atoms: C_7  and  C_26
    6  A    between atoms: C_7  and  C_31
    7  A    between atoms: O_9  and  C_31
    8  A    between atoms: O_9  and  N_32
    9  A    between atoms: C_12  and  C_28
   10  A    between atoms: C_12  and  N_32
   11  A    between atoms: C_16  and  C_20
   12  A    between atoms: C_16  and  S_27
   13  A    between atoms: S_17  and  C_29
   14  A    between atoms: C_18  and  N_25
   15  A    between atoms: C_18  and  C_29
                            x       y       z     vdW  Elec       q    Type
                         _______ _______ _______ _____ _____    ______ ____

>  <TORSDO>
F 15

$$$$
=
 OpenBabel10262421213D

 32 35  0  0  1  0  0  0  0  0999 V2000
  189.7550  176.0630  142.6420 C   0  0  0  0  0  0  0  0  0  0  0  0
  190.6990  175.1140  142.8540 F   0  0  0  0  0  0  0  0  0  0  0  0
  187.8100  178.0220  142.2060 C   0  0  0  0  0  3  0  0  0  0  0  0
  188.6760  176.1840  143.5220 C   0  0  0  0  0  3  0  0  0  0  0  0
  188.8900  177.9020  141.3240 C   0  0  0  0  0  0  0  0  0  0  0  0
  189.8650  176.9250  141.5460 C   0  0  0  0  0  3  0  0  0  0  0  0
  187.7010  177.1660  143.3060 C   0  0  0  0  0  0  0  0  0  0  0  0
  186.5630  177.3240  144.2640 C   0  0  0  0  0  2  0  0  0  0  0  0
  186.9080  178.2160  145.4590 C   0  0  2  0  0  3  0  0  0  0  0  0
  187.2770  177.3880  146.6830 C   0  0  0  0  0  2  0  0  0  0  0  0
  188.7530  178.0830  147.4860 S   0  0  0  0  0  0  0  0  0  0  0  0
  189.6770  176.5290  147.3360 C   0  0  0  0  0  2  0  0  0  0  0  0
  191.1510  176.8270  147.1560 C   0  0  0  0  0  2  0  0  0  0  0  0
  191.7100  177.6100  145.1220 O   0  0  0  0  0  1  0  0  0  0  0  0
  191.5590  176.4560  145.8140 N   0  0  0  0  0  2  0  0  0  0  0  0
  185.8490  179.0800  145.7530 O   0  0  0  0  0  0  0  0  0  0  0  0
  185.0780  179.0700  144.6410 N   0  0  0  0  0  2  0  0  0  0  0  0
  183.7000  178.9690  145.0900 C   0  0  0  0  0  2  0  0  0  0  0  0
  183.5300  178.7010  142.6210 C   0  0  0  0  0  1  0  0  0  0  0  0
  182.7610  178.9840  143.8970 C   0  0  0  0  0  2  0  0  0  0  0  0
  189.0190  178.8350  140.1700 C   0  0  0  0  0  2  0  0  0  0  0  0
  186.6220  178.3960  139.0550 O   0  0  0  0  0  0  0  0  0  0  0  0
  188.4510  179.0810  137.5740 O   0  0  0  0  0  0  0  0  0  0  0  0
  188.0880  178.2400  138.7690 S   0  0  0  0  0  0  0  0  0  0  0  0
  188.4580  176.5380  138.5330 N   0  0  0  0  0  0  0  0  0  0  0  0
  188.1660  175.9120  137.1910 C   0  0  2  0  0  0  0  0  0  0  0  0
  187.7580  176.8070  136.1620 O   0  0  0  0  0  0  0  0  0  0  0  0
  186.7360  176.3040  136.9360 C   0  0  0  0  0  2  0  0  0  0  0  0
  189.4830  176.4990  137.5190 C   0  0  2  0  0  3  0  0  0  0  0  0
  190.4660  175.3960  137.8470 C   0  0  0  0  0  3  0  0  0  0  0  0
  191.3780  175.1760  136.6590 C   0  0  0  0  0  2  0  0  0  0  0  0
  191.8700  175.9670  137.8510 C   0  0  0  0  0  2  0  0  0  0  0  0
  1  2  1  0  0  0  0
  1  4  1  0  0  0  0
  3  7  1  0  0  0  0
  5  6  1  0  0  0  0
  5  3  2  0  0  0  0
  6  1  2  0  0  0  0
  7  4  2  0  0  0  0
  7  8  1  0  0  0  0
  9  8  1  6  0  0  0
  9 16  1  0  0  0  0
  9 10  1  0  0  0  0
 10 11  1  0  0  0  0
 12 11  1  0  0  0  0
 13 12  1  0  0  0  0
 14 15  1  0  0  0  0
 15 13  1  0  0  0  0
 17 18  1  0  0  0  0
 17 16  1  0  0  0  0
 19 20  1  0  0  0  0
 20 18  1  0  0  0  0
 21  5  1  0  0  0  0
 23 24  2  0  0  0  0
 24 22  2  0  0  0  0
 24 21  1  0  0  0  0
 25 24  1  0  0  0  0
 26 28  1  6  0  0  0
 26 29  1  0  0  0  0
 26 25  1  0  0  0  0
 27 28  1  0  0  0  0
 27 26  1  0  0  0  0
 29 30  1  1  0  0  0
 29 25  1  0  0  0  0
 30 32  1  0  0  0  0
 31 30  1  0  0  0  0
 31 32  1  0  0  0  0
M  END
>  <MODEL>
2

>  <REMARK>
 VINA RESULT:      -6.3      3.128      7.041
  Name = 
  15 active torsions:
  status: ('A' for Active; 'I' for Inactive)
    1  A    between atoms: C_1  and  C_30
    2  A    between atoms: N_2  and  S_27
    3  A    between atoms: C_6  and  S_17
    4  A    between atoms: C_6  and  C_31
    5  A    between atoms: C_7  and  C_26
    6  A    between atoms: C_7  and  C_31
    7  A    between atoms: O_9  and  C_31
    8  A    between atoms: O_9  and  N_32
    9  A    between atoms: C_12  and  C_28
   10  A    between atoms: C_12  and  N_32
   11  A    between atoms: C_16  and  C_20
   12  A    between atoms: C_16  and  S_27
   13  A    between atoms: S_17  and  C_29
   14  A    between atoms: C_18  and  N_25
   15  A    between atoms: C_18  and  C_29
                            x       y       z     vdW  Elec       q    Type
                         _______ _______ _______ _____ _____    ______ ____

>  <TORSDO>
F 15

$$$$
=
 OpenBabel10262421213D

 32 35  0  0  1  0  0  0  0  0999 V2000
  185.6110  178.4960  145.5250 C   0  0  0  0  0  0  0  0  0  0  0  0
  185.4910  178.8680  146.8210 F   0  0  0  0  0  0  0  0  0  0  0  0
  185.8600  177.7300  142.8470 C   0  0  0  0  0  3  0  0  0  0  0  0
  184.7630  179.0450  144.5580 C   0  0  0  0  0  3  0  0  0  0  0  0
  186.7110  177.1800  143.8130 C   0  0  0  0  0  0  0  0  0  0  0  0
  186.5890  177.5670  145.1510 C   0  0  0  0  0  3  0  0  0  0  0  0
  184.8870  178.6640  143.2170 C   0  0  0  0  0  0  0  0  0  0  0  0
  184.0060  179.2740  142.1730 C   0  0  0  0  0  2  0  0  0  0  0  0
  183.9010  178.4200  140.9070 C   0  0  2  0  0  3  0  0  0  0  0  0
  184.1780  179.2420  139.6560 C   0  0  0  0  0  2  0  0  0  0  0  0
  184.9080  178.1910  138.3650 S   0  0  0  0  0  0  0  0  0  0  0  0
  186.5300  178.1620  139.1790 C   0  0  0  0  0  2  0  0  0  0  0  0
  187.6230  178.0770  138.1340 C   0  0  0  0  0  2  0  0  0  0  0  0
  189.0020  179.6860  137.3770 O   0  0  0  0  0  1  0  0  0  0  0  0
  188.7040  178.9780  138.4910 N   0  0  0  0  0  2  0  0  0  0  0  0
  182.6450  177.8100  140.8240 O   0  0  0  0  0  0  0  0  0  0  0  0
  181.7780  178.8340  140.6440 N   0  0  0  0  0  2  0  0  0  0  0  0
  180.5580  178.4750  141.3470 C   0  0  0  0  0  2  0  0  0  0  0  0
  180.5840  178.5800  143.8350 C   0  0  0  0  0  1  0  0  0  0  0  0
  180.3730  179.3710  142.5580 C   0  0  0  0  0  2  0  0  0  0  0  0
  187.7660  176.2080  143.4130 C   0  0  0  0  0  2  0  0  0  0  0  0
  189.8950  176.5050  141.8120 O   0  0  0  0  0  0  0  0  0  0  0  0
  189.0110  178.5140  142.9050 O   0  0  0  0  0  0  0  0  0  0  0  0
  189.3050  177.0480  143.0830 S   0  0  0  0  0  0  0  0  0  0  0  0
  190.4090  176.7390  144.4150 N   0  0  0  0  0  0  0  0  0  0  0  0
  191.2820  177.8660  144.9100 C   0  0  2  0  0  0  0  0  0  0  0  0
  191.0170  179.1490  144.3530 O   0  0  0  0  0  0  0  0  0  0  0  0
  191.9190  178.3830  143.6490 C   0  0  0  0  0  2  0  0  0  0  0  0
  189.9560  177.5760  145.4990 C   0  0  2  0  0  3  0  0  0  0  0  0
  190.1290  176.8350  146.8070 C   0  0  0  0  0  3  0  0  0  0  0  0
  190.1760  177.8370  147.9410 C   0  0  0  0  0  2  0  0  0  0  0  0
  188.9050  177.0620  147.6720 C   0  0  0  0  0  2  0  0  0  0  0  0
  1  2  1  0  0  0  0
  3  7  2  0  0  0  0
  3  5  1  0  0  0  0
  4  1  2  0  0  0  0
  5  6  2  0  0  0  0
  6  1  1  0  0  0  0
  7  4  1  0  0  0  0
  8  7  1  0  0  0  0
  9 10  1  6  0  0  0
  9  8  1  0  0  0  0
 11 12  1  0  0  0  0
 11 10  1  0  0  0  0
 13 15  1  0  0  0  0
 13 12  1  0  0  0  0
 14 15  1  0  0  0  0
 16  9  1  0  0  0  0
 17 16  1  0  0  0  0
 17 18  1  0  0  0  0
 18 20  1  0  0  0  0
 20 19  1  0  0  0  0
 21  5  1  0  0  0  0
 22 24  2  0  0  0  0
 23 24  2  0  0  0  0
 24 21  1  0  0  0  0
 24 25  1  0  0  0  0
 25 26  1  0  0  0  0
 25 29  1  0  0  0  0
 26 28  1  1  0  0  0
 26 29  1  0  0  0  0
 27 26  1  0  0  0  0
 28 27  1  0  0  0  0
 29 30  1  1  0  0  0
 30 32  1  0  0  0  0
 30 31  1  0  0  0  0
 32 31  1  0  0  0  0
M  END
>  <MODEL>
3

>  <REMARK>
 VINA RESULT:      -6.3      1.646      7.424
  Name = 
  15 active torsions:
  status: ('A' for Active; 'I' for Inactive)
    1  A    between atoms: C_1  and  C_30
    2  A    between atoms: N_2  and  S_27
    3  A    between atoms: C_6  and  S_17
    4  A    between atoms: C_6  and  C_31
    5  A    between atoms: C_7  and  C_26
    6  A    between atoms: C_7  and  C_31
    7  A    between atoms: O_9  and  C_31
    8  A    between atoms: O_9  and  N_32
    9  A    between atoms: C_12  and  C_28
   10  A    between atoms: C_12  and  N_32
   11  A    between atoms: C_16  and  C_20
   12  A    between atoms: C_16  and  S_27
   13  A    between atoms: S_17  and  C_29
   14  A    between atoms: C_18  and  N_25
   15  A    between atoms: C_18  and  C_29
                            x       y       z     vdW  Elec       q    Type
                         _______ _______ _______ _____ _____    ______ ____

>  <TORSDO>
F 15

$$$$
=
 OpenBabel10262421213D

 32 35  0  0  1  0  0  0  0  0999 V2000
  184.6050  178.7590  144.3150 C   0  0  0  0  0  0  0  0  0  0  0  0
  183.8300  179.0910  145.3750 F   0  0  0  0  0  0  0  0  0  0  0  0
  186.2030  178.0700  142.1270 C   0  0  0  0  0  3  0  0  0  0  0  0
  185.7490  177.9790  144.5030 C   0  0  0  0  0  3  0  0  0  0  0  0
  185.0570  178.8500  141.9360 C   0  0  0  0  0  0  0  0  0  0  0  0
  184.2550  179.1900  143.0310 C   0  0  0  0  0  3  0  0  0  0  0  0
  186.5500  177.6320  143.4080 C   0  0  0  0  0  0  0  0  0  0  0  0
  187.7570  176.7680  143.5990 C   0  0  0  0  0  2  0  0  0  0  0  0
  189.0570  177.4600  143.1810 C   0  0  2  0  0  3  0  0  0  0  0  0
  189.7650  176.6920  142.0730 C   0  0  0  0  0  2  0  0  0  0  0  0
  189.4340  177.4710  140.4640 S   0  0  0  0  0  0  0  0  0  0  0  0
  190.9870  176.8630  139.7490 C   0  0  0  0  0  2  0  0  0  0  0  0
  190.8520  176.7650  138.2430 C   0  0  0  0  0  2  0  0  0  0  0  0
  191.2760  174.5620  138.0780 O   0  0  0  0  0  1  0  0  0  0  0  0
  191.7810  175.7710  137.7390 N   0  0  0  0  0  2  0  0  0  0  0  0
  189.9050  177.6240  144.2810 O   0  0  0  0  0  0  0  0  0  0  0  0
  189.3030  176.9420  145.2840 N   0  0  0  0  0  2  0  0  0  0  0  0
  189.5470  177.6930  146.5040 C   0  0  0  0  0  2  0  0  0  0  0  0
  188.1400  178.0550  148.5260 C   0  0  0  0  0  1  0  0  0  0  0  0
  188.8550  177.0220  147.6760 C   0  0  0  0  0  2  0  0  0  0  0  0
  184.6720  179.2910  140.5670 C   0  0  0  0  0  2  0  0  0  0  0  0
  183.3180  178.2790  138.4870 O   0  0  0  0  0  0  0  0  0  0  0  0
  183.3120  176.9940  140.5750 O   0  0  0  0  0  0  0  0  0  0  0  0
  183.2540  178.3780  139.9850 S   0  0  0  0  0  0  0  0  0  0  0  0
  181.7990  179.2480  140.4490 N   0  0  0  0  0  0  0  0  0  0  0  0
  180.4580  178.5940  140.2190 C   0  0  2  0  0  0  0  0  0  0  0  0
  180.4940  177.2380  139.7860 O   0  0  0  0  0  0  0  0  0  0  0  0
  180.5270  178.1730  138.7760 C   0  0  0  0  0  2  0  0  0  0  0  0
  181.1920  178.4630  141.4960 C   0  0  2  0  0  3  0  0  0  0  0  0
  180.5900  179.3910  142.5290 C   0  0  0  0  0  3  0  0  0  0  0  0
  179.3520  178.7430  143.1130 C   0  0  0  0  0  2  0  0  0  0  0  0
  180.6500  178.7250  143.8890 C   0  0  0  0  0  2  0  0  0  0  0  0
  1  4  1  0  0  0  0
  1  2  1  0  0  0  0
  3  7  1  0  0  0  0
  5  3  2  0  0  0  0
  5  6  1  0  0  0  0
  6  1  2  0  0  0  0
  7  8  1  0  0  0  0
  7  4  2  0  0  0  0
  9 10  1  6  0  0  0
  9  8  1  0  0  0  0
  9 16  1  0  0  0  0
 11 10  1  0  0  0  0
 12 11  1  0  0  0  0
 13 12  1  0  0  0  0
 15 14  1  0  0  0  0
 15 13  1  0  0  0  0
 16 17  1  0  0  0  0
 17 18  1  0  0  0  0
 18 20  1  0  0  0  0
 20 19  1  0  0  0  0
 21  5  1  0  0  0  0
 22 24  2  0  0  0  0
 24 25  1  0  0  0  0
 24 21  1  0  0  0  0
 24 23  2  0  0  0  0
 25 29  1  0  0  0  0
 26 28  1  6  0  0  0
 26 25  1  0  0  0  0
 26 29  1  0  0  0  0
 27 26  1  0  0  0  0
 28 27  1  0  0  0  0
 29 30  1  1  0  0  0
 30 31  1  0  0  0  0
 30 32  1  0  0  0  0
 31 32  1  0  0  0  0
M  END
>  <MODEL>
4

>  <REMARK>
 VINA RESULT:      -6.2      1.502      1.542
  Name = 
  15 active torsions:
  status: ('A' for Active; 'I' for Inactive)
    1  A    between atoms: C_1  and  C_30
    2  A    between atoms: N_2  and  S_27
    3  A    between atoms: C_6  and  S_17
    4  A    between atoms: C_6  and  C_31
    5  A    between atoms: C_7  and  C_26
    6  A    between atoms: C_7  and  C_31
    7  A    between atoms: O_9  and  C_31
    8  A    between atoms: O_9  and  N_32
    9  A    between atoms: C_12  and  C_28
   10  A    between atoms: C_12  and  N_32
   11  A    between atoms: C_16  and  C_20
   12  A    between atoms: C_16  and  S_27
   13  A    between atoms: S_17  and  C_29
   14  A    between atoms: C_18  and  N_25
   15  A    between atoms: C_18  and  C_29
                            x       y       z     vdW  Elec       q    Type
                         _______ _______ _______ _____ _____    ______ ____

>  <TORSDO>
F 15

$$$$
=
 OpenBabel10262421213D

 32 35  0  0  1  0  0  0  0  0999 V2000
  184.6980  178.8190  144.6680 C   0  0  0  0  0  0  0  0  0  0  0  0
  183.9310  179.1880  145.7220 F   0  0  0  0  0  0  0  0  0  0  0  0
  186.2770  178.0550  142.4910 C   0  0  0  0  0  3  0  0  0  0  0  0
  185.8290  178.0230  144.8700 C   0  0  0  0  0  3  0  0  0  0  0  0
  185.1450  178.8510  142.2870 C   0  0  0  0  0  0  0  0  0  0  0  0
  184.3520  179.2280  143.3750 C   0  0  0  0  0  3  0  0  0  0  0  0
  186.6210  177.6390  143.7810 C   0  0  0  0  0  0  0  0  0  0  0  0
  187.8120  176.7580  143.9870 C   0  0  0  0  0  2  0  0  0  0  0  0
  189.1380  177.4820  143.7420 C   0  0  2  0  0  3  0  0  0  0  0  0
  190.1590  176.5660  143.0800 C   0  0  0  0  0  2  0  0  0  0  0  0
  190.8600  177.3700  141.6080 S   0  0  0  0  0  0  0  0  0  0  0  0
  189.3070  177.2280  140.6810 C   0  0  0  0  0  2  0  0  0  0  0  0
  189.5210  177.6870  139.2540 C   0  0  0  0  0  2  0  0  0  0  0  0
  188.9870  179.5000  138.0320 O   0  0  0  0  0  1  0  0  0  0  0  0
  188.4460  178.5820  138.8680 N   0  0  0  0  0  2  0  0  0  0  0  0
  189.6470  178.0010  144.9360 O   0  0  0  0  0  0  0  0  0  0  0  0
  189.9240  176.9130  145.6930 N   0  0  0  0  0  2  0  0  0  0  0  0
  189.8140  177.3320  147.0810 C   0  0  0  0  0  2  0  0  0  0  0  0
  187.7690  178.2550  148.1600 C   0  0  0  0  0  1  0  0  0  0  0  0
  188.4320  177.0040  147.6150 C   0  0  0  0  0  2  0  0  0  0  0  0
  184.7640  179.2680  140.9090 C   0  0  0  0  0  2  0  0  0  0  0  0
  182.3530  178.4240  141.7200 O   0  0  0  0  0  0  0  0  0  0  0  0
  182.4760  179.6120  139.5780 O   0  0  0  0  0  0  0  0  0  0  0  0
  183.1640  178.6120  140.4690 S   0  0  0  0  0  0  0  0  0  0  0  0
  183.3940  177.0560  139.6830 N   0  0  0  0  0  0  0  0  0  0  0  0
  182.2580  176.4770  138.8770 C   0  0  2  0  0  0  0  0  0  0  0  0
  181.1340  177.3290  138.6830 O   0  0  0  0  0  0  0  0  0  0  0  0
  181.0920  176.5570  139.8230 C   0  0  0  0  0  2  0  0  0  0  0  0
  183.3110  177.3190  138.2670 C   0  0  2  0  0  3  0  0  0  0  0  0
  184.3080  176.4430  137.5390 C   0  0  0  0  0  3  0  0  0  0  0  0
  184.3670  176.8640  136.0860 C   0  0  0  0  0  2  0  0  0  0  0  0
  185.4540  177.3020  137.0430 C   0  0  0  0  0  2  0  0  0  0  0  0
  1  4  1  0  0  0  0
  1  2  1  0  0  0  0
  3  7  1  0  0  0  0
  5  3  2  0  0  0  0
  5  6  1  0  0  0  0
  6  1  2  0  0  0  0
  7  8  1  0  0  0  0
  7  4  2  0  0  0  0
  9 10  1  1  0  0  0
  9  8  1  0  0  0  0
  9 16  1  0  0  0  0
 11 10  1  0  0  0  0
 12 11  1  0  0  0  0
 13 12  1  0  0  0  0
 14 15  1  0  0  0  0
 15 13  1  0  0  0  0
 16 17  1  0  0  0  0
 17 18  1  0  0  0  0
 18 20  1  0  0  0  0
 20 19  1  0  0  0  0
 21  5  1  0  0  0  0
 23 24  2  0  0  0  0
 24 21  1  0  0  0  0
 24 22  2  0  0  0  0
 25 24  1  0  0  0  0
 26 25  1  0  0  0  0
 26 28  1  6  0  0  0
 27 26  1  0  0  0  0
 27 28  1  0  0  0  0
 29 30  1  6  0  0  0
 29 26  1  0  0  0  0
 29 25  1  0  0  0  0
 31 32  1  0  0  0  0
 31 30  1  0  0  0  0
 32 30  1  0  0  0  0
M  END
>  <MODEL>
5

>  <REMARK>
 VINA RESULT:      -6.1      1.737      2.834
  Name = 
  15 active torsions:
  status: ('A' for Active; 'I' for Inactive)
    1  A    between atoms: C_1  and  C_30
    2  A    between atoms: N_2  and  S_27
    3  A    between atoms: C_6  and  S_17
    4  A    between atoms: C_6  and  C_31
    5  A    between atoms: C_7  and  C_26
    6  A    between atoms: C_7  and  C_31
    7  A    between atoms: O_9  and  C_31
    8  A    between atoms: O_9  and  N_32
    9  A    between atoms: C_12  and  C_28
   10  A    between atoms: C_12  and  N_32
   11  A    between atoms: C_16  and  C_20
   12  A    between atoms: C_16  and  S_27
   13  A    between atoms: S_17  and  C_29
   14  A    between atoms: C_18  and  N_25
   15  A    between atoms: C_18  and  C_29
                            x       y       z     vdW  Elec       q    Type
                         _______ _______ _______ _____ _____    ______ ____

>  <TORSDO>
F 15

$$$$
=
 OpenBabel10262421213D

 32 35  0  0  1  0  0  0  0  0999 V2000
  191.5780  177.2830  140.8720 C   0  0  0  0  0  0  0  0  0  0  0  0
  192.9140  177.1370  140.7030 F   0  0  0  0  0  0  0  0  0  0  0  0
  188.8210  177.5900  141.2210 C   0  0  0  0  0  3  0  0  0  0  0  0
  191.0740  177.7260  142.0980 C   0  0  0  0  0  3  0  0  0  0  0  0
  189.3250  177.1470  139.9920 C   0  0  0  0  0  0  0  0  0  0  0  0
  190.7040  176.9990  139.8170 C   0  0  0  0  0  3  0  0  0  0  0  0
  189.6930  177.8810  142.2740 C   0  0  0  0  0  0  0  0  0  0  0  0
  189.1490  178.3880  143.5720 C   0  0  0  0  0  2  0  0  0  0  0  0
  188.6210  177.2700  144.4750 C   0  0  2  0  0  3  0  0  0  0  0  0
  187.0990  177.2830  144.5440 C   0  0  0  0  0  2  0  0  0  0  0  0
  186.5530  177.6510  146.2380 S   0  0  0  0  0  0  0  0  0  0  0  0
  185.5860  179.0920  145.7100 C   0  0  0  0  0  2  0  0  0  0  0  0
  184.2070  178.6470  145.2680 C   0  0  0  0  0  2  0  0  0  0  0  0
  184.8380  180.1050  143.6750 O   0  0  0  0  0  1  0  0  0  0  0  0
  183.9670  179.0960  143.9100 N   0  0  0  0  0  2  0  0  0  0  0  0
  189.1700  177.3680  145.7570 O   0  0  0  0  0  0  0  0  0  0  0  0
  190.4300  176.8900  145.6290 N   0  0  0  0  0  2  0  0  0  0  0  0
  190.9030  176.5990  146.9720 C   0  0  0  0  0  2  0  0  0  0  0  0
  192.8080  175.6270  148.2480 C   0  0  0  0  0  1  0  0  0  0  0  0
  192.0880  175.6530  146.9120 C   0  0  0  0  0  2  0  0  0  0  0  0
  188.3970  176.8660  138.8620 C   0  0  0  0  0  2  0  0  0  0  0  0
  189.0580  179.4090  138.3370 O   0  0  0  0  0  0  0  0  0  0  0  0
  189.1300  177.8140  136.4770 O   0  0  0  0  0  0  0  0  0  0  0  0
  188.3720  178.2280  137.7110 S   0  0  0  0  0  0  0  0  0  0  0  0
  186.6980  178.6400  137.3670 N   0  0  0  0  0  0  0  0  0  0  0  0
  185.7800  177.5640  136.8430 C   0  0  2  0  0  0  0  0  0  0  0  0
  186.3140  176.2450  136.8240 O   0  0  0  0  0  0  0  0  0  0  0  0
  186.5530  176.9860  135.6890 C   0  0  0  0  0  2  0  0  0  0  0  0
  185.9080  177.8590  138.2860 C   0  0  2  0  0  3  0  0  0  0  0  0
  184.7230  178.6810  138.7470 C   0  0  0  0  0  3  0  0  0  0  0  0
  183.9480  177.8940  139.7830 C   0  0  0  0  0  2  0  0  0  0  0  0
  184.8830  179.0010  140.2200 C   0  0  0  0  0  2  0  0  0  0  0  0
  1  4  1  0  0  0  0
  2  1  1  0  0  0  0
  3  7  1  0  0  0  0
  4  7  2  0  0  0  0
  5  3  2  0  0  0  0
  6  5  1  0  0  0  0
  6  1  2  0  0  0  0
  7  8  1  0  0  0  0
  9  8  1  6  0  0  0
  9 10  1  0  0  0  0
  9 16  1  0  0  0  0
 10 11  1  0  0  0  0
 12 11  1  0  0  0  0
 13 12  1  0  0  0  0
 14 15  1  0  0  0  0
 15 13  1  0  0  0  0
 17 16  1  0  0  0  0
 17 18  1  0  0  0  0
 20 18  1  0  0  0  0
 20 19  1  0  0  0  0
 21  5  1  0  0  0  0
 23 24  2  0  0  0  0
 24 22  2  0  0  0  0
 24 21  1  0  0  0  0
 25 24  1  0  0  0  0
 25 29  1  0  0  0  0
 26 28  1  6  0  0  0
 26 25  1  0  0  0  0
 26 29  1  0  0  0  0
 27 26  1  0  0  0  0
 28 27  1  0  0  0  0
 29 30  1  6  0  0  0
 30 31  1  0  0  0  0
 30 32  1  0  0  0  0
 31 32  1  0  0  0  0
M  END
>  <MODEL>
6

>  <REMARK>
 VINA RESULT:      -6.0      3.568      5.680
  Name = 
  15 active torsions:
  status: ('A' for Active; 'I' for Inactive)
    1  A    between atoms: C_1  and  C_30
    2  A    between atoms: N_2  and  S_27
    3  A    between atoms: C_6  and  S_17
    4  A    between atoms: C_6  and  C_31
    5  A    between atoms: C_7  and  C_26
    6  A    between atoms: C_7  and  C_31
    7  A    between atoms: O_9  and  C_31
    8  A    between atoms: O_9  and  N_32
    9  A    between atoms: C_12  and  C_28
   10  A    between atoms: C_12  and  N_32
   11  A    between atoms: C_16  and  C_20
   12  A    between atoms: C_16  and  S_27
   13  A    between atoms: S_17  and  C_29
   14  A    between atoms: C_18  and  N_25
   15  A    between atoms: C_18  and  C_29
                            x       y       z     vdW  Elec       q    Type
                         _______ _______ _______ _____ _____    ______ ____

>  <TORSDO>
F 15

$$$$
=
 OpenBabel10262421213D

 32 35  0  0  1  0  0  0  0  0999 V2000
  184.9710  178.6770  144.4470 C   0  0  0  0  0  0  0  0  0  0  0  0
  184.2780  179.0460  145.5500 F   0  0  0  0  0  0  0  0  0  0  0  0
  186.4000  177.9100  142.1690 C   0  0  0  0  0  3  0  0  0  0  0  0
  186.0420  177.7860  144.5600 C   0  0  0  0  0  3  0  0  0  0  0  0
  185.3270  178.8020  142.0530 C   0  0  0  0  0  0  0  0  0  0  0  0
  184.6100  179.1800  143.1920 C   0  0  0  0  0  3  0  0  0  0  0  0
  186.7580  177.4000  143.4210 C   0  0  0  0  0  0  0  0  0  0  0  0
  187.8830  176.4200  143.5310 C   0  0  0  0  0  2  0  0  0  0  0  0
  189.2520  177.0520  143.2690 C   0  0  2  0  0  3  0  0  0  0  0  0
  189.6010  178.0850  144.3320 C   0  0  0  0  0  2  0  0  0  0  0  0
  191.4050  178.2720  144.4540 S   0  0  0  0  0  0  0  0  0  0  0  0
  191.5990  176.6980  145.3360 C   0  0  0  0  0  2  0  0  0  0  0  0
  190.9140  176.7810  146.6840 C   0  0  0  0  0  2  0  0  0  0  0  0
  192.5980  175.6680  147.6770 O   0  0  0  0  0  1  0  0  0  0  0  0
  191.9160  176.8360  147.7320 N   0  0  0  0  0  2  0  0  0  0  0  0
  189.2970  177.6260  141.9950 O   0  0  0  0  0  0  0  0  0  0  0  0
  189.9680  176.7280  141.2360 N   0  0  0  0  0  2  0  0  0  0  0  0
  190.2600  177.3850  139.9730 C   0  0  0  0  0  2  0  0  0  0  0  0
  190.6650  176.8710  137.5710 C   0  0  0  0  0  1  0  0  0  0  0  0
  190.8600  176.3900  138.9960 C   0  0  0  0  0  2  0  0  0  0  0  0
  184.9280  179.3210  140.7160 C   0  0  0  0  0  2  0  0  0  0  0  0
  183.5430  178.4160  138.6070 O   0  0  0  0  0  0  0  0  0  0  0  0
  183.5190  177.0550  140.6470 O   0  0  0  0  0  0  0  0  0  0  0  0
  183.4880  178.4610  140.1080 S   0  0  0  0  0  0  0  0  0  0  0  0
  182.0540  179.3440  140.6130 N   0  0  0  0  0  0  0  0  0  0  0  0
  180.6970  178.7640  140.3000 C   0  0  2  0  0  0  0  0  0  0  0  0
  180.6940  177.4480  139.7570 O   0  0  0  0  0  0  0  0  0  0  0  0
  180.7860  178.4610  138.8290 C   0  0  0  0  0  2  0  0  0  0  0  0
  181.3950  178.4990  141.5770 C   0  0  2  0  0  3  0  0  0  0  0  0
  180.8010  179.3600  142.6720 C   0  0  0  0  0  3  0  0  0  0  0  0
  179.7460  178.5640  143.4100 C   0  0  0  0  0  2  0  0  0  0  0  0
  181.1190  178.7410  144.0180 C   0  0  0  0  0  2  0  0  0  0  0  0
  1  4  1  0  0  0  0
  1  2  1  0  0  0  0
  3  7  1  0  0  0  0
  5  3  2  0  0  0  0
  5  6  1  0  0  0  0
  6  1  2  0  0  0  0
  7  8  1  0  0  0  0
  7  4  2  0  0  0  0
  9  8  1  1  0  0  0
  9 10  1  0  0  0  0
 10 11  1  0  0  0  0
 11 12  1  0  0  0  0
 12 13  1  0  0  0  0
 13 15  1  0  0  0  0
 14 15  1  0  0  0  0
 16  9  1  0  0  0  0
 17 16  1  0  0  0  0
 18 17  1  0  0  0  0
 19 20  1  0  0  0  0
 20 18  1  0  0  0  0
 21  5  1  0  0  0  0
 22 24  2  0  0  0  0
 24 25  1  0  0  0  0
 24 23  2  0  0  0  0
 24 21  1  0  0  0  0
 25 29  1  0  0  0  0
 26 28  1  6  0  0  0
 26 25  1  0  0  0  0
 26 29  1  0  0  0  0
 27 26  1  0  0  0  0
 28 27  1  0  0  0  0
 29 30  1  1  0  0  0
 30 31  1  0  0  0  0
 30 32  1  0  0  0  0
 31 32  1  0  0  0  0
M  END
>  <MODEL>
7

>  <REMARK>
 VINA RESULT:      -6.0      1.718      4.356
  Name = 
  15 active torsions:
  status: ('A' for Active; 'I' for Inactive)
    1  A    between atoms: C_1  and  C_30
    2  A    between atoms: N_2  and  S_27
    3  A    between atoms: C_6  and  S_17
    4  A    between atoms: C_6  and  C_31
    5  A    between atoms: C_7  and  C_26
    6  A    between atoms: C_7  and  C_31
    7  A    between atoms: O_9  and  C_31
    8  A    between atoms: O_9  and  N_32
    9  A    between atoms: C_12  and  C_28
   10  A    between atoms: C_12  and  N_32
   11  A    between atoms: C_16  and  C_20
   12  A    between atoms: C_16  and  S_27
   13  A    between atoms: S_17  and  C_29
   14  A    between atoms: C_18  and  N_25
   15  A    between atoms: C_18  and  C_29
                            x       y       z     vdW  Elec       q    Type
                         _______ _______ _______ _____ _____    ______ ____

>  <TORSDO>
F 15

$$$$
=
 OpenBabel10262421213D

 32 35  0  0  1  0  0  0  0  0999 V2000
  184.4710  178.5780  144.3760 C   0  0  0  0  0  0  0  0  0  0  0  0
  183.7410  178.7320  145.5060 F   0  0  0  0  0  0  0  0  0  0  0  0
  185.9780  178.2640  142.0430 C   0  0  0  0  0  3  0  0  0  0  0  0
  183.8290  178.4530  143.1410 C   0  0  0  0  0  3  0  0  0  0  0  0
  186.6230  178.3900  143.2790 C   0  0  0  0  0  0  0  0  0  0  0  0
  185.8680  178.5520  144.4440 C   0  0  0  0  0  3  0  0  0  0  0  0
  184.5820  178.2970  141.9710 C   0  0  0  0  0  0  0  0  0  0  0  0
  183.9030  178.1970  140.6420 C   0  0  0  0  0  2  0  0  0  0  0  0
  184.2160  179.3790  139.7210 C   0  0  2  0  0  3  0  0  0  0  0  0
  182.9660  179.8780  139.0100 C   0  0  0  0  0  2  0  0  0  0  0  0
  181.5320  178.8650  139.4810 S   0  0  0  0  0  0  0  0  0  0  0  0
  180.3980  180.2800  139.4200 C   0  0  0  0  0  2  0  0  0  0  0  0
  179.5980  180.3490  140.7050 C   0  0  0  0  0  2  0  0  0  0  0  0
  180.0570  180.8770  142.8440 O   0  0  0  0  0  1  0  0  0  0  0  0
  180.4710  180.0780  141.8320 N   0  0  0  0  0  2  0  0  0  0  0  0
  185.2030  179.0340  138.7930 O   0  0  0  0  0  0  0  0  0  0  0  0
  184.8230  177.8240  138.3200 N   0  0  0  0  0  2  0  0  0  0  0  0
  185.9590  177.2840  137.5920 C   0  0  0  0  0  2  0  0  0  0  0  0
  187.8260  177.8710  136.0520 C   0  0  0  0  0  1  0  0  0  0  0  0
  186.8010  178.4150  137.0300 C   0  0  0  0  0  2  0  0  0  0  0  0
  188.1110  178.3860  143.3490 C   0  0  0  0  0  2  0  0  0  0  0  0
  187.5940  175.7590  143.2150 O   0  0  0  0  0  0  0  0  0  0  0  0
  189.7300  176.5420  142.3010 O   0  0  0  0  0  0  0  0  0  0  0  0
  188.7350  176.7160  143.4170 S   0  0  0  0  0  0  0  0  0  0  0  0
  189.4460  176.4480  145.0020 N   0  0  0  0  0  0  0  0  0  0  0  0
  190.4880  177.4190  145.5030 C   0  0  2  0  0  0  0  0  0  0  0  0
  190.6920  178.5790  144.7040 O   0  0  0  0  0  0  0  0  0  0  0  0
  191.4640  177.4920  144.3600 C   0  0  0  0  0  2  0  0  0  0  0  0
  189.0490  177.5790  145.8040 C   0  0  2  0  0  3  0  0  0  0  0  0
  188.7680  177.1140  147.2170 C   0  0  0  0  0  3  0  0  0  0  0  0
  189.0490  178.2510  148.1770 C   0  0  0  0  0  2  0  0  0  0  0  0
  187.6240  177.9270  147.7880 C   0  0  0  0  0  2  0  0  0  0  0  0
  1  6  1  0  0  0  0
  1  2  1  0  0  0  0
  3  5  1  0  0  0  0
  4  1  2  0  0  0  0
  5 21  1  0  0  0  0
  5  6  2  0  0  0  0
  7  3  2  0  0  0  0
  7  4  1  0  0  0  0
  8  7  1  0  0  0  0
  9 10  1  6  0  0  0
  9  8  1  0  0  0  0
 10 11  1  0  0  0  0
 12 11  1  0  0  0  0
 12 13  1  0  0  0  0
 13 15  1  0  0  0  0
 15 14  1  0  0  0  0
 16  9  1  0  0  0  0
 17 16  1  0  0  0  0
 18 17  1  0  0  0  0
 19 20  1  0  0  0  0
 20 18  1  0  0  0  0
 21 24  1  0  0  0  0
 22 24  2  0  0  0  0
 23 24  2  0  0  0  0
 24 25  1  0  0  0  0
 25 26  1  0  0  0  0
 25 29  1  0  0  0  0
 26 28  1  1  0  0  0
 26 29  1  0  0  0  0
 27 26  1  0  0  0  0
 28 27  1  0  0  0  0
 29 30  1  1  0  0  0
 30 32  1  0  0  0  0
 30 31  1  0  0  0  0
 32 31  1  0  0  0  0
M  END
>  <MODEL>
8

>  <REMARK>
 VINA RESULT:      -5.9      2.240      8.130
  Name = 
  15 active torsions:
  status: ('A' for Active; 'I' for Inactive)
    1  A    between atoms: C_1  and  C_30
    2  A    between atoms: N_2  and  S_27
    3  A    between atoms: C_6  and  S_17
    4  A    between atoms: C_6  and  C_31
    5  A    between atoms: C_7  and  C_26
    6  A    between atoms: C_7  and  C_31
    7  A    between atoms: O_9  and  C_31
    8  A    between atoms: O_9  and  N_32
    9  A    between atoms: C_12  and  C_28
   10  A    between atoms: C_12  and  N_32
   11  A    between atoms: C_16  and  C_20
   12  A    between atoms: C_16  and  S_27
   13  A    between atoms: S_17  and  C_29
   14  A    between atoms: C_18  and  N_25
   15  A    between atoms: C_18  and  C_29
                            x       y       z     vdW  Elec       q    Type
                         _______ _______ _______ _____ _____    ______ ____

>  <TORSDO>
F 15

$$$$
=
 OpenBabel10262421213D

 32 35  0  0  1  0  0  0  0  0999 V2000
  188.3910  176.8610  142.6850 C   0  0  0  0  0  0  0  0  0  0  0  0
  188.8960  175.9330  143.5320 F   0  0  0  0  0  0  0  0  0  0  0  0
  187.3500  178.7800  140.9390 C   0  0  0  0  0  3  0  0  0  0  0  0
  187.1930  177.5110  142.9950 C   0  0  0  0  0  3  0  0  0  0  0  0
  188.5500  178.1310  140.6280 C   0  0  0  0  0  0  0  0  0  0  0  0
  189.0730  177.1750  141.5050 C   0  0  0  0  0  3  0  0  0  0  0  0
  186.6700  178.4730  142.1220 C   0  0  0  0  0  0  0  0  0  0  0  0
  185.4070  179.1970  142.4640 C   0  0  0  0  0  2  0  0  0  0  0  0
  184.6990  178.6150  143.6910 C   0  0  2  0  0  3  0  0  0  0  0  0
  183.1860  178.6450  143.5270 C   0  0  0  0  0  2  0  0  0  0  0  0
  182.7480  178.6440  141.7620 S   0  0  0  0  0  0  0  0  0  0  0  0
  181.0070  179.0250  142.1020 C   0  0  0  0  0  2  0  0  0  0  0  0
  180.7480  178.9420  143.5920 C   0  0  0  0  0  2  0  0  0  0  0  0
  179.6680  177.1750  144.4730 O   0  0  0  0  0  1  0  0  0  0  0  0
  179.4470  178.3420  143.8230 N   0  0  0  0  0  2  0  0  0  0  0  0
  185.0800  179.2970  144.8510 O   0  0  0  0  0  0  0  0  0  0  0  0
  184.3910  178.6920  145.8470 N   0  0  0  0  0  2  0  0  0  0  0  0
  185.3070  178.5590  146.9670 C   0  0  0  0  0  2  0  0  0  0  0  0
  187.6070  177.8800  147.6380 C   0  0  0  0  0  1  0  0  0  0  0  0
  186.6850  178.1630  146.4670 C   0  0  0  0  0  2  0  0  0  0  0  0
  189.2880  178.4810  139.3830 C   0  0  0  0  0  2  0  0  0  0  0  0
  189.5200  177.7780  136.8070 O   0  0  0  0  0  0  0  0  0  0  0  0
  188.4250  176.1900  138.3210 O   0  0  0  0  0  0  0  0  0  0  0  0
  188.5810  177.6470  137.9730 S   0  0  0  0  0  0  0  0  0  0  0  0
  187.0500  178.4130  137.5790 N   0  0  0  0  0  0  0  0  0  0  0  0
  186.2670  177.9020  136.3940 C   0  0  2  0  0  0  0  0  0  0  0  0
  186.7670  176.7170  135.7830 O   0  0  0  0  0  0  0  0  0  0  0  0
  187.2890  177.8920  135.2890 C   0  0  0  0  0  2  0  0  0  0  0  0
  186.0450  177.3950  137.7650 C   0  0  2  0  0  3  0  0  0  0  0  0
  184.7990  178.0270  138.3470 C   0  0  0  0  0  3  0  0  0  0  0  0
  183.6650  177.8920  137.3520 C   0  0  0  0  0  2  0  0  0  0  0  0
  183.7430  176.9570  138.5390 C   0  0  0  0  0  2  0  0  0  0  0  0
  1  4  1  0  0  0  0
  1  2  1  0  0  0  0
  3  7  1  0  0  0  0
  5  3  2  0  0  0  0
  5  6  1  0  0  0  0
  6  1  2  0  0  0  0
  7  8  1  0  0  0  0
  7  4  2  0  0  0  0
  9  8  1  6  0  0  0
  9 16  1  0  0  0  0
 10  9  1  0  0  0  0
 11 12  1  0  0  0  0
 11 10  1  0  0  0  0
 12 13  1  0  0  0  0
 13 15  1  0  0  0  0
 15 14  1  0  0  0  0
 16 17  1  0  0  0  0
 17 18  1  0  0  0  0
 20 18  1  0  0  0  0
 20 19  1  0  0  0  0
 21  5  1  0  0  0  0
 22 24  2  0  0  0  0
 24 23  2  0  0  0  0
 24 21  1  0  0  0  0
 25 29  1  0  0  0  0
 25 24  1  0  0  0  0
 26 28  1  6  0  0  0
 26 25  1  0  0  0  0
 26 29  1  0  0  0  0
 27 26  1  0  0  0  0
 28 27  1  0  0  0  0
 29 30  1  1  0  0  0
 30 32  1  0  0  0  0
 31 30  1  0  0  0  0
 31 32  1  0  0  0  0
M  END
>  <MODEL>
9

>  <REMARK>
 VINA RESULT:      -5.9      3.055      6.125
  Name = 
  15 active torsions:
  status: ('A' for Active; 'I' for Inactive)
    1  A    between atoms: C_1  and  C_30
    2  A    between atoms: N_2  and  S_27
    3  A    between atoms: C_6  and  S_17
    4  A    between atoms: C_6  and  C_31
    5  A    between atoms: C_7  and  C_26
    6  A    between atoms: C_7  and  C_31
    7  A    between atoms: O_9  and  C_31
    8  A    between atoms: O_9  and  N_32
    9  A    between atoms: C_12  and  C_28
   10  A    between atoms: C_12  and  N_32
   11  A    between atoms: C_16  and  C_20
   12  A    between atoms: C_16  and  S_27
   13  A    between atoms: S_17  and  C_29
   14  A    between atoms: C_18  and  N_25
   15  A    between atoms: C_18  and  C_29
                            x       y       z     vdW  Elec       q    Type
                         _______ _______ _______ _____ _____    ______ ____

>  <TORSDO>
F 15

$$$$
