=
 OpenBabel10262420043D

 27 31  0  0  1  0  0  0  0  0999 V2000
  189.6200  178.4180  140.1260 C   0  0  0  0  0  2  0  0  0  0  0  0
  187.1410  178.1970  140.3980 C   0  0  0  0  0  0  0  0  0  0  0  0
  188.3130  177.4420  142.4670 N   0  0  0  0  0  2  0  0  0  0  0  0
  183.7120  179.0620  142.5940 C   0  0  0  0  0  3  0  0  0  0  0  0
  182.4640  179.2400  144.7500 C   0  0  0  0  0  1  0  0  0  0  0  0
  185.9850  178.6230  139.8160 N   0  0  0  0  0  0  0  0  0  0  0  0
  185.9990  178.1650  143.9390 C   0  0  0  0  0  3  0  0  0  0  0  0
  190.3930  176.4180  144.1250 C   0  0  0  0  0  2  0  0  0  0  0  0
  184.8380  178.4690  144.6560 C   0  0  0  0  0  3  0  0  0  0  0  0
  191.6730  177.2130  143.9030 C   0  0  0  0  0  2  0  0  0  0  0  0
  186.0270  178.3120  142.5440 C   0  0  0  0  0  0  0  0  0  0  0  0
  188.3160  178.0380  139.5840 N   0  0  0  0  0  0  0  0  0  0  0  0
  183.6960  178.9180  143.9850 C   0  0  0  0  0  0  0  0  0  0  0  0
  184.8720  178.7610  141.8750 C   0  0  0  0  0  0  0  0  0  0  0  0
  190.2520  177.2600  140.8850 C   0  0  1  0  0  3  0  0  0  0  0  0
  187.1710  177.9980  141.7970 C   0  0  0  0  0  0  0  0  0  0  0  0
  189.9600  175.6440  142.8790 C   0  0  0  0  0  2  0  0  0  0  0  0
  184.8880  178.8900  140.5250 N   0  0  0  0  0  0  0  0  0  0  0  0
  191.4960  178.2990  142.8530 C   0  0  0  0  0  2  0  0  0  0  0  0
  191.6040  177.6790  141.4690 C   0  0  0  0  0  2  0  0  0  0  0  0
  189.2770  176.5390  141.8390 C   0  0  1  0  0  3  0  0  0  0  0  0
  188.7930  177.0580  135.5200 C   0  0  0  0  0  2  0  0  0  0  0  0
  188.1710  177.8410  138.1440 C   0  0  2  0  0  3  0  0  0  0  0  0
  187.9170  176.3690  137.8120 C   0  0  0  0  0  2  0  0  0  0  0  0
  187.8270  176.1550  136.2990 C   0  0  0  0  0  2  0  0  0  0  0  0
  189.8990  177.4940  136.3690 N   0  0  0  0  0  2  0  0  0  0  0  0
  189.3820  178.4170  137.3840 C   0  0  0  0  0  2  0  0  0  0  0  0
  2 16  1  0  0  0  0
  4 13  2  0  0  0  0
  6  2  2  0  0  0  0
  6 18  1  0  0  0  0
  7  9  2  0  0  0  0
 10  8  1  0  0  0  0
 11  7  1  0  0  0  0
 12  1  1  0  0  0  0
 12  2  1  0  0  0  0
 13  9  1  0  0  0  0
 13  5  1  0  0  0  0
 14 11  1  0  0  0  0
 14  4  1  0  0  0  0
 15  1  1  1  0  0  0
 15 20  1  0  0  0  0
 15 21  1  0  0  0  0
 16  3  1  0  0  0  0
 16 11  2  0  0  0  0
 17  8  1  0  0  0  0
 18 14  2  0  0  0  0
 19 10  1  0  0  0  0
 20 19  1  0  0  0  0
 21  3  1  0  0  0  0
 21 17  1  1  0  0  0
 22 25  1  0  0  0  0
 22 26  1  0  0  0  0
 23 27  1  6  0  0  0
 23 12  1  0  0  0  0
 24 23  1  0  0  0  0
 25 24  1  0  0  0  0
 26 27  1  0  0  0  0
M  END
>  <MODEL>
1

>  <REMARK>
 VINA RESULT:      -8.4      0.000      0.000
  Name = 
  1 active torsions:
  status: ('A' for Active; 'I' for Inactive)
    1  A    between atoms: C_9  and  N_15
                            x       y       z     vdW  Elec       q    Type
                         _______ _______ _______ _____ _____    ______ ____

>  <TORSDO>
F 1

$$$$
=
 OpenBabel10262420043D

 27 31  0  0  1  0  0  0  0  0999 V2000
  189.3850  176.8150  140.8370 C   0  0  0  0  0  2  0  0  0  0  0  0
  187.4330  178.0710  141.7760 C   0  0  0  0  0  0  0  0  0  0  0  0
  187.5220  178.3300  139.2950 N   0  0  0  0  0  2  0  0  0  0  0  0
  183.3370  178.8100  141.7590 C   0  0  0  0  0  3  0  0  0  0  0  0
  181.1830  179.2480  140.5730 C   0  0  0  0  0  1  0  0  0  0  0  0
  186.6980  178.1530  142.9200 N   0  0  0  0  0  0  0  0  0  0  0  0
  184.7100  178.7010  139.3210 C   0  0  0  0  0  3  0  0  0  0  0  0
  188.6200  178.4350  136.6680 C   0  0  0  0  0  2  0  0  0  0  0  0
  183.3330  178.9410  139.3400 C   0  0  0  0  0  3  0  0  0  0  0  0
  189.4150  177.1670  136.3860 C   0  0  0  0  0  2  0  0  0  0  0  0
  185.4110  178.5090  140.5210 C   0  0  0  0  0  0  0  0  0  0  0  0
  188.8180  177.6920  141.8600 N   0  0  0  0  0  0  0  0  0  0  0  0
  182.6470  178.9930  140.5570 C   0  0  0  0  0  0  0  0  0  0  0  0
  184.7130  178.5680  141.7430 C   0  0  0  0  0  0  0  0  0  0  0  0
  189.9020  177.6230  139.6550 C   0  0  1  0  0  3  0  0  0  0  0  0
  186.7950  178.2850  140.5330 C   0  0  0  0  0  0  0  0  0  0  0  0
  189.2360  179.2770  137.7870 C   0  0  0  0  0  2  0  0  0  0  0  0
  185.3870  178.3990  142.9070 N   0  0  0  0  0  0  0  0  0  0  0  0
  189.4260  176.2230  137.5780 C   0  0  0  0  0  2  0  0  0  0  0  0
  190.4690  176.6920  138.5790 C   0  0  0  0  0  2  0  0  0  0  0  0
  188.9260  178.7190  139.1800 C   0  0  1  0  0  3  0  0  0  0  0  0
  191.5300  177.5970  145.0760 C   0  0  0  0  0  2  0  0  0  0  0  0
  189.5400  177.8820  143.1170 C   0  0  2  0  0  3  0  0  0  0  0  0
  190.8060  178.7150  142.9030 C   0  0  0  0  0  2  0  0  0  0  0  0
  191.5930  178.8610  144.2080 C   0  0  0  0  0  2  0  0  0  0  0  0
  191.2150  176.4230  144.2660 N   0  0  0  0  0  2  0  0  0  0  0  0
  189.8300  176.5300  143.7960 C   0  0  0  0  0  2  0  0  0  0  0  0
  1 12  1  0  0  0  0
  2 12  1  0  0  0  0
  2  6  1  0  0  0  0
  3 16  1  0  0  0  0
  7  9  2  0  0  0  0
  7 11  1  0  0  0  0
  8 17  1  0  0  0  0
  9 13  1  0  0  0  0
 10  8  1  0  0  0  0
 10 19  1  0  0  0  0
 11 16  1  0  0  0  0
 11 14  2  0  0  0  0
 13  5  1  0  0  0  0
 13  4  2  0  0  0  0
 14  4  1  0  0  0  0
 14 18  1  0  0  0  0
 15 20  1  6  0  0  0
 15  1  1  0  0  0  0
 16  2  2  0  0  0  0
 18  6  2  0  0  0  0
 19 20  1  0  0  0  0
 21 17  1  6  0  0  0
 21  3  1  0  0  0  0
 21 15  1  0  0  0  0
 23 12  1  6  0  0  0
 23 27  1  0  0  0  0
 24 23  1  0  0  0  0
 24 25  1  0  0  0  0
 25 22  1  0  0  0  0
 26 22  1  0  0  0  0
 27 26  1  0  0  0  0
M  END
>  <MODEL>
2

>  <REMARK>
 VINA RESULT:      -7.9      1.732      5.151
  Name = 
  1 active torsions:
  status: ('A' for Active; 'I' for Inactive)
    1  A    between atoms: C_9  and  N_15
                            x       y       z     vdW  Elec       q    Type
                         _______ _______ _______ _____ _____    ______ ____

>  <TORSDO>
F 1

$$$$
=
 OpenBabel10262420043D

 27 31  0  0  1  0  0  0  0  0999 V2000
  187.1810  177.3020  143.2100 C   0  0  0  0  0  2  0  0  0  0  0  0
  186.9310  178.3520  140.9510 C   0  0  0  0  0  0  0  0  0  0  0  0
  189.3350  177.8920  141.4350 N   0  0  0  0  0  2  0  0  0  0  0  0
  187.6720  178.2030  136.8570 C   0  0  0  0  0  3  0  0  0  0  0  0
  189.1850  177.8310  134.9050 C   0  0  0  0  0  1  0  0  0  0  0  0
  185.9690  178.6110  140.0210 N   0  0  0  0  0  0  0  0  0  0  0  0
  189.7670  177.6740  138.6400 C   0  0  0  0  0  3  0  0  0  0  0  0
  191.7080  177.4520  142.9490 C   0  0  0  0  0  2  0  0  0  0  0  0
  189.9900  177.6230  137.2600 C   0  0  0  0  0  3  0  0  0  0  0  0
  191.4760  176.3460  143.9710 C   0  0  0  0  0  2  0  0  0  0  0  0
  188.4920  177.9860  139.1380 C   0  0  0  0  0  0  0  0  0  0  0  0
  186.5650  178.3030  142.3410 N   0  0  0  0  0  0  0  0  0  0  0  0
  188.9440  177.8860  136.3700 C   0  0  0  0  0  0  0  0  0  0  0  0
  187.4450  178.2530  138.2350 C   0  0  0  0  0  0  0  0  0  0  0  0
  188.4870  177.8200  143.7950 C   0  0  1  0  0  3  0  0  0  0  0  0
  188.2440  178.0620  140.5160 C   0  0  0  0  0  0  0  0  0  0  0  0
  190.8500  178.6890  143.2180 C   0  0  0  0  0  2  0  0  0  0  0  0
  186.2160  178.5700  138.7110 N   0  0  0  0  0  0  0  0  0  0  0  0
  190.0520  175.8110  143.9180 C   0  0  0  0  0  2  0  0  0  0  0  0
  189.1350  176.7530  144.6810 C   0  0  0  0  0  2  0  0  0  0  0  0
  189.3990  178.5090  142.7580 C   0  0  1  0  0  3  0  0  0  0  0  0
  182.7030  179.3780  143.6220 C   0  0  0  0  0  2  0  0  0  0  0  0
  185.3570  178.9930  142.7900 C   0  0  2  0  0  3  0  0  0  0  0  0
  185.0760  178.7060  144.2660 C   0  0  0  0  0  2  0  0  0  0  0  0
  183.7770  179.3780  144.7190 C   0  0  0  0  0  2  0  0  0  0  0  0
  182.9530  178.3180  142.6480 N   0  0  0  0  0  2  0  0  0  0  0  0
  184.1580  178.6520  141.8830 C   0  0  0  0  0  2  0  0  0  0  0  0
  2 12  1  0  0  0  0
  3 21  1  0  0  0  0
  4 14  1  0  0  0  0
  5 13  1  0  0  0  0
  6  2  2  0  0  0  0
  7 11  1  0  0  0  0
  8 17  1  0  0  0  0
  8 10  1  0  0  0  0
  9  7  2  0  0  0  0
 11 16  2  0  0  0  0
 12 23  1  0  0  0  0
 12  1  1  0  0  0  0
 13  4  2  0  0  0  0
 13  9  1  0  0  0  0
 14 18  2  0  0  0  0
 14 11  1  0  0  0  0
 15  1  1  6  0  0  0
 15 20  1  0  0  0  0
 16  2  1  0  0  0  0
 16  3  1  0  0  0  0
 18  6  1  0  0  0  0
 19 10  1  0  0  0  0
 19 20  1  0  0  0  0
 21 17  1  1  0  0  0
 21 15  1  0  0  0  0
 22 25  1  0  0  0  0
 23 27  1  6  0  0  0
 23 24  1  0  0  0  0
 24 25  1  0  0  0  0
 26 22  1  0  0  0  0
 27 26  1  0  0  0  0
M  END
>  <MODEL>
3

>  <REMARK>
 VINA RESULT:      -7.8      1.539      5.984
  Name = 
  1 active torsions:
  status: ('A' for Active; 'I' for Inactive)
    1  A    between atoms: C_9  and  N_15
                            x       y       z     vdW  Elec       q    Type
                         _______ _______ _______ _____ _____    ______ ____

>  <TORSDO>
F 1

$$$$
=
 OpenBabel10262420043D

 27 31  0  0  1  0  0  0  0  0999 V2000
  191.2890  177.8940  140.5720 C   0  0  0  0  0  2  0  0  0  0  0  0
  189.1830  177.6180  139.2460 C   0  0  0  0  0  0  0  0  0  0  0  0
  188.6810  177.5910  141.6910 N   0  0  0  0  0  2  0  0  0  0  0  0
  185.3110  178.8990  138.4120 C   0  0  0  0  0  3  0  0  0  0  0  0
  183.0360  179.6430  139.1250 C   0  0  0  0  0  1  0  0  0  0  0  0
  188.7220  177.7810  137.9740 N   0  0  0  0  0  0  0  0  0  0  0  0
  186.0950  178.5850  141.0830 C   0  0  0  0  0  3  0  0  0  0  0  0
  189.0920  177.2390  144.4880 C   0  0  0  0  0  2  0  0  0  0  0  0
  184.8020  179.0210  140.7780 C   0  0  0  0  0  3  0  0  0  0  0  0
  190.3310  178.0040  144.9320 C   0  0  0  0  0  2  0  0  0  0  0  0
  187.0080  178.3080  140.0540 C   0  0  0  0  0  0  0  0  0  0  0  0
  190.5690  177.2920  139.4520 N   0  0  0  0  0  0  0  0  0  0  0  0
  184.4110  179.1790  139.4450 C   0  0  0  0  0  0  0  0  0  0  0  0
  186.6050  178.4650  138.7140 C   0  0  0  0  0  0  0  0  0  0  0  0
  191.1290  177.0570  141.8330 C   0  0  1  0  0  3  0  0  0  0  0  0
  188.3050  177.8520  140.3290 C   0  0  0  0  0  0  0  0  0  0  0  0
  189.4210  176.1010  143.5190 C   0  0  0  0  0  2  0  0  0  0  0  0
  187.4770  178.1830  137.7150 N   0  0  0  0  0  0  0  0  0  0  0  0
  191.0120  178.7120  143.7700 C   0  0  0  0  0  2  0  0  0  0  0  0
  191.8650  177.7120  143.0060 C   0  0  0  0  0  2  0  0  0  0  0  0
  189.6780  176.6010  142.0930 C   0  0  1  0  0  3  0  0  0  0  0  0
  193.2790  175.1070  137.0880 C   0  0  0  0  0  2  0  0  0  0  0  0
  191.3260  176.6630  138.3720 C   0  0  2  0  0  3  0  0  0  0  0  0
  191.0370  175.1620  138.2990 C   0  0  0  0  0  2  0  0  0  0  0  0
  191.8770  174.4930  137.2080 C   0  0  0  0  0  2  0  0  0  0  0  0
  193.6640  175.7750  138.3290 N   0  0  0  0  0  2  0  0  0  0  0  0
  192.8310  176.9680  138.5030 C   0  0  0  0  0  2  0  0  0  0  0  0
  2 12  1  0  0  0  0
  2 16  1  0  0  0  0
  3 21  1  0  0  0  0
  4 14  1  0  0  0  0
  4 13  2  0  0  0  0
  5 13  1  0  0  0  0
  6  2  2  0  0  0  0
  8 10  1  0  0  0  0
  9  7  2  0  0  0  0
 11 16  2  0  0  0  0
 11  7  1  0  0  0  0
 12  1  1  0  0  0  0
 13  9  1  0  0  0  0
 14 11  1  0  0  0  0
 15  1  1  6  0  0  0
 15 21  1  0  0  0  0
 15 20  1  0  0  0  0
 16  3  1  0  0  0  0
 17  8  1  0  0  0  0
 18  6  1  0  0  0  0
 18 14  2  0  0  0  0
 19 10  1  0  0  0  0
 20 19  1  0  0  0  0
 21 17  1  1  0  0  0
 22 25  1  0  0  0  0
 22 26  1  0  0  0  0
 23 24  1  1  0  0  0
 23 27  1  0  0  0  0
 23 12  1  0  0  0  0
 25 24  1  0  0  0  0
 26 27  1  0  0  0  0
M  END
>  <MODEL>
4

>  <REMARK>
 VINA RESULT:      -7.7      2.397      3.226
  Name = 
  1 active torsions:
  status: ('A' for Active; 'I' for Inactive)
    1  A    between atoms: C_9  and  N_15
                            x       y       z     vdW  Elec       q    Type
                         _______ _______ _______ _____ _____    ______ ____

>  <TORSDO>
F 1

$$$$
=
 OpenBabel10262420043D

 27 31  0  0  1  0  0  0  0  0999 V2000
  189.4090  176.5860  142.3450 C   0  0  0  0  0  2  0  0  0  0  0  0
  187.5500  177.8350  143.4630 C   0  0  0  0  0  0  0  0  0  0  0  0
  187.4480  178.1550  140.9910 N   0  0  0  0  0  2  0  0  0  0  0  0
  183.4730  178.6100  143.7840 C   0  0  0  0  0  3  0  0  0  0  0  0
  181.2380  179.0960  142.7810 C   0  0  0  0  0  1  0  0  0  0  0  0
  186.9070  177.8950  144.6630 N   0  0  0  0  0  0  0  0  0  0  0  0
  184.6510  178.5500  141.2440 C   0  0  0  0  0  3  0  0  0  0  0  0
  188.3390  178.3160  138.2890 C   0  0  0  0  0  2  0  0  0  0  0  0
  183.2820  178.8010  141.3770 C   0  0  0  0  0  3  0  0  0  0  0  0
  189.0970  177.0490  137.9150 C   0  0  0  0  0  2  0  0  0  0  0  0
  185.4410  178.3220  142.3820 C   0  0  0  0  0  0  0  0  0  0  0  0
  188.9330  177.4420  143.4300 N   0  0  0  0  0  0  0  0  0  0  0  0
  182.6930  178.8290  142.6450 C   0  0  0  0  0  0  0  0  0  0  0  0
  184.8410  178.3560  143.6550 C   0  0  0  0  0  0  0  0  0  0  0  0
  189.8410  177.4180  141.1470 C   0  0  1  0  0  3  0  0  0  0  0  0
  186.8190  178.0860  142.2800 C   0  0  0  0  0  0  0  0  0  0  0  0
  189.0500  179.1250  139.3760 C   0  0  0  0  0  2  0  0  0  0  0  0
  185.6020  178.1520  144.7580 N   0  0  0  0  0  0  0  0  0  0  0  0
  189.1900  176.0750  139.0790 C   0  0  0  0  0  2  0  0  0  0  0  0
  190.3130  176.5100  140.0070 C   0  0  0  0  0  2  0  0  0  0  0  0
  188.8430  178.5350  140.7760 C   0  0  1  0  0  3  0  0  0  0  0  0
  190.8750  177.0200  147.1390 C   0  0  0  0  0  2  0  0  0  0  0  0
  189.7520  177.5940  144.6310 C   0  0  2  0  0  3  0  0  0  0  0  0
  190.9270  176.6140  144.6240 C   0  0  0  0  0  2  0  0  0  0  0  0
  191.7480  176.7320  145.9100 C   0  0  0  0  0  2  0  0  0  0  0  0
  189.4960  176.5960  146.9100 N   0  0  0  0  0  2  0  0  0  0  0  0
  188.8920  177.4740  145.9040 C   0  0  0  0  0  2  0  0  0  0  0  0
  1 12  1  0  0  0  0
  2  6  1  0  0  0  0
  3 16  1  0  0  0  0
  6 18  2  0  0  0  0
  7  9  2  0  0  0  0
  7 11  1  0  0  0  0
  8 17  1  0  0  0  0
  9 13  1  0  0  0  0
 10  8  1  0  0  0  0
 10 19  1  0  0  0  0
 11 14  2  0  0  0  0
 12  2  1  0  0  0  0
 13  5  1  0  0  0  0
 13  4  2  0  0  0  0
 14  4  1  0  0  0  0
 14 18  1  0  0  0  0
 15 20  1  6  0  0  0
 15  1  1  0  0  0  0
 16 11  1  0  0  0  0
 16  2  2  0  0  0  0
 19 20  1  0  0  0  0
 21 17  1  6  0  0  0
 21  3  1  0  0  0  0
 21 15  1  0  0  0  0
 23 12  1  6  0  0  0
 23 27  1  0  0  0  0
 24 23  1  0  0  0  0
 24 25  1  0  0  0  0
 25 22  1  0  0  0  0
 26 22  1  0  0  0  0
 27 26  1  0  0  0  0
M  END
>  <MODEL>
5

>  <REMARK>
 VINA RESULT:      -7.0      1.845      5.428
  Name = 
  1 active torsions:
  status: ('A' for Active; 'I' for Inactive)
    1  A    between atoms: C_9  and  N_15
                            x       y       z     vdW  Elec       q    Type
                         _______ _______ _______ _____ _____    ______ ____

>  <TORSDO>
F 1

$$$$
=
 OpenBabel10262420043D

 27 31  0  0  1  0  0  0  0  0999 V2000
  188.6070  177.2290  136.0310 C   0  0  0  0  0  2  0  0  0  0  0  0
  187.9350  177.5050  138.4270 C   0  0  0  0  0  0  0  0  0  0  0  0
  189.9210  176.0050  138.2490 N   0  0  0  0  0  2  0  0  0  0  0  0
  188.9900  178.5240  142.3230 C   0  0  0  0  0  3  0  0  0  0  0  0
  190.5290  178.4190  144.2870 C   0  0  0  0  0  1  0  0  0  0  0  0
  187.1650  178.3130  139.2090 N   0  0  0  0  0  0  0  0  0  0  0  0
  190.6680  176.8260  140.8590 C   0  0  0  0  0  3  0  0  0  0  0  0
  191.7640  174.1540  137.1110 C   0  0  0  0  0  2  0  0  0  0  0  0
  191.0050  177.1880  142.1670 C   0  0  0  0  0  3  0  0  0  0  0  0
  192.2580  174.6720  135.7660 C   0  0  0  0  0  2  0  0  0  0  0  0
  189.4910  177.3150  140.2710 C   0  0  0  0  0  0  0  0  0  0  0  0
  187.5640  177.3010  137.0520 N   0  0  0  0  0  0  0  0  0  0  0  0
  190.1680  178.0370  142.8970 C   0  0  0  0  0  0  0  0  0  0  0  0
  188.6510  178.1660  141.0150 C   0  0  0  0  0  0  0  0  0  0  0  0
  189.1220  175.8050  135.8790 C   0  0  1  0  0  3  0  0  0  0  0  0
  189.1190  176.9540  138.9680 C   0  0  0  0  0  0  0  0  0  0  0  0
  190.2670  173.8410  137.1050 C   0  0  0  0  0  2  0  0  0  0  0  0
  187.5050  178.6280  140.4590 N   0  0  0  0  0  0  0  0  0  0  0  0
  191.6180  176.0010  135.3970 C   0  0  0  0  0  2  0  0  0  0  0  0
  190.2320  175.7480  134.8260 C   0  0  0  0  0  2  0  0  0  0  0  0
  189.4030  175.1010  137.2230 C   0  0  1  0  0  3  0  0  0  0  0  0
  183.7340  177.1190  135.3200 C   0  0  0  0  0  2  0  0  0  0  0  0
  186.1780  177.5160  136.6440 C   0  0  2  0  0  3  0  0  0  0  0  0
  185.2530  176.4640  137.2590 C   0  0  0  0  0  2  0  0  0  0  0  0
  183.8110  176.6530  136.7800 C   0  0  0  0  0  2  0  0  0  0  0  0
  184.9530  176.7680  134.5950 N   0  0  0  0  0  2  0  0  0  0  0  0
  186.0600  177.5810  135.1080 C   0  0  0  0  0  2  0  0  0  0  0  0
  1 12  1  0  0  0  0
  2 16  2  0  0  0  0
  2  6  1  0  0  0  0
  3 16  1  0  0  0  0
  4 13  1  0  0  0  0
  6 18  2  0  0  0  0
  7  9  1  0  0  0  0
  9 13  2  0  0  0  0
 10  8  1  0  0  0  0
 11  7  2  0  0  0  0
 11 14  1  0  0  0  0
 12  2  1  0  0  0  0
 13  5  1  0  0  0  0
 14  4  2  0  0  0  0
 15 20  1  6  0  0  0
 15  1  1  0  0  0  0
 15 21  1  0  0  0  0
 16 11  1  0  0  0  0
 17  8  1  0  0  0  0
 18 14  1  0  0  0  0
 19 10  1  0  0  0  0
 20 19  1  0  0  0  0
 21 17  1  6  0  0  0
 21  3  1  0  0  0  0
 22 25  1  0  0  0  0
 23 27  1  6  0  0  0
 23 12  1  0  0  0  0
 23 24  1  0  0  0  0
 25 24  1  0  0  0  0
 26 27  1  0  0  0  0
 26 22  1  0  0  0  0
M  END
>  <MODEL>
6

>  <REMARK>
 VINA RESULT:      -6.9      2.856      5.291
  Name = 
  1 active torsions:
  status: ('A' for Active; 'I' for Inactive)
    1  A    between atoms: C_9  and  N_15
                            x       y       z     vdW  Elec       q    Type
                         _______ _______ _______ _____ _____    ______ ____

>  <TORSDO>
F 1

$$$$
=
 OpenBabel10262420043D

 27 31  0  0  1  0  0  0  0  0999 V2000
  185.0950  177.5370  138.3130 C   0  0  0  0  0  2  0  0  0  0  0  0
  186.1870  178.2630  140.4460 C   0  0  0  0  0  0  0  0  0  0  0  0
  183.7960  178.9750  140.4060 N   0  0  0  0  0  2  0  0  0  0  0  0
  186.1850  178.3050  144.6080 C   0  0  0  0  0  3  0  0  0  0  0  0
  185.0360  178.5870  146.8080 C   0  0  0  0  0  1  0  0  0  0  0  0
  187.3060  178.0150  141.1830 N   0  0  0  0  0  0  0  0  0  0  0  0
  183.8070  178.8660  143.2410 C   0  0  0  0  0  3  0  0  0  0  0  0
  181.2610  179.7320  139.3470 C   0  0  0  0  0  2  0  0  0  0  0  0
  183.8290  178.8670  144.6390 C   0  0  0  0  0  3  0  0  0  0  0  0
  180.7800  178.6850  138.3510 C   0  0  0  0  0  2  0  0  0  0  0  0
  184.9730  178.5790  142.5160 C   0  0  0  0  0  0  0  0  0  0  0  0
  186.2420  178.1090  139.0170 N   0  0  0  0  0  0  0  0  0  0  0  0
  185.0160  178.5850  145.3220 C   0  0  0  0  0  0  0  0  0  0  0  0
  186.1660  178.3000  143.2110 C   0  0  0  0  0  0  0  0  0  0  0  0
  184.0920  178.6180  137.9410 C   0  0  1  0  0  3  0  0  0  0  0  0
  184.9850  178.5890  141.1140 C   0  0  0  0  0  0  0  0  0  0  0  0
  182.5290  180.4490  138.8790 C   0  0  0  0  0  2  0  0  0  0  0  0
  187.3000  178.0390  142.5160 N   0  0  0  0  0  0  0  0  0  0  0  0
  181.7860  177.5560  138.1800 C   0  0  0  0  0  2  0  0  0  0  0  0
  182.8840  178.0030  137.2280 C   0  0  0  0  0  2  0  0  0  0  0  0
  183.7920  179.6060  139.0880 C   0  0  1  0  0  3  0  0  0  0  0  0
  189.6240  177.5320  136.5800 C   0  0  0  0  0  2  0  0  0  0  0  0
  187.5320  178.1870  138.3350 C   0  0  2  0  0  3  0  0  0  0  0  0
  187.3640  178.6690  136.8930 C   0  0  0  0  0  2  0  0  0  0  0  0
  188.7090  178.6900  136.1610 C   0  0  0  0  0  2  0  0  0  0  0  0
  188.8450  176.4270  137.1360 N   0  0  0  0  0  2  0  0  0  0  0  0
  188.2850  176.8450  138.4250 C   0  0  0  0  0  2  0  0  0  0  0  0
  1 12  1  0  0  0  0
  2 16  2  0  0  0  0
  2  6  1  0  0  0  0
  3 16  1  0  0  0  0
  4 13  1  0  0  0  0
  6 18  2  0  0  0  0
  7  9  1  0  0  0  0
  9 13  2  0  0  0  0
 10  8  1  0  0  0  0
 11 14  1  0  0  0  0
 11  7  2  0  0  0  0
 12  2  1  0  0  0  0
 13  5  1  0  0  0  0
 14  4  2  0  0  0  0
 15 20  1  1  0  0  0
 15  1  1  0  0  0  0
 15 21  1  0  0  0  0
 16 11  1  0  0  0  0
 17  8  1  0  0  0  0
 18 14  1  0  0  0  0
 19 10  1  0  0  0  0
 20 19  1  0  0  0  0
 21 17  1  6  0  0  0
 21  3  1  0  0  0  0
 22 26  1  0  0  0  0
 23 24  1  6  0  0  0
 23 27  1  0  0  0  0
 23 12  1  0  0  0  0
 25 22  1  0  0  0  0
 25 24  1  0  0  0  0
 26 27  1  0  0  0  0
M  END
>  <MODEL>
7

>  <REMARK>
 VINA RESULT:      -6.9      2.603      5.470
  Name = 
  1 active torsions:
  status: ('A' for Active; 'I' for Inactive)
    1  A    between atoms: C_9  and  N_15
                            x       y       z     vdW  Elec       q    Type
                         _______ _______ _______ _____ _____    ______ ____

>  <TORSDO>
F 1

$$$$
=
 OpenBabel10262420043D

 27 31  0  0  1  0  0  0  0  0999 V2000
  187.4650  177.4750  143.5950 C   0  0  0  0  0  2  0  0  0  0  0  0
  187.6360  178.0100  141.1550 C   0  0  0  0  0  0  0  0  0  0  0  0
  189.9100  177.8380  142.1690 N   0  0  0  0  0  2  0  0  0  0  0  0
  189.1800  177.0670  137.4060 C   0  0  0  0  0  3  0  0  0  0  0  0
  191.0610  176.4070  135.9010 C   0  0  0  0  0  1  0  0  0  0  0  0
  186.8710  177.9990  140.0280 N   0  0  0  0  0  0  0  0  0  0  0  0
  190.8940  177.0750  139.6210 C   0  0  0  0  0  3  0  0  0  0  0  0
  191.9470  177.8960  144.1600 C   0  0  0  0  0  2  0  0  0  0  0  0
  191.3880  176.7540  138.3530 C   0  0  0  0  0  3  0  0  0  0  0  0
  191.5510  177.0140  145.3360 C   0  0  0  0  0  2  0  0  0  0  0  0
  189.5370  177.3890  139.7920 C   0  0  0  0  0  0  0  0  0  0  0  0
  187.0030  178.2260  142.4290 N   0  0  0  0  0  0  0  0  0  0  0  0
  190.5320  176.7490  137.2470 C   0  0  0  0  0  0  0  0  0  0  0  0
  188.6820  177.3860  138.6730 C   0  0  0  0  0  0  0  0  0  0  0  0
  188.6120  178.1970  144.2860 C   0  0  1  0  0  3  0  0  0  0  0  0
  189.0180  177.7320  141.0480 C   0  0  0  0  0  0  0  0  0  0  0  0
  191.0150  179.0970  143.9870 C   0  0  0  0  0  2  0  0  0  0  0  0
  187.3740  177.7050  138.8290 N   0  0  0  0  0  0  0  0  0  0  0  0
  190.1840  176.3770  145.1370 C   0  0  0  0  0  2  0  0  0  0  0  0
  189.1040  177.3880  145.4900 C   0  0  0  0  0  2  0  0  0  0  0  0
  189.6910  178.7190  143.3140 C   0  0  1  0  0  3  0  0  0  0  0  0
  182.9250  179.2550  142.5500 C   0  0  0  0  0  2  0  0  0  0  0  0
  185.7100  178.9040  142.4820 C   0  0  2  0  0  3  0  0  0  0  0  0
  185.0510  178.7260  143.8520 C   0  0  0  0  0  2  0  0  0  0  0  0
  183.6700  179.3840  143.8860 C   0  0  0  0  0  2  0  0  0  0  0  0
  183.4400  178.1300  141.7720 N   0  0  0  0  0  2  0  0  0  0  0  0
  184.8000  178.4460  141.3250 C   0  0  0  0  0  2  0  0  0  0  0  0
  2 12  1  0  0  0  0
  3 21  1  0  0  0  0
  4 14  1  0  0  0  0
  5 13  1  0  0  0  0
  6  2  2  0  0  0  0
  7 11  1  0  0  0  0
  8 10  1  0  0  0  0
  9  7  2  0  0  0  0
 11 16  2  0  0  0  0
 12 23  1  0  0  0  0
 12  1  1  0  0  0  0
 13  4  2  0  0  0  0
 13  9  1  0  0  0  0
 14 18  2  0  0  0  0
 14 11  1  0  0  0  0
 15  1  1  6  0  0  0
 15 20  1  0  0  0  0
 16  2  1  0  0  0  0
 16  3  1  0  0  0  0
 17  8  1  0  0  0  0
 18  6  1  0  0  0  0
 19 10  1  0  0  0  0
 19 20  1  0  0  0  0
 21 17  1  1  0  0  0
 21 15  1  0  0  0  0
 22 25  1  0  0  0  0
 23 27  1  6  0  0  0
 23 24  1  0  0  0  0
 24 25  1  0  0  0  0
 26 22  1  0  0  0  0
 27 26  1  0  0  0  0
M  END
>  <MODEL>
8

>  <REMARK>
 VINA RESULT:      -6.8      1.534      6.012
  Name = 
  1 active torsions:
  status: ('A' for Active; 'I' for Inactive)
    1  A    between atoms: C_9  and  N_15
                            x       y       z     vdW  Elec       q    Type
                         _______ _______ _______ _____ _____    ______ ____

>  <TORSDO>
F 1

$$$$
=
 OpenBabel10262420043D

 27 31  0  0  1  0  0  0  0  0999 V2000
  183.5970  179.3770  141.1570 C   0  0  0  0  0  2  0  0  0  0  0  0
  185.7830  178.5270  140.2820 C   0  0  0  0  0  0  0  0  0  0  0  0
  183.8950  177.6520  138.9040 N   0  0  0  0  0  2  0  0  0  0  0  0
  188.4000  178.0800  137.0750 C   0  0  0  0  0  3  0  0  0  0  0  0
  188.8880  177.5030  134.6950 C   0  0  0  0  0  1  0  0  0  0  0  0
  187.1180  178.7820  140.3830 N   0  0  0  0  0  0  0  0  0  0  0  0
  185.6870  177.4850  136.7120 C   0  0  0  0  0  3  0  0  0  0  0  0
  181.2540  176.8230  138.2290 C   0  0  0  0  0  2  0  0  0  0  0  0
  186.5840  177.3500  135.6470 C   0  0  0  0  0  3  0  0  0  0  0  0
  180.2600  177.9240  138.5700 C   0  0  0  0  0  2  0  0  0  0  0  0
  186.1400  177.9240  137.9650 C   0  0  0  0  0  0  0  0  0  0  0  0
  184.9270  178.8230  141.4000 N   0  0  0  0  0  0  0  0  0  0  0  0
  187.9380  177.6480  135.8280 C   0  0  0  0  0  0  0  0  0  0  0  0
  187.5060  178.2190  138.1410 C   0  0  0  0  0  0  0  0  0  0  0  0
  182.5760  178.2680  140.9470 C   0  0  1  0  0  3  0  0  0  0  0  0
  185.2670  178.0520  139.0550 C   0  0  0  0  0  0  0  0  0  0  0  0
  181.9410  176.2470  139.4690 C   0  0  0  0  0  2  0  0  0  0  0  0
  187.9510  178.6280  139.3540 N   0  0  0  0  0  0  0  0  0  0  0  0
  180.9400  179.1340  139.1940 C   0  0  0  0  0  2  0  0  0  0  0  0
  181.1920  178.8610  140.6680 C   0  0  0  0  0  2  0  0  0  0  0  0
  183.0590  177.1550  139.9950 C   0  0  1  0  0  3  0  0  0  0  0  0
  185.7140  178.6630  145.5300 C   0  0  0  0  0  2  0  0  0  0  0  0
  185.5020  178.9050  142.7410 C   0  0  2  0  0  3  0  0  0  0  0  0
  185.8870  177.5180  143.2600 C   0  0  0  0  0  2  0  0  0  0  0  0
  186.4300  177.5980  144.6890 C   0  0  0  0  0  2  0  0  0  0  0  0
  184.3920  178.9580  144.9830 N   0  0  0  0  0  2  0  0  0  0  0  0
  184.5550  179.6520  143.7010 C   0  0  0  0  0  2  0  0  0  0  0  0
  1 12  1  0  0  0  0
  2  6  1  0  0  0  0
  2 12  1  0  0  0  0
  3 16  1  0  0  0  0
  3 21  1  0  0  0  0
  4 14  1  0  0  0  0
  5 13  1  0  0  0  0
  7 11  1  0  0  0  0
  8 10  1  0  0  0  0
  8 17  1  0  0  0  0
  9 13  1  0  0  0  0
  9  7  2  0  0  0  0
 10 19  1  0  0  0  0
 11 14  2  0  0  0  0
 11 16  1  0  0  0  0
 13  4  2  0  0  0  0
 14 18  1  0  0  0  0
 15 20  1  6  0  0  0
 15  1  1  0  0  0  0
 16  2  2  0  0  0  0
 18  6  2  0  0  0  0
 19 20  1  0  0  0  0
 21 17  1  6  0  0  0
 21 15  1  0  0  0  0
 23 12  1  6  0  0  0
 23 24  1  0  0  0  0
 23 27  1  0  0  0  0
 24 25  1  0  0  0  0
 25 22  1  0  0  0  0
 26 22  1  0  0  0  0
 27 26  1  0  0  0  0
M  END
>  <MODEL>
9

>  <REMARK>
 VINA RESULT:      -6.6      2.819      7.916
  Name = 
  1 active torsions:
  status: ('A' for Active; 'I' for Inactive)
    1  A    between atoms: C_9  and  N_15
                            x       y       z     vdW  Elec       q    Type
                         _______ _______ _______ _____ _____    ______ ____

>  <TORSDO>
F 1

$$$$
