=
 OpenBabel10262422003D

 30 33  0  0  1  0  0  0  0  0999 V2000
  184.4940  178.5410  143.0240 C   0  0  0  0  0  0  0  0  0  0  0  0
  185.6930  179.0460  145.1300 C   0  0  0  0  0  2  0  0  0  0  0  0
  188.6470  176.1250  143.0100 C   0  0  0  0  0  2  0  0  0  0  0  0
  186.4700  179.3080  141.0190 C   0  0  0  0  0  2  0  0  0  0  0  0
  183.9010  177.5730  142.1520 N   0  0  0  0  0  2  0  0  0  0  0  0
  184.1810  179.0660  140.1190 C   0  0  1  0  0  3  0  0  0  0  0  0
  182.8520  177.0640  140.1380 O   0  0  0  0  0  0  0  0  0  0  0  0
  188.5630  177.7380  139.6320 C   0  0  2  0  0  3  0  0  0  0  0  0
  189.2750  176.8580  141.8720 C   0  0  0  0  0  0  0  0  0  0  0  0
  183.5650  177.8710  140.7920 C   0  0  0  0  0  0  0  0  0  0  0  0
  185.6180  178.8530  139.9240 N   0  0  0  0  0  0  0  0  0  0  0  0
  186.3390  178.4200  146.3230 C   0  0  0  0  0  3  0  0  0  0  0  0
  187.3030  177.0890  139.0430 C   0  0  0  0  0  2  0  0  0  0  0  0
  184.1190  179.7460  142.9750 O   0  0  0  0  0  0  0  0  0  0  0  0
  187.8960  177.0790  143.8880 C   0  0  0  0  0  0  0  0  0  0  0  0
  187.3290  177.5230  146.3370 C   0  0  0  0  0  3  0  0  0  0  0  0
  185.6340  178.1340  143.9160 C   0  0  2  0  0  3  0  0  0  0  0  0
  187.0890  178.1030  141.7130 C   0  0  1  0  0  3  0  0  0  0  0  0
  190.4190  176.5870  141.5390 O   0  0  0  0  0  0  0  0  0  0  0  0
  188.5170  177.9430  141.1610 C   0  0  2  0  0  3  0  0  0  0  0  0
  185.5360  177.9850  137.7460 O   0  0  0  0  0  0  0  0  0  0  0  0
  188.0100  176.8640  145.2040 C   0  0  0  0  0  3  0  0  0  0  0  0
  187.0370  178.1700  143.2670 C   0  0  2  0  0  3  0  0  0  0  0  0
  186.1280  178.0170  138.8560 C   0  0  0  0  0  0  0  0  0  0  0  0
  183.4440  179.5380  138.8660 C   0  0  0  0  0  2  0  0  0  0  0  0
  182.0790  180.1060  139.2160 C   0  0  0  0  0  2  0  0  0  0  0  0
  181.7760  181.3380  138.3850 C   0  0  0  0  0  1  0  0  0  0  0  0
  188.9630  179.0110  138.8900 C   0  0  0  0  0  2  0  0  0  0  0  0
  190.0590  177.5050  137.2300 C   0  0  0  0  0  1  0  0  0  0  0  0
  189.2000  178.7430  137.4120 C   0  0  0  0  0  2  0  0  0  0  0  0
  1 17  1  0  0  0  0
  2 12  1  0  0  0  0
  3 15  1  0  0  0  0
  5  1  1  0  0  0  0
  6 25  1  6  0  0  0
  6 10  1  0  0  0  0
  7 10  2  0  0  0  0
  8 28  1  6  0  0  0
  8 20  1  0  0  0  0
  9  3  1  0  0  0  0
 10  5  1  0  0  0  0
 11  6  1  0  0  0  0
 11  4  1  0  0  0  0
 12 16  2  0  0  0  0
 13  8  1  0  0  0  0
 14  1  2  0  0  0  0
 15 22  2  0  0  0  0
 17  2  1  1  0  0  0
 18  4  1  6  0  0  0
 18 23  1  0  0  0  0
 19  9  2  0  0  0  0
 20 18  1  0  0  0  0
 20  9  1  1  0  0  0
 21 24  2  0  0  0  0
 22 16  1  0  0  0  0
 23 15  1  1  0  0  0
 23 17  1  0  0  0  0
 24 13  1  0  0  0  0
 24 11  1  0  0  0  0
 25 26  1  0  0  0  0
 27 26  1  0  0  0  0
 29 30  1  0  0  0  0
 30 28  1  0  0  0  0
M  END
>  <MODEL>
1

>  <REMARK>
 VINA RESULT:      -7.0      0.000      0.000
  Name = 
  4 active torsions:
  status: ('A' for Active; 'I' for Inactive)
    1  A    between atoms: C_6  and  C_8
    2  A    between atoms: C_6  and  C_17
    3  A    between atoms: C_7  and  C_10
    4  A    between atoms: C_7  and  C_26
                            x       y       z     vdW  Elec       q    Type
                         _______ _______ _______ _____ _____    ______ ____

>  <TORSDO>
F 4

$$$$
=
 OpenBabel10262422003D

 30 33  0  0  1  0  0  0  0  0999 V2000
  189.6680  176.8340  136.5360 C   0  0  0  0  0  0  0  0  0  0  0  0
  191.5240  175.2030  136.3810 C   0  0  0  0  0  2  0  0  0  0  0  0
  192.6860  177.6370  140.1860 C   0  0  0  0  0  2  0  0  0  0  0  0
  188.6600  176.3310  139.2270 C   0  0  0  0  0  2  0  0  0  0  0  0
  189.2310  178.1970  136.5650 N   0  0  0  0  0  2  0  0  0  0  0  0
  187.0950  177.6050  137.8000 C   0  0  1  0  0  3  0  0  0  0  0  0
  187.5130  179.7480  136.7970 O   0  0  0  0  0  0  0  0  0  0  0  0
  189.3230  177.5770  141.8300 C   0  0  2  0  0  3  0  0  0  0  0  0
  191.7490  177.2480  141.2810 C   0  0  0  0  0  0  0  0  0  0  0  0
  187.9180  178.5720  136.9950 C   0  0  0  0  0  0  0  0  0  0  0  0
  187.6890  177.4170  139.1270 N   0  0  0  0  0  0  0  0  0  0  0  0
  193.0110  175.0800  136.3220 C   0  0  0  0  0  3  0  0  0  0  0  0
  188.6460  178.7620  141.1270 C   0  0  0  0  0  2  0  0  0  0  0  0
  188.8690  175.9260  136.1710 O   0  0  0  0  0  0  0  0  0  0  0  0
  192.5400  176.7030  139.0230 C   0  0  0  0  0  0  0  0  0  0  0  0
  193.9030  175.5430  137.2020 C   0  0  0  0  0  3  0  0  0  0  0  0
  191.0400  176.4840  137.0400 C   0  0  2  0  0  3  0  0  0  0  0  0
  190.0490  176.9120  139.4500 C   0  0  1  0  0  3  0  0  0  0  0  0
  192.1390  177.2550  142.4380 O   0  0  0  0  0  0  0  0  0  0  0  0
  190.3450  176.8200  140.9570 C   0  0  2  0  0  3  0  0  0  0  0  0
  186.4520  179.0420  140.2820 O   0  0  0  0  0  0  0  0  0  0  0  0
  193.6810  176.3420  138.4250 C   0  0  0  0  0  3  0  0  0  0  0  0
  191.1560  176.2670  138.5660 C   0  0  2  0  0  3  0  0  0  0  0  0
  187.5290  178.3980  140.1820 C   0  0  0  0  0  0  0  0  0  0  0  0
  185.5980  177.9130  137.8250 C   0  0  0  0  0  2  0  0  0  0  0  0
  184.8360  176.9930  136.8860 C   0  0  0  0  0  2  0  0  0  0  0  0
  185.3980  175.5840  136.9350 C   0  0  0  0  0  1  0  0  0  0  0  0
  188.3140  176.6370  142.4860 C   0  0  0  0  0  2  0  0  0  0  0  0
  189.2780  177.4030  144.6560 C   0  0  0  0  0  1  0  0  0  0  0  0
  188.0000  177.0650  143.9110 C   0  0  0  0  0  2  0  0  0  0  0  0
  1  5  1  0  0  0  0
  1 17  1  0  0  0  0
  3  9  1  0  0  0  0
  5 10  1  0  0  0  0
  6 25  1  1  0  0  0
  6 11  1  0  0  0  0
  7 10  2  0  0  0  0
  8 28  1  6  0  0  0
  9 19  2  0  0  0  0
 10  6  1  0  0  0  0
 11  4  1  0  0  0  0
 11 24  1  0  0  0  0
 12  2  1  0  0  0  0
 12 16  2  0  0  0  0
 13  8  1  0  0  0  0
 14  1  2  0  0  0  0
 15  3  1  0  0  0  0
 16 22  1  0  0  0  0
 17  2  1  6  0  0  0
 17 23  1  0  0  0  0
 18  4  1  1  0  0  0
 18 20  1  0  0  0  0
 20  9  1  6  0  0  0
 20  8  1  0  0  0  0
 22 15  2  0  0  0  0
 23 15  1  1  0  0  0
 23 18  1  0  0  0  0
 24 21  2  0  0  0  0
 24 13  1  0  0  0  0
 26 27  1  0  0  0  0
 26 25  1  0  0  0  0
 28 30  1  0  0  0  0
 30 29  1  0  0  0  0
M  END
>  <MODEL>
2

>  <REMARK>
 VINA RESULT:      -7.0      2.718      6.509
  Name = 
  4 active torsions:
  status: ('A' for Active; 'I' for Inactive)
    1  A    between atoms: C_6  and  C_8
    2  A    between atoms: C_6  and  C_17
    3  A    between atoms: C_7  and  C_10
    4  A    between atoms: C_7  and  C_26
                            x       y       z     vdW  Elec       q    Type
                         _______ _______ _______ _____ _____    ______ ____

>  <TORSDO>
F 4

$$$$
=
 OpenBabel10262422003D

 30 33  0  0  1  0  0  0  0  0999 V2000
  189.5850  177.3430  144.7740 C   0  0  0  0  0  0  0  0  0  0  0  0
  188.9550  176.4710  147.0030 C   0  0  0  0  0  2  0  0  0  0  0  0
  185.6560  179.6810  146.2510 C   0  0  0  0  0  2  0  0  0  0  0  0
  187.1330  176.9100  143.2540 C   0  0  0  0  0  2  0  0  0  0  0  0
  189.9650  178.4520  143.9530 N   0  0  0  0  0  2  0  0  0  0  0  0
  189.1180  177.3280  141.8420 C   0  0  1  0  0  3  0  0  0  0  0  0
  190.4740  179.3110  141.8510 O   0  0  0  0  0  0  0  0  0  0  0  0
  184.8070  178.6720  142.7460 C   0  0  2  0  0  3  0  0  0  0  0  0
  184.7290  179.1470  145.2090 C   0  0  0  0  0  0  0  0  0  0  0  0
  189.9270  178.3960  142.5220 C   0  0  0  0  0  0  0  0  0  0  0  0
  187.6870  177.5560  142.0670 N   0  0  0  0  0  0  0  0  0  0  0  0
  188.6610  176.8750  148.4110 C   0  0  0  0  0  3  0  0  0  0  0  0
  185.8940  179.4260  141.9670 C   0  0  0  0  0  2  0  0  0  0  0  0
  189.8930  176.1690  144.4260 O   0  0  0  0  0  0  0  0  0  0  0  0
  186.5750  178.5980  146.7290 C   0  0  0  0  0  0  0  0  0  0  0  0
  187.7410  177.7460  148.8340 C   0  0  0  0  0  3  0  0  0  0  0  0
  188.7300  177.5780  145.9870 C   0  0  2  0  0  3  0  0  0  0  0  0
  186.7560  177.9710  144.2780 C   0  0  1  0  0  3  0  0  0  0  0  0
  183.5490  179.4590  145.2370 O   0  0  0  0  0  0  0  0  0  0  0  0
  185.2400  178.2080  144.1520 C   0  0  2  0  0  3  0  0  0  0  0  0
  187.2330  178.7860  140.1220 O   0  0  0  0  0  0  0  0  0  0  0  0
  186.8130  178.5820  148.0450 C   0  0  0  0  0  3  0  0  0  0  0  0
  187.2060  177.6390  145.7310 C   0  0  2  0  0  3  0  0  0  0  0  0
  186.9470  178.5580  141.3260 C   0  0  0  0  0  0  0  0  0  0  0  0
  189.4880  177.0860  140.3790 C   0  0  0  0  0  2  0  0  0  0  0  0
  190.9330  176.6320  140.2490 C   0  0  0  0  0  2  0  0  0  0  0  0
  191.3370  176.5260  138.7910 C   0  0  0  0  0  1  0  0  0  0  0  0
  184.1850  177.5410  141.9300 C   0  0  0  0  0  2  0  0  0  0  0  0
  182.0240  178.6990  141.4690 C   0  0  0  0  0  1  0  0  0  0  0  0
  183.2620  178.0790  140.8480 C   0  0  0  0  0  2  0  0  0  0  0  0
  1 17  1  0  0  0  0
  2 12  1  0  0  0  0
  3 15  1  0  0  0  0
  5  1  1  0  0  0  0
  6 25  1  6  0  0  0
  6 11  1  0  0  0  0
  6 10  1  0  0  0  0
  7 10  2  0  0  0  0
  8 28  1  6  0  0  0
  8 20  1  0  0  0  0
  9 19  2  0  0  0  0
  9  3  1  0  0  0  0
 10  5  1  0  0  0  0
 11  4  1  0  0  0  0
 12 16  2  0  0  0  0
 13  8  1  0  0  0  0
 14  1  2  0  0  0  0
 15 22  2  0  0  0  0
 17  2  1  1  0  0  0
 18  4  1  6  0  0  0
 18 23  1  0  0  0  0
 20 18  1  0  0  0  0
 20  9  1  1  0  0  0
 21 24  2  0  0  0  0
 22 16  1  0  0  0  0
 23 17  1  0  0  0  0
 23 15  1  1  0  0  0
 24 13  1  0  0  0  0
 24 11  1  0  0  0  0
 26 25  1  0  0  0  0
 27 26  1  0  0  0  0
 30 29  1  0  0  0  0
 30 28  1  0  0  0  0
M  END
>  <MODEL>
3

>  <REMARK>
 VINA RESULT:      -6.9      2.243      5.786
  Name = 
  4 active torsions:
  status: ('A' for Active; 'I' for Inactive)
    1  A    between atoms: C_6  and  C_8
    2  A    between atoms: C_6  and  C_17
    3  A    between atoms: C_7  and  C_10
    4  A    between atoms: C_7  and  C_26
                            x       y       z     vdW  Elec       q    Type
                         _______ _______ _______ _____ _____    ______ ____

>  <TORSDO>
F 4

$$$$
=
 OpenBabel10262422003D

 30 33  0  0  1  0  0  0  0  0999 V2000
  189.7080  177.4300  140.0470 C   0  0  0  0  0  0  0  0  0  0  0  0
  189.4300  178.6390  137.9050 C   0  0  0  0  0  2  0  0  0  0  0  0
  185.0250  177.5520  138.9830 C   0  0  0  0  0  2  0  0  0  0  0  0
  187.9820  178.9710  141.8240 C   0  0  0  0  0  2  0  0  0  0  0  0
  189.5270  176.2350  140.8150 N   0  0  0  0  0  2  0  0  0  0  0  0
  189.5760  177.5030  143.0120 C   0  0  1  0  0  3  0  0  0  0  0  0
  189.6970  175.1090  142.8440 O   0  0  0  0  0  0  0  0  0  0  0  0
  185.1350  178.6340  142.5650 C   0  0  2  0  0  3  0  0  0  0  0  0
  184.6060  178.4210  140.1220 C   0  0  0  0  0  0  0  0  0  0  0  0
  189.6490  176.2140  142.2410 C   0  0  0  0  0  0  0  0  0  0  0  0
  188.2220  178.0600  142.9400 N   0  0  0  0  0  0  0  0  0  0  0  0
  188.8470  178.5320  136.5330 C   0  0  0  0  0  3  0  0  0  0  0  0
  185.7350  177.3810  143.2180 C   0  0  0  0  0  2  0  0  0  0  0  0
  190.6110  178.2530  140.3690 O   0  0  0  0  0  0  0  0  0  0  0  0
  186.3270  178.0320  138.4170 C   0  0  0  0  0  0  0  0  0  0  0  0
  187.5760  178.2890  136.2050 C   0  0  0  0  0  3  0  0  0  0  0  0
  188.7530  177.7450  138.9310 C   0  0  2  0  0  3  0  0  0  0  0  0
  187.0210  178.3220  140.8390 C   0  0  1  0  0  3  0  0  0  0  0  0
  183.4380  178.7650  140.2180 O   0  0  0  0  0  0  0  0  0  0  0  0
  185.6210  178.8940  141.1240 C   0  0  2  0  0  3  0  0  0  0  0  0
  187.3680  177.1230  144.9130 O   0  0  0  0  0  0  0  0  0  0  0  0
  186.4220  178.0040  137.0830 C   0  0  0  0  0  3  0  0  0  0  0  0
  187.4490  178.4640  139.3490 C   0  0  2  0  0  3  0  0  0  0  0  0
  187.1380  177.5400  143.7480 C   0  0  0  0  0  0  0  0  0  0  0  0
  190.1450  177.4270  144.4290 C   0  0  0  0  0  2  0  0  0  0  0  0
  191.5720  177.9490  144.4730 C   0  0  0  0  0  2  0  0  0  0  0  0
  191.6400  179.3780  143.9690 C   0  0  0  0  0  1  0  0  0  0  0  0
  185.2650  179.8710  143.4520 C   0  0  0  0  0  2  0  0  0  0  0  0
  183.0580  179.1470  144.3610 C   0  0  0  0  0  1  0  0  0  0  0  0
  184.4070  179.7530  144.7010 C   0  0  0  0  0  2  0  0  0  0  0  0
  1 14  2  0  0  0  0
  1  5  1  0  0  0  0
  3  9  1  0  0  0  0
  4 11  1  0  0  0  0
  5 10  1  0  0  0  0
  6 25  1  1  0  0  0
  8 13  1  0  0  0  0
  8 28  1  1  0  0  0
  9 19  2  0  0  0  0
 10  7  2  0  0  0  0
 10  6  1  0  0  0  0
 11  6  1  0  0  0  0
 11 24  1  0  0  0  0
 12  2  1  0  0  0  0
 13 24  1  0  0  0  0
 15  3  1  0  0  0  0
 16 12  2  0  0  0  0
 16 22  1  0  0  0  0
 17  2  1  6  0  0  0
 17 23  1  0  0  0  0
 17  1  1  0  0  0  0
 18 20  1  0  0  0  0
 18  4  1  1  0  0  0
 20  9  1  6  0  0  0
 20  8  1  0  0  0  0
 22 15  2  0  0  0  0
 23 15  1  6  0  0  0
 23 18  1  0  0  0  0
 24 21  2  0  0  0  0
 25 26  1  0  0  0  0
 27 26  1  0  0  0  0
 28 30  1  0  0  0  0
 29 30  1  0  0  0  0
M  END
>  <MODEL>
4

>  <REMARK>
 VINA RESULT:      -6.7      2.157      7.080
  Name = 
  4 active torsions:
  status: ('A' for Active; 'I' for Inactive)
    1  A    between atoms: C_6  and  C_8
    2  A    between atoms: C_6  and  C_17
    3  A    between atoms: C_7  and  C_10
    4  A    between atoms: C_7  and  C_26
                            x       y       z     vdW  Elec       q    Type
                         _______ _______ _______ _____ _____    ______ ____

>  <TORSDO>
F 4

$$$$
=
 OpenBabel10262422003D

 30 33  0  0  1  0  0  0  0  0999 V2000
  183.5380  178.2870  141.6430 C   0  0  0  0  0  0  0  0  0  0  0  0
  184.3010  179.3940  143.7210 C   0  0  0  0  0  2  0  0  0  0  0  0
  188.0390  176.8680  142.5400 C   0  0  0  0  0  2  0  0  0  0  0  0
  185.5930  179.1110  139.7440 C   0  0  0  0  0  2  0  0  0  0  0  0
  183.2750  177.0790  140.9210 N   0  0  0  0  0  2  0  0  0  0  0  0
  183.5480  178.2260  138.6750 C   0  0  1  0  0  3  0  0  0  0  0  0
  182.6460  176.0160  138.9490 O   0  0  0  0  0  0  0  0  0  0  0  0
  188.1280  177.8220  138.9200 C   0  0  2  0  0  3  0  0  0  0  0  0
  188.6690  177.5150  141.3510 C   0  0  0  0  0  0  0  0  0  0  0  0
  183.0870  177.0590  139.5020 C   0  0  0  0  0  0  0  0  0  0  0  0
  185.0120  178.3010  138.6770 N   0  0  0  0  0  0  0  0  0  0  0  0
  184.8780  179.1380  145.0750 C   0  0  0  0  0  3  0  0  0  0  0  0
  187.1160  176.8230  138.3420 C   0  0  0  0  0  2  0  0  0  0  0  0
  182.9460  179.3540  141.3180 O   0  0  0  0  0  0  0  0  0  0  0  0
  186.9990  177.7710  143.1290 C   0  0  0  0  0  0  0  0  0  0  0  0
  186.0100  178.4940  145.3690 C   0  0  0  0  0  3  0  0  0  0  0  0
  184.5940  178.2970  142.7120 C   0  0  2  0  0  3  0  0  0  0  0  0
  186.3290  178.2070  140.7230 C   0  0  1  0  0  3  0  0  0  0  0  0
  189.8800  177.4460  141.2000 O   0  0  0  0  0  0  0  0  0  0  0  0
  187.8240  178.2710  140.3650 C   0  0  2  0  0  3  0  0  0  0  0  0
  185.4130  177.0760  136.7170 O   0  0  0  0  0  0  0  0  0  0  0  0
  186.9620  177.8150  144.4660 C   0  0  0  0  0  3  0  0  0  0  0  0
  186.0420  178.5270  142.2190 C   0  0  2  0  0  3  0  0  0  0  0  0
  185.8230  177.4260  137.8540 C   0  0  0  0  0  0  0  0  0  0  0  0
  182.9210  178.3040  137.2830 C   0  0  0  0  0  2  0  0  0  0  0  0
  181.5850  179.0280  137.3250 C   0  0  0  0  0  2  0  0  0  0  0  0
  181.7000  180.3300  138.0970 C   0  0  0  0  0  1  0  0  0  0  0  0
  188.3750  179.0050  137.9870 C   0  0  0  0  0  2  0  0  0  0  0  0
  190.1050  177.4340  137.1140 C   0  0  0  0  0  1  0  0  0  0  0  0
  189.1900  178.5940  136.7710 C   0  0  0  0  0  2  0  0  0  0  0  0
  1 17  1  0  0  0  0
  2 12  1  0  0  0  0
  3 15  1  0  0  0  0
  5  1  1  0  0  0  0
  6 25  1  6  0  0  0
  6 11  1  0  0  0  0
  6 10  1  0  0  0  0
  7 10  2  0  0  0  0
  8 28  1  6  0  0  0
  8 20  1  0  0  0  0
  9  3  1  0  0  0  0
 10  5  1  0  0  0  0
 11  4  1  0  0  0  0
 12 16  2  0  0  0  0
 13  8  1  0  0  0  0
 14  1  2  0  0  0  0
 15 22  2  0  0  0  0
 17  2  1  1  0  0  0
 18  4  1  6  0  0  0
 18 23  1  0  0  0  0
 19  9  2  0  0  0  0
 20 18  1  0  0  0  0
 20  9  1  1  0  0  0
 21 24  2  0  0  0  0
 22 16  1  0  0  0  0
 23 17  1  0  0  0  0
 23 15  1  1  0  0  0
 24 13  1  0  0  0  0
 24 11  1  0  0  0  0
 25 26  1  0  0  0  0
 26 27  1  0  0  0  0
 30 29  1  0  0  0  0
 30 28  1  0  0  0  0
M  END
>  <MODEL>
5

>  <REMARK>
 VINA RESULT:      -6.6      1.239      1.485
  Name = 
  4 active torsions:
  status: ('A' for Active; 'I' for Inactive)
    1  A    between atoms: C_6  and  C_8
    2  A    between atoms: C_6  and  C_17
    3  A    between atoms: C_7  and  C_10
    4  A    between atoms: C_7  and  C_26
                            x       y       z     vdW  Elec       q    Type
                         _______ _______ _______ _____ _____    ______ ____

>  <TORSDO>
F 4

$$$$
=
 OpenBabel10262422003D

 30 33  0  0  1  0  0  0  0  0999 V2000
  188.2490  177.7440  145.4600 C   0  0  0  0  0  0  0  0  0  0  0  0
  185.8570  177.4360  146.0220 C   0  0  0  0  0  2  0  0  0  0  0  0
  185.6160  179.9040  142.0720 C   0  0  0  0  0  2  0  0  0  0  0  0
  188.3730  176.6260  142.7680 C   0  0  0  0  0  2  0  0  0  0  0  0
  189.3450  178.6270  145.2050 N   0  0  0  0  0  2  0  0  0  0  0  0
  190.5840  176.8820  143.8420 C   0  0  1  0  0  3  0  0  0  0  0  0
  191.5680  178.9420  144.5920 O   0  0  0  0  0  0  0  0  0  0  0  0
  188.0890  177.8940  140.1070 C   0  0  2  0  0  3  0  0  0  0  0  0
  186.0000  179.0030  140.9460 C   0  0  0  0  0  0  0  0  0  0  0  0
  190.5620  178.1830  144.5940 C   0  0  0  0  0  0  0  0  0  0  0  0
  189.7800  176.9890  142.6220 N   0  0  0  0  0  0  0  0  0  0  0  0
  184.5750  178.1680  146.2520 C   0  0  0  0  0  3  0  0  0  0  0  0
  189.4040  178.5340  140.5730 C   0  0  0  0  0  2  0  0  0  0  0  0
  188.4700  176.5650  145.8550 O   0  0  0  0  0  0  0  0  0  0  0  0
  185.4140  179.1090  143.3260 C   0  0  0  0  0  0  0  0  0  0  0  0
  183.9520  179.0030  145.4170 C   0  0  0  0  0  3  0  0  0  0  0  0
  186.8480  178.1930  145.1530 C   0  0  2  0  0  3  0  0  0  0  0  0
  187.5100  177.8710  142.6170 C   0  0  1  0  0  3  0  0  0  0  0  0
  185.4970  179.1670  139.8450 O   0  0  0  0  0  0  0  0  0  0  0  0
  186.9740  177.8820  141.1750 C   0  0  2  0  0  3  0  0  0  0  0  0
  191.4980  177.5850  141.1400 O   0  0  0  0  0  0  0  0  0  0  0  0
  184.3740  179.4780  144.0820 C   0  0  0  0  0  3  0  0  0  0  0  0
  186.3890  177.9990  143.6890 C   0  0  2  0  0  3  0  0  0  0  0  0
  190.2770  177.6580  141.4360 C   0  0  0  0  0  0  0  0  0  0  0  0
  191.9800  176.3000  143.6210 C   0  0  0  0  0  2  0  0  0  0  0  0
  192.1410  174.9750  144.3460 C   0  0  0  0  0  2  0  0  0  0  0  0
  192.0640  175.1680  145.8490 C   0  0  0  0  0  1  0  0  0  0  0  0
  188.3020  176.5180  139.4790 C   0  0  0  0  0  2  0  0  0  0  0  0
  187.5040  177.6020  137.3780 C   0  0  0  0  0  1  0  0  0  0  0  0
  188.4940  176.6180  137.9740 C   0  0  0  0  0  2  0  0  0  0  0  0
  1 14  2  0  0  0  0
  2 12  1  0  0  0  0
  3 15  1  0  0  0  0
  5  1  1  0  0  0  0
  6 25  1  6  0  0  0
  6 10  1  0  0  0  0
  7 10  2  0  0  0  0
  8 28  1  1  0  0  0
  8 13  1  0  0  0  0
  8 20  1  0  0  0  0
  9  3  1  0  0  0  0
 10  5  1  0  0  0  0
 11  4  1  0  0  0  0
 11  6  1  0  0  0  0
 13 24  1  0  0  0  0
 15 22  2  0  0  0  0
 16 12  2  0  0  0  0
 17  1  1  0  0  0  0
 17  2  1  1  0  0  0
 18  4  1  1  0  0  0
 18 23  1  0  0  0  0
 19  9  2  0  0  0  0
 20  9  1  1  0  0  0
 20 18  1  0  0  0  0
 21 24  2  0  0  0  0
 22 16  1  0  0  0  0
 23 15  1  6  0  0  0
 23 17  1  0  0  0  0
 24 11  1  0  0  0  0
 25 26  1  0  0  0  0
 26 27  1  0  0  0  0
 29 30  1  0  0  0  0
 30 28  1  0  0  0  0
M  END
>  <MODEL>
6

>  <REMARK>
 VINA RESULT:      -6.4      2.604      5.932
  Name = 
  4 active torsions:
  status: ('A' for Active; 'I' for Inactive)
    1  A    between atoms: C_6  and  C_8
    2  A    between atoms: C_6  and  C_17
    3  A    between atoms: C_7  and  C_10
    4  A    between atoms: C_7  and  C_26
                            x       y       z     vdW  Elec       q    Type
                         _______ _______ _______ _____ _____    ______ ____

>  <TORSDO>
F 4

$$$$
=
 OpenBabel10262422003D

 30 33  0  0  1  0  0  0  0  0999 V2000
  186.2780  178.0490  138.1460 C   0  0  0  0  0  0  0  0  0  0  0  0
  184.4950  179.6570  138.7490 C   0  0  0  0  0  2  0  0  0  0  0  0
  185.2630  177.4920  142.8090 C   0  0  0  0  0  2  0  0  0  0  0  0
  188.3730  178.7450  140.0530 C   0  0  0  0  0  2  0  0  0  0  0  0
  186.7300  176.6940  138.0580 N   0  0  0  0  0  2  0  0  0  0  0  0
  189.1710  177.3810  138.1530 C   0  0  1  0  0  3  0  0  0  0  0  0
  188.4230  175.1700  137.5800 O   0  0  0  0  0  0  0  0  0  0  0  0
  189.0020  177.6830  142.7450 C   0  0  2  0  0  3  0  0  0  0  0  0
  186.5780  177.9620  143.3340 C   0  0  0  0  0  0  0  0  0  0  0  0
  188.1080  176.3560  137.8690 C   0  0  0  0  0  0  0  0  0  0  0  0
  189.2330  177.6590  139.5910 N   0  0  0  0  0  0  0  0  0  0  0  0
  183.1370  179.7680  139.3630 C   0  0  0  0  0  3  0  0  0  0  0  0
  189.3300  176.4540  141.8850 C   0  0  0  0  0  2  0  0  0  0  0  0
  186.7930  178.9330  137.4050 O   0  0  0  0  0  0  0  0  0  0  0  0
  184.8350  178.3420  141.6510 C   0  0  0  0  0  0  0  0  0  0  0  0
  182.7560  179.3640  140.5780 C   0  0  0  0  0  3  0  0  0  0  0  0
  185.2700  178.4270  139.1940 C   0  0  2  0  0  3  0  0  0  0  0  0
  187.2560  178.1750  140.9160 C   0  0  1  0  0  3  0  0  0  0  0  0
  186.7530  178.0340  144.5410 O   0  0  0  0  0  0  0  0  0  0  0  0
  187.6690  178.3720  142.3850 C   0  0  2  0  0  3  0  0  0  0  0  0
  190.9150  176.1260  140.1570 O   0  0  0  0  0  0  0  0  0  0  0  0
  183.5350  178.6550  141.6140 C   0  0  0  0  0  3  0  0  0  0  0  0
  185.8470  178.7510  140.5920 C   0  0  2  0  0  3  0  0  0  0  0  0
  189.8870  176.7560  140.5170 C   0  0  0  0  0  0  0  0  0  0  0  0
  190.5270  177.0820  137.5160 C   0  0  0  0  0  2  0  0  0  0  0  0
  190.3920  176.8660  136.0180 C   0  0  0  0  0  2  0  0  0  0  0  0
  191.4400  175.8910  135.5150 C   0  0  0  0  0  1  0  0  0  0  0  0
  190.1640  178.6710  142.8150 C   0  0  0  0  0  2  0  0  0  0  0  0
  190.2310  177.8860  145.1820 C   0  0  0  0  0  1  0  0  0  0  0  0
  191.0560  178.3970  144.0150 C   0  0  0  0  0  2  0  0  0  0  0  0
  1 17  1  0  0  0  0
  2 12  1  0  0  0  0
  3  9  1  0  0  0  0
  5  1  1  0  0  0  0
  6 25  1  1  0  0  0
  6 11  1  0  0  0  0
  7 10  2  0  0  0  0
  8 28  1  6  0  0  0
  9 19  2  0  0  0  0
 10  5  1  0  0  0  0
 10  6  1  0  0  0  0
 11  4  1  0  0  0  0
 11 24  1  0  0  0  0
 12 16  2  0  0  0  0
 13  8  1  0  0  0  0
 14  1  2  0  0  0  0
 15  3  1  0  0  0  0
 16 22  1  0  0  0  0
 17  2  1  6  0  0  0
 17 23  1  0  0  0  0
 18  4  1  6  0  0  0
 18 20  1  0  0  0  0
 20  8  1  0  0  0  0
 20  9  1  1  0  0  0
 21 24  2  0  0  0  0
 22 15  2  0  0  0  0
 23 18  1  0  0  0  0
 23 15  1  1  0  0  0
 24 13  1  0  0  0  0
 26 25  1  0  0  0  0
 27 26  1  0  0  0  0
 28 30  1  0  0  0  0
 30 29  1  0  0  0  0
M  END
>  <MODEL>
7

>  <REMARK>
 VINA RESULT:      -6.1      2.156      5.764
  Name = 
  4 active torsions:
  status: ('A' for Active; 'I' for Inactive)
    1  A    between atoms: C_6  and  C_8
    2  A    between atoms: C_6  and  C_17
    3  A    between atoms: C_7  and  C_10
    4  A    between atoms: C_7  and  C_26
                            x       y       z     vdW  Elec       q    Type
                         _______ _______ _______ _____ _____    ______ ____

>  <TORSDO>
F 4

$$$$
=
 OpenBabel10262422003D

 30 33  0  0  1  0  0  0  0  0999 V2000
  189.7150  177.4330  143.2830 C   0  0  0  0  0  0  0  0  0  0  0  0
  190.3030  176.0290  145.2350 C   0  0  0  0  0  2  0  0  0  0  0  0
  187.3330  179.0990  147.1070 C   0  0  0  0  0  2  0  0  0  0  0  0
  186.8080  177.2010  143.2400 C   0  0  0  0  0  2  0  0  0  0  0  0
  189.6780  178.7240  142.6670 N   0  0  0  0  0  2  0  0  0  0  0  0
  187.7680  178.0640  141.1330 C   0  0  1  0  0  3  0  0  0  0  0  0
  189.0550  180.0770  140.8790 O   0  0  0  0  0  0  0  0  0  0  0  0
  184.6920  178.8740  144.4620 C   0  0  2  0  0  3  0  0  0  0  0  0
  185.9620  178.7600  146.6240 C   0  0  0  0  0  0  0  0  0  0  0  0
  188.8850  178.9980  141.5060 C   0  0  0  0  0  0  0  0  0  0  0  0
  186.6930  178.1380  142.1260 N   0  0  0  0  0  0  0  0  0  0  0  0
  190.8270  176.0760  146.6330 C   0  0  0  0  0  3  0  0  0  0  0  0
  185.2500  179.8580  143.4250 C   0  0  0  0  0  2  0  0  0  0  0  0
  189.7120  176.3930  142.5650 O   0  0  0  0  0  0  0  0  0  0  0  0
  188.2890  177.9990  146.7610 C   0  0  0  0  0  0  0  0  0  0  0  0
  190.3320  176.7620  147.6660 C   0  0  0  0  0  3  0  0  0  0  0  0
  189.6500  177.3230  144.7800 C   0  0  2  0  0  3  0  0  0  0  0  0
  187.1030  177.9690  144.5200 C   0  0  1  0  0  3  0  0  0  0  0  0
  184.9990  178.9780  147.3440 O   0  0  0  0  0  0  0  0  0  0  0  0
  185.7710  178.1270  145.2750 C   0  0  2  0  0  3  0  0  0  0  0  0
  185.3630  179.7520  141.0620 O   0  0  0  0  0  0  0  0  0  0  0  0
  189.1860  177.6950  147.7060 C   0  0  0  0  0  3  0  0  0  0  0  0
  188.2300  177.3400  145.3910 C   0  0  2  0  0  3  0  0  0  0  0  0
  185.7430  179.2330  142.1440 C   0  0  0  0  0  0  0  0  0  0  0  0
  187.2910  178.1920  139.6860 C   0  0  0  0  0  2  0  0  0  0  0  0
  188.2420  177.4890  138.7330 C   0  0  0  0  0  2  0  0  0  0  0  0
  188.9150  178.4850  137.8070 C   0  0  0  0  0  1  0  0  0  0  0  0
  183.6570  177.9230  143.8650 C   0  0  0  0  0  2  0  0  0  0  0  0
  182.0090  178.6350  142.1320 C   0  0  0  0  0  1  0  0  0  0  0  0
  182.3330  178.6280  143.6150 C   0  0  0  0  0  2  0  0  0  0  0  0
  1 17  1  0  0  0  0
  2 12  1  0  0  0  0
  5  1  1  0  0  0  0
  6 25  1  6  0  0  0
  6 10  1  0  0  0  0
  6 11  1  0  0  0  0
  7 10  2  0  0  0  0
  8 28  1  6  0  0  0
  8 20  1  0  0  0  0
  9  3  1  0  0  0  0
  9 19  2  0  0  0  0
 10  5  1  0  0  0  0
 11 24  1  0  0  0  0
 11  4  1  0  0  0  0
 12 16  2  0  0  0  0
 13  8  1  0  0  0  0
 14  1  2  0  0  0  0
 15  3  1  0  0  0  0
 15 22  2  0  0  0  0
 16 22  1  0  0  0  0
 17  2  1  6  0  0  0
 17 23  1  0  0  0  0
 18  4  1  6  0  0  0
 18 20  1  0  0  0  0
 18 23  1  0  0  0  0
 20  9  1  1  0  0  0
 21 24  2  0  0  0  0
 23 15  1  1  0  0  0
 24 13  1  0  0  0  0
 26 25  1  0  0  0  0
 27 26  1  0  0  0  0
 29 30  1  0  0  0  0
 30 28  1  0  0  0  0
M  END
>  <MODEL>
8

>  <REMARK>
 VINA RESULT:      -5.9      2.167      5.595
  Name = 
  4 active torsions:
  status: ('A' for Active; 'I' for Inactive)
    1  A    between atoms: C_6  and  C_8
    2  A    between atoms: C_6  and  C_17
    3  A    between atoms: C_7  and  C_10
    4  A    between atoms: C_7  and  C_26
                            x       y       z     vdW  Elec       q    Type
                         _______ _______ _______ _____ _____    ______ ____

>  <TORSDO>
F 4

$$$$
=
 OpenBabel10262422003D

 30 33  0  0  1  0  0  0  0  0999 V2000
  186.8600  178.1640  137.8760 C   0  0  0  0  0  0  0  0  0  0  0  0
  184.9570  178.7840  139.3330 C   0  0  0  0  0  2  0  0  0  0  0  0
  182.7940  176.8290  135.6930 C   0  0  0  0  0  2  0  0  0  0  0  0
  186.4230  175.3020  137.5190 C   0  0  0  0  0  2  0  0  0  0  0  0
  187.5280  178.2780  136.6160 N   0  0  0  0  0  2  0  0  0  0  0  0
  188.6990  176.0460  136.9060 C   0  0  1  0  0  3  0  0  0  0  0  0
  189.2600  177.6410  135.1980 O   0  0  0  0  0  0  0  0  0  0  0  0
  184.9660  173.7900  135.4310 C   0  0  2  0  0  3  0  0  0  0  0  0
  183.0330  175.3570  135.7580 C   0  0  0  0  0  0  0  0  0  0  0  0
  188.5590  177.3710  136.2100 C   0  0  0  0  0  0  0  0  0  0  0  0
  187.5510  175.1880  136.5980 N   0  0  0  0  0  0  0  0  0  0  0  0
  183.6650  179.5350  139.3660 C   0  0  0  0  0  3  0  0  0  0  0  0
  186.1290  174.3480  134.5990 C   0  0  0  0  0  2  0  0  0  0  0  0
  187.5130  177.8380  138.9070 O   0  0  0  0  0  0  0  0  0  0  0  0
  183.2310  177.4800  136.9700 C   0  0  0  0  0  0  0  0  0  0  0  0
  182.6030  179.3630  138.5750 C   0  0  0  0  0  3  0  0  0  0  0  0
  185.3670  178.3310  137.9420 C   0  0  2  0  0  3  0  0  0  0  0  0
  185.2490  175.9520  136.8020 C   0  0  1  0  0  3  0  0  0  0  0  0
  182.1800  174.5900  135.3370 O   0  0  0  0  0  0  0  0  0  0  0  0
  184.3000  174.8220  136.3650 C   0  0  2  0  0  3  0  0  0  0  0  0
  188.4700  174.0410  134.7700 O   0  0  0  0  0  0  0  0  0  0  0  0
  182.4280  178.4450  137.4310 C   0  0  0  0  0  3  0  0  0  0  0  0
  184.5380  177.0640  137.6280 C   0  0  2  0  0  3  0  0  0  0  0  0
  187.4380  174.4880  135.3340 C   0  0  0  0  0  0  0  0  0  0  0  0
  190.0550  175.3680  136.7110 C   0  0  0  0  0  2  0  0  0  0  0  0
  190.9300  175.5330  137.9420 C   0  0  0  0  0  2  0  0  0  0  0  0
  192.1020  176.4520  137.6530 C   0  0  0  0  0  1  0  0  0  0  0  0
  185.3400  172.5040  136.1650 C   0  0  0  0  0  2  0  0  0  0  0  0
  183.3130  171.2040  136.8170 C   0  0  0  0  0  1  0  0  0  0  0  0
  184.3600  172.1980  137.2860 C   0  0  0  0  0  2  0  0  0  0  0  0
  1 17  1  0  0  0  0
  1 14  2  0  0  0  0
  2 12  1  0  0  0  0
  3  9  1  0  0  0  0
  3 15  1  0  0  0  0
  5  1  1  0  0  0  0
  6 25  1  6  0  0  0
  7 10  2  0  0  0  0
  8 28  1  1  0  0  0
  8 20  1  0  0  0  0
 10  5  1  0  0  0  0
 10  6  1  0  0  0  0
 11  6  1  0  0  0  0
 11  4  1  0  0  0  0
 13 24  1  0  0  0  0
 13  8  1  0  0  0  0
 15 22  2  0  0  0  0
 16 12  2  0  0  0  0
 17  2  1  1  0  0  0
 18  4  1  1  0  0  0
 18 23  1  0  0  0  0
 19  9  2  0  0  0  0
 20  9  1  6  0  0  0
 20 18  1  0  0  0  0
 21 24  2  0  0  0  0
 22 16  1  0  0  0  0
 23 15  1  6  0  0  0
 23 17  1  0  0  0  0
 24 11  1  0  0  0  0
 25 26  1  0  0  0  0
 27 26  1  0  0  0  0
 28 30  1  0  0  0  0
 29 30  1  0  0  0  0
M  END
>  <MODEL>
9

>  <REMARK>
 VINA RESULT:      -5.6      4.205      7.614
  Name = 
  4 active torsions:
  status: ('A' for Active; 'I' for Inactive)
    1  A    between atoms: C_6  and  C_8
    2  A    between atoms: C_6  and  C_17
    3  A    between atoms: C_7  and  C_10
    4  A    between atoms: C_7  and  C_26
                            x       y       z     vdW  Elec       q    Type
                         _______ _______ _______ _____ _____    ______ ____

>  <TORSDO>
F 4

$$$$
