=
 OpenBabel10262420283D

 55 59  0  0  1  0  0  0  0  0999 V2000
  185.1940  178.8870  143.8100 C   0  0  0  0  0  3  0  0  0  0  0  0
  182.3990  178.8990  143.6950 C   0  0  0  0  0  0  0  0  0  0  0  0
  183.1470  178.9770  142.5170 C   0  0  0  0  0  3  0  0  0  0  0  0
  184.4460  178.8140  144.9890 C   0  0  0  0  0  3  0  0  0  0  0  0
  184.5440  178.9760  142.5730 C   0  0  0  0  0  0  0  0  0  0  0  0
  183.0490  178.8210  144.9310 C   0  0  0  0  0  3  0  0  0  0  0  0
  180.9120  178.8950  143.6240 C   0  0  0  0  0  2  0  0  0  0  0  0
  180.4480  178.9790  142.1800 C   0  0  0  0  0  2  0  0  0  0  0  0
  180.0180  177.6040  141.7060 C   0  0  0  0  0  2  0  0  0  0  0  0
  179.3630  177.7150  140.3400 C   0  0  0  0  0  2  0  0  0  0  0  0
  181.6620  177.3470  139.7160 O   0  0  0  0  0  0  0  0  0  0  0  0
  180.4180  177.8170  139.2550 C   0  0  1  0  0  0  0  0  0  0  0  0
  180.9980  176.5340  138.7710 C   0  0  1  0  0  3  0  0  0  0  0  0
  180.9850  174.5450  136.5640 C   0  0  2  0  0  3  0  0  0  0  0  0
  183.9470  177.0560  138.4620 C   0  0  0  0  0  1  0  0  0  0  0  0
  181.7020  176.6350  137.4060 C   0  0  1  0  0  3  0  0  0  0  0  0
  183.7940  172.0050  137.0950 C   0  0  0  0  0  3  0  0  0  0  0  0
  183.7260  176.5240  136.1770 F   0  0  0  0  0  0  0  0  0  0  0  0
  183.1890  176.2420  137.4230 C   0  0  1  0  0  0  0  0  0  0  0  0
  179.9950  174.1640  137.4710 O   0  0  0  0  0  1  0  0  0  0  0  0
  184.8280  172.7440  137.5050 C   0  0  0  0  0  3  0  0  0  0  0  0
  184.7600  174.2440  137.4750 C   0  0  0  0  0  2  0  0  0  0  0  0
  182.3160  173.9440  136.9270 C   0  0  0  0  0  0  0  0  0  0  0  0
  183.3250  174.7450  137.7210 C   0  0  2  0  0  3  0  0  0  0  0  0
  182.5280  172.6440  136.6930 C   0  0  0  0  0  3  0  0  0  0  0  0
  180.9970  175.9550  136.3780 O   0  0  0  0  0  0  0  0  0  0  0  0
  179.7130  179.4240  137.6190 O   0  0  0  0  0  0  0  0  0  0  0  0
  180.5660  179.1000  138.4890 C   0  0  0  0  0  0  0  0  0  0  0  0
  181.6720  179.9120  138.7030 O   0  0  0  0  0  1  0  0  0  0  0  0
  185.3340  179.0120  141.3150 C   0  0  0  0  0  2  0  0  0  0  0  0
  186.7180  178.6710  141.5990 N   0  0  0  0  0  2  0  0  0  0  0  0
  187.3300  178.3130  140.3360 C   0  0  0  0  0  2  0  0  0  0  0  0
  188.8370  178.4680  140.4430 C   0  0  0  0  0  2  0  0  0  0  0  0
  189.6000  177.1760  140.0920 C   0  0  2  0  0  3  0  0  0  0  0  0
  191.5830  177.4260  141.4630 C   0  0  0  0  0  2  0  0  0  0  0  0
  190.5310  176.8850  143.5640 C   0  0  1  0  0  3  0  0  0  0  0  0
  190.4010  176.6100  141.1880 N   0  0  0  0  0  0  0  0  0  0  0  0
  189.6070  176.5740  142.4130 C   0  0  0  0  0  2  0  0  0  0  0  0
  191.7500  177.5390  142.9610 C   0  0  0  0  0  2  0  0  0  0  0  0
  189.8710  177.7580  144.6330 C   0  0  0  0  0  2  0  0  0  0  0  0
  187.8940  177.8980  146.1530 C   0  0  0  0  0  1  0  0  0  0  0  0
  188.9590  176.9830  145.5780 C   0  0  0  0  0  2  0  0  0  0  0  0
  190.3760  177.3360  138.9360 O   0  0  0  0  0  0  0  0  0  0  0  0
  189.6910  176.6490  137.9260 C   0  0  1  0  0  3  0  0  0  0  0  0
  189.5440  177.5170  136.6790 C   0  0  0  0  0  2  0  0  0  0  0  0
  187.2780  178.5620  136.6070 C   0  0  0  0  0  1  0  0  0  0  0  0
  188.7430  178.7870  136.9360 C   0  0  0  0  0  2  0  0  0  0  0  0
  190.3130  175.2860  137.5960 C   0  0  0  0  0  2  0  0  0  0  0  0
  191.7470  175.3380  137.1570 C   0  0  0  0  0  3  0  0  0  0  0  0
  192.7080  174.7680  137.8810 C   0  0  0  0  0  3  0  0  0  0  0  0
  194.7620  173.5890  136.5830 O   0  0  0  0  0  0  0  0  0  0  0  0
  195.4180  174.9880  138.6950 O   0  0  0  0  0  1  0  0  0  0  0  0
  194.4110  174.8490  137.3430 P   0  0  2  0  0  0  0  0  0  0  0  0
  195.9400  176.2360  135.9230 O   0  0  0  0  0  1  0  0  0  0  0  0
  194.6390  176.2390  136.3010 N   0  0  0  0  0  2  0  0  0  0  0  0
  1  4  1  0  0  0  0
  2  6  1  0  0  0  0
  3  5  1  0  0  0  0
  3  2  2  0  0  0  0
  5  1  2  0  0  0  0
  6  4  2  0  0  0  0
  7  2  1  0  0  0  0
  8  7  1  0  0  0  0
  9  8  1  0  0  0  0
 10  9  1  0  0  0  0
 12 11  1  0  0  0  0
 12 10  1  1  0  0  0
 13 12  1  0  0  0  0
 13 11  1  1  0  0  0
 14 23  1  0  0  0  0
 14 20  1  1  0  0  0
 16 26  1  6  0  0  0
 16 19  1  0  0  0  0
 16 13  1  0  0  0  0
 17 21  2  0  0  0  0
 18 19  1  0  0  0  0
 19 24  1  0  0  0  0
 19 15  1  1  0  0  0
 22 21  1  0  0  0  0
 23 24  1  0  0  0  0
 24 22  1  6  0  0  0
 25 23  2  0  0  0  0
 25 17  1  0  0  0  0
 26 14  1  0  0  0  0
 27 28  2  0  0  0  0
 28 29  1  0  0  0  0
 28 12  1  0  0  0  0
 30 31  1  0  0  0  0
 30  5  1  0  0  0  0
 32 33  1  0  0  0  0
 32 31  1  0  0  0  0
 34 33  1  1  0  0  0
 34 37  1  0  0  0  0
 35 39  1  0  0  0  0
 36 40  1  1  0  0  0
 37 35  1  0  0  0  0
 37 38  1  0  0  0  0
 38 36  1  0  0  0  0
 39 36  1  0  0  0  0
 40 42  1  0  0  0  0
 42 41  1  0  0  0  0
 43 34  1  0  0  0  0
 44 45  1  6  0  0  0
 44 43  1  0  0  0  0
 45 47  1  0  0  0  0
 46 47  1  0  0  0  0
 48 44  1  0  0  0  0
 49 48  1  0  0  0  0
 49 50  2  0  0  0  0
 53 51  2  6  0  0  0
 53 50  1  0  0  0  0
 53 52  1  0  0  0  0
 54 55  1  0  0  0  0
 55 53  1  0  0  0  0
M  END
>  <MODEL>
1

>  <REMARK>
 VINA RESULT:      -7.4      0.000      0.000
  Name = 
  23 active torsions:
  status: ('A' for Active; 'I' for Inactive)
    1  A    between atoms: C_2  and  N_28
    2  A    between atoms: C_2  and  C_44
    3  A    between atoms: C_6  and  C_46
    4  A    between atoms: C_10  and  C_32
    5  A    between atoms: C_10  and  C_47
    6  A    between atoms: C_15  and  C_23
    7  A    between atoms: C_16  and  C_17
    8  A    between atoms: C_16  and  C_26
    9  A    between atoms: C_17  and  C_23
   10  A    between atoms: C_17  and  O_36
   11  A    between atoms: N_19  and  P_40
   12  A    between atoms: C_20  and  C_22
   13  A    between atoms: C_22  and  C_35
   14  A    between atoms: C_27  and  C_54
   15  A    between atoms: N_28  and  C_49
   16  A    between atoms: C_33  and  C_49
   17  A    between atoms: C_33  and  C_52
   18  A    between atoms: N_34  and  C_52
   19  A    between atoms: C_35  and  C_43
   20  A    between atoms: O_36  and  C_52
   21  A    between atoms: P_40  and  C_45
   22  A    between atoms: C_43  and  C_51
   23  A    between atoms: C_51  and  C_54
                            x       y       z     vdW  Elec       q    Type
                         _______ _______ _______ _____ _____    ______ ____

>  <TORSDO>
F 23

$$$$
=
 OpenBabel10262420283D

 55 59  0  0  1  0  0  0  0  0999 V2000
  185.1480  178.7550  143.5660 C   0  0  0  0  0  3  0  0  0  0  0  0
  182.3610  178.9920  143.5530 C   0  0  0  0  0  0  0  0  0  0  0  0
  183.0600  178.8900  142.3470 C   0  0  0  0  0  3  0  0  0  0  0  0
  184.4510  178.8630  144.7730 C   0  0  0  0  0  3  0  0  0  0  0  0
  184.4530  178.7760  142.3520 C   0  0  0  0  0  0  0  0  0  0  0  0
  183.0580  178.9830  144.7660 C   0  0  0  0  0  3  0  0  0  0  0  0
  180.8770  179.1070  143.5370 C   0  0  0  0  0  2  0  0  0  0  0  0
  180.3550  179.0580  142.1120 C   0  0  0  0  0  2  0  0  0  0  0  0
  179.8100  177.6720  141.8200 C   0  0  0  0  0  2  0  0  0  0  0  0
  178.9340  177.7170  140.5790 C   0  0  0  0  0  2  0  0  0  0  0  0
  178.9930  177.7070  138.1690 O   0  0  0  0  0  0  0  0  0  0  0  0
  179.7910  177.7090  139.3280 C   0  0  1  0  0  0  0  0  0  0  0  0
  179.6900  178.9040  138.4450 C   0  0  1  0  0  3  0  0  0  0  0  0
  181.4900  181.2460  138.1310 C   0  0  2  0  0  3  0  0  0  0  0  0
  179.4230  178.5400  135.4690 C   0  0  0  0  0  1  0  0  0  0  0  0
  180.8640  179.0650  137.4640 C   0  0  1  0  0  3  0  0  0  0  0  0
  179.9460  183.7440  135.6810 C   0  0  0  0  0  3  0  0  0  0  0  0
  181.5830  179.4550  135.2390 F   0  0  0  0  0  0  0  0  0  0  0  0
  180.4560  179.4970  136.0450 C   0  0  1  0  0  0  0  0  0  0  0  0
  180.7730  181.4300  139.3140 O   0  0  0  0  0  1  0  0  0  0  0  0
  179.4450  182.9790  134.7080 C   0  0  0  0  0  3  0  0  0  0  0  0
  179.7340  181.5060  134.6640 C   0  0  0  0  0  2  0  0  0  0  0  0
  180.7500  181.8180  136.9520 C   0  0  0  0  0  0  0  0  0  0  0  0
  179.8950  180.9230  136.0800 C   0  0  2  0  0  3  0  0  0  0  0  0
  180.7160  183.1440  136.7860 C   0  0  0  0  0  3  0  0  0  0  0  0
  181.8970  179.8910  137.9820 O   0  0  0  0  0  0  0  0  0  0  0  0
  180.8420  175.7490  138.4260 O   0  0  0  0  0  0  0  0  0  0  0  0
  180.9230  176.7280  139.2160 C   0  0  0  0  0  0  0  0  0  0  0  0
  182.0450  176.8700  140.0220 O   0  0  0  0  0  1  0  0  0  0  0  0
  185.1860  178.6200  141.0680 C   0  0  0  0  0  2  0  0  0  0  0  0
  186.4980  179.2360  141.1790 N   0  0  0  0  0  2  0  0  0  0  0  0
  187.4190  178.1920  141.5780 C   0  0  0  0  0  2  0  0  0  0  0  0
  188.7430  178.3850  140.8580 C   0  0  0  0  0  2  0  0  0  0  0  0
  189.3420  177.0640  140.3390 C   0  0  2  0  0  3  0  0  0  0  0  0
  191.4310  177.4320  141.5120 C   0  0  0  0  0  2  0  0  0  0  0  0
  190.7960  176.3170  143.5540 C   0  0  1  0  0  3  0  0  0  0  0  0
  190.3750  176.4690  141.2000 N   0  0  0  0  0  0  0  0  0  0  0  0
  189.7820  176.0540  142.4680 C   0  0  0  0  0  2  0  0  0  0  0  0
  191.7900  177.2940  142.9740 C   0  0  0  0  0  2  0  0  0  0  0  0
  190.1590  176.8330  144.8460 C   0  0  0  0  0  2  0  0  0  0  0  0
  188.1660  177.8910  145.9140 C   0  0  0  0  0  1  0  0  0  0  0  0
  188.6590  177.0790  144.7320 C   0  0  0  0  0  2  0  0  0  0  0  0
  189.8030  177.1920  139.0220 O   0  0  0  0  0  0  0  0  0  0  0  0
  189.1570  176.1820  138.2980 C   0  0  1  0  0  3  0  0  0  0  0  0
  188.1690  176.7760  137.2970 C   0  0  0  0  0  2  0  0  0  0  0  0
  186.0290  178.0480  137.4810 C   0  0  0  0  0  1  0  0  0  0  0  0
  187.5130  178.0550  137.8020 C   0  0  0  0  0  2  0  0  0  0  0  0
  190.1290  175.2060  137.6230 C   0  0  0  0  0  2  0  0  0  0  0  0
  191.5750  175.4300  137.9520 C   0  0  0  0  0  3  0  0  0  0  0  0
  192.5370  174.7720  137.3070 C   0  0  0  0  0  3  0  0  0  0  0  0
  194.3420  175.9270  138.9500 O   0  0  0  0  0  1  0  0  0  0  0  0
  195.0250  175.8140  136.4270 O   0  0  0  0  0  0  0  0  0  0  0  0
  194.2540  175.0480  137.7220 P   0  0  2  0  0  0  0  0  0  0  0  0
  195.7110  173.6600  139.2150 O   0  0  0  0  0  1  0  0  0  0  0  0
  195.0400  173.5160  138.0460 N   0  0  0  0  0  2  0  0  0  0  0  0
  1  4  1  0  0  0  0
  2  6  1  0  0  0  0
  3  5  1  0  0  0  0
  3  2  2  0  0  0  0
  5  1  2  0  0  0  0
  6  4  2  0  0  0  0
  7  2  1  0  0  0  0
  8  7  1  0  0  0  0
  9  8  1  0  0  0  0
 10  9  1  0  0  0  0
 11 12  1  0  0  0  0
 12 10  1  1  0  0  0
 13 11  1  6  0  0  0
 13 12  1  0  0  0  0
 14 20  1  1  0  0  0
 16 26  1  1  0  0  0
 16 13  1  0  0  0  0
 17 25  1  0  0  0  0
 18 19  1  0  0  0  0
 19 15  1  6  0  0  0
 19 24  1  0  0  0  0
 19 16  1  0  0  0  0
 21 17  2  0  0  0  0
 22 21  1  0  0  0  0
 23 14  1  0  0  0  0
 24 22  1  6  0  0  0
 24 23  1  0  0  0  0
 25 23  2  0  0  0  0
 26 14  1  0  0  0  0
 27 28  2  0  0  0  0
 28 12  1  0  0  0  0
 28 29  1  0  0  0  0
 30 31  1  0  0  0  0
 30  5  1  0  0  0  0
 31 32  1  0  0  0  0
 33 32  1  0  0  0  0
 34 33  1  1  0  0  0
 34 37  1  0  0  0  0
 35 39  1  0  0  0  0
 36 40  1  1  0  0  0
 37 35  1  0  0  0  0
 37 38  1  0  0  0  0
 38 36  1  0  0  0  0
 39 36  1  0  0  0  0
 42 40  1  0  0  0  0
 42 41  1  0  0  0  0
 43 34  1  0  0  0  0
 44 45  1  6  0  0  0
 44 43  1  0  0  0  0
 45 47  1  0  0  0  0
 46 47  1  0  0  0  0
 48 49  1  0  0  0  0
 48 44  1  0  0  0  0
 50 53  1  0  0  0  0
 50 49  2  0  0  0  0
 53 52  2  6  0  0  0
 53 55  1  0  0  0  0
 53 51  1  0  0  0  0
 55 54  1  0  0  0  0
M  END
>  <MODEL>
2

>  <REMARK>
 VINA RESULT:      -7.1      2.023      4.091
  Name = 
  23 active torsions:
  status: ('A' for Active; 'I' for Inactive)
    1  A    between atoms: C_2  and  N_28
    2  A    between atoms: C_2  and  C_44
    3  A    between atoms: C_6  and  C_46
    4  A    between atoms: C_10  and  C_32
    5  A    between atoms: C_10  and  C_47
    6  A    between atoms: C_15  and  C_23
    7  A    between atoms: C_16  and  C_17
    8  A    between atoms: C_16  and  C_26
    9  A    between atoms: C_17  and  C_23
   10  A    between atoms: C_17  and  O_36
   11  A    between atoms: N_19  and  P_40
   12  A    between atoms: C_20  and  C_22
   13  A    between atoms: C_22  and  C_35
   14  A    between atoms: C_27  and  C_54
   15  A    between atoms: N_28  and  C_49
   16  A    between atoms: C_33  and  C_49
   17  A    between atoms: C_33  and  C_52
   18  A    between atoms: N_34  and  C_52
   19  A    between atoms: C_35  and  C_43
   20  A    between atoms: O_36  and  C_52
   21  A    between atoms: P_40  and  C_45
   22  A    between atoms: C_43  and  C_51
   23  A    between atoms: C_51  and  C_54
                            x       y       z     vdW  Elec       q    Type
                         _______ _______ _______ _____ _____    ______ ____

>  <TORSDO>
F 23

$$$$
=
 OpenBabel10262420283D

 55 59  0  0  1  0  0  0  0  0999 V2000
  187.9420  176.6130  134.6280 C   0  0  0  0  0  3  0  0  0  0  0  0
  185.2620  176.9680  135.3460 C   0  0  0  0  0  0  0  0  0  0  0  0
  185.8300  175.6910  135.3740 C   0  0  0  0  0  3  0  0  0  0  0  0
  187.3740  177.8890  134.5940 C   0  0  0  0  0  3  0  0  0  0  0  0
  187.1680  175.5120  135.0120 C   0  0  0  0  0  0  0  0  0  0  0  0
  186.0340  178.0670  134.9510 C   0  0  0  0  0  3  0  0  0  0  0  0
  183.8380  177.1500  135.7400 C   0  0  0  0  0  2  0  0  0  0  0  0
  183.5310  176.3640  137.0020 C   0  0  0  0  0  2  0  0  0  0  0  0
  182.7650  177.2430  137.9720 C   0  0  0  0  0  2  0  0  0  0  0  0
  183.1740  176.9100  139.3970 C   0  0  0  0  0  2  0  0  0  0  0  0
  182.4300  178.1350  141.3360 O   0  0  0  0  0  0  0  0  0  0  0  0
  183.2900  178.1770  140.2230 C   0  0  1  0  0  0  0  0  0  0  0  0
  183.8110  178.0210  141.6090 C   0  0  1  0  0  3  0  0  0  0  0  0
  186.5710  178.6280  142.5230 C   0  0  2  0  0  3  0  0  0  0  0  0
  182.5820  179.2870  144.0480 C   0  0  0  0  0  1  0  0  0  0  0  0
  184.3300  179.3260  142.2380 C   0  0  1  0  0  3  0  0  0  0  0  0
  187.0220  177.4670  146.1380 C   0  0  0  0  0  3  0  0  0  0  0  0
  184.4420  180.7300  144.1450 F   0  0  0  0  0  0  0  0  0  0  0  0
  184.0630  179.4570  143.7480 C   0  0  1  0  0  0  0  0  0  0  0  0
  186.6330  177.4550  141.7700 O   0  0  0  0  0  1  0  0  0  0  0  0
  185.8810  177.8180  146.7380 C   0  0  0  0  0  3  0  0  0  0  0  0
  184.8720  178.6730  146.0270 C   0  0  0  0  0  2  0  0  0  0  0  0
  186.2940  178.3320  143.9720 C   0  0  0  0  0  0  0  0  0  0  0  0
  184.8820  178.4100  144.5100 C   0  0  2  0  0  3  0  0  0  0  0  0
  187.2740  177.8330  144.7330 C   0  0  0  0  0  3  0  0  0  0  0  0
  185.6930  179.5760  141.9280 O   0  0  0  0  0  0  0  0  0  0  0  0
  182.1400  180.1300  139.4340 O   0  0  0  0  0  1  0  0  0  0  0  0
  183.2340  179.5120  139.5360 C   0  0  0  0  0  0  0  0  0  0  0  0
  184.3820  180.0470  138.9680 O   0  0  0  0  0  0  0  0  0  0  0  0
  187.7800  174.1590  135.0890 C   0  0  0  0  0  2  0  0  0  0  0  0
  189.2270  174.2740  135.0090 N   0  0  0  0  0  2  0  0  0  0  0  0
  189.7650  172.9490  135.2360 C   0  0  0  0  0  2  0  0  0  0  0  0
  190.5740  172.9460  136.5210 C   0  0  0  0  0  2  0  0  0  0  0  0
  191.3650  174.2510  136.7360 C   0  0  2  0  0  3  0  0  0  0  0  0
  193.2360  175.5260  135.8700 C   0  0  0  0  0  2  0  0  0  0  0  0
  194.9140  174.5550  137.3040 C   0  0  1  0  0  3  0  0  0  0  0  0
  192.7680  174.2080  136.2970 N   0  0  0  0  0  0  0  0  0  0  0  0
  193.6190  173.7860  137.4050 C   0  0  0  0  0  2  0  0  0  0  0  0
  194.6320  175.7380  136.4100 C   0  0  0  0  0  2  0  0  0  0  0  0
  195.4600  174.9760  138.6700 C   0  0  0  0  0  2  0  0  0  0  0  0
  197.8890  174.9440  139.2470 C   0  0  0  0  0  1  0  0  0  0  0  0
  196.6220  174.1160  139.1550 C   0  0  0  0  0  2  0  0  0  0  0  0
  191.2700  174.6970  138.0610 O   0  0  0  0  0  0  0  0  0  0  0  0
  190.8360  176.0260  137.9790 C   0  0  1  0  0  3  0  0  0  0  0  0
  189.3150  176.1100  138.0880 C   0  0  0  0  0  2  0  0  0  0  0  0
  187.5080  177.7830  138.4970 C   0  0  0  0  0  1  0  0  0  0  0  0
  188.7710  177.4820  137.7100 C   0  0  0  0  0  2  0  0  0  0  0  0
  191.5260  176.9500  138.9910 C   0  0  0  0  0  2  0  0  0  0  0  0
  190.8630  177.0210  140.3340 C   0  0  0  0  0  3  0  0  0  0  0  0
  191.5310  176.7270  141.4480 C   0  0  0  0  0  3  0  0  0  0  0  0
  189.3590  176.1510  142.9450 O   0  0  0  0  0  0  0  0  0  0  0  0
  190.5260  178.4310  143.4820 O   0  0  0  0  0  1  0  0  0  0  0  0
  190.7170  176.8100  143.0370 P   0  0  2  0  0  0  0  0  0  0  0  0
  191.6870  176.7700  145.3470 O   0  0  0  0  0  1  0  0  0  0  0  0
  191.6830  175.9840  144.2430 N   0  0  0  0  0  2  0  0  0  0  0  0
  1  5  1  0  0  0  0
  2  3  1  0  0  0  0
  2  7  1  0  0  0  0
  4  1  2  0  0  0  0
  4  6  1  0  0  0  0
  5 30  1  0  0  0  0
  5  3  2  0  0  0  0
  6  2  2  0  0  0  0
  7  8  1  0  0  0  0
  8  9  1  0  0  0  0
  9 10  1  0  0  0  0
 12 10  1  6  0  0  0
 12 11  1  0  0  0  0
 12 13  1  0  0  0  0
 13 11  1  1  0  0  0
 13 16  1  0  0  0  0
 14 20  1  6  0  0  0
 14 23  1  0  0  0  0
 16 26  1  1  0  0  0
 16 19  1  0  0  0  0
 17 21  2  0  0  0  0
 19 15  1  1  0  0  0
 19 18  1  0  0  0  0
 19 24  1  0  0  0  0
 22 21  1  0  0  0  0
 23 24  1  0  0  0  0
 23 25  2  0  0  0  0
 24 22  1  1  0  0  0
 25 17  1  0  0  0  0
 26 14  1  0  0  0  0
 27 28  1  0  0  0  0
 28 12  1  0  0  0  0
 29 28  2  0  0  0  0
 31 30  1  0  0  0  0
 31 32  1  0  0  0  0
 32 33  1  0  0  0  0
 34 33  1  1  0  0  0
 34 43  1  0  0  0  0
 35 37  1  0  0  0  0
 35 39  1  0  0  0  0
 36 38  1  0  0  0  0
 36 40  1  1  0  0  0
 37 34  1  0  0  0  0
 37 38  1  0  0  0  0
 39 36  1  0  0  0  0
 40 42  1  0  0  0  0
 42 41  1  0  0  0  0
 44 43  1  0  0  0  0
 44 45  1  1  0  0  0
 44 48  1  0  0  0  0
 47 45  1  0  0  0  0
 47 46  1  0  0  0  0
 48 49  1  0  0  0  0
 49 50  2  0  0  0  0
 50 53  1  0  0  0  0
 53 51  2  6  0  0  0
 53 52  1  0  0  0  0
 53 55  1  0  0  0  0
 55 54  1  0  0  0  0
M  END
>  <MODEL>
3

>  <REMARK>
 VINA RESULT:      -6.4      3.133      7.449
  Name = 
  23 active torsions:
  status: ('A' for Active; 'I' for Inactive)
    1  A    between atoms: C_2  and  N_28
    2  A    between atoms: C_2  and  C_44
    3  A    between atoms: C_6  and  C_46
    4  A    between atoms: C_10  and  C_32
    5  A    between atoms: C_10  and  C_47
    6  A    between atoms: C_15  and  C_23
    7  A    between atoms: C_16  and  C_17
    8  A    between atoms: C_16  and  C_26
    9  A    between atoms: C_17  and  C_23
   10  A    between atoms: C_17  and  O_36
   11  A    between atoms: N_19  and  P_40
   12  A    between atoms: C_20  and  C_22
   13  A    between atoms: C_22  and  C_35
   14  A    between atoms: C_27  and  C_54
   15  A    between atoms: N_28  and  C_49
   16  A    between atoms: C_33  and  C_49
   17  A    between atoms: C_33  and  C_52
   18  A    between atoms: N_34  and  C_52
   19  A    between atoms: C_35  and  C_43
   20  A    between atoms: O_36  and  C_52
   21  A    between atoms: P_40  and  C_45
   22  A    between atoms: C_43  and  C_51
   23  A    between atoms: C_51  and  C_54
                            x       y       z     vdW  Elec       q    Type
                         _______ _______ _______ _____ _____    ______ ____

>  <TORSDO>
F 23

$$$$
=
 OpenBabel10262420283D

 55 59  0  0  1  0  0  0  0  0999 V2000
  189.0840  177.3730  144.7740 C   0  0  0  0  0  3  0  0  0  0  0  0
  186.4500  177.9200  144.0080 C   0  0  0  0  0  0  0  0  0  0  0  0
  187.4490  177.8010  143.0390 C   0  0  0  0  0  3  0  0  0  0  0  0
  188.0860  177.4970  145.7450 C   0  0  0  0  0  3  0  0  0  0  0  0
  188.7670  177.5320  143.4200 C   0  0  0  0  0  0  0  0  0  0  0  0
  186.7700  177.7720  145.3630 C   0  0  0  0  0  3  0  0  0  0  0  0
  185.0480  178.2010  143.5910 C   0  0  0  0  0  2  0  0  0  0  0  0
  184.3260  179.0040  144.6580 C   0  0  0  0  0  2  0  0  0  0  0  0
  182.9160  179.3120  144.1930 C   0  0  0  0  0  2  0  0  0  0  0  0
  182.4200  178.1960  143.2890 C   0  0  0  0  0  2  0  0  0  0  0  0
  182.2220  179.5770  141.3220 O   0  0  0  0  0  0  0  0  0  0  0  0
  181.5080  178.7550  142.2140 C   0  0  1  0  0  0  0  0  0  0  0  0
  181.7930  178.3310  140.8150 C   0  0  1  0  0  3  0  0  0  0  0  0
  180.4440  176.2890  139.1310 C   0  0  2  0  0  3  0  0  0  0  0  0
  181.8310  180.3440  138.5770 C   0  0  0  0  0  1  0  0  0  0  0  0
  180.6190  178.5380  139.8410 C   0  0  1  0  0  3  0  0  0  0  0  0
  182.2940  175.9290  135.8030 C   0  0  0  0  0  3  0  0  0  0  0  0
  179.8700  179.3410  137.7400 F   0  0  0  0  0  0  0  0  0  0  0  0
  181.0260  179.0600  138.4520 C   0  0  1  0  0  0  0  0  0  0  0  0
  181.2430  175.6070  140.0490 O   0  0  0  0  0  1  0  0  0  0  0  0
  182.5930  177.1840  135.4590 C   0  0  0  0  0  3  0  0  0  0  0  0
  182.0340  178.3450  136.2300 C   0  0  0  0  0  2  0  0  0  0  0  0
  181.2150  176.6240  137.8830 C   0  0  0  0  0  0  0  0  0  0  0  0
  181.8420  177.9910  137.7170 C   0  0  2  0  0  3  0  0  0  0  0  0
  181.4850  175.6530  137.0040 C   0  0  0  0  0  3  0  0  0  0  0  0
  179.7860  177.3920  139.7420 O   0  0  0  0  0  0  0  0  0  0  0  0
  180.0490  180.6280  142.5550 O   0  0  0  0  0  0  0  0  0  0  0  0
  180.2000  179.3780  142.6080 C   0  0  0  0  0  0  0  0  0  0  0  0
  179.1660  178.5800  143.0800 O   0  0  0  0  0  1  0  0  0  0  0  0
  189.8160  177.3600  142.3820 C   0  0  0  0  0  2  0  0  0  0  0  0
  189.2150  177.4490  141.0620 N   0  0  0  0  0  2  0  0  0  0  0  0
  190.2290  177.0440  140.1110 C   0  0  0  0  0  2  0  0  0  0  0  0
  189.5620  176.4300  138.8930 C   0  0  0  0  0  2  0  0  0  0  0  0
  190.5360  176.2240  137.7150 C   0  0  2  0  0  3  0  0  0  0  0  0
  188.8330  175.0700  136.4330 C   0  0  0  0  0  2  0  0  0  0  0  0
  188.0040  177.0140  135.2710 C   0  0  1  0  0  3  0  0  0  0  0  0
  189.8970  176.0730  136.3990 N   0  0  0  0  0  0  0  0  0  0  0  0
  189.2850  177.3370  136.0000 C   0  0  0  0  0  2  0  0  0  0  0  0
  187.6540  175.5940  135.6440 C   0  0  0  0  0  2  0  0  0  0  0  0
  186.8760  177.9960  135.5940 C   0  0  0  0  0  2  0  0  0  0  0  0
  185.5680  177.8870  137.7180 C   0  0  0  0  0  1  0  0  0  0  0  0
  186.8290  178.4120  137.0600 C   0  0  0  0  0  2  0  0  0  0  0  0
  191.4240  175.1680  137.9630 O   0  0  0  0  0  0  0  0  0  0  0  0
  192.1270  174.9820  136.7660 C   0  0  1  0  0  3  0  0  0  0  0  0
  193.4180  175.7980  136.7590 C   0  0  0  0  0  2  0  0  0  0  0  0
  194.9150  177.1160  135.2590 C   0  0  0  0  0  1  0  0  0  0  0  0
  194.0690  175.8620  135.3840 C   0  0  0  0  0  2  0  0  0  0  0  0
  192.3910  173.5050  136.4450 C   0  0  0  0  0  2  0  0  0  0  0  0
  193.6220  172.9320  137.0810 C   0  0  0  0  0  3  0  0  0  0  0  0
  194.2980  171.9420  136.5020 C   0  0  0  0  0  3  0  0  0  0  0  0
  196.5160  170.4160  136.2890 O   0  0  0  0  0  0  0  0  0  0  0  0
  195.2980  170.3180  138.6040 O   0  0  0  0  0  1  0  0  0  0  0  0
  195.7590  171.2690  137.2830 P   0  0  2  0  0  0  0  0  0  0  0  0
  197.9960  172.3960  137.2430 O   0  0  0  0  0  1  0  0  0  0  0  0
  196.7910  172.5720  137.8350 N   0  0  0  0  0  2  0  0  0  0  0  0
  1  4  1  0  0  0  0
  2  6  1  0  0  0  0
  3  5  1  0  0  0  0
  3  2  2  0  0  0  0
  5  1  2  0  0  0  0
  6  4  2  0  0  0  0
  7  2  1  0  0  0  0
  7  8  1  0  0  0  0
  9  8  1  0  0  0  0
 10  9  1  0  0  0  0
 11 12  1  0  0  0  0
 12 28  1  0  0  0  0
 12 10  1  1  0  0  0
 13 11  1  6  0  0  0
 13 12  1  0  0  0  0
 14 26  1  0  0  0  0
 14 20  1  1  0  0  0
 16 26  1  6  0  0  0
 16 13  1  0  0  0  0
 17 25  1  0  0  0  0
 18 19  1  0  0  0  0
 19 15  1  1  0  0  0
 19 16  1  0  0  0  0
 21 17  2  0  0  0  0
 21 22  1  0  0  0  0
 23 14  1  0  0  0  0
 24 22  1  6  0  0  0
 24 23  1  0  0  0  0
 24 19  1  0  0  0  0
 25 23  2  0  0  0  0
 27 28  2  0  0  0  0
 28 29  1  0  0  0  0
 30  5  1  0  0  0  0
 31 30  1  0  0  0  0
 32 31  1  0  0  0  0
 33 32  1  0  0  0  0
 34 43  1  0  0  0  0
 34 33  1  1  0  0  0
 36 40  1  1  0  0  0
 36 39  1  0  0  0  0
 36 38  1  0  0  0  0
 37 35  1  0  0  0  0
 37 34  1  0  0  0  0
 38 37  1  0  0  0  0
 39 35  1  0  0  0  0
 40 42  1  0  0  0  0
 42 41  1  0  0  0  0
 44 48  1  1  0  0  0
 44 43  1  0  0  0  0
 45 44  1  0  0  0  0
 46 47  1  0  0  0  0
 47 45  1  0  0  0  0
 48 49  1  0  0  0  0
 50 49  2  0  0  0  0
 50 53  1  0  0  0  0
 53 51  2  6  0  0  0
 53 55  1  0  0  0  0
 53 52  1  0  0  0  0
 54 55  1  0  0  0  0
M  END
>  <MODEL>
4

>  <REMARK>
 VINA RESULT:      -6.2      2.347      4.860
  Name = 
  23 active torsions:
  status: ('A' for Active; 'I' for Inactive)
    1  A    between atoms: C_2  and  N_28
    2  A    between atoms: C_2  and  C_44
    3  A    between atoms: C_6  and  C_46
    4  A    between atoms: C_10  and  C_32
    5  A    between atoms: C_10  and  C_47
    6  A    between atoms: C_15  and  C_23
    7  A    between atoms: C_16  and  C_17
    8  A    between atoms: C_16  and  C_26
    9  A    between atoms: C_17  and  C_23
   10  A    between atoms: C_17  and  O_36
   11  A    between atoms: N_19  and  P_40
   12  A    between atoms: C_20  and  C_22
   13  A    between atoms: C_22  and  C_35
   14  A    between atoms: C_27  and  C_54
   15  A    between atoms: N_28  and  C_49
   16  A    between atoms: C_33  and  C_49
   17  A    between atoms: C_33  and  C_52
   18  A    between atoms: N_34  and  C_52
   19  A    between atoms: C_35  and  C_43
   20  A    between atoms: O_36  and  C_52
   21  A    between atoms: P_40  and  C_45
   22  A    between atoms: C_43  and  C_51
   23  A    between atoms: C_51  and  C_54
                            x       y       z     vdW  Elec       q    Type
                         _______ _______ _______ _____ _____    ______ ____

>  <TORSDO>
F 23

$$$$
=
 OpenBabel10262420283D

 55 59  0  0  1  0  0  0  0  0999 V2000
  189.2390  174.4050  136.9320 C   0  0  0  0  0  3  0  0  0  0  0  0
  186.6680  174.8520  135.9240 C   0  0  0  0  0  0  0  0  0  0  0  0
  187.5540  175.9220  136.0790 C   0  0  0  0  0  3  0  0  0  0  0  0
  188.3520  173.3350  136.7830 C   0  0  0  0  0  3  0  0  0  0  0  0
  188.8380  175.7010  136.5870 C   0  0  0  0  0  0  0  0  0  0  0  0
  187.0670  173.5590  136.2810 C   0  0  0  0  0  3  0  0  0  0  0  0
  185.3050  175.0970  135.3770 C   0  0  0  0  0  2  0  0  0  0  0  0
  184.6960  176.3380  136.0040 C   0  0  0  0  0  2  0  0  0  0  0  0
  183.9610  175.9540  137.2750 C   0  0  0  0  0  2  0  0  0  0  0  0
  182.5400  175.5340  136.9370 C   0  0  0  0  0  2  0  0  0  0  0  0
  182.1950  177.4000  138.4250 O   0  0  0  0  0  0  0  0  0  0  0  0
  181.5440  176.3800  137.7080 C   0  0  1  0  0  0  0  0  0  0  0  0
  181.4370  177.8100  137.3070 C   0  0  1  0  0  3  0  0  0  0  0  0
  179.3010  179.0070  135.6250 C   0  0  2  0  0  3  0  0  0  0  0  0
  181.4000  180.1220  139.2350 C   0  0  0  0  0  1  0  0  0  0  0  0
  180.1440  178.5010  137.7760 C   0  0  1  0  0  3  0  0  0  0  0  0
  180.1790  182.6390  134.8110 C   0  0  0  0  0  3  0  0  0  0  0  0
  179.1220  180.4230  138.7140 F   0  0  0  0  0  0  0  0  0  0  0  0
  180.3180  179.9770  138.1750 C   0  0  1  0  0  0  0  0  0  0  0  0
  180.1190  178.2540  134.7820 O   0  0  0  0  0  1  0  0  0  0  0  0
  180.6650  183.1220  135.9570 C   0  0  0  0  0  3  0  0  0  0  0  0
  180.5830  182.3200  137.2240 C   0  0  0  0  0  2  0  0  0  0  0  0
  179.8100  180.4170  135.7590 C   0  0  0  0  0  0  0  0  0  0  0  0
  180.6730  180.8090  136.9380 C   0  0  2  0  0  3  0  0  0  0  0  0
  179.6370  181.2700  134.7440 C   0  0  0  0  0  3  0  0  0  0  0  0
  179.0740  178.3340  136.8570 O   0  0  0  0  0  0  0  0  0  0  0  0
  180.5200  175.8040  139.8000 O   0  0  0  0  0  1  0  0  0  0  0  0
  180.4950  175.7040  138.5440 C   0  0  0  0  0  0  0  0  0  0  0  0
  179.5190  174.9250  137.9350 O   0  0  0  0  0  0  0  0  0  0  0  0
  189.7910  176.8350  136.7050 C   0  0  0  0  0  2  0  0  0  0  0  0
  189.1080  177.9880  137.2680 N   0  0  0  0  0  2  0  0  0  0  0  0
  189.5220  178.0850  138.6520 C   0  0  0  0  0  2  0  0  0  0  0  0
  188.6210  177.2130  139.5100 C   0  0  0  0  0  2  0  0  0  0  0  0
  188.1910  177.9010  140.8200 C   0  0  2  0  0  3  0  0  0  0  0  0
  186.2200  178.5220  139.5530 C   0  0  0  0  0  2  0  0  0  0  0  0
  184.8190  179.0120  141.4540 C   0  0  1  0  0  3  0  0  0  0  0  0
  187.0830  178.8590  140.6860 N   0  0  0  0  0  0  0  0  0  0  0  0
  186.2520  178.8240  141.8860 C   0  0  0  0  0  2  0  0  0  0  0  0
  184.7800  178.7030  139.9770 C   0  0  0  0  0  2  0  0  0  0  0  0
  183.8410  178.1480  142.2540 C   0  0  0  0  0  2  0  0  0  0  0  0
  183.5400  179.5560  144.2940 C   0  0  0  0  0  1  0  0  0  0  0  0
  182.8500  178.9570  143.0840 C   0  0  0  0  0  2  0  0  0  0  0  0
  189.2830  178.4900  141.4730 O   0  0  0  0  0  0  0  0  0  0  0  0
  189.6280  177.6030  142.5010 C   0  0  1  0  0  3  0  0  0  0  0  0
  190.7430  176.6600  142.0550 C   0  0  0  0  0  2  0  0  0  0  0  0
  192.4600  177.3320  140.3720 C   0  0  0  0  0  1  0  0  0  0  0  0
  192.0700  177.3760  141.8390 C   0  0  0  0  0  2  0  0  0  0  0  0
  189.9780  178.3100  143.8160 C   0  0  0  0  0  2  0  0  0  0  0  0
  188.9630  178.1460  144.9090 C   0  0  0  0  0  3  0  0  0  0  0  0
  189.3250  177.7570  146.1300 C   0  0  0  0  0  3  0  0  0  0  0  0
  188.2120  178.7000  148.4020 O   0  0  0  0  0  1  0  0  0  0  0  0
  188.3600  176.0940  148.2170 O   0  0  0  0  0  0  0  0  0  0  0  0
  188.0980  177.5600  147.4150 P   0  0  2  0  0  0  0  0  0  0  0  0
  186.0700  178.8470  146.7010 O   0  0  0  0  0  1  0  0  0  0  0  0
  186.4940  177.5610  146.7090 N   0  0  0  0  0  2  0  0  0  0  0  0
  2  3  2  0  0  0  0
  2  6  1  0  0  0  0
  3  5  1  0  0  0  0
  4  1  1  0  0  0  0
  5 30  1  0  0  0  0
  5  1  2  0  0  0  0
  6  4  2  0  0  0  0
  7  2  1  0  0  0  0
  7  8  1  0  0  0  0
  8  9  1  0  0  0  0
 10  9  1  0  0  0  0
 12 10  1  6  0  0  0
 12 11  1  0  0  0  0
 12 28  1  0  0  0  0
 13 12  1  0  0  0  0
 13 16  1  0  0  0  0
 13 11  1  1  0  0  0
 14 20  1  6  0  0  0
 14 23  1  0  0  0  0
 14 26  1  0  0  0  0
 16 26  1  6  0  0  0
 16 19  1  0  0  0  0
 17 21  2  0  0  0  0
 19 18  1  0  0  0  0
 19 15  1  1  0  0  0
 21 22  1  0  0  0  0
 23 24  1  0  0  0  0
 24 22  1  1  0  0  0
 24 19  1  0  0  0  0
 25 17  1  0  0  0  0
 25 23  2  0  0  0  0
 28 27  1  0  0  0  0
 29 28  2  0  0  0  0
 30 31  1  0  0  0  0
 31 32  1  0  0  0  0
 32 33  1  0  0  0  0
 34 33  1  6  0  0  0
 34 43  1  0  0  0  0
 35 39  1  0  0  0  0
 35 37  1  0  0  0  0
 36 38  1  0  0  0  0
 36 40  1  1  0  0  0
 37 34  1  0  0  0  0
 37 38  1  0  0  0  0
 39 36  1  0  0  0  0
 40 42  1  0  0  0  0
 42 41  1  0  0  0  0
 43 44  1  0  0  0  0
 44 45  1  6  0  0  0
 44 48  1  0  0  0  0
 46 47  1  0  0  0  0
 47 45  1  0  0  0  0
 48 49  1  0  0  0  0
 49 50  2  0  0  0  0
 50 53  1  0  0  0  0
 53 52  2  1  0  0  0
 53 51  1  0  0  0  0
 54 55  1  0  0  0  0
 55 53  1  0  0  0  0
M  END
>  <MODEL>
5

>  <REMARK>
 VINA RESULT:      -5.9      3.576      7.542
  Name = 
  23 active torsions:
  status: ('A' for Active; 'I' for Inactive)
    1  A    between atoms: C_2  and  N_28
    2  A    between atoms: C_2  and  C_44
    3  A    between atoms: C_6  and  C_46
    4  A    between atoms: C_10  and  C_32
    5  A    between atoms: C_10  and  C_47
    6  A    between atoms: C_15  and  C_23
    7  A    between atoms: C_16  and  C_17
    8  A    between atoms: C_16  and  C_26
    9  A    between atoms: C_17  and  C_23
   10  A    between atoms: C_17  and  O_36
   11  A    between atoms: N_19  and  P_40
   12  A    between atoms: C_20  and  C_22
   13  A    between atoms: C_22  and  C_35
   14  A    between atoms: C_27  and  C_54
   15  A    between atoms: N_28  and  C_49
   16  A    between atoms: C_33  and  C_49
   17  A    between atoms: C_33  and  C_52
   18  A    between atoms: N_34  and  C_52
   19  A    between atoms: C_35  and  C_43
   20  A    between atoms: O_36  and  C_52
   21  A    between atoms: P_40  and  C_45
   22  A    between atoms: C_43  and  C_51
   23  A    between atoms: C_51  and  C_54
                            x       y       z     vdW  Elec       q    Type
                         _______ _______ _______ _____ _____    ______ ____

>  <TORSDO>
F 23

$$$$
=
 OpenBabel10262420283D

 55 59  0  0  1  0  0  0  0  0999 V2000
  189.1380  178.1870  136.9710 C   0  0  0  0  0  3  0  0  0  0  0  0
  186.9530  176.8160  135.8900 C   0  0  0  0  0  0  0  0  0  0  0  0
  188.0620  176.1050  136.3570 C   0  0  0  0  0  3  0  0  0  0  0  0
  188.0320  178.8990  136.4990 C   0  0  0  0  0  3  0  0  0  0  0  0
  189.1570  176.7900  136.8940 C   0  0  0  0  0  0  0  0  0  0  0  0
  186.9400  178.2130  135.9580 C   0  0  0  0  0  3  0  0  0  0  0  0
  185.7900  176.0770  135.3260 C   0  0  0  0  0  2  0  0  0  0  0  0
  184.5620  176.2730  136.1970 C   0  0  0  0  0  2  0  0  0  0  0  0
  183.5430  177.1160  135.4530 C   0  0  0  0  0  2  0  0  0  0  0  0
  182.1390  176.7000  135.8590 C   0  0  0  0  0  2  0  0  0  0  0  0
  182.4840  178.7000  137.1590 O   0  0  0  0  0  0  0  0  0  0  0  0
  181.6070  177.6210  136.9400 C   0  0  1  0  0  0  0  0  0  0  0  0
  181.2630  179.0080  136.5190 C   0  0  1  0  0  3  0  0  0  0  0  0
  178.9310  180.7240  135.8580 C   0  0  2  0  0  3  0  0  0  0  0  0
  182.2520  180.9290  138.6160 C   0  0  0  0  0  1  0  0  0  0  0  0
  180.3320  179.7500  137.4940 C   0  0  1  0  0  3  0  0  0  0  0  0
  180.0970  184.3160  135.2570 C   0  0  0  0  0  3  0  0  0  0  0  0
  180.0150  181.5800  138.9680 F   0  0  0  0  0  0  0  0  0  0  0  0
  180.8750  181.1010  137.9920 C   0  0  1  0  0  0  0  0  0  0  0  0
  179.2870  180.0430  134.6940 O   0  0  0  0  0  1  0  0  0  0  0  0
  181.0060  184.5280  136.2130 C   0  0  0  0  0  3  0  0  0  0  0  0
  181.2080  183.5290  137.3150 C   0  0  0  0  0  2  0  0  0  0  0  0
  179.6860  182.0200  135.9840 C   0  0  0  0  0  0  0  0  0  0  0  0
  180.9410  182.0930  136.8260 C   0  0  2  0  0  3  0  0  0  0  0  0
  179.3380  183.0540  135.2110 C   0  0  0  0  0  3  0  0  0  0  0  0
  179.0090  179.8740  136.9960 O   0  0  0  0  0  0  0  0  0  0  0  0
  180.1880  176.1890  138.2390 O   0  0  0  0  0  0  0  0  0  0  0  0
  181.1220  177.0360  138.2340 C   0  0  0  0  0  0  0  0  0  0  0  0
  181.6700  177.4630  139.4370 O   0  0  0  0  0  1  0  0  0  0  0  0
  190.3130  176.0270  137.4320 C   0  0  0  0  0  2  0  0  0  0  0  0
  190.0740  175.7010  138.8290 N   0  0  0  0  0  2  0  0  0  0  0  0
  191.1240  176.3410  139.5940 C   0  0  0  0  0  2  0  0  0  0  0  0
  190.6920  177.7480  139.9660 C   0  0  0  0  0  2  0  0  0  0  0  0
  190.2740  177.8760  141.4440 C   0  0  2  0  0  3  0  0  0  0  0  0
  191.2860  178.9500  143.3660 C   0  0  0  0  0  2  0  0  0  0  0  0
  191.7680  176.9270  144.5860 C   0  0  1  0  0  3  0  0  0  0  0  0
  191.3830  177.8490  142.4090 N   0  0  0  0  0  0  0  0  0  0  0  0
  191.3410  176.6070  143.1750 C   0  0  0  0  0  2  0  0  0  0  0  0
  191.6200  178.4210  144.7430 C   0  0  0  0  0  2  0  0  0  0  0  0
  190.9700  176.1500  145.6360 C   0  0  0  0  0  2  0  0  0  0  0  0
  192.4430  175.4510  147.5270 C   0  0  0  0  0  1  0  0  0  0  0  0
  191.3960  176.4480  147.0700 C   0  0  0  0  0  2  0  0  0  0  0  0
  189.2940  176.9340  141.7840 O   0  0  0  0  0  0  0  0  0  0  0  0
  188.3510  177.6330  142.5480 C   0  0  1  0  0  3  0  0  0  0  0  0
  187.3770  178.3930  141.6510 C   0  0  0  0  0  2  0  0  0  0  0  0
  185.0060  178.9770  141.1320 C   0  0  0  0  0  1  0  0  0  0  0  0
  185.9210  178.1810  142.0460 C   0  0  0  0  0  2  0  0  0  0  0  0
  187.6120  176.7430  143.5560 C   0  0  0  0  0  2  0  0  0  0  0  0
  187.9510  177.0040  144.9940 C   0  0  0  0  0  3  0  0  0  0  0  0
  187.1620  177.7550  145.7600 C   0  0  0  0  0  3  0  0  0  0  0  0
  188.9740  178.6680  147.5430 O   0  0  0  0  0  0  0  0  0  0  0  0
  187.5730  176.5980  148.3190 O   0  0  0  0  0  1  0  0  0  0  0  0
  187.5900  178.0610  147.4690 P   0  0  2  0  0  0  0  0  0  0  0  0
  185.5660  179.5130  147.2020 O   0  0  0  0  0  1  0  0  0  0  0  0
  186.4320  179.1640  148.1830 N   0  0  0  0  0  2  0  0  0  0  0  0
  2  6  2  0  0  0  0
  2  3  1  0  0  0  0
  3  5  2  0  0  0  0
  4  1  2  0  0  0  0
  5  1  1  0  0  0  0
  5 30  1  0  0  0  0
  6  4  1  0  0  0  0
  7  2  1  0  0  0  0
  7  8  1  0  0  0  0
  9 10  1  0  0  0  0
  9  8  1  0  0  0  0
 12 10  1  6  0  0  0
 12 11  1  0  0  0  0
 12 28  1  0  0  0  0
 13 12  1  0  0  0  0
 13 11  1  1  0  0  0
 13 16  1  0  0  0  0
 14 20  1  6  0  0  0
 14 23  1  0  0  0  0
 14 26  1  0  0  0  0
 16 26  1  6  0  0  0
 16 19  1  0  0  0  0
 17 21  2  0  0  0  0
 19 15  1  1  0  0  0
 19 18  1  0  0  0  0
 21 22  1  0  0  0  0
 23 24  1  0  0  0  0
 24 22  1  1  0  0  0
 24 19  1  0  0  0  0
 25 17  1  0  0  0  0
 25 23  2  0  0  0  0
 28 27  2  0  0  0  0
 28 29  1  0  0  0  0
 30 31  1  0  0  0  0
 31 32  1  0  0  0  0
 32 33  1  0  0  0  0
 34 33  1  6  0  0  0
 34 43  1  0  0  0  0
 34 37  1  0  0  0  0
 35 39  1  0  0  0  0
 36 39  1  0  0  0  0
 36 40  1  1  0  0  0
 37 38  1  0  0  0  0
 37 35  1  0  0  0  0
 38 36  1  0  0  0  0
 40 42  1  0  0  0  0
 42 41  1  0  0  0  0
 43 44  1  0  0  0  0
 44 45  1  6  0  0  0
 44 48  1  0  0  0  0
 45 47  1  0  0  0  0
 46 47  1  0  0  0  0
 48 49  1  0  0  0  0
 49 50  2  0  0  0  0
 50 53  1  0  0  0  0
 53 51  2  1  0  0  0
 53 55  1  0  0  0  0
 53 52  1  0  0  0  0
 54 55  1  0  0  0  0
M  END
>  <MODEL>
6

>  <REMARK>
 VINA RESULT:      -5.7      3.840      7.518
  Name = 
  23 active torsions:
  status: ('A' for Active; 'I' for Inactive)
    1  A    between atoms: C_2  and  N_28
    2  A    between atoms: C_2  and  C_44
    3  A    between atoms: C_6  and  C_46
    4  A    between atoms: C_10  and  C_32
    5  A    between atoms: C_10  and  C_47
    6  A    between atoms: C_15  and  C_23
    7  A    between atoms: C_16  and  C_17
    8  A    between atoms: C_16  and  C_26
    9  A    between atoms: C_17  and  C_23
   10  A    between atoms: C_17  and  O_36
   11  A    between atoms: N_19  and  P_40
   12  A    between atoms: C_20  and  C_22
   13  A    between atoms: C_22  and  C_35
   14  A    between atoms: C_27  and  C_54
   15  A    between atoms: N_28  and  C_49
   16  A    between atoms: C_33  and  C_49
   17  A    between atoms: C_33  and  C_52
   18  A    between atoms: N_34  and  C_52
   19  A    between atoms: C_35  and  C_43
   20  A    between atoms: O_36  and  C_52
   21  A    between atoms: P_40  and  C_45
   22  A    between atoms: C_43  and  C_51
   23  A    between atoms: C_51  and  C_54
                            x       y       z     vdW  Elec       q    Type
                         _______ _______ _______ _____ _____    ______ ____

>  <TORSDO>
F 23

$$$$
=
 OpenBabel10262420283D

 55 59  0  0  1  0  0  0  0  0999 V2000
  191.5080  176.8510  144.7340 C   0  0  0  0  0  3  0  0  0  0  0  0
  188.8850  177.5860  145.3700 C   0  0  0  0  0  0  0  0  0  0  0  0
  189.3520  177.7250  144.0600 C   0  0  0  0  0  3  0  0  0  0  0  0
  191.0440  176.7170  146.0460 C   0  0  0  0  0  3  0  0  0  0  0  0
  190.6640  177.3620  143.7420 C   0  0  0  0  0  0  0  0  0  0  0  0
  189.7340  177.0850  146.3640 C   0  0  0  0  0  3  0  0  0  0  0  0
  187.4850  177.9700  145.6980 C   0  0  0  0  0  2  0  0  0  0  0  0
  186.5150  177.3320  144.7180 C   0  0  0  0  0  2  0  0  0  0  0  0
  186.0660  178.3680  143.7050 C   0  0  0  0  0  2  0  0  0  0  0  0
  185.3750  177.6780  142.5400 C   0  0  0  0  0  2  0  0  0  0  0  0
  184.3650  179.3660  141.1460 O   0  0  0  0  0  0  0  0  0  0  0  0
  184.1100  178.4260  142.1610 C   0  0  1  0  0  0  0  0  0  0  0  0
  183.6160  178.2300  140.7700 C   0  0  1  0  0  3  0  0  0  0  0  0
  181.4100  176.5250  139.7450 C   0  0  2  0  0  3  0  0  0  0  0  0
  182.7400  180.5880  139.1170 C   0  0  0  0  0  1  0  0  0  0  0  0
  182.1410  178.6190  140.5640 C   0  0  1  0  0  3  0  0  0  0  0  0
  181.3130  176.6920  135.9260 C   0  0  0  0  0  3  0  0  0  0  0  0
  180.5330  179.7770  139.2640 F   0  0  0  0  0  0  0  0  0  0  0  0
  181.8540  179.3590  139.2460 C   0  0  1  0  0  0  0  0  0  0  0  0
  182.4860  175.6830  140.0290 O   0  0  0  0  0  1  0  0  0  0  0  0
  181.5270  177.9810  135.6510 C   0  0  0  0  0  3  0  0  0  0  0  0
  181.5460  179.0070  136.7470 C   0  0  0  0  0  2  0  0  0  0  0  0
  181.4870  177.0500  138.3370 C   0  0  0  0  0  0  0  0  0  0  0  0
  182.0830  178.4130  138.0620 C   0  0  2  0  0  3  0  0  0  0  0  0
  181.1850  176.2340  137.3210 C   0  0  0  0  0  3  0  0  0  0  0  0
  181.2580  177.5220  140.7480 O   0  0  0  0  0  0  0  0  0  0  0  0
  183.3680  180.2140  143.5770 O   0  0  0  0  0  0  0  0  0  0  0  0
  183.2440  179.0060  143.2420 C   0  0  0  0  0  0  0  0  0  0  0  0
  182.3350  178.1960  143.9110 O   0  0  0  0  0  1  0  0  0  0  0  0
  191.1400  177.4680  142.3380 C   0  0  0  0  0  2  0  0  0  0  0  0
  190.0070  177.6960  141.4550 N   0  0  0  0  0  2  0  0  0  0  0  0
  190.2370  176.9030  140.2660 C   0  0  0  0  0  2  0  0  0  0  0  0
  190.0700  177.7780  139.0360 C   0  0  0  0  0  2  0  0  0  0  0  0
  190.1350  176.9810  137.7180 C   0  0  2  0  0  3  0  0  0  0  0  0
  189.0960  176.4010  135.6070 C   0  0  0  0  0  2  0  0  0  0  0  0
  187.1170  175.3920  136.5470 C   0  0  1  0  0  3  0  0  0  0  0  0
  188.8860  176.9590  136.9430 N   0  0  0  0  0  0  0  0  0  0  0  0
  187.9040  176.1120  137.6140 C   0  0  0  0  0  2  0  0  0  0  0  0
  187.9420  175.4790  135.2860 C   0  0  0  0  0  2  0  0  0  0  0  0
  186.7880  173.9470  136.9280 C   0  0  0  0  0  2  0  0  0  0  0  0
  187.8470  171.8870  135.9940 C   0  0  0  0  0  1  0  0  0  0  0  0
  186.8250  172.9810  135.7490 C   0  0  0  0  0  2  0  0  0  0  0  0
  190.6170  175.6820  137.9280 O   0  0  0  0  0  0  0  0  0  0  0  0
  191.4780  175.4240  136.8530 C   0  0  1  0  0  3  0  0  0  0  0  0
  192.7150  176.3160  136.9200 C   0  0  0  0  0  2  0  0  0  0  0  0
  194.8030  176.7710  135.6300 C   0  0  0  0  0  1  0  0  0  0  0  0
  193.2940  176.6250  135.5450 C   0  0  0  0  0  2  0  0  0  0  0  0
  191.8560  173.9420  136.7260 C   0  0  0  0  0  2  0  0  0  0  0  0
  193.1230  173.5530  137.4270 C   0  0  0  0  0  3  0  0  0  0  0  0
  194.1740  173.1000  136.7460 C   0  0  0  0  0  3  0  0  0  0  0  0
  195.3820  171.4810  138.5380 O   0  0  0  0  0  1  0  0  0  0  0  0
  196.2360  173.9540  138.4990 O   0  0  0  0  0  0  0  0  0  0  0  0
  195.6720  172.6350  137.6030 P   0  0  2  0  0  0  0  0  0  0  0  0
  197.8910  171.5630  137.1490 O   0  0  0  0  0  1  0  0  0  0  0  0
  196.8940  172.1510  136.4450 N   0  0  0  0  0  2  0  0  0  0  0  0
  1  4  1  0  0  0  0
  2  7  1  0  0  0  0
  2  6  1  0  0  0  0
  3  2  2  0  0  0  0
  4  6  2  0  0  0  0
  5  3  1  0  0  0  0
  5  1  2  0  0  0  0
  8  7  1  0  0  0  0
  9  8  1  0  0  0  0
 10  9  1  0  0  0  0
 11 12  1  0  0  0  0
 12 10  1  1  0  0  0
 12 28  1  0  0  0  0
 13 11  1  6  0  0  0
 13 12  1  0  0  0  0
 14 20  1  1  0  0  0
 14 26  1  0  0  0  0
 16 26  1  6  0  0  0
 16 13  1  0  0  0  0
 17 25  1  0  0  0  0
 19 15  1  6  0  0  0
 19 18  1  0  0  0  0
 19 16  1  0  0  0  0
 21 17  2  0  0  0  0
 21 22  1  0  0  0  0
 23 14  1  0  0  0  0
 24 22  1  6  0  0  0
 24 23  1  0  0  0  0
 24 19  1  0  0  0  0
 25 23  2  0  0  0  0
 28 27  2  0  0  0  0
 28 29  1  0  0  0  0
 30  5  1  0  0  0  0
 31 30  1  0  0  0  0
 32 31  1  0  0  0  0
 33 32  1  0  0  0  0
 34 43  1  0  0  0  0
 34 33  1  1  0  0  0
 35 37  1  0  0  0  0
 36 40  1  1  0  0  0
 36 38  1  0  0  0  0
 37 38  1  0  0  0  0
 37 34  1  0  0  0  0
 39 35  1  0  0  0  0
 39 36  1  0  0  0  0
 42 41  1  0  0  0  0
 42 40  1  0  0  0  0
 44 48  1  1  0  0  0
 44 45  1  0  0  0  0
 44 43  1  0  0  0  0
 47 46  1  0  0  0  0
 47 45  1  0  0  0  0
 48 49  1  0  0  0  0
 50 49  2  0  0  0  0
 50 53  1  0  0  0  0
 53 52  2  1  0  0  0
 53 51  1  0  0  0  0
 55 54  1  0  0  0  0
 55 53  1  0  0  0  0
M  END
>  <MODEL>
7

>  <REMARK>
 VINA RESULT:      -5.6      2.365      5.578
  Name = 
  23 active torsions:
  status: ('A' for Active; 'I' for Inactive)
    1  A    between atoms: C_2  and  N_28
    2  A    between atoms: C_2  and  C_44
    3  A    between atoms: C_6  and  C_46
    4  A    between atoms: C_10  and  C_32
    5  A    between atoms: C_10  and  C_47
    6  A    between atoms: C_15  and  C_23
    7  A    between atoms: C_16  and  C_17
    8  A    between atoms: C_16  and  C_26
    9  A    between atoms: C_17  and  C_23
   10  A    between atoms: C_17  and  O_36
   11  A    between atoms: N_19  and  P_40
   12  A    between atoms: C_20  and  C_22
   13  A    between atoms: C_22  and  C_35
   14  A    between atoms: C_27  and  C_54
   15  A    between atoms: N_28  and  C_49
   16  A    between atoms: C_33  and  C_49
   17  A    between atoms: C_33  and  C_52
   18  A    between atoms: N_34  and  C_52
   19  A    between atoms: C_35  and  C_43
   20  A    between atoms: O_36  and  C_52
   21  A    between atoms: P_40  and  C_45
   22  A    between atoms: C_43  and  C_51
   23  A    between atoms: C_51  and  C_54
                            x       y       z     vdW  Elec       q    Type
                         _______ _______ _______ _____ _____    ______ ____

>  <TORSDO>
F 23

$$$$
=
 OpenBabel10262420283D

 55 59  0  0  1  0  0  0  0  0999 V2000
  189.1130  175.5810  136.7270 C   0  0  0  0  0  3  0  0  0  0  0  0
  186.6580  175.6210  135.3870 C   0  0  0  0  0  0  0  0  0  0  0  0
  187.4150  176.7910  135.4930 C   0  0  0  0  0  3  0  0  0  0  0  0
  188.3540  174.4120  136.6250 C   0  0  0  0  0  3  0  0  0  0  0  0
  188.6400  176.7730  136.1660 C   0  0  0  0  0  0  0  0  0  0  0  0
  187.1260  174.4320  135.9570 C   0  0  0  0  0  3  0  0  0  0  0  0
  185.3570  175.6490  134.6630 C   0  0  0  0  0  2  0  0  0  0  0  0
  184.5390  176.8560  135.0850 C   0  0  0  0  0  2  0  0  0  0  0  0
  183.8310  176.5550  136.3930 C   0  0  0  0  0  2  0  0  0  0  0  0
  182.3300  176.6860  136.2050 C   0  0  0  0  0  2  0  0  0  0  0  0
  182.6100  178.6990  137.5020 O   0  0  0  0  0  0  0  0  0  0  0  0
  181.7460  177.6160  137.2520 C   0  0  1  0  0  0  0  0  0  0  0  0
  181.4200  178.9980  136.8040 C   0  0  1  0  0  3  0  0  0  0  0  0
  179.1270  180.7160  136.0190 C   0  0  2  0  0  3  0  0  0  0  0  0
  182.3080  180.9280  138.9370 C   0  0  0  0  0  1  0  0  0  0  0  0
  180.4430  179.7470  137.7280 C   0  0  1  0  0  3  0  0  0  0  0  0
  180.3300  184.3030  135.4600 C   0  0  0  0  0  3  0  0  0  0  0  0
  180.0580  181.5850  139.1750 F   0  0  0  0  0  0  0  0  0  0  0  0
  180.9640  181.0990  138.2450 C   0  0  1  0  0  0  0  0  0  0  0  0
  179.5390  180.0290  134.8770 O   0  0  0  0  0  1  0  0  0  0  0  0
  181.1910  184.5180  136.4580 C   0  0  0  0  0  3  0  0  0  0  0  0
  181.3350  183.5230  137.5740 C   0  0  0  0  0  2  0  0  0  0  0  0
  179.8790  182.0110  136.1760 C   0  0  0  0  0  0  0  0  0  0  0  0
  181.0900  182.0850  137.0790 C   0  0  2  0  0  3  0  0  0  0  0  0
  179.5720  183.0420  135.3810 C   0  0  0  0  0  3  0  0  0  0  0  0
  179.1460  179.8710  137.1630 O   0  0  0  0  0  0  0  0  0  0  0  0
  181.8050  177.2280  139.6180 O   0  0  0  0  0  1  0  0  0  0  0  0
  181.2020  177.0410  138.5280 C   0  0  0  0  0  0  0  0  0  0  0  0
  180.0550  176.2590  138.5010 O   0  0  0  0  0  0  0  0  0  0  0  0
  189.4630  178.0090  136.2360 C   0  0  0  0  0  2  0  0  0  0  0  0
  188.6760  179.0860  136.8150 N   0  0  0  0  0  2  0  0  0  0  0  0
  188.6840  178.8850  138.2490 C   0  0  0  0  0  2  0  0  0  0  0  0
  187.3840  178.2260  138.6740 C   0  0  0  0  0  2  0  0  0  0  0  0
  187.2620  178.0670  140.2030 C   0  0  2  0  0  3  0  0  0  0  0  0
  184.9580  178.6800  140.6380 C   0  0  0  0  0  2  0  0  0  0  0  0
  185.2520  179.2010  142.9740 C   0  0  1  0  0  3  0  0  0  0  0  0
  186.3610  179.0280  140.8580 N   0  0  0  0  0  0  0  0  0  0  0  0
  186.5880  179.0130  142.3000 C   0  0  0  0  0  2  0  0  0  0  0  0
  184.2070  178.8730  141.9360 C   0  0  0  0  0  2  0  0  0  0  0  0
  185.1020  178.3530  144.2380 C   0  0  0  0  0  2  0  0  0  0  0  0
  185.8700  177.9770  146.5840 C   0  0  0  0  0  1  0  0  0  0  0  0
  185.6890  179.0060  145.4850 C   0  0  0  0  0  2  0  0  0  0  0  0
  188.5210  178.0620  140.8200 O   0  0  0  0  0  0  0  0  0  0  0  0
  188.8360  176.7110  141.0160 C   0  0  1  0  0  3  0  0  0  0  0  0
  190.2450  176.4020  140.5170 C   0  0  0  0  0  2  0  0  0  0  0  0
  192.4770  177.5060  140.6890 C   0  0  0  0  0  1  0  0  0  0  0  0
  191.0480  177.6580  140.2000 C   0  0  0  0  0  2  0  0  0  0  0  0
  188.6360  176.2500  142.4650 C   0  0  0  0  0  2  0  0  0  0  0  0
  189.4290  177.0130  143.4840 C   0  0  0  0  0  3  0  0  0  0  0  0
  189.3270  176.7360  144.7830 C   0  0  0  0  0  3  0  0  0  0  0  0
  189.4190  177.9490  147.1940 O   0  0  0  0  0  1  0  0  0  0  0  0
  190.7720  179.1250  145.2880 O   0  0  0  0  0  0  0  0  0  0  0  0
  190.2760  177.6640  145.9800 P   0  0  2  0  0  0  0  0  0  0  0  0
  191.3770  176.1500  147.6460 O   0  0  0  0  0  1  0  0  0  0  0  0
  191.6840  176.7410  146.4660 N   0  0  0  0  0  2  0  0  0  0  0  0
  2  3  2  0  0  0  0
  2  6  1  0  0  0  0
  3  5  1  0  0  0  0
  4  1  1  0  0  0  0
  5 30  1  0  0  0  0
  5  1  2  0  0  0  0
  6  4  2  0  0  0  0
  7  8  1  0  0  0  0
  7  2  1  0  0  0  0
  8  9  1  0  0  0  0
 10  9  1  0  0  0  0
 12 10  1  6  0  0  0
 12 11  1  0  0  0  0
 12 28  1  0  0  0  0
 13 12  1  0  0  0  0
 13 11  1  1  0  0  0
 13 16  1  0  0  0  0
 14 20  1  6  0  0  0
 14 23  1  0  0  0  0
 14 26  1  0  0  0  0
 16 26  1  6  0  0  0
 16 19  1  0  0  0  0
 17 21  2  0  0  0  0
 19 15  1  1  0  0  0
 19 18  1  0  0  0  0
 21 22  1  0  0  0  0
 23 24  1  0  0  0  0
 24 22  1  1  0  0  0
 24 19  1  0  0  0  0
 25 17  1  0  0  0  0
 25 23  2  0  0  0  0
 28 27  1  0  0  0  0
 29 28  2  0  0  0  0
 30 31  1  0  0  0  0
 31 32  1  0  0  0  0
 32 33  1  0  0  0  0
 34 33  1  6  0  0  0
 34 43  1  0  0  0  0
 34 37  1  0  0  0  0
 35 37  1  0  0  0  0
 35 39  1  0  0  0  0
 36 40  1  1  0  0  0
 37 38  1  0  0  0  0
 38 36  1  0  0  0  0
 39 36  1  0  0  0  0
 40 42  1  0  0  0  0
 42 41  1  0  0  0  0
 43 44  1  0  0  0  0
 44 45  1  1  0  0  0
 44 48  1  0  0  0  0
 47 45  1  0  0  0  0
 47 46  1  0  0  0  0
 48 49  1  0  0  0  0
 49 50  2  0  0  0  0
 50 53  1  0  0  0  0
 53 52  2  6  0  0  0
 53 55  1  0  0  0  0
 53 51  1  0  0  0  0
 55 54  1  0  0  0  0
M  END
>  <MODEL>
8

>  <REMARK>
 VINA RESULT:      -5.5      3.491      7.226
  Name = 
  23 active torsions:
  status: ('A' for Active; 'I' for Inactive)
    1  A    between atoms: C_2  and  N_28
    2  A    between atoms: C_2  and  C_44
    3  A    between atoms: C_6  and  C_46
    4  A    between atoms: C_10  and  C_32
    5  A    between atoms: C_10  and  C_47
    6  A    between atoms: C_15  and  C_23
    7  A    between atoms: C_16  and  C_17
    8  A    between atoms: C_16  and  C_26
    9  A    between atoms: C_17  and  C_23
   10  A    between atoms: C_17  and  O_36
   11  A    between atoms: N_19  and  P_40
   12  A    between atoms: C_20  and  C_22
   13  A    between atoms: C_22  and  C_35
   14  A    between atoms: C_27  and  C_54
   15  A    between atoms: N_28  and  C_49
   16  A    between atoms: C_33  and  C_49
   17  A    between atoms: C_33  and  C_52
   18  A    between atoms: N_34  and  C_52
   19  A    between atoms: C_35  and  C_43
   20  A    between atoms: O_36  and  C_52
   21  A    between atoms: P_40  and  C_45
   22  A    between atoms: C_43  and  C_51
   23  A    between atoms: C_51  and  C_54
                            x       y       z     vdW  Elec       q    Type
                         _______ _______ _______ _____ _____    ______ ____

>  <TORSDO>
F 23

$$$$
=
 OpenBabel10262420283D

 55 59  0  0  1  0  0  0  0  0999 V2000
  190.3460  176.8500  137.4450 C   0  0  0  0  0  3  0  0  0  0  0  0
  188.1100  176.2090  135.8920 C   0  0  0  0  0  0  0  0  0  0  0  0
  188.0420  177.2530  136.8180 C   0  0  0  0  0  3  0  0  0  0  0  0
  190.4140  175.8020  136.5230 C   0  0  0  0  0  3  0  0  0  0  0  0
  189.1570  177.5720  137.5980 C   0  0  0  0  0  0  0  0  0  0  0  0
  189.2960  175.4810  135.7470 C   0  0  0  0  0  3  0  0  0  0  0  0
  186.9180  175.8810  135.0620 C   0  0  0  0  0  2  0  0  0  0  0  0
  185.7960  176.8680  135.3290 C   0  0  0  0  0  2  0  0  0  0  0  0
  184.9920  176.4060  136.5300 C   0  0  0  0  0  2  0  0  0  0  0  0
  183.6230  175.9270  136.0770 C   0  0  0  0  0  2  0  0  0  0  0  0
  183.0730  177.3460  137.9460 O   0  0  0  0  0  0  0  0  0  0  0  0
  182.5520  176.4060  137.0380 C   0  0  1  0  0  0  0  0  0  0  0  0
  182.1910  177.8490  136.9640 C   0  0  1  0  0  3  0  0  0  0  0  0
  179.9740  179.4350  135.7850 C   0  0  2  0  0  3  0  0  0  0  0  0
  181.9170  179.2050  139.6380 C   0  0  0  0  0  1  0  0  0  0  0  0
  180.8350  178.1940  137.6040 C   0  0  1  0  0  3  0  0  0  0  0  0
  180.5210  183.1520  136.4960 C   0  0  0  0  0  3  0  0  0  0  0  0
  179.6270  179.5020  139.1690 F   0  0  0  0  0  0  0  0  0  0  0  0
  180.8660  179.4020  138.5560 C   0  0  1  0  0  0  0  0  0  0  0  0
  180.8680  179.1430  134.7540 O   0  0  0  0  0  1  0  0  0  0  0  0
  180.9460  183.1830  137.7620 C   0  0  0  0  0  3  0  0  0  0  0  0
  180.9240  181.9430  138.6090 C   0  0  0  0  0  2  0  0  0  0  0  0
  180.3470  180.7150  136.4830 C   0  0  0  0  0  0  0  0  0  0  0  0
  181.1570  180.6790  137.7610 C   0  0  2  0  0  3  0  0  0  0  0  0
  180.1080  181.8810  135.8740 C   0  0  0  0  0  3  0  0  0  0  0  0
  179.7950  178.3150  136.6440 O   0  0  0  0  0  0  0  0  0  0  0  0
  181.0120  174.5670  137.0580 O   0  0  0  0  0  0  0  0  0  0  0  0
  181.6790  175.3990  137.7300 C   0  0  0  0  0  0  0  0  0  0  0  0
  181.5660  175.4140  139.1140 O   0  0  0  0  0  1  0  0  0  0  0  0
  189.0930  178.7130  138.5480 C   0  0  0  0  0  2  0  0  0  0  0  0
  187.8610  178.6380  139.3170 N   0  0  0  0  0  2  0  0  0  0  0  0
  188.2390  178.6460  140.7150 C   0  0  0  0  0  2  0  0  0  0  0  0
  187.8400  177.3270  141.3530 C   0  0  0  0  0  2  0  0  0  0  0  0
  188.6610  176.9980  142.6160 C   0  0  2  0  0  3  0  0  0  0  0  0
  188.2590  178.0440  144.7640 C   0  0  0  0  0  2  0  0  0  0  0  0
  185.8520  177.9160  144.6830 C   0  0  1  0  0  3  0  0  0  0  0  0
  187.8870  176.9520  143.8650 N   0  0  0  0  0  0  0  0  0  0  0  0
  186.4650  177.1010  143.5710 C   0  0  0  0  0  2  0  0  0  0  0  0
  186.9980  178.6130  145.3750 C   0  0  0  0  0  2  0  0  0  0  0  0
  184.7910  178.8980  144.1810 C   0  0  0  0  0  2  0  0  0  0  0  0
  182.3410  178.9770  143.7090 C   0  0  0  0  0  1  0  0  0  0  0  0
  183.3980  178.6310  144.7400 C   0  0  0  0  0  2  0  0  0  0  0  0
  189.7670  177.8490  142.7440 O   0  0  0  0  0  0  0  0  0  0  0  0
  190.8790  177.0760  142.3850 C   0  0  1  0  0  3  0  0  0  0  0  0
  191.3200  177.3860  140.9560 C   0  0  0  0  0  2  0  0  0  0  0  0
  193.2410  177.3300  139.3640 C   0  0  0  0  0  1  0  0  0  0  0  0
  192.8330  177.4960  140.8170 C   0  0  0  0  0  2  0  0  0  0  0  0
  192.0440  177.1970  143.3750 C   0  0  0  0  0  2  0  0  0  0  0  0
  191.6390  177.2820  144.8170 C   0  0  0  0  0  3  0  0  0  0  0  0
  191.6130  176.1970  145.5890 C   0  0  0  0  0  3  0  0  0  0  0  0
  192.0480  177.2670  148.0300 O   0  0  0  0  0  1  0  0  0  0  0  0
  191.2010  174.7910  148.0190 O   0  0  0  0  0  0  0  0  0  0  0  0
  191.1190  176.3210  147.3020 P   0  0  2  0  0  0  0  0  0  0  0  0
  189.4100  177.6890  148.5230 O   0  0  0  0  0  1  0  0  0  0  0  0
  189.4780  176.9250  147.4050 N   0  0  0  0  0  2  0  0  0  0  0  0
  1  5  1  0  0  0  0
  2  3  1  0  0  0  0
  3  5  2  0  0  0  0
  4  1  2  0  0  0  0
  5 30  1  0  0  0  0
  6  2  2  0  0  0  0
  6  4  1  0  0  0  0
  7  8  1  0  0  0  0
  7  2  1  0  0  0  0
  8  9  1  0  0  0  0
 10  9  1  0  0  0  0
 12 10  1  6  0  0  0
 12 28  1  0  0  0  0
 12 11  1  0  0  0  0
 13 12  1  0  0  0  0
 13 16  1  0  0  0  0
 13 11  1  1  0  0  0
 14 20  1  6  0  0  0
 14 23  1  0  0  0  0
 14 26  1  0  0  0  0
 16 26  1  6  0  0  0
 16 19  1  0  0  0  0
 17 21  2  0  0  0  0
 19 18  1  0  0  0  0
 19 15  1  1  0  0  0
 21 22  1  0  0  0  0
 23 24  1  0  0  0  0
 24 19  1  0  0  0  0
 24 22  1  1  0  0  0
 25 23  2  0  0  0  0
 25 17  1  0  0  0  0
 27 28  2  0  0  0  0
 28 29  1  0  0  0  0
 30 31  1  0  0  0  0
 31 32  1  0  0  0  0
 32 33  1  0  0  0  0
 34 33  1  6  0  0  0
 34 43  1  0  0  0  0
 34 37  1  0  0  0  0
 35 39  1  0  0  0  0
 36 40  1  6  0  0  0
 36 39  1  0  0  0  0
 37 35  1  0  0  0  0
 38 37  1  0  0  0  0
 38 36  1  0  0  0  0
 40 42  1  0  0  0  0
 41 42  1  0  0  0  0
 44 45  1  6  0  0  0
 44 43  1  0  0  0  0
 44 48  1  0  0  0  0
 46 47  1  0  0  0  0
 47 45  1  0  0  0  0
 48 49  1  0  0  0  0
 49 50  2  0  0  0  0
 50 53  1  0  0  0  0
 53 55  1  0  0  0  0
 53 52  2  1  0  0  0
 53 51  1  0  0  0  0
 55 54  1  0  0  0  0
M  END
>  <MODEL>
9

>  <REMARK>
 VINA RESULT:      -5.4      3.492      7.157
  Name = 
  23 active torsions:
  status: ('A' for Active; 'I' for Inactive)
    1  A    between atoms: C_2  and  N_28
    2  A    between atoms: C_2  and  C_44
    3  A    between atoms: C_6  and  C_46
    4  A    between atoms: C_10  and  C_32
    5  A    between atoms: C_10  and  C_47
    6  A    between atoms: C_15  and  C_23
    7  A    between atoms: C_16  and  C_17
    8  A    between atoms: C_16  and  C_26
    9  A    between atoms: C_17  and  C_23
   10  A    between atoms: C_17  and  O_36
   11  A    between atoms: N_19  and  P_40
   12  A    between atoms: C_20  and  C_22
   13  A    between atoms: C_22  and  C_35
   14  A    between atoms: C_27  and  C_54
   15  A    between atoms: N_28  and  C_49
   16  A    between atoms: C_33  and  C_49
   17  A    between atoms: C_33  and  C_52
   18  A    between atoms: N_34  and  C_52
   19  A    between atoms: C_35  and  C_43
   20  A    between atoms: O_36  and  C_52
   21  A    between atoms: P_40  and  C_45
   22  A    between atoms: C_43  and  C_51
   23  A    between atoms: C_51  and  C_54
                            x       y       z     vdW  Elec       q    Type
                         _______ _______ _______ _____ _____    ______ ____

>  <TORSDO>
F 23

$$$$
