=
 OpenBabel10262423343D

 34 37  0  0  1  0  0  0  0  0999 V2000
  183.4120  178.0990  137.9430 N   0  0  2  0  0  0  0  0  0  0  0  0
  185.9610  175.6140  135.7980 C   0  0  0  0  0  2  0  0  0  0  0  0
  183.9340  175.7500  137.2980 C   0  0  2  0  0  3  0  0  0  0  0  0
  182.5050  178.8340  138.8260 C   0  0  2  0  0  3  0  0  0  0  0  0
  182.2970  180.2430  138.2970 C   0  0  0  0  0  1  0  0  0  0  0  0
  183.4910  178.8490  139.9750 C   0  0  2  0  0  3  0  0  0  0  0  0
  182.8600  176.7460  137.7740 C   0  0  2  0  0  3  0  0  0  0  0  0
  186.8630  176.1740  136.8970 C   0  0  0  0  0  2  0  0  0  0  0  0
  186.8410  177.6990  136.9210 C   0  0  1  0  0  3  0  0  0  0  0  0
  186.8210  178.1350  138.3780 C   0  0  0  0  0  2  0  0  0  0  0  0
  184.5200  176.0980  135.9300 C   0  0  0  0  0  2  0  0  0  0  0  0
  185.5870  178.9710  138.6710 C   0  0  0  0  0  2  0  0  0  0  0  0
  184.3970  178.0870  139.0300 C   0  0  2  0  0  3  0  0  0  0  0  0
  181.4070  179.2880  143.1200 C   0  0  0  0  0  2  0  0  0  0  0  0
  183.0030  177.9320  141.1030 C   0  0  1  0  0  3  0  0  0  0  0  0
  184.7530  179.0090  144.9000 C   0  0  0  0  0  0  0  0  0  0  0  0
  183.4180  179.3400  144.6130 C   0  0  0  0  0  3  0  0  0  0  0  0
  182.8520  178.9900  143.3850 C   0  0  0  0  0  0  0  0  0  0  0  0
  184.9420  177.9510  142.7240 C   0  0  0  0  0  3  0  0  0  0  0  0
  183.6140  178.2860  142.4380 C   0  0  0  0  0  0  0  0  0  0  0  0
  185.5070  178.3120  143.9500 C   0  0  0  0  0  3  0  0  0  0  0  0
  181.5850  177.8800  141.1670 O   0  0  0  0  0  0  0  0  0  0  0  0
  181.0980  179.1210  141.6330 C   0  0  0  0  0  2  0  0  0  0  0  0
  185.3490  179.3550  146.1150 O   0  0  0  0  0  0  0  0  0  0  0  0
  187.0970  178.2470  147.3250 C   0  0  0  0  0  1  0  0  0  0  0  0
  185.6020  178.4060  147.1430 C   0  0  0  0  0  2  0  0  0  0  0  0
  188.0570  178.2860  136.1910 C   0  0  0  0  0  3  0  0  0  0  0  0
  188.9350  179.0840  137.1400 C   0  0  0  0  0  1  0  0  0  0  0  0
  188.9080  177.1850  135.5810 C   0  0  0  0  0  1  0  0  0  0  0  0
  180.6540  176.0490  137.1160 O   0  0  0  0  0  1  0  0  0  0  0  0
  181.6580  176.7680  136.8700 C   0  0  0  0  0  0  0  0  0  0  0  0
  181.6530  177.5970  135.7560 O   0  0  0  0  0  0  0  0  0  0  0  0
  183.5010  174.2890  137.4060 C   0  0  0  0  0  2  0  0  0  0  0  0
  184.5310  173.4930  137.9120 O   0  0  0  0  0  1  0  0  0  0  0  0
  1  4  1  0  0  0  0
  1 13  1  0  0  0  0
  2 11  1  0  0  0  0
  2  8  1  0  0  0  0
  3 33  1  0  0  0  0
  3  7  1  0  0  0  0
  4  6  1  0  0  0  0
  5  4  1  0  0  0  0
  6 15  1  0  0  0  0
  7  1  1  0  0  0  0
  8  9  1  0  0  0  0
  9 10  1  0  0  0  0
 10 12  1  0  0  0  0
 11  3  1  0  0  0  0
 12 13  1  0  0  0  0
 13  6  1  0  0  0  0
 14 18  1  0  0  0  0
 15 22  1  0  0  0  0
 15 20  1  0  0  0  0
 16 24  1  0  0  0  0
 17 16  1  0  0  0  0
 18 17  2  0  0  0  0
 19 21  1  0  0  0  0
 20 19  2  0  0  0  0
 20 18  1  0  0  0  0
 21 16  2  0  0  0  0
 22 23  1  0  0  0  0
 23 14  1  0  0  0  0
 24 26  1  0  0  0  0
 26 25  1  0  0  0  0
 27  9  1  0  0  0  0
 27 28  1  0  0  0  0
 29 27  1  0  0  0  0
 31 30  1  0  0  0  0
 31  7  1  0  0  0  0
 32 31  2  0  0  0  0
 33 34  1  0  0  0  0
M  END
>  <MODEL>
1

>  <REMARK>
 VINA RESULT:      -7.2      0.000      0.000
  Name = 
  6 active torsions:
  status: ('A' for Active; 'I' for Inactive)
    1  A    between atoms: C_3  and  C_25
    2  A    between atoms: C_5  and  C_19
    3  A    between atoms: C_6  and  C_18
    4  A    between atoms: C_7  and  O_11
    5  A    between atoms: O_11  and  C_21
    6  A    between atoms: C_12  and  C_20
                            x       y       z     vdW  Elec       q    Type
                         _______ _______ _______ _____ _____    ______ ____

>  <TORSDO>
F 6

$$$$
=
 OpenBabel10262423343D

 34 37  0  0  1  0  0  0  0  0999 V2000
  189.8280  176.7990  137.5820 N   0  0  2  0  0  0  0  0  0  0  0  0
  191.7280  173.6310  135.6780 C   0  0  0  0  0  2  0  0  0  0  0  0
  189.7230  174.3740  137.0210 C   0  0  2  0  0  3  0  0  0  0  0  0
  189.1030  177.7880  138.3820 C   0  0  2  0  0  3  0  0  0  0  0  0
  189.3280  179.1780  137.8130 C   0  0  0  0  0  1  0  0  0  0  0  0
  189.9770  177.5760  139.6000 C   0  0  2  0  0  3  0  0  0  0  0  0
  188.9370  175.6430  137.3980 C   0  0  2  0  0  3  0  0  0  0  0  0
  192.6750  173.9640  136.8300 C   0  0  0  0  0  2  0  0  0  0  0  0
  193.0740  175.4360  136.8250 C   0  0  1  0  0  3  0  0  0  0  0  0
  193.0780  175.9170  138.2680 C   0  0  0  0  0  2  0  0  0  0  0  0
  190.4720  174.4960  135.6940 C   0  0  0  0  0  2  0  0  0  0  0  0
  192.1060  177.0690  138.4530 C   0  0  0  0  0  2  0  0  0  0  0  0
  190.6970  176.5600  138.7390 C   0  0  2  0  0  3  0  0  0  0  0  0
  188.1000  178.6740  142.7150 C   0  0  0  0  0  2  0  0  0  0  0  0
  189.1800  176.8710  140.7050 C   0  0  1  0  0  3  0  0  0  0  0  0
  191.1100  177.2550  144.5480 C   0  0  0  0  0  0  0  0  0  0  0  0
  189.9760  178.0240  144.2430 C   0  0  0  0  0  3  0  0  0  0  0  0
  189.3500  177.8990  143.0000 C   0  0  0  0  0  0  0  0  0  0  0  0
  190.9750  176.2140  142.3600 C   0  0  0  0  0  3  0  0  0  0  0  0
  189.8460  176.9850  142.0560 C   0  0  0  0  0  0  0  0  0  0  0  0
  191.6020  176.3510  143.6010 C   0  0  0  0  0  3  0  0  0  0  0  0
  187.8290  177.3060  140.7440 O   0  0  0  0  0  0  0  0  0  0  0  0
  187.7840  178.6350  141.2200 C   0  0  0  0  0  2  0  0  0  0  0  0
  191.7620  177.3660  145.7790 O   0  0  0  0  0  0  0  0  0  0  0  0
  192.2580  175.5870  147.3060 C   0  0  0  0  0  1  0  0  0  0  0  0
  191.3040  176.7080  146.9520 C   0  0  0  0  0  2  0  0  0  0  0  0
  194.4500  175.6390  136.1770 C   0  0  0  0  0  3  0  0  0  0  0  0
  195.2510  174.3480  136.1720 C   0  0  0  0  0  1  0  0  0  0  0  0
  194.3100  176.1080  134.7380 C   0  0  0  0  0  1  0  0  0  0  0  0
  186.6660  175.5830  136.6080 O   0  0  0  0  0  1  0  0  0  0  0  0
  187.8500  175.9600  136.4060 C   0  0  0  0  0  0  0  0  0  0  0  0
  188.1560  176.6820  135.2610 O   0  0  0  0  0  0  0  0  0  0  0  0
  188.8970  173.0930  137.1230 C   0  0  0  0  0  2  0  0  0  0  0  0
  188.4810  172.6590  135.8620 O   0  0  0  0  0  1  0  0  0  0  0  0
  1  4  1  0  0  0  0
  1 13  1  0  0  0  0
  2 11  1  0  0  0  0
  2  8  1  0  0  0  0
  3 33  1  0  0  0  0
  3  7  1  0  0  0  0
  4  6  1  0  0  0  0
  5  4  1  0  0  0  0
  6 15  1  0  0  0  0
  7  1  1  0  0  0  0
  9  8  1  0  0  0  0
  9 10  1  0  0  0  0
 10 12  1  0  0  0  0
 11  3  1  0  0  0  0
 12 13  1  0  0  0  0
 13  6  1  0  0  0  0
 14 18  1  0  0  0  0
 15 22  1  0  0  0  0
 15 20  1  0  0  0  0
 16 24  1  0  0  0  0
 17 16  1  0  0  0  0
 18 17  2  0  0  0  0
 19 21  1  0  0  0  0
 20 19  2  0  0  0  0
 20 18  1  0  0  0  0
 21 16  2  0  0  0  0
 22 23  1  0  0  0  0
 23 14  1  0  0  0  0
 24 26  1  0  0  0  0
 26 25  1  0  0  0  0
 27  9  1  0  0  0  0
 28 27  1  0  0  0  0
 29 27  1  0  0  0  0
 31 30  1  0  0  0  0
 31  7  1  0  0  0  0
 32 31  2  0  0  0  0
 34 33  1  0  0  0  0
M  END
>  <MODEL>
2

>  <REMARK>
 VINA RESULT:      -6.8      4.626      6.408
  Name = 
  6 active torsions:
  status: ('A' for Active; 'I' for Inactive)
    1  A    between atoms: C_3  and  C_25
    2  A    between atoms: C_5  and  C_19
    3  A    between atoms: C_6  and  C_18
    4  A    between atoms: C_7  and  O_11
    5  A    between atoms: O_11  and  C_21
    6  A    between atoms: C_12  and  C_20
                            x       y       z     vdW  Elec       q    Type
                         _______ _______ _______ _____ _____    ______ ____

>  <TORSDO>
F 6

$$$$
=
 OpenBabel10262423343D

 34 37  0  0  1  0  0  0  0  0999 V2000
  188.9370  176.8490  137.4030 N   0  0  2  0  0  0  0  0  0  0  0  0
  189.6040  173.3370  135.2820 C   0  0  0  0  0  2  0  0  0  0  0  0
  188.0610  174.5850  136.8440 C   0  0  2  0  0  3  0  0  0  0  0  0
  188.6250  177.9760  138.2840 C   0  0  2  0  0  3  0  0  0  0  0  0
  189.1900  179.2590  137.7010 C   0  0  0  0  0  1  0  0  0  0  0  0
  189.5190  177.4710  139.3960 C   0  0  2  0  0  3  0  0  0  0  0  0
  187.7290  176.0130  137.3130 C   0  0  2  0  0  3  0  0  0  0  0  0
  190.7220  173.3340  136.3230 C   0  0  0  0  0  2  0  0  0  0  0  0
  191.5360  174.6230  136.2810 C   0  0  1  0  0  3  0  0  0  0  0  0
  191.8340  175.0260  137.7170 C   0  0  0  0  0  2  0  0  0  0  0  0
  188.6680  174.5320  135.4430 C   0  0  0  0  0  2  0  0  0  0  0  0
  191.2710  176.4050  138.0160 C   0  0  0  0  0  2  0  0  0  0  0  0
  189.8130  176.3210  138.4550 C   0  0  2  0  0  3  0  0  0  0  0  0
  188.0930  179.0590  142.5380 C   0  0  0  0  0  2  0  0  0  0  0  0
  188.6710  176.9890  140.5790 C   0  0  1  0  0  3  0  0  0  0  0  0
  190.8750  177.1530  144.2880 C   0  0  0  0  0  0  0  0  0  0  0  0
  189.8960  178.1190  144.0000 C   0  0  0  0  0  3  0  0  0  0  0  0
  189.1820  178.0640  142.8000 C   0  0  0  0  0  0  0  0  0  0  0  0
  190.4010  176.0620  142.1720 C   0  0  0  0  0  3  0  0  0  0  0  0
  189.4290  177.0280  141.8850 C   0  0  0  0  0  0  0  0  0  0  0  0
  191.1200  176.1270  143.3700 C   0  0  0  0  0  3  0  0  0  0  0  0
  187.4360  177.6850  140.6640 O   0  0  0  0  0  0  0  0  0  0  0  0
  187.6830  179.0160  141.0660 C   0  0  0  0  0  2  0  0  0  0  0  0
  191.6110  177.1880  145.4750 O   0  0  0  0  0  0  0  0  0  0  0  0
  189.7490  176.9040  146.9570 C   0  0  0  0  0  1  0  0  0  0  0  0
  191.1860  176.5300  146.6620 C   0  0  0  0  0  2  0  0  0  0  0  0
  192.8340  174.4380  135.4850 C   0  0  0  0  0  3  0  0  0  0  0  0
  192.7660  173.2050  134.6000 C   0  0  0  0  0  1  0  0  0  0  0  0
  193.1010  175.6390  134.5940 C   0  0  0  0  0  1  0  0  0  0  0  0
  185.5070  176.8170  136.8650 O   0  0  0  0  0  1  0  0  0  0  0  0
  186.6870  176.6720  136.4510 C   0  0  0  0  0  0  0  0  0  0  0  0
  187.0330  177.1320  135.1880 O   0  0  0  0  0  0  0  0  0  0  0  0
  186.9080  173.5990  137.0310 C   0  0  0  0  0  2  0  0  0  0  0  0
  187.3030  172.5000  137.7970 O   0  0  0  0  0  1  0  0  0  0  0  0
  1  4  1  0  0  0  0
  1 13  1  0  0  0  0
  2 11  1  0  0  0  0
  2  8  1  0  0  0  0
  3 33  1  0  0  0  0
  3  7  1  0  0  0  0
  4  6  1  0  0  0  0
  5  4  1  0  0  0  0
  6 15  1  0  0  0  0
  7  1  1  0  0  0  0
  9  8  1  0  0  0  0
  9 10  1  0  0  0  0
 10 12  1  0  0  0  0
 11  3  1  0  0  0  0
 12 13  1  0  0  0  0
 13  6  1  0  0  0  0
 14 18  1  0  0  0  0
 15 22  1  0  0  0  0
 15 20  1  0  0  0  0
 16 24  1  0  0  0  0
 17 16  1  0  0  0  0
 18 17  2  0  0  0  0
 19 21  1  0  0  0  0
 20 19  2  0  0  0  0
 20 18  1  0  0  0  0
 21 16  2  0  0  0  0
 22 23  1  0  0  0  0
 23 14  1  0  0  0  0
 24 26  1  0  0  0  0
 26 25  1  0  0  0  0
 27  9  1  0  0  0  0
 28 27  1  0  0  0  0
 29 27  1  0  0  0  0
 31 30  1  0  0  0  0
 31  7  1  0  0  0  0
 32 31  2  0  0  0  0
 33 34  1  0  0  0  0
M  END
>  <MODEL>
3

>  <REMARK>
 VINA RESULT:      -5.5      4.184      5.674
  Name = 
  6 active torsions:
  status: ('A' for Active; 'I' for Inactive)
    1  A    between atoms: C_3  and  C_25
    2  A    between atoms: C_5  and  C_19
    3  A    between atoms: C_6  and  C_18
    4  A    between atoms: C_7  and  O_11
    5  A    between atoms: O_11  and  C_21
    6  A    between atoms: C_12  and  C_20
                            x       y       z     vdW  Elec       q    Type
                         _______ _______ _______ _____ _____    ______ ____

>  <TORSDO>
F 6

$$$$
=
 OpenBabel10262423343D

 34 37  0  0  1  0  0  0  0  0999 V2000
  186.9740  177.8630  137.9810 N   0  0  2  0  0  0  0  0  0  0  0  0
  185.7100  179.0660  141.7540 C   0  0  0  0  0  2  0  0  0  0  0  0
  187.3910  177.7220  140.4330 C   0  0  2  0  0  3  0  0  0  0  0  0
  187.4640  177.2750  136.7340 C   0  0  2  0  0  3  0  0  0  0  0  0
  187.2090  178.2260  135.5780 C   0  0  0  0  0  1  0  0  0  0  0  0
  186.4260  176.1730  136.7400 C   0  0  2  0  0  3  0  0  0  0  0  0
  187.9850  177.6040  139.0170 C   0  0  2  0  0  3  0  0  0  0  0  0
  184.5610  178.1850  141.2650 C   0  0  0  0  0  2  0  0  0  0  0  0
  184.0350  178.6450  139.9100 C   0  0  1  0  0  3  0  0  0  0  0  0
  183.7500  177.4030  139.0800 C   0  0  0  0  0  2  0  0  0  0  0  0
  186.8620  179.1190  140.7550 C   0  0  0  0  0  2  0  0  0  0  0  0
  184.5690  177.4110  137.8010 C   0  0  0  0  0  2  0  0  0  0  0  0
  185.9520  176.8120  138.0290 C   0  0  2  0  0  3  0  0  0  0  0  0
  187.5820  173.2190  134.6510 C   0  0  0  0  0  2  0  0  0  0  0  0
  187.0920  174.8210  137.0270 C   0  0  1  0  0  3  0  0  0  0  0  0
  184.4830  171.5240  136.0490 C   0  0  0  0  0  0  0  0  0  0  0  0
  185.5550  171.8550  135.2050 C   0  0  0  0  0  3  0  0  0  0  0  0
  186.4000  172.9220  135.5220 C   0  0  0  0  0  0  0  0  0  0  0  0
  185.1230  173.3230  137.5460 C   0  0  0  0  0  3  0  0  0  0  0  0
  186.1890  173.6550  136.7020 C   0  0  0  0  0  0  0  0  0  0  0  0
  184.2740  172.2620  137.2180 C   0  0  0  0  0  3  0  0  0  0  0  0
  188.3550  174.7070  136.3880 O   0  0  0  0  0  0  0  0  0  0  0  0
  188.1590  174.5920  134.9950 C   0  0  0  0  0  2  0  0  0  0  0  0
  183.6150  170.4690  135.7520 O   0  0  0  0  0  0  0  0  0  0  0  0
  181.2310  170.7150  135.7180 C   0  0  0  0  0  1  0  0  0  0  0  0
  182.4940  170.6170  134.8900 C   0  0  0  0  0  2  0  0  0  0  0  0
  182.7710  179.5020  140.0630 C   0  0  0  0  0  3  0  0  0  0  0  0
  182.3480  180.1020  138.7330 C   0  0  0  0  0  1  0  0  0  0  0  0
  181.6130  178.6720  140.5910 C   0  0  0  0  0  1  0  0  0  0  0  0
  189.0600  179.6490  138.3480 O   0  0  0  0  0  0  0  0  0  0  0  0
  189.1860  178.4910  138.8250 C   0  0  0  0  0  0  0  0  0  0  0  0
  190.4450  178.0280  139.1830 O   0  0  0  0  0  1  0  0  0  0  0  0
  188.3030  177.1650  141.5250 C   0  0  0  0  0  2  0  0  0  0  0  0
  188.9740  178.1910  142.1940 O   0  0  0  0  0  1  0  0  0  0  0  0
  1 13  1  0  0  0  0
  1  7  1  0  0  0  0
  3 11  1  0  0  0  0
  3 33  1  0  0  0  0
  4  6  1  0  0  0  0
  4  1  1  0  0  0  0
  5  4  1  0  0  0  0
  6 15  1  0  0  0  0
  6 13  1  0  0  0  0
  7  3  1  0  0  0  0
  8  2  1  0  0  0  0
  9 27  1  0  0  0  0
  9  8  1  0  0  0  0
 10  9  1  0  0  0  0
 11  2  1  0  0  0  0
 12 13  1  0  0  0  0
 12 10  1  0  0  0  0
 14 23  1  0  0  0  0
 14 18  1  0  0  0  0
 16 21  1  0  0  0  0
 17 18  1  0  0  0  0
 17 16  2  0  0  0  0
 18 20  2  0  0  0  0
 20 15  1  0  0  0  0
 20 19  1  0  0  0  0
 21 19  2  0  0  0  0
 22 15  1  0  0  0  0
 23 22  1  0  0  0  0
 24 16  1  0  0  0  0
 26 25  1  0  0  0  0
 26 24  1  0  0  0  0
 27 29  1  0  0  0  0
 28 27  1  0  0  0  0
 30 31  2  0  0  0  0
 31  7  1  0  0  0  0
 31 32  1  0  0  0  0
 33 34  1  0  0  0  0
M  END
>  <MODEL>
4

>  <REMARK>
 VINA RESULT:      -5.1      3.290      8.464
  Name = 
  6 active torsions:
  status: ('A' for Active; 'I' for Inactive)
    1  A    between atoms: C_3  and  C_25
    2  A    between atoms: C_5  and  C_19
    3  A    between atoms: C_6  and  C_18
    4  A    between atoms: C_7  and  O_11
    5  A    between atoms: O_11  and  C_21
    6  A    between atoms: C_12  and  C_20
                            x       y       z     vdW  Elec       q    Type
                         _______ _______ _______ _____ _____    ______ ____

>  <TORSDO>
F 6

$$$$
