=
 OpenBabel10262421253D

 32 37  0  0  1  0  0  0  0  0999 V2000
  182.2060  178.4920  144.3030 C   0  0  0  0  0  2  0  0  0  0  0  0
  187.0360  177.9560  142.7700 C   0  0  0  0  0  0  0  0  0  0  0  0
  189.2010  176.7090  146.9710 O   0  0  0  0  0  0  0  0  0  0  0  0
  190.4490  177.1910  146.5440 C   0  0  0  0  0  2  0  0  0  0  0  0
  188.2650  177.6940  140.5950 C   0  0  0  0  0  0  0  0  0  0  0  0
  189.4420  177.4080  140.0450 C   0  0  0  0  0  0  0  0  0  0  0  0
  184.6710  178.5690  142.7970 C   0  0  0  0  0  0  0  0  0  0  0  0
  185.8220  178.2270  144.9290 C   0  0  0  0  0  3  0  0  0  0  0  0
  191.7400  176.8290  139.8810 C   0  0  1  0  0  3  0  0  0  0  0  0
  183.4720  178.9100  145.0530 C   0  0  0  0  0  2  0  0  0  0  0  0
  188.2400  177.5990  146.4570 C   0  0  0  0  0  2  0  0  0  0  0  0
  187.0330  177.9160  144.2150 N   0  0  0  0  0  0  0  0  0  0  0  0
  188.2240  177.5720  144.9440 C   0  0  0  0  0  0  0  0  0  0  0  0
  189.3770  177.3490  142.8410 N   0  0  0  0  0  0  0  0  0  0  0  0
  191.0980  177.0050  138.4850 C   0  0  0  0  0  2  0  0  0  0  0  0
  183.3980  178.9030  142.1360 C   0  0  0  0  0  0  0  0  0  0  0  0
  184.6950  178.5220  144.2780 C   0  0  0  0  0  0  0  0  0  0  0  0
  189.7300  177.3610  138.6980 O   0  0  0  0  0  0  0  0  0  0  0  0
  183.3520  179.1040  140.8910 O   0  0  0  0  0  0  0  0  0  0  0  0
  182.2130  179.0200  142.9400 N   0  0  0  0  0  0  0  0  0  0  0  0
  190.6130  176.9250  145.0460 C   0  0  0  0  0  2  0  0  0  0  0  0
  189.3670  177.3180  144.2820 C   0  0  0  0  0  0  0  0  0  0  0  0
  190.6010  177.0560  142.1360 C   0  0  0  0  0  3  0  0  0  0  0  0
  185.7730  178.3040  142.0880 C   0  0  0  0  0  3  0  0  0  0  0  0
  187.1790  177.9890  139.7760 O   0  0  0  0  0  1  0  0  0  0  0  0
  192.7330  177.7930  140.0590 O   0  0  0  0  0  1  0  0  0  0  0  0
  188.1720  177.6800  142.0930 C   0  0  0  0  0  0  0  0  0  0  0  0
  190.6110  177.0940  140.8060 C   0  0  0  0  0  0  0  0  0  0  0  0
  180.9870  179.5860  142.3930 C   0  0  0  0  0  2  0  0  0  0  0  0
  180.0090  178.5030  142.0900 C   0  0  0  0  0  0  0  0  0  0  0  0
  178.9310  178.2830  142.9360 O   0  0  0  0  0  1  0  0  0  0  0  0
  180.1400  177.8110  141.0470 O   0  0  0  0  0  0  0  0  0  0  0  0
  1 10  1  0  0  0  0
  2 12  1  0  0  0  0
  4  3  1  0  0  0  0
  5 27  1  0  0  0  0
  6  5  2  0  0  0  0
  6 28  1  0  0  0  0
  7 17  1  0  0  0  0
  9 26  1  1  0  0  0
  9 28  1  0  0  0  0
 11  3  1  0  0  0  0
 12  8  1  0  0  0  0
 12 13  1  0  0  0  0
 13 11  1  0  0  0  0
 14 22  1  0  0  0  0
 15 18  1  0  0  0  0
 15  9  1  0  0  0  0
 16  7  1  0  0  0  0
 16 20  1  0  0  0  0
 17  8  2  0  0  0  0
 17 10  1  0  0  0  0
 18  6  1  0  0  0  0
 19 16  2  0  0  0  0
 20  1  1  0  0  0  0
 21  4  1  0  0  0  0
 22 13  2  0  0  0  0
 22 21  1  0  0  0  0
 23 14  1  0  0  0  0
 24  2  1  0  0  0  0
 24  7  2  0  0  0  0
 25  5  1  0  0  0  0
 27  2  2  0  0  0  0
 27 14  1  0  0  0  0
 28 23  2  0  0  0  0
 29 20  1  0  0  0  0
 30 29  1  0  0  0  0
 30 31  1  0  0  0  0
 32 30  2  0  0  0  0
M  END
>  <MODEL>
1

>  <REMARK>
 VINA RESULT:      -9.9      0.000      0.000
  Name = 
  2 active torsions:
  status: ('A' for Active; 'I' for Inactive)
    1  A    between atoms: C_1  and  C_10
    2  A    between atoms: C_10  and  N_24
                            x       y       z     vdW  Elec       q    Type
                         _______ _______ _______ _____ _____    ______ ____

>  <TORSDO>
F 2

$$$$
=
 OpenBabel10262421253D

 32 37  0  0  1  0  0  0  0  0999 V2000
  187.1370  177.6640  137.3450 C   0  0  0  0  0  2  0  0  0  0  0  0
  187.7390  177.8940  142.4000 C   0  0  0  0  0  0  0  0  0  0  0  0
  183.1100  178.4970  143.8500 O   0  0  0  0  0  0  0  0  0  0  0  0
  183.5000  179.1210  145.0460 C   0  0  0  0  0  2  0  0  0  0  0  0
  189.5170  177.3140  144.0750 C   0  0  0  0  0  0  0  0  0  0  0  0
  189.7770  177.1740  145.3730 C   0  0  0  0  0  0  0  0  0  0  0  0
  188.2360  177.8930  140.0080 C   0  0  0  0  0  0  0  0  0  0  0  0
  185.9760  178.4810  140.7390 C   0  0  0  0  0  3  0  0  0  0  0  0
  189.4270  177.1490  147.7230 C   0  0  1  0  0  3  0  0  0  0  0  0
  186.4040  178.5770  138.3280 C   0  0  0  0  0  2  0  0  0  0  0  0
  184.0150  178.9350  142.8650 C   0  0  0  0  0  2  0  0  0  0  0  0
  186.3760  178.2780  142.1070 N   0  0  0  0  0  0  0  0  0  0  0  0
  185.4210  178.4640  143.1660 C   0  0  0  0  0  0  0  0  0  0  0  0
  187.1550  177.9220  144.7470 N   0  0  0  0  0  0  0  0  0  0  0  0
  190.8770  176.7470  147.3600 C   0  0  0  0  0  2  0  0  0  0  0  0
  189.1350  177.6990  138.8580 C   0  0  0  0  0  0  0  0  0  0  0  0
  186.8340  178.2900  139.7350 C   0  0  0  0  0  0  0  0  0  0  0  0
  190.9800  176.8060  145.9350 O   0  0  0  0  0  0  0  0  0  0  0  0
  190.3710  177.5090  139.0310 O   0  0  0  0  0  0  0  0  0  0  0  0
  188.5840  177.7550  137.5330 N   0  0  0  0  0  0  0  0  0  0  0  0
  184.7880  178.4760  145.5610 C   0  0  0  0  0  2  0  0  0  0  0  0
  185.8000  178.3130  144.4480 C   0  0  0  0  0  0  0  0  0  0  0  0
  187.5510  177.7420  146.1230 C   0  0  0  0  0  3  0  0  0  0  0  0
  188.6610  177.7080  141.2610 C   0  0  0  0  0  3  0  0  0  0  0  0
  190.5260  177.0820  143.1460 O   0  0  0  0  0  1  0  0  0  0  0  0
  189.4470  178.3340  148.4590 O   0  0  0  0  0  1  0  0  0  0  0  0
  188.1260  177.7160  143.6820 C   0  0  0  0  0  0  0  0  0  0  0  0
  188.8040  177.3910  146.3980 C   0  0  0  0  0  0  0  0  0  0  0  0
  189.4470  177.8190  136.3610 C   0  0  0  0  0  2  0  0  0  0  0  0
  189.5250  176.4840  135.7020 C   0  0  0  0  0  0  0  0  0  0  0  0
  190.2300  175.4520  136.3040 O   0  0  0  0  0  1  0  0  0  0  0  0
  188.9200  176.2830  134.6170 O   0  0  0  0  0  0  0  0  0  0  0  0
  1 20  1  0  0  0  0
  1 10  1  0  0  0  0
  2 27  2  0  0  0  0
  3  4  1  0  0  0  0
  4 21  1  0  0  0  0
  5  6  2  0  0  0  0
  6 18  1  0  0  0  0
  6 28  1  0  0  0  0
  7 24  2  0  0  0  0
  8 12  1  0  0  0  0
  9 26  1  1  0  0  0
 10 17  1  0  0  0  0
 11 13  1  0  0  0  0
 11  3  1  0  0  0  0
 12  2  1  0  0  0  0
 12 13  1  0  0  0  0
 13 22  2  0  0  0  0
 14 23  1  0  0  0  0
 15  9  1  0  0  0  0
 16 19  2  0  0  0  0
 16  7  1  0  0  0  0
 17  7  1  0  0  0  0
 17  8  2  0  0  0  0
 18 15  1  0  0  0  0
 20 16  1  0  0  0  0
 22 14  1  0  0  0  0
 22 21  1  0  0  0  0
 23 28  2  0  0  0  0
 24  2  1  0  0  0  0
 25  5  1  0  0  0  0
 27  5  1  0  0  0  0
 27 14  1  0  0  0  0
 28  9  1  0  0  0  0
 29 20  1  0  0  0  0
 30 31  1  0  0  0  0
 30 29  1  0  0  0  0
 32 30  2  0  0  0  0
M  END
>  <MODEL>
2

>  <REMARK>
 VINA RESULT:      -9.7      2.221      6.944
  Name = 
  2 active torsions:
  status: ('A' for Active; 'I' for Inactive)
    1  A    between atoms: C_1  and  C_10
    2  A    between atoms: C_10  and  N_24
                            x       y       z     vdW  Elec       q    Type
                         _______ _______ _______ _____ _____    ______ ____

>  <TORSDO>
F 2

$$$$
=
 OpenBabel10262421253D

 32 37  0  0  1  0  0  0  0  0999 V2000
  181.9590  179.6090  140.1330 C   0  0  0  0  0  2  0  0  0  0  0  0
  185.8620  178.2650  143.1210 C   0  0  0  0  0  0  0  0  0  0  0  0
  189.5450  178.3350  139.9070 O   0  0  0  0  0  0  0  0  0  0  0  0
  190.3020  177.4210  140.6590 C   0  0  0  0  0  2  0  0  0  0  0  0
  186.3430  178.1300  145.5820 C   0  0  0  0  0  0  0  0  0  0  0  0
  187.3000  177.9540  146.4900 C   0  0  0  0  0  0  0  0  0  0  0  0
  183.5860  178.6400  142.3160 C   0  0  0  0  0  0  0  0  0  0  0  0
  185.3860  178.3870  140.6780 C   0  0  0  0  0  3  0  0  0  0  0  0
  189.4620  177.5830  147.4010 C   0  0  1  0  0  3  0  0  0  0  0  0
  183.1260  178.6860  139.7800 C   0  0  0  0  0  2  0  0  0  0  0  0
  188.2040  177.9270  140.0270 C   0  0  0  0  0  2  0  0  0  0  0  0
  186.3310  178.2300  141.7540 N   0  0  0  0  0  0  0  0  0  0  0  0
  187.7240  178.0350  141.4580 C   0  0  0  0  0  0  0  0  0  0  0  0
  188.1460  177.8910  143.8240 N   0  0  0  0  0  0  0  0  0  0  0  0
  188.3980  177.7480  148.5120 C   0  0  0  0  0  2  0  0  0  0  0  0
  182.1470  178.8710  142.5220 C   0  0  0  0  0  0  0  0  0  0  0  0
  184.0910  178.5970  140.9230 C   0  0  0  0  0  0  0  0  0  0  0  0
  187.1430  177.9520  147.8590 O   0  0  0  0  0  0  0  0  0  0  0  0
  181.6360  178.7690  143.6720 O   0  0  0  0  0  0  0  0  0  0  0  0
  181.3290  179.1930  141.3860 N   0  0  0  0  0  0  0  0  0  0  0  0
  190.0750  177.6770  142.1500 C   0  0  0  0  0  2  0  0  0  0  0  0
  188.6040  177.8490  142.4580 C   0  0  0  0  0  0  0  0  0  0  0  0
  189.0980  177.7110  144.8950 C   0  0  0  0  0  3  0  0  0  0  0  0
  184.4200  178.4820  143.3490 C   0  0  0  0  0  3  0  0  0  0  0  0
  185.0310  178.3320  146.0000 O   0  0  0  0  0  1  0  0  0  0  0  0
  189.9990  176.2970  147.4620 O   0  0  0  0  0  1  0  0  0  0  0  0
  186.7400  178.1030  144.1350 C   0  0  0  0  0  0  0  0  0  0  0  0
  188.6730  177.7400  146.1540 C   0  0  0  0  0  0  0  0  0  0  0  0
  179.8750  179.1880  141.4800 C   0  0  0  0  0  2  0  0  0  0  0  0
  179.3290  177.8910  140.9900 C   0  0  0  0  0  0  0  0  0  0  0  0
  178.9310  177.7600  139.6670 O   0  0  0  0  0  0  0  0  0  0  0  0
  179.2640  176.9030  141.7670 O   0  0  0  0  0  1  0  0  0  0  0  0
  1 20  1  0  0  0  0
  2 24  1  0  0  0  0
  2 27  2  0  0  0  0
  3 11  1  0  0  0  0
  3  4  1  0  0  0  0
  4 21  1  0  0  0  0
  5 25  1  0  0  0  0
  5  6  2  0  0  0  0
  6 18  1  0  0  0  0
  7 16  1  0  0  0  0
  7 24  2  0  0  0  0
  8 17  2  0  0  0  0
  8 12  1  0  0  0  0
  9 26  1  6  0  0  0
  9 15  1  0  0  0  0
 10  1  1  0  0  0  0
 10 17  1  0  0  0  0
 11 13  1  0  0  0  0
 12  2  1  0  0  0  0
 13 12  1  0  0  0  0
 13 22  2  0  0  0  0
 14 27  1  0  0  0  0
 14 23  1  0  0  0  0
 16 19  2  0  0  0  0
 17  7  1  0  0  0  0
 18 15  1  0  0  0  0
 20 29  1  0  0  0  0
 20 16  1  0  0  0  0
 21 22  1  0  0  0  0
 22 14  1  0  0  0  0
 23 28  2  0  0  0  0
 27  5  1  0  0  0  0
 28  6  1  0  0  0  0
 28  9  1  0  0  0  0
 30 29  1  0  0  0  0
 30 32  1  0  0  0  0
 31 30  2  0  0  0  0
M  END
>  <MODEL>
3

>  <REMARK>
 VINA RESULT:      -9.7      1.682      4.920
  Name = 
  2 active torsions:
  status: ('A' for Active; 'I' for Inactive)
    1  A    between atoms: C_1  and  C_10
    2  A    between atoms: C_10  and  N_24
                            x       y       z     vdW  Elec       q    Type
                         _______ _______ _______ _____ _____    ______ ____

>  <TORSDO>
F 2

$$$$
=
 OpenBabel10262421253D

 32 37  0  0  1  0  0  0  0  0999 V2000
  191.9040  177.5030  140.4790 C   0  0  0  0  0  2  0  0  0  0  0  0
  187.2870  177.9220  142.5960 C   0  0  0  0  0  0  0  0  0  0  0  0
  188.4730  178.2550  147.3260 O   0  0  0  0  0  0  0  0  0  0  0  0
  187.2240  177.7600  147.7390 C   0  0  0  0  0  2  0  0  0  0  0  0
  184.9530  178.4610  141.8430 C   0  0  0  0  0  0  0  0  0  0  0  0
  183.7200  178.7470  142.2570 C   0  0  0  0  0  0  0  0  0  0  0  0
  189.0540  177.4980  140.9630 C   0  0  0  0  0  0  0  0  0  0  0  0
  189.6000  177.3770  143.3460 C   0  0  0  0  0  3  0  0  0  0  0  0
  181.9130  179.1670  143.7400 C   0  0  1  0  0  3  0  0  0  0  0  0
  191.4160  176.8660  141.7810 C   0  0  0  0  0  2  0  0  0  0  0  0
  188.8110  177.5440  146.1600 C   0  0  0  0  0  2  0  0  0  0  0  0
  188.2370  177.7130  143.6650 N   0  0  0  0  0  0  0  0  0  0  0  0
  187.8350  177.8320  145.0410 C   0  0  0  0  0  0  0  0  0  0  0  0
  185.6030  178.3260  144.2840 N   0  0  0  0  0  0  0  0  0  0  0  0
  181.4740  179.2850  142.2610 C   0  0  0  0  0  2  0  0  0  0  0  0
  189.5640  177.3820  139.5860 C   0  0  0  0  0  0  0  0  0  0  0  0
  190.0080  177.2860  142.0780 C   0  0  0  0  0  0  0  0  0  0  0  0
  182.6260  179.0030  141.4620 O   0  0  0  0  0  0  0  0  0  0  0  0
  188.7730  177.4030  138.6030 O   0  0  0  0  0  0  0  0  0  0  0  0
  190.9770  177.2200  139.3840 N   0  0  0  0  0  0  0  0  0  0  0  0
  186.1360  178.2670  146.7900 C   0  0  0  0  0  2  0  0  0  0  0  0
  186.5540  178.1090  145.3450 C   0  0  0  0  0  0  0  0  0  0  0  0
  184.2340  178.6420  144.6160 C   0  0  0  0  0  3  0  0  0  0  0  0
  187.7750  177.7960  141.2080 C   0  0  0  0  0  3  0  0  0  0  0  0
  185.2190  178.3960  140.4790 O   0  0  0  0  0  1  0  0  0  0  0  0
  181.2260  178.1130  144.3440 O   0  0  0  0  0  1  0  0  0  0  0  0
  186.0030  178.2230  142.8880 C   0  0  0  0  0  0  0  0  0  0  0  0
  183.3550  178.8330  143.6370 C   0  0  0  0  0  0  0  0  0  0  0  0
  191.5120  176.8530  138.0800 C   0  0  0  0  0  2  0  0  0  0  0  0
  191.7500  175.3830  138.0130 C   0  0  0  0  0  0  0  0  0  0  0  0
  190.6740  174.5070  137.9690 O   0  0  0  0  0  1  0  0  0  0  0  0
  192.9260  174.9380  137.9600 O   0  0  0  0  0  0  0  0  0  0  0  0
  1 10  1  0  0  0  0
  2 27  2  0  0  0  0
  2 12  1  0  0  0  0
  3  4  1  0  0  0  0
  5  6  2  0  0  0  0
  5 27  1  0  0  0  0
  6 28  1  0  0  0  0
  7 24  2  0  0  0  0
  7 17  1  0  0  0  0
  8 12  1  0  0  0  0
  9 26  1  6  0  0  0
 10 17  1  0  0  0  0
 11  3  1  0  0  0  0
 12 13  1  0  0  0  0
 13 22  2  0  0  0  0
 13 11  1  0  0  0  0
 14 23  1  0  0  0  0
 14 22  1  0  0  0  0
 15  9  1  0  0  0  0
 16  7  1  0  0  0  0
 17  8  2  0  0  0  0
 18  6  1  0  0  0  0
 18 15  1  0  0  0  0
 19 16  2  0  0  0  0
 20 16  1  0  0  0  0
 20  1  1  0  0  0  0
 21  4  1  0  0  0  0
 22 21  1  0  0  0  0
 24  2  1  0  0  0  0
 25  5  1  0  0  0  0
 27 14  1  0  0  0  0
 28  9  1  0  0  0  0
 28 23  2  0  0  0  0
 29 20  1  0  0  0  0
 30 29  1  0  0  0  0
 31 30  1  0  0  0  0
 32 30  2  0  0  0  0
M  END
>  <MODEL>
4

>  <REMARK>
 VINA RESULT:      -9.4      1.561      7.480
  Name = 
  2 active torsions:
  status: ('A' for Active; 'I' for Inactive)
    1  A    between atoms: C_1  and  C_10
    2  A    between atoms: C_10  and  N_24
                            x       y       z     vdW  Elec       q    Type
                         _______ _______ _______ _____ _____    ______ ____

>  <TORSDO>
F 2

$$$$
=
 OpenBabel10262421253D

 32 37  0  0  1  0  0  0  0  0999 V2000
  190.4480  176.6700  136.9900 C   0  0  0  0  0  2  0  0  0  0  0  0
  189.3860  177.4710  141.9090 C   0  0  0  0  0  0  0  0  0  0  0  0
  184.5780  178.3220  141.6840 O   0  0  0  0  0  0  0  0  0  0  0  0
  184.5910  179.0730  142.8710 C   0  0  0  0  0  2  0  0  0  0  0  0
  190.4880  177.0570  144.1270 C   0  0  0  0  0  0  0  0  0  0  0  0
  190.3040  177.0630  145.4450 C   0  0  0  0  0  0  0  0  0  0  0  0
  190.6330  177.1850  139.8270 C   0  0  0  0  0  0  0  0  0  0  0  0
  188.2940  177.8950  139.7100 C   0  0  0  0  0  3  0  0  0  0  0  0
  189.2090  177.3170  147.5380 C   0  0  1  0  0  3  0  0  0  0  0  0
  189.4870  177.7040  137.5770 C   0  0  0  0  0  2  0  0  0  0  0  0
  185.7760  178.6270  141.0130 C   0  0  0  0  0  2  0  0  0  0  0  0
  188.2160  177.8440  141.1460 N   0  0  0  0  0  0  0  0  0  0  0  0
  186.9800  178.1690  141.8060 C   0  0  0  0  0  0  0  0  0  0  0  0
  188.0730  177.7820  143.9170 N   0  0  0  0  0  0  0  0  0  0  0  0
  190.6730  176.8490  147.7160 C   0  0  0  0  0  2  0  0  0  0  0  0
  191.8450  176.8430  139.0640 C   0  0  0  0  0  0  0  0  0  0  0  0
  189.4200  177.5730  139.0690 C   0  0  0  0  0  0  0  0  0  0  0  0
  191.2370  176.7410  146.4060 O   0  0  0  0  0  0  0  0  0  0  0  0
  192.9450  176.6520  139.6530 O   0  0  0  0  0  0  0  0  0  0  0  0
  191.7580  176.7550  137.6330 N   0  0  0  0  0  0  0  0  0  0  0  0
  185.6050  178.4690  143.8450 C   0  0  0  0  0  2  0  0  0  0  0  0
  186.9130  178.1590  143.1500 C   0  0  0  0  0  0  0  0  0  0  0  0
  187.9910  177.7540  145.3580 C   0  0  0  0  0  3  0  0  0  0  0  0
  190.6170  177.1390  141.1630 C   0  0  0  0  0  3  0  0  0  0  0  0
  191.7300  176.7010  143.6110 O   0  0  0  0  0  1  0  0  0  0  0  0
  189.0540  178.5780  148.1130 O   0  0  0  0  0  1  0  0  0  0  0  0
  189.3250  177.4360  143.2580 C   0  0  0  0  0  0  0  0  0  0  0  0
  189.0650  177.4150  146.0640 C   0  0  0  0  0  0  0  0  0  0  0  0
  192.9580  176.6680  136.8110 C   0  0  0  0  0  2  0  0  0  0  0  0
  193.1880  175.2600  136.3800 C   0  0  0  0  0  0  0  0  0  0  0  0
  193.6070  174.3110  137.3010 O   0  0  0  0  0  1  0  0  0  0  0  0
  192.9660  174.9240  135.1880 O   0  0  0  0  0  0  0  0  0  0  0  0
  1 10  1  0  0  0  0
  1 20  1  0  0  0  0
  2 27  2  0  0  0  0
  3  4  1  0  0  0  0
  4 21  1  0  0  0  0
  5  6  2  0  0  0  0
  6 28  1  0  0  0  0
  6 18  1  0  0  0  0
  7 24  2  0  0  0  0
  8 12  1  0  0  0  0
  9 15  1  0  0  0  0
  9 26  1  1  0  0  0
 10 17  1  0  0  0  0
 11  3  1  0  0  0  0
 11 13  1  0  0  0  0
 12 13  1  0  0  0  0
 12  2  1  0  0  0  0
 13 22  2  0  0  0  0
 14 23  1  0  0  0  0
 16 19  2  0  0  0  0
 16  7  1  0  0  0  0
 17  8  2  0  0  0  0
 17  7  1  0  0  0  0
 18 15  1  0  0  0  0
 20 16  1  0  0  0  0
 22 21  1  0  0  0  0
 22 14  1  0  0  0  0
 23 28  2  0  0  0  0
 24  2  1  0  0  0  0
 25  5  1  0  0  0  0
 27 14  1  0  0  0  0
 27  5  1  0  0  0  0
 28  9  1  0  0  0  0
 29 20  1  0  0  0  0
 30 29  1  0  0  0  0
 30 31  1  0  0  0  0
 32 30  2  0  0  0  0
M  END
>  <MODEL>
5

>  <REMARK>
 VINA RESULT:      -9.3      2.444      8.271
  Name = 
  2 active torsions:
  status: ('A' for Active; 'I' for Inactive)
    1  A    between atoms: C_1  and  C_10
    2  A    between atoms: C_10  and  N_24
                            x       y       z     vdW  Elec       q    Type
                         _______ _______ _______ _____ _____    ______ ____

>  <TORSDO>
F 2

$$$$
=
 OpenBabel10262421253D

 32 37  0  0  1  0  0  0  0  0999 V2000
  190.5220  177.2590  147.7030 C   0  0  0  0  0  2  0  0  0  0  0  0
  187.6550  177.7650  143.5210 C   0  0  0  0  0  0  0  0  0  0  0  0
  183.4700  179.3770  145.4650 O   0  0  0  0  0  0  0  0  0  0  0  0
  182.7090  178.8870  144.3910 C   0  0  0  0  0  2  0  0  0  0  0  0
  188.0150  177.8800  141.0380 C   0  0  0  0  0  0  0  0  0  0  0  0
  187.4330  178.1450  139.8710 C   0  0  0  0  0  0  0  0  0  0  0  0
  189.4760  177.1120  145.0130 C   0  0  0  0  0  0  0  0  0  0  0  0
  187.2920  177.6410  145.9830 C   0  0  0  0  0  3  0  0  0  0  0  0
  185.7460  178.7530  138.3130 C   0  0  1  0  0  3  0  0  0  0  0  0
  189.0380  176.9250  147.5470 C   0  0  0  0  0  2  0  0  0  0  0  0
  184.4880  178.4320  145.6880 C   0  0  0  0  0  2  0  0  0  0  0  0
  186.7840  177.9180  144.6650 N   0  0  0  0  0  0  0  0  0  0  0  0
  185.4190  178.3400  144.4990 C   0  0  0  0  0  0  0  0  0  0  0  0
  185.7940  178.4200  142.1220 N   0  0  0  0  0  0  0  0  0  0  0  0
  187.0910  178.4560  137.6070 C   0  0  0  0  0  2  0  0  0  0  0  0
  190.8650  176.7030  145.2830 C   0  0  0  0  0  0  0  0  0  0  0  0
  188.5620  177.2740  146.1690 C   0  0  0  0  0  0  0  0  0  0  0  0
  188.0240  178.0920  138.6280 O   0  0  0  0  0  0  0  0  0  0  0  0
  191.6430  176.4050  144.3360 O   0  0  0  0  0  0  0  0  0  0  0  0
  191.3100  176.6270  146.6460 N   0  0  0  0  0  0  0  0  0  0  0  0
  183.5040  179.0390  143.0920 C   0  0  0  0  0  2  0  0  0  0  0  0
  184.9300  178.5640  143.2660 C   0  0  0  0  0  0  0  0  0  0  0  0
  185.2690  178.6810  140.8020 C   0  0  0  0  0  3  0  0  0  0  0  0
  189.0480  177.3420  143.7680 C   0  0  0  0  0  3  0  0  0  0  0  0
  189.3540  177.5020  141.0660 O   0  0  0  0  0  1  0  0  0  0  0  0
  184.7920  177.8250  137.8970 O   0  0  0  0  0  1  0  0  0  0  0  0
  187.1820  178.0090  142.2790 C   0  0  0  0  0  0  0  0  0  0  0  0
  186.0650  178.5390  139.7460 C   0  0  0  0  0  0  0  0  0  0  0  0
  192.5780  175.9970  146.9890 C   0  0  0  0  0  2  0  0  0  0  0  0
  192.7400  175.9320  148.4690 C   0  0  0  0  0  0  0  0  0  0  0  0
  193.1790  177.0460  149.1700 O   0  0  0  0  0  1  0  0  0  0  0  0
  192.4430  174.8770  149.0880 O   0  0  0  0  0  0  0  0  0  0  0  0
  2 24  1  0  0  0  0
  2 12  1  0  0  0  0
  3 11  1  0  0  0  0
  4  3  1  0  0  0  0
  5 25  1  0  0  0  0
  5 27  1  0  0  0  0
  6  5  2  0  0  0  0
  7 16  1  0  0  0  0
  7 17  1  0  0  0  0
  8 17  2  0  0  0  0
  9 26  1  6  0  0  0
  9 28  1  0  0  0  0
 10  1  1  0  0  0  0
 12  8  1  0  0  0  0
 13 12  1  0  0  0  0
 13 11  1  0  0  0  0
 14 27  1  0  0  0  0
 14 22  1  0  0  0  0
 15  9  1  0  0  0  0
 15 18  1  0  0  0  0
 16 20  1  0  0  0  0
 17 10  1  0  0  0  0
 18  6  1  0  0  0  0
 19 16  2  0  0  0  0
 20 29  1  0  0  0  0
 20  1  1  0  0  0  0
 21 22  1  0  0  0  0
 21  4  1  0  0  0  0
 22 13  2  0  0  0  0
 23 14  1  0  0  0  0
 24  7  2  0  0  0  0
 27  2  2  0  0  0  0
 28  6  1  0  0  0  0
 28 23  2  0  0  0  0
 29 30  1  0  0  0  0
 30 32  2  0  0  0  0
 30 31  1  0  0  0  0
M  END
>  <MODEL>
6

>  <REMARK>
 VINA RESULT:      -9.2      2.548      7.353
  Name = 
  2 active torsions:
  status: ('A' for Active; 'I' for Inactive)
    1  A    between atoms: C_1  and  C_10
    2  A    between atoms: C_10  and  N_24
                            x       y       z     vdW  Elec       q    Type
                         _______ _______ _______ _____ _____    ______ ____

>  <TORSDO>
F 2

$$$$
=
 OpenBabel10262421253D

 32 37  0  0  1  0  0  0  0  0999 V2000
  190.8330  176.6460  137.4810 C   0  0  0  0  0  2  0  0  0  0  0  0
  188.1280  177.8470  141.6300 C   0  0  0  0  0  0  0  0  0  0  0  0
  183.6640  178.3460  139.7030 O   0  0  0  0  0  0  0  0  0  0  0  0
  183.2470  179.2080  140.7310 C   0  0  0  0  0  2  0  0  0  0  0  0
  188.4160  177.7240  144.1210 C   0  0  0  0  0  0  0  0  0  0  0  0
  187.7930  177.8450  145.2900 C   0  0  0  0  0  0  0  0  0  0  0  0
  190.0200  177.4450  140.1370 C   0  0  0  0  0  0  0  0  0  0  0  0
  187.8420  177.9810  139.1580 C   0  0  0  0  0  3  0  0  0  0  0  0
  186.0400  178.2260  146.8490 C   0  0  1  0  0  3  0  0  0  0  0  0
  189.6970  177.6650  137.5880 C   0  0  0  0  0  2  0  0  0  0  0  0
  185.0090  178.6650  139.4440 C   0  0  0  0  0  2  0  0  0  0  0  0
  187.2790  178.0650  140.4800 N   0  0  0  0  0  0  0  0  0  0  0  0
  185.8820  178.3670  140.6440 C   0  0  0  0  0  0  0  0  0  0  0  0
  186.1990  178.2610  143.0280 N   0  0  0  0  0  0  0  0  0  0  0  0
  187.3680  177.8770  147.5610 C   0  0  0  0  0  2  0  0  0  0  0  0
  191.4300  177.1130  139.8700 C   0  0  0  0  0  0  0  0  0  0  0  0
  189.1280  177.6750  138.9750 C   0  0  0  0  0  0  0  0  0  0  0  0
  188.3490  177.6810  146.5390 O   0  0  0  0  0  0  0  0  0  0  0  0
  192.2670  177.0550  140.8130 O   0  0  0  0  0  0  0  0  0  0  0  0
  191.8400  176.8810  138.5140 N   0  0  0  0  0  0  0  0  0  0  0  0
  183.8850  178.7700  142.0510 C   0  0  0  0  0  2  0  0  0  0  0  0
  185.3600  178.4840  141.8780 C   0  0  0  0  0  0  0  0  0  0  0  0
  185.6280  178.3680  144.3510 C   0  0  0  0  0  3  0  0  0  0  0  0
  189.5490  177.5270  141.3840 C   0  0  0  0  0  3  0  0  0  0  0  0
  189.7700  177.4040  144.0970 O   0  0  0  0  0  1  0  0  0  0  0  0
  185.6590  179.5240  147.1900 O   0  0  0  0  0  1  0  0  0  0  0  0
  187.6100  177.9380  142.8740 C   0  0  0  0  0  0  0  0  0  0  0  0
  186.4060  178.1710  145.4110 C   0  0  0  0  0  0  0  0  0  0  0  0
  193.2510  176.7960  138.1600 C   0  0  0  0  0  2  0  0  0  0  0  0
  193.5010  175.5900  137.3200 C   0  0  0  0  0  0  0  0  0  0  0  0
  193.7400  175.7280  135.9600 O   0  0  0  0  0  0  0  0  0  0  0  0
  193.5320  174.4500  137.8510 O   0  0  0  0  0  1  0  0  0  0  0  0
  1 10  1  0  0  0  0
  1 20  1  0  0  0  0
  2 27  2  0  0  0  0
  3  4  1  0  0  0  0
  4 21  1  0  0  0  0
  5  6  2  0  0  0  0
  6 28  1  0  0  0  0
  6 18  1  0  0  0  0
  7 24  2  0  0  0  0
  8 12  1  0  0  0  0
  9 26  1  1  0  0  0
  9 15  1  0  0  0  0
 10 17  1  0  0  0  0
 11  3  1  0  0  0  0
 11 13  1  0  0  0  0
 12 13  1  0  0  0  0
 12  2  1  0  0  0  0
 13 22  2  0  0  0  0
 14 23  1  0  0  0  0
 16  7  1  0  0  0  0
 16 19  2  0  0  0  0
 17  8  2  0  0  0  0
 17  7  1  0  0  0  0
 18 15  1  0  0  0  0
 20 16  1  0  0  0  0
 22 21  1  0  0  0  0
 22 14  1  0  0  0  0
 23 28  2  0  0  0  0
 24  2  1  0  0  0  0
 25  5  1  0  0  0  0
 27 14  1  0  0  0  0
 27  5  1  0  0  0  0
 28  9  1  0  0  0  0
 29 20  1  0  0  0  0
 30 32  1  0  0  0  0
 30 29  1  0  0  0  0
 31 30  2  0  0  0  0
M  END
>  <MODEL>
7

>  <REMARK>
 VINA RESULT:      -9.0      2.286      8.578
  Name = 
  2 active torsions:
  status: ('A' for Active; 'I' for Inactive)
    1  A    between atoms: C_1  and  C_10
    2  A    between atoms: C_10  and  N_24
                            x       y       z     vdW  Elec       q    Type
                         _______ _______ _______ _____ _____    ______ ____

>  <TORSDO>
F 2

$$$$
=
 OpenBabel10262421253D

 32 37  0  0  1  0  0  0  0  0999 V2000
  191.2280  177.0980  137.7660 C   0  0  0  0  0  2  0  0  0  0  0  0
  188.4500  177.5190  142.0180 C   0  0  0  0  0  0  0  0  0  0  0  0
  191.9430  177.2610  145.4270 O   0  0  0  0  0  0  0  0  0  0  0  0
  191.0470  176.7880  146.4000 C   0  0  0  0  0  2  0  0  0  0  0  0
  186.1330  178.2580  142.6440 C   0  0  0  0  0  0  0  0  0  0  0  0
  185.3310  178.5600  143.6620 C   0  0  0  0  0  0  0  0  0  0  0  0
  189.0600  177.1880  139.6750 C   0  0  0  0  0  0  0  0  0  0  0  0
  190.7460  176.7740  141.4000 C   0  0  0  0  0  3  0  0  0  0  0  0
  184.6090  178.9060  145.8990 C   0  0  1  0  0  3  0  0  0  0  0  0
  191.4240  176.3460  139.0840 C   0  0  0  0  0  2  0  0  0  0  0  0
  191.5530  176.6670  144.2120 C   0  0  0  0  0  2  0  0  0  0  0  0
  189.7900  177.1420  142.4100 N   0  0  0  0  0  0  0  0  0  0  0  0
  190.1740  177.1290  143.7960 C   0  0  0  0  0  0  0  0  0  0  0  0
  187.9370  177.8190  144.3620 N   0  0  0  0  0  0  0  0  0  0  0  0
  183.4810  179.2110  144.8830 C   0  0  0  0  0  2  0  0  0  0  0  0
  188.7670  177.1990  138.2320 C   0  0  0  0  0  0  0  0  0  0  0  0
  190.4260  176.8030  140.1040 C   0  0  0  0  0  0  0  0  0  0  0  0
  184.0160  178.9600  143.5810 O   0  0  0  0  0  0  0  0  0  0  0  0
  187.5880  177.3710  137.8160 O   0  0  0  0  0  0  0  0  0  0  0  0
  189.8450  176.9870  137.3070 N   0  0  0  0  0  0  0  0  0  0  0  0
  189.6830  177.4540  146.2020 C   0  0  0  0  0  2  0  0  0  0  0  0
  189.2720  177.4360  144.7460 C   0  0  0  0  0  0  0  0  0  0  0  0
  186.9790  178.1670  145.3850 C   0  0  0  0  0  3  0  0  0  0  0  0
  188.1310  177.5230  140.5760 C   0  0  0  0  0  3  0  0  0  0  0  0
  185.6450  178.3330  141.3430 O   0  0  0  0  0  1  0  0  0  0  0  0
  184.2300  177.8290  146.7000 O   0  0  0  0  0  1  0  0  0  0  0  0
  187.5420  177.8520  142.9610 C   0  0  0  0  0  0  0  0  0  0  0  0
  185.7450  178.5110  145.0300 C   0  0  0  0  0  0  0  0  0  0  0  0
  189.5850  176.7400  135.8940 C   0  0  0  0  0  2  0  0  0  0  0  0
  189.4300  175.2790  135.6450 C   0  0  0  0  0  0  0  0  0  0  0  0
  190.5510  174.4810  135.4670 O   0  0  0  0  0  0  0  0  0  0  0  0
  188.2820  174.7630  135.6310 O   0  0  0  0  0  1  0  0  0  0  0  0
  1 10  1  0  0  0  0
  2 12  1  0  0  0  0
  2 27  2  0  0  0  0
  3  4  1  0  0  0  0
  5 27  1  0  0  0  0
  5  6  2  0  0  0  0
  6 28  1  0  0  0  0
  7 17  1  0  0  0  0
  7 24  2  0  0  0  0
  8 12  1  0  0  0  0
  9 26  1  1  0  0  0
 10 17  1  0  0  0  0
 11  3  1  0  0  0  0
 12 13  1  0  0  0  0
 13 11  1  0  0  0  0
 13 22  2  0  0  0  0
 14 22  1  0  0  0  0
 14 23  1  0  0  0  0
 15  9  1  0  0  0  0
 16  7  1  0  0  0  0
 17  8  2  0  0  0  0
 18  6  1  0  0  0  0
 18 15  1  0  0  0  0
 19 16  2  0  0  0  0
 20  1  1  0  0  0  0
 20 16  1  0  0  0  0
 21  4  1  0  0  0  0
 22 21  1  0  0  0  0
 24  2  1  0  0  0  0
 25  5  1  0  0  0  0
 27 14  1  0  0  0  0
 28 23  2  0  0  0  0
 28  9  1  0  0  0  0
 29 20  1  0  0  0  0
 30 29  1  0  0  0  0
 31 30  2  0  0  0  0
 32 30  1  0  0  0  0
M  END
>  <MODEL>
8

>  <REMARK>
 VINA RESULT:      -9.0      2.476      7.180
  Name = 
  2 active torsions:
  status: ('A' for Active; 'I' for Inactive)
    1  A    between atoms: C_1  and  C_10
    2  A    between atoms: C_10  and  N_24
                            x       y       z     vdW  Elec       q    Type
                         _______ _______ _______ _____ _____    ______ ____

>  <TORSDO>
F 2

$$$$
=
 OpenBabel10262421253D

 32 37  0  0  1  0  0  0  0  0999 V2000
  191.6450  176.4970  144.9590 C   0  0  0  0  0  2  0  0  0  0  0  0
  187.6830  178.0040  142.1310 C   0  0  0  0  0  0  0  0  0  0  0  0
  189.5130  177.4740  137.6290 O   0  0  0  0  0  0  0  0  0  0  0  0
  188.6390  178.4340  137.0920 C   0  0  0  0  0  2  0  0  0  0  0  0
  185.2210  178.3750  142.4520 C   0  0  0  0  0  0  0  0  0  0  0  0
  184.0700  178.6100  141.8250 C   0  0  0  0  0  0  0  0  0  0  0  0
  189.1460  177.6290  144.0510 C   0  0  0  0  0  0  0  0  0  0  0  0
  190.1290  177.6480  141.8100 C   0  0  0  0  0  3  0  0  0  0  0  0
  182.5440  178.9970  140.0450 C   0  0  1  0  0  3  0  0  0  0  0  0
  191.6810  177.3370  143.6810 C   0  0  0  0  0  2  0  0  0  0  0  0
  189.8700  177.9390  138.9080 C   0  0  0  0  0  2  0  0  0  0  0  0
  188.8230  177.8820  141.2500 N   0  0  0  0  0  0  0  0  0  0  0  0
  188.6680  177.9960  139.8250 C   0  0  0  0  0  0  0  0  0  0  0  0
  186.3140  178.3690  140.1700 N   0  0  0  0  0  0  0  0  0  0  0  0
  181.8270  178.9850  141.4170 C   0  0  0  0  0  2  0  0  0  0  0  0
  189.3980  177.4700  145.4940 C   0  0  0  0  0  0  0  0  0  0  0  0
  190.2980  177.5100  143.1270 C   0  0  0  0  0  0  0  0  0  0  0  0
  182.8320  178.7590  142.4090 O   0  0  0  0  0  0  0  0  0  0  0  0
  188.4880  177.7080  146.3360 O   0  0  0  0  0  0  0  0  0  0  0  0
  190.7050  177.0630  145.9250 N   0  0  0  0  0  0  0  0  0  0  0  0
  187.2850  178.3410  137.7990 C   0  0  0  0  0  2  0  0  0  0  0  0
  187.4560  178.2530  139.2990 C   0  0  0  0  0  0  0  0  0  0  0  0
  185.0120  178.6250  139.6000 C   0  0  0  0  0  3  0  0  0  0  0  0
  187.9170  177.8630  143.5820 C   0  0  0  0  0  3  0  0  0  0  0  0
  185.2340  178.2640  143.8390 O   0  0  0  0  0  1  0  0  0  0  0  0
  182.4240  180.2630  139.4720 O   0  0  0  0  0  1  0  0  0  0  0  0
  186.4580  178.2390  141.6130 C   0  0  0  0  0  0  0  0  0  0  0  0
  183.9610  178.7410  140.4050 C   0  0  0  0  0  0  0  0  0  0  0  0
  191.0870  177.1280  147.3300 C   0  0  0  0  0  2  0  0  0  0  0  0
  191.8530  175.9080  147.7140 C   0  0  0  0  0  0  0  0  0  0  0  0
  193.1800  176.0160  148.1070 O   0  0  0  0  0  1  0  0  0  0  0  0
  191.2850  174.7850  147.7180 O   0  0  0  0  0  0  0  0  0  0  0  0
  1 20  1  0  0  0  0
  2 24  1  0  0  0  0
  3 11  1  0  0  0  0
  4  3  1  0  0  0  0
  4 21  1  0  0  0  0
  5 25  1  0  0  0  0
  6 18  1  0  0  0  0
  6  5  2  0  0  0  0
  7 16  1  0  0  0  0
  8 17  2  0  0  0  0
  9 26  1  1  0  0  0
  9 28  1  0  0  0  0
  9 15  1  0  0  0  0
 10  1  1  0  0  0  0
 11 13  1  0  0  0  0
 12  8  1  0  0  0  0
 12  2  1  0  0  0  0
 13 12  1  0  0  0  0
 14 27  1  0  0  0  0
 15 18  1  0  0  0  0
 16 20  1  0  0  0  0
 16 19  2  0  0  0  0
 17 10  1  0  0  0  0
 17  7  1  0  0  0  0
 20 29  1  0  0  0  0
 21 22  1  0  0  0  0
 22 13  2  0  0  0  0
 22 14  1  0  0  0  0
 23 14  1  0  0  0  0
 23 28  2  0  0  0  0
 24  7  2  0  0  0  0
 27  2  2  0  0  0  0
 27  5  1  0  0  0  0
 28  6  1  0  0  0  0
 29 30  1  0  0  0  0
 30 32  2  0  0  0  0
 30 31  1  0  0  0  0
M  END
>  <MODEL>
9

>  <REMARK>
 VINA RESULT:      -9.0      2.197      8.079
  Name = 
  2 active torsions:
  status: ('A' for Active; 'I' for Inactive)
    1  A    between atoms: C_1  and  C_10
    2  A    between atoms: C_10  and  N_24
                            x       y       z     vdW  Elec       q    Type
                         _______ _______ _______ _____ _____    ______ ____

>  <TORSDO>
F 2

$$$$
