=
 OpenBabel10262420483D

 28 32  0  0  1  0  0  0  0  0999 V2000
  182.4600  178.7760  140.6380 C   0  0  0  0  0  0  0  0  0  0  0  0
  183.5160  178.5220  139.5920 C   0  0  1  0  0  3  0  0  0  0  0  0
  185.1720  178.1650  141.4570 C   0  0  1  0  0  3  0  0  0  0  0  0
  186.1110  178.7470  145.6560 C   0  0  0  0  0  2  0  0  0  0  0  0
  179.4210  179.5130  143.4440 O   0  0  0  0  0  1  0  0  0  0  0  0
  184.9290  178.8250  140.1040 C   0  0  0  0  0  2  0  0  0  0  0  0
  188.2010  178.0370  143.7820 C   0  0  0  0  0  2  0  0  0  0  0  0
  184.3970  178.5650  143.8360 C   0  0  0  0  0  0  0  0  0  0  0  0
  188.2110  177.6370  146.1960 N   0  0  0  0  0  0  0  0  0  0  0  0
  185.7550  178.3630  144.2870 N   0  0  0  0  0  0  0  0  0  0  0  0
  186.5610  178.5160  141.9700 C   0  0  0  0  0  2  0  0  0  0  0  0
  188.5270  177.0540  144.8990 C   0  0  0  0  0  2  0  0  0  0  0  0
  181.7530  179.0300  142.9630 C   0  0  0  0  0  0  0  0  0  0  0  0
  184.0970  178.5380  142.4560 C   0  0  0  0  0  0  0  0  0  0  0  0
  186.7560  177.8570  143.3270 C   0  0  1  0  0  3  0  0  0  0  0  0
  180.1410  179.2520  141.1650 C   0  0  0  0  0  3  0  0  0  0  0  0
  182.0650  179.0560  144.3260 C   0  0  0  0  0  3  0  0  0  0  0  0
  180.4380  179.2650  142.5300 C   0  0  0  0  0  0  0  0  0  0  0  0
  188.7930  176.7600  147.1950 C   0  0  0  0  0  1  0  0  0  0  0  0
  186.7680  177.5870  146.3910 C   0  0  0  0  0  2  0  0  0  0  0  0
  183.3720  178.8310  144.7560 C   0  0  0  0  0  3  0  0  0  0  0  0
  181.1450  179.0100  140.2260 C   0  0  0  0  0  3  0  0  0  0  0  0
  182.7740  178.7710  142.0160 C   0  0  0  0  0  0  0  0  0  0  0  0
  184.1150  176.8560  137.8190 C   0  0  0  0  0  0  0  0  0  0  0  0
  182.6340  176.1460  139.7170 C   0  0  0  0  0  1  0  0  0  0  0  0
  183.4160  177.1720  139.0340 N   0  0  0  0  0  0  0  0  0  0  0  0
  184.0500  175.4900  137.2260 C   0  0  0  0  0  1  0  0  0  0  0  0
  184.7980  177.7390  137.2330 O   0  0  0  0  0  0  0  0  0  0  0  0
  1 23  1  0  0  0  0
  2 26  1  1  0  0  0
  2  6  1  0  0  0  0
  2  1  1  0  0  0  0
  3  6  1  6  0  0  0
  3 11  1  0  0  0  0
  3 14  1  0  0  0  0
  4 20  1  0  0  0  0
  7 12  1  0  0  0  0
  8 10  1  0  0  0  0
  8 21  1  0  0  0  0
  9 20  1  0  0  0  0
  9 19  1  0  0  0  0
 10  4  1  0  0  0  0
 12  9  1  0  0  0  0
 13 17  1  0  0  0  0
 14  8  2  0  0  0  0
 15 11  1  6  0  0  0
 15  7  1  0  0  0  0
 15 10  1  0  0  0  0
 16 18  2  0  0  0  0
 17 21  2  0  0  0  0
 18 13  1  0  0  0  0
 18  5  1  0  0  0  0
 22  1  2  0  0  0  0
 22 16  1  0  0  0  0
 23 14  1  0  0  0  0
 23 13  2  0  0  0  0
 24 26  1  0  0  0  0
 26 25  1  0  0  0  0
 27 24  1  0  0  0  0
 28 24  2  0  0  0  0
M  END
>  <MODEL>
1

>  <REMARK>
 VINA RESULT:      -8.7      0.000      0.000
  Name = 
  1 active torsions:
  status: ('A' for Active; 'I' for Inactive)
    1  A    between atoms: C_2  and  N_11
                            x       y       z     vdW  Elec       q    Type
                         _______ _______ _______ _____ _____    ______ ____

>  <TORSDO>
F 1

$$$$
=
 OpenBabel10262420483D

 28 32  0  0  1  0  0  0  0  0999 V2000
  182.2770  178.7120  141.6170 C   0  0  0  0  0  0  0  0  0  0  0  0
  181.7830  178.6440  140.1940 C   0  0  1  0  0  3  0  0  0  0  0  0
  184.1670  178.2870  139.4600 C   0  0  1  0  0  3  0  0  0  0  0  0
  188.3760  178.6030  140.4750 C   0  0  0  0  0  2  0  0  0  0  0  0
  183.5170  178.9320  145.6250 O   0  0  0  0  0  1  0  0  0  0  0  0
  182.8660  179.0320  139.1810 C   0  0  0  0  0  2  0  0  0  0  0  0
  187.5670  178.2460  137.7180 C   0  0  0  0  0  2  0  0  0  0  0  0
  185.9890  178.4160  141.2160 C   0  0  0  0  0  0  0  0  0  0  0  0
  189.7320  177.6500  138.6900 N   0  0  0  0  0  0  0  0  0  0  0  0
  186.9750  178.3030  140.1660 N   0  0  0  0  0  0  0  0  0  0  0  0
  185.2420  178.7210  138.4740 C   0  0  0  0  0  2  0  0  0  0  0  0
  188.6790  177.2080  137.7850 C   0  0  0  0  0  2  0  0  0  0  0  0
  184.0760  178.7070  143.2710 C   0  0  0  0  0  0  0  0  0  0  0  0
  184.6150  178.4760  140.8940 C   0  0  0  0  0  0  0  0  0  0  0  0
  186.5250  177.9720  138.7990 C   0  0  1  0  0  3  0  0  0  0  0  0
  181.7660  178.9280  143.9770 C   0  0  0  0  0  3  0  0  0  0  0  0
  185.4400  178.6480  143.5750 C   0  0  0  0  0  3  0  0  0  0  0  0
  183.1250  178.8550  144.2930 C   0  0  0  0  0  0  0  0  0  0  0  0
  190.8530  176.7510  138.4900 C   0  0  0  0  0  1  0  0  0  0  0  0
  189.2820  177.4520  140.0610 C   0  0  0  0  0  2  0  0  0  0  0  0
  186.3840  178.5090  142.5590 C   0  0  0  0  0  3  0  0  0  0  0  0
  181.3460  178.8580  142.6480 C   0  0  0  0  0  3  0  0  0  0  0  0
  183.6550  178.6220  141.9210 C   0  0  0  0  0  0  0  0  0  0  0  0
  179.7620  177.2250  139.7700 C   0  0  0  0  0  0  0  0  0  0  0  0
  182.0380  176.1740  139.6720 C   0  0  0  0  0  1  0  0  0  0  0  0
  181.1890  177.3410  139.8860 N   0  0  0  0  0  0  0  0  0  0  0  0
  179.1190  175.9190  139.4440 C   0  0  0  0  0  1  0  0  0  0  0  0
  179.0270  178.2340  139.9460 O   0  0  0  0  0  0  0  0  0  0  0  0
  1 23  2  0  0  0  0
  1 22  1  0  0  0  0
  2 26  1  6  0  0  0
  2  1  1  0  0  0  0
  3 11  1  6  0  0  0
  3 14  1  0  0  0  0
  6  3  1  0  0  0  0
  6  2  1  0  0  0  0
  7 12  1  0  0  0  0
  8 21  1  0  0  0  0
  9 20  1  0  0  0  0
 10  4  1  0  0  0  0
 10  8  1  0  0  0  0
 11 15  1  0  0  0  0
 12  9  1  0  0  0  0
 13 17  1  0  0  0  0
 13 18  2  0  0  0  0
 14  8  2  0  0  0  0
 14 23  1  0  0  0  0
 15  7  1  6  0  0  0
 15 10  1  0  0  0  0
 16 18  1  0  0  0  0
 18  5  1  0  0  0  0
 19  9  1  0  0  0  0
 20  4  1  0  0  0  0
 21 17  2  0  0  0  0
 22 16  2  0  0  0  0
 23 13  1  0  0  0  0
 24 26  1  0  0  0  0
 24 28  2  0  0  0  0
 25 26  1  0  0  0  0
 27 24  1  0  0  0  0
M  END
>  <MODEL>
2

>  <REMARK>
 VINA RESULT:      -8.2      2.774      4.494
  Name = 
  1 active torsions:
  status: ('A' for Active; 'I' for Inactive)
    1  A    between atoms: C_2  and  N_11
                            x       y       z     vdW  Elec       q    Type
                         _______ _______ _______ _____ _____    ______ ____

>  <TORSDO>
F 1

$$$$
=
 OpenBabel10262420483D

 28 32  0  0  1  0  0  0  0  0999 V2000
  183.0630  178.8620  142.0730 C   0  0  0  0  0  0  0  0  0  0  0  0
  182.2850  178.9750  140.7870 C   0  0  1  0  0  3  0  0  0  0  0  0
  184.4250  178.5180  139.5380 C   0  0  1  0  0  3  0  0  0  0  0  0
  188.7630  178.4150  139.6610 C   0  0  0  0  0  2  0  0  0  0  0  0
  185.1090  178.5820  145.7320 O   0  0  0  0  0  1  0  0  0  0  0  0
  183.1700  179.3820  139.6030 C   0  0  0  0  0  2  0  0  0  0  0  0
  187.3790  178.4000  137.1170 C   0  0  0  0  0  2  0  0  0  0  0  0
  186.5700  178.3320  140.8720 C   0  0  0  0  0  0  0  0  0  0  0  0
  189.6310  177.5490  137.5560 N   0  0  0  0  0  0  0  0  0  0  0  0
  187.3070  178.2520  139.6320 N   0  0  0  0  0  0  0  0  0  0  0  0
  185.3120  178.9670  138.3860 C   0  0  0  0  0  2  0  0  0  0  0  0
  188.3790  177.2800  136.8600 C   0  0  0  0  0  2  0  0  0  0  0  0
  185.1520  178.5550  143.3020 C   0  0  0  0  0  0  0  0  0  0  0  0
  185.1710  178.5270  140.8550 C   0  0  0  0  0  0  0  0  0  0  0  0
  186.5580  178.0960  138.3680 C   0  0  1  0  0  3  0  0  0  0  0  0
  183.0660  178.8750  144.4980 C   0  0  0  0  0  3  0  0  0  0  0  0
  186.5380  178.3650  143.3050 C   0  0  0  0  0  3  0  0  0  0  0  0
  184.4480  178.6700  144.5120 C   0  0  0  0  0  0  0  0  0  0  0  0
  190.5980  176.5930  137.0480 C   0  0  0  0  0  1  0  0  0  0  0  0
  189.4530  177.2470  138.9700 C   0  0  0  0  0  2  0  0  0  0  0  0
  187.2380  178.2590  142.1040 C   0  0  0  0  0  3  0  0  0  0  0  0
  182.3790  178.9720  143.2870 C   0  0  0  0  0  3  0  0  0  0  0  0
  184.4590  178.6390  142.0700 C   0  0  0  0  0  0  0  0  0  0  0  0
  180.1140  177.7240  140.7940 C   0  0  0  0  0  0  0  0  0  0  0  0
  182.1740  176.5970  139.9080 C   0  0  0  0  0  1  0  0  0  0  0  0
  181.5210  177.7580  140.5040 N   0  0  0  0  0  0  0  0  0  0  0  0
  179.2980  176.5090  140.5080 C   0  0  0  0  0  1  0  0  0  0  0  0
  179.5460  178.7280  141.3010 O   0  0  0  0  0  0  0  0  0  0  0  0
  1 22  1  0  0  0  0
  2 26  1  6  0  0  0
  2  1  1  0  0  0  0
  3 11  1  6  0  0  0
  3  6  1  0  0  0  0
  3 14  1  0  0  0  0
  6  2  1  0  0  0  0
  8 21  1  0  0  0  0
  9 20  1  0  0  0  0
 10  4  1  0  0  0  0
 10  8  1  0  0  0  0
 12  7  1  0  0  0  0
 12  9  1  0  0  0  0
 13 17  1  0  0  0  0
 13 18  2  0  0  0  0
 14  8  2  0  0  0  0
 14 23  1  0  0  0  0
 15  7  1  6  0  0  0
 15 11  1  0  0  0  0
 15 10  1  0  0  0  0
 16 18  1  0  0  0  0
 18  5  1  0  0  0  0
 19  9  1  0  0  0  0
 20  4  1  0  0  0  0
 21 17  2  0  0  0  0
 22 16  2  0  0  0  0
 23  1  2  0  0  0  0
 23 13  1  0  0  0  0
 24 28  2  0  0  0  0
 25 26  1  0  0  0  0
 26 24  1  0  0  0  0
 27 24  1  0  0  0  0
M  END
>  <MODEL>
3

>  <REMARK>
 VINA RESULT:      -7.9      2.925      5.184
  Name = 
  1 active torsions:
  status: ('A' for Active; 'I' for Inactive)
    1  A    between atoms: C_2  and  N_11
                            x       y       z     vdW  Elec       q    Type
                         _______ _______ _______ _____ _____    ______ ____

>  <TORSDO>
F 1

$$$$
=
 OpenBabel10262420483D

 28 32  0  0  1  0  0  0  0  0999 V2000
  190.1130  177.4580  138.0960 C   0  0  0  0  0  0  0  0  0  0  0  0
  191.5610  177.0480  138.1920 C   0  0  1  0  0  3  0  0  0  0  0  0
  191.3120  177.0270  140.6990 C   0  0  1  0  0  3  0  0  0  0  0  0
  188.9960  178.3080  144.1410 C   0  0  0  0  0  2  0  0  0  0  0  0
  186.0930  178.6080  137.6810 O   0  0  0  0  0  1  0  0  0  0  0  0
  192.1930  177.4500  139.5290 C   0  0  0  0  0  2  0  0  0  0  0  0
  191.6980  177.3250  144.4880 C   0  0  0  0  0  2  0  0  0  0  0  0
  189.1130  177.8040  141.6880 C   0  0  0  0  0  0  0  0  0  0  0  0
  189.9210  177.3300  146.1710 N   0  0  0  0  0  0  0  0  0  0  0  0
  189.6950  177.6980  143.0060 N   0  0  0  0  0  0  0  0  0  0  0  0
  191.9330  177.4760  142.0140 C   0  0  0  0  0  2  0  0  0  0  0  0
  191.0070  176.5450  145.5990 C   0  0  0  0  0  2  0  0  0  0  0  0
  187.9830  178.0840  139.1160 C   0  0  0  0  0  0  0  0  0  0  0  0
  189.8980  177.5450  140.5420 C   0  0  0  0  0  0  0  0  0  0  0  0
  191.0160  177.0530  143.1510 C   0  0  1  0  0  3  0  0  0  0  0  0
  188.1990  177.9830  136.7030 C   0  0  0  0  0  3  0  0  0  0  0  0
  187.2170  178.3380  140.2590 C   0  0  0  0  0  3  0  0  0  0  0  0
  187.4210  178.2260  137.8370 C   0  0  0  0  0  0  0  0  0  0  0  0
  189.5020  176.6380  147.3760 C   0  0  0  0  0  1  0  0  0  0  0  0
  188.7870  177.2940  145.2570 C   0  0  0  0  0  2  0  0  0  0  0  0
  187.7780  178.2050  141.5280 C   0  0  0  0  0  3  0  0  0  0  0  0
  189.5360  177.6030  136.8320 C   0  0  0  0  0  3  0  0  0  0  0  0
  189.3350  177.6850  139.2540 C   0  0  0  0  0  0  0  0  0  0  0  0
  193.0640  175.1170  137.6530 C   0  0  0  0  0  0  0  0  0  0  0  0
  190.6000  174.7160  137.9110 C   0  0  0  0  0  1  0  0  0  0  0  0
  191.7440  175.6230  137.9090 N   0  0  0  0  0  0  0  0  0  0  0  0
  193.2940  173.6710  137.3740 C   0  0  0  0  0  1  0  0  0  0  0  0
  194.0540  175.8970  137.6590 O   0  0  0  0  0  0  0  0  0  0  0  0
  1  2  1  0  0  0  0
  1 23  1  0  0  0  0
  2 26  1  1  0  0  0
  2  6  1  0  0  0  0
  3  6  1  6  0  0  0
  3 11  1  0  0  0  0
  4 20  1  0  0  0  0
  5 18  1  0  0  0  0
  7 12  1  0  0  0  0
  8 10  1  0  0  0  0
  9 19  1  0  0  0  0
 10 15  1  0  0  0  0
 10  4  1  0  0  0  0
 12  9  1  0  0  0  0
 13 23  2  0  0  0  0
 13 17  1  0  0  0  0
 14  3  1  0  0  0  0
 14  8  2  0  0  0  0
 15 11  1  6  0  0  0
 15  7  1  0  0  0  0
 16 22  1  0  0  0  0
 16 18  2  0  0  0  0
 17 21  2  0  0  0  0
 18 13  1  0  0  0  0
 20  9  1  0  0  0  0
 21  8  1  0  0  0  0
 22  1  2  0  0  0  0
 23 14  1  0  0  0  0
 24 28  2  0  0  0  0
 24 26  1  0  0  0  0
 26 25  1  0  0  0  0
 27 24  1  0  0  0  0
M  END
>  <MODEL>
4

>  <REMARK>
 VINA RESULT:      -7.9      4.863      6.830
  Name = 
  1 active torsions:
  status: ('A' for Active; 'I' for Inactive)
    1  A    between atoms: C_2  and  N_11
                            x       y       z     vdW  Elec       q    Type
                         _______ _______ _______ _____ _____    ______ ____

>  <TORSDO>
F 1

$$$$
=
 OpenBabel10262420483D

 28 32  0  0  1  0  0  0  0  0999 V2000
  182.0460  179.0080  140.7320 C   0  0  0  0  0  0  0  0  0  0  0  0
  182.8380  178.9170  139.4520 C   0  0  1  0  0  3  0  0  0  0  0  0
  184.8890  178.4560  140.8410 C   0  0  1  0  0  3  0  0  0  0  0  0
  186.7570  178.6510  144.7550 C   0  0  0  0  0  2  0  0  0  0  0  0
  179.7190  179.2980  144.2180 O   0  0  0  0  0  1  0  0  0  0  0  0
  184.3220  179.2370  139.6610 C   0  0  0  0  0  2  0  0  0  0  0  0
  188.3760  178.2440  142.3890 C   0  0  0  0  0  2  0  0  0  0  0  0
  184.6740  178.5700  143.3630 C   0  0  0  0  0  0  0  0  0  0  0  0
  188.9530  177.6000  144.6780 N   0  0  0  0  0  0  0  0  0  0  0  0
  186.1040  178.3920  143.4690 N   0  0  0  0  0  0  0  0  0  0  0  0
  186.3490  178.8220  141.0610 C   0  0  0  0  0  2  0  0  0  0  0  0
  188.9760  177.1700  143.2860 C   0  0  0  0  0  2  0  0  0  0  0  0
  181.8890  178.9860  143.1700 C   0  0  0  0  0  0  0  0  0  0  0  0
  184.0640  178.6690  142.0930 C   0  0  0  0  0  0  0  0  0  0  0  0
  186.8700  178.0380  142.2560 C   0  0  1  0  0  3  0  0  0  0  0  0
  179.9000  179.3080  141.8210 C   0  0  0  0  0  3  0  0  0  0  0  0
  182.5070  178.8880  144.4210 C   0  0  0  0  0  3  0  0  0  0  0  0
  180.5040  179.1970  143.0750 C   0  0  0  0  0  0  0  0  0  0  0  0
  189.7730  176.6560  145.4150 C   0  0  0  0  0  1  0  0  0  0  0  0
  187.5960  177.4570  145.1890 C   0  0  0  0  0  2  0  0  0  0  0  0
  183.8830  178.6870  144.5150 C   0  0  0  0  0  3  0  0  0  0  0  0
  180.6660  179.2160  140.6580 C   0  0  0  0  0  3  0  0  0  0  0  0
  182.6700  178.8780  141.9930 C   0  0  0  0  0  0  0  0  0  0  0  0
  182.4360  177.5920  137.3640 C   0  0  0  0  0  0  0  0  0  0  0  0
  182.6950  176.3850  139.5480 C   0  0  0  0  0  1  0  0  0  0  0  0
  182.6470  177.6280  138.7840 N   0  0  0  0  0  0  0  0  0  0  0  0
  182.2510  176.2990  136.6440 C   0  0  0  0  0  1  0  0  0  0  0  0
  182.4030  178.6640  136.7010 O   0  0  0  0  0  0  0  0  0  0  0  0
  1 23  1  0  0  0  0
  2 26  1  1  0  0  0
  2  6  1  0  0  0  0
  2  1  1  0  0  0  0
  3  6  1  6  0  0  0
  3 11  1  0  0  0  0
  3 14  1  0  0  0  0
  4 20  1  0  0  0  0
  7 12  1  0  0  0  0
  8 10  1  0  0  0  0
  8 21  1  0  0  0  0
  9 20  1  0  0  0  0
  9 19  1  0  0  0  0
 10  4  1  0  0  0  0
 12  9  1  0  0  0  0
 13 17  1  0  0  0  0
 14  8  2  0  0  0  0
 15 11  1  6  0  0  0
 15  7  1  0  0  0  0
 15 10  1  0  0  0  0
 16 18  2  0  0  0  0
 17 21  2  0  0  0  0
 18 13  1  0  0  0  0
 18  5  1  0  0  0  0
 22  1  2  0  0  0  0
 22 16  1  0  0  0  0
 23 14  1  0  0  0  0
 23 13  2  0  0  0  0
 24 26  1  0  0  0  0
 26 25  1  0  0  0  0
 27 24  1  0  0  0  0
 28 24  2  0  0  0  0
M  END
>  <MODEL>
5

>  <REMARK>
 VINA RESULT:      -7.8      1.139      1.181
  Name = 
  1 active torsions:
  status: ('A' for Active; 'I' for Inactive)
    1  A    between atoms: C_2  and  N_11
                            x       y       z     vdW  Elec       q    Type
                         _______ _______ _______ _____ _____    ______ ____

>  <TORSDO>
F 1

$$$$
=
 OpenBabel10262420483D

 28 32  0  0  1  0  0  0  0  0999 V2000
  190.4330  176.6350  136.3910 C   0  0  0  0  0  0  0  0  0  0  0  0
  191.8020  176.1750  136.8220 C   0  0  1  0  0  3  0  0  0  0  0  0
  191.0940  176.5490  139.2110 C   0  0  1  0  0  3  0  0  0  0  0  0
  188.2900  178.4520  141.9240 C   0  0  0  0  0  2  0  0  0  0  0  0
  186.6600  177.9050  135.0480 O   0  0  0  0  0  1  0  0  0  0  0  0
  192.2070  176.7450  138.1870 C   0  0  0  0  0  2  0  0  0  0  0  0
  190.7970  177.4030  142.9230 C   0  0  0  0  0  2  0  0  0  0  0  0
  188.8170  177.5750  139.6360 C   0  0  0  0  0  0  0  0  0  0  0  0
  188.7460  177.7520  144.2120 N   0  0  0  0  0  0  0  0  0  0  0  0
  189.1370  177.6420  141.0440 N   0  0  0  0  0  0  0  0  0  0  0  0
  191.4950  177.1620  140.5450 C   0  0  0  0  0  2  0  0  0  0  0  0
  189.8550  176.8360  143.9780 C   0  0  0  0  0  2  0  0  0  0  0  0
  188.2060  177.5130  136.8810 C   0  0  0  0  0  0  0  0  0  0  0  0
  189.7780  177.1060  138.7120 C   0  0  0  0  0  0  0  0  0  0  0  0
  190.3550  176.9630  141.5310 C   0  0  1  0  0  3  0  0  0  0  0  0
  188.8550  177.0350  134.5940 C   0  0  0  0  0  3  0  0  0  0  0  0
  187.2650  177.9770  137.8060 C   0  0  0  0  0  3  0  0  0  0  0  0
  187.9020  177.4860  135.5100 C   0  0  0  0  0  0  0  0  0  0  0  0
  188.0600  177.2740  145.3980 C   0  0  0  0  0  1  0  0  0  0  0  0
  187.8010  177.6320  143.1110 C   0  0  0  0  0  2  0  0  0  0  0  0
  187.5700  178.0110  139.1660 C   0  0  0  0  0  3  0  0  0  0  0  0
  190.1120  176.6140  135.0310 C   0  0  0  0  0  3  0  0  0  0  0  0
  189.4750  177.0750  137.3330 C   0  0  0  0  0  0  0  0  0  0  0  0
  193.1990  174.1200  136.4960 C   0  0  0  0  0  0  0  0  0  0  0  0
  190.7670  173.8700  137.0580 C   0  0  0  0  0  1  0  0  0  0  0  0
  191.9240  174.7160  136.7830 N   0  0  0  0  0  0  0  0  0  0  0  0
  193.3680  172.6390  136.4610 C   0  0  0  0  0  1  0  0  0  0  0  0
  194.2020  174.8490  136.2670 O   0  0  0  0  0  0  0  0  0  0  0  0
  1  2  1  0  0  0  0
  1 23  1  0  0  0  0
  2 26  1  1  0  0  0
  2  6  1  0  0  0  0
  3  6  1  6  0  0  0
  3 11  1  0  0  0  0
  4 20  1  0  0  0  0
  5 18  1  0  0  0  0
  7 12  1  0  0  0  0
  8 10  1  0  0  0  0
  9 19  1  0  0  0  0
 10 15  1  0  0  0  0
 10  4  1  0  0  0  0
 12  9  1  0  0  0  0
 13 23  2  0  0  0  0
 13 17  1  0  0  0  0
 14  3  1  0  0  0  0
 14  8  2  0  0  0  0
 15 11  1  6  0  0  0
 15  7  1  0  0  0  0
 16 22  1  0  0  0  0
 16 18  2  0  0  0  0
 17 21  2  0  0  0  0
 18 13  1  0  0  0  0
 20  9  1  0  0  0  0
 21  8  1  0  0  0  0
 22  1  2  0  0  0  0
 23 14  1  0  0  0  0
 24 26  1  0  0  0  0
 26 25  1  0  0  0  0
 27 24  1  0  0  0  0
 28 24  2  0  0  0  0
M  END
>  <MODEL>
6

>  <REMARK>
 VINA RESULT:      -7.6      5.580      7.709
  Name = 
  1 active torsions:
  status: ('A' for Active; 'I' for Inactive)
    1  A    between atoms: C_2  and  N_11
                            x       y       z     vdW  Elec       q    Type
                         _______ _______ _______ _____ _____    ______ ____

>  <TORSDO>
F 1

$$$$
=
 OpenBabel10262420483D

 28 32  0  0  1  0  0  0  0  0999 V2000
  186.5580  178.6320  141.2100 C   0  0  0  0  0  0  0  0  0  0  0  0
  187.7880  178.7530  140.3450 C   0  0  1  0  0  3  0  0  0  0  0  0
  189.1650  178.0400  142.3310 C   0  0  1  0  0  3  0  0  0  0  0  0
  189.3590  177.5440  146.6400 C   0  0  0  0  0  2  0  0  0  0  0  0
  183.0520  178.3450  143.5060 O   0  0  0  0  0  1  0  0  0  0  0  0
  189.0550  179.0180  141.1660 C   0  0  0  0  0  2  0  0  0  0  0  0
  191.7880  177.5310  145.0620 C   0  0  0  0  0  2  0  0  0  0  0  0
  187.9860  177.7230  144.5510 C   0  0  0  0  0  0  0  0  0  0  0  0
  191.4710  176.4990  147.2580 N   0  0  0  0  0  0  0  0  0  0  0  0
  189.2710  177.5150  145.1770 N   0  0  0  0  0  0  0  0  0  0  0  0
  190.4030  178.3490  143.1610 C   0  0  0  0  0  2  0  0  0  0  0  0
  192.0550  176.3130  145.9360 C   0  0  0  0  0  2  0  0  0  0  0  0
  185.4730  178.1950  143.3550 C   0  0  0  0  0  0  0  0  0  0  0  0
  187.9090  178.0450  143.1770 C   0  0  0  0  0  0  0  0  0  0  0  0
  190.4650  177.3660  144.3200 C   0  0  1  0  0  3  0  0  0  0  0  0
  184.1450  178.7640  141.4060 C   0  0  0  0  0  3  0  0  0  0  0  0
  185.5630  177.8780  144.7140 C   0  0  0  0  0  3  0  0  0  0  0  0
  184.2230  178.4330  142.7610 C   0  0  0  0  0  0  0  0  0  0  0  0
  191.9950  175.4350  148.0940 C   0  0  0  0  0  1  0  0  0  0  0  0
  190.0330  176.2840  147.1670 C   0  0  0  0  0  2  0  0  0  0  0  0
  186.8050  177.6490  145.3040 C   0  0  0  0  0  3  0  0  0  0  0  0
  185.3050  178.8640  140.6370 C   0  0  0  0  0  3  0  0  0  0  0  0
  186.6530  178.2820  142.5760 C   0  0  0  0  0  0  0  0  0  0  0  0
  187.3370  177.6220  138.1560 C   0  0  0  0  0  0  0  0  0  0  0  0
  188.7320  176.4450  139.8770 C   0  0  0  0  0  1  0  0  0  0  0  0
  187.9440  177.5990  139.4570 N   0  0  0  0  0  0  0  0  0  0  0  0
  187.4840  176.4730  137.2160 C   0  0  0  0  0  1  0  0  0  0  0  0
  186.6630  178.6220  137.7880 O   0  0  0  0  0  0  0  0  0  0  0  0
  1 23  1  0  0  0  0
  2 26  1  1  0  0  0
  2  6  1  0  0  0  0
  2  1  1  0  0  0  0
  3  6  1  6  0  0  0
  3 11  1  0  0  0  0
  3 14  1  0  0  0  0
  4 20  1  0  0  0  0
  7 12  1  0  0  0  0
  8 10  1  0  0  0  0
  8 21  1  0  0  0  0
  9 19  1  0  0  0  0
 10  4  1  0  0  0  0
 12  9  1  0  0  0  0
 13 17  1  0  0  0  0
 14  8  2  0  0  0  0
 15 11  1  6  0  0  0
 15  7  1  0  0  0  0
 15 10  1  0  0  0  0
 16 18  2  0  0  0  0
 17 21  2  0  0  0  0
 18 13  1  0  0  0  0
 18  5  1  0  0  0  0
 20  9  1  0  0  0  0
 22  1  2  0  0  0  0
 22 16  1  0  0  0  0
 23 14  1  0  0  0  0
 23 13  2  0  0  0  0
 24 26  1  0  0  0  0
 26 25  1  0  0  0  0
 27 24  1  0  0  0  0
 28 24  2  0  0  0  0
M  END
>  <MODEL>
7

>  <REMARK>
 VINA RESULT:      -7.6      2.476      3.935
  Name = 
  1 active torsions:
  status: ('A' for Active; 'I' for Inactive)
    1  A    between atoms: C_2  and  N_11
                            x       y       z     vdW  Elec       q    Type
                         _______ _______ _______ _____ _____    ______ ____

>  <TORSDO>
F 1

$$$$
=
 OpenBabel10262420483D

 28 32  0  0  1  0  0  0  0  0999 V2000
  187.2940  177.9580  138.1220 C   0  0  0  0  0  0  0  0  0  0  0  0
  188.5600  177.4790  137.4590 C   0  0  1  0  0  3  0  0  0  0  0  0
  189.5760  177.2200  139.7490 C   0  0  1  0  0  3  0  0  0  0  0  0
  189.3740  178.2530  143.9620 C   0  0  0  0  0  2  0  0  0  0  0  0
  183.7070  179.3170  139.8390 O   0  0  0  0  0  1  0  0  0  0  0  0
  189.8000  177.7190  138.3260 C   0  0  0  0  0  2  0  0  0  0  0  0
  191.8000  177.1250  142.8540 C   0  0  0  0  0  2  0  0  0  0  0  0
  188.2250  177.9910  141.7500 C   0  0  0  0  0  0  0  0  0  0  0  0
  191.0890  177.0410  145.1940 N   0  0  0  0  0  0  0  0  0  0  0  0
  189.3680  177.7290  142.5930 N   0  0  0  0  0  0  0  0  0  0  0  0
  190.8000  177.5100  140.6070 C   0  0  0  0  0  2  0  0  0  0  0  0
  191.6800  176.2690  144.1090 C   0  0  0  0  0  2  0  0  0  0  0  0
  186.0050  178.5720  140.1060 C   0  0  0  0  0  0  0  0  0  0  0  0
  188.3190  177.8130  140.3510 C   0  0  0  0  0  0  0  0  0  0  0  0
  190.5280  177.0160  142.0190 C   0  0  1  0  0  3  0  0  0  0  0  0
  184.9960  178.7010  137.9040 C   0  0  0  0  0  3  0  0  0  0  0  0
  185.9260  178.7450  141.4910 C   0  0  0  0  0  3  0  0  0  0  0  0
  184.9010  178.8640  139.2880 C   0  0  0  0  0  0  0  0  0  0  0  0
  191.2590  176.2520  146.4000 C   0  0  0  0  0  1  0  0  0  0  0  0
  189.6540  177.1440  144.9660 C   0  0  0  0  0  2  0  0  0  0  0  0
  187.0240  178.4620  142.3010 C   0  0  0  0  0  3  0  0  0  0  0  0
  186.1840  178.2530  137.3260 C   0  0  0  0  0  3  0  0  0  0  0  0
  187.2090  178.1030  139.5260 C   0  0  0  0  0  0  0  0  0  0  0  0
  189.3890  175.5660  136.0690 C   0  0  0  0  0  0  0  0  0  0  0  0
  187.4280  175.2120  137.5930 C   0  0  0  0  0  1  0  0  0  0  0  0
  188.4550  176.0820  137.0300 N   0  0  0  0  0  0  0  0  0  0  0  0
  189.3250  174.1460  135.6170 C   0  0  0  0  0  1  0  0  0  0  0  0
  190.2830  176.3140  135.5880 O   0  0  0  0  0  0  0  0  0  0  0  0
  1 23  1  0  0  0  0
  2 26  1  1  0  0  0
  2  1  1  0  0  0  0
  2  6  1  0  0  0  0
  3  6  1  6  0  0  0
  3 14  1  0  0  0  0
  3 11  1  0  0  0  0
  4 20  1  0  0  0  0
  7 12  1  0  0  0  0
  8 21  1  0  0  0  0
  8 10  1  0  0  0  0
  9 19  1  0  0  0  0
 10  4  1  0  0  0  0
 12  9  1  0  0  0  0
 13 17  1  0  0  0  0
 14  8  2  0  0  0  0
 15 11  1  6  0  0  0
 15 10  1  0  0  0  0
 15  7  1  0  0  0  0
 16 18  2  0  0  0  0
 17 21  2  0  0  0  0
 18  5  1  0  0  0  0
 18 13  1  0  0  0  0
 20  9  1  0  0  0  0
 22 16  1  0  0  0  0
 22  1  2  0  0  0  0
 23 13  2  0  0  0  0
 23 14  1  0  0  0  0
 24 26  1  0  0  0  0
 26 25  1  0  0  0  0
 27 24  1  0  0  0  0
 28 24  2  0  0  0  0
M  END
>  <MODEL>
8

>  <REMARK>
 VINA RESULT:      -7.3      3.461      4.856
  Name = 
  1 active torsions:
  status: ('A' for Active; 'I' for Inactive)
    1  A    between atoms: C_2  and  N_11
                            x       y       z     vdW  Elec       q    Type
                         _______ _______ _______ _____ _____    ______ ____

>  <TORSDO>
F 1

$$$$
=
 OpenBabel10262420483D

 28 32  0  0  1  0  0  0  0  0999 V2000
  186.6480  177.6800  145.0430 C   0  0  0  0  0  0  0  0  0  0  0  0
  187.9200  176.9290  145.3440 C   0  0  1  0  0  3  0  0  0  0  0  0
  188.5430  177.1560  142.9130 C   0  0  1  0  0  3  0  0  0  0  0  0
  187.1930  177.9700  138.8680 C   0  0  0  0  0  2  0  0  0  0  0  0
  183.0610  179.7530  144.3430 O   0  0  0  0  0  1  0  0  0  0  0  0
  188.4820  176.2130  144.1100 C   0  0  0  0  0  2  0  0  0  0  0  0
  189.7680  176.7230  139.3200 C   0  0  0  0  0  2  0  0  0  0  0  0
  186.8560  178.2040  141.3400 C   0  0  0  0  0  0  0  0  0  0  0  0
  189.1000  178.0150  137.3520 N   0  0  0  0  0  0  0  0  0  0  0  0
  187.7230  177.8780  140.2310 N   0  0  0  0  0  0  0  0  0  0  0  0
  189.0580  176.4160  141.6870 C   0  0  0  0  0  2  0  0  0  0  0  0
  190.1800  177.7770  138.3010 C   0  0  0  0  0  2  0  0  0  0  0  0
  185.1200  178.7840  143.4890 C   0  0  0  0  0  0  0  0  0  0  0  0
  187.2010  177.8050  142.6510 C   0  0  0  0  0  0  0  0  0  0  0  0
  189.0860  177.3830  140.5140 C   0  0  1  0  0  3  0  0  0  0  0  0
  184.5860  178.6670  145.8520 C   0  0  0  0  0  3  0  0  0  0  0  0
  184.7890  179.1700  142.1860 C   0  0  0  0  0  3  0  0  0  0  0  0
  184.2540  179.0700  144.5570 C   0  0  0  0  0  0  0  0  0  0  0  0
  189.6620  178.8140  136.2790 C   0  0  0  0  0  1  0  0  0  0  0  0
  188.0870  178.8410  137.9960 C   0  0  0  0  0  2  0  0  0  0  0  0
  185.6450  178.8790  141.1250 C   0  0  0  0  0  3  0  0  0  0  0  0
  185.7750  177.9750  146.0920 C   0  0  0  0  0  3  0  0  0  0  0  0
  186.3330  178.0950  143.7290 C   0  0  0  0  0  0  0  0  0  0  0  0
  189.0550  177.7790  147.4090 C   0  0  0  0  0  0  0  0  0  0  0  0
  189.7980  178.6270  145.1680 C   0  0  0  0  0  1  0  0  0  0  0  0
  188.9220  177.7880  145.9790 N   0  0  0  0  0  0  0  0  0  0  0  0
  190.0720  178.6280  148.0940 C   0  0  0  0  0  1  0  0  0  0  0  0
  188.3060  177.0480  148.1120 O   0  0  0  0  0  0  0  0  0  0  0  0
  1  2  1  0  0  0  0
  1 22  1  0  0  0  0
  2 26  1  6  0  0  0
  3 11  1  6  0  0  0
  3  6  1  0  0  0  0
  4 10  1  0  0  0  0
  5 18  1  0  0  0  0
  6  2  1  0  0  0  0
  8 14  2  0  0  0  0
  9 20  1  0  0  0  0
  9 12  1  0  0  0  0
 10 15  1  0  0  0  0
 10  8  1  0  0  0  0
 12  7  1  0  0  0  0
 13 23  1  0  0  0  0
 13 18  2  0  0  0  0
 14  3  1  0  0  0  0
 14 23  1  0  0  0  0
 15  7  1  6  0  0  0
 15 11  1  0  0  0  0
 16 22  2  0  0  0  0
 17 13  1  0  0  0  0
 18 16  1  0  0  0  0
 19  9  1  0  0  0  0
 20  4  1  0  0  0  0
 21  8  1  0  0  0  0
 21 17  2  0  0  0  0
 23  1  2  0  0  0  0
 24 27  1  0  0  0  0
 24 28  2  0  0  0  0
 25 26  1  0  0  0  0
 26 24  1  0  0  0  0
M  END
>  <MODEL>
9

>  <REMARK>
 VINA RESULT:      -7.2      3.415      7.008
  Name = 
  1 active torsions:
  status: ('A' for Active; 'I' for Inactive)
    1  A    between atoms: C_2  and  N_11
                            x       y       z     vdW  Elec       q    Type
                         _______ _______ _______ _____ _____    ______ ____

>  <TORSDO>
F 1

$$$$
