=
 OpenBabel10262422173D

 43 46  0  0  1  0  0  0  0  0999 V2000
  188.9410  175.9530  136.0600 C   0  0  0  0  0  0  0  0  0  0  0  0
  187.6460  175.4040  136.3710 N   0  0  0  0  0  0  0  0  0  0  0  0
  189.3050  176.0030  134.8470 O   0  0  0  0  0  0  0  0  0  0  0  0
  189.8090  176.4740  137.0910 N   0  0  0  0  0  0  0  0  0  0  0  0
  188.7330  178.6650  140.0120 C   0  0  0  0  0  2  0  0  0  0  0  0
  189.3660  177.8790  141.1220 C   0  0  0  0  0  0  0  0  0  0  0  0
  190.5170  175.9170  142.0190 C   0  0  0  0  0  3  0  0  0  0  0  0
  189.3400  178.3640  138.6500 C   0  0  2  0  0  3  0  0  0  0  0  0
  189.1450  178.3880  142.5190 C   0  0  0  0  0  2  0  0  0  0  0  0
  190.1320  176.1160  139.5190 C   0  0  0  0  0  2  0  0  0  0  0  0
  188.5000  179.0600  137.5970 C   0  0  0  0  0  1  0  0  0  0  0  0
  189.9860  177.7080  143.5030 N   0  0  0  0  0  0  0  0  0  0  0  0
  189.3420  176.8520  138.4300 C   0  0  2  0  0  3  0  0  0  0  0  0
  190.5440  176.4210  143.2480 C   0  0  0  0  0  3  0  0  0  0  0  0
  189.9330  176.6740  140.9020 C   0  0  0  0  0  0  0  0  0  0  0  0
  190.0830  178.2700  144.8420 C   0  0  0  0  0  2  0  0  0  0  0  0
  189.0310  177.6500  145.7430 C   0  0  0  0  0  2  0  0  0  0  0  0
  187.7660  177.5750  145.0460 N   0  0  0  0  0  2  0  0  0  0  0  0
  186.7220  177.6730  146.0550 C   0  0  0  0  0  2  0  0  0  0  0  0
  184.6700  178.8400  146.6090 N   0  0  0  0  0  1  0  0  0  0  0  0
  185.5480  178.4670  145.5220 C   0  0  0  0  0  2  0  0  0  0  0  0
  183.5790  176.9560  135.4320 C   0  0  0  0  0  0  0  0  0  0  0  0
  184.7220  177.4000  137.5870 C   0  0  0  0  0  3  0  0  0  0  0  0
  184.8030  177.2410  134.6390 C   0  0  0  0  0  2  0  0  0  0  0  0
  182.0920  176.5810  134.5950 Cl  0  0  0  0  0  0  0  0  0  0  0  0
  186.4810  176.2370  136.1920 C   0  0  0  0  0  0  0  0  0  0  0  0
  183.5500  177.0990  136.7510 C   0  0  0  0  0  3  0  0  0  0  0  0
  185.9220  176.3160  134.9830 C   0  0  0  0  0  3  0  0  0  0  0  0
  185.9880  177.0320  137.3430 C   0  0  0  0  0  3  0  0  0  0  0  0
  191.1560  176.8990  136.7470 C   0  0  0  0  0  2  0  0  0  0  0  0
  193.7100  174.1460  136.2990 C   0  0  0  0  0  2  0  0  0  0  0  0
  194.6640  175.3860  137.0910 S   0  0  0  0  0  0  0  0  0  0  0  0
  195.3760  174.8270  138.2970 O   0  0  0  0  0  0  0  0  0  0  0  0
  193.4670  176.7520  138.9550 C   0  0  0  0  0  1  0  0  0  0  0  0
  192.3690  174.8260  136.1010 C   0  0  0  0  0  2  0  0  0  0  0  0
  192.1760  175.8680  137.1970 C   0  0  1  0  0  3  0  0  0  0  0  0
  195.6460  175.9990  136.1260 O   0  0  0  0  0  0  0  0  0  0  0  0
  193.4360  176.5350  137.5140 N   0  0  0  0  0  0  0  0  0  0  0  0
  187.5330  174.0980  137.0540 C   0  0  2  0  0  3  0  0  0  0  0  0
  188.7310  173.3450  137.0280 O   0  0  0  0  0  0  0  0  0  0  0  0
  188.6480  172.3800  136.0080 C   0  0  0  0  0  1  0  0  0  0  0  0
  186.3180  173.2890  136.5900 C   0  0  0  0  0  2  0  0  0  0  0  0
  185.3690  173.0590  137.7530 C   0  0  0  0  0  1  0  0  0  0  0  0
  1  2  1  0  0  0  0
  1  4  1  0  0  0  0
  2 39  1  0  0  0  0
  3  1  2  0  0  0  0
  5  6  1  0  0  0  0
  6  9  1  0  0  0  0
  7 14  2  0  0  0  0
  8 11  1  6  0  0  0
  8  5  1  0  0  0  0
  9 12  1  0  0  0  0
 10 15  1  0  0  0  0
 12 16  1  0  0  0  0
 13  4  1  6  0  0  0
 13  8  1  0  0  0  0
 13 10  1  0  0  0  0
 14 12  1  0  0  0  0
 15  6  2  0  0  0  0
 15  7  1  0  0  0  0
 16 17  1  0  0  0  0
 18 17  1  0  0  0  0
 18 19  1  0  0  0  0
 21 19  1  0  0  0  0
 21 20  1  0  0  0  0
 22 27  2  0  0  0  0
 24 28  1  0  0  0  0
 24 22  1  0  0  0  0
 25 22  1  0  0  0  0
 26  2  1  0  0  0  0
 26 29  1  0  0  0  0
 27 23  1  0  0  0  0
 28 26  2  0  0  0  0
 29 23  2  0  0  0  0
 30  4  1  0  0  0  0
 31 32  1  0  0  0  0
 32 38  1  0  0  0  0
 32 33  2  0  0  0  0
 35 31  1  0  0  0  0
 35 36  1  0  0  0  0
 36 30  1  6  0  0  0
 36 38  1  0  0  0  0
 37 32  2  0  0  0  0
 38 34  1  0  0  0  0
 39 42  1  6  0  0  0
 40 39  1  0  0  0  0
 41 40  1  0  0  0  0
 42 43  1  0  0  0  0
M  END
>  <MODEL>
1

>  <REMARK>
 VINA RESULT:      -6.3      0.000      0.000
  Name = 
  12 active torsions:
  status: ('A' for Active; 'I' for Inactive)
    1  A    between atoms: C_1  and  N_34
    2  A    between atoms: C_1  and  C_35
    3  A    between atoms: O_2  and  C_27
    4  A    between atoms: C_6  and  C_27
    5  A    between atoms: C_11  and  N_22
    6  A    between atoms: C_11  and  C_36
    7  A    between atoms: C_21  and  N_30
    8  A    between atoms: C_27  and  N_30
    9  A    between atoms: N_29  and  C_31
   10  A    between atoms: N_29  and  C_36
   11  A    between atoms: C_31  and  C_40
   12  A    between atoms: N_34  and  C_38
                            x       y       z     vdW  Elec       q    Type
                         _______ _______ _______ _____ _____    ______ ____

>  <TORSDO>
F 12

$$$$
=
 OpenBabel10262422173D

 43 46  0  0  1  0  0  0  0  0999 V2000
  188.6700  176.0000  135.9970 C   0  0  0  0  0  0  0  0  0  0  0  0
  187.4010  175.4150  136.3460 N   0  0  0  0  0  0  0  0  0  0  0  0
  188.9850  176.0810  134.7720 O   0  0  0  0  0  0  0  0  0  0  0  0
  189.5640  176.5220  137.0040 N   0  0  0  0  0  0  0  0  0  0  0  0
  188.5030  178.6300  139.9910 C   0  0  0  0  0  2  0  0  0  0  0  0
  189.2340  177.8760  141.0620 C   0  0  0  0  0  0  0  0  0  0  0  0
  190.5420  175.9820  141.8870 C   0  0  0  0  0  3  0  0  0  0  0  0
  189.0600  178.3730  138.5990 C   0  0  2  0  0  3  0  0  0  0  0  0
  189.0520  178.3640  142.4730 C   0  0  0  0  0  2  0  0  0  0  0  0
  190.0250  176.1710  139.4100 C   0  0  0  0  0  2  0  0  0  0  0  0
  188.1310  179.0230  137.5930 C   0  0  0  0  0  1  0  0  0  0  0  0
  189.9780  177.7300  143.4100 N   0  0  0  0  0  0  0  0  0  0  0  0
  189.1410  176.8650  138.3660 C   0  0  2  0  0  3  0  0  0  0  0  0
  190.5980  176.4800  143.1180 C   0  0  0  0  0  3  0  0  0  0  0  0
  189.8610  176.7090  140.8060 C   0  0  0  0  0  0  0  0  0  0  0  0
  190.1050  178.2900  144.7470 C   0  0  0  0  0  2  0  0  0  0  0  0
  189.1390  177.6010  145.6930 C   0  0  0  0  0  2  0  0  0  0  0  0
  189.8550  177.0770  146.8350 N   0  0  0  0  0  2  0  0  0  0  0  0
  191.2630  177.0450  146.4730 C   0  0  0  0  0  2  0  0  0  0  0  0
  192.7680  176.0540  148.0950 N   0  0  0  0  0  1  0  0  0  0  0  0
  191.9050  175.7670  146.9700 C   0  0  0  0  0  2  0  0  0  0  0  0
  183.2970  176.9190  135.4900 C   0  0  0  0  0  0  0  0  0  0  0  0
  184.3940  177.1880  137.6980 C   0  0  0  0  0  3  0  0  0  0  0  0
  184.5230  177.3180  134.7500 C   0  0  0  0  0  2  0  0  0  0  0  0
  181.8360  176.5780  134.5950 Cl  0  0  0  0  0  0  0  0  0  0  0  0
  186.2110  176.2230  136.2280 C   0  0  0  0  0  0  0  0  0  0  0  0
  183.2440  176.9320  136.8160 C   0  0  0  0  0  3  0  0  0  0  0  0
  185.6670  176.4020  135.0220 C   0  0  0  0  0  3  0  0  0  0  0  0
  185.6740  176.8860  137.4410 C   0  0  0  0  0  3  0  0  0  0  0  0
  190.8880  176.9860  136.6170 C   0  0  0  0  0  2  0  0  0  0  0  0
  193.4850  174.3610  135.7990 C   0  0  0  0  0  2  0  0  0  0  0  0
  194.4300  175.5200  136.7150 S   0  0  0  0  0  0  0  0  0  0  0  0
  195.1780  174.8380  137.8330 O   0  0  0  0  0  0  0  0  0  0  0  0
  193.2460  176.6290  138.7490 C   0  0  0  0  0  1  0  0  0  0  0  0
  192.1270  175.0300  135.7070 C   0  0  0  0  0  2  0  0  0  0  0  0
  191.9360  175.9310  136.9230 C   0  0  1  0  0  3  0  0  0  0  0  0
  195.3810  176.2640  135.8120 O   0  0  0  0  0  0  0  0  0  0  0  0
  193.1900  176.5840  137.2930 N   0  0  0  0  0  0  0  0  0  0  0  0
  187.3440  174.0950  137.0080 C   0  0  2  0  0  3  0  0  0  0  0  0
  188.5230  173.3290  136.8370 O   0  0  0  0  0  0  0  0  0  0  0  0
  188.1730  172.0020  136.5320 C   0  0  0  0  0  1  0  0  0  0  0  0
  186.0770  173.3090  136.6590 C   0  0  0  0  0  2  0  0  0  0  0  0
  185.2320  173.1000  137.9030 C   0  0  0  0  0  1  0  0  0  0  0  0
  1  2  1  0  0  0  0
  1  4  1  0  0  0  0
  2 39  1  0  0  0  0
  3  1  2  0  0  0  0
  5  6  1  0  0  0  0
  6  9  1  0  0  0  0
  7 14  2  0  0  0  0
  8 11  1  6  0  0  0
  8  5  1  0  0  0  0
  9 12  1  0  0  0  0
 10 15  1  0  0  0  0
 12 16  1  0  0  0  0
 13  4  1  6  0  0  0
 13  8  1  0  0  0  0
 13 10  1  0  0  0  0
 14 12  1  0  0  0  0
 15  6  2  0  0  0  0
 15  7  1  0  0  0  0
 16 17  1  0  0  0  0
 17 18  1  0  0  0  0
 19 18  1  0  0  0  0
 19 21  1  0  0  0  0
 21 20  1  0  0  0  0
 22 27  2  0  0  0  0
 24 28  1  0  0  0  0
 24 22  1  0  0  0  0
 25 22  1  0  0  0  0
 26  2  1  0  0  0  0
 26 29  1  0  0  0  0
 27 23  1  0  0  0  0
 28 26  2  0  0  0  0
 29 23  2  0  0  0  0
 30  4  1  0  0  0  0
 31 32  1  0  0  0  0
 32 38  1  0  0  0  0
 32 33  2  0  0  0  0
 35 31  1  0  0  0  0
 35 36  1  0  0  0  0
 36 30  1  6  0  0  0
 36 38  1  0  0  0  0
 37 32  2  0  0  0  0
 38 34  1  0  0  0  0
 39 42  1  6  0  0  0
 40 39  1  0  0  0  0
 41 40  1  0  0  0  0
 42 43  1  0  0  0  0
M  END
>  <MODEL>
2

>  <REMARK>
 VINA RESULT:      -6.2      1.205      1.921
  Name = 
  12 active torsions:
  status: ('A' for Active; 'I' for Inactive)
    1  A    between atoms: C_1  and  N_34
    2  A    between atoms: C_1  and  C_35
    3  A    between atoms: O_2  and  C_27
    4  A    between atoms: C_6  and  C_27
    5  A    between atoms: C_11  and  N_22
    6  A    between atoms: C_11  and  C_36
    7  A    between atoms: C_21  and  N_30
    8  A    between atoms: C_27  and  N_30
    9  A    between atoms: N_29  and  C_31
   10  A    between atoms: N_29  and  C_36
   11  A    between atoms: C_31  and  C_40
   12  A    between atoms: N_34  and  C_38
                            x       y       z     vdW  Elec       q    Type
                         _______ _______ _______ _____ _____    ______ ____

>  <TORSDO>
F 12

$$$$
=
 OpenBabel10262422173D

 43 46  0  0  1  0  0  0  0  0999 V2000
  180.0550  178.5600  137.2930 C   0  0  0  0  0  0  0  0  0  0  0  0
  180.7100  177.3090  137.0110 N   0  0  0  0  0  0  0  0  0  0  0  0
  179.1680  178.9760  136.4880 O   0  0  0  0  0  0  0  0  0  0  0  0
  180.3620  179.3240  138.4800 N   0  0  0  0  0  0  0  0  0  0  0  0
  181.0870  178.5100  142.1270 C   0  0  0  0  0  2  0  0  0  0  0  0
  182.5840  178.6000  142.0780 C   0  0  0  0  0  0  0  0  0  0  0  0
  184.7160  178.8030  140.9000 C   0  0  0  0  0  3  0  0  0  0  0  0
  180.4120  179.2350  140.9720 C   0  0  2  0  0  3  0  0  0  0  0  0
  183.3180  178.2950  143.3550 C   0  0  0  0  0  2  0  0  0  0  0  0
  182.5410  179.0150  139.6110 C   0  0  0  0  0  2  0  0  0  0  0  0
  178.9310  178.9130  141.0170 C   0  0  0  0  0  1  0  0  0  0  0  0
  184.7380  178.6370  143.2800 N   0  0  0  0  0  0  0  0  0  0  0  0
  181.0300  178.7600  139.6580 C   0  0  2  0  0  3  0  0  0  0  0  0
  185.4130  178.7570  142.0310 C   0  0  0  0  0  3  0  0  0  0  0  0
  183.2470  178.7500  140.9130 C   0  0  0  0  0  0  0  0  0  0  0  0
  185.5150  178.6530  144.5110 C   0  0  0  0  0  2  0  0  0  0  0  0
  186.7110  177.7290  144.3820 C   0  0  0  0  0  2  0  0  0  0  0  0
  187.7840  178.1870  145.2360 N   0  0  0  0  0  2  0  0  0  0  0  0
  188.9670  177.4210  144.8760 C   0  0  0  0  0  2  0  0  0  0  0  0
  188.9340  176.9440  147.2530 N   0  0  0  0  0  1  0  0  0  0  0  0
  189.7980  177.1250  146.1070 C   0  0  0  0  0  2  0  0  0  0  0  0
  179.5680  173.0360  137.5350 C   0  0  0  0  0  0  0  0  0  0  0  0
  179.4250  174.7000  139.3690 C   0  0  0  0  0  3  0  0  0  0  0  0
  178.9610  173.9650  136.5460 C   0  0  0  0  0  2  0  0  0  0  0  0
  179.9620  171.4070  137.0420 Cl  0  0  0  0  0  0  0  0  0  0  0  0
  180.0250  176.0810  137.3370 C   0  0  0  0  0  0  0  0  0  0  0  0
  179.7050  173.3670  138.8130 C   0  0  0  0  0  3  0  0  0  0  0  0
  179.7750  175.2010  136.3650 C   0  0  0  0  0  3  0  0  0  0  0  0
  179.5600  175.8710  138.7290 C   0  0  0  0  0  3  0  0  0  0  0  0
  179.7710  180.6410  138.6570 C   0  0  0  0  0  2  0  0  0  0  0  0
  179.5320  183.3840  136.0640 C   0  0  0  0  0  2  0  0  0  0  0  0
  180.6350  184.0940  137.2280 S   0  0  0  0  0  0  0  0  0  0  0  0
  181.8870  184.5870  136.5470 O   0  0  0  0  0  0  0  0  0  0  0  0
  182.3660  182.4820  138.3130 C   0  0  0  0  0  1  0  0  0  0  0  0
  179.1470  182.0710  136.7190 C   0  0  0  0  0  2  0  0  0  0  0  0
  180.2950  181.6090  137.6110 C   0  0  1  0  0  3  0  0  0  0  0  0
  179.9630  185.2100  137.9860 O   0  0  0  0  0  0  0  0  0  0  0  0
  180.9320  182.7450  138.2750 N   0  0  0  0  0  0  0  0  0  0  0  0
  182.1290  177.2850  136.5980 C   0  0  2  0  0  3  0  0  0  0  0  0
  182.3040  177.1740  135.1970 O   0  0  0  0  0  0  0  0  0  0  0  0
  182.0670  178.4260  134.6010 C   0  0  0  0  0  1  0  0  0  0  0  0
  182.9580  176.2590  137.3770 C   0  0  0  0  0  2  0  0  0  0  0  0
  184.4280  176.6360  137.3360 C   0  0  0  0  0  1  0  0  0  0  0  0
  1  4  1  0  0  0  0
  2  1  1  0  0  0  0
  2 26  1  0  0  0  0
  3  1  2  0  0  0  0
  4 30  1  0  0  0  0
  6  5  1  0  0  0  0
  6  9  1  0  0  0  0
  7 15  1  0  0  0  0
  7 14  2  0  0  0  0
  8 11  1  6  0  0  0
  8  5  1  0  0  0  0
 10 13  1  0  0  0  0
 10 15  1  0  0  0  0
 12  9  1  0  0  0  0
 12 16  1  0  0  0  0
 13  4  1  6  0  0  0
 13  8  1  0  0  0  0
 14 12  1  0  0  0  0
 15  6  2  0  0  0  0
 17 16  1  0  0  0  0
 17 18  1  0  0  0  0
 19 18  1  0  0  0  0
 19 21  1  0  0  0  0
 21 20  1  0  0  0  0
 22 27  2  0  0  0  0
 24 22  1  0  0  0  0
 25 22  1  0  0  0  0
 26 29  1  0  0  0  0
 27 23  1  0  0  0  0
 28 24  1  0  0  0  0
 28 26  2  0  0  0  0
 29 23  2  0  0  0  0
 31 35  1  0  0  0  0
 31 32  1  0  0  0  0
 32 37  2  0  0  0  0
 32 38  1  0  0  0  0
 33 32  2  0  0  0  0
 35 36  1  0  0  0  0
 36 38  1  0  0  0  0
 36 30  1  1  0  0  0
 38 34  1  0  0  0  0
 39  2  1  0  0  0  0
 39 42  1  1  0  0  0
 40 39  1  0  0  0  0
 41 40  1  0  0  0  0
 43 42  1  0  0  0  0
M  END
>  <MODEL>
3

>  <REMARK>
 VINA RESULT:      -5.3      6.222      9.240
  Name = 
  12 active torsions:
  status: ('A' for Active; 'I' for Inactive)
    1  A    between atoms: C_1  and  N_34
    2  A    between atoms: C_1  and  C_35
    3  A    between atoms: O_2  and  C_27
    4  A    between atoms: C_6  and  C_27
    5  A    between atoms: C_11  and  N_22
    6  A    between atoms: C_11  and  C_36
    7  A    between atoms: C_21  and  N_30
    8  A    between atoms: C_27  and  N_30
    9  A    between atoms: N_29  and  C_31
   10  A    between atoms: N_29  and  C_36
   11  A    between atoms: C_31  and  C_40
   12  A    between atoms: N_34  and  C_38
                            x       y       z     vdW  Elec       q    Type
                         _______ _______ _______ _____ _____    ______ ____

>  <TORSDO>
F 12

$$$$
=
 OpenBabel10262422173D

 43 46  0  0  1  0  0  0  0  0999 V2000
  181.8460  178.1630  137.0360 C   0  0  0  0  0  0  0  0  0  0  0  0
  180.7400  178.7600  137.7390 N   0  0  0  0  0  0  0  0  0  0  0  0
  181.7060  177.8850  135.8070 O   0  0  0  0  0  0  0  0  0  0  0  0
  183.1090  177.9110  137.6900 N   0  0  0  0  0  0  0  0  0  0  0  0
  185.3380  179.0570  140.5550 C   0  0  0  0  0  2  0  0  0  0  0  0
  184.3570  178.8880  141.6770 C   0  0  0  0  0  0  0  0  0  0  0  0
  182.1210  178.4610  142.5690 C   0  0  0  0  0  3  0  0  0  0  0  0
  184.9680  178.2520  139.3180 C   0  0  2  0  0  3  0  0  0  0  0  0
  184.8280  179.2850  143.0490 C   0  0  0  0  0  2  0  0  0  0  0  0
  182.5490  178.2260  140.0790 C   0  0  0  0  0  2  0  0  0  0  0  0
  185.9120  178.6500  138.1990 C   0  0  0  0  0  1  0  0  0  0  0  0
  183.9030  178.8680  144.1020 N   0  0  0  0  0  0  0  0  0  0  0  0
  183.5200  178.5590  138.9400 C   0  0  2  0  0  3  0  0  0  0  0  0
  182.5330  178.5880  143.8260 C   0  0  0  0  0  3  0  0  0  0  0  0
  183.0620  178.5880  141.4470 C   0  0  0  0  0  0  0  0  0  0  0  0
  184.3480  178.9390  145.4860 C   0  0  0  0  0  2  0  0  0  0  0  0
  185.8630  179.0130  145.5420 C   0  0  0  0  0  2  0  0  0  0  0  0
  186.3800  177.9310  146.3500 N   0  0  0  0  0  2  0  0  0  0  0  0
  187.7240  177.6500  145.8690 C   0  0  0  0  0  2  0  0  0  0  0  0
  189.0040  176.7080  144.0370 N   0  0  0  0  0  1  0  0  0  0  0  0
  187.6720  177.0730  144.4700 C   0  0  0  0  0  2  0  0  0  0  0  0
  181.1820  183.1780  137.3840 C   0  0  0  0  0  0  0  0  0  0  0  0
  179.8790  181.8230  135.7660 C   0  0  0  0  0  3  0  0  0  0  0  0
  180.6020  182.4710  138.5560 C   0  0  0  0  0  2  0  0  0  0  0  0
  182.2880  184.5030  137.6530 Cl  0  0  0  0  0  0  0  0  0  0  0  0
  180.5010  180.1750  137.5800 C   0  0  0  0  0  0  0  0  0  0  0  0
  180.7920  182.9140  136.1430 C   0  0  0  0  0  3  0  0  0  0  0  0
  180.9060  181.0110  138.5380 C   0  0  0  0  0  3  0  0  0  0  0  0
  179.7510  180.6430  136.3900 C   0  0  0  0  0  3  0  0  0  0  0  0
  184.1540  177.1910  136.9780 C   0  0  0  0  0  2  0  0  0  0  0  0
  184.3990  173.7740  135.3750 C   0  0  0  0  0  2  0  0  0  0  0  0
  184.3260  173.3600  137.0770 S   0  0  0  0  0  0  0  0  0  0  0  0
  183.2480  172.3370  137.3350 O   0  0  0  0  0  0  0  0  0  0  0  0
  182.7290  174.7950  138.5480 C   0  0  0  0  0  1  0  0  0  0  0  0
  184.4250  175.2910  135.3960 C   0  0  0  0  0  2  0  0  0  0  0  0
  183.7000  175.7800  136.6450 C   0  0  1  0  0  3  0  0  0  0  0  0
  185.6630  172.8620  137.5620 O   0  0  0  0  0  0  0  0  0  0  0  0
  183.9640  174.9020  137.7830 N   0  0  0  0  0  0  0  0  0  0  0  0
  180.0000  177.9890  138.7590 C   0  0  2  0  0  3  0  0  0  0  0  0
  179.4970  176.7560  138.2770 O   0  0  0  0  0  0  0  0  0  0  0  0
  179.6990  175.7620  139.2500 C   0  0  0  0  0  1  0  0  0  0  0  0
  178.9310  178.8220  139.4730 C   0  0  0  0  0  2  0  0  0  0  0  0
  179.2380  178.9040  140.9580 C   0  0  0  0  0  1  0  0  0  0  0  0
  1  4  1  0  0  0  0
  1  2  1  0  0  0  0
  2 39  1  0  0  0  0
  3  1  2  0  0  0  0
  5  6  1  0  0  0  0
  6  9  1  0  0  0  0
  7 14  2  0  0  0  0
  8 11  1  6  0  0  0
  8  5  1  0  0  0  0
  9 12  1  0  0  0  0
 10 15  1  0  0  0  0
 12 16  1  0  0  0  0
 13  4  1  6  0  0  0
 13  8  1  0  0  0  0
 13 10  1  0  0  0  0
 14 12  1  0  0  0  0
 15  6  2  0  0  0  0
 15  7  1  0  0  0  0
 16 17  1  0  0  0  0
 17 18  1  0  0  0  0
 19 18  1  0  0  0  0
 20 21  1  0  0  0  0
 21 19  1  0  0  0  0
 22 25  1  0  0  0  0
 22 24  1  0  0  0  0
 23 27  1  0  0  0  0
 23 29  2  0  0  0  0
 26  2  1  0  0  0  0
 26 28  2  0  0  0  0
 27 22  2  0  0  0  0
 28 24  1  0  0  0  0
 29 26  1  0  0  0  0
 30  4  1  0  0  0  0
 31 35  1  0  0  0  0
 31 32  1  0  0  0  0
 32 33  2  0  0  0  0
 32 37  2  0  0  0  0
 32 38  1  0  0  0  0
 35 36  1  0  0  0  0
 36 30  1  1  0  0  0
 36 38  1  0  0  0  0
 38 34  1  0  0  0  0
 39 42  1  6  0  0  0
 40 39  1  0  0  0  0
 40 41  1  0  0  0  0
 42 43  1  0  0  0  0
M  END
>  <MODEL>
4

>  <REMARK>
 VINA RESULT:      -4.7      5.014      7.598
  Name = 
  12 active torsions:
  status: ('A' for Active; 'I' for Inactive)
    1  A    between atoms: C_1  and  N_34
    2  A    between atoms: C_1  and  C_35
    3  A    between atoms: O_2  and  C_27
    4  A    between atoms: C_6  and  C_27
    5  A    between atoms: C_11  and  N_22
    6  A    between atoms: C_11  and  C_36
    7  A    between atoms: C_21  and  N_30
    8  A    between atoms: C_27  and  N_30
    9  A    between atoms: N_29  and  C_31
   10  A    between atoms: N_29  and  C_36
   11  A    between atoms: C_31  and  C_40
   12  A    between atoms: N_34  and  C_38
                            x       y       z     vdW  Elec       q    Type
                         _______ _______ _______ _____ _____    ______ ____

>  <TORSDO>
F 12

$$$$
=
 OpenBabel10262422173D

 43 46  0  0  1  0  0  0  0  0999 V2000
  186.2640  177.3160  136.6870 C   0  0  0  0  0  0  0  0  0  0  0  0
  185.3810  176.1990  136.9020 N   0  0  0  0  0  0  0  0  0  0  0  0
  186.3680  177.7920  135.5170 O   0  0  0  0  0  0  0  0  0  0  0  0
  186.9990  177.9190  137.7750 N   0  0  0  0  0  0  0  0  0  0  0  0
  185.4600  178.6120  141.1860 C   0  0  0  0  0  2  0  0  0  0  0  0
  186.5980  178.1390  142.0410 C   0  0  0  0  0  0  0  0  0  0  0  0
  188.7510  177.0330  142.3830 C   0  0  0  0  0  3  0  0  0  0  0  0
  185.8830  178.9340  139.7600 C   0  0  2  0  0  3  0  0  0  0  0  0
  186.3910  178.1960  143.5290 C   0  0  0  0  0  2  0  0  0  0  0  0
  187.8850  177.4000  140.0260 C   0  0  0  0  0  2  0  0  0  0  0  0
  184.6310  179.2100  138.9500 C   0  0  0  0  0  1  0  0  0  0  0  0
  187.6230  177.9450  144.2770 N   0  0  0  0  0  0  0  0  0  0  0  0
  186.6480  177.7420  139.1880 C   0  0  2  0  0  3  0  0  0  0  0  0
  188.7230  177.2510  143.6930 C   0  0  0  0  0  3  0  0  0  0  0  0
  187.6680  177.5120  141.5110 C   0  0  0  0  0  0  0  0  0  0  0  0
  187.6410  178.2310  145.7040 C   0  0  0  0  0  2  0  0  0  0  0  0
  188.0890  177.0030  146.4740 C   0  0  0  0  0  2  0  0  0  0  0  0
  188.4760  177.3760  147.8160 N   0  0  0  0  0  2  0  0  0  0  0  0
  189.9020  177.6600  147.7810 C   0  0  0  0  0  2  0  0  0  0  0  0
  191.6900  177.1270  146.2330 N   0  0  0  0  0  1  0  0  0  0  0  0
  190.6400  176.5590  147.0500 C   0  0  0  0  0  2  0  0  0  0  0  0
  181.3630  177.6210  138.1950 C   0  0  0  0  0  0  0  0  0  0  0  0
  182.1420  177.7500  135.8440 C   0  0  0  0  0  3  0  0  0  0  0  0
  181.8710  176.2350  138.3650 C   0  0  0  0  0  2  0  0  0  0  0  0
  180.4990  178.3770  139.5110 Cl  0  0  0  0  0  0  0  0  0  0  0  0
  183.9640  176.4500  137.0200 C   0  0  0  0  0  0  0  0  0  0  0  0
  181.4380  178.2570  137.0320 C   0  0  0  0  0  3  0  0  0  0  0  0
  183.3470  176.1490  138.1650 C   0  0  0  0  0  3  0  0  0  0  0  0
  183.2300  176.9660  135.8400 C   0  0  0  0  0  3  0  0  0  0  0  0
  187.9750  178.9600  137.4900 C   0  0  0  0  0  2  0  0  0  0  0  0
  191.0940  177.2300  138.7480 C   0  0  0  0  0  2  0  0  0  0  0  0
  190.5760  176.1410  137.4760 S   0  0  0  0  0  0  0  0  0  0  0  0
  191.7070  175.8560  136.5200 O   0  0  0  0  0  0  0  0  0  0  0  0
  189.6020  177.2470  135.3320 C   0  0  0  0  0  1  0  0  0  0  0  0
  189.9880  178.2670  138.7780 C   0  0  0  0  0  2  0  0  0  0  0  0
  189.3710  178.3710  137.3870 C   0  0  1  0  0  3  0  0  0  0  0  0
  190.0330  174.8610  138.0590 O   0  0  0  0  0  0  0  0  0  0  0  0
  189.3000  177.0600  136.7460 N   0  0  0  0  0  0  0  0  0  0  0  0
  185.9290  174.8610  137.2060 C   0  0  2  0  0  3  0  0  0  0  0  0
  187.3240  174.7610  136.9830 O   0  0  0  0  0  0  0  0  0  0  0  0
  187.5540  173.9720  135.8420 C   0  0  0  0  0  1  0  0  0  0  0  0
  185.1440  173.7300  136.5350 C   0  0  0  0  0  2  0  0  0  0  0  0
  184.5660  172.8000  137.5860 C   0  0  0  0  0  1  0  0  0  0  0  0
  1  2  1  0  0  0  0
  1  4  1  0  0  0  0
  2 26  1  0  0  0  0
  2 39  1  0  0  0  0
  3  1  2  0  0  0  0
  5  6  1  0  0  0  0
  6  9  1  0  0  0  0
  7 14  2  0  0  0  0
  8 11  1  6  0  0  0
  8  5  1  0  0  0  0
  9 12  1  0  0  0  0
 10 15  1  0  0  0  0
 12 16  1  0  0  0  0
 13  4  1  6  0  0  0
 13  8  1  0  0  0  0
 13 10  1  0  0  0  0
 14 12  1  0  0  0  0
 15  6  2  0  0  0  0
 15  7  1  0  0  0  0
 16 17  1  0  0  0  0
 17 18  1  0  0  0  0
 19 18  1  0  0  0  0
 20 21  1  0  0  0  0
 21 19  1  0  0  0  0
 22 24  1  0  0  0  0
 22 25  1  0  0  0  0
 23 27  1  0  0  0  0
 26 28  2  0  0  0  0
 27 22  2  0  0  0  0
 28 24  1  0  0  0  0
 29 23  2  0  0  0  0
 29 26  1  0  0  0  0
 30  4  1  0  0  0  0
 31 35  1  0  0  0  0
 32 37  2  0  0  0  0
 32 31  1  0  0  0  0
 33 32  2  0  0  0  0
 34 38  1  0  0  0  0
 36 30  1  1  0  0  0
 36 35  1  0  0  0  0
 38 36  1  0  0  0  0
 38 32  1  0  0  0  0
 39 42  1  6  0  0  0
 40 39  1  0  0  0  0
 41 40  1  0  0  0  0
 42 43  1  0  0  0  0
M  END
>  <MODEL>
5

>  <REMARK>
 VINA RESULT:      -4.6      2.420      3.647
  Name = 
  12 active torsions:
  status: ('A' for Active; 'I' for Inactive)
    1  A    between atoms: C_1  and  N_34
    2  A    between atoms: C_1  and  C_35
    3  A    between atoms: O_2  and  C_27
    4  A    between atoms: C_6  and  C_27
    5  A    between atoms: C_11  and  N_22
    6  A    between atoms: C_11  and  C_36
    7  A    between atoms: C_21  and  N_30
    8  A    between atoms: C_27  and  N_30
    9  A    between atoms: N_29  and  C_31
   10  A    between atoms: N_29  and  C_36
   11  A    between atoms: C_31  and  C_40
   12  A    between atoms: N_34  and  C_38
                            x       y       z     vdW  Elec       q    Type
                         _______ _______ _______ _____ _____    ______ ____

>  <TORSDO>
F 12

$$$$
=
 OpenBabel10262422173D

 43 46  0  0  1  0  0  0  0  0999 V2000
  185.1120  176.3640  136.3770 C   0  0  0  0  0  0  0  0  0  0  0  0
  184.3280  175.4750  137.1950 N   0  0  0  0  0  0  0  0  0  0  0  0
  184.7430  176.5760  135.1830 O   0  0  0  0  0  0  0  0  0  0  0  0
  186.2790  177.0380  136.8980 N   0  0  0  0  0  0  0  0  0  0  0  0
  186.3790  178.6340  140.3530 C   0  0  0  0  0  2  0  0  0  0  0  0
  187.7380  178.1590  140.7750 C   0  0  0  0  0  0  0  0  0  0  0  0
  189.7550  176.8050  140.4980 C   0  0  0  0  0  3  0  0  0  0  0  0
  186.1790  178.5940  138.8450 C   0  0  2  0  0  3  0  0  0  0  0  0
  188.1850  178.5420  142.1580 C   0  0  0  0  0  2  0  0  0  0  0  0
  187.9980  176.8360  138.6670 C   0  0  0  0  0  2  0  0  0  0  0  0
  184.7230  178.9060  138.5550 C   0  0  0  0  0  1  0  0  0  0  0  0
  189.5980  178.2460  142.3930 N   0  0  0  0  0  0  0  0  0  0  0  0
  186.5490  177.2040  138.3310 C   0  0  2  0  0  3  0  0  0  0  0  0
  190.2980  177.2790  141.6140 C   0  0  0  0  0  3  0  0  0  0  0  0
  188.4390  177.2720  140.0380 C   0  0  0  0  0  0  0  0  0  0  0  0
  190.2370  178.8010  143.5770 C   0  0  0  0  0  2  0  0  0  0  0  0
  189.8400  178.0020  144.8050 C   0  0  0  0  0  2  0  0  0  0  0  0
  188.4140  177.7620  144.7980 N   0  0  0  0  0  2  0  0  0  0  0  0
  187.9640  177.8560  146.1780 C   0  0  0  0  0  2  0  0  0  0  0  0
  188.9650  176.8900  148.1640 N   0  0  0  0  0  1  0  0  0  0  0  0
  189.1500  177.8730  147.1190 C   0  0  0  0  0  2  0  0  0  0  0  0
  181.3580  177.6760  139.6800 C   0  0  0  0  0  0  0  0  0  0  0  0
  181.1630  177.4740  137.2160 C   0  0  0  0  0  3  0  0  0  0  0  0
  181.7090  176.2410  139.8430 C   0  0  0  0  0  2  0  0  0  0  0  0
  181.1840  178.6760  141.1010 Cl  0  0  0  0  0  0  0  0  0  0  0  0
  183.1160  175.9780  137.7970 C   0  0  0  0  0  0  0  0  0  0  0  0
  181.0530  178.1910  138.4960 C   0  0  0  0  0  3  0  0  0  0  0  0
  182.9630  175.8840  139.1200 C   0  0  0  0  0  3  0  0  0  0  0  0
  182.0510  176.5160  136.9170 C   0  0  0  0  0  3  0  0  0  0  0  0
  187.1130  177.8230  136.0020 C   0  0  0  0  0  2  0  0  0  0  0  0
  190.6080  176.3810  136.0870 C   0  0  0  0  0  2  0  0  0  0  0  0
  189.6270  174.9280  136.0850 S   0  0  0  0  0  0  0  0  0  0  0  0
  190.0700  173.9830  134.9960 O   0  0  0  0  0  0  0  0  0  0  0  0
  187.4930  174.9750  134.5960 C   0  0  0  0  0  1  0  0  0  0  0  0
  189.5730  177.4880  136.1520 C   0  0  0  0  0  2  0  0  0  0  0  0
  188.2850  176.9990  135.4990 C   0  0  1  0  0  3  0  0  0  0  0  0
  189.6740  174.2520  137.4310 O   0  0  0  0  0  0  0  0  0  0  0  0
  188.0500  175.5870  135.7960 N   0  0  0  0  0  0  0  0  0  0  0  0
  184.8580  174.1500  137.5790 C   0  0  2  0  0  3  0  0  0  0  0  0
  186.2090  173.9560  137.2040 O   0  0  0  0  0  0  0  0  0  0  0  0
  186.5820  172.6300  137.4880 C   0  0  0  0  0  1  0  0  0  0  0  0
  183.9530  172.9970  137.1370 C   0  0  0  0  0  2  0  0  0  0  0  0
  183.5060  173.2050  135.7010 C   0  0  0  0  0  1  0  0  0  0  0  0
  1  4  1  0  0  0  0
  1  2  1  0  0  0  0
  2 39  1  0  0  0  0
  2 26  1  0  0  0  0
  3  1  2  0  0  0  0
  5  6  1  0  0  0  0
  6  9  1  0  0  0  0
  7 14  2  0  0  0  0
  8 11  1  1  0  0  0
  8  5  1  0  0  0  0
  9 12  1  0  0  0  0
 10 15  1  0  0  0  0
 12 16  1  0  0  0  0
 13  4  1  6  0  0  0
 13 10  1  0  0  0  0
 13  8  1  0  0  0  0
 14 12  1  0  0  0  0
 15  7  1  0  0  0  0
 15  6  2  0  0  0  0
 16 17  1  0  0  0  0
 18 17  1  0  0  0  0
 18 19  1  0  0  0  0
 19 21  1  0  0  0  0
 21 20  1  0  0  0  0
 22 24  1  0  0  0  0
 22 25  1  0  0  0  0
 23 27  1  0  0  0  0
 26 28  2  0  0  0  0
 27 22  2  0  0  0  0
 28 24  1  0  0  0  0
 29 23  2  0  0  0  0
 29 26  1  0  0  0  0
 30  4  1  0  0  0  0
 31 35  1  0  0  0  0
 32 31  1  0  0  0  0
 32 37  2  0  0  0  0
 33 32  2  0  0  0  0
 34 38  1  0  0  0  0
 36 38  1  0  0  0  0
 36 30  1  1  0  0  0
 36 35  1  0  0  0  0
 38 32  1  0  0  0  0
 39 42  1  6  0  0  0
 40 41  1  0  0  0  0
 40 39  1  0  0  0  0
 43 42  1  0  0  0  0
M  END
>  <MODEL>
6

>  <REMARK>
 VINA RESULT:      -4.1      2.717      3.900
  Name = 
  12 active torsions:
  status: ('A' for Active; 'I' for Inactive)
    1  A    between atoms: C_1  and  N_34
    2  A    between atoms: C_1  and  C_35
    3  A    between atoms: O_2  and  C_27
    4  A    between atoms: C_6  and  C_27
    5  A    between atoms: C_11  and  N_22
    6  A    between atoms: C_11  and  C_36
    7  A    between atoms: C_21  and  N_30
    8  A    between atoms: C_27  and  N_30
    9  A    between atoms: N_29  and  C_31
   10  A    between atoms: N_29  and  C_36
   11  A    between atoms: C_31  and  C_40
   12  A    between atoms: N_34  and  C_38
                            x       y       z     vdW  Elec       q    Type
                         _______ _______ _______ _____ _____    ______ ____

>  <TORSDO>
F 12

$$$$
=
 OpenBabel10262422173D

 43 46  0  0  1  0  0  0  0  0999 V2000
  186.1300  175.6440  135.8500 C   0  0  0  0  0  0  0  0  0  0  0  0
  185.2470  174.8280  136.6440 N   0  0  0  0  0  0  0  0  0  0  0  0
  185.9380  175.7090  134.5990 O   0  0  0  0  0  0  0  0  0  0  0  0
  187.1970  176.4090  136.4530 N   0  0  0  0  0  0  0  0  0  0  0  0
  186.7870  178.3960  139.6740 C   0  0  0  0  0  2  0  0  0  0  0  0
  188.0660  177.9910  140.3460 C   0  0  0  0  0  0  0  0  0  0  0  0
  190.0950  176.6400  140.5320 C   0  0  0  0  0  3  0  0  0  0  0  0
  186.8150  178.1790  138.1680 C   0  0  2  0  0  3  0  0  0  0  0  0
  188.3030  178.5370  141.7270 C   0  0  0  0  0  2  0  0  0  0  0  0
  188.6320  176.4360  138.4690 C   0  0  0  0  0  2  0  0  0  0  0  0
  185.4200  178.4360  137.6310 C   0  0  0  0  0  1  0  0  0  0  0  0
  189.6630  178.2890  142.2020 N   0  0  0  0  0  0  0  0  0  0  0  0
  187.2510  176.7430  137.8810 C   0  0  2  0  0  3  0  0  0  0  0  0
  190.4680  177.2480  141.6540 C   0  0  0  0  0  3  0  0  0  0  0  0
  188.8650  177.0340  139.8300 C   0  0  0  0  0  0  0  0  0  0  0  0
  190.1210  178.9860  143.3950 C   0  0  0  0  0  2  0  0  0  0  0  0
  189.9280  178.1070  144.6170 C   0  0  0  0  0  2  0  0  0  0  0  0
  191.1980  177.8810  145.2690 N   0  0  0  0  0  2  0  0  0  0  0  0
  191.0820  176.6270  145.9960 C   0  0  0  0  0  2  0  0  0  0  0  0
  192.2230  175.4220  147.7640 N   0  0  0  0  0  1  0  0  0  0  0  0
  191.7780  176.7300  147.3370 C   0  0  0  0  0  2  0  0  0  0  0  0
  180.8750  175.4830  137.1920 C   0  0  0  0  0  0  0  0  0  0  0  0
  182.5050  175.6620  139.0520 C   0  0  0  0  0  3  0  0  0  0  0  0
  181.7420  176.2520  136.2600 C   0  0  0  0  0  2  0  0  0  0  0  0
  179.2990  174.9600  136.6500 Cl  0  0  0  0  0  0  0  0  0  0  0  0
  183.9520  175.3570  137.0020 C   0  0  0  0  0  0  0  0  0  0  0  0
  181.2110  175.2880  138.4610 C   0  0  0  0  0  3  0  0  0  0  0  0
  183.0570  175.5850  136.0380 C   0  0  0  0  0  3  0  0  0  0  0  0
  183.6870  175.6970  138.4200 C   0  0  0  0  0  3  0  0  0  0  0  0
  188.1420  177.1150  135.6020 C   0  0  0  0  0  2  0  0  0  0  0  0
  191.6180  175.6830  136.0200 C   0  0  0  0  0  2  0  0  0  0  0  0
  190.6240  174.2470  136.1740 S   0  0  0  0  0  0  0  0  0  0  0  0
  191.1010  173.1630  135.2400 O   0  0  0  0  0  0  0  0  0  0  0  0
  188.5520  174.1010  134.6070 C   0  0  0  0  0  1  0  0  0  0  0  0
  190.5910  176.7930  135.8940 C   0  0  0  0  0  2  0  0  0  0  0  0
  189.3250  176.2250  135.2610 C   0  0  1  0  0  3  0  0  0  0  0  0
  190.6120  173.7580  137.6000 O   0  0  0  0  0  0  0  0  0  0  0  0
  189.0660  174.8680  135.7350 N   0  0  0  0  0  0  0  0  0  0  0  0
  185.7340  173.5730  137.2510 C   0  0  2  0  0  3  0  0  0  0  0  0
  187.1440  173.4430  137.2190 O   0  0  0  0  0  0  0  0  0  0  0  0
  187.5060  172.1950  137.7560 C   0  0  0  0  0  1  0  0  0  0  0  0
  185.0160  172.3330  136.7100 C   0  0  0  0  0  2  0  0  0  0  0  0
  185.4690  172.0460  135.2890 C   0  0  0  0  0  1  0  0  0  0  0  0
  1  4  1  0  0  0  0
  1  2  1  0  0  0  0
  2 26  1  0  0  0  0
  2 39  1  0  0  0  0
  3  1  2  0  0  0  0
  5  6  1  0  0  0  0
  6  9  1  0  0  0  0
  7 14  2  0  0  0  0
  8 11  1  1  0  0  0
  8  5  1  0  0  0  0
  9 12  1  0  0  0  0
 10 15  1  0  0  0  0
 12 16  1  0  0  0  0
 13  4  1  6  0  0  0
 13  8  1  0  0  0  0
 13 10  1  0  0  0  0
 14 12  1  0  0  0  0
 15  6  2  0  0  0  0
 15  7  1  0  0  0  0
 16 17  1  0  0  0  0
 17 18  1  0  0  0  0
 18 19  1  0  0  0  0
 19 21  1  0  0  0  0
 21 20  1  0  0  0  0
 22 27  2  0  0  0  0
 24 22  1  0  0  0  0
 25 22  1  0  0  0  0
 26 29  1  0  0  0  0
 27 23  1  0  0  0  0
 28 24  1  0  0  0  0
 28 26  2  0  0  0  0
 29 23  2  0  0  0  0
 30  4  1  0  0  0  0
 31 32  1  0  0  0  0
 32 37  2  0  0  0  0
 33 32  2  0  0  0  0
 34 38  1  0  0  0  0
 35 31  1  0  0  0  0
 36 30  1  1  0  0  0
 36 38  1  0  0  0  0
 36 35  1  0  0  0  0
 38 32  1  0  0  0  0
 39 42  1  6  0  0  0
 40 39  1  0  0  0  0
 40 41  1  0  0  0  0
 43 42  1  0  0  0  0
M  END
>  <MODEL>
7

>  <REMARK>
 VINA RESULT:      -3.8      2.623      3.508
  Name = 
  12 active torsions:
  status: ('A' for Active; 'I' for Inactive)
    1  A    between atoms: C_1  and  N_34
    2  A    between atoms: C_1  and  C_35
    3  A    between atoms: O_2  and  C_27
    4  A    between atoms: C_6  and  C_27
    5  A    between atoms: C_11  and  N_22
    6  A    between atoms: C_11  and  C_36
    7  A    between atoms: C_21  and  N_30
    8  A    between atoms: C_27  and  N_30
    9  A    between atoms: N_29  and  C_31
   10  A    between atoms: N_29  and  C_36
   11  A    between atoms: C_31  and  C_40
   12  A    between atoms: N_34  and  C_38
                            x       y       z     vdW  Elec       q    Type
                         _______ _______ _______ _____ _____    ______ ____

>  <TORSDO>
F 12

$$$$
=
 OpenBabel10262422173D

 43 46  0  0  1  0  0  0  0  0999 V2000
  182.7510  179.9060  139.3100 C   0  0  0  0  0  0  0  0  0  0  0  0
  183.5300  178.7910  139.7850 N   0  0  0  0  0  0  0  0  0  0  0  0
  183.3430  180.9970  139.0560 O   0  0  0  0  0  0  0  0  0  0  0  0
  181.3280  179.7920  139.0870 N   0  0  0  0  0  0  0  0  0  0  0  0
  179.7670  176.4460  140.0130 C   0  0  0  0  0  2  0  0  0  0  0  0
  180.1730  175.6700  138.7950 C   0  0  0  0  0  0  0  0  0  0  0  0
  181.1080  175.4830  136.5430 C   0  0  0  0  0  3  0  0  0  0  0  0
  180.6110  177.6940  140.2290 C   0  0  2  0  0  3  0  0  0  0  0  0
  179.7070  174.2430  138.7200 C   0  0  0  0  0  2  0  0  0  0  0  0
  181.1920  177.7080  137.7600 C   0  0  0  0  0  2  0  0  0  0  0  0
  179.9900  178.4900  141.3610 C   0  0  0  0  0  1  0  0  0  0  0  0
  180.3410  173.5020  137.6300 N   0  0  0  0  0  0  0  0  0  0  0  0
  180.6290  178.5110  138.9380 C   0  0  2  0  0  3  0  0  0  0  0  0
  180.9160  174.1690  136.5080 C   0  0  0  0  0  3  0  0  0  0  0  0
  180.7520  176.2700  137.7330 C   0  0  0  0  0  0  0  0  0  0  0  0
  180.1990  172.0540  137.5980 C   0  0  0  0  0  2  0  0  0  0  0  0
  180.8670  171.4940  136.3550 C   0  0  0  0  0  2  0  0  0  0  0  0
  182.1560  170.9350  136.6970 N   0  0  0  0  0  2  0  0  0  0  0  0
  183.0200  171.1290  135.5430 C   0  0  0  0  0  2  0  0  0  0  0  0
  184.3500  172.2510  137.2310 N   0  0  0  0  0  1  0  0  0  0  0  0
  184.0310  172.2200  135.8210 C   0  0  0  0  0  2  0  0  0  0  0  0
  184.8100  176.4280  136.2330 C   0  0  0  0  0  0  0  0  0  0  0  0
  186.1400  178.3120  137.1440 C   0  0  0  0  0  3  0  0  0  0  0  0
  184.5480  175.8630  137.5830 C   0  0  0  0  0  2  0  0  0  0  0  0
  184.2190  175.5770  134.8270 Cl  0  0  0  0  0  0  0  0  0  0  0  0
  184.2770  178.0110  138.8270 C   0  0  0  0  0  0  0  0  0  0  0  0
  185.5830  177.4920  136.0570 C   0  0  0  0  0  3  0  0  0  0  0  0
  183.8070  176.8180  138.4570 C   0  0  0  0  0  3  0  0  0  0  0  0
  185.5780  178.5320  138.3410 C   0  0  0  0  0  3  0  0  0  0  0  0
  180.5620  180.9770  138.7310 C   0  0  0  0  0  2  0  0  0  0  0  0
  180.4680  181.5610  134.9960 C   0  0  0  0  0  2  0  0  0  0  0  0
  180.3400  183.1970  135.6120 S   0  0  0  0  0  0  0  0  0  0  0  0
  181.3710  184.0930  134.9720 O   0  0  0  0  0  0  0  0  0  0  0  0
  181.7720  183.7580  137.7120 C   0  0  0  0  0  1  0  0  0  0  0  0
  180.4540  180.7210  136.2590 C   0  0  0  0  0  2  0  0  0  0  0  0
  181.0360  181.5430  137.4050 C   0  0  1  0  0  3  0  0  0  0  0  0
  178.9510  183.7400  135.3960 O   0  0  0  0  0  0  0  0  0  0  0  0
  180.6340  182.9440  137.3020 N   0  0  0  0  0  0  0  0  0  0  0  0
  183.4000  178.3300  141.1830 C   0  0  2  0  0  3  0  0  0  0  0  0
  182.7080  179.2440  142.0140 O   0  0  0  0  0  0  0  0  0  0  0  0
  182.9240  178.9010  143.3600 C   0  0  0  0  0  1  0  0  0  0  0  0
  184.7330  177.8790  141.7860 C   0  0  0  0  0  2  0  0  0  0  0  0
  185.7070  179.0420  141.8290 C   0  0  0  0  0  1  0  0  0  0  0  0
  1  2  1  0  0  0  0
  2 39  1  0  0  0  0
  3  1  2  0  0  0  0
  4  1  1  0  0  0  0
  5  8  1  0  0  0  0
  6  5  1  0  0  0  0
  7 15  1  0  0  0  0
  8 11  1  1  0  0  0
  9  6  1  0  0  0  0
 10 13  1  0  0  0  0
 12  9  1  0  0  0  0
 13  4  1  1  0  0  0
 13  8  1  0  0  0  0
 14  7  2  0  0  0  0
 14 12  1  0  0  0  0
 15 10  1  0  0  0  0
 15  6  2  0  0  0  0
 16 12  1  0  0  0  0
 17 18  1  0  0  0  0
 17 16  1  0  0  0  0
 19 21  1  0  0  0  0
 19 18  1  0  0  0  0
 21 20  1  0  0  0  0
 22 24  1  0  0  0  0
 23 29  2  0  0  0  0
 24 28  1  0  0  0  0
 25 22  1  0  0  0  0
 26  2  1  0  0  0  0
 27 22  2  0  0  0  0
 27 23  1  0  0  0  0
 28 26  2  0  0  0  0
 29 26  1  0  0  0  0
 30  4  1  0  0  0  0
 31 32  1  0  0  0  0
 31 35  1  0  0  0  0
 32 38  1  0  0  0  0
 33 32  2  0  0  0  0
 35 36  1  0  0  0  0
 36 30  1  1  0  0  0
 37 32  2  0  0  0  0
 38 36  1  0  0  0  0
 38 34  1  0  0  0  0
 39 42  1  1  0  0  0
 39 40  1  0  0  0  0
 40 41  1  0  0  0  0
 42 43  1  0  0  0  0
M  END
>  <MODEL>
8

>  <REMARK>
 VINA RESULT:      -3.7      6.372     10.561
  Name = 
  12 active torsions:
  status: ('A' for Active; 'I' for Inactive)
    1  A    between atoms: C_1  and  N_34
    2  A    between atoms: C_1  and  C_35
    3  A    between atoms: O_2  and  C_27
    4  A    between atoms: C_6  and  C_27
    5  A    between atoms: C_11  and  N_22
    6  A    between atoms: C_11  and  C_36
    7  A    between atoms: C_21  and  N_30
    8  A    between atoms: C_27  and  N_30
    9  A    between atoms: N_29  and  C_31
   10  A    between atoms: N_29  and  C_36
   11  A    between atoms: C_31  and  C_40
   12  A    between atoms: N_34  and  C_38
                            x       y       z     vdW  Elec       q    Type
                         _______ _______ _______ _____ _____    ______ ____

>  <TORSDO>
F 12

$$$$
=
 OpenBabel10262422173D

 43 46  0  0  1  0  0  0  0  0999 V2000
  184.5360  177.8800  137.5940 C   0  0  0  0  0  0  0  0  0  0  0  0
  185.3660  176.8530  137.0170 N   0  0  0  0  0  0  0  0  0  0  0  0
  183.4630  178.1980  137.0010 O   0  0  0  0  0  0  0  0  0  0  0  0
  184.8850  178.5210  138.8410 N   0  0  0  0  0  0  0  0  0  0  0  0
  186.7250  177.9390  142.1220 C   0  0  0  0  0  2  0  0  0  0  0  0
  188.1060  177.7500  141.5690 C   0  0  0  0  0  0  0  0  0  0  0  0
  189.6950  177.4470  139.7360 C   0  0  0  0  0  3  0  0  0  0  0  0
  185.7940  178.6610  141.1590 C   0  0  2  0  0  3  0  0  0  0  0  0
  189.1920  177.4390  142.5620 C   0  0  0  0  0  2  0  0  0  0  0  0
  187.2570  177.9280  139.2220 C   0  0  0  0  0  2  0  0  0  0  0  0
  184.3940  178.6210  141.7400 C   0  0  0  0  0  1  0  0  0  0  0  0
  190.5280  177.5070  141.9710 N   0  0  0  0  0  0  0  0  0  0  0  0
  185.8390  177.9590  139.8030 C   0  0  2  0  0  3  0  0  0  0  0  0
  190.7310  177.3820  140.5660 C   0  0  0  0  0  3  0  0  0  0  0  0
  188.3320  177.6640  140.2420 C   0  0  0  0  0  0  0  0  0  0  0  0
  191.6820  177.4980  142.8580 C   0  0  0  0  0  2  0  0  0  0  0  0
  191.3650  176.7060  144.1140 C   0  0  0  0  0  2  0  0  0  0  0  0
  191.4960  177.5530  145.2780 N   0  0  0  0  0  2  0  0  0  0  0  0
  191.0400  176.7750  146.4200 C   0  0  0  0  0  2  0  0  0  0  0  0
  192.6380  176.0020  148.0710 N   0  0  0  0  0  1  0  0  0  0  0  0
  192.0610  175.7160  146.7760 C   0  0  0  0  0  2  0  0  0  0  0  0
  183.7660  172.7220  136.5570 C   0  0  0  0  0  0  0  0  0  0  0  0
  186.0840  173.1900  137.3050 C   0  0  0  0  0  3  0  0  0  0  0  0
  183.1900  173.7640  137.4460 C   0  0  0  0  0  2  0  0  0  0  0  0
  182.6920  171.7310  135.6000 Cl  0  0  0  0  0  0  0  0  0  0  0  0
  184.9980  175.4720  137.2190 C   0  0  0  0  0  0  0  0  0  0  0  0
  185.0630  172.4370  136.5600 C   0  0  0  0  0  3  0  0  0  0  0  0
  183.7120  175.1240  137.1270 C   0  0  0  0  0  3  0  0  0  0  0  0
  186.0530  174.4990  137.5930 C   0  0  0  0  0  3  0  0  0  0  0  0
  184.0880  179.6390  139.3190 C   0  0  0  0  0  2  0  0  0  0  0  0
  180.6230  178.4310  140.2370 C   0  0  0  0  0  2  0  0  0  0  0  0
  180.3330  180.1320  139.9260 S   0  0  0  0  0  0  0  0  0  0  0  0
  179.1980  180.3120  138.9500 O   0  0  0  0  0  0  0  0  0  0  0  0
  181.6480  181.1870  137.9440 C   0  0  0  0  0  1  0  0  0  0  0  0
  182.1270  178.3100  140.0790 C   0  0  0  0  0  2  0  0  0  0  0  0
  182.6080  179.3750  139.1000 C   0  0  1  0  0  3  0  0  0  0  0  0
  180.0550  180.8670  141.2120 O   0  0  0  0  0  0  0  0  0  0  0  0
  181.8620  180.6200  139.2700 N   0  0  0  0  0  0  0  0  0  0  0  0
  186.6710  177.1970  136.4160 C   0  0  2  0  0  3  0  0  0  0  0  0
  186.8030  178.5740  136.1100 O   0  0  0  0  0  0  0  0  0  0  0  0
  188.0920  179.0060  136.4710 C   0  0  0  0  0  1  0  0  0  0  0  0
  187.0380  176.2940  135.2340 C   0  0  0  0  0  2  0  0  0  0  0  0
  188.4590  175.7820  135.3890 C   0  0  0  0  0  1  0  0  0  0  0  0
  1  4  1  0  0  0  0
  2 26  1  0  0  0  0
  2  1  1  0  0  0  0
  3  1  2  0  0  0  0
  4 30  1  0  0  0  0
  6  5  1  0  0  0  0
  6  9  1  0  0  0  0
  7 15  1  0  0  0  0
  7 14  2  0  0  0  0
  8 11  1  1  0  0  0
  8  5  1  0  0  0  0
 10 13  1  0  0  0  0
 10 15  1  0  0  0  0
 12  9  1  0  0  0  0
 12 16  1  0  0  0  0
 13  4  1  6  0  0  0
 13  8  1  0  0  0  0
 14 12  1  0  0  0  0
 15  6  2  0  0  0  0
 16 17  1  0  0  0  0
 17 18  1  0  0  0  0
 18 19  1  0  0  0  0
 19 21  1  0  0  0  0
 21 20  1  0  0  0  0
 22 27  2  0  0  0  0
 22 24  1  0  0  0  0
 23 29  2  0  0  0  0
 25 22  1  0  0  0  0
 26 29  1  0  0  0  0
 27 23  1  0  0  0  0
 28 26  2  0  0  0  0
 28 24  1  0  0  0  0
 32 31  1  0  0  0  0
 32 37  2  0  0  0  0
 33 32  2  0  0  0  0
 34 38  1  0  0  0  0
 35 31  1  0  0  0  0
 36 38  1  0  0  0  0
 36 30  1  1  0  0  0
 36 35  1  0  0  0  0
 38 32  1  0  0  0  0
 39 42  1  6  0  0  0
 39  2  1  0  0  0  0
 40 39  1  0  0  0  0
 40 41  1  0  0  0  0
 42 43  1  0  0  0  0
M  END
>  <MODEL>
9

>  <REMARK>
 VINA RESULT:      -3.6      4.617      7.306
  Name = 
  12 active torsions:
  status: ('A' for Active; 'I' for Inactive)
    1  A    between atoms: C_1  and  N_34
    2  A    between atoms: C_1  and  C_35
    3  A    between atoms: O_2  and  C_27
    4  A    between atoms: C_6  and  C_27
    5  A    between atoms: C_11  and  N_22
    6  A    between atoms: C_11  and  C_36
    7  A    between atoms: C_21  and  N_30
    8  A    between atoms: C_27  and  N_30
    9  A    between atoms: N_29  and  C_31
   10  A    between atoms: N_29  and  C_36
   11  A    between atoms: C_31  and  C_40
   12  A    between atoms: N_34  and  C_38
                            x       y       z     vdW  Elec       q    Type
                         _______ _______ _______ _____ _____    ______ ____

>  <TORSDO>
F 12

$$$$
