=
 OpenBabel10262422053D

 43 48  0  0  1  0  0  0  0  0999 V2000
  189.0230  177.4490  145.5490 C   0  0  0  0  0  0  0  0  0  0  0  0
  184.4020  178.5590  143.8800 C   0  0  0  0  0  0  0  0  0  0  0  0
  184.5490  179.1540  141.1770 C   0  0  2  0  0  3  0  0  0  0  0  0
  186.6420  177.8270  145.3840 C   0  0  0  0  0  0  0  0  0  0  0  0
  189.1640  177.7150  144.1870 C   0  0  0  0  0  3  0  0  0  0  0  0
  190.2200  177.1300  146.3700 C   0  0  0  0  0  1  0  0  0  0  0  0
  186.7750  178.0680  143.9920 C   0  0  0  0  0  0  0  0  0  0  0  0
  187.7640  177.5090  146.1500 C   0  0  0  0  0  3  0  0  0  0  0  0
  188.0420  178.0280  143.4120 C   0  0  0  0  0  3  0  0  0  0  0  0
  185.7050  178.6400  141.8520 O   0  0  0  0  0  0  0  0  0  0  0  0
  185.6450  178.4160  143.2410 C   0  0  0  0  0  0  0  0  0  0  0  0
  184.2810  178.3410  145.2610 C   0  0  0  0  0  3  0  0  0  0  0  0
  183.3030  179.1320  143.0210 C   0  0  1  0  0  3  0  0  0  0  0  0
  183.3750  178.5960  141.7170 O   0  0  0  0  0  0  0  0  0  0  0  0
  185.3970  177.9510  146.0030 C   0  0  0  0  0  3  0  0  0  0  0  0
  184.6060  178.9240  139.7090 C   0  0  0  0  0  0  0  0  0  0  0  0
  187.0090  177.5530  137.1310 N   0  0  0  0  0  2  0  0  0  0  0  0
  185.8140  178.4900  139.0820 N   0  0  0  0  0  2  0  0  0  0  0  0
  183.5480  179.0440  139.0310 O   0  0  0  0  0  0  0  0  0  0  0  0
  185.8250  177.6730  137.9080 C   0  0  0  0  0  0  0  0  0  0  0  0
  184.7880  177.0310  137.5710 O   0  0  0  0  0  0  0  0  0  0  0  0
  188.3150  177.6170  136.5060 C   0  0  2  0  0  3  0  0  0  0  0  0
  189.9130  175.9770  136.7050 O   0  0  0  0  0  0  0  0  0  0  0  0
  189.6250  177.3780  138.7170 C   0  0  0  0  0  0  0  0  0  0  0  0
  188.3630  176.7300  135.2940 C   0  0  0  0  0  3  0  0  0  0  0  0
  189.3060  177.0050  137.3760 N   0  0  0  0  0  0  0  0  0  0  0  0
  189.0090  178.3300  139.2760 O   0  0  0  0  0  0  0  0  0  0  0  0
  189.3220  175.8150  135.4640 C   0  0  0  0  0  3  0  0  0  0  0  0
  190.6590  176.6020  139.4740 C   0  0  2  0  0  3  0  0  0  0  0  0
  194.0070  177.5120  139.8740 O   0  0  0  0  0  0  0  0  0  0  0  0
  192.0760  177.4130  141.3170 C   0  0  0  0  0  3  0  0  0  0  0  0
  192.7830  177.2730  140.0310 C   0  0  0  0  0  0  0  0  0  0  0  0
  190.6530  176.9740  140.9660 C   0  0  0  0  0  3  0  0  0  0  0  0
  191.9600  176.8940  138.9960 O   0  0  0  0  0  0  0  0  0  0  0  0
  181.8780  179.1300  143.6100 C   0  0  0  0  0  2  0  0  0  0  0  0
  181.0520  180.1500  143.0800 O   0  0  0  0  0  0  0  0  0  0  0  0
  180.2000  179.3660  141.1140 O   0  0  0  0  0  0  0  0  0  0  0  0
  179.5040  178.1950  140.8050 C   0  0  2  0  0  3  0  0  0  0  0  0
  179.7220  178.1590  143.0180 C   0  0  0  0  0  2  0  0  0  0  0  0
  179.9490  179.5320  142.4700 C   0  0  1  0  0  3  0  0  0  0  0  0
  179.4640  177.3350  141.9200 O   0  0  0  0  0  0  0  0  0  0  0  0
  181.2520  176.7360  140.0800 O   0  0  0  0  0  1  0  0  0  0  0  0
  180.1680  177.4950  139.6330 C   0  0  0  0  0  2  0  0  0  0  0  0
  1  8  1  0  0  0  0
  1  6  1  0  0  0  0
  2 12  1  0  0  0  0
  3 16  1  6  0  0  0
  3 14  1  0  0  0  0
  3 10  1  0  0  0  0
  4 15  1  0  0  0  0
  4  8  2  0  0  0  0
  5  1  2  0  0  0  0
  7  4  1  0  0  0  0
  9  7  2  0  0  0  0
  9  5  1  0  0  0  0
 10 11  1  0  0  0  0
 11  2  2  0  0  0  0
 11  7  1  0  0  0  0
 12 15  2  0  0  0  0
 13 35  1  1  0  0  0
 13  2  1  0  0  0  0
 14 13  1  0  0  0  0
 17 20  1  0  0  0  0
 18 16  1  0  0  0  0
 19 16  2  0  0  0  0
 20 18  1  0  0  0  0
 21 20  2  0  0  0  0
 22 17  1  1  0  0  0
 22 26  1  0  0  0  0
 23 26  1  0  0  0  0
 24 27  2  0  0  0  0
 25 28  2  0  0  0  0
 25 22  1  0  0  0  0
 26 24  1  0  0  0  0
 28 23  1  0  0  0  0
 29 24  1  6  0  0  0
 29 33  1  0  0  0  0
 30 32  2  0  0  0  0
 32 31  1  0  0  0  0
 33 31  2  0  0  0  0
 34 29  1  0  0  0  0
 34 32  1  0  0  0  0
 36 35  1  0  0  0  0
 37 40  1  0  0  0  0
 38 43  1  6  0  0  0
 38 37  1  0  0  0  0
 38 41  1  0  0  0  0
 40 39  1  0  0  0  0
 40 36  1  1  0  0  0
 41 39  1  0  0  0  0
 43 42  1  0  0  0  0
M  END
>  <MODEL>
1

>  <REMARK>
 VINA RESULT:     -10.4      0.000      0.000
  Name = 
  7 active torsions:
  status: ('A' for Active; 'I' for Inactive)
    1  A    between atoms: C_1  and  O_32
    2  A    between atoms: C_1  and  C_34
    3  A    between atoms: C_2  and  C_13
    4  A    between atoms: N_3  and  C_4
    5  A    between atoms: C_11  and  C_14
    6  A    between atoms: C_19  and  C_37
    7  A    between atoms: O_32  and  C_35
                            x       y       z     vdW  Elec       q    Type
                         _______ _______ _______ _____ _____    ______ ____

>  <TORSDO>
F 7

$$$$
=
 OpenBabel10262422053D

 43 48  0  0  1  0  0  0  0  0999 V2000
  185.1790  178.6110  145.5910 C   0  0  0  0  0  0  0  0  0  0  0  0
  182.3110  178.8600  141.4580 C   0  0  0  0  0  0  0  0  0  0  0  0
  183.9490  178.7220  139.2260 C   0  0  2  0  0  3  0  0  0  0  0  0
  183.3080  178.7390  144.0670 C   0  0  0  0  0  0  0  0  0  0  0  0
  186.0570  178.5160  144.5120 C   0  0  0  0  0  3  0  0  0  0  0  0
  185.7080  178.6210  146.9790 C   0  0  0  0  0  1  0  0  0  0  0  0
  184.1950  178.6100  142.9660 C   0  0  0  0  0  0  0  0  0  0  0  0
  183.8050  178.7290  145.3710 C   0  0  0  0  0  3  0  0  0  0  0  0
  185.5640  178.5190  143.2020 C   0  0  0  0  0  3  0  0  0  0  0  0
  184.5080  178.5020  140.5280 O   0  0  0  0  0  0  0  0  0  0  0  0
  183.6850  178.6520  141.6620 C   0  0  0  0  0  0  0  0  0  0  0  0
  181.4420  179.0100  142.5500 C   0  0  0  0  0  3  0  0  0  0  0  0
  181.9040  179.0920  140.0240 C   0  0  1  0  0  3  0  0  0  0  0  0
  182.6290  178.2360  139.1670 O   0  0  0  0  0  0  0  0  0  0  0  0
  181.9410  178.9230  143.8510 C   0  0  0  0  0  3  0  0  0  0  0  0
  184.7750  178.1140  138.1490 C   0  0  0  0  0  0  0  0  0  0  0  0
  188.2660  176.7440  137.6660 N   0  0  0  0  0  2  0  0  0  0  0  0
  186.1640  177.8480  138.3540 N   0  0  0  0  0  2  0  0  0  0  0  0
  184.2140  177.7640  137.0740 O   0  0  0  0  0  0  0  0  0  0  0  0
  186.8460  176.7670  137.7110 C   0  0  0  0  0  0  0  0  0  0  0  0
  186.1880  175.8130  137.2040 O   0  0  0  0  0  0  0  0  0  0  0  0
  189.6970  176.9630  137.7320 C   0  0  2  0  0  3  0  0  0  0  0  0
  191.1380  175.6640  138.9620 O   0  0  0  0  0  0  0  0  0  0  0  0
  189.7590  177.2130  140.3000 C   0  0  0  0  0  0  0  0  0  0  0  0
  190.4230  175.9660  136.8750 C   0  0  0  0  0  3  0  0  0  0  0  0
  190.1830  176.6390  139.0630 N   0  0  0  0  0  0  0  0  0  0  0  0
  188.8590  178.1000  140.3150 O   0  0  0  0  0  0  0  0  0  0  0  0
  191.2570  175.2600  137.6440 C   0  0  0  0  0  3  0  0  0  0  0  0
  190.3540  176.7230  141.5850 C   0  0  2  0  0  3  0  0  0  0  0  0
  191.7780  178.7210  144.0710 O   0  0  0  0  0  0  0  0  0  0  0  0
  189.7530  177.4230  143.8680 C   0  0  0  0  0  3  0  0  0  0  0  0
  191.0310  177.9790  143.3840 C   0  0  0  0  0  0  0  0  0  0  0  0
  189.2820  176.5840  142.6780 C   0  0  0  0  0  3  0  0  0  0  0  0
  191.3130  177.6400  142.0810 O   0  0  0  0  0  0  0  0  0  0  0  0
  180.3930  179.1320  139.7200 C   0  0  0  0  0  2  0  0  0  0  0  0
  180.0770  179.8690  138.5540 O   0  0  0  0  0  0  0  0  0  0  0  0
  181.1260  181.6120  137.5190 O   0  0  0  0  0  0  0  0  0  0  0  0
  180.9000  182.9900  137.5620 C   0  0  2  0  0  3  0  0  0  0  0  0
  179.5010  182.1370  139.0670 C   0  0  0  0  0  2  0  0  0  0  0  0
  180.5850  181.1680  138.7200 C   0  0  1  0  0  3  0  0  0  0  0  0
  179.7270  183.2750  138.2900 O   0  0  0  0  0  0  0  0  0  0  0  0
  181.3890  184.7920  136.0710 O   0  0  0  0  0  1  0  0  0  0  0  0
  180.7820  183.5360  136.1510 C   0  0  0  0  0  2  0  0  0  0  0  0
  1  6  1  0  0  0  0
  2 11  2  0  0  0  0
  2 12  1  0  0  0  0
  3 16  1  6  0  0  0
  3 10  1  0  0  0  0
  4  8  2  0  0  0  0
  5  1  2  0  0  0  0
  7  9  2  0  0  0  0
  7  4  1  0  0  0  0
  8  1  1  0  0  0  0
  9  5  1  0  0  0  0
 10 11  1  0  0  0  0
 11  7  1  0  0  0  0
 12 15  2  0  0  0  0
 13 35  1  1  0  0  0
 13  2  1  0  0  0  0
 14  3  1  0  0  0  0
 14 13  1  0  0  0  0
 15  4  1  0  0  0  0
 16 18  1  0  0  0  0
 17 20  1  0  0  0  0
 19 16  2  0  0  0  0
 20 18  1  0  0  0  0
 21 20  2  0  0  0  0
 22 17  1  1  0  0  0
 22 26  1  0  0  0  0
 23 26  1  0  0  0  0
 24 27  2  0  0  0  0
 25 28  2  0  0  0  0
 25 22  1  0  0  0  0
 26 24  1  0  0  0  0
 28 23  1  0  0  0  0
 29 24  1  6  0  0  0
 29 34  1  0  0  0  0
 29 33  1  0  0  0  0
 32 31  1  0  0  0  0
 32 30  2  0  0  0  0
 33 31  2  0  0  0  0
 34 32  1  0  0  0  0
 36 35  1  0  0  0  0
 37 38  1  0  0  0  0
 37 40  1  0  0  0  0
 38 43  1  6  0  0  0
 38 41  1  0  0  0  0
 40 36  1  6  0  0  0
 40 39  1  0  0  0  0
 41 39  1  0  0  0  0
 42 43  1  0  0  0  0
M  END
>  <MODEL>
2

>  <REMARK>
 VINA RESULT:     -10.3      2.663      3.780
  Name = 
  7 active torsions:
  status: ('A' for Active; 'I' for Inactive)
    1  A    between atoms: C_1  and  O_32
    2  A    between atoms: C_1  and  C_34
    3  A    between atoms: C_2  and  C_13
    4  A    between atoms: N_3  and  C_4
    5  A    between atoms: C_11  and  C_14
    6  A    between atoms: C_19  and  C_37
    7  A    between atoms: O_32  and  C_35
                            x       y       z     vdW  Elec       q    Type
                         _______ _______ _______ _____ _____    ______ ____

>  <TORSDO>
F 7

$$$$
=
 OpenBabel10262422053D

 43 48  0  0  1  0  0  0  0  0999 V2000
  191.1640  176.5410  146.7930 C   0  0  0  0  0  0  0  0  0  0  0  0
  189.1470  177.8120  142.3560 C   0  0  0  0  0  0  0  0  0  0  0  0
  186.4260  178.2130  142.6950 C   0  0  2  0  0  3  0  0  0  0  0  0
  190.8410  177.1140  144.4670 C   0  0  0  0  0  0  0  0  0  0  0  0
  189.8070  176.7480  147.0370 C   0  0  0  0  0  3  0  0  0  0  0  0
  192.0570  176.1000  147.8950 C   0  0  0  0  0  1  0  0  0  0  0  0
  189.4650  177.3570  144.7170 C   0  0  0  0  0  0  0  0  0  0  0  0
  191.6820  176.7180  145.5080 C   0  0  0  0  0  3  0  0  0  0  0  0
  188.9590  177.1520  145.9990 C   0  0  0  0  0  3  0  0  0  0  0  0
  187.2590  178.0060  143.8440 O   0  0  0  0  0  0  0  0  0  0  0  0
  188.6260  177.7250  143.6580 C   0  0  0  0  0  0  0  0  0  0  0  0
  190.5040  177.5490  142.1110 C   0  0  0  0  0  3  0  0  0  0  0  0
  188.1220  178.0130  141.2680 C   0  0  1  0  0  3  0  0  0  0  0  0
  187.1270  178.9170  141.6970 O   0  0  0  0  0  0  0  0  0  0  0  0
  191.3510  177.2260  143.1730 C   0  0  0  0  0  3  0  0  0  0  0  0
  185.1610  178.9160  143.0360 C   0  0  0  0  0  0  0  0  0  0  0  0
  181.5060  178.8360  142.0680 N   0  0  0  0  0  2  0  0  0  0  0  0
  183.9610  178.6610  142.3030 N   0  0  0  0  0  2  0  0  0  0  0  0
  185.1420  179.6870  144.0350 O   0  0  0  0  0  0  0  0  0  0  0  0
  182.6610  178.7560  142.8920 C   0  0  0  0  0  0  0  0  0  0  0  0
  182.5310  178.7410  144.1500 O   0  0  0  0  0  0  0  0  0  0  0  0
  180.5050  178.9300  141.0250 C   0  0  2  0  0  3  0  0  0  0  0  0
  179.9320  177.1910  139.6360 O   0  0  0  0  0  0  0  0  0  0  0  0
  182.1070  178.2380  139.1230 C   0  0  0  0  0  0  0  0  0  0  0  0
  179.2290  178.2650  141.4570 C   0  0  0  0  0  3  0  0  0  0  0  0
  180.9050  178.1210  139.8850 N   0  0  0  0  0  0  0  0  0  0  0  0
  182.9680  179.1140  139.4240 O   0  0  0  0  0  0  0  0  0  0  0  0
  178.9420  177.2800  140.6000 C   0  0  0  0  0  3  0  0  0  0  0  0
  182.3640  177.2850  137.9970 C   0  0  2  0  0  3  0  0  0  0  0  0
  185.1590  177.3030  135.9020 O   0  0  0  0  0  0  0  0  0  0  0  0
  184.3510  175.8690  137.6670 C   0  0  0  0  0  3  0  0  0  0  0  0
  184.2960  177.0440  136.7780 C   0  0  0  0  0  0  0  0  0  0  0  0
  183.0720  176.0130  138.4930 C   0  0  0  0  0  3  0  0  0  0  0  0
  183.2200  177.8650  137.0280 O   0  0  0  0  0  0  0  0  0  0  0  0
  188.6510  178.3070  139.8500 C   0  0  0  0  0  2  0  0  0  0  0  0
  187.6530  178.2130  138.8500 O   0  0  0  0  0  0  0  0  0  0  0  0
  189.6310  177.7820  137.7960 O   0  0  0  0  0  0  0  0  0  0  0  0
  190.0920  176.6560  137.1100 C   0  0  2  0  0  3  0  0  0  0  0  0
  187.9700  176.1980  137.5950 C   0  0  0  0  0  2  0  0  0  0  0  0
  188.2490  177.6620  137.7040 C   0  0  1  0  0  3  0  0  0  0  0  0
  189.1760  175.5930  137.2360 O   0  0  0  0  0  0  0  0  0  0  0  0
  191.4350  174.8860  137.9890 O   0  0  0  0  0  1  0  0  0  0  0  0
  191.4470  176.2420  137.6530 C   0  0  0  0  0  2  0  0  0  0  0  0
  1  5  1  0  0  0  0
  1  6  1  0  0  0  0
  2 11  1  0  0  0  0
  3 16  1  1  0  0  0
  3 10  1  0  0  0  0
  4  7  1  0  0  0  0
  4  8  1  0  0  0  0
  7  9  1  0  0  0  0
  8  1  2  0  0  0  0
  9  5  2  0  0  0  0
 11 10  1  0  0  0  0
 11  7  2  0  0  0  0
 12  2  2  0  0  0  0
 12 15  1  0  0  0  0
 13 35  1  6  0  0  0
 13 14  1  0  0  0  0
 13  2  1  0  0  0  0
 14  3  1  0  0  0  0
 15  4  2  0  0  0  0
 16 19  2  0  0  0  0
 17 20  1  0  0  0  0
 18 20  1  0  0  0  0
 18 16  1  0  0  0  0
 20 21  2  0  0  0  0
 22 25  1  0  0  0  0
 22 17  1  1  0  0  0
 23 26  1  0  0  0  0
 23 28  1  0  0  0  0
 24 27  2  0  0  0  0
 24 26  1  0  0  0  0
 26 22  1  0  0  0  0
 28 25  2  0  0  0  0
 29 33  1  0  0  0  0
 29 24  1  1  0  0  0
 30 32  2  0  0  0  0
 31 33  2  0  0  0  0
 32 34  1  0  0  0  0
 32 31  1  0  0  0  0
 34 29  1  0  0  0  0
 36 35  1  0  0  0  0
 38 41  1  0  0  0  0
 38 43  1  1  0  0  0
 38 37  1  0  0  0  0
 39 40  1  0  0  0  0
 40 37  1  0  0  0  0
 40 36  1  1  0  0  0
 41 39  1  0  0  0  0
 43 42  1  0  0  0  0
M  END
>  <MODEL>
3

>  <REMARK>
 VINA RESULT:      -9.8      2.409      7.574
  Name = 
  7 active torsions:
  status: ('A' for Active; 'I' for Inactive)
    1  A    between atoms: C_1  and  O_32
    2  A    between atoms: C_1  and  C_34
    3  A    between atoms: C_2  and  C_13
    4  A    between atoms: N_3  and  C_4
    5  A    between atoms: C_11  and  C_14
    6  A    between atoms: C_19  and  C_37
    7  A    between atoms: O_32  and  C_35
                            x       y       z     vdW  Elec       q    Type
                         _______ _______ _______ _____ _____    ______ ____

>  <TORSDO>
F 7

$$$$
=
 OpenBabel10262422053D

 43 48  0  0  1  0  0  0  0  0999 V2000
  182.2010  178.8770  141.2300 C   0  0  0  0  0  0  0  0  0  0  0  0
  185.7920  178.3010  144.7130 C   0  0  0  0  0  0  0  0  0  0  0  0
  187.8560  176.8030  143.6280 C   0  0  2  0  0  3  0  0  0  0  0  0
  183.5080  178.9940  143.2590 C   0  0  0  0  0  0  0  0  0  0  0  0
  183.2120  178.1380  140.6160 C   0  0  0  0  0  3  0  0  0  0  0  0
  180.9530  179.1880  140.4860 C   0  0  0  0  0  1  0  0  0  0  0  0
  184.5530  178.2700  142.6280 C   0  0  0  0  0  0  0  0  0  0  0  0
  182.3450  179.3020  142.5520 C   0  0  0  0  0  3  0  0  0  0  0  0
  184.3840  177.8330  141.3160 C   0  0  0  0  0  3  0  0  0  0  0  0
  186.7870  177.2500  142.7830 O   0  0  0  0  0  0  0  0  0  0  0  0
  185.7030  177.9420  143.3580 C   0  0  0  0  0  0  0  0  0  0  0  0
  184.7460  178.9970  145.3370 C   0  0  0  0  0  3  0  0  0  0  0  0
  186.9740  177.7240  145.4520 C   0  0  1  0  0  3  0  0  0  0  0  0
  188.1220  177.7530  144.6320 O   0  0  0  0  0  0  0  0  0  0  0  0
  183.6190  179.3640  144.6000 C   0  0  0  0  0  3  0  0  0  0  0  0
  189.0920  176.4990  142.8580 C   0  0  0  0  0  0  0  0  0  0  0  0
  190.6120  177.2820  139.4850 N   0  0  0  0  0  2  0  0  0  0  0  0
  189.2200  176.8990  141.4920 N   0  0  0  0  0  2  0  0  0  0  0  0
  190.0610  175.9510  143.4520 O   0  0  0  0  0  0  0  0  0  0  0  0
  190.4790  177.2290  140.8990 C   0  0  0  0  0  0  0  0  0  0  0  0
  191.4740  177.5030  141.6310 O   0  0  0  0  0  0  0  0  0  0  0  0
  190.4950  177.2440  138.0410 C   0  0  2  0  0  3  0  0  0  0  0  0
  190.7700  175.3430  136.7810 O   0  0  0  0  0  0  0  0  0  0  0  0
  192.8680  176.3060  137.6560 C   0  0  0  0  0  0  0  0  0  0  0  0
  189.1780  176.6450  137.6350 C   0  0  0  0  0  3  0  0  0  0  0  0
  191.4490  176.2930  137.4950 N   0  0  0  0  0  0  0  0  0  0  0  0
  193.4220  177.2090  138.3440 O   0  0  0  0  0  0  0  0  0  0  0  0
  189.4080  175.5600  136.8910 C   0  0  0  0  0  3  0  0  0  0  0  0
  193.6900  175.2130  137.0440 C   0  0  2  0  0  3  0  0  0  0  0  0
  197.1570  174.8750  137.3080 O   0  0  0  0  0  0  0  0  0  0  0  0
  195.2490  173.6970  138.1990 C   0  0  0  0  0  3  0  0  0  0  0  0
  195.9100  174.7560  137.4150 C   0  0  0  0  0  0  0  0  0  0  0  0
  193.7640  173.9870  137.9680 C   0  0  0  0  0  3  0  0  0  0  0  0
  195.0260  175.6400  136.8400 O   0  0  0  0  0  0  0  0  0  0  0  0
  187.2270  178.2370  146.8840 C   0  0  0  0  0  2  0  0  0  0  0  0
  187.1280  177.2240  147.8670 O   0  0  0  0  0  0  0  0  0  0  0  0
  189.2010  176.3770  147.4250 O   0  0  0  0  0  0  0  0  0  0  0  0
  190.4810  176.8670  147.6960 C   0  0  2  0  0  3  0  0  0  0  0  0
  189.1020  178.2960  148.6980 C   0  0  0  0  0  2  0  0  0  0  0  0
  188.4160  177.0060  148.3840 C   0  0  1  0  0  3  0  0  0  0  0  0
  190.4100  178.1720  148.2220 O   0  0  0  0  0  0  0  0  0  0  0  0
  192.0550  175.6810  146.3440 O   0  0  0  0  0  1  0  0  0  0  0  0
  191.3130  176.8630  146.4270 C   0  0  0  0  0  2  0  0  0  0  0  0
  1  8  1  0  0  0  0
  2 12  1  0  0  0  0
  2 13  1  0  0  0  0
  3 16  1  6  0  0  0
  3 14  1  0  0  0  0
  4 15  1  0  0  0  0
  5  1  2  0  0  0  0
  5  9  1  0  0  0  0
  6  1  1  0  0  0  0
  7  4  1  0  0  0  0
  7 11  1  0  0  0  0
  8  4  2  0  0  0  0
  9  7  2  0  0  0  0
 10 11  1  0  0  0  0
 10  3  1  0  0  0  0
 11  2  2  0  0  0  0
 13 35  1  1  0  0  0
 14 13  1  0  0  0  0
 15 12  2  0  0  0  0
 16 19  2  0  0  0  0
 17 20  1  0  0  0  0
 18 16  1  0  0  0  0
 20 18  1  0  0  0  0
 20 21  2  0  0  0  0
 22 17  1  1  0  0  0
 23 28  1  0  0  0  0
 23 26  1  0  0  0  0
 24 27  2  0  0  0  0
 25 22  1  0  0  0  0
 26 24  1  0  0  0  0
 26 22  1  0  0  0  0
 28 25  2  0  0  0  0
 29 24  1  1  0  0  0
 29 33  1  0  0  0  0
 30 32  2  0  0  0  0
 32 31  1  0  0  0  0
 33 31  2  0  0  0  0
 34 29  1  0  0  0  0
 34 32  1  0  0  0  0
 35 36  1  0  0  0  0
 37 38  1  0  0  0  0
 37 40  1  0  0  0  0
 38 43  1  6  0  0  0
 38 41  1  0  0  0  0
 40 36  1  6  0  0  0
 40 39  1  0  0  0  0
 41 39  1  0  0  0  0
 42 43  1  0  0  0  0
M  END
>  <MODEL>
4

>  <REMARK>
 VINA RESULT:      -9.5      3.234      6.787
  Name = 
  7 active torsions:
  status: ('A' for Active; 'I' for Inactive)
    1  A    between atoms: C_1  and  O_32
    2  A    between atoms: C_1  and  C_34
    3  A    between atoms: C_2  and  C_13
    4  A    between atoms: N_3  and  C_4
    5  A    between atoms: C_11  and  C_14
    6  A    between atoms: C_19  and  C_37
    7  A    between atoms: O_32  and  C_35
                            x       y       z     vdW  Elec       q    Type
                         _______ _______ _______ _____ _____    ______ ____

>  <TORSDO>
F 7

$$$$
=
 OpenBabel10262422053D

 43 48  0  0  1  0  0  0  0  0999 V2000
  190.9160  176.7800  146.4180 C   0  0  0  0  0  0  0  0  0  0  0  0
  189.5580  177.7500  141.6660 C   0  0  0  0  0  0  0  0  0  0  0  0
  186.8200  178.1670  141.5880 C   0  0  2  0  0  3  0  0  0  0  0  0
  190.9310  177.1970  144.0380 C   0  0  0  0  0  0  0  0  0  0  0  0
  189.5400  177.0000  146.4530 C   0  0  0  0  0  3  0  0  0  0  0  0
  191.6410  176.4150  147.6630 C   0  0  0  0  0  1  0  0  0  0  0  0
  189.5350  177.4530  144.0730 C   0  0  0  0  0  0  0  0  0  0  0  0
  191.6130  176.8730  145.2110 C   0  0  0  0  0  3  0  0  0  0  0  0
  188.8510  177.3320  145.2810 C   0  0  0  0  0  3  0  0  0  0  0  0
  187.4800  178.0380  142.8550 O   0  0  0  0  0  0  0  0  0  0  0  0
  188.8580  177.7480  142.8830 C   0  0  0  0  0  0  0  0  0  0  0  0
  190.9340  177.4740  141.6340 C   0  0  0  0  0  3  0  0  0  0  0  0
  188.6990  177.8760  140.4320 C   0  0  1  0  0  3  0  0  0  0  0  0
  187.6600  178.8040  140.6560 O   0  0  0  0  0  0  0  0  0  0  0  0
  191.6200  177.2250  142.8240 C   0  0  0  0  0  3  0  0  0  0  0  0
  185.5240  178.8880  141.6990 C   0  0  0  0  0  0  0  0  0  0  0  0
  181.8260  178.1720  141.3630 N   0  0  0  0  0  2  0  0  0  0  0  0
  184.2970  178.2490  141.3420 N   0  0  0  0  0  2  0  0  0  0  0  0
  185.5130  180.0510  142.1890 O   0  0  0  0  0  0  0  0  0  0  0  0
  183.0510  178.5640  141.9680 C   0  0  0  0  0  0  0  0  0  0  0  0
  183.0330  179.1700  143.0790 O   0  0  0  0  0  0  0  0  0  0  0  0
  180.7330  177.6900  140.5430 C   0  0  2  0  0  3  0  0  0  0  0  0
  180.6390  177.9340  138.2600 O   0  0  0  0  0  0  0  0  0  0  0  0
  180.1880  180.0010  139.5300 C   0  0  0  0  0  0  0  0  0  0  0  0
  181.1270  176.4290  139.8270 C   0  0  0  0  0  3  0  0  0  0  0  0
  180.5030  178.6110  139.4410 N   0  0  0  0  0  0  0  0  0  0  0  0
  180.0940  180.5610  140.6600 O   0  0  0  0  0  0  0  0  0  0  0  0
  181.0310  176.6300  138.5100 C   0  0  0  0  0  3  0  0  0  0  0  0
  180.0190  180.8020  138.2760 C   0  0  2  0  0  3  0  0  0  0  0  0
  179.0830  184.1640  138.1090 O   0  0  0  0  0  0  0  0  0  0  0  0
  181.1190  182.9310  137.7090 C   0  0  0  0  0  3  0  0  0  0  0  0
  179.7020  183.0700  138.0940 C   0  0  0  0  0  0  0  0  0  0  0  0
  181.3530  181.4240  137.8280 C   0  0  0  0  0  3  0  0  0  0  0  0
  179.1260  181.8820  138.4820 O   0  0  0  0  0  0  0  0  0  0  0  0
  189.4260  178.0770  139.0870 C   0  0  0  0  0  2  0  0  0  0  0  0
  189.0090  179.2390  138.3950 O   0  0  0  0  0  0  0  0  0  0  0  0
  189.4410  177.7840  136.6910 O   0  0  0  0  0  0  0  0  0  0  0  0
  188.5920  177.0630  135.8480 C   0  0  2  0  0  3  0  0  0  0  0  0
  187.2380  178.3620  137.0420 C   0  0  0  0  0  2  0  0  0  0  0  0
  188.6490  178.8530  137.0940 C   0  0  1  0  0  3  0  0  0  0  0  0
  187.2510  177.2070  136.2560 O   0  0  0  0  0  0  0  0  0  0  0  0
  189.4900  175.2430  137.1100 O   0  0  0  0  0  1  0  0  0  0  0  0
  188.9830  175.5960  135.8570 C   0  0  0  0  0  2  0  0  0  0  0  0
  1  5  1  0  0  0  0
  1  6  1  0  0  0  0
  2 11  1  0  0  0  0
  3 16  1  1  0  0  0
  3 10  1  0  0  0  0
  4  7  1  0  0  0  0
  4  8  1  0  0  0  0
  7  9  1  0  0  0  0
  8  1  2  0  0  0  0
  9  5  2  0  0  0  0
 10 11  1  0  0  0  0
 11  7  2  0  0  0  0
 12  2  2  0  0  0  0
 12 15  1  0  0  0  0
 13 35  1  6  0  0  0
 13 14  1  0  0  0  0
 13  2  1  0  0  0  0
 14  3  1  0  0  0  0
 15  4  2  0  0  0  0
 16 19  2  0  0  0  0
 17 20  1  0  0  0  0
 18 16  1  0  0  0  0
 18 20  1  0  0  0  0
 20 21  2  0  0  0  0
 22 17  1  1  0  0  0
 23 28  1  0  0  0  0
 23 26  1  0  0  0  0
 24 27  2  0  0  0  0
 25 22  1  0  0  0  0
 26 24  1  0  0  0  0
 26 22  1  0  0  0  0
 28 25  2  0  0  0  0
 29 34  1  0  0  0  0
 29 24  1  1  0  0  0
 31 33  2  0  0  0  0
 31 32  1  0  0  0  0
 32 30  2  0  0  0  0
 32 34  1  0  0  0  0
 33 29  1  0  0  0  0
 36 35  1  0  0  0  0
 37 40  1  0  0  0  0
 38 43  1  1  0  0  0
 38 41  1  0  0  0  0
 38 37  1  0  0  0  0
 39 40  1  0  0  0  0
 40 36  1  1  0  0  0
 41 39  1  0  0  0  0
 43 42  1  0  0  0  0
M  END
>  <MODEL>
5

>  <REMARK>
 VINA RESULT:      -9.5      2.558      8.252
  Name = 
  7 active torsions:
  status: ('A' for Active; 'I' for Inactive)
    1  A    between atoms: C_1  and  O_32
    2  A    between atoms: C_1  and  C_34
    3  A    between atoms: C_2  and  C_13
    4  A    between atoms: N_3  and  C_4
    5  A    between atoms: C_11  and  C_14
    6  A    between atoms: C_19  and  C_37
    7  A    between atoms: O_32  and  C_35
                            x       y       z     vdW  Elec       q    Type
                         _______ _______ _______ _____ _____    ______ ____

>  <TORSDO>
F 7

$$$$
=
 OpenBabel10262422053D

 43 48  0  0  1  0  0  0  0  0999 V2000
  182.5960  178.9720  143.0570 C   0  0  0  0  0  0  0  0  0  0  0  0
  187.0430  177.9260  145.1770 C   0  0  0  0  0  0  0  0  0  0  0  0
  188.6140  176.5770  143.3350 C   0  0  2  0  0  3  0  0  0  0  0  0
  184.4600  178.8140  144.5880 C   0  0  0  0  0  0  0  0  0  0  0  0
  183.3410  178.3170  142.0770 C   0  0  0  0  0  3  0  0  0  0  0  0
  181.1970  179.3840  142.7750 C   0  0  0  0  0  1  0  0  0  0  0  0
  185.2320  178.1760  143.5830 C   0  0  0  0  0  0  0  0  0  0  0  0
  183.1520  179.2170  144.3150 C   0  0  0  0  0  3  0  0  0  0  0  0
  184.6550  177.9170  142.3420 C   0  0  0  0  0  3  0  0  0  0  0  0
  187.3610  177.1360  142.9200 O   0  0  0  0  0  0  0  0  0  0  0  0
  186.5330  177.7500  143.8800 C   0  0  0  0  0  0  0  0  0  0  0  0
  186.2670  178.5370  146.1730 C   0  0  0  0  0  3  0  0  0  0  0  0
  188.3670  177.2510  145.4420 C   0  0  1  0  0  3  0  0  0  0  0  0
  189.2130  177.3840  144.3200 O   0  0  0  0  0  0  0  0  0  0  0  0
  184.9870  179.0030  145.8670 C   0  0  0  0  0  3  0  0  0  0  0  0
  189.5450  176.3730  142.1930 C   0  0  0  0  0  0  0  0  0  0  0  0
  190.0680  177.6660  138.6780 N   0  0  0  0  0  2  0  0  0  0  0  0
  189.2990  176.9910  140.9290 N   0  0  0  0  0  2  0  0  0  0  0  0
  190.6010  175.7080  142.3780 O   0  0  0  0  0  0  0  0  0  0  0  0
  190.3510  177.3820  140.0420 C   0  0  0  0  0  0  0  0  0  0  0  0
  191.5330  177.5030  140.4740 O   0  0  0  0  0  0  0  0  0  0  0  0
  189.5320  177.8730  137.3480 C   0  0  2  0  0  3  0  0  0  0  0  0
  187.4140  177.2540  136.7090 O   0  0  0  0  0  0  0  0  0  0  0  0
  189.0040  175.3800  136.9380 C   0  0  0  0  0  0  0  0  0  0  0  0
  188.5860  179.0400  137.3370 C   0  0  0  0  0  3  0  0  0  0  0  0
  188.6600  176.7650  136.9920 N   0  0  0  0  0  0  0  0  0  0  0  0
  190.1750  175.0030  137.2290 O   0  0  0  0  0  0  0  0  0  0  0  0
  187.3830  178.6180  136.9380 C   0  0  0  0  0  3  0  0  0  0  0  0
  187.9550  174.3720  136.5810 C   0  0  2  0  0  3  0  0  0  0  0  0
  184.5020  174.8930  136.6860 O   0  0  0  0  0  0  0  0  0  0  0  0
  186.1420  174.6280  134.9350 C   0  0  0  0  0  3  0  0  0  0  0  0
  185.6980  174.7250  136.3380 C   0  0  0  0  0  0  0  0  0  0  0  0
  187.6480  174.3960  135.0740 C   0  0  0  0  0  3  0  0  0  0  0  0
  186.7340  174.6580  137.2410 O   0  0  0  0  0  0  0  0  0  0  0  0
  189.0630  177.5690  146.7800 C   0  0  0  0  0  2  0  0  0  0  0  0
  189.7200  176.4520  147.3480 O   0  0  0  0  0  0  0  0  0  0  0  0
  191.7160  177.0600  148.2720 O   0  0  0  0  0  0  0  0  0  0  0  0
  192.9880  176.4870  148.1970 C   0  0  2  0  0  3  0  0  0  0  0  0
  191.7420  175.2950  146.7920 C   0  0  0  0  0  2  0  0  0  0  0  0
  191.0970  176.6040  147.1150 C   0  0  1  0  0  3  0  0  0  0  0  0
  192.9330  175.2530  147.5200 O   0  0  0  0  0  0  0  0  0  0  0  0
  194.0290  177.5030  150.0920 O   0  0  0  0  0  1  0  0  0  0  0  0
  193.5470  176.2900  149.5930 C   0  0  0  0  0  2  0  0  0  0  0  0
  1  8  1  0  0  0  0
  2 13  1  0  0  0  0
  2 12  1  0  0  0  0
  3 16  1  6  0  0  0
  3 14  1  0  0  0  0
  4 15  1  0  0  0  0
  5  9  1  0  0  0  0
  5  1  2  0  0  0  0
  6  1  1  0  0  0  0
  7 11  1  0  0  0  0
  7  4  1  0  0  0  0
  8  4  2  0  0  0  0
  9  7  2  0  0  0  0
 10  3  1  0  0  0  0
 10 11  1  0  0  0  0
 11  2  2  0  0  0  0
 13 35  1  1  0  0  0
 14 13  1  0  0  0  0
 15 12  2  0  0  0  0
 16 19  2  0  0  0  0
 17 20  1  0  0  0  0
 18 16  1  0  0  0  0
 20 21  2  0  0  0  0
 20 18  1  0  0  0  0
 22 17  1  1  0  0  0
 23 28  1  0  0  0  0
 23 26  1  0  0  0  0
 24 26  1  0  0  0  0
 24 27  2  0  0  0  0
 25 22  1  0  0  0  0
 26 22  1  0  0  0  0
 28 25  2  0  0  0  0
 29 24  1  6  0  0  0
 29 34  1  0  0  0  0
 31 33  2  0  0  0  0
 31 32  1  0  0  0  0
 32 30  2  0  0  0  0
 32 34  1  0  0  0  0
 33 29  1  0  0  0  0
 35 36  1  0  0  0  0
 38 37  1  0  0  0  0
 38 43  1  1  0  0  0
 39 40  1  0  0  0  0
 39 41  1  0  0  0  0
 40 36  1  1  0  0  0
 40 37  1  0  0  0  0
 41 38  1  0  0  0  0
 43 42  1  0  0  0  0
M  END
>  <MODEL>
6

>  <REMARK>
 VINA RESULT:      -9.5      3.342      7.911
  Name = 
  7 active torsions:
  status: ('A' for Active; 'I' for Inactive)
    1  A    between atoms: C_1  and  O_32
    2  A    between atoms: C_1  and  C_34
    3  A    between atoms: C_2  and  C_13
    4  A    between atoms: N_3  and  C_4
    5  A    between atoms: C_11  and  C_14
    6  A    between atoms: C_19  and  C_37
    7  A    between atoms: O_32  and  C_35
                            x       y       z     vdW  Elec       q    Type
                         _______ _______ _______ _____ _____    ______ ____

>  <TORSDO>
F 7

$$$$
=
 OpenBabel10262422053D

 43 48  0  0  1  0  0  0  0  0999 V2000
  190.3020  176.4900  143.6760 C   0  0  0  0  0  0  0  0  0  0  0  0
  185.6600  178.4390  143.5770 C   0  0  0  0  0  0  0  0  0  0  0  0
  185.0880  179.2510  140.9900 C   0  0  2  0  0  3  0  0  0  0  0  0
  188.0850  177.2400  144.2780 C   0  0  0  0  0  0  0  0  0  0  0  0
  190.0710  176.8550  142.3510 C   0  0  0  0  0  3  0  0  0  0  0  0
  191.6160  175.9180  144.0700 C   0  0  0  0  0  1  0  0  0  0  0  0
  187.8340  177.5850  142.9240 C   0  0  0  0  0  0  0  0  0  0  0  0
  189.3130  176.6860  144.6430 C   0  0  0  0  0  3  0  0  0  0  0  0
  188.8400  177.4050  141.9780 C   0  0  0  0  0  3  0  0  0  0  0  0
  186.2860  178.5070  141.2490 O   0  0  0  0  0  0  0  0  0  0  0  0
  186.6090  178.1680  142.5780 C   0  0  0  0  0  0  0  0  0  0  0  0
  185.9230  178.1170  144.9180 C   0  0  0  0  0  3  0  0  0  0  0  0
  184.4690  179.2500  143.1280 C   0  0  1  0  0  3  0  0  0  0  0  0
  184.0520  178.8320  141.8460 O   0  0  0  0  0  0  0  0  0  0  0  0
  187.1250  177.4950  145.2590 C   0  0  0  0  0  3  0  0  0  0  0  0
  184.6600  179.1510  139.5690 C   0  0  0  0  0  0  0  0  0  0  0  0
  184.8000  176.6690  136.7190 N   0  0  0  0  0  2  0  0  0  0  0  0
  185.0480  178.0360  138.7640 N   0  0  0  0  0  2  0  0  0  0  0  0
  183.8810  180.0280  139.1030 O   0  0  0  0  0  0  0  0  0  0  0  0
  184.2390  177.5340  137.6970 C   0  0  0  0  0  0  0  0  0  0  0  0
  183.0110  177.8350  137.6350 O   0  0  0  0  0  0  0  0  0  0  0  0
  185.6040  175.8370  135.8470 C   0  0  2  0  0  3  0  0  0  0  0  0
  186.8920  174.0820  136.5800 O   0  0  0  0  0  0  0  0  0  0  0  0
  187.8220  176.3130  137.0790 C   0  0  0  0  0  0  0  0  0  0  0  0
  184.9330  174.5140  135.6150 C   0  0  0  0  0  3  0  0  0  0  0  0
  186.8270  175.4480  136.5300 N   0  0  0  0  0  0  0  0  0  0  0  0
  187.6830  177.5670  137.0080 O   0  0  0  0  0  0  0  0  0  0  0  0
  185.7390  173.5380  136.0420 C   0  0  0  0  0  3  0  0  0  0  0  0
  189.0060  175.7240  137.7840 C   0  0  2  0  0  3  0  0  0  0  0  0
  192.1870  175.2810  136.4110 O   0  0  0  0  0  0  0  0  0  0  0  0
  191.2270  176.7470  138.0710 C   0  0  0  0  0  3  0  0  0  0  0  0
  191.1840  175.6750  137.0590 C   0  0  0  0  0  0  0  0  0  0  0  0
  189.7800  176.7990  138.5650 C   0  0  0  0  0  3  0  0  0  0  0  0
  189.9210  175.1690  136.8560 O   0  0  0  0  0  0  0  0  0  0  0  0
  183.3090  179.4110  144.1310 C   0  0  0  0  0  2  0  0  0  0  0  0
  182.2910  178.4420  143.9680 O   0  0  0  0  0  0  0  0  0  0  0  0
  180.9300  178.8530  142.1830 O   0  0  0  0  0  0  0  0  0  0  0  0
  179.5380  178.8820  142.0630 C   0  0  2  0  0  3  0  0  0  0  0  0
  179.9160  178.6040  144.2370 C   0  0  0  0  0  2  0  0  0  0  0  0
  181.1340  179.1100  143.5340 C   0  0  1  0  0  3  0  0  0  0  0  0
  178.9310  178.4520  143.2590 O   0  0  0  0  0  0  0  0  0  0  0  0
  179.0250  176.6660  141.3310 O   0  0  0  0  0  1  0  0  0  0  0  0
  179.1020  177.9970  140.9110 C   0  0  0  0  0  2  0  0  0  0  0  0
  1  6  1  0  0  0  0
  1  8  1  0  0  0  0
  2 12  1  0  0  0  0
  3 16  1  6  0  0  0
  3 10  1  0  0  0  0
  3 14  1  0  0  0  0
  4  8  2  0  0  0  0
  4 15  1  0  0  0  0
  5  1  2  0  0  0  0
  7  4  1  0  0  0  0
  9  5  1  0  0  0  0
  9  7  2  0  0  0  0
 10 11  1  0  0  0  0
 11  7  1  0  0  0  0
 11  2  2  0  0  0  0
 12 15  2  0  0  0  0
 13  2  1  0  0  0  0
 13 35  1  1  0  0  0
 14 13  1  0  0  0  0
 17 20  1  0  0  0  0
 18 16  1  0  0  0  0
 19 16  2  0  0  0  0
 20 18  1  0  0  0  0
 21 20  2  0  0  0  0
 22 26  1  0  0  0  0
 22 17  1  1  0  0  0
 25 22  1  0  0  0  0
 25 28  2  0  0  0  0
 26 23  1  0  0  0  0
 26 24  1  0  0  0  0
 27 24  2  0  0  0  0
 28 23  1  0  0  0  0
 29 24  1  6  0  0  0
 29 33  1  0  0  0  0
 30 32  2  0  0  0  0
 31 33  2  0  0  0  0
 32 31  1  0  0  0  0
 34 32  1  0  0  0  0
 34 29  1  0  0  0  0
 36 35  1  0  0  0  0
 37 40  1  0  0  0  0
 38 43  1  6  0  0  0
 38 37  1  0  0  0  0
 38 41  1  0  0  0  0
 40 36  1  1  0  0  0
 40 39  1  0  0  0  0
 41 39  1  0  0  0  0
 43 42  1  0  0  0  0
M  END
>  <MODEL>
7

>  <REMARK>
 VINA RESULT:      -9.5      1.827      2.379
  Name = 
  7 active torsions:
  status: ('A' for Active; 'I' for Inactive)
    1  A    between atoms: C_1  and  O_32
    2  A    between atoms: C_1  and  C_34
    3  A    between atoms: C_2  and  C_13
    4  A    between atoms: N_3  and  C_4
    5  A    between atoms: C_11  and  C_14
    6  A    between atoms: C_19  and  C_37
    7  A    between atoms: O_32  and  C_35
                            x       y       z     vdW  Elec       q    Type
                         _______ _______ _______ _____ _____    ______ ____

>  <TORSDO>
F 7

$$$$
=
 OpenBabel10262422053D

 43 48  0  0  1  0  0  0  0  0999 V2000
  185.3540  178.6000  145.8980 C   0  0  0  0  0  0  0  0  0  0  0  0
  182.2840  178.7810  141.9100 C   0  0  0  0  0  0  0  0  0  0  0  0
  183.8200  178.9120  139.6070 C   0  0  2  0  0  3  0  0  0  0  0  0
  183.4100  178.6250  144.4640 C   0  0  0  0  0  0  0  0  0  0  0  0
  186.1860  178.6420  144.7790 C   0  0  0  0  0  3  0  0  0  0  0  0
  185.9450  178.5900  147.2610 C   0  0  0  0  0  1  0  0  0  0  0  0
  184.2520  178.6360  143.3210 C   0  0  0  0  0  0  0  0  0  0  0  0
  183.9660  178.5970  145.7430 C   0  0  0  0  0  3  0  0  0  0  0  0
  185.6340  178.6640  143.4940 C   0  0  0  0  0  3  0  0  0  0  0  0
  184.4580  178.6810  140.8700 O   0  0  0  0  0  0  0  0  0  0  0  0
  183.6800  178.6950  142.0440 C   0  0  0  0  0  0  0  0  0  0  0  0
  181.4580  178.7920  143.0440 C   0  0  0  0  0  3  0  0  0  0  0  0
  181.7900  179.0450  140.5090 C   0  0  1  0  0  3  0  0  0  0  0  0
  182.5500  178.3060  139.5770 O   0  0  0  0  0  0  0  0  0  0  0  0
  182.0230  178.6880  144.3160 C   0  0  0  0  0  3  0  0  0  0  0  0
  184.6470  178.4400  138.4640 C   0  0  0  0  0  0  0  0  0  0  0  0
  188.1270  177.1040  137.8260 N   0  0  0  0  0  2  0  0  0  0  0  0
  186.0310  178.1330  138.6400 N   0  0  0  0  0  2  0  0  0  0  0  0
  184.0900  178.2390  137.3500 O   0  0  0  0  0  0  0  0  0  0  0  0
  186.7070  177.1380  137.8660 C   0  0  0  0  0  0  0  0  0  0  0  0
  186.0430  176.2660  137.2350 O   0  0  0  0  0  0  0  0  0  0  0  0
  189.5590  177.2970  137.9280 C   0  0  2  0  0  3  0  0  0  0  0  0
  190.9620  175.8980  139.0920 O   0  0  0  0  0  0  0  0  0  0  0  0
  189.5840  177.3780  140.5070 C   0  0  0  0  0  0  0  0  0  0  0  0
  190.2850  176.3470  137.0180 C   0  0  0  0  0  3  0  0  0  0  0  0
  190.0190  176.8790  139.2420 N   0  0  0  0  0  0  0  0  0  0  0  0
  188.6960  178.2760  140.5660 O   0  0  0  0  0  0  0  0  0  0  0  0
  191.0960  175.5790  137.7520 C   0  0  0  0  0  3  0  0  0  0  0  0
  190.1510  176.7960  141.7660 C   0  0  2  0  0  3  0  0  0  0  0  0
  191.8960  178.5580  144.2260 O   0  0  0  0  0  0  0  0  0  0  0  0
  189.7160  177.5330  144.0750 C   0  0  0  0  0  3  0  0  0  0  0  0
  191.0390  177.9280  143.5560 C   0  0  0  0  0  0  0  0  0  0  0  0
  189.1040  176.7790  142.8930 C   0  0  0  0  0  3  0  0  0  0  0  0
  191.2340  177.5760  142.2400 O   0  0  0  0  0  0  0  0  0  0  0  0
  180.2690  178.9560  140.2720 C   0  0  0  0  0  2  0  0  0  0  0  0
  179.9220  178.8300  138.9060 O   0  0  0  0  0  0  0  0  0  0  0  0
  179.4730  176.9280  137.7270 O   0  0  0  0  0  0  0  0  0  0  0  0
  179.1050  175.6450  138.1390 C   0  0  2  0  0  3  0  0  0  0  0  0
  179.1110  176.8600  140.0020 C   0  0  0  0  0  2  0  0  0  0  0  0
  179.0590  177.7280  138.7860 C   0  0  1  0  0  3  0  0  0  0  0  0
  179.1620  175.5420  139.5430 O   0  0  0  0  0  0  0  0  0  0  0  0
  181.2790  174.6540  138.1190 O   0  0  0  0  0  1  0  0  0  0  0  0
  180.0240  174.6180  137.5050 C   0  0  0  0  0  2  0  0  0  0  0  0
  1  6  1  0  0  0  0
  2 11  2  0  0  0  0
  2 12  1  0  0  0  0
  3 16  1  6  0  0  0
  3 10  1  0  0  0  0
  4  8  2  0  0  0  0
  5  1  2  0  0  0  0
  7  9  2  0  0  0  0
  7  4  1  0  0  0  0
  8  1  1  0  0  0  0
  9  5  1  0  0  0  0
 10 11  1  0  0  0  0
 11  7  1  0  0  0  0
 12 15  2  0  0  0  0
 13 35  1  1  0  0  0
 13  2  1  0  0  0  0
 14  3  1  0  0  0  0
 14 13  1  0  0  0  0
 15  4  1  0  0  0  0
 16 18  1  0  0  0  0
 17 20  1  0  0  0  0
 19 16  2  0  0  0  0
 20 18  1  0  0  0  0
 21 20  2  0  0  0  0
 22 17  1  1  0  0  0
 22 26  1  0  0  0  0
 23 26  1  0  0  0  0
 24 27  2  0  0  0  0
 25 28  2  0  0  0  0
 25 22  1  0  0  0  0
 26 24  1  0  0  0  0
 28 23  1  0  0  0  0
 29 24  1  6  0  0  0
 29 34  1  0  0  0  0
 29 33  1  0  0  0  0
 32 31  1  0  0  0  0
 32 30  2  0  0  0  0
 33 31  2  0  0  0  0
 34 32  1  0  0  0  0
 36 35  1  0  0  0  0
 37 38  1  0  0  0  0
 37 40  1  0  0  0  0
 38 43  1  6  0  0  0
 38 41  1  0  0  0  0
 40 36  1  1  0  0  0
 40 39  1  0  0  0  0
 41 39  1  0  0  0  0
 43 42  1  0  0  0  0
M  END
>  <MODEL>
8

>  <REMARK>
 VINA RESULT:      -9.4      1.836      3.034
  Name = 
  7 active torsions:
  status: ('A' for Active; 'I' for Inactive)
    1  A    between atoms: C_1  and  O_32
    2  A    between atoms: C_1  and  C_34
    3  A    between atoms: C_2  and  C_13
    4  A    between atoms: N_3  and  C_4
    5  A    between atoms: C_11  and  C_14
    6  A    between atoms: C_19  and  C_37
    7  A    between atoms: O_32  and  C_35
                            x       y       z     vdW  Elec       q    Type
                         _______ _______ _______ _____ _____    ______ ____

>  <TORSDO>
F 7

$$$$
=
 OpenBabel10262422053D

 43 48  0  0  1  0  0  0  0  0999 V2000
  181.3960  178.9880  143.3080 C   0  0  0  0  0  0  0  0  0  0  0  0
  186.3530  178.2600  143.8130 C   0  0  0  0  0  0  0  0  0  0  0  0
  187.4490  177.8100  141.3070 C   0  0  2  0  0  3  0  0  0  0  0  0
  183.6310  178.7660  144.1980 C   0  0  0  0  0  0  0  0  0  0  0  0
  181.8840  178.7910  142.0180 C   0  0  0  0  0  3  0  0  0  0  0  0
  179.9390  179.1860  143.5280 C   0  0  0  0  0  1  0  0  0  0  0  0
  184.1390  178.5970  142.8830 C   0  0  0  0  0  0  0  0  0  0  0  0
  182.2660  178.9710  144.4000 C   0  0  0  0  0  3  0  0  0  0  0  0
  183.2530  178.5920  141.8070 C   0  0  0  0  0  3  0  0  0  0  0  0
  186.0770  178.2130  141.4170 O   0  0  0  0  0  0  0  0  0  0  0  0
  185.5070  178.3620  142.6970 C   0  0  0  0  0  0  0  0  0  0  0  0
  185.8430  178.4060  145.1120 C   0  0  0  0  0  3  0  0  0  0  0  0
  187.7600  177.8050  143.5110 C   0  0  1  0  0  3  0  0  0  0  0  0
  188.2210  178.4080  142.3210 O   0  0  0  0  0  0  0  0  0  0  0  0
  184.4870  178.6850  145.2970 C   0  0  0  0  0  3  0  0  0  0  0  0
  188.0200  178.1180  139.9690 C   0  0  0  0  0  0  0  0  0  0  0  0
  187.8380  176.8120  136.4250 N   0  0  0  0  0  2  0  0  0  0  0  0
  187.7890  177.2510  138.8570 N   0  0  0  0  0  2  0  0  0  0  0  0
  188.6480  179.2010  139.8080 O   0  0  0  0  0  0  0  0  0  0  0  0
  187.7220  177.7240  137.5090 C   0  0  0  0  0  0  0  0  0  0  0  0
  187.5330  178.9520  137.2750 O   0  0  0  0  0  0  0  0  0  0  0  0
  188.0060  175.7010  135.5100 C   0  0  2  0  0  3  0  0  0  0  0  0
  189.1000  173.7530  136.0470 O   0  0  0  0  0  0  0  0  0  0  0  0
  190.5820  175.6870  135.6570 C   0  0  0  0  0  0  0  0  0  0  0  0
  187.0480  174.5930  135.8450 C   0  0  0  0  0  3  0  0  0  0  0  0
  189.2970  175.0710  135.7340 N   0  0  0  0  0  0  0  0  0  0  0  0
  190.6830  176.9160  135.3780 O   0  0  0  0  0  0  0  0  0  0  0  0
  187.7440  173.4880  136.1260 C   0  0  0  0  0  3  0  0  0  0  0  0
  191.8080  174.8800  135.9580 C   0  0  2  0  0  3  0  0  0  0  0  0
  195.0620  176.1250  136.2130 O   0  0  0  0  0  0  0  0  0  0  0  0
  193.4330  175.2580  137.7690 C   0  0  0  0  0  3  0  0  0  0  0  0
  193.9160  175.6580  136.4340 C   0  0  0  0  0  0  0  0  0  0  0  0
  192.0240  174.7390  137.4740 C   0  0  0  0  0  3  0  0  0  0  0  0
  192.9680  175.5130  135.4470 O   0  0  0  0  0  0  0  0  0  0  0  0
  188.7800  177.8610  144.6660 C   0  0  0  0  0  2  0  0  0  0  0  0
  189.3950  176.6140  144.9290 O   0  0  0  0  0  0  0  0  0  0  0  0
  190.6580  176.3220  143.0510 O   0  0  0  0  0  0  0  0  0  0  0  0
  191.7040  177.0730  142.5090 C   0  0  2  0  0  3  0  0  0  0  0  0
  191.2610  178.0420  144.4620 C   0  0  0  0  0  2  0  0  0  0  0  0
  190.6950  176.6600  144.3990 C   0  0  1  0  0  3  0  0  0  0  0  0
  191.8750  178.2720  143.2290 O   0  0  0  0  0  0  0  0  0  0  0  0
  190.8340  176.2680  140.4350 O   0  0  0  0  0  1  0  0  0  0  0  0
  191.4170  177.3780  141.0510 C   0  0  0  0  0  2  0  0  0  0  0  0
  1  6  1  0  0  0  0
  1  8  1  0  0  0  0
  2 12  1  0  0  0  0
  3 16  1  6  0  0  0
  3 10  1  0  0  0  0
  3 14  1  0  0  0  0
  4  8  2  0  0  0  0
  4 15  1  0  0  0  0
  5  1  2  0  0  0  0
  7  4  1  0  0  0  0
  9  5  1  0  0  0  0
  9  7  2  0  0  0  0
 10 11  1  0  0  0  0
 11  7  1  0  0  0  0
 11  2  2  0  0  0  0
 12 15  2  0  0  0  0
 13  2  1  0  0  0  0
 13 35  1  1  0  0  0
 14 13  1  0  0  0  0
 17 20  1  0  0  0  0
 18 16  1  0  0  0  0
 19 16  2  0  0  0  0
 20 18  1  0  0  0  0
 21 20  2  0  0  0  0
 22 26  1  0  0  0  0
 22 25  1  0  0  0  0
 22 17  1  1  0  0  0
 23 28  1  0  0  0  0
 24 26  1  0  0  0  0
 25 28  2  0  0  0  0
 26 23  1  0  0  0  0
 27 24  2  0  0  0  0
 29 24  1  1  0  0  0
 29 33  1  0  0  0  0
 30 32  2  0  0  0  0
 32 31  1  0  0  0  0
 33 31  2  0  0  0  0
 34 29  1  0  0  0  0
 34 32  1  0  0  0  0
 35 36  1  0  0  0  0
 37 40  1  0  0  0  0
 38 43  1  6  0  0  0
 38 37  1  0  0  0  0
 38 41  1  0  0  0  0
 40 39  1  0  0  0  0
 40 36  1  6  0  0  0
 41 39  1  0  0  0  0
 42 43  1  0  0  0  0
M  END
>  <MODEL>
9

>  <REMARK>
 VINA RESULT:      -9.3      2.488      6.232
  Name = 
  7 active torsions:
  status: ('A' for Active; 'I' for Inactive)
    1  A    between atoms: C_1  and  O_32
    2  A    between atoms: C_1  and  C_34
    3  A    between atoms: C_2  and  C_13
    4  A    between atoms: N_3  and  C_4
    5  A    between atoms: C_11  and  C_14
    6  A    between atoms: C_19  and  C_37
    7  A    between atoms: O_32  and  C_35
                            x       y       z     vdW  Elec       q    Type
                         _______ _______ _______ _____ _____    ______ ____

>  <TORSDO>
F 7

$$$$
