=
 OpenBabel10262420023D

 27 32  0  0  1  0  0  0  0  0999 V2000
  187.6060  178.5960  136.5690 C   0  0  1  0  0  3  0  0  0  0  0  0
  187.2640  177.9740  139.0530 C   0  0  0  0  0  0  0  0  0  0  0  0
  189.2880  176.6990  138.2330 C   0  0  0  0  0  2  0  0  0  0  0  0
  188.8080  178.1770  143.0390 C   0  0  0  0  0  2  0  0  0  0  0  0
  189.7200  176.6220  144.5560 O   0  0  0  0  0  0  0  0  0  0  0  0
  186.5530  178.5870  140.0870 C   0  0  0  0  0  3  0  0  0  0  0  0
  190.3820  176.8960  140.9800 C   0  0  0  0  0  2  0  0  0  0  0  0
  190.5800  175.4550  135.8930 C   0  0  0  0  0  1  0  0  0  0  0  0
  190.3600  176.1770  142.3310 C   0  0  0  0  0  2  0  0  0  0  0  0
  189.9150  177.5060  134.5940 C   0  0  0  0  0  2  0  0  0  0  0  0
  188.5230  177.4050  139.3280 C   0  0  0  0  0  0  0  0  0  0  0  0
  186.6850  177.9900  137.6610 C   0  0  2  0  0  3  0  0  0  0  0  0
  189.6300  176.9650  143.3900 C   0  0  0  0  0  0  0  0  0  0  0  0
  188.2750  178.0810  141.6420 C   0  0  0  0  0  0  0  0  0  0  0  0
  189.0530  178.8300  136.9970 C   0  0  0  0  0  2  0  0  0  0  0  0
  189.0310  177.4550  140.6350 C   0  0  0  0  0  0  0  0  0  0  0  0
  189.7840  176.7510  135.8970 C   0  0  1  0  0  0  0  0  0  0  0  0
  187.0660  178.6290  141.3440 N   0  0  0  0  0  0  0  0  0  0  0  0
  188.5860  176.8290  134.9460 C   0  0  1  0  0  3  0  0  0  0  0  0
  187.5500  177.9370  135.1910 C   0  0  0  0  0  2  0  0  0  0  0  0
  189.7850  177.5590  137.1380 N   0  0  2  0  0  0  0  0  0  0  0  0
  184.4620  174.4590  136.5990 C   0  0  0  0  0  3  0  0  0  0  0  0
  185.9240  176.7430  137.3030 C   0  0  0  0  0  0  0  0  0  0  0  0
  186.5550  175.4930  137.2370 C   0  0  0  0  0  3  0  0  0  0  0  0
  185.8250  174.3530  136.8860 C   0  0  0  0  0  3  0  0  0  0  0  0
  183.8290  175.7040  136.6610 C   0  0  0  0  0  3  0  0  0  0  0  0
  184.5590  176.8430  137.0110 C   0  0  0  0  0  3  0  0  0  0  0  0
  1 20  1  6  0  0  0
  1 15  1  0  0  0  0
  1 12  1  0  0  0  0
  2 11  2  0  0  0  0
  2  6  1  0  0  0  0
  3 11  1  0  0  0  0
  4 13  1  0  0  0  0
  6 18  2  0  0  0  0
  7  9  1  0  0  0  0
  9 13  1  0  0  0  0
 10 17  1  0  0  0  0
 11 16  1  0  0  0  0
 12 23  1  6  0  0  0
 12  2  1  0  0  0  0
 13  5  2  0  0  0  0
 14  4  1  0  0  0  0
 16  7  1  0  0  0  0
 16 14  2  0  0  0  0
 17  8  1  1  0  0  0
 17 21  1  0  0  0  0
 18 14  1  0  0  0  0
 19 10  1  6  0  0  0
 19 20  1  0  0  0  0
 19 17  1  0  0  0  0
 21 15  1  6  0  0  0
 21  3  1  0  0  0  0
 22 26  2  0  0  0  0
 22 25  1  0  0  0  0
 24 23  1  0  0  0  0
 25 24  2  0  0  0  0
 26 27  1  0  0  0  0
 27 23  2  0  0  0  0
M  END
>  <MODEL>
1

>  <REMARK>
 VINA RESULT:      -6.8      0.000      0.000
  Name = 
  1 active torsions:
  status: ('A' for Active; 'I' for Inactive)
    1  A    between atoms: C_9  and  C_15
                            x       y       z     vdW  Elec       q    Type
                         _______ _______ _______ _____ _____    ______ ____

>  <TORSDO>
F 1

$$$$
=
 OpenBabel10262420023D

 27 32  0  0  1  0  0  0  0  0999 V2000
  181.0670  177.1050  139.8630 C   0  0  1  0  0  3  0  0  0  0  0  0
  180.8300  179.6770  139.9590 C   0  0  0  0  0  0  0  0  0  0  0  0
  181.9000  179.1050  137.7410 C   0  0  0  0  0  2  0  0  0  0  0  0
  178.9490  183.1610  138.3360 C   0  0  0  0  0  2  0  0  0  0  0  0
  179.6660  184.9960  137.0440 O   0  0  0  0  0  0  0  0  0  0  0  0
  180.0410  180.5200  140.7450 C   0  0  0  0  0  3  0  0  0  0  0  0
  180.5460  181.4840  136.6050 C   0  0  0  0  0  2  0  0  0  0  0  0
  183.6150  177.1850  136.3040 C   0  0  0  0  0  1  0  0  0  0  0  0
  180.7340  182.9910  136.4140 C   0  0  0  0  0  2  0  0  0  0  0  0
  182.3190  175.3590  137.4550 C   0  0  0  0  0  2  0  0  0  0  0  0
  181.0150  179.9800  138.5960 C   0  0  0  0  0  0  0  0  0  0  0  0
  181.4150  178.4360  140.5840 C   0  0  2  0  0  3  0  0  0  0  0  0
  179.7790  183.8010  137.2550 C   0  0  0  0  0  0  0  0  0  0  0  0
  179.6290  181.9470  138.8920 C   0  0  0  0  0  0  0  0  0  0  0  0
  180.4260  177.2620  138.4860 C   0  0  0  0  0  2  0  0  0  0  0  0
  180.4120  181.1280  138.0590 C   0  0  0  0  0  0  0  0  0  0  0  0
  182.5780  176.8460  137.3630 C   0  0  1  0  0  0  0  0  0  0  0  0
  179.4630  181.6230  140.2020 N   0  0  0  0  0  0  0  0  0  0  0  0
  183.0700  176.0670  138.5880 C   0  0  1  0  0  3  0  0  0  0  0  0
  182.1660  176.0440  139.8300 C   0  0  0  0  0  2  0  0  0  0  0  0
  181.4010  177.7360  137.4880 N   0  0  2  0  0  0  0  0  0  0  0  0
  185.4500  178.8770  142.0210 C   0  0  0  0  0  3  0  0  0  0  0  0
  182.8290  178.6050  141.0670 C   0  0  0  0  0  0  0  0  0  0  0  0
  183.8750  178.9080  140.1840 C   0  0  0  0  0  3  0  0  0  0  0  0
  185.1820  179.0440  140.6600 C   0  0  0  0  0  3  0  0  0  0  0  0
  184.4120  178.5710  142.9050 C   0  0  0  0  0  3  0  0  0  0  0  0
  183.1050  178.4360  142.4290 C   0  0  0  0  0  3  0  0  0  0  0  0
  1 15  1  6  0  0  0
  1 12  1  0  0  0  0
  2 12  1  0  0  0  0
  2  6  1  0  0  0  0
  3 11  1  0  0  0  0
  4 14  1  0  0  0  0
  5 13  2  0  0  0  0
  7 16  1  0  0  0  0
  9  7  1  0  0  0  0
  9 13  1  0  0  0  0
 11  2  2  0  0  0  0
 12 23  1  6  0  0  0
 13  4  1  0  0  0  0
 14 18  1  0  0  0  0
 16 11  1  0  0  0  0
 16 14  2  0  0  0  0
 17  8  1  6  0  0  0
 17 10  1  0  0  0  0
 17 21  1  0  0  0  0
 17 19  1  0  0  0  0
 18  6  2  0  0  0  0
 19 10  1  6  0  0  0
 19 20  1  0  0  0  0
 20  1  1  0  0  0  0
 21  3  1  1  0  0  0
 21 15  1  0  0  0  0
 22 26  1  0  0  0  0
 23 27  1  0  0  0  0
 24 25  1  0  0  0  0
 24 23  2  0  0  0  0
 25 22  2  0  0  0  0
 27 26  2  0  0  0  0
M  END
>  <MODEL>
2

>  <REMARK>
 VINA RESULT:      -6.5      5.872      8.775
  Name = 
  1 active torsions:
  status: ('A' for Active; 'I' for Inactive)
    1  A    between atoms: C_9  and  C_15
                            x       y       z     vdW  Elec       q    Type
                         _______ _______ _______ _____ _____    ______ ____

>  <TORSDO>
F 1

$$$$
=
 OpenBabel10262420023D

 27 32  0  0  1  0  0  0  0  0999 V2000
  187.9450  178.3730  136.3650 C   0  0  1  0  0  3  0  0  0  0  0  0
  186.3280  178.2520  138.3760 C   0  0  0  0  0  0  0  0  0  0  0  0
  188.4450  177.0410  139.0430 C   0  0  0  0  0  2  0  0  0  0  0  0
  185.5440  179.4360  142.4140 C   0  0  0  0  0  2  0  0  0  0  0  0
  185.4770  178.3310  144.4940 O   0  0  0  0  0  0  0  0  0  0  0  0
  185.1950  178.9950  138.7190 C   0  0  0  0  0  3  0  0  0  0  0  0
  187.9320  177.9150  141.8280 C   0  0  0  0  0  2  0  0  0  0  0  0
  190.7420  175.4700  138.0720 C   0  0  0  0  0  1  0  0  0  0  0  0
  187.1810  177.4960  143.0950 C   0  0  0  0  0  2  0  0  0  0  0  0
  190.9180  177.1280  136.1850 C   0  0  0  0  0  2  0  0  0  0  0  0
  187.2370  177.8810  139.3860 C   0  0  0  0  0  0  0  0  0  0  0  0
  186.5700  177.9200  136.9260 C   0  0  2  0  0  3  0  0  0  0  0  0
  186.0250  178.4110  143.4070 C   0  0  0  0  0  0  0  0  0  0  0  0
  185.8250  178.9980  141.0080 C   0  0  0  0  0  0  0  0  0  0  0  0
  188.9550  178.8320  137.4140 C   0  0  0  0  0  2  0  0  0  0  0  0
  186.9810  178.2540  140.7150 C   0  0  0  0  0  0  0  0  0  0  0  0
  190.0990  176.6530  137.3640 C   0  0  1  0  0  0  0  0  0  0  0  0
  184.9700  179.3490  140.0110 N   0  0  0  0  0  0  0  0  0  0  0  0
  189.5850  176.4110  135.9420 C   0  0  1  0  0  3  0  0  0  0  0  0
  188.6060  177.4380  135.3520 C   0  0  0  0  0  2  0  0  0  0  0  0
  189.4680  177.6980  138.2020 N   0  0  2  0  0  0  0  0  0  0  0  0
  185.1590  174.0390  135.7070 C   0  0  0  0  0  3  0  0  0  0  0  0
  186.0800  176.5560  136.5240 C   0  0  0  0  0  0  0  0  0  0  0  0
  186.4680  175.4020  137.2180 C   0  0  0  0  0  3  0  0  0  0  0  0
  186.0080  174.1470  136.8110 C   0  0  0  0  0  3  0  0  0  0  0  0
  184.7710  175.1860  135.0090 C   0  0  0  0  0  3  0  0  0  0  0  0
  185.2310  176.4420  135.4160 C   0  0  0  0  0  3  0  0  0  0  0  0
  1 20  1  1  0  0  0
  1 12  1  0  0  0  0
  1 15  1  0  0  0  0
  2  6  2  0  0  0  0
  2 11  1  0  0  0  0
  3 11  1  0  0  0  0
  4 13  1  0  0  0  0
  6 18  1  0  0  0  0
  7  9  1  0  0  0  0
  9 13  1  0  0  0  0
 10 17  1  0  0  0  0
 11 16  2  0  0  0  0
 12 23  1  1  0  0  0
 12  2  1  0  0  0  0
 13  5  2  0  0  0  0
 14  4  1  0  0  0  0
 16 14  1  0  0  0  0
 16  7  1  0  0  0  0
 17  8  1  1  0  0  0
 17 21  1  0  0  0  0
 18 14  2  0  0  0  0
 19 20  1  1  0  0  0
 19 10  1  0  0  0  0
 19 17  1  0  0  0  0
 21 15  1  6  0  0  0
 21  3  1  0  0  0  0
 22 25  1  0  0  0  0
 23 24  1  0  0  0  0
 25 24  2  0  0  0  0
 26 27  1  0  0  0  0
 26 22  2  0  0  0  0
 27 23  2  0  0  0  0
M  END
>  <MODEL>
3

>  <REMARK>
 VINA RESULT:      -6.2      1.672      2.126
  Name = 
  1 active torsions:
  status: ('A' for Active; 'I' for Inactive)
    1  A    between atoms: C_9  and  C_15
                            x       y       z     vdW  Elec       q    Type
                         _______ _______ _______ _____ _____    ______ ____

>  <TORSDO>
F 1

$$$$
=
 OpenBabel10262420023D

 27 32  0  0  1  0  0  0  0  0999 V2000
  188.4590  177.6290  135.9630 C   0  0  1  0  0  3  0  0  0  0  0  0
  187.7610  177.5240  138.4490 C   0  0  0  0  0  0  0  0  0  0  0  0
  189.8480  176.1200  138.1960 C   0  0  0  0  0  2  0  0  0  0  0  0
  188.7430  178.5440  142.4870 C   0  0  0  0  0  2  0  0  0  0  0  0
  189.4000  177.3360  144.4010 O   0  0  0  0  0  0  0  0  0  0  0  0
  186.9290  178.3320  139.2270 C   0  0  0  0  0  3  0  0  0  0  0  0
  190.5560  176.8780  140.9730 C   0  0  0  0  0  2  0  0  0  0  0  0
  191.4230  174.4320  136.3620 C   0  0  0  0  0  1  0  0  0  0  0  0
  190.3300  176.4500  142.4250 C   0  0  0  0  0  2  0  0  0  0  0  0
  190.9920  176.1720  134.5940 C   0  0  0  0  0  2  0  0  0  0  0  0
  188.9560  177.0300  139.0070 C   0  0  0  0  0  0  0  0  0  0  0  0
  187.3810  177.2530  137.0160 C   0  0  2  0  0  3  0  0  0  0  0  0
  189.4800  177.4330  143.1890 C   0  0  0  0  0  0  0  0  0  0  0  0
  188.4060  178.1620  141.0780 C   0  0  0  0  0  0  0  0  0  0  0  0
  189.8380  177.9530  136.5340 C   0  0  0  0  0  2  0  0  0  0  0  0
  189.2800  177.3490  140.3350 C   0  0  0  0  0  0  0  0  0  0  0  0
  190.6650  175.6970  135.9910 C   0  0  1  0  0  0  0  0  0  0  0  0
  187.2640  178.6320  140.5090 N   0  0  0  0  0  0  0  0  0  0  0  0
  189.6120  175.5730  134.8860 C   0  0  1  0  0  3  0  0  0  0  0  0
  188.5780  176.7030  134.7540 C   0  0  0  0  0  2  0  0  0  0  0  0
  190.5130  176.7410  137.0310 N   0  0  2  0  0  0  0  0  0  0  0  0
  185.2490  173.5670  136.3850 C   0  0  0  0  0  3  0  0  0  0  0  0
  186.6480  175.9550  136.8140 C   0  0  0  0  0  0  0  0  0  0  0  0
  187.2130  174.7280  137.1900 C   0  0  0  0  0  3  0  0  0  0  0  0
  186.5140  173.5370  136.9760 C   0  0  0  0  0  3  0  0  0  0  0  0
  184.6830  174.7870  136.0060 C   0  0  0  0  0  3  0  0  0  0  0  0
  185.3810  175.9780  136.2200 C   0  0  0  0  0  3  0  0  0  0  0  0
  1 20  1  6  0  0  0
  1 15  1  0  0  0  0
  1 12  1  0  0  0  0
  2 11  2  0  0  0  0
  2  6  1  0  0  0  0
  3 11  1  0  0  0  0
  4 13  1  0  0  0  0
  6 18  2  0  0  0  0
  7  9  1  0  0  0  0
  9 13  1  0  0  0  0
 10 17  1  0  0  0  0
 11 16  1  0  0  0  0
 12 23  1  1  0  0  0
 12  2  1  0  0  0  0
 13  5  2  0  0  0  0
 14  4  1  0  0  0  0
 16  7  1  0  0  0  0
 16 14  2  0  0  0  0
 17  8  1  1  0  0  0
 17 21  1  0  0  0  0
 18 14  1  0  0  0  0
 19 10  1  6  0  0  0
 19 17  1  0  0  0  0
 20 19  1  0  0  0  0
 21 15  1  6  0  0  0
 21  3  1  0  0  0  0
 22 25  1  0  0  0  0
 23 24  1  0  0  0  0
 25 24  2  0  0  0  0
 26 27  1  0  0  0  0
 26 22  2  0  0  0  0
 27 23  2  0  0  0  0
M  END
>  <MODEL>
4

>  <REMARK>
 VINA RESULT:      -6.2      0.957      1.108
  Name = 
  1 active torsions:
  status: ('A' for Active; 'I' for Inactive)
    1  A    between atoms: C_9  and  C_15
                            x       y       z     vdW  Elec       q    Type
                         _______ _______ _______ _____ _____    ______ ____

>  <TORSDO>
F 1

$$$$
=
 OpenBabel10262420023D

 27 32  0  0  1  0  0  0  0  0999 V2000
  181.7990  179.2430  139.2760 C   0  0  1  0  0  3  0  0  0  0  0  0
  182.3340  178.6000  141.7210 C   0  0  0  0  0  0  0  0  0  0  0  0
  184.2430  177.7620  140.2900 C   0  0  0  0  0  2  0  0  0  0  0  0
  184.9050  179.1770  145.0930 C   0  0  0  0  0  2  0  0  0  0  0  0
  186.5180  177.8690  146.2050 O   0  0  0  0  0  0  0  0  0  0  0  0
  181.8490  179.0670  142.9440 C   0  0  0  0  0  3  0  0  0  0  0  0
  186.0320  178.2210  142.6080 C   0  0  0  0  0  2  0  0  0  0  0  0
  185.0160  176.7790  137.6200 C   0  0  0  0  0  1  0  0  0  0  0  0
  186.5530  177.5340  143.8720 C   0  0  0  0  0  2  0  0  0  0  0  0
  183.5980  178.6280  136.6670 C   0  0  0  0  0  2  0  0  0  0  0  0
  183.7070  178.3090  141.5910 C   0  0  0  0  0  0  0  0  0  0  0  0
  181.3820  178.4750  140.5590 C   0  0  2  0  0  3  0  0  0  0  0  0
  186.0220  178.1680  145.1320 C   0  0  0  0  0  0  0  0  0  0  0  0
  184.0160  178.9530  143.9070 C   0  0  0  0  0  0  0  0  0  0  0  0
  183.2290  179.7790  139.2770 C   0  0  0  0  0  2  0  0  0  0  0  0
  184.5550  178.4830  142.6960 C   0  0  0  0  0  0  0  0  0  0  0  0
  184.0110  177.8820  137.9150 C   0  0  1  0  0  0  0  0  0  0  0  0
  182.6890  179.2330  143.9990 N   0  0  0  0  0  0  0  0  0  0  0  0
  182.5970  177.6950  137.3570 C   0  0  1  0  0  3  0  0  0  0  0  0
  181.4760  178.5670  137.9450 C   0  0  0  0  0  2  0  0  0  0  0  0
  184.2130  178.6900  139.1400 N   0  0  2  0  0  0  0  0  0  0  0  0
  179.7070  174.5430  140.0360 C   0  0  0  0  0  3  0  0  0  0  0  0
  180.8200  177.0910  140.3780 C   0  0  0  0  0  0  0  0  0  0  0  0
  181.5870  176.0540  139.8300 C   0  0  0  0  0  3  0  0  0  0  0  0
  181.0320  174.7820  139.6600 C   0  0  0  0  0  3  0  0  0  0  0  0
  178.9380  175.5750  140.5790 C   0  0  0  0  0  3  0  0  0  0  0  0
  179.4920  176.8460  140.7500 C   0  0  0  0  0  3  0  0  0  0  0  0
  1 20  1  6  0  0  0
  1 15  1  0  0  0  0
  1 12  1  0  0  0  0
  2  6  1  0  0  0  0
  3 11  1  0  0  0  0
  4 13  1  0  0  0  0
  6 18  2  0  0  0  0
  7 16  1  0  0  0  0
  7  9  1  0  0  0  0
  9 13  1  0  0  0  0
 10 17  1  0  0  0  0
 11  2  2  0  0  0  0
 11 16  1  0  0  0  0
 12 23  1  6  0  0  0
 12  2  1  0  0  0  0
 13  5  2  0  0  0  0
 14 18  1  0  0  0  0
 14  4  1  0  0  0  0
 16 14  2  0  0  0  0
 17  8  1  6  0  0  0
 17 21  1  0  0  0  0
 19 10  1  6  0  0  0
 19 17  1  0  0  0  0
 19 20  1  0  0  0  0
 21 15  1  1  0  0  0
 21  3  1  0  0  0  0
 22 26  1  0  0  0  0
 23 27  1  0  0  0  0
 24 23  2  0  0  0  0
 25 24  1  0  0  0  0
 25 22  2  0  0  0  0
 26 27  2  0  0  0  0
M  END
>  <MODEL>
5

>  <REMARK>
 VINA RESULT:      -6.0      4.055      5.663
  Name = 
  1 active torsions:
  status: ('A' for Active; 'I' for Inactive)
    1  A    between atoms: C_9  and  C_15
                            x       y       z     vdW  Elec       q    Type
                         _______ _______ _______ _____ _____    ______ ____

>  <TORSDO>
F 1

$$$$
=
 OpenBabel10262420023D

 27 32  0  0  1  0  0  0  0  0999 V2000
  189.2810  178.5080  138.4920 C   0  0  1  0  0  3  0  0  0  0  0  0
  191.3530  177.0660  139.0440 C   0  0  0  0  0  0  0  0  0  0  0  0
  189.7070  175.5800  137.8290 C   0  0  0  0  0  2  0  0  0  0  0  0
  194.6990  174.8770  137.5180 C   0  0  0  0  0  2  0  0  0  0  0  0
  195.2820  172.5980  137.3870 O   0  0  0  0  0  0  0  0  0  0  0  0
  192.6660  177.3960  139.3850 C   0  0  0  0  0  3  0  0  0  0  0  0
  192.0280  174.1050  136.7250 C   0  0  0  0  0  2  0  0  0  0  0  0
  186.8560  175.0740  137.2730 C   0  0  0  0  0  1  0  0  0  0  0  0
  192.9750  172.9480  137.0510 C   0  0  0  0  0  2  0  0  0  0  0  0
  186.6060  177.5590  136.9560 C   0  0  0  0  0  2  0  0  0  0  0  0
  191.1210  175.9810  138.1750 C   0  0  0  0  0  0  0  0  0  0  0  0
  190.2260  177.9160  139.5730 C   0  0  2  0  0  3  0  0  0  0  0  0
  194.3810  173.4170  137.3290 C   0  0  0  0  0  0  0  0  0  0  0  0
  193.5150  175.6210  138.0570 C   0  0  0  0  0  0  0  0  0  0  0  0
  189.4550  177.9280  137.0900 C   0  0  0  0  0  2  0  0  0  0  0  0
  192.2120  175.2490  137.6810 C   0  0  0  0  0  0  0  0  0  0  0  0
  187.5190  176.4370  137.3960 C   0  0  1  0  0  0  0  0  0  0  0  0
  193.7070  176.6780  138.8910 N   0  0  0  0  0  0  0  0  0  0  0  0
  186.9420  177.3950  138.4430 C   0  0  1  0  0  3  0  0  0  0  0  0
  187.8010  178.5980  138.8610 C   0  0  0  0  0  2  0  0  0  0  0  0
  188.9450  176.5480  137.0110 N   0  0  2  0  0  0  0  0  0  0  0  0
  188.4580  176.3370  143.1670 C   0  0  0  0  0  3  0  0  0  0  0  0
  189.5860  177.3720  140.8200 C   0  0  0  0  0  0  0  0  0  0  0  0
  188.3950  177.9090  141.3280 C   0  0  0  0  0  3  0  0  0  0  0  0
  187.8320  177.3930  142.4990 C   0  0  0  0  0  3  0  0  0  0  0  0
  189.6470  175.8000  142.6670 C   0  0  0  0  0  3  0  0  0  0  0  0
  190.2100  176.3170  141.4960 C   0  0  0  0  0  3  0  0  0  0  0  0
  1 15  1  6  0  0  0
  1 20  1  0  0  0  0
  1 12  1  0  0  0  0
  2  6  1  0  0  0  0
  2 12  1  0  0  0  0
  3 11  1  0  0  0  0
  4 14  1  0  0  0  0
  7  9  1  0  0  0  0
  7 16  1  0  0  0  0
  9 13  1  0  0  0  0
 10 17  1  0  0  0  0
 11  2  2  0  0  0  0
 12 23  1  1  0  0  0
 13  5  2  0  0  0  0
 13  4  1  0  0  0  0
 14 18  1  0  0  0  0
 16 14  2  0  0  0  0
 16 11  1  0  0  0  0
 17  8  1  6  0  0  0
 17 19  1  0  0  0  0
 18  6  2  0  0  0  0
 19 10  1  6  0  0  0
 19 20  1  0  0  0  0
 21 15  1  1  0  0  0
 21 17  1  0  0  0  0
 21  3  1  0  0  0  0
 23 24  2  0  0  0  0
 23 27  1  0  0  0  0
 24 25  1  0  0  0  0
 25 22  2  0  0  0  0
 26 22  1  0  0  0  0
 27 26  2  0  0  0  0
M  END
>  <MODEL>
6

>  <REMARK>
 VINA RESULT:      -5.6      2.926      5.739
  Name = 
  1 active torsions:
  status: ('A' for Active; 'I' for Inactive)
    1  A    between atoms: C_9  and  C_15
                            x       y       z     vdW  Elec       q    Type
                         _______ _______ _______ _____ _____    ______ ____

>  <TORSDO>
F 1

$$$$
=
 OpenBabel10262420023D

 27 32  0  0  1  0  0  0  0  0999 V2000
  180.7350  179.6890  139.6700 C   0  0  1  0  0  3  0  0  0  0  0  0
  182.8770  178.5250  140.5250 C   0  0  0  0  0  0  0  0  0  0  0  0
  182.9840  178.5280  137.9990 C   0  0  0  0  0  2  0  0  0  0  0  0
  187.1400  178.6750  140.8660 C   0  0  0  0  0  2  0  0  0  0  0  0
  188.9340  177.4770  139.9180 O   0  0  0  0  0  0  0  0  0  0  0  0
  183.5170  178.5260  141.7670 C   0  0  0  0  0  3  0  0  0  0  0  0
  185.9340  178.6950  138.2390 C   0  0  0  0  0  2  0  0  0  0  0  0
  181.4060  178.5010  135.5100 C   0  0  0  0  0  1  0  0  0  0  0  0
  187.1740  177.8110  138.3840 C   0  0  0  0  0  2  0  0  0  0  0  0
  179.9000  180.2020  136.5940 C   0  0  0  0  0  2  0  0  0  0  0  0
  183.6550  178.5730  139.3520 C   0  0  0  0  0  0  0  0  0  0  0  0
  181.3700  178.5280  140.4820 C   0  0  2  0  0  3  0  0  0  0  0  0
  187.8240  177.9500  139.7380 C   0  0  0  0  0  0  0  0  0  0  0  0
  185.6500  178.6050  140.7280 C   0  0  0  0  0  0  0  0  0  0  0  0
  181.7110  180.4890  138.8100 C   0  0  0  0  0  2  0  0  0  0  0  0
  185.0540  178.6090  139.4540 C   0  0  0  0  0  0  0  0  0  0  0  0
  181.0540  179.2450  136.7890 C   0  0  1  0  0  0  0  0  0  0  0  0
  184.8720  178.5670  141.8430 N   0  0  0  0  0  0  0  0  0  0  0  0
  179.6950  178.9280  137.4210 C   0  0  1  0  0  3  0  0  0  0  0  0
  179.4700  179.3530  138.8810 C   0  0  0  0  0  2  0  0  0  0  0  0
  182.1680  179.7090  137.6460 N   0  0  2  0  0  0  0  0  0  0  0  0
  179.5670  174.6440  140.0330 C   0  0  0  0  0  3  0  0  0  0  0  0
  180.7620  177.1620  140.3170 C   0  0  0  0  0  0  0  0  0  0  0  0
  181.2750  176.2360  139.3980 C   0  0  0  0  0  3  0  0  0  0  0  0
  180.6790  174.9800  139.2560 C   0  0  0  0  0  3  0  0  0  0  0  0
  179.0500  175.5650  140.9480 C   0  0  0  0  0  3  0  0  0  0  0  0
  179.6460  176.8210  141.0900 C   0  0  0  0  0  3  0  0  0  0  0  0
  1 15  1  6  0  0  0
  1 12  1  0  0  0  0
  2  6  1  0  0  0  0
  3 11  1  0  0  0  0
  6 18  2  0  0  0  0
  7  9  1  0  0  0  0
  7 16  1  0  0  0  0
  9 13  1  0  0  0  0
 10 17  1  0  0  0  0
 11 16  1  0  0  0  0
 11  2  2  0  0  0  0
 12 23  1  6  0  0  0
 12  2  1  0  0  0  0
 13  5  2  0  0  0  0
 13  4  1  0  0  0  0
 14  4  1  0  0  0  0
 14 18  1  0  0  0  0
 16 14  2  0  0  0  0
 17  8  1  6  0  0  0
 17 19  1  0  0  0  0
 17 21  1  0  0  0  0
 19 10  1  6  0  0  0
 19 20  1  0  0  0  0
 20  1  1  0  0  0  0
 21  3  1  1  0  0  0
 21 15  1  0  0  0  0
 22 26  1  0  0  0  0
 23 27  1  0  0  0  0
 24 23  2  0  0  0  0
 25 24  1  0  0  0  0
 25 22  2  0  0  0  0
 26 27  2  0  0  0  0
M  END
>  <MODEL>
7

>  <REMARK>
 VINA RESULT:      -5.5      4.266      6.487
  Name = 
  1 active torsions:
  status: ('A' for Active; 'I' for Inactive)
    1  A    between atoms: C_9  and  C_15
                            x       y       z     vdW  Elec       q    Type
                         _______ _______ _______ _____ _____    ______ ____

>  <TORSDO>
F 1

$$$$
=
 OpenBabel10262420023D

 27 32  0  0  1  0  0  0  0  0999 V2000
  182.3600  176.4300  137.4070 C   0  0  1  0  0  3  0  0  0  0  0  0
  183.3580  178.3290  138.8480 C   0  0  0  0  0  0  0  0  0  0  0  0
  181.5040  177.2620  140.1950 C   0  0  0  0  0  2  0  0  0  0  0  0
  185.5380  179.3750  142.3780 C   0  0  0  0  0  2  0  0  0  0  0  0
  185.0090  180.4410  144.4120 O   0  0  0  0  0  0  0  0  0  0  0  0
  184.5710  179.0190  138.7860 C   0  0  0  0  0  3  0  0  0  0  0  0
  183.0460  177.9330  142.6350 C   0  0  0  0  0  2  0  0  0  0  0  0
  178.9310  175.8290  140.0610 C   0  0  0  0  0  1  0  0  0  0  0  0
  183.2560  179.0640  143.6450 C   0  0  0  0  0  2  0  0  0  0  0  0
  179.9360  174.4550  138.2070 C   0  0  0  0  0  2  0  0  0  0  0  0
  182.8360  177.9690  140.1050 C   0  0  0  0  0  0  0  0  0  0  0  0
  182.6730  177.9430  137.5610 C   0  0  2  0  0  3  0  0  0  0  0  0
  184.6260  179.6850  143.5360 C   0  0  0  0  0  0  0  0  0  0  0  0
  184.7530  179.0160  141.1530 C   0  0  0  0  0  0  0  0  0  0  0  0
  182.5320  175.5990  138.6770 C   0  0  0  0  0  2  0  0  0  0  0  0
  183.5370  178.3200  141.2690 C   0  0  0  0  0  0  0  0  0  0  0  0
  180.1090  175.6500  139.1170 C   0  0  1  0  0  0  0  0  0  0  0  0
  185.2360  179.3430  139.9250 N   0  0  0  0  0  0  0  0  0  0  0  0
  179.8390  175.8690  137.6250 C   0  0  1  0  0  3  0  0  0  0  0  0
  181.0510  176.0760  136.7030 C   0  0  0  0  0  2  0  0  0  0  0  0
  181.4680  175.8860  139.6560 N   0  0  2  0  0  0  0  0  0  0  0  0
  179.6270  180.6840  136.2410 C   0  0  0  0  0  3  0  0  0  0  0  0
  181.6100  178.9120  137.1220 C   0  0  0  0  0  0  0  0  0  0  0  0
  180.7620  179.5390  138.0460 C   0  0  0  0  0  3  0  0  0  0  0  0
  179.7730  180.4230  137.6060 C   0  0  0  0  0  3  0  0  0  0  0  0
  180.4670  180.0590  135.3160 C   0  0  0  0  0  3  0  0  0  0  0  0
  181.4560  179.1740  135.7560 C   0  0  0  0  0  3  0  0  0  0  0  0
  1 20  1  1  0  0  0
  1 12  1  0  0  0  0
  1 15  1  0  0  0  0
  2 11  1  0  0  0  0
  4 13  1  0  0  0  0
  6  2  2  0  0  0  0
  6 18  1  0  0  0  0
  7  9  1  0  0  0  0
 10 17  1  0  0  0  0
 11  3  1  0  0  0  0
 11 16  2  0  0  0  0
 12 23  1  1  0  0  0
 12  2  1  0  0  0  0
 13  9  1  0  0  0  0
 13  5  2  0  0  0  0
 14 16  1  0  0  0  0
 14  4  1  0  0  0  0
 16  7  1  0  0  0  0
 17 21  1  0  0  0  0
 17  8  1  1  0  0  0
 18 14  2  0  0  0  0
 19 20  1  6  0  0  0
 19 10  1  0  0  0  0
 19 17  1  0  0  0  0
 21 15  1  6  0  0  0
 21  3  1  0  0  0  0
 22 25  1  0  0  0  0
 23 24  1  0  0  0  0
 25 24  2  0  0  0  0
 26 27  1  0  0  0  0
 26 22  2  0  0  0  0
 27 23  2  0  0  0  0
M  END
>  <MODEL>
8

>  <REMARK>
 VINA RESULT:      -5.4      4.607      7.005
  Name = 
  1 active torsions:
  status: ('A' for Active; 'I' for Inactive)
    1  A    between atoms: C_9  and  C_15
                            x       y       z     vdW  Elec       q    Type
                         _______ _______ _______ _____ _____    ______ ____

>  <TORSDO>
F 1

$$$$
=
 OpenBabel10262420023D

 27 32  0  0  1  0  0  0  0  0999 V2000
  186.7590  177.0240  134.9310 C   0  0  1  0  0  3  0  0  0  0  0  0
  184.6370  176.9520  136.4030 C   0  0  0  0  0  0  0  0  0  0  0  0
  186.6110  177.2740  137.9490 C   0  0  0  0  0  2  0  0  0  0  0  0
  182.0280  179.1010  139.0270 C   0  0  0  0  0  2  0  0  0  0  0  0
  181.5440  179.0220  141.3320 O   0  0  0  0  0  0  0  0  0  0  0  0
  183.2830  177.1300  136.1110 C   0  0  0  0  0  3  0  0  0  0  0  0
  184.8160  178.8140  139.7350 C   0  0  0  0  0  2  0  0  0  0  0  0
  189.4860  176.7530  138.3450 C   0  0  0  0  0  1  0  0  0  0  0  0
  183.8250  178.6270  140.8860 C   0  0  0  0  0  2  0  0  0  0  0  0
  189.8060  177.3940  135.9320 C   0  0  0  0  0  2  0  0  0  0  0  0
  185.1600  177.4930  137.5940 C   0  0  0  0  0  0  0  0  0  0  0  0
  185.5090  176.2340  135.4050 C   0  0  2  0  0  3  0  0  0  0  0  0
  182.4040  178.9180  140.4740 C   0  0  0  0  0  0  0  0  0  0  0  0
  182.9520  178.3360  138.1280 C   0  0  0  0  0  0  0  0  0  0  0  0
  187.0770  178.2810  135.7380 C   0  0  0  0  0  2  0  0  0  0  0  0
  184.3080  178.1880  138.4670 C   0  0  0  0  0  0  0  0  0  0  0  0
  188.8080  177.0960  137.0280 C   0  0  1  0  0  0  0  0  0  0  0  0
  182.4780  177.8110  136.9670 N   0  0  0  0  0  0  0  0  0  0  0  0
  188.9870  176.0990  135.8780 C   0  0  1  0  0  3  0  0  0  0  0  0
  188.0260  176.2060  134.6840 C   0  0  0  0  0  2  0  0  0  0  0  0
  187.5960  177.9460  137.0750 N   0  0  2  0  0  0  0  0  0  0  0  0
  186.0530  172.0330  136.1760 C   0  0  0  0  0  3  0  0  0  0  0  0
  185.6930  174.7710  135.6980 C   0  0  0  0  0  0  0  0  0  0  0  0
  186.0340  174.3160  136.9800 C   0  0  0  0  0  3  0  0  0  0  0  0
  186.2130  172.9510  137.2180 C   0  0  0  0  0  3  0  0  0  0  0  0
  185.7170  172.4820  134.8960 C   0  0  0  0  0  3  0  0  0  0  0  0
  185.5380  173.8470  134.6580 C   0  0  0  0  0  3  0  0  0  0  0  0
  1 20  1  1  0  0  0
  1 12  1  0  0  0  0
  1 15  1  0  0  0  0
  2 11  1  0  0  0  0
  4 13  1  0  0  0  0
  6  2  2  0  0  0  0
  6 18  1  0  0  0  0
  7  9  1  0  0  0  0
 10 17  1  0  0  0  0
 11  3  1  0  0  0  0
 11 16  2  0  0  0  0
 12 23  1  1  0  0  0
 12  2  1  0  0  0  0
 13  9  1  0  0  0  0
 13  5  2  0  0  0  0
 14 16  1  0  0  0  0
 14  4  1  0  0  0  0
 16  7  1  0  0  0  0
 17 21  1  0  0  0  0
 17  8  1  1  0  0  0
 18 14  2  0  0  0  0
 19 20  1  6  0  0  0
 19 10  1  0  0  0  0
 19 17  1  0  0  0  0
 21 15  1  6  0  0  0
 21  3  1  0  0  0  0
 22 25  1  0  0  0  0
 23 24  1  0  0  0  0
 24 25  2  0  0  0  0
 26 22  2  0  0  0  0
 27 26  1  0  0  0  0
 27 23  2  0  0  0  0
M  END
>  <MODEL>
9

>  <REMARK>
 VINA RESULT:      -5.4      2.911      4.587
  Name = 
  1 active torsions:
  status: ('A' for Active; 'I' for Inactive)
    1  A    between atoms: C_9  and  C_15
                            x       y       z     vdW  Elec       q    Type
                         _______ _______ _______ _____ _____    ______ ____

>  <TORSDO>
F 1

$$$$
