=
 OpenBabel10262423253D

 34 39  0  0  1  0  0  0  0  0999 V2000
  187.5050  177.6470  144.9000 N   0  0  0  0  0  0  0  0  0  0  0  0
  190.9580  178.0040  143.6780 C   0  0  0  0  0  2  0  0  0  0  0  0
  190.1690  177.7310  145.8060 N   0  0  0  0  0  0  0  0  0  0  0  0
  186.9620  177.6660  147.2610 N   0  0  0  0  0  0  0  0  0  0  0  0
  187.7660  177.6840  148.3590 C   0  0  0  0  0  3  0  0  0  0  0  0
  189.1400  177.6680  146.6690 C   0  0  0  0  0  0  0  0  0  0  0  0
  187.8080  177.6670  146.2220 C   0  0  0  0  0  0  0  0  0  0  0  0
  189.1320  177.6950  148.0390 C   0  0  0  0  0  3  0  0  0  0  0  0
  190.8980  178.3600  142.2330 C   0  0  0  0  0  2  0  0  0  0  0  0
  190.3530  177.2570  141.4000 C   0  0  0  0  0  0  0  0  0  0  0  0
  189.1160  176.8100  141.6080 C   0  0  0  0  0  3  0  0  0  0  0  0
  189.9110  177.7300  144.4630 C   0  0  0  0  0  0  0  0  0  0  0  0
  188.2370  177.1690  142.7350 C   0  0  0  0  0  2  0  0  0  0  0  0
  188.5470  177.5630  143.9900 C   0  0  0  0  0  0  0  0  0  0  0  0
  191.1060  176.7880  140.2720 N   0  0  0  0  0  0  0  0  0  0  0  0
  192.3810  177.2520  140.0510 O   0  0  0  0  0  0  0  0  0  0  0  0
  190.6190  175.9500  139.4830 O   0  0  0  0  0  0  0  0  0  0  0  0
  186.0940  177.6680  144.4820 C   0  0  0  0  0  2  0  0  0  0  0  0
  180.9810  178.4370  143.2230 C   0  0  0  0  0  3  0  0  0  0  0  0
  183.6370  178.9820  142.5400 C   0  0  0  0  0  0  0  0  0  0  0  0
  180.9580  177.5570  139.6250 C   0  0  0  0  0  0  0  0  0  0  0  0
  185.5980  179.0790  144.1210 C   0  0  1  0  0  3  0  0  0  0  0  0
  180.5240  177.7750  140.9360 C   0  0  0  0  0  3  0  0  0  0  0  0
  181.4150  178.2430  141.9050 C   0  0  0  0  0  0  0  0  0  0  0  0
  185.3820  179.2810  142.3130 S   0  0  0  0  0  0  0  0  0  0  0  0
  184.2810  179.4400  144.8200 C   0  0  0  0  0  2  0  0  0  0  0  0
  183.1940  178.2810  140.2420 C   0  0  0  0  0  3  0  0  0  0  0  0
  182.7630  178.5050  141.5550 C   0  0  0  0  0  0  0  0  0  0  0  0
  182.2950  177.8090  139.2810 C   0  0  0  0  0  3  0  0  0  0  0  0
  183.2070  179.1330  143.8440 C   0  0  0  0  0  0  0  0  0  0  0  0
  181.8830  178.8720  144.2020 C   0  0  0  0  0  3  0  0  0  0  0  0
  179.9820  177.0610  138.6070 C   0  0  2  0  0  3  0  0  0  0  0  0
  179.6600  175.7270  138.8520 O   0  0  0  0  0  1  0  0  0  0  0  0
  180.5440  177.2090  137.2050 C   0  0  0  0  0  1  0  0  0  0  0  0
  1  7  1  0  0  0  0
  2 12  1  0  0  0  0
  3  6  2  0  0  0  0
  4  5  1  0  0  0  0
  6  8  1  0  0  0  0
  7  6  1  0  0  0  0
  7  4  2  0  0  0  0
  8  5  2  0  0  0  0
  9  2  1  0  0  0  0
 10 11  2  0  0  0  0
 10  9  1  0  0  0  0
 11 13  1  0  0  0  0
 12  3  1  0  0  0  0
 13 14  1  0  0  0  0
 14 12  2  0  0  0  0
 14  1  1  0  0  0  0
 15 10  1  0  0  0  0
 16 15  2  0  0  0  0
 17 15  2  0  0  0  0
 18  1  1  0  0  0  0
 19 31  1  0  0  0  0
 20 30  1  0  0  0  0
 21 23  2  0  0  0  0
 22 18  1  6  0  0  0
 22 26  1  0  0  0  0
 23 24  1  0  0  0  0
 24 19  2  0  0  0  0
 25 20  1  0  0  0  0
 25 22  1  0  0  0  0
 27 28  1  0  0  0  0
 28 24  1  0  0  0  0
 28 20  2  0  0  0  0
 29 21  1  0  0  0  0
 29 27  2  0  0  0  0
 30 31  2  0  0  0  0
 30 26  1  0  0  0  0
 32 34  1  6  0  0  0
 32 33  1  0  0  0  0
 32 21  1  0  0  0  0
M  END
>  <MODEL>
1

>  <REMARK>
 VINA RESULT:      -9.1      0.000      0.000
  Name = 
  4 active torsions:
  status: ('A' for Active; 'I' for Inactive)
    1  A    between atoms: N_1  and  C_9
    2  A    between atoms: N_3  and  C_25
    3  A    between atoms: C_7  and  C_11
    4  A    between atoms: C_8  and  C_9
                            x       y       z     vdW  Elec       q    Type
                         _______ _______ _______ _____ _____    ______ ____

>  <TORSDO>
F 4

$$$$
=
 OpenBabel10262423253D

 34 39  0  0  1  0  0  0  0  0999 V2000
  184.6510  178.1750  143.0670 N   0  0  0  0  0  0  0  0  0  0  0  0
  185.2900  179.1170  146.5670 C   0  0  0  0  0  2  0  0  0  0  0  0
  183.3390  179.1100  145.3760 N   0  0  0  0  0  0  0  0  0  0  0  0
  182.5110  178.5560  141.9970 N   0  0  0  0  0  0  0  0  0  0  0  0
  181.3300  179.0060  142.5040 C   0  0  0  0  0  3  0  0  0  0  0  0
  182.6860  178.9760  144.2080 C   0  0  0  0  0  0  0  0  0  0  0  0
  183.3470  178.5490  143.0440 C   0  0  0  0  0  0  0  0  0  0  0  0
  181.3940  179.2890  143.8770 C   0  0  0  0  0  3  0  0  0  0  0  0
  186.7650  179.1330  146.7760 C   0  0  0  0  0  2  0  0  0  0  0  0
  187.3660  177.7790  146.6700 C   0  0  0  0  0  0  0  0  0  0  0  0
  187.2730  177.0920  145.5330 C   0  0  0  0  0  3  0  0  0  0  0  0
  184.6590  178.7610  145.4430 C   0  0  0  0  0  0  0  0  0  0  0  0
  186.4520  177.4490  144.3630 C   0  0  0  0  0  2  0  0  0  0  0  0
  185.3070  178.1640  144.2870 C   0  0  0  0  0  0  0  0  0  0  0  0
  188.1820  177.2850  147.7430 N   0  0  0  0  0  0  0  0  0  0  0  0
  189.3170  176.5570  147.4700 O   0  0  0  0  0  0  0  0  0  0  0  0
  187.8780  177.5120  148.9330 O   0  0  0  0  0  0  0  0  0  0  0  0
  185.3040  177.7540  141.8170 C   0  0  0  0  0  2  0  0  0  0  0  0
  187.4980  176.9190  137.0420 C   0  0  0  0  0  3  0  0  0  0  0  0
  187.7970  178.1330  139.5420 C   0  0  0  0  0  0  0  0  0  0  0  0
  190.8860  175.7450  137.9720 C   0  0  0  0  0  0  0  0  0  0  0  0
  185.9400  178.9270  141.0510 C   0  0  1  0  0  3  0  0  0  0  0  0
  189.7110  175.9480  137.2420 C   0  0  0  0  0  3  0  0  0  0  0  0
  188.6830  176.7370  137.7670 C   0  0  0  0  0  0  0  0  0  0  0  0
  187.7700  178.8940  141.1560 S   0  0  0  0  0  0  0  0  0  0  0  0
  185.5310  178.9610  139.5730 C   0  0  0  0  0  2  0  0  0  0  0  0
  190.0130  177.1290  139.7690 C   0  0  0  0  0  3  0  0  0  0  0  0
  188.8360  177.3390  139.0400 C   0  0  0  0  0  0  0  0  0  0  0  0
  191.0330  176.3350  139.2370 C   0  0  0  0  0  3  0  0  0  0  0  0
  186.6180  178.2730  138.8350 C   0  0  0  0  0  0  0  0  0  0  0  0
  186.4530  177.6800  137.5830 C   0  0  0  0  0  3  0  0  0  0  0  0
  191.9710  174.9010  137.3860 C   0  0  2  0  0  3  0  0  0  0  0  0
  192.7680  175.6590  136.5290 O   0  0  0  0  0  1  0  0  0  0  0  0
  191.3890  173.7160  136.6380 C   0  0  0  0  0  1  0  0  0  0  0  0
  1 14  1  0  0  0  0
  2  9  1  0  0  0  0
  3 12  1  0  0  0  0
  4  5  1  0  0  0  0
  4  7  2  0  0  0  0
  5  8  2  0  0  0  0
  6  3  2  0  0  0  0
  7  1  1  0  0  0  0
  7  6  1  0  0  0  0
  8  6  1  0  0  0  0
 10  9  1  0  0  0  0
 10 15  1  0  0  0  0
 11 10  2  0  0  0  0
 12  2  1  0  0  0  0
 13 11  1  0  0  0  0
 14 13  1  0  0  0  0
 14 12  2  0  0  0  0
 15 17  2  0  0  0  0
 16 15  2  0  0  0  0
 18  1  1  0  0  0  0
 19 31  2  0  0  0  0
 19 24  1  0  0  0  0
 20 25  1  0  0  0  0
 21 29  1  0  0  0  0
 22 25  1  0  0  0  0
 22 18  1  6  0  0  0
 23 24  1  0  0  0  0
 23 21  2  0  0  0  0
 24 28  2  0  0  0  0
 26 22  1  0  0  0  0
 28 20  1  0  0  0  0
 28 27  1  0  0  0  0
 29 27  2  0  0  0  0
 30 20  2  0  0  0  0
 30 26  1  0  0  0  0
 31 30  1  0  0  0  0
 32 34  1  6  0  0  0
 32 21  1  0  0  0  0
 33 32  1  0  0  0  0
M  END
>  <MODEL>
2

>  <REMARK>
 VINA RESULT:      -8.7      3.725      7.537
  Name = 
  4 active torsions:
  status: ('A' for Active; 'I' for Inactive)
    1  A    between atoms: N_1  and  C_9
    2  A    between atoms: N_3  and  C_25
    3  A    between atoms: C_7  and  C_11
    4  A    between atoms: C_8  and  C_9
                            x       y       z     vdW  Elec       q    Type
                         _______ _______ _______ _____ _____    ______ ____

>  <TORSDO>
F 4

$$$$
=
 OpenBabel10262423253D

 34 39  0  0  1  0  0  0  0  0999 V2000
  188.8880  176.9670  143.9660 N   0  0  0  0  0  0  0  0  0  0  0  0
  186.1150  177.8160  146.2320 C   0  0  0  0  0  2  0  0  0  0  0  0
  188.3560  177.6520  146.6450 N   0  0  0  0  0  0  0  0  0  0  0  0
  191.1410  176.5840  144.7690 N   0  0  0  0  0  0  0  0  0  0  0  0
  191.6800  176.7300  146.0110 C   0  0  0  0  0  3  0  0  0  0  0  0
  189.5950  177.3170  146.2420 C   0  0  0  0  0  0  0  0  0  0  0  0
  189.8560  176.9350  144.9150 C   0  0  0  0  0  0  0  0  0  0  0  0
  190.7510  177.1760  146.9640 C   0  0  0  0  0  3  0  0  0  0  0  0
  184.8380  177.5800  145.5020 C   0  0  0  0  0  2  0  0  0  0  0  0
  184.6520  178.5200  144.3660 C   0  0  0  0  0  0  0  0  0  0  0  0
  185.5260  178.5360  143.3610 C   0  0  0  0  0  3  0  0  0  0  0  0
  187.3450  177.6820  145.7250 C   0  0  0  0  0  0  0  0  0  0  0  0
  186.8160  177.8280  143.3160 C   0  0  0  0  0  2  0  0  0  0  0  0
  187.6380  177.4490  144.3210 C   0  0  0  0  0  0  0  0  0  0  0  0
  183.4460  179.2940  144.2820 N   0  0  0  0  0  0  0  0  0  0  0  0
  182.2300  178.7100  144.5520 O   0  0  0  0  0  0  0  0  0  0  0  0
  183.4830  180.5030  143.9690 O   0  0  0  0  0  0  0  0  0  0  0  0
  189.2060  176.5390  142.5940 C   0  0  0  0  0  2  0  0  0  0  0  0
  188.3330  176.6060  137.3460 C   0  0  0  0  0  3  0  0  0  0  0  0
  190.2320  176.8990  139.3770 C   0  0  0  0  0  0  0  0  0  0  0  0
  191.0030  174.3530  136.1150 C   0  0  0  0  0  0  0  0  0  0  0  0
  189.7920  177.6730  141.7350 C   0  0  1  0  0  3  0  0  0  0  0  0
  189.8040  175.0690  136.1840 C   0  0  0  0  0  3  0  0  0  0  0  0
  189.5460  175.9090  137.2700 C   0  0  0  0  0  0  0  0  0  0  0  0
  191.2750  177.1250  140.8070 S   0  0  0  0  0  0  0  0  0  0  0  0
  188.7740  178.2510  140.7440 C   0  0  0  0  0  2  0  0  0  0  0  0
  191.7050  175.3210  138.2310 C   0  0  0  0  0  3  0  0  0  0  0  0
  190.5080  176.0430  138.3020 C   0  0  0  0  0  0  0  0  0  0  0  0
  191.9520  174.4800  137.1430 C   0  0  0  0  0  3  0  0  0  0  0  0
  189.0160  177.5500  139.4590 C   0  0  0  0  0  0  0  0  0  0  0  0
  188.0590  177.4210  138.4510 C   0  0  0  0  0  3  0  0  0  0  0  0
  191.2560  173.4650  134.9400 C   0  0  2  0  0  3  0  0  0  0  0  0
  190.4090  172.3570  134.9770 O   0  0  0  0  0  1  0  0  0  0  0  0
  192.7030  173.0090  134.9100 C   0  0  0  0  0  1  0  0  0  0  0  0
  1 14  1  0  0  0  0
  1  7  1  0  0  0  0
  4  7  2  0  0  0  0
  4  5  1  0  0  0  0
  5  8  2  0  0  0  0
  6  3  2  0  0  0  0
  6  8  1  0  0  0  0
  7  6  1  0  0  0  0
  9  2  1  0  0  0  0
 10  9  1  0  0  0  0
 11 10  2  0  0  0  0
 12  2  1  0  0  0  0
 12  3  1  0  0  0  0
 13 11  1  0  0  0  0
 13 14  1  0  0  0  0
 14 12  2  0  0  0  0
 15 10  1  0  0  0  0
 15 16  2  0  0  0  0
 17 15  2  0  0  0  0
 18  1  1  0  0  0  0
 19 31  1  0  0  0  0
 20 30  1  0  0  0  0
 20 25  1  0  0  0  0
 21 23  2  0  0  0  0
 21 29  1  0  0  0  0
 22 18  1  6  0  0  0
 23 24  1  0  0  0  0
 24 19  2  0  0  0  0
 24 28  1  0  0  0  0
 25 22  1  0  0  0  0
 26 22  1  0  0  0  0
 27 28  1  0  0  0  0
 28 20  2  0  0  0  0
 29 27  2  0  0  0  0
 30 26  1  0  0  0  0
 31 30  2  0  0  0  0
 32 34  1  1  0  0  0
 32 33  1  0  0  0  0
 32 21  1  0  0  0  0
M  END
>  <MODEL>
3

>  <REMARK>
 VINA RESULT:      -8.4      4.012      7.636
  Name = 
  4 active torsions:
  status: ('A' for Active; 'I' for Inactive)
    1  A    between atoms: N_1  and  C_9
    2  A    between atoms: N_3  and  C_25
    3  A    between atoms: C_7  and  C_11
    4  A    between atoms: C_8  and  C_9
                            x       y       z     vdW  Elec       q    Type
                         _______ _______ _______ _____ _____    ______ ____

>  <TORSDO>
F 4

$$$$
=
 OpenBabel10262423253D

 34 39  0  0  1  0  0  0  0  0999 V2000
  190.8040  175.4180  137.6020 N   0  0  0  0  0  0  0  0  0  0  0  0
  193.2600  173.8920  135.3260 C   0  0  0  0  0  2  0  0  0  0  0  0
  191.1740  174.7220  134.8990 N   0  0  0  0  0  0  0  0  0  0  0  0
  188.5440  175.9400  136.9020 N   0  0  0  0  0  0  0  0  0  0  0  0
  187.9540  175.8710  135.6780 C   0  0  0  0  0  3  0  0  0  0  0  0
  190.0040  175.2170  135.3390 C   0  0  0  0  0  0  0  0  0  0  0  0
  189.8020  175.5270  136.6940 C   0  0  0  0  0  0  0  0  0  0  0  0
  188.8220  175.4170  134.6740 C   0  0  0  0  0  3  0  0  0  0  0  0
  194.3690  173.3380  136.1530 C   0  0  0  0  0  2  0  0  0  0  0  0
  195.1500  174.4000  136.8370 C   0  0  0  0  0  0  0  0  0  0  0  0
  194.5560  175.2110  137.7100 C   0  0  0  0  0  3  0  0  0  0  0  0
  192.2080  174.5790  135.7820 C   0  0  0  0  0  0  0  0  0  0  0  0
  193.1080  175.3070  137.9650 C   0  0  0  0  0  2  0  0  0  0  0  0
  192.0610  175.0510  137.1490 C   0  0  0  0  0  0  0  0  0  0  0  0
  196.5750  174.4440  136.6710 N   0  0  0  0  0  0  0  0  0  0  0  0
  197.2550  175.6280  136.8440 O   0  0  0  0  0  0  0  0  0  0  0  0
  197.2160  173.4140  136.3750 O   0  0  0  0  0  0  0  0  0  0  0  0
  190.5370  175.7350  139.0150 C   0  0  0  0  0  2  0  0  0  0  0  0
  190.8890  177.3510  144.0720 C   0  0  0  0  0  3  0  0  0  0  0  0
  189.7100  177.8040  141.5780 C   0  0  0  0  0  0  0  0  0  0  0  0
  187.3190  177.5770  145.0340 C   0  0  0  0  0  0  0  0  0  0  0  0
  190.6990  177.2330  139.3310 C   0  0  1  0  0  3  0  0  0  0  0  0
  188.7070  177.4410  145.1260 C   0  0  0  0  0  3  0  0  0  0  0  0
  189.5000  177.5110  143.9780 C   0  0  0  0  0  0  0  0  0  0  0  0
  189.1250  177.9800  139.9010 S   0  0  0  0  0  0  0  0  0  0  0  0
  191.7830  177.5030  140.3810 C   0  0  0  0  0  2  0  0  0  0  0  0
  187.5030  177.8590  142.6270 C   0  0  0  0  0  3  0  0  0  0  0  0
  188.8940  177.7280  142.7150 C   0  0  0  0  0  0  0  0  0  0  0  0
  186.7190  177.7830  143.7810 C   0  0  0  0  0  3  0  0  0  0  0  0
  191.0730  177.6060  141.6800 C   0  0  0  0  0  0  0  0  0  0  0  0
  191.6810  177.3850  142.9170 C   0  0  0  0  0  3  0  0  0  0  0  0
  186.4950  177.5030  146.2790 C   0  0  2  0  0  3  0  0  0  0  0  0
  185.3850  178.3410  146.1780 O   0  0  0  0  0  1  0  0  0  0  0  0
  187.3200  177.8800  147.4950 C   0  0  0  0  0  1  0  0  0  0  0  0
  1 18  1  0  0  0  0
  2 12  1  0  0  0  0
  2  9  1  0  0  0  0
  3  6  2  0  0  0  0
  3 12  1  0  0  0  0
  5  4  1  0  0  0  0
  6  7  1  0  0  0  0
  7  4  2  0  0  0  0
  7  1  1  0  0  0  0
  8  6  1  0  0  0  0
  8  5  2  0  0  0  0
  9 10  1  0  0  0  0
 10 11  2  0  0  0  0
 11 13  1  0  0  0  0
 12 14  2  0  0  0  0
 14  1  1  0  0  0  0
 14 13  1  0  0  0  0
 15 10  1  0  0  0  0
 15 16  2  0  0  0  0
 17 15  2  0  0  0  0
 20 30  2  0  0  0  0
 20 28  1  0  0  0  0
 21 23  1  0  0  0  0
 21 32  1  0  0  0  0
 22 18  1  1  0  0  0
 22 25  1  0  0  0  0
 22 26  1  0  0  0  0
 24 19  1  0  0  0  0
 24 23  2  0  0  0  0
 25 20  1  0  0  0  0
 26 30  1  0  0  0  0
 27 28  2  0  0  0  0
 27 29  1  0  0  0  0
 28 24  1  0  0  0  0
 29 21  2  0  0  0  0
 30 31  1  0  0  0  0
 31 19  2  0  0  0  0
 32 34  1  1  0  0  0
 33 32  1  0  0  0  0
M  END
>  <MODEL>
4

>  <REMARK>
 VINA RESULT:      -8.4      5.211      8.911
  Name = 
  4 active torsions:
  status: ('A' for Active; 'I' for Inactive)
    1  A    between atoms: N_1  and  C_9
    2  A    between atoms: N_3  and  C_25
    3  A    between atoms: C_7  and  C_11
    4  A    between atoms: C_8  and  C_9
                            x       y       z     vdW  Elec       q    Type
                         _______ _______ _______ _____ _____    ______ ____

>  <TORSDO>
F 4

$$$$
=
 OpenBabel10262423253D

 34 39  0  0  1  0  0  0  0  0999 V2000
  186.8210  177.7280  143.9030 N   0  0  0  0  0  0  0  0  0  0  0  0
  188.6540  178.2800  147.0470 C   0  0  0  0  0  2  0  0  0  0  0  0
  186.4170  178.4290  146.6000 N   0  0  0  0  0  0  0  0  0  0  0  0
  184.4670  178.2510  143.6720 N   0  0  0  0  0  0  0  0  0  0  0  0
  183.5520  178.6610  144.5920 C   0  0  0  0  0  3  0  0  0  0  0  0
  185.4010  178.4300  145.7190 C   0  0  0  0  0  0  0  0  0  0  0  0
  185.6070  178.1200  144.3640 C   0  0  0  0  0  0  0  0  0  0  0  0
  184.0910  178.7950  145.8810 C   0  0  0  0  0  3  0  0  0  0  0  0
  190.1110  178.2520  146.7390 C   0  0  0  0  0  2  0  0  0  0  0  0
  190.5730  176.9090  146.3040 C   0  0  0  0  0  0  0  0  0  0  0  0
  190.0660  176.3490  145.2080 C   0  0  0  0  0  3  0  0  0  0  0  0
  187.6630  178.0560  146.1770 C   0  0  0  0  0  0  0  0  0  0  0  0
  188.9160  176.8410  144.4290 C   0  0  0  0  0  2  0  0  0  0  0  0
  187.8500  177.5760  144.8180 C   0  0  0  0  0  0  0  0  0  0  0  0
  191.6770  176.2910  146.9810 N   0  0  0  0  0  0  0  0  0  0  0  0
  192.3330  175.2270  146.4060 O   0  0  0  0  0  0  0  0  0  0  0  0
  192.0620  176.7120  148.0930 O   0  0  0  0  0  0  0  0  0  0  0  0
  186.9900  177.4330  142.4710 C   0  0  0  0  0  2  0  0  0  0  0  0
  188.7910  176.8710  137.4960 C   0  0  0  0  0  3  0  0  0  0  0  0
  189.1530  178.1530  139.9540 C   0  0  0  0  0  0  0  0  0  0  0  0
  192.3950  176.2390  138.0740 C   0  0  0  0  0  0  0  0  0  0  0  0
  187.3590  178.6780  141.6450 C   0  0  1  0  0  3  0  0  0  0  0  0
  191.1350  176.2510  137.4680 C   0  0  0  0  0  3  0  0  0  0  0  0
  190.0580  176.8820  138.0960 C   0  0  0  0  0  0  0  0  0  0  0  0
  189.1730  178.9250  141.5630 S   0  0  0  0  0  0  0  0  0  0  0  0
  186.8020  178.6280  140.2170 C   0  0  0  0  0  2  0  0  0  0  0  0
  191.5080  177.5010  139.9520 C   0  0  0  0  0  3  0  0  0  0  0  0
  190.2450  177.5190  139.3480 C   0  0  0  0  0  0  0  0  0  0  0  0
  192.5780  176.8640  139.3180 C   0  0  0  0  0  3  0  0  0  0  0  0
  187.9020  178.1020  139.3710 C   0  0  0  0  0  0  0  0  0  0  0  0
  187.7030  177.4720  138.1410 C   0  0  0  0  0  3  0  0  0  0  0  0
  193.5320  175.5620  137.3790 C   0  0  2  0  0  3  0  0  0  0  0  0
  194.3200  176.4970  136.7090 O   0  0  0  0  0  1  0  0  0  0  0  0
  193.0220  174.5190  136.4010 C   0  0  0  0  0  1  0  0  0  0  0  0
  1  7  1  0  0  0  0
  1 14  1  0  0  0  0
  4  7  2  0  0  0  0
  4  5  1  0  0  0  0
  5  8  2  0  0  0  0
  6  8  1  0  0  0  0
  6  3  2  0  0  0  0
  7  6  1  0  0  0  0
  9  2  1  0  0  0  0
 10  9  1  0  0  0  0
 10 15  1  0  0  0  0
 11 10  2  0  0  0  0
 12  3  1  0  0  0  0
 12  2  1  0  0  0  0
 13 14  1  0  0  0  0
 13 11  1  0  0  0  0
 14 12  2  0  0  0  0
 15 17  2  0  0  0  0
 16 15  2  0  0  0  0
 18  1  1  0  0  0  0
 19 24  2  0  0  0  0
 19 31  1  0  0  0  0
 20 25  1  0  0  0  0
 21 29  1  0  0  0  0
 22 18  1  6  0  0  0
 23 21  2  0  0  0  0
 23 24  1  0  0  0  0
 24 28  1  0  0  0  0
 25 22  1  0  0  0  0
 26 22  1  0  0  0  0
 28 27  1  0  0  0  0
 28 20  2  0  0  0  0
 29 27  2  0  0  0  0
 30 20  1  0  0  0  0
 30 26  1  0  0  0  0
 31 30  2  0  0  0  0
 32 34  1  6  0  0  0
 32 21  1  0  0  0  0
 33 32  1  0  0  0  0
M  END
>  <MODEL>
5

>  <REMARK>
 VINA RESULT:      -8.4      4.111      7.375
  Name = 
  4 active torsions:
  status: ('A' for Active; 'I' for Inactive)
    1  A    between atoms: N_1  and  C_9
    2  A    between atoms: N_3  and  C_25
    3  A    between atoms: C_7  and  C_11
    4  A    between atoms: C_8  and  C_9
                            x       y       z     vdW  Elec       q    Type
                         _______ _______ _______ _____ _____    ______ ____

>  <TORSDO>
F 4

$$$$
=
 OpenBabel10262423253D

 34 39  0  0  1  0  0  0  0  0999 V2000
  189.8050  175.8630  137.5360 N   0  0  0  0  0  0  0  0  0  0  0  0
  192.1760  174.4570  135.0970 C   0  0  0  0  0  2  0  0  0  0  0  0
  190.1350  175.4340  134.7730 N   0  0  0  0  0  0  0  0  0  0  0  0
  187.5740  176.5710  136.9100 N   0  0  0  0  0  0  0  0  0  0  0  0
  186.9800  176.6600  135.6890 C   0  0  0  0  0  3  0  0  0  0  0  0
  188.9920  175.9410  135.2690 C   0  0  0  0  0  0  0  0  0  0  0  0
  188.8090  176.1170  136.6520 C   0  0  0  0  0  0  0  0  0  0  0  0
  187.8220  176.2690  134.6370 C   0  0  0  0  0  3  0  0  0  0  0  0
  193.2550  173.7640  135.8540 C   0  0  0  0  0  2  0  0  0  0  0  0
  194.0910  174.7080  136.6400 C   0  0  0  0  0  0  0  0  0  0  0  0
  193.5410  175.4520  137.5970 C   0  0  0  0  0  3  0  0  0  0  0  0
  191.1610  175.1470  135.6290 C   0  0  0  0  0  0  0  0  0  0  0  0
  192.1010  175.5960  137.8700 C   0  0  0  0  0  2  0  0  0  0  0  0
  191.0410  175.4800  137.0390 C   0  0  0  0  0  0  0  0  0  0  0  0
  195.5170  174.6950  136.4700 N   0  0  0  0  0  0  0  0  0  0  0  0
  196.3410  175.0190  137.5220 O   0  0  0  0  0  0  0  0  0  0  0  0
  196.0260  174.3860  135.3720 O   0  0  0  0  0  0  0  0  0  0  0  0
  189.5570  176.0440  138.9760 C   0  0  0  0  0  2  0  0  0  0  0  0
  189.4070  177.1140  144.1860 C   0  0  0  0  0  3  0  0  0  0  0  0
  188.7900  178.0340  141.6190 C   0  0  0  0  0  0  0  0  0  0  0  0
  185.8660  178.0990  144.6440 C   0  0  0  0  0  0  0  0  0  0  0  0
  189.9900  177.4310  139.4860 C   0  0  1  0  0  3  0  0  0  0  0  0
  187.1550  177.6320  144.9190 C   0  0  0  0  0  3  0  0  0  0  0  0
  188.1240  177.6050  143.9120 C   0  0  0  0  0  0  0  0  0  0  0  0
  188.5470  178.4790  139.9080 S   0  0  0  0  0  0  0  0  0  0  0  0
  190.9160  177.3500  140.7050 C   0  0  0  0  0  2  0  0  0  0  0  0
  186.5070  178.5240  142.3390 C   0  0  0  0  0  3  0  0  0  0  0  0
  187.8000  178.0610  142.6100 C   0  0  0  0  0  0  0  0  0  0  0  0
  185.5440  178.5430  143.3520 C   0  0  0  0  0  3  0  0  0  0  0  0
  190.0400  177.5120  141.8920 C   0  0  0  0  0  0  0  0  0  0  0  0
  190.3680  177.0540  143.1690 C   0  0  0  0  0  3  0  0  0  0  0  0
  184.8500  178.1210  145.7400 C   0  0  2  0  0  3  0  0  0  0  0  0
  183.8010  178.9790  145.4140 O   0  0  0  0  0  1  0  0  0  0  0  0
  185.4810  178.5490  147.0520 C   0  0  0  0  0  1  0  0  0  0  0  0
  1 18  1  0  0  0  0
  2 12  1  0  0  0  0
  2  9  1  0  0  0  0
  3  6  2  0  0  0  0
  3 12  1  0  0  0  0
  5  4  1  0  0  0  0
  6  7  1  0  0  0  0
  7  4  2  0  0  0  0
  7  1  1  0  0  0  0
  8  6  1  0  0  0  0
  8  5  2  0  0  0  0
  9 10  1  0  0  0  0
 10 11  2  0  0  0  0
 11 13  1  0  0  0  0
 12 14  2  0  0  0  0
 14  1  1  0  0  0  0
 14 13  1  0  0  0  0
 15 10  1  0  0  0  0
 15 16  2  0  0  0  0
 17 15  2  0  0  0  0
 20 30  2  0  0  0  0
 20 28  1  0  0  0  0
 21 23  1  0  0  0  0
 21 32  1  0  0  0  0
 22 18  1  1  0  0  0
 22 25  1  0  0  0  0
 22 26  1  0  0  0  0
 24 19  1  0  0  0  0
 24 23  2  0  0  0  0
 25 20  1  0  0  0  0
 26 30  1  0  0  0  0
 27 28  2  0  0  0  0
 27 29  1  0  0  0  0
 28 24  1  0  0  0  0
 29 21  2  0  0  0  0
 30 31  1  0  0  0  0
 31 19  2  0  0  0  0
 32 34  1  1  0  0  0
 33 32  1  0  0  0  0
M  END
>  <MODEL>
6

>  <REMARK>
 VINA RESULT:      -8.3      4.623      8.239
  Name = 
  4 active torsions:
  status: ('A' for Active; 'I' for Inactive)
    1  A    between atoms: N_1  and  C_9
    2  A    between atoms: N_3  and  C_25
    3  A    between atoms: C_7  and  C_11
    4  A    between atoms: C_8  and  C_9
                            x       y       z     vdW  Elec       q    Type
                         _______ _______ _______ _____ _____    ______ ____

>  <TORSDO>
F 4

$$$$
=
 OpenBabel10262423253D

 34 39  0  0  1  0  0  0  0  0999 V2000
  188.9570  177.3630  142.6230 N   0  0  0  0  0  0  0  0  0  0  0  0
  191.0330  176.8650  145.6210 C   0  0  0  0  0  2  0  0  0  0  0  0
  191.6450  177.2680  143.4560 N   0  0  0  0  0  0  0  0  0  0  0  0
  189.9080  177.4810  140.3980 N   0  0  0  0  0  0  0  0  0  0  0  0
  191.2050  177.5030  139.9850 C   0  0  0  0  0  3  0  0  0  0  0  0
  191.3210  177.4000  142.1570 C   0  0  0  0  0  0  0  0  0  0  0  0
  189.9810  177.4060  141.7340 C   0  0  0  0  0  0  0  0  0  0  0  0
  192.1210  177.4450  141.0460 C   0  0  0  0  0  3  0  0  0  0  0  0
  190.1390  176.4350  146.7320 C   0  0  0  0  0  2  0  0  0  0  0  0
  189.1930  177.5040  147.1440 C   0  0  0  0  0  0  0  0  0  0  0  0
  188.3100  177.9880  146.2730 C   0  0  0  0  0  3  0  0  0  0  0  0
  190.6460  177.2040  144.3870 C   0  0  0  0  0  0  0  0  0  0  0  0
  188.2680  177.7100  144.8270 C   0  0  0  0  0  2  0  0  0  0  0  0
  189.2620  177.3760  143.9750 C   0  0  0  0  0  0  0  0  0  0  0  0
  189.1310  177.8960  148.5230 N   0  0  0  0  0  0  0  0  0  0  0  0
  187.9310  177.8770  149.1940 O   0  0  0  0  0  0  0  0  0  0  0  0
  190.1620  178.2530  149.1320 O   0  0  0  0  0  0  0  0  0  0  0  0
  187.5710  177.3520  142.1290 C   0  0  0  0  0  2  0  0  0  0  0  0
  182.6700  179.0020  143.3860 C   0  0  0  0  0  3  0  0  0  0  0  0
  184.5870  178.7830  141.3630 C   0  0  0  0  0  0  0  0  0  0  0  0
  180.6490  177.4600  140.6920 C   0  0  0  0  0  0  0  0  0  0  0  0
  187.0890  178.7410  141.6720 C   0  0  1  0  0  3  0  0  0  0  0  0
  181.0040  178.0240  141.9210 C   0  0  0  0  0  3  0  0  0  0  0  0
  182.3140  178.4580  142.1450 C   0  0  0  0  0  0  0  0  0  0  0  0
  185.9590  178.6270  140.2330 S   0  0  0  0  0  0  0  0  0  0  0  0
  186.3880  179.5220  142.7900 C   0  0  0  0  0  2  0  0  0  0  0  0
  182.9240  177.7630  139.8920 C   0  0  0  0  0  3  0  0  0  0  0  0
  183.2830  178.3330  141.1190 C   0  0  0  0  0  0  0  0  0  0  0  0
  181.6130  177.3280  139.6790 C   0  0  0  0  0  3  0  0  0  0  0  0
  184.9360  179.2810  142.6040 C   0  0  0  0  0  0  0  0  0  0  0  0
  183.9910  179.4040  143.6240 C   0  0  0  0  0  3  0  0  0  0  0  0
  179.2410  177.0080  140.4770 C   0  0  2  0  0  3  0  0  0  0  0  0
  178.9310  175.9560  141.3380 O   0  0  0  0  0  1  0  0  0  0  0  0
  179.0260  176.5800  139.0370 C   0  0  0  0  0  1  0  0  0  0  0  0
  1 14  1  0  0  0  0
  2  9  1  0  0  0  0
  3 12  1  0  0  0  0
  4  7  2  0  0  0  0
  5  4  1  0  0  0  0
  5  8  2  0  0  0  0
  6  3  2  0  0  0  0
  7  6  1  0  0  0  0
  7  1  1  0  0  0  0
  8  6  1  0  0  0  0
  9 10  1  0  0  0  0
 10 15  1  0  0  0  0
 11 10  2  0  0  0  0
 12  2  1  0  0  0  0
 13 11  1  0  0  0  0
 14 12  2  0  0  0  0
 14 13  1  0  0  0  0
 15 17  2  0  0  0  0
 15 16  2  0  0  0  0
 18  1  1  0  0  0  0
 19 31  1  0  0  0  0
 20 30  1  0  0  0  0
 21 23  2  0  0  0  0
 22 18  1  1  0  0  0
 22 26  1  0  0  0  0
 23 24  1  0  0  0  0
 24 19  2  0  0  0  0
 25 20  1  0  0  0  0
 25 22  1  0  0  0  0
 27 28  1  0  0  0  0
 28 20  2  0  0  0  0
 28 24  1  0  0  0  0
 29 27  2  0  0  0  0
 29 21  1  0  0  0  0
 30 26  1  0  0  0  0
 30 31  2  0  0  0  0
 32 34  1  6  0  0  0
 32 21  1  0  0  0  0
 32 33  1  0  0  0  0
M  END
>  <MODEL>
7

>  <REMARK>
 VINA RESULT:      -8.3      2.785      4.530
  Name = 
  4 active torsions:
  status: ('A' for Active; 'I' for Inactive)
    1  A    between atoms: N_1  and  C_9
    2  A    between atoms: N_3  and  C_25
    3  A    between atoms: C_7  and  C_11
    4  A    between atoms: C_8  and  C_9
                            x       y       z     vdW  Elec       q    Type
                         _______ _______ _______ _____ _____    ______ ____

>  <TORSDO>
F 4

$$$$
=
 OpenBabel10262423253D

 34 39  0  0  1  0  0  0  0  0999 V2000
  187.6600  177.4590  144.2320 N   0  0  0  0  0  0  0  0  0  0  0  0
  189.0640  178.1400  147.5660 C   0  0  0  0  0  2  0  0  0  0  0  0
  186.9050  178.2600  146.8240 N   0  0  0  0  0  0  0  0  0  0  0  0
  185.3570  177.9600  143.6730 N   0  0  0  0  0  0  0  0  0  0  0  0
  184.3290  178.4000  144.4490 C   0  0  0  0  0  3  0  0  0  0  0  0
  186.0140  178.2220  145.8170 C   0  0  0  0  0  0  0  0  0  0  0  0
  186.3960  177.8620  144.5140 C   0  0  0  0  0  0  0  0  0  0  0  0
  184.6940  178.5860  145.7910 C   0  0  0  0  0  3  0  0  0  0  0  0
  190.5490  178.1080  147.4530 C   0  0  0  0  0  2  0  0  0  0  0  0
  191.0640  176.7520  147.1350 C   0  0  0  0  0  0  0  0  0  0  0  0
  190.7060  176.1480  146.0050 C   0  0  0  0  0  3  0  0  0  0  0  0
  188.1960  177.8780  146.5830 C   0  0  0  0  0  0  0  0  0  0  0  0
  189.6690  176.6040  145.0630 C   0  0  0  0  0  2  0  0  0  0  0  0
  188.5610  177.3470  145.2800 C   0  0  0  0  0  0  0  0  0  0  0  0
  192.0700  176.1660  147.9750 N   0  0  0  0  0  0  0  0  0  0  0  0
  192.7900  176.9540  148.8440 O   0  0  0  0  0  0  0  0  0  0  0  0
  192.3020  174.9390  147.9340 O   0  0  0  0  0  0  0  0  0  0  0  0
  188.0170  177.1110  142.8470 C   0  0  0  0  0  2  0  0  0  0  0  0
  187.6990  177.4140  137.5450 C   0  0  0  0  0  3  0  0  0  0  0  0
  189.3810  177.5720  139.7720 C   0  0  0  0  0  0  0  0  0  0  0  0
  190.4320  175.1410  136.5020 C   0  0  0  0  0  0  0  0  0  0  0  0
  188.7150  178.2630  142.1030 C   0  0  1  0  0  3  0  0  0  0  0  0
  189.2480  175.8850  136.4760 C   0  0  0  0  0  3  0  0  0  0  0  0
  188.8980  176.6880  137.5650 C   0  0  0  0  0  0  0  0  0  0  0  0
  190.2740  177.7120  141.3110 S   0  0  0  0  0  0  0  0  0  0  0  0
  187.8200  178.9070  141.0380 C   0  0  0  0  0  2  0  0  0  0  0  0
  190.9300  176.0030  138.7190 C   0  0  0  0  0  3  0  0  0  0  0  0
  189.7490  176.7530  138.6960 C   0  0  0  0  0  0  0  0  0  0  0  0
  191.2700  175.2000  137.6260 C   0  0  0  0  0  3  0  0  0  0  0  0
  188.1790  178.2530  139.7560 C   0  0  0  0  0  0  0  0  0  0  0  0
  187.3300  178.1910  138.6500 C   0  0  0  0  0  3  0  0  0  0  0  0
  190.7860  174.2940  135.3220 C   0  0  2  0  0  3  0  0  0  0  0  0
  189.6370  173.9380  134.6160 O   0  0  0  0  0  1  0  0  0  0  0  0
  191.5330  173.0470  135.7580 C   0  0  0  0  0  1  0  0  0  0  0  0
  1  7  1  0  0  0  0
  1 14  1  0  0  0  0
  4  5  1  0  0  0  0
  4  7  2  0  0  0  0
  5  8  2  0  0  0  0
  6  3  2  0  0  0  0
  7  6  1  0  0  0  0
  8  6  1  0  0  0  0
  9  2  1  0  0  0  0
 10  9  1  0  0  0  0
 10 15  1  0  0  0  0
 11 10  2  0  0  0  0
 12  3  1  0  0  0  0
 12  2  1  0  0  0  0
 13 14  1  0  0  0  0
 13 11  1  0  0  0  0
 14 12  2  0  0  0  0
 15 16  2  0  0  0  0
 17 15  2  0  0  0  0
 18  1  1  0  0  0  0
 19 24  2  0  0  0  0
 19 31  1  0  0  0  0
 20 25  1  0  0  0  0
 21 29  1  0  0  0  0
 22 18  1  6  0  0  0
 23 21  2  0  0  0  0
 23 24  1  0  0  0  0
 24 28  1  0  0  0  0
 25 22  1  0  0  0  0
 26 22  1  0  0  0  0
 28 27  1  0  0  0  0
 28 20  2  0  0  0  0
 29 27  2  0  0  0  0
 30 20  1  0  0  0  0
 30 26  1  0  0  0  0
 31 30  2  0  0  0  0
 32 34  1  1  0  0  0
 32 21  1  0  0  0  0
 33 32  1  0  0  0  0
M  END
>  <MODEL>
8

>  <REMARK>
 VINA RESULT:      -8.3      4.034      6.913
  Name = 
  4 active torsions:
  status: ('A' for Active; 'I' for Inactive)
    1  A    between atoms: N_1  and  C_9
    2  A    between atoms: N_3  and  C_25
    3  A    between atoms: C_7  and  C_11
    4  A    between atoms: C_8  and  C_9
                            x       y       z     vdW  Elec       q    Type
                         _______ _______ _______ _____ _____    ______ ____

>  <TORSDO>
F 4

$$$$
=
 OpenBabel10262423253D

 34 39  0  0  1  0  0  0  0  0999 V2000
  181.8900  177.5150  140.4350 N   0  0  0  0  0  0  0  0  0  0  0  0
  180.4470  175.6080  137.6370 C   0  0  0  0  0  2  0  0  0  0  0  0
  179.7400  177.5470  138.6180 N   0  0  0  0  0  0  0  0  0  0  0  0
  180.7410  179.3910  141.4480 N   0  0  0  0  0  0  0  0  0  0  0  0
  179.5870  180.0220  141.0970 C   0  0  0  0  0  3  0  0  0  0  0  0
  179.8390  178.4620  139.5990 C   0  0  0  0  0  0  0  0  0  0  0  0
  180.8890  178.4240  140.5320 C   0  0  0  0  0  0  0  0  0  0  0  0
  178.9850  179.4720  139.9560 C   0  0  0  0  0  3  0  0  0  0  0  0
  181.1840  174.3170  137.5340 C   0  0  0  0  0  2  0  0  0  0  0  0
  182.6000  174.5040  137.1270 C   0  0  0  0  0  0  0  0  0  0  0  0
  183.4280  175.2140  137.8910 C   0  0  0  0  0  3  0  0  0  0  0  0
  180.7180  176.6000  138.4920 C   0  0  0  0  0  0  0  0  0  0  0  0
  183.0540  176.0290  139.0590 C   0  0  0  0  0  2  0  0  0  0  0  0
  181.8900  176.6540  139.3490 C   0  0  0  0  0  0  0  0  0  0  0  0
  183.1080  173.7850  135.9930 N   0  0  0  0  0  0  0  0  0  0  0  0
  182.2400  173.2250  135.0850 O   0  0  0  0  0  0  0  0  0  0  0  0
  184.3380  173.6630  135.8120 O   0  0  0  0  0  0  0  0  0  0  0  0
  182.9570  177.5030  141.4490 C   0  0  0  0  0  2  0  0  0  0  0  0
  188.0470  177.8160  142.9670 C   0  0  0  0  0  3  0  0  0  0  0  0
  185.4540  178.7850  143.3610 C   0  0  0  0  0  0  0  0  0  0  0  0
  187.7500  177.5020  146.6460 C   0  0  0  0  0  0  0  0  0  0  0  0
  183.6170  178.8810  141.6380 C   0  0  1  0  0  3  0  0  0  0  0  0
  188.2830  177.4600  145.3540 C   0  0  0  0  0  3  0  0  0  0  0  0
  187.5170  177.8810  144.2630 C   0  0  0  0  0  0  0  0  0  0  0  0
  183.7560  179.3290  143.4100 S   0  0  0  0  0  0  0  0  0  0  0  0
  185.0070  178.9640  140.9970 C   0  0  0  0  0  2  0  0  0  0  0  0
  185.6690  178.3950  145.7640 C   0  0  0  0  0  3  0  0  0  0  0  0
  186.2000  178.3590  144.4680 C   0  0  0  0  0  0  0  0  0  0  0  0
  186.4410  177.9680  146.8480 C   0  0  0  0  0  3  0  0  0  0  0  0
  185.9740  178.6790  142.0850 C   0  0  0  0  0  0  0  0  0  0  0  0
  187.2680  178.2040  141.8700 C   0  0  0  0  0  3  0  0  0  0  0  0
  188.5910  177.0500  147.7960 C   0  0  2  0  0  3  0  0  0  0  0  0
  188.6050  178.0190  148.7990 O   0  0  0  0  0  1  0  0  0  0  0  0
  190.0090  176.7520  147.3440 C   0  0  0  0  0  1  0  0  0  0  0  0
  1  7  1  0  0  0  0
  1 18  1  0  0  0  0
  2 12  1  0  0  0  0
  3  6  2  0  0  0  0
  5  4  1  0  0  0  0
  6  8  1  0  0  0  0
  6  7  1  0  0  0  0
  7  4  2  0  0  0  0
  8  5  2  0  0  0  0
  9  2  1  0  0  0  0
 10  9  1  0  0  0  0
 10 11  2  0  0  0  0
 11 13  1  0  0  0  0
 12  3  1  0  0  0  0
 12 14  2  0  0  0  0
 13 14  1  0  0  0  0
 14  1  1  0  0  0  0
 15 10  1  0  0  0  0
 16 15  2  0  0  0  0
 17 15  2  0  0  0  0
 19 24  1  0  0  0  0
 20 25  1  0  0  0  0
 20 28  1  0  0  0  0
 21 29  1  0  0  0  0
 21 32  1  0  0  0  0
 22 18  1  1  0  0  0
 22 25  1  0  0  0  0
 23 21  2  0  0  0  0
 24 28  2  0  0  0  0
 24 23  1  0  0  0  0
 26 22  1  0  0  0  0
 26 30  1  0  0  0  0
 27 29  2  0  0  0  0
 28 27  1  0  0  0  0
 30 20  2  0  0  0  0
 31 30  1  0  0  0  0
 31 19  2  0  0  0  0
 32 34  1  6  0  0  0
 32 33  1  0  0  0  0
M  END
>  <MODEL>
9

>  <REMARK>
 VINA RESULT:      -7.9      4.082      9.040
  Name = 
  4 active torsions:
  status: ('A' for Active; 'I' for Inactive)
    1  A    between atoms: N_1  and  C_9
    2  A    between atoms: N_3  and  C_25
    3  A    between atoms: C_7  and  C_11
    4  A    between atoms: C_8  and  C_9
                            x       y       z     vdW  Elec       q    Type
                         _______ _______ _______ _____ _____    ______ ____

>  <TORSDO>
F 4

$$$$
