=
 OpenBabel10262421343D

 32 35  0  0  1  0  0  0  0  0999 V2000
  186.3410  178.9050  141.8120 C   0  0  1  0  0  3  0  0  0  0  0  0
  182.1780  178.8710  144.4760 C   0  0  0  0  0  3  0  0  0  0  0  0
  181.4550  178.9930  143.2880 C   0  0  0  0  0  3  0  0  0  0  0  0
  188.4460  178.1500  143.0200 C   0  0  2  0  0  3  0  0  0  0  0  0
  186.1640  177.1730  143.6620 C   0  0  0  0  0  2  0  0  0  0  0  0
  188.0110  175.7690  143.1030 O   0  0  0  0  0  1  0  0  0  0  0  0
  183.5670  178.7310  144.4360 C   0  0  0  0  0  3  0  0  0  0  0  0
  185.7400  178.5710  143.1970 C   0  0  2  0  0  3  0  0  0  0  0  0
  184.2420  178.7060  143.2080 C   0  0  0  0  0  0  0  0  0  0  0  0
  184.2440  178.8710  140.6750 C   0  0  1  0  0  3  0  0  0  0  0  0
  187.6890  176.9920  143.6990 C   0  0  1  0  0  3  0  0  0  0  0  0
  182.1190  178.9730  142.0590 C   0  0  0  0  0  3  0  0  0  0  0  0
  183.5120  178.8080  142.0030 C   0  0  0  0  0  0  0  0  0  0  0  0
  187.8160  178.4980  141.6750 C   0  0  0  0  0  2  0  0  0  0  0  0
  185.5690  178.2540  140.7560 N   0  0  0  0  0  2  0  0  0  0  0  0
  182.6010  176.2540  138.4510 C   0  0  0  0  0  0  0  0  0  0  0  0
  181.9920  177.0560  137.4830 C   0  0  0  0  0  3  0  0  0  0  0  0
  182.8420  179.0420  138.5830 C   0  0  0  0  0  0  0  0  0  0  0  0
  181.5080  179.2150  136.6060 F   0  0  0  0  0  0  0  0  0  0  0  0
  182.1070  178.4470  137.5500 C   0  0  0  0  0  0  0  0  0  0  0  0
  183.3350  176.8440  139.4840 C   0  0  0  0  0  3  0  0  0  0  0  0
  182.4980  174.9060  138.3770 F   0  0  0  0  0  0  0  0  0  0  0  0
  182.9460  180.4280  138.6440 O   0  0  0  0  0  1  0  0  0  0  0  0
  183.4620  178.2390  139.5540 C   0  0  0  0  0  0  0  0  0  0  0  0
  189.9280  177.8420  142.8570 C   0  0  0  0  0  2  0  0  0  0  0  0
  191.3940  179.7090  144.1760 S   0  0  0  0  0  1  0  0  0  0  0  0
  190.6590  178.0320  144.1850 C   0  0  2  0  0  3  0  0  0  0  0  0
  191.3170  175.8430  143.5550 C   0  0  0  0  0  1  0  0  0  0  0  0
  191.6900  177.0010  144.3620 N   0  0  0  0  0  0  0  0  0  0  0  0
  191.6460  176.5320  145.7440 C   0  0  0  0  0  2  0  0  0  0  0  0
  190.2820  176.8110  146.3520 C   0  0  0  0  0  2  0  0  0  0  0  0
  190.4200  177.1760  147.6930 O   0  0  0  0  0  1  0  0  0  0  0  0
  1 14  1  1  0  0  0
  1  8  1  0  0  0  0
  3  2  2  0  0  0  0
  4 25  1  6  0  0  0
  4 11  1  0  0  0  0
  5 11  1  0  0  0  0
  7  2  1  0  0  0  0
  8  9  1  0  0  0  0
  8  5  1  6  0  0  0
  9  7  2  0  0  0  0
 10 24  1  6  0  0  0
 10 15  1  0  0  0  0
 10 13  1  0  0  0  0
 11  6  1  6  0  0  0
 12  3  1  0  0  0  0
 13 12  2  0  0  0  0
 13  9  1  0  0  0  0
 14  4  1  0  0  0  0
 15  1  1  0  0  0  0
 16 21  1  0  0  0  0
 17 20  1  0  0  0  0
 17 16  2  0  0  0  0
 18 23  1  0  0  0  0
 18 24  1  0  0  0  0
 19 20  1  0  0  0  0
 20 18  2  0  0  0  0
 21 24  2  0  0  0  0
 22 16  1  0  0  0  0
 25 27  1  0  0  0  0
 27 26  1  6  0  0  0
 27 29  1  0  0  0  0
 28 29  1  0  0  0  0
 29 30  1  0  0  0  0
 30 31  1  0  0  0  0
 31 32  1  0  0  0  0
M  END
>  <MODEL>
1

>  <REMARK>
 VINA RESULT:      -7.5      0.000      0.000
  Name = 
  6 active torsions:
  status: ('A' for Active; 'I' for Inactive)
    1  A    between atoms: C_1  and  C_10
    2  A    between atoms: C_8  and  C_23
    3  A    between atoms: C_10  and  N_24
    4  A    between atoms: C_16  and  C_32
    5  A    between atoms: C_19  and  C_23
    6  A    between atoms: C_19  and  N_24
                            x       y       z     vdW  Elec       q    Type
                         _______ _______ _______ _____ _____    ______ ____

>  <TORSDO>
F 6

$$$$
=
 OpenBabel10262421343D

 32 35  0  0  1  0  0  0  0  0999 V2000
  185.9070  177.4550  144.0040 C   0  0  1  0  0  3  0  0  0  0  0  0
  187.9460  177.7070  148.4990 C   0  0  0  0  0  3  0  0  0  0  0  0
  189.1720  177.3610  147.9270 C   0  0  0  0  0  3  0  0  0  0  0  0
  183.6010  178.4970  143.7640 C   0  0  2  0  0  3  0  0  0  0  0  0
  185.2820  179.4490  145.4490 C   0  0  0  0  0  2  0  0  0  0  0  0
  184.2250  180.8360  143.8200 O   0  0  0  0  0  1  0  0  0  0  0  0
  186.8290  177.9070  147.6860 C   0  0  0  0  0  3  0  0  0  0  0  0
  185.7060  177.9760  145.4470 C   0  0  2  0  0  3  0  0  0  0  0  0
  186.9310  177.7700  146.2950 C   0  0  0  0  0  0  0  0  0  0  0  0
  188.2700  177.2030  144.2140 C   0  0  1  0  0  3  0  0  0  0  0  0
  184.0150  179.7090  144.6210 C   0  0  1  0  0  3  0  0  0  0  0  0
  189.2820  177.2190  146.5420 C   0  0  0  0  0  3  0  0  0  0  0  0
  188.1730  177.4420  145.7100 C   0  0  0  0  0  0  0  0  0  0  0  0
  184.8040  177.9080  143.0350 C   0  0  0  0  0  2  0  0  0  0  0  0
  187.2010  177.8900  143.4860 N   0  0  0  0  0  2  0  0  0  0  0  0
  191.6630  178.8880  143.8310 C   0  0  0  0  0  0  0  0  0  0  0  0
  192.1010  178.3550  142.6170 C   0  0  0  0  0  3  0  0  0  0  0  0
  190.0530  177.0700  142.4330 C   0  0  0  0  0  0  0  0  0  0  0  0
  191.7400  176.9300  140.7440 F   0  0  0  0  0  0  0  0  0  0  0  0
  191.3020  177.4450  141.9200 C   0  0  0  0  0  0  0  0  0  0  0  0
  190.4170  178.5170  144.3460 C   0  0  0  0  0  3  0  0  0  0  0  0
  192.4340  179.7790  144.4980 F   0  0  0  0  0  0  0  0  0  0  0  0
  189.2670  176.1580  141.7360 O   0  0  0  0  0  1  0  0  0  0  0  0
  189.6050  177.6090  143.6500 C   0  0  0  0  0  0  0  0  0  0  0  0
  182.4930  178.8470  142.7800 C   0  0  0  0  0  2  0  0  0  0  0  0
  180.2460  177.8490  143.9300 S   0  0  0  0  0  1  0  0  0  0  0  0
  181.2500  179.3260  143.5280 C   0  0  2  0  0  3  0  0  0  0  0  0
  179.0860  180.1990  143.1100 C   0  0  0  0  0  1  0  0  0  0  0  0
  180.4880  180.2800  142.7120 N   0  0  0  0  0  0  0  0  0  0  0  0
  180.5170  179.8300  141.3230 C   0  0  0  0  0  2  0  0  0  0  0  0
  179.8190  180.8380  140.4270 C   0  0  0  0  0  2  0  0  0  0  0  0
  180.6360  181.1600  139.3400 O   0  0  0  0  0  1  0  0  0  0  0  0
  1 14  1  6  0  0  0
  1  8  1  0  0  0  0
  3  2  1  0  0  0  0
  4 25  1  6  0  0  0
  4 11  1  0  0  0  0
  7  2  2  0  0  0  0
  8  5  1  6  0  0  0
  8  9  1  0  0  0  0
  9  7  1  0  0  0  0
 10 24  1  6  0  0  0
 10 13  1  0  0  0  0
 11  6  1  6  0  0  0
 11  5  1  0  0  0  0
 12  3  2  0  0  0  0
 13  9  2  0  0  0  0
 13 12  1  0  0  0  0
 14  4  1  0  0  0  0
 15  1  1  0  0  0  0
 15 10  1  0  0  0  0
 16 21  1  0  0  0  0
 16 22  1  0  0  0  0
 17 16  2  0  0  0  0
 18 24  1  0  0  0  0
 19 20  1  0  0  0  0
 20 18  2  0  0  0  0
 20 17  1  0  0  0  0
 23 18  1  0  0  0  0
 24 21  2  0  0  0  0
 25 27  1  0  0  0  0
 27 26  1  6  0  0  0
 29 28  1  0  0  0  0
 29 27  1  0  0  0  0
 30 29  1  0  0  0  0
 31 30  1  0  0  0  0
 32 31  1  0  0  0  0
M  END
>  <MODEL>
2

>  <REMARK>
 VINA RESULT:      -7.3      4.264      8.724
  Name = 
  6 active torsions:
  status: ('A' for Active; 'I' for Inactive)
    1  A    between atoms: C_1  and  C_10
    2  A    between atoms: C_8  and  C_23
    3  A    between atoms: C_10  and  N_24
    4  A    between atoms: C_16  and  C_32
    5  A    between atoms: C_19  and  C_23
    6  A    between atoms: C_19  and  N_24
                            x       y       z     vdW  Elec       q    Type
                         _______ _______ _______ _____ _____    ______ ____

>  <TORSDO>
F 6

$$$$
=
 OpenBabel10262421343D

 32 35  0  0  1  0  0  0  0  0999 V2000
  186.0250  177.4150  143.8320 C   0  0  1  0  0  3  0  0  0  0  0  0
  187.8720  177.6170  148.4120 C   0  0  0  0  0  3  0  0  0  0  0  0
  189.1230  177.2860  147.8870 C   0  0  0  0  0  3  0  0  0  0  0  0
  183.7250  178.4470  143.5090 C   0  0  2  0  0  3  0  0  0  0  0  0
  185.3280  179.3850  145.2760 C   0  0  0  0  0  2  0  0  0  0  0  0
  184.3310  180.7880  143.6220 O   0  0  0  0  0  1  0  0  0  0  0  0
  186.7890  177.8220  147.5550 C   0  0  0  0  0  3  0  0  0  0  0  0
  185.7600  177.9150  145.2720 C   0  0  2  0  0  3  0  0  0  0  0  0
  186.9500  177.7040  146.1680 C   0  0  0  0  0  0  0  0  0  0  0  0
  188.3790  177.1730  144.1380 C   0  0  1  0  0  3  0  0  0  0  0  0
  184.0950  179.6490  144.3980 C   0  0  1  0  0  3  0  0  0  0  0  0
  189.2920  177.1630  146.5060 C   0  0  0  0  0  3  0  0  0  0  0  0
  188.2180  177.3910  145.6310 C   0  0  0  0  0  0  0  0  0  0  0  0
  184.9610  177.8740  142.8230 C   0  0  0  0  0  2  0  0  0  0  0  0
  187.3380  177.8640  143.3750 N   0  0  0  0  0  2  0  0  0  0  0  0
  191.7320  178.9560  143.8690 C   0  0  0  0  0  0  0  0  0  0  0  0
  192.2660  178.3690  142.7200 C   0  0  0  0  0  3  0  0  0  0  0  0
  190.2790  177.0010  142.4860 C   0  0  0  0  0  0  0  0  0  0  0  0
  192.0760  176.8250  140.9190 F   0  0  0  0  0  0  0  0  0  0  0  0
  191.5450  177.3910  142.0310 C   0  0  0  0  0  0  0  0  0  0  0  0
  190.4680  178.5700  144.3260 C   0  0  0  0  0  3  0  0  0  0  0  0
  192.4280  179.9130  144.5280 F   0  0  0  0  0  0  0  0  0  0  0  0
  189.5710  176.0220  141.7960 O   0  0  0  0  0  1  0  0  0  0  0  0
  189.7340  177.5940  143.6360 C   0  0  0  0  0  0  0  0  0  0  0  0
  182.6570  178.8040  142.4840 C   0  0  0  0  0  2  0  0  0  0  0  0
  183.4380  179.3370  139.9390 S   0  0  0  0  0  1  0  0  0  0  0  0
  182.9250  178.0790  141.1660 C   0  0  2  0  0  3  0  0  0  0  0  0
  182.0770  176.5900  139.5270 C   0  0  0  0  0  1  0  0  0  0  0  0
  181.7250  177.3590  140.7170 N   0  0  0  0  0  0  0  0  0  0  0  0
  180.7400  178.3360  140.2620 C   0  0  0  0  0  2  0  0  0  0  0  0
  179.3600  177.9760  140.7850 C   0  0  0  0  0  2  0  0  0  0  0  0
  179.4720  177.2230  141.9550 O   0  0  0  0  0  1  0  0  0  0  0  0
  1 14  1  6  0  0  0
  1  8  1  0  0  0  0
  3  2  1  0  0  0  0
  4 25  1  6  0  0  0
  4 11  1  0  0  0  0
  7  2  2  0  0  0  0
  8  5  1  6  0  0  0
  8  9  1  0  0  0  0
  9  7  1  0  0  0  0
 10 24  1  6  0  0  0
 10 13  1  0  0  0  0
 11  6  1  6  0  0  0
 11  5  1  0  0  0  0
 12  3  2  0  0  0  0
 13  9  2  0  0  0  0
 13 12  1  0  0  0  0
 14  4  1  0  0  0  0
 15  1  1  0  0  0  0
 15 10  1  0  0  0  0
 16 21  1  0  0  0  0
 16 22  1  0  0  0  0
 17 16  2  0  0  0  0
 18 24  1  0  0  0  0
 19 20  1  0  0  0  0
 20 18  2  0  0  0  0
 20 17  1  0  0  0  0
 23 18  1  0  0  0  0
 24 21  2  0  0  0  0
 27 26  1  6  0  0  0
 27 25  1  0  0  0  0
 28 29  1  0  0  0  0
 29 27  1  0  0  0  0
 30 29  1  0  0  0  0
 30 31  1  0  0  0  0
 31 32  1  0  0  0  0
M  END
>  <MODEL>
3

>  <REMARK>
 VINA RESULT:      -7.1      4.029      8.396
  Name = 
  6 active torsions:
  status: ('A' for Active; 'I' for Inactive)
    1  A    between atoms: C_1  and  C_10
    2  A    between atoms: C_8  and  C_23
    3  A    between atoms: C_10  and  N_24
    4  A    between atoms: C_16  and  C_32
    5  A    between atoms: C_19  and  C_23
    6  A    between atoms: C_19  and  N_24
                            x       y       z     vdW  Elec       q    Type
                         _______ _______ _______ _____ _____    ______ ____

>  <TORSDO>
F 6

$$$$
=
 OpenBabel10262421343D

 32 35  0  0  1  0  0  0  0  0999 V2000
  184.0020  179.2460  139.8830 C   0  0  1  0  0  3  0  0  0  0  0  0
  188.5870  178.0090  138.5160 C   0  0  0  0  0  3  0  0  0  0  0  0
  189.0010  178.2160  139.8330 C   0  0  0  0  0  3  0  0  0  0  0  0
  182.1510  178.6620  138.2410 C   0  0  2  0  0  3  0  0  0  0  0  0
  184.2550  177.2040  138.3930 C   0  0  0  0  0  2  0  0  0  0  0  0
  182.0690  176.2670  138.5870 O   0  0  0  0  0  1  0  0  0  0  0  0
  187.2360  178.1220  138.1840 C   0  0  0  0  0  3  0  0  0  0  0  0
  184.8420  178.5680  138.7760 C   0  0  2  0  0  3  0  0  0  0  0  0
  186.2880  178.4370  139.1680 C   0  0  0  0  0  0  0  0  0  0  0  0
  185.6920  179.0550  141.5560 C   0  0  1  0  0  3  0  0  0  0  0  0
  182.7850  177.2880  137.9540 C   0  0  1  0  0  3  0  0  0  0  0  0
  188.0650  178.5340  140.8200 C   0  0  0  0  0  3  0  0  0  0  0  0
  186.6990  178.6260  140.5050 C   0  0  0  0  0  0  0  0  0  0  0  0
  182.4870  179.1330  139.6530 C   0  0  0  0  0  2  0  0  0  0  0  0
  184.3280  178.6730  141.1870 N   0  0  0  0  0  2  0  0  0  0  0  0
  187.4370  177.1740  144.3690 C   0  0  0  0  0  0  0  0  0  0  0  0
  186.6350  177.5060  145.4630 C   0  0  0  0  0  3  0  0  0  0  0  0
  185.2160  178.8460  144.0260 C   0  0  0  0  0  0  0  0  0  0  0  0
  184.7610  178.6610  146.3660 F   0  0  0  0  0  0  0  0  0  0  0  0
  185.5300  178.3430  145.2950 C   0  0  0  0  0  0  0  0  0  0  0  0
  187.1280  177.6740  143.1010 C   0  0  0  0  0  3  0  0  0  0  0  0
  188.5010  176.3520  144.5330 F   0  0  0  0  0  0  0  0  0  0  0  0
  184.1170  179.6840  143.8700 O   0  0  0  0  0  1  0  0  0  0  0  0
  186.0150  178.5090  142.9210 C   0  0  0  0  0  0  0  0  0  0  0  0
  180.6450  178.6520  138.0220 C   0  0  0  0  0  2  0  0  0  0  0  0
  178.9310  177.5390  139.8090 S   0  0  0  0  0  1  0  0  0  0  0  0
  179.9170  179.0020  139.3190 C   0  0  2  0  0  3  0  0  0  0  0  0
  179.2670  180.6800  137.7760 C   0  0  0  0  0  1  0  0  0  0  0  0
  179.0610  180.1810  139.1320 N   0  0  0  0  0  0  0  0  0  0  0  0
  179.5420  181.2460  140.0080 C   0  0  0  0  0  2  0  0  0  0  0  0
  179.0070  181.0530  141.4160 C   0  0  0  0  0  2  0  0  0  0  0  0
  180.0540  180.7530  142.2900 O   0  0  0  0  0  1  0  0  0  0  0  0
  1 14  1  6  0  0  0
  1 15  1  0  0  0  0
  2  3  1  0  0  0  0
  3 12  2  0  0  0  0
  4 25  1  1  0  0  0
  4 14  1  0  0  0  0
  7  2  2  0  0  0  0
  7  9  1  0  0  0  0
  8  5  1  1  0  0  0
  8  9  1  0  0  0  0
  8  1  1  0  0  0  0
  9 13  2  0  0  0  0
 10 24  1  1  0  0  0
 11  4  1  0  0  0  0
 11  5  1  0  0  0  0
 11  6  1  1  0  0  0
 13 12  1  0  0  0  0
 13 10  1  0  0  0  0
 15 10  1  0  0  0  0
 16 22  1  0  0  0  0
 16 17  1  0  0  0  0
 18 20  1  0  0  0  0
 20 17  2  0  0  0  0
 20 19  1  0  0  0  0
 21 16  2  0  0  0  0
 23 18  1  0  0  0  0
 24 21  1  0  0  0  0
 24 18  2  0  0  0  0
 25 27  1  0  0  0  0
 27 26  1  6  0  0  0
 28 29  1  0  0  0  0
 29 27  1  0  0  0  0
 29 30  1  0  0  0  0
 30 31  1  0  0  0  0
 31 32  1  0  0  0  0
M  END
>  <MODEL>
4

>  <REMARK>
 VINA RESULT:      -6.5      4.544      8.665
  Name = 
  6 active torsions:
  status: ('A' for Active; 'I' for Inactive)
    1  A    between atoms: C_1  and  C_10
    2  A    between atoms: C_8  and  C_23
    3  A    between atoms: C_10  and  N_24
    4  A    between atoms: C_16  and  C_32
    5  A    between atoms: C_19  and  C_23
    6  A    between atoms: C_19  and  N_24
                            x       y       z     vdW  Elec       q    Type
                         _______ _______ _______ _____ _____    ______ ____

>  <TORSDO>
F 6

$$$$
=
 OpenBabel10262421343D

 32 35  0  0  1  0  0  0  0  0999 V2000
  183.8950  179.3870  139.8680 C   0  0  1  0  0  3  0  0  0  0  0  0
  188.4130  177.9190  138.5020 C   0  0  0  0  0  3  0  0  0  0  0  0
  188.8360  178.1020  139.8190 C   0  0  0  0  0  3  0  0  0  0  0  0
  182.0190  178.9020  138.2240 C   0  0  2  0  0  3  0  0  0  0  0  0
  184.0450  177.3380  138.3730 C   0  0  0  0  0  2  0  0  0  0  0  0
  181.8130  176.5140  138.5640 O   0  0  0  0  0  1  0  0  0  0  0  0
  187.0690  178.1020  138.1690 C   0  0  0  0  0  3  0  0  0  0  0  0
  184.7010  178.6690  138.7600 C   0  0  2  0  0  3  0  0  0  0  0  0
  186.1380  178.4630  139.1520 C   0  0  0  0  0  0  0  0  0  0  0  0
  185.5720  179.1050  141.5420 C   0  0  1  0  0  3  0  0  0  0  0  0
  182.5820  177.4980  137.9340 C   0  0  1  0  0  3  0  0  0  0  0  0
  187.9160  178.4650  140.8060 C   0  0  0  0  0  3  0  0  0  0  0  0
  186.5570  178.6280  140.4910 C   0  0  0  0  0  0  0  0  0  0  0  0
  182.3770  179.3520  139.6370 C   0  0  0  0  0  2  0  0  0  0  0  0
  184.1900  178.7950  141.1710 N   0  0  0  0  0  2  0  0  0  0  0  0
  187.2620  177.1940  144.3680 C   0  0  0  0  0  0  0  0  0  0  0  0
  186.4300  177.5030  145.4470 C   0  0  0  0  0  3  0  0  0  0  0  0
  185.0370  178.8550  143.9960 C   0  0  0  0  0  0  0  0  0  0  0  0
  184.5250  178.6300  146.3200 F   0  0  0  0  0  0  0  0  0  0  0  0
  185.3230  178.3340  145.2640 C   0  0  0  0  0  0  0  0  0  0  0  0
  186.9800  177.7110  143.1000 C   0  0  0  0  0  3  0  0  0  0  0  0
  188.3280  176.3780  144.5450 F   0  0  0  0  0  0  0  0  0  0  0  0
  183.9350  179.6870  143.8250 O   0  0  0  0  0  1  0  0  0  0  0  0
  185.8660  178.5410  142.9060 C   0  0  0  0  0  0  0  0  0  0  0  0
  180.5140  178.9690  138.0030 C   0  0  0  0  0  2  0  0  0  0  0  0
  180.8050  179.8350  135.4460 S   0  0  0  0  0  1  0  0  0  0  0  0
  180.1600  180.1700  137.1270 C   0  0  2  0  0  3  0  0  0  0  0  0
  179.8090  181.9250  138.6810 C   0  0  0  0  0  1  0  0  0  0  0  0
  180.7340  181.4040  137.6800 N   0  0  0  0  0  0  0  0  0  0  0  0
  180.7650  182.4140  136.6260 C   0  0  0  0  0  2  0  0  0  0  0  0
  180.6740  183.8060  137.2280 C   0  0  0  0  0  2  0  0  0  0  0  0
  181.9300  184.4160  137.2180 O   0  0  0  0  0  1  0  0  0  0  0  0
  1 14  1  6  0  0  0
  1 15  1  0  0  0  0
  2  3  1  0  0  0  0
  3 12  2  0  0  0  0
  4 25  1  1  0  0  0
  4 14  1  0  0  0  0
  7  2  2  0  0  0  0
  7  9  1  0  0  0  0
  8  5  1  1  0  0  0
  8  9  1  0  0  0  0
  8  1  1  0  0  0  0
  9 13  2  0  0  0  0
 10 24  1  1  0  0  0
 11  4  1  0  0  0  0
 11  5  1  0  0  0  0
 11  6  1  1  0  0  0
 13 12  1  0  0  0  0
 13 10  1  0  0  0  0
 15 10  1  0  0  0  0
 16 22  1  0  0  0  0
 16 17  1  0  0  0  0
 18 20  1  0  0  0  0
 20 17  2  0  0  0  0
 20 19  1  0  0  0  0
 21 16  2  0  0  0  0
 23 18  1  0  0  0  0
 24 21  1  0  0  0  0
 24 18  2  0  0  0  0
 27 26  1  6  0  0  0
 27 29  1  0  0  0  0
 27 25  1  0  0  0  0
 29 28  1  0  0  0  0
 30 31  1  0  0  0  0
 30 29  1  0  0  0  0
 32 31  1  0  0  0  0
M  END
>  <MODEL>
5

>  <REMARK>
 VINA RESULT:      -6.4      4.596      8.984
  Name = 
  6 active torsions:
  status: ('A' for Active; 'I' for Inactive)
    1  A    between atoms: C_1  and  C_10
    2  A    between atoms: C_8  and  C_23
    3  A    between atoms: C_10  and  N_24
    4  A    between atoms: C_16  and  C_32
    5  A    between atoms: C_19  and  C_23
    6  A    between atoms: C_19  and  N_24
                            x       y       z     vdW  Elec       q    Type
                         _______ _______ _______ _____ _____    ______ ____

>  <TORSDO>
F 6

$$$$
=
 OpenBabel10262421343D

 32 35  0  0  1  0  0  0  0  0999 V2000
  186.5040  179.0130  141.7770 C   0  0  1  0  0  3  0  0  0  0  0  0
  182.5380  178.8240  144.7180 C   0  0  0  0  0  3  0  0  0  0  0  0
  181.7320  178.9730  143.5880 C   0  0  0  0  0  3  0  0  0  0  0  0
  188.6990  178.2540  142.8110 C   0  0  2  0  0  3  0  0  0  0  0  0
  186.4810  177.2200  143.5760 C   0  0  0  0  0  2  0  0  0  0  0  0
  188.3050  175.8660  142.8450 O   0  0  0  0  0  1  0  0  0  0  0  0
  183.9220  178.7090  144.5780 C   0  0  0  0  0  3  0  0  0  0  0  0
  186.0060  178.6240  143.1880 C   0  0  2  0  0  3  0  0  0  0  0  0
  184.5100  178.7340  143.3060 C   0  0  0  0  0  0  0  0  0  0  0  0
  184.3340  178.9810  140.7860 C   0  0  1  0  0  3  0  0  0  0  0  0
  188.0070  177.0630  143.5020 C   0  0  1  0  0  3  0  0  0  0  0  0
  182.3090  179.0030  142.3160 C   0  0  0  0  0  3  0  0  0  0  0  0
  183.6980  178.8620  142.1580 C   0  0  0  0  0  0  0  0  0  0  0  0
  187.9720  178.6350  141.5250 C   0  0  0  0  0  2  0  0  0  0  0  0
  185.6710  178.3840  140.7550 N   0  0  0  0  0  2  0  0  0  0  0  0
  182.4560  176.4220  138.6840 C   0  0  0  0  0  0  0  0  0  0  0  0
  181.8910  177.2340  137.6980 C   0  0  0  0  0  3  0  0  0  0  0  0
  182.9100  179.1860  138.7130 C   0  0  0  0  0  0  0  0  0  0  0  0
  181.5560  179.3920  136.7530 F   0  0  0  0  0  0  0  0  0  0  0  0
  182.1130  178.6140  137.7130 C   0  0  0  0  0  0  0  0  0  0  0  0
  183.2520  176.9900  139.6830 C   0  0  0  0  0  3  0  0  0  0  0  0
  182.2490  175.0840  138.6600 F   0  0  0  0  0  0  0  0  0  0  0  0
  183.1200  180.5610  138.7230 O   0  0  0  0  0  1  0  0  0  0  0  0
  183.4860  178.3720  139.7020 C   0  0  0  0  0  0  0  0  0  0  0  0
  190.1710  177.9770  142.5360 C   0  0  0  0  0  2  0  0  0  0  0  0
  191.3310  175.7360  143.5360 S   0  0  0  0  0  1  0  0  0  0  0  0
  190.3750  176.5060  142.1770 C   0  0  2  0  0  3  0  0  0  0  0  0
  192.0000  177.5030  140.7670 C   0  0  0  0  0  1  0  0  0  0  0  0
  191.0790  176.3780  140.8940 N   0  0  0  0  0  0  0  0  0  0  0  0
  190.1110  176.5540  139.8150 C   0  0  0  0  0  2  0  0  0  0  0  0
  190.7620  176.2700  138.4720 C   0  0  0  0  0  2  0  0  0  0  0  0
  190.4590  174.9710  138.0570 O   0  0  0  0  0  1  0  0  0  0  0  0
  1 14  1  6  0  0  0
  1  8  1  0  0  0  0
  3  2  2  0  0  0  0
  4 25  1  6  0  0  0
  4 11  1  0  0  0  0
  7  2  1  0  0  0  0
  8  9  1  0  0  0  0
  8  5  1  6  0  0  0
  9  7  2  0  0  0  0
 10 24  1  6  0  0  0
 10 13  1  0  0  0  0
 11  6  1  6  0  0  0
 11  5  1  0  0  0  0
 12  3  1  0  0  0  0
 13 12  2  0  0  0  0
 13  9  1  0  0  0  0
 14  4  1  0  0  0  0
 15 10  1  0  0  0  0
 15  1  1  0  0  0  0
 16 21  1  0  0  0  0
 17 20  1  0  0  0  0
 17 16  2  0  0  0  0
 18 23  1  0  0  0  0
 18 24  1  0  0  0  0
 19 20  1  0  0  0  0
 20 18  2  0  0  0  0
 21 24  2  0  0  0  0
 22 16  1  0  0  0  0
 27 25  1  0  0  0  0
 27 26  1  1  0  0  0
 28 29  1  0  0  0  0
 29 27  1  0  0  0  0
 30 29  1  0  0  0  0
 31 30  1  0  0  0  0
 32 31  1  0  0  0  0
M  END
>  <MODEL>
6

>  <REMARK>
 VINA RESULT:      -6.1      1.837      2.776
  Name = 
  6 active torsions:
  status: ('A' for Active; 'I' for Inactive)
    1  A    between atoms: C_1  and  C_10
    2  A    between atoms: C_8  and  C_23
    3  A    between atoms: C_10  and  N_24
    4  A    between atoms: C_16  and  C_32
    5  A    between atoms: C_19  and  C_23
    6  A    between atoms: C_19  and  N_24
                            x       y       z     vdW  Elec       q    Type
                         _______ _______ _______ _____ _____    ______ ____

>  <TORSDO>
F 6

$$$$
=
 OpenBabel10262421343D

 32 35  0  0  1  0  0  0  0  0999 V2000
  188.0410  176.7170  142.5630 C   0  0  1  0  0  3  0  0  0  0  0  0
  184.0950  178.9850  144.4880 C   0  0  0  0  0  3  0  0  0  0  0  0
  184.5480  178.6250  145.7590 C   0  0  0  0  0  3  0  0  0  0  0  0
  188.5520  177.2390  140.1280 C   0  0  2  0  0  3  0  0  0  0  0  0
  187.4470  179.0030  141.6260 C   0  0  0  0  0  2  0  0  0  0  0  0
  189.4310  179.4800  140.3890 O   0  0  0  0  0  1  0  0  0  0  0  0
  184.8670  178.6900  143.3630 C   0  0  0  0  0  3  0  0  0  0  0  0
  186.9030  177.7220  142.2680 C   0  0  2  0  0  3  0  0  0  0  0  0
  186.1010  178.0400  143.5010 C   0  0  0  0  0  0  0  0  0  0  0  0
  187.8650  176.9110  144.9340 C   0  0  1  0  0  3  0  0  0  0  0  0
  188.2490  178.7340  140.3440 C   0  0  1  0  0  3  0  0  0  0  0  0
  185.7750  177.9740  145.9060 C   0  0  0  0  0  3  0  0  0  0  0  0
  186.5740  177.6940  144.7850 C   0  0  0  0  0  0  0  0  0  0  0  0
  189.0560  176.5940  141.4160 C   0  0  0  0  0  2  0  0  0  0  0  0
  188.7490  177.0990  143.7820 N   0  0  0  0  0  2  0  0  0  0  0  0
  188.5980  178.0980  148.4770 C   0  0  0  0  0  0  0  0  0  0  0  0
  189.9740  177.8780  148.5630 C   0  0  0  0  0  3  0  0  0  0  0  0
  189.9890  177.0280  146.2930 C   0  0  0  0  0  0  0  0  0  0  0  0
  192.0050  177.1280  147.5740 F   0  0  0  0  0  0  0  0  0  0  0  0
  190.6690  177.3410  147.4770 C   0  0  0  0  0  0  0  0  0  0  0  0
  187.9150  177.7870  147.2970 C   0  0  0  0  0  3  0  0  0  0  0  0
  187.9290  178.6310  149.5270 F   0  0  0  0  0  0  0  0  0  0  0  0
  190.6880  176.4870  145.2190 O   0  0  0  0  0  1  0  0  0  0  0  0
  188.6060  177.2540  146.1990 C   0  0  0  0  0  0  0  0  0  0  0  0
  189.5400  177.0160  138.9920 C   0  0  0  0  0  2  0  0  0  0  0  0
  188.9820  178.5790  136.8430 S   0  0  0  0  0  1  0  0  0  0  0  0
  188.8040  176.9470  137.6550 C   0  0  2  0  0  3  0  0  0  0  0  0
  187.1220  175.3510  137.1630 C   0  0  0  0  0  1  0  0  0  0  0  0
  187.3900  176.6070  137.8580 N   0  0  0  0  0  0  0  0  0  0  0  0
  186.5700  177.6030  137.1750 C   0  0  0  0  0  2  0  0  0  0  0  0
  185.2810  177.8410  137.9430 C   0  0  0  0  0  2  0  0  0  0  0  0
  185.3250  179.0830  138.5810 O   0  0  0  0  0  1  0  0  0  0  0  0
  1 14  1  6  0  0  0
  1 15  1  0  0  0  0
  2  3  1  0  0  0  0
  3 12  2  0  0  0  0
  4 25  1  6  0  0  0
  4 11  1  0  0  0  0
  4 14  1  0  0  0  0
  7  9  1  0  0  0  0
  7  2  2  0  0  0  0
  8  5  1  1  0  0  0
  8  1  1  0  0  0  0
  8  9  1  0  0  0  0
  9 13  2  0  0  0  0
 10 24  1  1  0  0  0
 11  6  1  1  0  0  0
 11  5  1  0  0  0  0
 13 10  1  0  0  0  0
 13 12  1  0  0  0  0
 15 10  1  0  0  0  0
 16 17  1  0  0  0  0
 16 22  1  0  0  0  0
 18 20  1  0  0  0  0
 20 19  1  0  0  0  0
 20 17  2  0  0  0  0
 21 16  2  0  0  0  0
 23 18  1  0  0  0  0
 24 18  2  0  0  0  0
 24 21  1  0  0  0  0
 27 26  1  1  0  0  0
 27 29  1  0  0  0  0
 27 25  1  0  0  0  0
 28 29  1  0  0  0  0
 30 29  1  0  0  0  0
 30 31  1  0  0  0  0
 31 32  1  0  0  0  0
M  END
>  <MODEL>
7

>  <REMARK>
 VINA RESULT:      -6.0      4.346      7.996
  Name = 
  6 active torsions:
  status: ('A' for Active; 'I' for Inactive)
    1  A    between atoms: C_1  and  C_10
    2  A    between atoms: C_8  and  C_23
    3  A    between atoms: C_10  and  N_24
    4  A    between atoms: C_16  and  C_32
    5  A    between atoms: C_19  and  C_23
    6  A    between atoms: C_19  and  N_24
                            x       y       z     vdW  Elec       q    Type
                         _______ _______ _______ _____ _____    ______ ____

>  <TORSDO>
F 6

$$$$
=
 OpenBabel10262421343D

 32 35  0  0  1  0  0  0  0  0999 V2000
  190.9490  177.1090  139.8470 C   0  0  1  0  0  3  0  0  0  0  0  0
  187.8090  178.9570  136.5080 C   0  0  0  0  0  3  0  0  0  0  0  0
  188.4210  178.1610  135.5390 C   0  0  0  0  0  3  0  0  0  0  0  0
  190.3520  177.5120  142.2850 C   0  0  2  0  0  3  0  0  0  0  0  0
  188.5050  177.2730  140.5220 C   0  0  0  0  0  2  0  0  0  0  0  0
  188.5240  175.9380  142.5000 O   0  0  0  0  0  1  0  0  0  0  0  0
  188.2030  178.8570  137.8440 C   0  0  0  0  0  3  0  0  0  0  0  0
  189.6210  177.8810  139.6650 C   0  0  2  0  0  3  0  0  0  0  0  0
  189.2070  177.9550  138.2210 C   0  0  0  0  0  0  0  0  0  0  0  0
  190.9640  176.2190  137.6340 C   0  0  1  0  0  3  0  0  0  0  0  0
  188.8670  177.2030  142.0130 C   0  0  1  0  0  3  0  0  0  0  0  0
  189.4260  177.2620  135.9040 C   0  0  0  0  0  3  0  0  0  0  0  0
  189.8150  177.1320  137.2480 C   0  0  0  0  0  0  0  0  0  0  0  0
  191.2520  176.7570  141.3120 C   0  0  0  0  0  2  0  0  0  0  0  0
  190.9320  175.8800  139.0580 N   0  0  0  0  0  2  0  0  0  0  0  0
  189.9000  172.9440  136.0100 C   0  0  0  0  0  0  0  0  0  0  0  0
  191.0440  172.6120  135.2810 C   0  0  0  0  0  3  0  0  0  0  0  0
  192.1420  174.6220  136.0750 C   0  0  0  0  0  0  0  0  0  0  0  0
  193.2660  173.1190  134.5940 F   0  0  0  0  0  0  0  0  0  0  0  0
  192.1620  173.4500  135.3090 C   0  0  0  0  0  0  0  0  0  0  0  0
  189.8770  174.1130  136.7760 C   0  0  0  0  0  3  0  0  0  0  0  0
  188.8220  172.1250  135.9900 F   0  0  0  0  0  0  0  0  0  0  0  0
  193.2590  175.4520  136.0920 O   0  0  0  0  0  1  0  0  0  0  0  0
  190.9970  174.9560  136.8160 C   0  0  0  0  0  0  0  0  0  0  0  0
  190.7430  177.2090  143.7250 C   0  0  0  0  0  2  0  0  0  0  0  0
  191.2980  179.7570  144.4780 S   0  0  0  0  0  1  0  0  0  0  0  0
  190.2110  178.2950  144.6580 C   0  0  2  0  0  3  0  0  0  0  0  0
  191.2120  176.7900  146.1930 C   0  0  0  0  0  1  0  0  0  0  0  0
  190.1870  177.8190  146.0480 N   0  0  0  0  0  0  0  0  0  0  0  0
  188.9210  177.1310  146.2820 C   0  0  0  0  0  2  0  0  0  0  0  0
  187.7710  177.9300  145.6940 C   0  0  0  0  0  2  0  0  0  0  0  0
  186.8240  177.0690  145.1360 O   0  0  0  0  0  1  0  0  0  0  0  0
  1 14  1  1  0  0  0
  2  7  1  0  0  0  0
  3 12  1  0  0  0  0
  3  2  2  0  0  0  0
  4 25  1  1  0  0  0
  5 11  1  0  0  0  0
  7  9  2  0  0  0  0
  8  1  1  0  0  0  0
  8  5  1  1  0  0  0
  9  8  1  0  0  0  0
 10 24  1  6  0  0  0
 10 15  1  0  0  0  0
 11  4  1  0  0  0  0
 11  6  1  6  0  0  0
 12 13  2  0  0  0  0
 13 10  1  0  0  0  0
 13  9  1  0  0  0  0
 14  4  1  0  0  0  0
 15  1  1  0  0  0  0
 16 21  1  0  0  0  0
 17 20  1  0  0  0  0
 17 16  2  0  0  0  0
 18 23  1  0  0  0  0
 18 24  1  0  0  0  0
 19 20  1  0  0  0  0
 20 18  2  0  0  0  0
 21 24  2  0  0  0  0
 22 16  1  0  0  0  0
 25 27  1  0  0  0  0
 27 26  1  1  0  0  0
 27 29  1  0  0  0  0
 29 28  1  0  0  0  0
 29 30  1  0  0  0  0
 31 30  1  0  0  0  0
 32 31  1  0  0  0  0
M  END
>  <MODEL>
8

>  <REMARK>
 VINA RESULT:      -6.0      5.321      7.178
  Name = 
  6 active torsions:
  status: ('A' for Active; 'I' for Inactive)
    1  A    between atoms: C_1  and  C_10
    2  A    between atoms: C_8  and  C_23
    3  A    between atoms: C_10  and  N_24
    4  A    between atoms: C_16  and  C_32
    5  A    between atoms: C_19  and  C_23
    6  A    between atoms: C_19  and  N_24
                            x       y       z     vdW  Elec       q    Type
                         _______ _______ _______ _____ _____    ______ ____

>  <TORSDO>
F 6

$$$$
=
 OpenBabel10262421343D

 32 35  0  0  1  0  0  0  0  0999 V2000
  190.8420  177.7470  140.6590 C   0  0  1  0  0  3  0  0  0  0  0  0
  187.2800  178.2520  137.2700 C   0  0  0  0  0  3  0  0  0  0  0  0
  188.1770  177.7910  136.3050 C   0  0  0  0  0  3  0  0  0  0  0  0
  190.0920  177.8210  143.0870 C   0  0  2  0  0  3  0  0  0  0  0  0
  188.5270  176.9000  141.2760 C   0  0  0  0  0  2  0  0  0  0  0  0
  189.0480  175.6420  143.2360 O   0  0  0  0  0  1  0  0  0  0  0  0
  187.6580  178.2890  138.6140 C   0  0  0  0  0  3  0  0  0  0  0  0
  189.3190  177.9250  140.4550 C   0  0  2  0  0  3  0  0  0  0  0  0
  188.9350  177.8580  139.0030 C   0  0  0  0  0  0  0  0  0  0  0  0
  191.2500  176.9880  138.4350 C   0  0  1  0  0  3  0  0  0  0  0  0
  188.8610  176.9480  142.7750 C   0  0  1  0  0  3  0  0  0  0  0  0
  189.4520  177.3630  136.6830 C   0  0  0  0  0  3  0  0  0  0  0  0
  189.8380  177.3700  138.0330 C   0  0  0  0  0  0  0  0  0  0  0  0
  191.2360  177.5140  142.1260 C   0  0  0  0  0  2  0  0  0  0  0  0
  191.3330  176.6330  139.8530 N   0  0  0  0  0  2  0  0  0  0  0  0
  191.5040  173.7150  136.5060 C   0  0  0  0  0  0  0  0  0  0  0  0
  192.8170  173.7740  136.0330 C   0  0  0  0  0  3  0  0  0  0  0  0
  193.1190  175.9210  137.1160 C   0  0  0  0  0  0  0  0  0  0  0  0
  194.8940  174.9220  135.8640 F   0  0  0  0  0  0  0  0  0  0  0  0
  193.6230  174.8750  136.3330 C   0  0  0  0  0  0  0  0  0  0  0  0
  190.9980  174.7570  137.2890 C   0  0  0  0  0  3  0  0  0  0  0  0
  190.7290  172.6400  136.2250 F   0  0  0  0  0  0  0  0  0  0  0  0
  193.9280  177.0160  137.4040 O   0  0  0  0  0  1  0  0  0  0  0  0
  191.8020  175.8630  137.6010 C   0  0  0  0  0  0  0  0  0  0  0  0
  190.5470  177.6690  144.5320 C   0  0  0  0  0  2  0  0  0  0  0  0
  188.1230  178.2110  145.6280 S   0  0  0  0  0  1  0  0  0  0  0  0
  189.4590  176.9880  145.3610 C   0  0  2  0  0  3  0  0  0  0  0  0
  189.4370  177.3270  147.7080 C   0  0  0  0  0  1  0  0  0  0  0  0
  190.0040  176.5100  146.6390 N   0  0  0  0  0  0  0  0  0  0  0  0
  191.4370  176.7880  146.6660 C   0  0  0  0  0  2  0  0  0  0  0  0
  192.1850  175.6360  147.3150 C   0  0  0  0  0  2  0  0  0  0  0  0
  192.9640  176.1060  148.3740 O   0  0  0  0  0  1  0  0  0  0  0  0
  1 14  1  1  0  0  0
  2  7  1  0  0  0  0
  3 12  1  0  0  0  0
  3  2  2  0  0  0  0
  4 25  1  1  0  0  0
  5 11  1  0  0  0  0
  7  9  2  0  0  0  0
  8  1  1  0  0  0  0
  8  5  1  1  0  0  0
  9  8  1  0  0  0  0
 10 24  1  6  0  0  0
 10 15  1  0  0  0  0
 11  4  1  0  0  0  0
 11  6  1  6  0  0  0
 12 13  2  0  0  0  0
 13 10  1  0  0  0  0
 13  9  1  0  0  0  0
 14  4  1  0  0  0  0
 15  1  1  0  0  0  0
 16 21  1  0  0  0  0
 17 20  1  0  0  0  0
 17 16  2  0  0  0  0
 18 23  1  0  0  0  0
 18 24  1  0  0  0  0
 19 20  1  0  0  0  0
 20 18  2  0  0  0  0
 21 24  2  0  0  0  0
 22 16  1  0  0  0  0
 25 27  1  0  0  0  0
 27 26  1  1  0  0  0
 27 29  1  0  0  0  0
 29 30  1  0  0  0  0
 29 28  1  0  0  0  0
 30 31  1  0  0  0  0
 31 32  1  0  0  0  0
M  END
>  <MODEL>
9

>  <REMARK>
 VINA RESULT:      -5.9      5.059      7.257
  Name = 
  6 active torsions:
  status: ('A' for Active; 'I' for Inactive)
    1  A    between atoms: C_1  and  C_10
    2  A    between atoms: C_8  and  C_23
    3  A    between atoms: C_10  and  N_24
    4  A    between atoms: C_16  and  C_32
    5  A    between atoms: C_19  and  C_23
    6  A    between atoms: C_19  and  N_24
                            x       y       z     vdW  Elec       q    Type
                         _______ _______ _______ _____ _____    ______ ____

>  <TORSDO>
F 6

$$$$
