=
 OpenBabel10262420343D

 55 60  0  0  1  0  0  0  0  0999 V2000
  192.2140  176.6550  138.4720 C   0  0  0  0  0  2  0  0  0  0  0  0
  187.8350  179.1230  136.8520 C   0  0  0  0  0  2  0  0  0  0  0  0
  187.6720  177.2870  134.5940 C   0  0  0  0  0  2  0  0  0  0  0  0
  189.4440  175.8720  135.4270 C   0  0  0  0  0  2  0  0  0  0  0  0
  191.6890  176.7800  140.9490 C   0  0  0  0  0  2  0  0  0  0  0  0
  189.0620  177.7330  140.4330 C   0  0  1  0  0  3  0  0  0  0  0  0
  191.9030  175.1870  138.2170 C   0  0  0  0  0  2  0  0  0  0  0  0
  189.8440  177.1070  139.2800 C   0  0  0  0  0  2  0  0  0  0  0  0
  187.8400  179.4400  138.3430 C   0  0  0  0  0  2  0  0  0  0  0  0
  188.9820  178.1950  136.4720 C   0  0  0  0  0  2  0  0  0  0  0  0
  188.5470  177.0630  135.5750 C   0  0  0  0  0  0  0  0  0  0  0  0
  190.7280  177.4310  141.9460 C   0  0  0  0  0  2  0  0  0  0  0  0
  186.9540  178.4750  139.1500 C   0  0  2  0  0  0  0  0  0  0  0  0
  191.3350  177.2810  139.5530 C   0  0  2  0  0  3  0  0  0  0  0  0
  189.8200  175.2790  136.7800 C   0  0  2  0  0  3  0  0  0  0  0  0
  191.3340  175.0300  136.8120 C   0  0  2  0  0  3  0  0  0  0  0  0
  186.9620  178.8300  140.5130 O   0  0  0  0  0  0  0  0  0  0  0  0
  187.5620  177.5960  140.2000 C   0  0  2  0  0  3  0  0  0  0  0  0
  189.3990  177.0840  141.6380 O   0  0  0  0  0  0  0  0  0  0  0  0
  189.6050  172.8250  136.8300 O   0  0  0  0  0  0  0  0  0  0  0  0
  189.4870  172.5870  135.4460 C   0  0  0  0  0  2  0  0  0  0  0  0
  187.5230  174.1440  136.5730 C   0  0  2  0  0  3  0  0  0  0  0  0
  187.0440  172.7910  136.0580 C   0  0  0  0  0  2  0  0  0  0  0  0
  188.0560  172.1870  135.0830 C   0  0  0  0  0  2  0  0  0  0  0  0
  188.9580  174.0490  137.1420 C   0  0  2  0  0  3  0  0  0  0  0  0
  186.6500  174.5970  137.5620 O   0  0  0  0  0  1  0  0  0  0  0  0
  185.2500  176.8180  138.8280 F   0  0  0  0  0  0  0  0  0  0  0  0
  185.5040  178.1760  138.6980 C   0  0  0  0  0  0  0  0  0  0  0  0
  185.3550  178.5050  137.3610 F   0  0  0  0  0  0  0  0  0  0  0  0
  184.4920  178.9800  139.5500 C   0  0  1  0  0  3  0  0  0  0  0  0
  184.3210  180.2680  139.0260 O   0  0  0  0  0  1  0  0  0  0  0  0
  183.1200  178.2980  139.7950 C   0  0  2  0  0  0  0  0  0  0  0  0
  183.3050  176.9170  139.9070 O   0  0  0  0  0  1  0  0  0  0  0  0
  182.4790  177.7670  137.5310 F   0  0  0  0  0  0  0  0  0  0  0  0
  182.1650  178.5560  138.6250 C   0  0  0  0  0  2  0  0  0  0  0  0
  182.4850  178.8190  141.1050 C   0  0  2  0  0  3  0  0  0  0  0  0
  183.5100  178.9730  142.2350 C   0  0  2  0  0  3  0  0  0  0  0  0
  183.7100  177.7700  142.8880 F   0  0  0  0  0  0  0  0  0  0  0  0
  183.0720  179.9330  143.1470 O   0  0  0  0  0  1  0  0  0  0  0  0
  181.4320  177.9900  141.5200 O   0  0  0  0  0  0  0  0  0  0  0  0
  179.2860  178.2730  140.7960 O   0  0  0  0  0  1  0  0  0  0  0  0
  180.3070  178.8180  141.5750 C   0  0  1  0  0  3  0  0  0  0  0  0
  179.6520  177.8200  143.7700 O   0  0  0  0  0  1  0  0  0  0  0  0
  179.8420  178.9500  142.9850 C   0  0  0  0  0  0  0  0  0  0  0  0
  179.6050  180.0920  143.4610 O   0  0  0  0  0  0  0  0  0  0  0  0
  191.7420  173.7040  136.1730 C   0  0  0  0  0  2  0  0  0  0  0  0
  193.7840  174.8890  135.3450 C   0  0  0  0  0  3  0  0  0  0  0  0
  195.8890  173.7150  135.0530 C   0  0  0  0  0  0  0  0  0  0  0  0
  193.9420  172.5370  135.9010 C   0  0  0  0  0  3  0  0  0  0  0  0
  195.2900  172.5400  135.5330 C   0  0  0  0  0  3  0  0  0  0  0  0
  195.1320  174.8930  134.9770 C   0  0  0  0  0  3  0  0  0  0  0  0
  193.1870  173.7120  135.8050 C   0  0  0  0  0  0  0  0  0  0  0  0
  197.3470  173.7270  134.7020 C   0  0  0  0  0  3  0  0  0  0  0  0
  198.1820  174.0630  135.9280 C   0  0  0  0  0  2  0  0  0  0  0  0
  198.0850  172.6310  135.4550 C   0  0  0  0  0  2  0  0  0  0  0  0
  2  9  1  0  0  0  0
  3 11  2  0  0  0  0
  4 11  1  0  0  0  0
  5 12  1  0  0  0  0
  6  8  1  6  0  0  0
  6 19  1  0  0  0  0
  7  1  1  0  0  0  0
  8 14  1  0  0  0  0
  9 13  1  0  0  0  0
 10  2  1  0  0  0  0
 11 10  1  0  0  0  0
 13 28  1  6  0  0  0
 13 18  1  0  0  0  0
 13 17  1  0  0  0  0
 14  1  1  6  0  0  0
 14  5  1  0  0  0  0
 15  4  1  6  0  0  0
 15 16  1  0  0  0  0
 15 25  1  0  0  0  0
 16 46  1  1  0  0  0
 16  7  1  0  0  0  0
 18  6  1  0  0  0  0
 18 17  1  1  0  0  0
 19 12  1  0  0  0  0
 21 20  1  0  0  0  0
 22 25  1  0  0  0  0
 22 26  1  1  0  0  0
 23 22  1  0  0  0  0
 24 21  1  0  0  0  0
 24 23  1  0  0  0  0
 25 20  1  6  0  0  0
 28 27  1  0  0  0  0
 28 30  1  0  0  0  0
 29 28  1  0  0  0  0
 30 31  1  6  0  0  0
 30 32  1  0  0  0  0
 32 33  1  1  0  0  0
 32 36  1  0  0  0  0
 34 35  1  0  0  0  0
 35 32  1  0  0  0  0
 36 40  1  1  0  0  0
 36 37  1  0  0  0  0
 37 38  1  1  0  0  0
 37 39  1  0  0  0  0
 40 42  1  0  0  0  0
 42 41  1  6  0  0  0
 42 44  1  0  0  0  0
 44 45  2  0  0  0  0
 44 43  1  0  0  0  0
 47 52  1  0  0  0  0
 48 50  2  0  0  0  0
 50 49  1  0  0  0  0
 51 48  1  0  0  0  0
 51 47  2  0  0  0  0
 52 49  2  0  0  0  0
 52 46  1  0  0  0  0
 53 48  1  0  0  0  0
 53 55  1  0  0  0  0
 53 54  1  0  0  0  0
 55 54  1  0  0  0  0
M  END
>  <MODEL>
1

>  <REMARK>
 VINA RESULT:      -4.5      0.000      0.000
  Name = 
  13 active torsions:
  status: ('A' for Active; 'I' for Inactive)
    1  A    between atoms: C_1  and  C_53
    2  A    between atoms: C_6  and  C_14
    3  A    between atoms: C_6  and  C_20
    4  A    between atoms: C_6  and  C_53
    5  A    between atoms: C_8  and  C_20
    6  A    between atoms: C_8  and  C_43
    7  A    between atoms: C_10  and  C_32
    8  A    between atoms: C_11  and  C_29
    9  A    between atoms: C_11  and  O_38
   10  A    between atoms: C_26  and  C_45
   11  A    between atoms: C_33  and  C_49
   12  A    between atoms: C_33  and  C_52
   13  A    between atoms: O_38  and  C_53
                            x       y       z     vdW  Elec       q    Type
                         _______ _______ _______ _____ _____    ______ ____

>  <TORSDO>
F 13

$$$$
=
 OpenBabel10262420343D

 55 60  0  0  1  0  0  0  0  0999 V2000
  191.7350  176.7080  138.4570 C   0  0  0  0  0  2  0  0  0  0  0  0
  187.3300  179.1230  136.8280 C   0  0  0  0  0  2  0  0  0  0  0  0
  187.1670  177.2550  134.5960 C   0  0  0  0  0  2  0  0  0  0  0  0
  188.9530  175.8640  135.4380 C   0  0  0  0  0  2  0  0  0  0  0  0
  191.2220  176.8630  140.9350 C   0  0  0  0  0  2  0  0  0  0  0  0
  188.5860  177.7910  140.4210 C   0  0  1  0  0  3  0  0  0  0  0  0
  191.4330  175.2340  138.2240 C   0  0  0  0  0  2  0  0  0  0  0  0
  189.3660  177.1550  139.2720 C   0  0  0  0  0  2  0  0  0  0  0  0
  187.3400  179.4610  138.3150 C   0  0  0  0  0  2  0  0  0  0  0  0
  188.4810  178.1990  136.4540 C   0  0  0  0  0  2  0  0  0  0  0  0
  188.0480  177.0510  135.5750 C   0  0  0  0  0  0  0  0  0  0  0  0
  190.2640  177.5220  141.9280 C   0  0  0  0  0  2  0  0  0  0  0  0
  186.4660  178.5010  139.1400 C   0  0  2  0  0  0  0  0  0  0  0  0
  190.8580  177.3430  139.5340 C   0  0  2  0  0  3  0  0  0  0  0  0
  189.3410  175.2930  136.7980 C   0  0  2  0  0  3  0  0  0  0  0  0
  190.8570  175.0540  136.8240 C   0  0  2  0  0  3  0  0  0  0  0  0
  186.4790  178.8760  140.4980 O   0  0  0  0  0  0  0  0  0  0  0  0
  187.0870  177.6410  140.1980 C   0  0  2  0  0  3  0  0  0  0  0  0
  188.9350  177.1620  141.6320 O   0  0  0  0  0  0  0  0  0  0  0  0
  189.1070  172.8390  136.8070 O   0  0  0  0  0  0  0  0  0  0  0  0
  188.9090  172.6330  135.4280 C   0  0  0  0  0  2  0  0  0  0  0  0
  187.0260  174.1800  136.6960 C   0  0  2  0  0  3  0  0  0  0  0  0
  186.5060  172.8420  136.1800 C   0  0  0  0  0  2  0  0  0  0  0  0
  187.4560  172.2520  135.1370 C   0  0  0  0  0  2  0  0  0  0  0  0
  188.4890  174.0620  137.1820 C   0  0  2  0  0  3  0  0  0  0  0  0
  186.2130  174.6190  137.7410 O   0  0  0  0  0  1  0  0  0  0  0  0
  184.6930  176.8890  139.0690 F   0  0  0  0  0  0  0  0  0  0  0  0
  185.0150  178.1860  138.7000 C   0  0  0  0  0  0  0  0  0  0  0  0
  184.9180  178.2670  137.3210 F   0  0  0  0  0  0  0  0  0  0  0  0
  184.0220  179.1780  139.3530 C   0  0  1  0  0  3  0  0  0  0  0  0
  184.1750  180.4590  138.8090 O   0  0  0  0  0  1  0  0  0  0  0  0
  182.5310  178.7480  139.3420 C   0  0  2  0  0  0  0  0  0  0  0  0
  181.7220  179.8890  139.3220 O   0  0  0  0  0  1  0  0  0  0  0  0
  181.1140  178.4980  141.2770 F   0  0  0  0  0  0  0  0  0  0  0  0
  182.1840  177.9420  140.5980 C   0  0  0  0  0  2  0  0  0  0  0  0
  182.2220  177.9040  138.0830 C   0  0  2  0  0  3  0  0  0  0  0  0
  181.4690  178.6990  137.0100 C   0  0  2  0  0  3  0  0  0  0  0  0
  180.1220  178.3860  137.0180 F   0  0  0  0  0  0  0  0  0  0  0  0
  182.0060  178.4270  135.7520 O   0  0  0  0  0  1  0  0  0  0  0  0
  181.5050  176.7450  138.4170 O   0  0  0  0  0  0  0  0  0  0  0  0
  182.7930  174.8740  138.1930 O   0  0  0  0  0  1  0  0  0  0  0  0
  181.9500  175.7630  137.5250 C   0  0  1  0  0  3  0  0  0  0  0  0
  179.5400  175.1040  137.5740 O   0  0  0  0  0  1  0  0  0  0  0  0
  180.7850  175.0220  136.9630 C   0  0  0  0  0  0  0  0  0  0  0  0
  180.9360  174.3050  135.9390 O   0  0  0  0  0  0  0  0  0  0  0  0
  191.2690  173.7220  136.2010 C   0  0  0  0  0  2  0  0  0  0  0  0
  193.5670  172.7620  136.4450 C   0  0  0  0  0  3  0  0  0  0  0  0
  195.4700  173.7450  135.2990 C   0  0  0  0  0  0  0  0  0  0  0  0
  193.2480  174.6800  135.0000 C   0  0  0  0  0  3  0  0  0  0  0  0
  194.6160  174.6900  134.7100 C   0  0  0  0  0  3  0  0  0  0  0  0
  194.9340  172.7710  136.1550 C   0  0  0  0  0  3  0  0  0  0  0  0
  192.7230  173.7170  135.8700 C   0  0  0  0  0  0  0  0  0  0  0  0
  196.9280  173.7270  134.9510 C   0  0  0  0  0  3  0  0  0  0  0  0
  197.6480  174.8810  135.6320 C   0  0  0  0  0  2  0  0  0  0  0  0
  197.7700  173.4840  136.1940 C   0  0  0  0  0  2  0  0  0  0  0  0
  2  9  1  0  0  0  0
  3 11  2  0  0  0  0
  4 11  1  0  0  0  0
  5 12  1  0  0  0  0
  6  8  1  6  0  0  0
  6 19  1  0  0  0  0
  7  1  1  0  0  0  0
  8 14  1  0  0  0  0
  9 13  1  0  0  0  0
 10  2  1  0  0  0  0
 11 10  1  0  0  0  0
 13 28  1  6  0  0  0
 13 18  1  0  0  0  0
 13 17  1  0  0  0  0
 14  1  1  6  0  0  0
 14  5  1  0  0  0  0
 15  4  1  6  0  0  0
 15 16  1  0  0  0  0
 15 25  1  0  0  0  0
 16 46  1  1  0  0  0
 16  7  1  0  0  0  0
 18  6  1  0  0  0  0
 18 17  1  1  0  0  0
 19 12  1  0  0  0  0
 21 20  1  0  0  0  0
 22 25  1  0  0  0  0
 22 26  1  1  0  0  0
 23 22  1  0  0  0  0
 24 21  1  0  0  0  0
 24 23  1  0  0  0  0
 25 20  1  6  0  0  0
 28 27  1  0  0  0  0
 28 30  1  0  0  0  0
 29 28  1  0  0  0  0
 30 31  1  6  0  0  0
 32 33  1  6  0  0  0
 32 30  1  0  0  0  0
 32 35  1  0  0  0  0
 35 34  1  0  0  0  0
 36 40  1  1  0  0  0
 36 32  1  0  0  0  0
 37 39  1  6  0  0  0
 37 38  1  0  0  0  0
 37 36  1  0  0  0  0
 42 41  1  1  0  0  0
 42 40  1  0  0  0  0
 44 42  1  0  0  0  0
 44 43  1  0  0  0  0
 45 44  2  0  0  0  0
 48 51  2  0  0  0  0
 49 52  1  0  0  0  0
 50 49  2  0  0  0  0
 50 48  1  0  0  0  0
 51 47  1  0  0  0  0
 52 46  1  0  0  0  0
 52 47  2  0  0  0  0
 53 48  1  0  0  0  0
 53 54  1  0  0  0  0
 53 55  1  0  0  0  0
 54 55  1  0  0  0  0
M  END
>  <MODEL>
2

>  <REMARK>
 VINA RESULT:      -4.3      1.641      2.940
  Name = 
  13 active torsions:
  status: ('A' for Active; 'I' for Inactive)
    1  A    between atoms: C_1  and  C_53
    2  A    between atoms: C_6  and  C_14
    3  A    between atoms: C_6  and  C_20
    4  A    between atoms: C_6  and  C_53
    5  A    between atoms: C_8  and  C_20
    6  A    between atoms: C_8  and  C_43
    7  A    between atoms: C_10  and  C_32
    8  A    between atoms: C_11  and  C_29
    9  A    between atoms: C_11  and  O_38
   10  A    between atoms: C_26  and  C_45
   11  A    between atoms: C_33  and  C_49
   12  A    between atoms: C_33  and  C_52
   13  A    between atoms: O_38  and  C_53
                            x       y       z     vdW  Elec       q    Type
                         _______ _______ _______ _____ _____    ______ ____

>  <TORSDO>
F 13

$$$$
=
 OpenBabel10262420343D

 55 60  0  0  1  0  0  0  0  0999 V2000
  191.8280  176.8120  138.4560 C   0  0  0  0  0  2  0  0  0  0  0  0
  187.3610  179.1380  136.8650 C   0  0  0  0  0  2  0  0  0  0  0  0
  187.2540  177.3110  134.5960 C   0  0  0  0  0  2  0  0  0  0  0  0
  189.0760  175.9530  135.4150 C   0  0  0  0  0  2  0  0  0  0  0  0
  191.3070  176.9040  140.9350 C   0  0  0  0  0  2  0  0  0  0  0  0
  188.6470  177.7700  140.4330 C   0  0  1  0  0  3  0  0  0  0  0  0
  191.5670  175.3360  138.1930 C   0  0  0  0  0  2  0  0  0  0  0  0
  189.4470  177.1780  139.2740 C   0  0  0  0  0  2  0  0  0  0  0  0
  187.3600  179.4460  138.3580 C   0  0  0  0  0  2  0  0  0  0  0  0
  188.5380  178.2530  136.4750 C   0  0  0  0  0  2  0  0  0  0  0  0
  188.1390  177.1120  135.5730 C   0  0  0  0  0  0  0  0  0  0  0  0
  190.3280  177.5160  141.9390 C   0  0  0  0  0  2  0  0  0  0  0  0
  186.5110  178.4470  139.1610 C   0  0  2  0  0  0  0  0  0  0  0  0
  190.9320  177.4010  139.5430 C   0  0  2  0  0  3  0  0  0  0  0  0
  189.4770  175.3650  136.7630 C   0  0  2  0  0  3  0  0  0  0  0  0
  190.9990  175.1680  136.7890 C   0  0  2  0  0  3  0  0  0  0  0  0
  186.5110  178.7940  140.5270 O   0  0  0  0  0  0  0  0  0  0  0  0
  187.1530  177.5820  140.2040 C   0  0  2  0  0  3  0  0  0  0  0  0
  189.0100  177.1260  141.6330 O   0  0  0  0  0  0  0  0  0  0  0  0
  189.2980  172.9080  136.6990 O   0  0  0  0  0  0  0  0  0  0  0  0
  189.0830  172.7400  135.3170 C   0  0  0  0  0  2  0  0  0  0  0  0
  187.1860  174.2040  136.6600 C   0  0  2  0  0  3  0  0  0  0  0  0
  186.6880  172.8720  136.1100 C   0  0  0  0  0  2  0  0  0  0  0  0
  187.6360  172.3360  135.0360 C   0  0  0  0  0  2  0  0  0  0  0  0
  188.6590  174.1040  137.1210 C   0  0  2  0  0  3  0  0  0  0  0  0
  186.3800  174.5910  137.7300 O   0  0  0  0  0  1  0  0  0  0  0  0
  184.7720  176.7970  139.0820 F   0  0  0  0  0  0  0  0  0  0  0  0
  185.0700  178.1010  138.7120 C   0  0  0  0  0  0  0  0  0  0  0  0
  184.9810  178.1770  137.3330 F   0  0  0  0  0  0  0  0  0  0  0  0
  184.0520  179.0720  139.3560 C   0  0  1  0  0  3  0  0  0  0  0  0
  184.2950  180.3870  138.9400 O   0  0  0  0  0  1  0  0  0  0  0  0
  182.5550  178.7040  139.1730 C   0  0  2  0  0  0  0  0  0  0  0  0
  182.1860  177.7750  140.1510 O   0  0  0  0  0  1  0  0  0  0  0  0
  182.1020  176.7060  137.9020 F   0  0  0  0  0  0  0  0  0  0  0  0
  182.3120  178.0700  137.8000 C   0  0  0  0  0  2  0  0  0  0  0  0
  181.6680  179.9610  139.3270 C   0  0  2  0  0  3  0  0  0  0  0  0
  180.3990  179.6900  140.1450 C   0  0  2  0  0  3  0  0  0  0  0  0
  179.2870  179.6260  139.3250 F   0  0  0  0  0  0  0  0  0  0  0  0
  180.2220  180.6940  141.0960 O   0  0  0  0  0  1  0  0  0  0  0  0
  181.3290  180.4960  138.0750 O   0  0  0  0  0  0  0  0  0  0  0  0
  182.2650  182.5640  138.3090 O   0  0  0  0  0  1  0  0  0  0  0  0
  181.0670  181.8500  138.3090 C   0  0  1  0  0  3  0  0  0  0  0  0
  178.9900  183.0390  137.5880 O   0  0  0  0  0  1  0  0  0  0  0  0
  180.1670  182.3840  137.2480 C   0  0  0  0  0  0  0  0  0  0  0  0
  180.4690  182.2260  136.0350 O   0  0  0  0  0  0  0  0  0  0  0  0
  191.4490  173.8600  136.1400 C   0  0  0  0  0  2  0  0  0  0  0  0
  193.5870  172.8060  136.9010 C   0  0  0  0  0  3  0  0  0  0  0  0
  195.7390  173.6190  136.1220 C   0  0  0  0  0  0  0  0  0  0  0  0
  193.6850  174.6420  135.3240 C   0  0  0  0  0  3  0  0  0  0  0  0
  195.0810  174.5660  135.3220 C   0  0  0  0  0  3  0  0  0  0  0  0
  194.9820  172.7290  136.8990 C   0  0  0  0  0  3  0  0  0  0  0  0
  192.9370  173.7630  136.1160 C   0  0  0  0  0  0  0  0  0  0  0  0
  197.2330  173.5080  136.0820 C   0  0  0  0  0  3  0  0  0  0  0  0
  197.6890  172.9930  134.7260 C   0  0  0  0  0  2  0  0  0  0  0  0
  197.8110  174.4640  135.0500 C   0  0  0  0  0  2  0  0  0  0  0  0
  2  9  1  0  0  0  0
  3 11  2  0  0  0  0
  4 11  1  0  0  0  0
  5 12  1  0  0  0  0
  6  8  1  6  0  0  0
  6 19  1  0  0  0  0
  7  1  1  0  0  0  0
  8 14  1  0  0  0  0
  9 13  1  0  0  0  0
 10  2  1  0  0  0  0
 11 10  1  0  0  0  0
 13 28  1  6  0  0  0
 13 18  1  0  0  0  0
 13 17  1  0  0  0  0
 14  1  1  6  0  0  0
 14  5  1  0  0  0  0
 15  4  1  6  0  0  0
 15 16  1  0  0  0  0
 15 25  1  0  0  0  0
 16 46  1  1  0  0  0
 16  7  1  0  0  0  0
 18  6  1  0  0  0  0
 18 17  1  1  0  0  0
 19 12  1  0  0  0  0
 21 20  1  0  0  0  0
 22 25  1  0  0  0  0
 22 26  1  1  0  0  0
 23 22  1  0  0  0  0
 24 21  1  0  0  0  0
 24 23  1  0  0  0  0
 25 20  1  6  0  0  0
 28 27  1  0  0  0  0
 28 30  1  0  0  0  0
 29 28  1  0  0  0  0
 30 31  1  6  0  0  0
 32 36  1  0  0  0  0
 32 30  1  0  0  0  0
 32 33  1  1  0  0  0
 35 34  1  0  0  0  0
 35 32  1  0  0  0  0
 36 40  1  6  0  0  0
 36 37  1  0  0  0  0
 37 38  1  6  0  0  0
 37 39  1  0  0  0  0
 40 42  1  0  0  0  0
 42 41  1  6  0  0  0
 44 43  1  0  0  0  0
 44 42  1  0  0  0  0
 45 44  2  0  0  0  0
 48 51  2  0  0  0  0
 49 52  1  0  0  0  0
 50 49  2  0  0  0  0
 50 48  1  0  0  0  0
 51 47  1  0  0  0  0
 52 46  1  0  0  0  0
 52 47  2  0  0  0  0
 53 48  1  0  0  0  0
 54 55  1  0  0  0  0
 54 53  1  0  0  0  0
 55 53  1  0  0  0  0
M  END
>  <MODEL>
3

>  <REMARK>
 VINA RESULT:      -4.0      1.705      2.545
  Name = 
  13 active torsions:
  status: ('A' for Active; 'I' for Inactive)
    1  A    between atoms: C_1  and  C_53
    2  A    between atoms: C_6  and  C_14
    3  A    between atoms: C_6  and  C_20
    4  A    between atoms: C_6  and  C_53
    5  A    between atoms: C_8  and  C_20
    6  A    between atoms: C_8  and  C_43
    7  A    between atoms: C_10  and  C_32
    8  A    between atoms: C_11  and  C_29
    9  A    between atoms: C_11  and  O_38
   10  A    between atoms: C_26  and  C_45
   11  A    between atoms: C_33  and  C_49
   12  A    between atoms: C_33  and  C_52
   13  A    between atoms: O_38  and  C_53
                            x       y       z     vdW  Elec       q    Type
                         _______ _______ _______ _____ _____    ______ ____

>  <TORSDO>
F 13

$$$$
=
 OpenBabel10262420343D

 55 60  0  0  1  0  0  0  0  0999 V2000
  188.2590  177.0990  134.5940 C   0  0  0  0  0  2  0  0  0  0  0  0
  188.3390  178.8210  139.5860 C   0  0  0  0  0  2  0  0  0  0  0  0
  185.5310  178.0860  139.8530 C   0  0  0  0  0  2  0  0  0  0  0  0
  185.4730  176.9510  137.7210 C   0  0  0  0  0  2  0  0  0  0  0  0
  190.5750  176.0700  134.6310 C   0  0  0  0  0  2  0  0  0  0  0  0
  190.7970  176.4550  137.4370 C   0  0  1  0  0  3  0  0  0  0  0  0
  187.4140  175.8350  134.6730 C   0  0  0  0  0  2  0  0  0  0  0  0
  189.4150  176.5710  136.7980 C   0  0  0  0  0  2  0  0  0  0  0  0
  189.8090  178.4950  139.3430 C   0  0  0  0  0  2  0  0  0  0  0  0
  187.4760  178.4510  138.3860 C   0  0  0  0  0  2  0  0  0  0  0  0
  186.2200  177.7110  138.7750 C   0  0  0  0  0  0  0  0  0  0  0  0
  191.8470  175.9950  135.4770 C   0  0  0  0  0  2  0  0  0  0  0  0
  190.1900  177.0970  139.8580 C   0  0  2  0  0  0  0  0  0  0  0  0
  189.5860  176.9890  135.3400 C   0  0  2  0  0  3  0  0  0  0  0  0
  186.3810  175.9760  136.9810 C   0  0  2  0  0  3  0  0  0  0  0  0
  186.1490  176.1250  135.4710 C   0  0  2  0  0  3  0  0  0  0  0  0
  191.5620  176.8570  139.6450 O   0  0  0  0  0  0  0  0  0  0  0  0
  190.6780  176.0510  138.9020 C   0  0  2  0  0  3  0  0  0  0  0  0
  191.5520  175.4800  136.7540 O   0  0  0  0  0  0  0  0  0  0  0  0
  187.5010  173.8710  137.6080 O   0  0  0  0  0  0  0  0  0  0  0  0
  187.8880  173.4380  136.3250 C   0  0  0  0  0  2  0  0  0  0  0  0
  185.1860  173.7130  136.7390 C   0  0  2  0  0  3  0  0  0  0  0  0
  185.6510  172.2780  136.5130 C   0  0  0  0  0  2  0  0  0  0  0  0
  187.0400  172.2480  135.8730 C   0  0  0  0  0  2  0  0  0  0  0  0
  186.2470  174.5300  137.5120 C   0  0  2  0  0  3  0  0  0  0  0  0
  183.9860  173.7020  137.4490 O   0  0  0  0  0  1  0  0  0  0  0  0
  189.9620  175.2800  141.4060 F   0  0  0  0  0  0  0  0  0  0  0  0
  189.8000  176.6520  141.2890 C   0  0  0  0  0  0  0  0  0  0  0  0
  188.4640  176.9380  141.5170 F   0  0  0  0  0  0  0  0  0  0  0  0
  190.6760  177.3740  142.3410 C   0  0  1  0  0  3  0  0  0  0  0  0
  191.7610  178.0100  141.7250 O   0  0  0  0  0  1  0  0  0  0  0  0
  189.9300  178.3500  143.2890 C   0  0  2  0  0  0  0  0  0  0  0  0
  188.9850  179.0740  142.5550 O   0  0  0  0  0  1  0  0  0  0  0  0
  192.0470  178.7160  144.3830 F   0  0  0  0  0  0  0  0  0  0  0  0
  190.9050  179.3470  143.9240 C   0  0  0  0  0  2  0  0  0  0  0  0
  189.1950  177.5660  144.4000 C   0  0  2  0  0  3  0  0  0  0  0  0
  187.6960  177.4090  144.1170 C   0  0  2  0  0  3  0  0  0  0  0  0
  187.0100  178.5700  144.4250 F   0  0  0  0  0  0  0  0  0  0  0  0
  187.1800  176.3490  144.8630 O   0  0  0  0  0  1  0  0  0  0  0  0
  189.3880  178.1660  145.6540 O   0  0  0  0  0  0  0  0  0  0  0  0
  190.7720  177.0070  147.0500 O   0  0  0  0  0  1  0  0  0  0  0  0
  189.4680  177.1070  146.5640 C   0  0  1  0  0  3  0  0  0  0  0  0
  188.1750  176.2950  148.5420 O   0  0  0  0  0  1  0  0  0  0  0  0
  188.5290  177.3400  147.6980 C   0  0  0  0  0  0  0  0  0  0  0  0
  188.0430  178.4870  147.8810 O   0  0  0  0  0  0  0  0  0  0  0  0
  184.9530  175.3230  134.9620 C   0  0  0  0  0  2  0  0  0  0  0  0
  182.4650  175.5960  134.9480 C   0  0  0  0  0  3  0  0  0  0  0  0
  181.4400  177.7790  134.6590 C   0  0  0  0  0  0  0  0  0  0  0  0
  183.8590  177.5620  134.7110 C   0  0  0  0  0  3  0  0  0  0  0  0
  182.7160  178.3610  134.6080 C   0  0  0  0  0  3  0  0  0  0  0  0
  181.3220  176.3930  134.8460 C   0  0  0  0  0  3  0  0  0  0  0  0
  183.7350  176.1790  134.8790 C   0  0  0  0  0  0  0  0  0  0  0  0
  180.2160  178.6410  134.5960 C   0  0  0  0  0  3  0  0  0  0  0  0
  179.5540  178.7210  135.9630 C   0  0  0  0  0  2  0  0  0  0  0  0
  180.3900  179.8770  135.4650 C   0  0  0  0  0  2  0  0  0  0  0  0
  1  7  1  0  0  0  0
  4 11  1  0  0  0  0
  5 14  1  0  0  0  0
  5 12  1  0  0  0  0
  6  8  1  6  0  0  0
  6 18  1  0  0  0  0
  7 16  1  0  0  0  0
  9  2  1  0  0  0  0
  9 13  1  0  0  0  0
 10 11  1  0  0  0  0
 10  2  1  0  0  0  0
 11  3  2  0  0  0  0
 12 19  1  0  0  0  0
 13 28  1  1  0  0  0
 14  1  1  6  0  0  0
 14  8  1  0  0  0  0
 15 25  1  0  0  0  0
 15  4  1  1  0  0  0
 16 46  1  6  0  0  0
 16 15  1  0  0  0  0
 17 13  1  0  0  0  0
 18 17  1  1  0  0  0
 18 13  1  0  0  0  0
 19  6  1  0  0  0  0
 21 20  1  0  0  0  0
 22 26  1  1  0  0  0
 22 25  1  0  0  0  0
 23 22  1  0  0  0  0
 24 21  1  0  0  0  0
 24 23  1  0  0  0  0
 25 20  1  6  0  0  0
 28 27  1  0  0  0  0
 28 29  1  0  0  0  0
 28 30  1  0  0  0  0
 30 31  1  6  0  0  0
 30 32  1  0  0  0  0
 32 33  1  6  0  0  0
 32 35  1  0  0  0  0
 32 36  1  0  0  0  0
 35 34  1  0  0  0  0
 36 40  1  1  0  0  0
 37 36  1  0  0  0  0
 37 38  1  1  0  0  0
 37 39  1  0  0  0  0
 40 42  1  0  0  0  0
 42 41  1  1  0  0  0
 42 44  1  0  0  0  0
 44 45  2  0  0  0  0
 44 43  1  0  0  0  0
 48 51  1  0  0  0  0
 49 52  2  0  0  0  0
 50 48  2  0  0  0  0
 50 49  1  0  0  0  0
 51 47  2  0  0  0  0
 52 47  1  0  0  0  0
 52 46  1  0  0  0  0
 53 48  1  0  0  0  0
 53 55  1  0  0  0  0
 53 54  1  0  0  0  0
 55 54  1  0  0  0  0
M  END
>  <MODEL>
4

>  <REMARK>
 VINA RESULT:      -3.4      3.878      8.362
  Name = 
  13 active torsions:
  status: ('A' for Active; 'I' for Inactive)
    1  A    between atoms: C_1  and  C_53
    2  A    between atoms: C_6  and  C_14
    3  A    between atoms: C_6  and  C_20
    4  A    between atoms: C_6  and  C_53
    5  A    between atoms: C_8  and  C_20
    6  A    between atoms: C_8  and  C_43
    7  A    between atoms: C_10  and  C_32
    8  A    between atoms: C_11  and  C_29
    9  A    between atoms: C_11  and  O_38
   10  A    between atoms: C_26  and  C_45
   11  A    between atoms: C_33  and  C_49
   12  A    between atoms: C_33  and  C_52
   13  A    between atoms: O_38  and  C_53
                            x       y       z     vdW  Elec       q    Type
                         _______ _______ _______ _____ _____    ______ ____

>  <TORSDO>
F 13

$$$$
=
 OpenBabel10262420343D

 55 60  0  0  1  0  0  0  0  0999 V2000
  188.5530  176.9290  134.5940 C   0  0  0  0  0  2  0  0  0  0  0  0
  188.2550  178.9320  139.4710 C   0  0  0  0  0  2  0  0  0  0  0  0
  185.4250  178.2410  139.5500 C   0  0  0  0  0  2  0  0  0  0  0  0
  185.5220  176.9870  137.4870 C   0  0  0  0  0  2  0  0  0  0  0  0
  190.8440  175.8800  134.8760 C   0  0  0  0  0  2  0  0  0  0  0  0
  190.8440  176.4220  137.6660 C   0  0  1  0  0  3  0  0  0  0  0  0
  187.6870  175.6790  134.6740 C   0  0  0  0  0  2  0  0  0  0  0  0
  189.5200  176.5150  136.9100 C   0  0  0  0  0  2  0  0  0  0  0  0
  189.7350  178.5780  139.3670 C   0  0  0  0  0  2  0  0  0  0  0  0
  187.4870  178.5020  138.2280 C   0  0  0  0  0  2  0  0  0  0  0  0
  186.1930  177.7980  138.5540 C   0  0  0  0  0  0  0  0  0  0  0  0
  192.0420  175.8410  135.8260 C   0  0  0  0  0  2  0  0  0  0  0  0
  190.0530  177.2080  139.9890 C   0  0  2  0  0  0  0  0  0  0  0  0
  189.8140  176.8480  135.4500 C   0  0  2  0  0  3  0  0  0  0  0  0
  186.4730  175.9620  136.8790 C   0  0  2  0  0  3  0  0  0  0  0  0
  186.3660  176.0270  135.3500 C   0  0  2  0  0  3  0  0  0  0  0  0
  191.4340  176.9420  139.9020 O   0  0  0  0  0  0  0  0  0  0  0  0
  190.6010  176.1040  139.1360 C   0  0  2  0  0  3  0  0  0  0  0  0
  191.6370  175.4030  137.1020 O   0  0  0  0  0  0  0  0  0  0  0  0
  187.4690  173.7810  137.4540 O   0  0  0  0  0  0  0  0  0  0  0  0
  187.6600  173.2780  136.1510 C   0  0  0  0  0  2  0  0  0  0  0  0
  185.0620  173.8130  136.8660 C   0  0  2  0  0  3  0  0  0  0  0  0
  185.3680  172.3360  136.6430 C   0  0  0  0  0  2  0  0  0  0  0  0
  186.6620  172.1600  135.8480 C   0  0  0  0  0  2  0  0  0  0  0  0
  186.2760  174.5500  137.4780 C   0  0  2  0  0  3  0  0  0  0  0  0
  183.9590  173.9340  137.7100 O   0  0  0  0  0  1  0  0  0  0  0  0
  189.0990  175.5350  141.4180 F   0  0  0  0  0  0  0  0  0  0  0  0
  189.5420  176.8490  141.4060 C   0  0  0  0  0  0  0  0  0  0  0  0
  188.4670  177.6590  141.7320 F   0  0  0  0  0  0  0  0  0  0  0  0
  190.6690  177.0300  142.4520 C   0  0  1  0  0  3  0  0  0  0  0  0
  191.9170  177.1140  141.8220 O   0  0  0  0  0  1  0  0  0  0  0  0
  190.4790  178.1980  143.4570 C   0  0  2  0  0  0  0  0  0  0  0  0
  189.4170  179.0030  143.0330 O   0  0  0  0  0  1  0  0  0  0  0  0
  191.4710  180.2960  144.1080 F   0  0  0  0  0  0  0  0  0  0  0  0
  191.7370  179.0680  143.5280 C   0  0  0  0  0  2  0  0  0  0  0  0
  190.1490  177.6490  144.8650 C   0  0  2  0  0  3  0  0  0  0  0  0
  191.3550  176.9790  145.5330 C   0  0  2  0  0  3  0  0  0  0  0  0
  191.1210  175.6310  145.7390 F   0  0  0  0  0  0  0  0  0  0  0  0
  191.6270  177.5980  146.7530 O   0  0  0  0  0  1  0  0  0  0  0  0
  189.0670  176.7570  144.8180 O   0  0  0  0  0  0  0  0  0  0  0  0
  188.4880  178.5970  146.0370 O   0  0  0  0  0  1  0  0  0  0  0  0
  188.0790  177.3280  145.6270 C   0  0  1  0  0  3  0  0  0  0  0  0
  186.6970  176.9050  143.5890 O   0  0  0  0  0  0  0  0  0  0  0  0
  186.8010  177.4350  144.8690 C   0  0  0  0  0  0  0  0  0  0  0  0
  185.8150  178.0230  145.3860 O   0  0  0  0  0  1  0  0  0  0  0  0
  185.2030  175.2090  134.7910 C   0  0  0  0  0  2  0  0  0  0  0  0
  184.0370  177.4220  134.7400 C   0  0  0  0  0  3  0  0  0  0  0  0
  181.6130  177.5670  134.6820 C   0  0  0  0  0  0  0  0  0  0  0  0
  182.7070  175.3980  134.6860 C   0  0  0  0  0  3  0  0  0  0  0  0
  181.5390  176.1660  134.6550 C   0  0  0  0  0  3  0  0  0  0  0  0
  182.8690  178.1900  134.7080 C   0  0  0  0  0  3  0  0  0  0  0  0
  183.9570  176.0260  134.7310 C   0  0  0  0  0  0  0  0  0  0  0  0
  180.3620  178.3880  134.6020 C   0  0  0  0  0  3  0  0  0  0  0  0
  179.4900  178.1460  135.8250 C   0  0  0  0  0  2  0  0  0  0  0  0
  180.3190  179.4050  135.7320 C   0  0  0  0  0  2  0  0  0  0  0  0
  1  7  1  0  0  0  0
  4 11  1  0  0  0  0
  5 14  1  0  0  0  0
  5 12  1  0  0  0  0
  6  8  1  6  0  0  0
  6 18  1  0  0  0  0
  7 16  1  0  0  0  0
  9  2  1  0  0  0  0
  9 13  1  0  0  0  0
 10 11  1  0  0  0  0
 10  2  1  0  0  0  0
 11  3  2  0  0  0  0
 12 19  1  0  0  0  0
 13 28  1  1  0  0  0
 14  1  1  6  0  0  0
 14  8  1  0  0  0  0
 15 25  1  0  0  0  0
 15  4  1  1  0  0  0
 16 46  1  6  0  0  0
 16 15  1  0  0  0  0
 17 13  1  0  0  0  0
 18 17  1  1  0  0  0
 18 13  1  0  0  0  0
 19  6  1  0  0  0  0
 21 20  1  0  0  0  0
 22 25  1  0  0  0  0
 22 26  1  1  0  0  0
 23 22  1  0  0  0  0
 24 21  1  0  0  0  0
 24 23  1  0  0  0  0
 25 20  1  6  0  0  0
 28 27  1  0  0  0  0
 28 29  1  0  0  0  0
 28 30  1  0  0  0  0
 30 31  1  6  0  0  0
 30 32  1  0  0  0  0
 32 33  1  6  0  0  0
 32 35  1  0  0  0  0
 32 36  1  0  0  0  0
 35 34  1  0  0  0  0
 36 40  1  6  0  0  0
 36 37  1  0  0  0  0
 37 38  1  1  0  0  0
 37 39  1  0  0  0  0
 40 42  1  0  0  0  0
 42 41  1  6  0  0  0
 43 44  2  0  0  0  0
 44 45  1  0  0  0  0
 44 42  1  0  0  0  0
 48 51  1  0  0  0  0
 49 52  2  0  0  0  0
 50 48  2  0  0  0  0
 50 49  1  0  0  0  0
 51 47  2  0  0  0  0
 52 47  1  0  0  0  0
 52 46  1  0  0  0  0
 53 48  1  0  0  0  0
 53 55  1  0  0  0  0
 53 54  1  0  0  0  0
 55 54  1  0  0  0  0
M  END
>  <MODEL>
5

>  <REMARK>
 VINA RESULT:      -3.2      3.698      8.208
  Name = 
  13 active torsions:
  status: ('A' for Active; 'I' for Inactive)
    1  A    between atoms: C_1  and  C_53
    2  A    between atoms: C_6  and  C_14
    3  A    between atoms: C_6  and  C_20
    4  A    between atoms: C_6  and  C_53
    5  A    between atoms: C_8  and  C_20
    6  A    between atoms: C_8  and  C_43
    7  A    between atoms: C_10  and  C_32
    8  A    between atoms: C_11  and  C_29
    9  A    between atoms: C_11  and  O_38
   10  A    between atoms: C_26  and  C_45
   11  A    between atoms: C_33  and  C_49
   12  A    between atoms: C_33  and  C_52
   13  A    between atoms: O_38  and  C_53
                            x       y       z     vdW  Elec       q    Type
                         _______ _______ _______ _____ _____    ______ ____

>  <TORSDO>
F 13

$$$$
=
 OpenBabel10262420343D

 55 60  0  0  1  0  0  0  0  0999 V2000
  187.5000  177.6170  135.1680 C   0  0  0  0  0  2  0  0  0  0  0  0
  186.8830  179.1460  140.1860 C   0  0  0  0  0  2  0  0  0  0  0  0
  184.1280  178.1960  140.1040 C   0  0  0  0  0  2  0  0  0  0  0  0
  184.3990  177.1440  137.9470 C   0  0  0  0  0  2  0  0  0  0  0  0
  189.8700  176.7600  135.4410 C   0  0  0  0  0  2  0  0  0  0  0  0
  189.7430  177.0510  138.2650 C   0  0  1  0  0  3  0  0  0  0  0  0
  186.7530  176.2920  135.1110 C   0  0  0  0  0  2  0  0  0  0  0  0
  188.4380  177.0900  137.4740 C   0  0  0  0  0  2  0  0  0  0  0  0
  188.3910  178.9380  140.1050 C   0  0  0  0  0  2  0  0  0  0  0  0
  186.1930  178.7600  138.8840 C   0  0  0  0  0  2  0  0  0  0  0  0
  184.9620  177.9150  139.1030 C   0  0  0  0  0  0  0  0  0  0  0  0
  191.0410  176.7460  136.4260 C   0  0  0  0  0  2  0  0  0  0  0  0
  188.8190  177.5520  140.6180 C   0  0  2  0  0  0  0  0  0  0  0  0
  188.7390  177.5750  136.0600 C   0  0  2  0  0  3  0  0  0  0  0  0
  185.4580  176.2670  137.2880 C   0  0  2  0  0  3  0  0  0  0  0  0
  185.3870  176.4580  135.7670 C   0  0  2  0  0  3  0  0  0  0  0  0
  190.2210  177.4220  140.5580 O   0  0  0  0  0  0  0  0  0  0  0  0
  189.4910  176.5830  139.6930 C   0  0  2  0  0  3  0  0  0  0  0  0
  190.6430  176.1620  137.6450 O   0  0  0  0  0  0  0  0  0  0  0  0
  186.4930  174.0310  137.3280 O   0  0  0  0  0  0  0  0  0  0  0  0
  186.3150  173.6820  135.9740 C   0  0  0  0  0  2  0  0  0  0  0  0
  184.0190  174.1400  137.4120 C   0  0  2  0  0  3  0  0  0  0  0  0
  184.2040  172.6980  136.9530 C   0  0  0  0  0  2  0  0  0  0  0  0
  185.2340  172.6110  135.8260 C   0  0  0  0  0  2  0  0  0  0  0  0
  185.3770  174.7970  137.7560 C   0  0  2  0  0  3  0  0  0  0  0  0
  183.1840  174.1660  138.5280 O   0  0  0  0  0  1  0  0  0  0  0  0
  188.8560  175.7770  142.2290 F   0  0  0  0  0  0  0  0  0  0  0  0
  188.3050  177.0250  141.9800 C   0  0  0  0  0  0  0  0  0  0  0  0
  186.9300  176.8760  141.9320 F   0  0  0  0  0  0  0  0  0  0  0  0
  188.6860  178.0010  143.1190 C   0  0  1  0  0  3  0  0  0  0  0  0
  187.7200  179.0060  143.2500 O   0  0  0  0  0  1  0  0  0  0  0  0
  188.9940  177.3500  144.4940 C   0  0  2  0  0  0  0  0  0  0  0  0
  188.9070  175.9600  144.3760 O   0  0  0  0  0  1  0  0  0  0  0  0
  187.6920  176.7830  146.4420 F   0  0  0  0  0  0  0  0  0  0  0  0
  187.9820  177.8020  145.5520 C   0  0  0  0  0  2  0  0  0  0  0  0
  190.4240  177.7160  144.9560 C   0  0  2  0  0  3  0  0  0  0  0  0
  191.2410  178.4030  143.8550 C   0  0  2  0  0  3  0  0  0  0  0  0
  192.1720  177.5350  143.3160 F   0  0  0  0  0  0  0  0  0  0  0  0
  191.8900  179.5240  144.3730 O   0  0  0  0  0  1  0  0  0  0  0  0
  191.1070  176.5850  145.4280 O   0  0  0  0  0  0  0  0  0  0  0  0
  190.5780  177.4140  147.4880 O   0  0  0  0  0  1  0  0  0  0  0  0
  191.6160  176.9540  146.6770 C   0  0  1  0  0  3  0  0  0  0  0  0
  193.2590  175.9710  148.2830 O   0  0  0  0  0  1  0  0  0  0  0  0
  192.2730  175.7820  147.3240 C   0  0  0  0  0  0  0  0  0  0  0  0
  191.9410  174.6160  146.9870 O   0  0  0  0  0  0  0  0  0  0  0  0
  184.3210  175.5900  135.0980 C   0  0  0  0  0  2  0  0  0  0  0  0
  183.0310  177.7330  135.0320 C   0  0  0  0  0  3  0  0  0  0  0  0
  180.6180  177.7420  134.7560 C   0  0  0  0  0  0  0  0  0  0  0  0
  181.8380  175.6420  134.7700 C   0  0  0  0  0  3  0  0  0  0  0  0
  180.6330  176.3420  134.6630 C   0  0  0  0  0  3  0  0  0  0  0  0
  181.8270  178.4340  134.9240 C   0  0  0  0  0  3  0  0  0  0  0  0
  183.0390  176.3370  134.9570 C   0  0  0  0  0  0  0  0  0  0  0  0
  179.3320  178.4940  134.5940 C   0  0  0  0  0  3  0  0  0  0  0  0
  178.9490  179.1740  135.8990 C   0  0  0  0  0  2  0  0  0  0  0  0
  179.5590  179.9860  134.7800 C   0  0  0  0  0  2  0  0  0  0  0  0
  4 11  1  0  0  0  0
  5 14  1  0  0  0  0
  5 12  1  0  0  0  0
  6  8  1  6  0  0  0
  6 18  1  0  0  0  0
  7  1  1  0  0  0  0
  7 16  1  0  0  0  0
  9  2  1  0  0  0  0
  9 13  1  0  0  0  0
 10 11  1  0  0  0  0
 10  2  1  0  0  0  0
 11  3  2  0  0  0  0
 12 19  1  0  0  0  0
 13 28  1  1  0  0  0
 14  1  1  6  0  0  0
 14  8  1  0  0  0  0
 15 25  1  0  0  0  0
 15  4  1  1  0  0  0
 16 46  1  6  0  0  0
 16 15  1  0  0  0  0
 17 13  1  0  0  0  0
 18 17  1  1  0  0  0
 18 13  1  0  0  0  0
 19  6  1  0  0  0  0
 21 20  1  0  0  0  0
 22 25  1  0  0  0  0
 22 26  1  1  0  0  0
 23 22  1  0  0  0  0
 24 21  1  0  0  0  0
 24 23  1  0  0  0  0
 25 20  1  6  0  0  0
 28 27  1  0  0  0  0
 28 30  1  0  0  0  0
 29 28  1  0  0  0  0
 30 31  1  1  0  0  0
 30 32  1  0  0  0  0
 32 33  1  6  0  0  0
 32 36  1  0  0  0  0
 32 35  1  0  0  0  0
 35 34  1  0  0  0  0
 36 40  1  6  0  0  0
 37 38  1  1  0  0  0
 37 39  1  0  0  0  0
 37 36  1  0  0  0  0
 40 42  1  0  0  0  0
 42 44  1  0  0  0  0
 42 41  1  1  0  0  0
 44 43  1  0  0  0  0
 45 44  2  0  0  0  0
 48 51  1  0  0  0  0
 49 52  2  0  0  0  0
 50 48  2  0  0  0  0
 50 49  1  0  0  0  0
 51 47  2  0  0  0  0
 52 47  1  0  0  0  0
 52 46  1  0  0  0  0
 53 48  1  0  0  0  0
 53 55  1  0  0  0  0
 53 54  1  0  0  0  0
 55 54  1  0  0  0  0
M  END
>  <MODEL>
6

>  <REMARK>
 VINA RESULT:      -3.1      3.891      9.042
  Name = 
  13 active torsions:
  status: ('A' for Active; 'I' for Inactive)
    1  A    between atoms: C_1  and  C_53
    2  A    between atoms: C_6  and  C_14
    3  A    between atoms: C_6  and  C_20
    4  A    between atoms: C_6  and  C_53
    5  A    between atoms: C_8  and  C_20
    6  A    between atoms: C_8  and  C_43
    7  A    between atoms: C_10  and  C_32
    8  A    between atoms: C_11  and  C_29
    9  A    between atoms: C_11  and  O_38
   10  A    between atoms: C_26  and  C_45
   11  A    between atoms: C_33  and  C_49
   12  A    between atoms: C_33  and  C_52
   13  A    between atoms: O_38  and  C_53
                            x       y       z     vdW  Elec       q    Type
                         _______ _______ _______ _____ _____    ______ ____

>  <TORSDO>
F 13

$$$$
=
 OpenBabel10262420343D

 55 60  0  0  1  0  0  0  0  0999 V2000
  187.9320  179.2290  141.2970 C   0  0  0  0  0  2  0  0  0  0  0  0
  186.5100  179.2570  136.2110 C   0  0  0  0  0  2  0  0  0  0  0  0
  189.1750  178.3210  135.4910 C   0  0  0  0  0  2  0  0  0  0  0  0
  189.8170  177.9300  137.7870 C   0  0  0  0  0  2  0  0  0  0  0  0
  185.7180  178.3720  142.1870 C   0  0  0  0  0  2  0  0  0  0  0  0
  184.7660  177.8470  139.5610 C   0  0  1  0  0  3  0  0  0  0  0  0
  188.7660  177.9610  141.4200 C   0  0  0  0  0  2  0  0  0  0  0  0
  186.2620  178.0850  139.7550 C   0  0  0  0  0  2  0  0  0  0  0  0
  185.1640  179.1080  136.9110 C   0  0  0  0  0  2  0  0  0  0  0  0
  187.6650  179.2450  137.2040 C   0  0  0  0  0  2  0  0  0  0  0  0
  188.8000  178.3510  136.7700 C   0  0  0  0  0  0  0  0  0  0  0  0
  184.2740  178.1000  141.7640 C   0  0  0  0  0  2  0  0  0  0  0  0
  184.7060  177.6420  136.9940 C   0  0  2  0  0  0  0  0  0  0  0  0
  186.4610  178.9580  140.9900 C   0  0  2  0  0  3  0  0  0  0  0  0
  189.1630  177.2950  139.0090 C   0  0  2  0  0  3  0  0  0  0  0  0
  189.7720  177.9090  140.2770 C   0  0  2  0  0  3  0  0  0  0  0  0
  183.4440  177.5600  137.6140 O   0  0  0  0  0  0  0  0  0  0  0  0
  184.5150  176.9880  138.3280 C   0  0  2  0  0  3  0  0  0  0  0  0
  184.2450  177.1870  140.6920 O   0  0  0  0  0  0  0  0  0  0  0  0
  190.4970  175.2330  139.2150 O   0  0  0  0  0  0  0  0  0  0  0  0
  191.2750  175.3580  138.0470 C   0  0  0  0  0  2  0  0  0  0  0  0
  188.5590  175.1850  137.6720 C   0  0  2  0  0  3  0  0  0  0  0  0
  189.3510  173.9960  137.1380 C   0  0  0  0  0  2  0  0  0  0  0  0
  190.8310  174.3490  136.9870 C   0  0  0  0  0  2  0  0  0  0  0  0
  189.2000  175.7510  138.9600 C   0  0  2  0  0  3  0  0  0  0  0  0
  187.2480  174.7870  137.9300 O   0  0  0  0  0  1  0  0  0  0  0  0
  185.9270  176.0470  135.6830 F   0  0  0  0  0  0  0  0  0  0  0  0
  184.7270  176.7410  135.7350 C   0  0  0  0  0  0  0  0  0  0  0  0
  184.6460  177.5270  134.5980 F   0  0  0  0  0  0  0  0  0  0  0  0
  183.5460  175.7400  135.7630 C   0  0  1  0  0  3  0  0  0  0  0  0
  182.7710  175.8610  134.6040 O   0  0  0  0  0  1  0  0  0  0  0  0
  183.9220  174.2570  136.0240 C   0  0  2  0  0  0  0  0  0  0  0  0
  185.0260  174.2040  136.8800 O   0  0  0  0  0  1  0  0  0  0  0  0
  185.1850  172.5120  134.9410 F   0  0  0  0  0  0  0  0  0  0  0  0
  184.2990  173.5510  134.7170 C   0  0  0  0  0  2  0  0  0  0  0  0
  182.7440  173.5120  136.6930 C   0  0  2  0  0  3  0  0  0  0  0  0
  182.3190  172.2610  135.9150 C   0  0  2  0  0  3  0  0  0  0  0  0
  181.1550  172.4920  135.2050 F   0  0  0  0  0  0  0  0  0  0  0  0
  182.1280  171.1960  136.7940 O   0  0  0  0  0  1  0  0  0  0  0  0
  181.6440  174.3650  136.8720 O   0  0  0  0  0  0  0  0  0  0  0  0
  181.5870  175.1080  139.0290 O   0  0  0  0  0  1  0  0  0  0  0  0
  181.1720  174.0970  138.1610 C   0  0  1  0  0  3  0  0  0  0  0  0
  178.9340  174.9150  138.9130 O   0  0  0  0  0  1  0  0  0  0  0  0
  179.6830  174.0260  138.1530 C   0  0  0  0  0  0  0  0  0  0  0  0
  179.1040  173.1460  137.4650 O   0  0  0  0  0  0  0  0  0  0  0  0
  191.0840  177.2480  140.6970 C   0  0  0  0  0  2  0  0  0  0  0  0
  190.9210  176.0510  142.8880 C   0  0  0  0  0  3  0  0  0  0  0  0
  191.3990  177.1860  144.9810 C   0  0  0  0  0  0  0  0  0  0  0  0
  191.6130  178.3720  142.8720 C   0  0  0  0  0  3  0  0  0  0  0  0
  191.7110  178.3530  144.2660 C   0  0  0  0  0  3  0  0  0  0  0  0
  191.0190  176.0310  144.2820 C   0  0  0  0  0  3  0  0  0  0  0  0
  191.2150  177.2210  142.1820 C   0  0  0  0  0  0  0  0  0  0  0  0
  191.5500  177.1540  146.4720 C   0  0  0  0  0  3  0  0  0  0  0  0
  190.1860  177.2090  147.1430 C   0  0  0  0  0  2  0  0  0  0  0  0
  190.9210  175.8930  147.0440 C   0  0  0  0  0  2  0  0  0  0  0  0
  1  7  1  0  0  0  0
  2  9  1  0  0  0  0
  2 10  1  0  0  0  0
  3 11  2  0  0  0  0
  6  8  1  1  0  0  0
  6 19  1  0  0  0  0
  9 13  1  0  0  0  0
 11 10  1  0  0  0  0
 11  4  1  0  0  0  0
 12  5  1  0  0  0  0
 13 28  1  6  0  0  0
 13 17  1  0  0  0  0
 13 18  1  0  0  0  0
 14  8  1  6  0  0  0
 14  1  1  0  0  0  0
 14  5  1  0  0  0  0
 15  4  1  6  0  0  0
 15 16  1  0  0  0  0
 16 46  1  1  0  0  0
 16  7  1  0  0  0  0
 18 17  1  1  0  0  0
 18  6  1  0  0  0  0
 19 12  1  0  0  0  0
 21 20  1  0  0  0  0
 22 26  1  1  0  0  0
 22 25  1  0  0  0  0
 23 22  1  0  0  0  0
 24 23  1  0  0  0  0
 24 21  1  0  0  0  0
 25 15  1  0  0  0  0
 25 20  1  6  0  0  0
 27 28  1  0  0  0  0
 28 30  1  0  0  0  0
 29 28  1  0  0  0  0
 30 31  1  6  0  0  0
 30 32  1  0  0  0  0
 32 36  1  0  0  0  0
 32 33  1  1  0  0  0
 35 34  1  0  0  0  0
 35 32  1  0  0  0  0
 36 40  1  6  0  0  0
 37 38  1  1  0  0  0
 37 36  1  0  0  0  0
 37 39  1  0  0  0  0
 40 42  1  0  0  0  0
 42 41  1  1  0  0  0
 44 42  1  0  0  0  0
 44 43  1  0  0  0  0
 45 44  2  0  0  0  0
 46 52  1  0  0  0  0
 47 51  1  0  0  0  0
 48 53  1  0  0  0  0
 49 50  2  0  0  0  0
 50 48  1  0  0  0  0
 51 48  2  0  0  0  0
 52 49  1  0  0  0  0
 52 47  2  0  0  0  0
 53 55  1  0  0  0  0
 53 54  1  0  0  0  0
 55 54  1  0  0  0  0
M  END
>  <MODEL>
7

>  <REMARK>
 VINA RESULT:      -3.0      3.375      6.637
  Name = 
  13 active torsions:
  status: ('A' for Active; 'I' for Inactive)
    1  A    between atoms: C_1  and  C_53
    2  A    between atoms: C_6  and  C_14
    3  A    between atoms: C_6  and  C_20
    4  A    between atoms: C_6  and  C_53
    5  A    between atoms: C_8  and  C_20
    6  A    between atoms: C_8  and  C_43
    7  A    between atoms: C_10  and  C_32
    8  A    between atoms: C_11  and  C_29
    9  A    between atoms: C_11  and  O_38
   10  A    between atoms: C_26  and  C_45
   11  A    between atoms: C_33  and  C_49
   12  A    between atoms: C_33  and  C_52
   13  A    between atoms: O_38  and  C_53
                            x       y       z     vdW  Elec       q    Type
                         _______ _______ _______ _____ _____    ______ ____

>  <TORSDO>
F 13

$$$$
=
 OpenBabel10262420343D

 55 60  0  0  1  0  0  0  0  0999 V2000
  184.5810  175.9410  136.5230 C   0  0  0  0  0  2  0  0  0  0  0  0
  189.5040  177.1740  135.0600 C   0  0  0  0  0  2  0  0  0  0  0  0
  189.4350  179.4610  136.8660 C   0  0  0  0  0  2  0  0  0  0  0  0
  187.3390  178.7960  137.8660 C   0  0  0  0  0  2  0  0  0  0  0  0
  184.9300  173.4300  136.5390 C   0  0  0  0  0  2  0  0  0  0  0  0
  187.7330  173.7290  136.1810 C   0  0  1  0  0  3  0  0  0  0  0  0
  184.5830  176.2110  138.0210 C   0  0  0  0  0  2  0  0  0  0  0  0
  186.9240  174.9510  136.6090 C   0  0  0  0  0  2  0  0  0  0  0  0
  189.4540  175.6790  134.7640 C   0  0  0  0  0  2  0  0  0  0  0  0
  188.2150  177.6610  135.7100 C   0  0  0  0  0  2  0  0  0  0  0  0
  188.4610  178.5520  136.9020 C   0  0  0  0  0  0  0  0  0  0  0  0
  185.9300  172.3500  136.1240 C   0  0  0  0  0  2  0  0  0  0  0  0
  190.0430  174.8360  135.9070 C   0  0  2  0  0  0  0  0  0  0  0  0
  185.4900  174.7840  136.1150 C   0  0  2  0  0  3  0  0  0  0  0  0
  186.7400  177.4890  138.3740 C   0  0  2  0  0  3  0  0  0  0  0  0
  185.2110  177.5740  138.2860 C   0  0  2  0  0  3  0  0  0  0  0  0
  190.0090  173.4680  135.5710 O   0  0  0  0  0  0  0  0  0  0  0  0
  189.1800  173.8560  136.6410 C   0  0  2  0  0  3  0  0  0  0  0  0
  187.1710  172.5690  136.7510 O   0  0  0  0  0  0  0  0  0  0  0  0
  186.5880  177.7470  140.8210 O   0  0  0  0  0  0  0  0  0  0  0  0
  187.0610  179.0690  140.9320 C   0  0  0  0  0  2  0  0  0  0  0  0
  188.8190  177.2460  139.8660 C   0  0  2  0  0  3  0  0  0  0  0  0
  189.2320  177.8100  141.2220 C   0  0  0  0  0  2  0  0  0  0  0  0
  188.4660  179.0960  141.5360 C   0  0  0  0  0  2  0  0  0  0  0  0
  187.2830  177.0970  139.7670 C   0  0  2  0  0  3  0  0  0  0  0  0
  189.4290  176.0070  139.6770 O   0  0  0  0  0  1  0  0  0  0  0  0
  191.6890  174.3450  137.5810 F   0  0  0  0  0  0  0  0  0  0  0  0
  191.4240  175.1880  136.5120 C   0  0  0  0  0  0  0  0  0  0  0  0
  191.4030  176.4860  136.9960 F   0  0  0  0  0  0  0  0  0  0  0  0
  192.5380  175.0460  135.4470 C   0  0  1  0  0  3  0  0  0  0  0  0
  193.0470  176.3020  135.0950 O   0  0  0  0  0  1  0  0  0  0  0  0
  193.6870  174.0630  135.7960 C   0  0  2  0  0  0  0  0  0  0  0  0
  194.1190  173.4250  134.6290 O   0  0  0  0  0  1  0  0  0  0  0  0
  192.6420  171.9140  136.1120 F   0  0  0  0  0  0  0  0  0  0  0  0
  193.2080  172.9880  136.7760 C   0  0  0  0  0  2  0  0  0  0  0  0
  194.8830  174.8280  136.4100 C   0  0  2  0  0  3  0  0  0  0  0  0
  195.8410  175.3760  135.3450 C   0  0  2  0  0  3  0  0  0  0  0  0
  196.8920  174.5030  135.1300 F   0  0  0  0  0  0  0  0  0  0  0  0
  196.3370  176.6160  135.7450 O   0  0  0  0  0  1  0  0  0  0  0  0
  195.5840  174.0220  137.3200 O   0  0  0  0  0  0  0  0  0  0  0  0
  195.6480  174.8260  139.4540 O   0  0  0  0  0  1  0  0  0  0  0  0
  196.2250  174.9130  138.1870 C   0  0  1  0  0  3  0  0  0  0  0  0
  198.1440  173.3550  137.8210 O   0  0  0  0  0  0  0  0  0  0  0  0
  197.6750  174.5810  138.2750 C   0  0  0  0  0  0  0  0  0  0  0  0
  198.4760  175.4120  138.7780 O   0  0  0  0  0  1  0  0  0  0  0  0
  184.5740  178.2760  139.4850 C   0  0  0  0  0  2  0  0  0  0  0  0
  182.0980  178.0820  139.1810 C   0  0  0  0  0  3  0  0  0  0  0  0
  180.7800  179.9520  138.3670 C   0  0  0  0  0  0  0  0  0  0  0  0
  183.1750  180.1950  138.6900 C   0  0  0  0  0  3  0  0  0  0  0  0
  181.9410  180.7390  138.3220 C   0  0  0  0  0  3  0  0  0  0  0  0
  180.8640  178.6250  138.8140 C   0  0  0  0  0  3  0  0  0  0  0  0
  183.2550  178.8650  139.1180 C   0  0  0  0  0  0  0  0  0  0  0  0
  179.4510  180.5500  138.0170 C   0  0  0  0  0  3  0  0  0  0  0  0
  179.1700  181.7630  138.8900 C   0  0  0  0  0  2  0  0  0  0  0  0
  179.6280  181.9560  137.4630 C   0  0  0  0  0  2  0  0  0  0  0  0
  1  7  1  0  0  0  0
  2 10  1  0  0  0  0
  3 11  2  0  0  0  0
  6  8  1  1  0  0  0
  6 18  1  0  0  0  0
  6 19  1  0  0  0  0
  7 16  1  0  0  0  0
  9  2  1  0  0  0  0
  9 13  1  0  0  0  0
 10 11  1  0  0  0  0
 11  4  1  0  0  0  0
 12  5  1  0  0  0  0
 12 19  1  0  0  0  0
 13 28  1  1  0  0  0
 13 18  1  0  0  0  0
 14  1  1  1  0  0  0
 14  5  1  0  0  0  0
 14  8  1  0  0  0  0
 15  4  1  1  0  0  0
 15 25  1  0  0  0  0
 16 15  1  0  0  0  0
 16 46  1  1  0  0  0
 17 13  1  0  0  0  0
 18 17  1  6  0  0  0
 20 21  1  0  0  0  0
 21 24  1  0  0  0  0
 22 26  1  1  0  0  0
 22 23  1  0  0  0  0
 23 24  1  0  0  0  0
 25 22  1  0  0  0  0
 25 20  1  1  0  0  0
 28 29  1  0  0  0  0
 28 27  1  0  0  0  0
 30 31  1  1  0  0  0
 30 32  1  0  0  0  0
 30 28  1  0  0  0  0
 32 33  1  6  0  0  0
 32 36  1  0  0  0  0
 32 35  1  0  0  0  0
 34 35  1  0  0  0  0
 36 40  1  1  0  0  0
 37 38  1  1  0  0  0
 37 39  1  0  0  0  0
 37 36  1  0  0  0  0
 40 42  1  0  0  0  0
 42 44  1  0  0  0  0
 42 41  1  1  0  0  0
 43 44  2  0  0  0  0
 44 45  1  0  0  0  0
 48 51  1  0  0  0  0
 49 52  2  0  0  0  0
 50 48  2  0  0  0  0
 50 49  1  0  0  0  0
 51 47  2  0  0  0  0
 52 47  1  0  0  0  0
 52 46  1  0  0  0  0
 53 48  1  0  0  0  0
 53 54  1  0  0  0  0
 55 53  1  0  0  0  0
 55 54  1  0  0  0  0
M  END
>  <MODEL>
8

>  <REMARK>
 VINA RESULT:      -3.0      3.903     11.581
  Name = 
  13 active torsions:
  status: ('A' for Active; 'I' for Inactive)
    1  A    between atoms: C_1  and  C_53
    2  A    between atoms: C_6  and  C_14
    3  A    between atoms: C_6  and  C_20
    4  A    between atoms: C_6  and  C_53
    5  A    between atoms: C_8  and  C_20
    6  A    between atoms: C_8  and  C_43
    7  A    between atoms: C_10  and  C_32
    8  A    between atoms: C_11  and  C_29
    9  A    between atoms: C_11  and  O_38
   10  A    between atoms: C_26  and  C_45
   11  A    between atoms: C_33  and  C_49
   12  A    between atoms: C_33  and  C_52
   13  A    between atoms: O_38  and  C_53
                            x       y       z     vdW  Elec       q    Type
                         _______ _______ _______ _____ _____    ______ ____

>  <TORSDO>
F 13

$$$$
=
 OpenBabel10262420343D

 55 60  0  0  1  0  0  0  0  0999 V2000
  187.6560  179.3520  141.3140 C   0  0  0  0  0  2  0  0  0  0  0  0
  186.1250  179.2470  136.2610 C   0  0  0  0  0  2  0  0  0  0  0  0
  188.8200  178.4440  135.4920 C   0  0  0  0  0  2  0  0  0  0  0  0
  189.5310  178.1130  137.7770 C   0  0  0  0  0  2  0  0  0  0  0  0
  185.5110  178.3900  142.2620 C   0  0  0  0  0  2  0  0  0  0  0  0
  184.5310  177.7850  139.6640 C   0  0  1  0  0  3  0  0  0  0  0  0
  188.5590  178.1310  141.4320 C   0  0  0  0  0  2  0  0  0  0  0  0
  186.0170  178.1040  139.8210 C   0  0  0  0  0  2  0  0  0  0  0  0
  184.8040  179.0350  136.9930 C   0  0  0  0  0  2  0  0  0  0  0  0
  187.3000  179.3060  137.2290 C   0  0  0  0  0  2  0  0  0  0  0  0
  188.4710  178.4680  136.7790 C   0  0  0  0  0  0  0  0  0  0  0  0
  184.0740  178.0370  141.8740 C   0  0  0  0  0  2  0  0  0  0  0  0
  184.4270  177.5480  137.1000 C   0  0  2  0  0  0  0  0  0  0  0  0
  186.1950  179.0000  141.0430 C   0  0  2  0  0  3  0  0  0  0  0  0
  188.9380  177.4600  139.0200 C   0  0  2  0  0  3  0  0  0  0  0  0
  189.5410  178.1190  140.2670 C   0  0  2  0  0  3  0  0  0  0  0  0
  183.1840  177.4060  137.7500 O   0  0  0  0  0  0  0  0  0  0  0  0
  184.3000  176.9000  138.4450 C   0  0  2  0  0  3  0  0  0  0  0  0
  184.0700  177.1120  140.8130 O   0  0  0  0  0  0  0  0  0  0  0  0
  190.3840  175.4730  139.2150 O   0  0  0  0  0  0  0  0  0  0  0  0
  191.1270  175.6250  138.0280 C   0  0  0  0  0  2  0  0  0  0  0  0
  188.4160  175.3040  137.7190 C   0  0  2  0  0  3  0  0  0  0  0  0
  189.2570  174.1530  137.1790 C   0  0  0  0  0  2  0  0  0  0  0  0
  190.7130  174.5820  136.9900 C   0  0  0  0  0  2  0  0  0  0  0  0
  189.0560  175.9190  138.9860 C   0  0  2  0  0  3  0  0  0  0  0  0
  187.1340  174.8410  138.0120 O   0  0  0  0  0  1  0  0  0  0  0  0
  185.5840  175.8130  135.9160 F   0  0  0  0  0  0  0  0  0  0  0  0
  184.4680  176.6340  135.8510 C   0  0  0  0  0  0  0  0  0  0  0  0
  184.5830  177.4110  134.7100 F   0  0  0  0  0  0  0  0  0  0  0  0
  183.1870  175.7690  135.7670 C   0  0  1  0  0  3  0  0  0  0  0  0
  182.4770  176.0530  134.5940 O   0  0  0  0  0  1  0  0  0  0  0  0
  183.3910  174.2400  135.9320 C   0  0  2  0  0  0  0  0  0  0  0  0
  184.2800  174.0040  136.9840 O   0  0  0  0  0  1  0  0  0  0  0  0
  184.9630  172.6930  134.9580 F   0  0  0  0  0  0  0  0  0  0  0  0
  183.9860  173.6270  134.6600 C   0  0  0  0  0  2  0  0  0  0  0  0
  182.0460  173.5490  136.2590 C   0  0  2  0  0  3  0  0  0  0  0  0
  181.0740  174.4730  137.0020 C   0  0  2  0  0  3  0  0  0  0  0  0
  181.5190  174.7300  138.2860 F   0  0  0  0  0  0  0  0  0  0  0  0
  179.8080  173.8900  137.0520 O   0  0  0  0  0  1  0  0  0  0  0  0
  182.2500  172.3720  136.9960 O   0  0  0  0  0  0  0  0  0  0  0  0
  181.3150  171.8640  134.9770 O   0  0  0  0  0  1  0  0  0  0  0  0
  181.8400  171.3320  136.1550 C   0  0  1  0  0  3  0  0  0  0  0  0
  184.0980  170.4020  136.6800 O   0  0  0  0  0  1  0  0  0  0  0  0
  182.9990  170.4530  135.8330 C   0  0  0  0  0  0  0  0  0  0  0  0
  182.9870  169.7650  134.7780 O   0  0  0  0  0  0  0  0  0  0  0  0
  190.8950  177.5330  140.6650 C   0  0  0  0  0  2  0  0  0  0  0  0
  190.7250  178.5980  142.9220 C   0  0  0  0  0  3  0  0  0  0  0  0
  191.3600  177.3930  144.9340 C   0  0  0  0  0  0  0  0  0  0  0  0
  191.4980  176.3080  142.7650 C   0  0  0  0  0  3  0  0  0  0  0  0
  191.6530  176.2640  144.1540 C   0  0  0  0  0  3  0  0  0  0  0  0
  190.8790  178.5550  144.3110 C   0  0  0  0  0  3  0  0  0  0  0  0
  191.0360  177.4760  142.1480 C   0  0  0  0  0  0  0  0  0  0  0  0
  191.4820  177.3300  146.4260 C   0  0  0  0  0  3  0  0  0  0  0  0
  190.2350  176.7050  147.0330 C   0  0  0  0  0  2  0  0  0  0  0  0
  191.4960  175.8840  146.8980 C   0  0  0  0  0  2  0  0  0  0  0  0
  1  7  1  0  0  0  0
  2  9  1  0  0  0  0
  2 10  1  0  0  0  0
  3 11  2  0  0  0  0
  6  8  1  1  0  0  0
  6 19  1  0  0  0  0
  9 13  1  0  0  0  0
 11 10  1  0  0  0  0
 11  4  1  0  0  0  0
 12  5  1  0  0  0  0
 13 28  1  6  0  0  0
 13 17  1  0  0  0  0
 13 18  1  0  0  0  0
 14  8  1  6  0  0  0
 14  1  1  0  0  0  0
 14  5  1  0  0  0  0
 15  4  1  6  0  0  0
 15 16  1  0  0  0  0
 16 46  1  1  0  0  0
 16  7  1  0  0  0  0
 18 17  1  1  0  0  0
 18  6  1  0  0  0  0
 19 12  1  0  0  0  0
 21 20  1  0  0  0  0
 22 26  1  1  0  0  0
 22 25  1  0  0  0  0
 23 22  1  0  0  0  0
 24 23  1  0  0  0  0
 24 21  1  0  0  0  0
 25 15  1  0  0  0  0
 25 20  1  6  0  0  0
 28 27  1  0  0  0  0
 29 28  1  0  0  0  0
 30 31  1  6  0  0  0
 30 28  1  0  0  0  0
 30 32  1  0  0  0  0
 32 36  1  0  0  0  0
 32 33  1  1  0  0  0
 35 34  1  0  0  0  0
 35 32  1  0  0  0  0
 36 40  1  1  0  0  0
 36 37  1  0  0  0  0
 37 39  1  1  0  0  0
 37 38  1  0  0  0  0
 42 41  1  6  0  0  0
 42 40  1  0  0  0  0
 44 42  1  0  0  0  0
 44 43  1  0  0  0  0
 45 44  2  0  0  0  0
 46 52  1  0  0  0  0
 47 51  1  0  0  0  0
 48 53  1  0  0  0  0
 49 50  2  0  0  0  0
 50 48  1  0  0  0  0
 51 48  2  0  0  0  0
 52 49  1  0  0  0  0
 52 47  2  0  0  0  0
 53 55  1  0  0  0  0
 53 54  1  0  0  0  0
 55 54  1  0  0  0  0
M  END
>  <MODEL>
9

>  <REMARK>
 VINA RESULT:      -2.5      3.347      7.034
  Name = 
  13 active torsions:
  status: ('A' for Active; 'I' for Inactive)
    1  A    between atoms: C_1  and  C_53
    2  A    between atoms: C_6  and  C_14
    3  A    between atoms: C_6  and  C_20
    4  A    between atoms: C_6  and  C_53
    5  A    between atoms: C_8  and  C_20
    6  A    between atoms: C_8  and  C_43
    7  A    between atoms: C_10  and  C_32
    8  A    between atoms: C_11  and  C_29
    9  A    between atoms: C_11  and  O_38
   10  A    between atoms: C_26  and  C_45
   11  A    between atoms: C_33  and  C_49
   12  A    between atoms: C_33  and  C_52
   13  A    between atoms: O_38  and  C_53
                            x       y       z     vdW  Elec       q    Type
                         _______ _______ _______ _____ _____    ______ ____

>  <TORSDO>
F 13

$$$$
