=
 OpenBabel10262422533D

 37 39  0  0  1  0  0  0  0  0999 V2000
  189.6090  177.0880  142.8480 C   0  0  1  0  0  0  0  0  0  0  0  0
  191.0930  177.0000  139.9610 C   0  0  0  0  0  0  0  0  0  0  0  0
  187.9800  178.8090  138.7880 C   0  0  0  0  0  3  0  0  0  0  0  0
  189.7860  177.5730  144.3140 C   0  0  2  0  0  3  0  0  0  0  0  0
  184.6800  178.5170  143.0580 C   0  0  0  0  0  2  0  0  0  0  0  0
  189.4520  176.1440  138.3590 C   0  0  0  0  0  3  0  0  0  0  0  0
  186.9660  178.8920  144.0710 C   0  0  0  0  0  2  0  0  0  0  0  0
  186.1970  177.0370  145.3320 F   0  0  0  0  0  0  0  0  0  0  0  0
  189.2680  178.5420  139.0050 C   0  0  0  0  0  3  0  0  0  0  0  0
  184.3490  178.1890  140.5840 C   0  0  0  0  0  3  0  0  0  0  0  0
  188.3090  176.1070  137.4260 C   0  0  0  0  0  3  0  0  0  0  0  0
  188.5510  177.3120  145.2150 C   0  0  2  0  0  3  0  0  0  0  0  0
  190.8740  176.6490  142.3810 O   0  0  0  0  0  0  0  0  0  0  0  0
  191.5500  178.2150  140.4490 F   0  0  0  0  0  0  0  0  0  0  0  0
  185.5670  178.4040  138.4570 C   0  0  0  0  0  2  0  0  0  0  0  0
  187.2020  176.8390  137.5320 C   0  0  0  0  0  3  0  0  0  0  0  0
  190.7480  176.0470  141.1100 C   0  0  0  0  0  2  0  0  0  0  0  0
  187.2080  177.4220  144.4710 C   0  0  2  0  0  0  0  0  0  0  0  0
  186.0640  179.1150  142.8580 C   0  0  0  0  0  2  0  0  0  0  0  0
  186.9240  177.7540  138.6780 C   0  0  1  0  0  3  0  0  0  0  0  0
  188.5610  175.9570  142.8230 C   0  0  0  0  0  2  0  0  0  0  0  0
  189.8720  177.1910  139.0930 C   0  0  0  0  0  0  0  0  0  0  0  0
  183.7880  178.7770  141.8470 C   0  0  1  0  0  3  0  0  0  0  0  0
  192.1090  176.4330  139.2110 F   0  0  0  0  0  0  0  0  0  0  0  0
  187.1820  176.4640  143.2590 C   0  0  0  0  0  2  0  0  0  0  0  0
  188.5680  178.0840  146.3810 O   0  0  0  0  0  1  0  0  0  0  0  0
  189.1550  178.1490  142.0520 O   0  0  0  0  0  1  0  0  0  0  0  0
  185.0100  178.9650  139.7260 C   0  0  0  0  0  3  0  0  0  0  0  0
  191.8010  179.0650  144.2270 C   0  0  0  0  0  1  0  0  0  0  0  0
  190.2970  179.0150  144.4140 C   0  0  0  0  0  2  0  0  0  0  0  0
  182.3490  178.3160  142.1210 C   0  0  2  0  0  3  0  0  0  0  0  0
  181.5610  177.8900  140.8720 C   0  0  0  0  0  2  0  0  0  0  0  0
  181.2520  179.7720  139.2580 C   0  0  0  0  0  1  0  0  0  0  0  0
  180.6010  178.9570  140.3590 C   0  0  0  0  0  2  0  0  0  0  0  0
  181.6510  179.2620  142.8780 O   0  0  0  0  0  0  0  0  0  0  0  0
  179.7150  178.5930  144.0840 C   0  0  0  0  0  1  0  0  0  0  0  0
  181.2280  178.5710  144.0150 C   0  0  0  0  0  2  0  0  0  0  0  0
  1 27  1  6  0  0  0
  1  4  1  0  0  0  0
  2 14  1  0  0  0  0
  2 17  1  0  0  0  0
  3  9  2  0  0  0  0
  4 30  1  6  0  0  0
  4 12  1  0  0  0  0
  6 22  2  0  0  0  0
  7 18  1  0  0  0  0
  9 22  1  0  0  0  0
 10 23  1  0  0  0  0
 11 16  2  0  0  0  0
 11  6  1  0  0  0  0
 12 26  1  1  0  0  0
 13  1  1  0  0  0  0
 15 20  1  0  0  0  0
 15 28  1  0  0  0  0
 17 13  1  0  0  0  0
 18 12  1  0  0  0  0
 18  8  1  1  0  0  0
 19  5  1  0  0  0  0
 19  7  1  0  0  0  0
 20 16  1  6  0  0  0
 20  3  1  0  0  0  0
 21  1  1  0  0  0  0
 21 25  1  0  0  0  0
 22  2  1  0  0  0  0
 23 31  1  1  0  0  0
 23  5  1  0  0  0  0
 24  2  1  0  0  0  0
 25 18  1  0  0  0  0
 28 10  2  0  0  0  0
 29 30  1  0  0  0  0
 31 32  1  6  0  0  0
 31 35  1  0  0  0  0
 33 34  1  0  0  0  0
 34 32  1  0  0  0  0
 35 37  1  0  0  0  0
 37 36  1  0  0  0  0
M  END
>  <MODEL>
1

>  <REMARK>
 VINA RESULT:      -6.6      0.000      0.000
  Name = 
  6 active torsions:
  status: ('A' for Active; 'I' for Inactive)
    1  A    between atoms: C_2  and  C_6
    2  A    between atoms: C_2  and  C_35
    3  A    between atoms: C_5  and  C_23
    4  A    between atoms: C_6  and  O_8
    5  A    between atoms: C_6  and  C_31
    6  A    between atoms: O_8  and  C_19
                            x       y       z     vdW  Elec       q    Type
                         _______ _______ _______ _____ _____    ______ ____

>  <TORSDO>
F 6

$$$$
=
 OpenBabel10262422533D

 37 39  0  0  1  0  0  0  0  0999 V2000
  186.9820  177.8140  146.0950 C   0  0  1  0  0  0  0  0  0  0  0  0
  190.0760  177.3690  146.9770 C   0  0  0  0  0  0  0  0  0  0  0  0
  190.8000  178.5490  143.4520 C   0  0  0  0  0  3  0  0  0  0  0  0
  185.6860  178.5790  146.4800 C   0  0  2  0  0  3  0  0  0  0  0  0
  185.9140  178.6640  141.1430 C   0  0  0  0  0  2  0  0  0  0  0  0
  191.1230  176.0440  145.2050 C   0  0  0  0  0  3  0  0  0  0  0  0
  185.5030  179.4870  143.4980 C   0  0  0  0  0  2  0  0  0  0  0  0
  183.8300  177.8200  143.2880 F   0  0  0  0  0  0  0  0  0  0  0  0
  190.8340  178.4820  144.7830 C   0  0  0  0  0  3  0  0  0  0  0  0
  188.1730  177.8480  140.3860 C   0  0  0  0  0  3  0  0  0  0  0  0
  191.7630  175.7000  143.9200 C   0  0  0  0  0  3  0  0  0  0  0  0
  184.5050  178.3440  145.5020 C   0  0  2  0  0  3  0  0  0  0  0  0
  187.6430  177.4480  147.2960 O   0  0  0  0  0  0  0  0  0  0  0  0
  189.8960  178.6990  147.3270 F   0  0  0  0  0  0  0  0  0  0  0  0
  190.5230  177.8080  141.1130 C   0  0  0  0  0  2  0  0  0  0  0  0
  191.5310  176.3030  142.7560 C   0  0  0  0  0  3  0  0  0  0  0  0
  188.7450  176.6100  147.0160 C   0  0  0  0  0  2  0  0  0  0  0  0
  184.9420  178.1560  144.0380 C   0  0  2  0  0  0  0  0  0  0  0  0
  186.5060  179.3750  142.3510 C   0  0  0  0  0  2  0  0  0  0  0  0
  190.5090  177.3750  142.5710 C   0  0  1  0  0  3  0  0  0  0  0  0
  186.5990  176.5820  145.2500 C   0  0  0  0  0  2  0  0  0  0  0  0
  190.6720  177.2500  145.5940 C   0  0  0  0  0  0  0  0  0  0  0  0
  186.9240  178.5890  140.0010 C   0  0  1  0  0  3  0  0  0  0  0  0
  190.9340  176.7970  147.9000 F   0  0  0  0  0  0  0  0  0  0  0  0
  185.9540  176.9940  143.9220 C   0  0  0  0  0  2  0  0  0  0  0  0
  183.5070  179.3160  145.6290 O   0  0  0  0  0  1  0  0  0  0  0  0
  187.8140  178.6480  145.3340 O   0  0  0  0  0  1  0  0  0  0  0  0
  189.2650  178.5240  140.7370 C   0  0  0  0  0  3  0  0  0  0  0  0
  186.2470  180.2780  148.2380 C   0  0  0  0  0  1  0  0  0  0  0  0
  185.9270  180.0640  146.7710 C   0  0  0  0  0  2  0  0  0  0  0  0
  186.2710  178.0200  138.7340 C   0  0  2  0  0  3  0  0  0  0  0  0
  187.2600  177.5300  137.6630 C   0  0  0  0  0  2  0  0  0  0  0  0
  189.0790  179.1280  137.0440 C   0  0  0  0  0  1  0  0  0  0  0  0
  187.6960  178.6160  136.6870 C   0  0  0  0  0  2  0  0  0  0  0  0
  185.3330  178.9120  138.2030 O   0  0  0  0  0  0  0  0  0  0  0  0
  183.0130  178.9560  138.7120 C   0  0  0  0  0  1  0  0  0  0  0  0
  184.1540  178.1740  138.0980 C   0  0  0  0  0  2  0  0  0  0  0  0
  1 27  1  6  0  0  0
  1  4  1  0  0  0  0
  1 13  1  0  0  0  0
  2 17  1  0  0  0  0
  2 14  1  0  0  0  0
  2 24  1  0  0  0  0
  3  9  2  0  0  0  0
  4 30  1  6  0  0  0
  5 19  1  0  0  0  0
  6 22  2  0  0  0  0
  7 18  1  0  0  0  0
  9 22  1  0  0  0  0
 10 28  2  0  0  0  0
 11  6  1  0  0  0  0
 12 26  1  6  0  0  0
 12  4  1  0  0  0  0
 16 11  2  0  0  0  0
 17 13  1  0  0  0  0
 18  8  1  6  0  0  0
 18 12  1  0  0  0  0
 19  7  1  0  0  0  0
 20 15  1  6  0  0  0
 20 16  1  0  0  0  0
 20  3  1  0  0  0  0
 21  1  1  0  0  0  0
 22  2  1  0  0  0  0
 23 31  1  6  0  0  0
 23 10  1  0  0  0  0
 23  5  1  0  0  0  0
 25 18  1  0  0  0  0
 25 21  1  0  0  0  0
 28 15  1  0  0  0  0
 30 29  1  0  0  0  0
 31 32  1  6  0  0  0
 34 33  1  0  0  0  0
 34 32  1  0  0  0  0
 35 31  1  0  0  0  0
 37 35  1  0  0  0  0
 37 36  1  0  0  0  0
M  END
>  <MODEL>
2

>  <REMARK>
 VINA RESULT:      -5.6      2.920      5.570
  Name = 
  6 active torsions:
  status: ('A' for Active; 'I' for Inactive)
    1  A    between atoms: C_2  and  C_6
    2  A    between atoms: C_2  and  C_35
    3  A    between atoms: C_5  and  C_23
    4  A    between atoms: C_6  and  O_8
    5  A    between atoms: C_6  and  C_31
    6  A    between atoms: O_8  and  C_19
                            x       y       z     vdW  Elec       q    Type
                         _______ _______ _______ _____ _____    ______ ____

>  <TORSDO>
F 6

$$$$
=
 OpenBabel10262422533D

 37 39  0  0  1  0  0  0  0  0999 V2000
  190.5740  177.4480  145.0060 C   0  0  1  0  0  0  0  0  0  0  0  0
  188.8930  177.4810  147.7850 C   0  0  0  0  0  0  0  0  0  0  0  0
  185.9100  177.0850  145.4840 C   0  0  0  0  0  3  0  0  0  0  0  0
  191.7150  176.7010  144.2620 C   0  0  2  0  0  3  0  0  0  0  0  0
  188.0230  177.8100  140.5630 C   0  0  0  0  0  2  0  0  0  0  0  0
  187.0830  179.1020  147.4860 C   0  0  0  0  0  3  0  0  0  0  0  0
  189.7940  176.5040  141.8070 C   0  0  0  0  0  2  0  0  0  0  0  0
  191.0770  178.2800  140.8990 F   0  0  0  0  0  0  0  0  0  0  0  0
  186.7690  176.8470  146.4770 C   0  0  0  0  0  3  0  0  0  0  0  0
  185.9250  178.6290  141.6880 C   0  0  0  0  0  3  0  0  0  0  0  0
  185.7960  179.6860  147.0600 C   0  0  0  0  0  3  0  0  0  0  0  0
  191.9750  177.2260  142.8260 C   0  0  2  0  0  3  0  0  0  0  0  0
  190.9090  177.4890  146.3840 O   0  0  0  0  0  0  0  0  0  0  0  0
  189.1190  176.1210  147.6360 F   0  0  0  0  0  0  0  0  0  0  0  0
  184.6550  178.3520  143.7780 C   0  0  0  0  0  2  0  0  0  0  0  0
  185.1400  179.3780  145.9430 C   0  0  0  0  0  3  0  0  0  0  0  0
  189.9890  178.2950  147.0910 C   0  0  0  0  0  2  0  0  0  0  0  0
  190.7060  177.7120  142.1050 C   0  0  2  0  0  0  0  0  0  0  0  0
  188.3030  176.8080  141.6730 C   0  0  0  0  0  2  0  0  0  0  0  0
  185.6700  178.4440  144.9070 C   0  0  1  0  0  3  0  0  0  0  0  0
  190.4310  178.8610  144.4060 C   0  0  0  0  0  2  0  0  0  0  0  0
  187.5510  177.8700  147.2120 C   0  0  0  0  0  0  0  0  0  0  0  0
  186.5260  178.0760  140.4280 C   0  0  1  0  0  3  0  0  0  0  0  0
  188.9190  177.7730  149.1380 F   0  0  0  0  0  0  0  0  0  0  0  0
  189.9960  178.8020  142.9370 C   0  0  0  0  0  2  0  0  0  0  0  0
  192.7030  176.3170  142.0500 O   0  0  0  0  0  1  0  0  0  0  0  0
  189.3660  176.7550  144.8350 O   0  0  0  0  0  1  0  0  0  0  0  0
  185.2710  177.8220  142.5230 C   0  0  0  0  0  3  0  0  0  0  0  0
  192.4770  174.5910  145.3860 C   0  0  0  0  0  1  0  0  0  0  0  0
  191.5730  175.1750  144.3170 C   0  0  0  0  0  2  0  0  0  0  0  0
  186.2380  178.9590  139.2050 C   0  0  2  0  0  3  0  0  0  0  0  0
  184.8350  178.7860  138.6020 C   0  0  0  0  0  2  0  0  0  0  0  0
  182.7010  179.0160  139.8820 C   0  0  0  0  0  1  0  0  0  0  0  0
  183.8040  179.7620  139.1560 C   0  0  0  0  0  2  0  0  0  0  0  0
  187.2390  178.8220  138.2360 O   0  0  0  0  0  0  0  0  0  0  0  0
  187.5400  176.9980  136.7430 C   0  0  0  0  0  1  0  0  0  0  0  0
  186.6330  178.1260  137.1900 C   0  0  0  0  0  2  0  0  0  0  0  0
  1 27  1  6  0  0  0
  1 13  1  0  0  0  0
  2 24  1  0  0  0  0
  3  9  2  0  0  0  0
  4 30  1  6  0  0  0
  4  1  1  0  0  0  0
  5 19  1  0  0  0  0
  7 18  1  0  0  0  0
  9 22  1  0  0  0  0
 10 28  2  0  0  0  0
 11  6  1  0  0  0  0
 12 26  1  6  0  0  0
 12  4  1  0  0  0  0
 13 17  1  0  0  0  0
 14  2  1  0  0  0  0
 16 11  2  0  0  0  0
 17  2  1  0  0  0  0
 18  8  1  6  0  0  0
 18 12  1  0  0  0  0
 18 25  1  0  0  0  0
 19  7  1  0  0  0  0
 20 15  1  6  0  0  0
 20  3  1  0  0  0  0
 20 16  1  0  0  0  0
 21  1  1  0  0  0  0
 22  6  2  0  0  0  0
 22  2  1  0  0  0  0
 23 31  1  6  0  0  0
 23  5  1  0  0  0  0
 23 10  1  0  0  0  0
 25 21  1  0  0  0  0
 28 15  1  0  0  0  0
 30 29  1  0  0  0  0
 31 32  1  6  0  0  0
 32 34  1  0  0  0  0
 34 33  1  0  0  0  0
 35 31  1  0  0  0  0
 36 37  1  0  0  0  0
 37 35  1  0  0  0  0
M  END
>  <MODEL>
3

>  <REMARK>
 VINA RESULT:      -5.5      2.388      6.209
  Name = 
  6 active torsions:
  status: ('A' for Active; 'I' for Inactive)
    1  A    between atoms: C_2  and  C_6
    2  A    between atoms: C_2  and  C_35
    3  A    between atoms: C_5  and  C_23
    4  A    between atoms: C_6  and  O_8
    5  A    between atoms: C_6  and  C_31
    6  A    between atoms: O_8  and  C_19
                            x       y       z     vdW  Elec       q    Type
                         _______ _______ _______ _____ _____    ______ ____

>  <TORSDO>
F 6

$$$$
=
 OpenBabel10262422533D

 37 39  0  0  1  0  0  0  0  0999 V2000
  186.9560  176.2650  136.1180 C   0  0  1  0  0  0  0  0  0  0  0  0
  183.7490  176.6720  135.8090 C   0  0  0  0  0  0  0  0  0  0  0  0
  184.1490  178.7710  138.9360 C   0  0  0  0  0  3  0  0  0  0  0  0
  188.3040  176.4590  135.3690 C   0  0  2  0  0  3  0  0  0  0  0  0
  189.2410  177.7890  140.4580 C   0  0  0  0  0  2  0  0  0  0  0  0
  182.7700  176.1880  137.9990 C   0  0  0  0  0  3  0  0  0  0  0  0
  189.3610  177.8920  137.9350 C   0  0  0  0  0  2  0  0  0  0  0  0
  190.5010  175.8600  138.3720 F   0  0  0  0  0  0  0  0  0  0  0  0
  183.8170  178.4260  137.6910 C   0  0  0  0  0  3  0  0  0  0  0  0
  187.0580  177.9440  141.7020 C   0  0  0  0  0  3  0  0  0  0  0  0
  182.3450  176.3640  139.4020 C   0  0  0  0  0  3  0  0  0  0  0  0
  189.5490  176.0740  136.2100 C   0  0  2  0  0  3  0  0  0  0  0  0
  185.9810  175.8800  135.1620 O   0  0  0  0  0  0  0  0  0  0  0  0
  184.2190  177.7590  135.0850 F   0  0  0  0  0  0  0  0  0  0  0  0
  184.6930  178.5150  141.3300 C   0  0  0  0  0  2  0  0  0  0  0  0
  182.9780  177.0990  140.3140 C   0  0  0  0  0  3  0  0  0  0  0  0
  184.7720  175.5320  135.8050 C   0  0  0  0  0  2  0  0  0  0  0  0
  189.3960  176.3660  137.7120 C   0  0  2  0  0  0  0  0  0  0  0  0
  188.6330  178.3690  139.1900 C   0  0  0  0  0  2  0  0  0  0  0  0
  184.2760  177.7910  140.0590 C   0  0  1  0  0  3  0  0  0  0  0  0
  187.1450  175.1940  137.2110 C   0  0  0  0  0  2  0  0  0  0  0  0
  183.4500  177.0630  137.2360 C   0  0  0  0  0  0  0  0  0  0  0  0
  188.5160  178.3020  141.7000 C   0  0  1  0  0  3  0  0  0  0  0  0
  182.5890  176.2240  135.2000 F   0  0  0  0  0  0  0  0  0  0  0  0
  188.1460  175.6550  138.2770 C   0  0  0  0  0  2  0  0  0  0  0  0
  190.7310  176.6130  135.6890 O   0  0  0  0  0  1  0  0  0  0  0  0
  186.5740  177.4710  136.7220 O   0  0  0  0  0  1  0  0  0  0  0  0
  186.1510  178.8450  141.3250 C   0  0  0  0  0  3  0  0  0  0  0  0
  187.0800  178.5070  134.5940 C   0  0  0  0  0  1  0  0  0  0  0  0
  188.4360  177.8390  134.7150 C   0  0  0  0  0  2  0  0  0  0  0  0
  189.2350  177.8440  142.9770 C   0  0  2  0  0  3  0  0  0  0  0  0
  190.6520  177.2920  142.7560 C   0  0  0  0  0  2  0  0  0  0  0  0
  191.1780  179.4300  143.9370 C   0  0  0  0  0  1  0  0  0  0  0  0
  191.7450  178.1240  143.4150 C   0  0  0  0  0  2  0  0  0  0  0  0
  188.4410  176.9570  143.7130 O   0  0  0  0  0  0  0  0  0  0  0  0
  187.1120  177.8370  145.4750 C   0  0  0  0  0  1  0  0  0  0  0  0
  188.4990  177.4280  145.0250 C   0  0  0  0  0  2  0  0  0  0  0  0
  1 27  1  1  0  0  0
  1 21  1  0  0  0  0
  2 22  1  0  0  0  0
  4 30  1  1  0  0  0
  4  1  1  0  0  0  0
  4 12  1  0  0  0  0
  5 23  1  0  0  0  0
  6 11  1  0  0  0  0
  7 19  1  0  0  0  0
  9  3  2  0  0  0  0
 11 16  2  0  0  0  0
 12 26  1  6  0  0  0
 12 18  1  0  0  0  0
 13 17  1  0  0  0  0
 13  1  1  0  0  0  0
 14  2  1  0  0  0  0
 17  2  1  0  0  0  0
 18  7  1  0  0  0  0
 18 25  1  0  0  0  0
 18  8  1  1  0  0  0
 19  5  1  0  0  0  0
 20  3  1  6  0  0  0
 20 16  1  0  0  0  0
 20 15  1  0  0  0  0
 21 25  1  0  0  0  0
 22  9  1  0  0  0  0
 22  6  2  0  0  0  0
 23 10  1  0  0  0  0
 23 31  1  1  0  0  0
 24  2  1  0  0  0  0
 28 15  1  0  0  0  0
 28 10  2  0  0  0  0
 29 30  1  0  0  0  0
 31 32  1  6  0  0  0
 31 35  1  0  0  0  0
 32 34  1  0  0  0  0
 34 33  1  0  0  0  0
 35 37  1  0  0  0  0
 37 36  1  0  0  0  0
M  END
>  <MODEL>
4

>  <REMARK>
 VINA RESULT:      -5.3      3.499      7.487
  Name = 
  6 active torsions:
  status: ('A' for Active; 'I' for Inactive)
    1  A    between atoms: C_2  and  C_6
    2  A    between atoms: C_2  and  C_35
    3  A    between atoms: C_5  and  C_23
    4  A    between atoms: C_6  and  O_8
    5  A    between atoms: C_6  and  C_31
    6  A    between atoms: O_8  and  C_19
                            x       y       z     vdW  Elec       q    Type
                         _______ _______ _______ _____ _____    ______ ____

>  <TORSDO>
F 6

$$$$
=
 OpenBabel10262422533D

 37 39  0  0  1  0  0  0  0  0999 V2000
  190.9200  177.3930  144.4510 C   0  0  1  0  0  0  0  0  0  0  0  0
  190.7890  177.0870  147.6820 C   0  0  0  0  0  0  0  0  0  0  0  0
  187.0580  176.8500  147.0760 C   0  0  0  0  0  3  0  0  0  0  0  0
  191.5410  176.7600  143.1750 C   0  0  2  0  0  3  0  0  0  0  0  0
  186.5540  178.1470  141.8530 C   0  0  0  0  0  2  0  0  0  0  0  0
  189.1020  178.6780  148.4650 C   0  0  0  0  0  3  0  0  0  0  0  0
  188.6700  176.7680  141.9440 C   0  0  0  0  0  2  0  0  0  0  0  0
  189.4020  178.6640  140.7240 F   0  0  0  0  0  0  0  0  0  0  0  0
  188.2820  176.5340  147.5010 C   0  0  0  0  0  3  0  0  0  0  0  0
  185.2810  178.7840  143.9300 C   0  0  0  0  0  3  0  0  0  0  0  0
  187.7850  179.2670  148.7770 C   0  0  0  0  0  3  0  0  0  0  0  0
  191.0910  177.4400  141.8550 C   0  0  2  0  0  3  0  0  0  0  0  0
  191.8790  177.2980  145.4920 O   0  0  0  0  0  0  0  0  0  0  0  0
  190.8800  175.7570  147.3000 F   0  0  0  0  0  0  0  0  0  0  0  0
  185.1690  178.2530  146.3310 C   0  0  0  0  0  2  0  0  0  0  0  0
  186.6640  179.0590  148.0890 C   0  0  0  0  0  3  0  0  0  0  0  0
  191.4360  178.0000  146.6350 C   0  0  0  0  0  2  0  0  0  0  0  0
  189.6440  177.9630  141.8910 C   0  0  2  0  0  0  0  0  0  0  0  0
  187.3080  177.0420  142.5780 C   0  0  0  0  0  2  0  0  0  0  0  0
  186.6040  178.2550  146.8330 C   0  0  1  0  0  3  0  0  0  0  0  0
  190.5430  178.8560  144.1470 C   0  0  0  0  0  2  0  0  0  0  0  0
  189.3480  177.4960  147.8720 C   0  0  0  0  0  0  0  0  0  0  0  0
  185.1840  178.3830  142.4860 C   0  0  1  0  0  3  0  0  0  0  0  0
  191.4720  177.2360  148.8760 F   0  0  0  0  0  0  0  0  0  0  0  0
  189.4520  178.9390  143.0730 C   0  0  0  0  0  2  0  0  0  0  0  0
  191.3300  176.6390  140.7340 O   0  0  0  0  0  1  0  0  0  0  0  0
  189.7630  176.6880  144.8110 O   0  0  0  0  0  1  0  0  0  0  0  0
  185.0890  177.8750  144.8860 C   0  0  0  0  0  3  0  0  0  0  0  0
  192.0590  174.6010  144.3430 C   0  0  0  0  0  1  0  0  0  0  0  0
  191.4040  175.2340  143.1300 C   0  0  0  0  0  2  0  0  0  0  0  0
  184.3660  179.3810  141.6540 C   0  0  2  0  0  3  0  0  0  0  0  0
  182.9160  178.9520  141.3780 C   0  0  0  0  0  2  0  0  0  0  0  0
  180.5680  178.8830  142.2310 C   0  0  0  0  0  1  0  0  0  0  0  0
  182.0330  178.9340  142.6200 C   0  0  0  0  0  2  0  0  0  0  0  0
  185.0370  179.7270  140.4760 O   0  0  0  0  0  0  0  0  0  0  0  0
  184.9090  178.5120  138.4380 C   0  0  0  0  0  1  0  0  0  0  0  0
  184.1680  179.3640  139.4470 C   0  0  0  0  0  2  0  0  0  0  0  0
  1 27  1  1  0  0  0
  1 13  1  0  0  0  0
  2 22  1  0  0  0  0
  2 24  1  0  0  0  0
  3  9  2  0  0  0  0
  4 30  1  6  0  0  0
  4  1  1  0  0  0  0
  5 23  1  0  0  0  0
  5 19  1  0  0  0  0
  6 11  1  0  0  0  0
  7 19  1  0  0  0  0
  9 22  1  0  0  0  0
 10 28  2  0  0  0  0
 12 26  1  6  0  0  0
 12 18  1  0  0  0  0
 12  4  1  0  0  0  0
 13 17  1  0  0  0  0
 14  2  1  0  0  0  0
 16 11  2  0  0  0  0
 17  2  1  0  0  0  0
 18  8  1  6  0  0  0
 18  7  1  0  0  0  0
 18 25  1  0  0  0  0
 20 15  1  1  0  0  0
 20  3  1  0  0  0  0
 20 16  1  0  0  0  0
 21  1  1  0  0  0  0
 22  6  2  0  0  0  0
 23 31  1  6  0  0  0
 23 10  1  0  0  0  0
 25 21  1  0  0  0  0
 28 15  1  0  0  0  0
 30 29  1  0  0  0  0
 31 32  1  6  0  0  0
 32 34  1  0  0  0  0
 33 34  1  0  0  0  0
 35 31  1  0  0  0  0
 36 37  1  0  0  0  0
 37 35  1  0  0  0  0
M  END
>  <MODEL>
5

>  <REMARK>
 VINA RESULT:      -5.0      2.633      6.066
  Name = 
  6 active torsions:
  status: ('A' for Active; 'I' for Inactive)
    1  A    between atoms: C_2  and  C_6
    2  A    between atoms: C_2  and  C_35
    3  A    between atoms: C_5  and  C_23
    4  A    between atoms: C_6  and  O_8
    5  A    between atoms: C_6  and  C_31
    6  A    between atoms: O_8  and  C_19
                            x       y       z     vdW  Elec       q    Type
                         _______ _______ _______ _____ _____    ______ ____

>  <TORSDO>
F 6

$$$$
=
 OpenBabel10262422533D

 37 39  0  0  1  0  0  0  0  0999 V2000
  186.8680  177.8680  145.8940 C   0  0  1  0  0  0  0  0  0  0  0  0
  189.9810  177.4140  146.7010 C   0  0  0  0  0  0  0  0  0  0  0  0
  190.6260  178.6210  143.1700 C   0  0  0  0  0  3  0  0  0  0  0  0
  185.5820  178.6320  146.3150 C   0  0  2  0  0  3  0  0  0  0  0  0
  185.6890  178.7590  140.9750 C   0  0  0  0  0  2  0  0  0  0  0  0
  190.9860  176.1020  144.8960 C   0  0  0  0  0  3  0  0  0  0  0  0
  185.3320  179.5640  143.3440 C   0  0  0  0  0  2  0  0  0  0  0  0
  183.6530  177.9000  143.1600 F   0  0  0  0  0  0  0  0  0  0  0  0
  190.6890  178.5430  144.5000 C   0  0  0  0  0  3  0  0  0  0  0  0
  187.9280  177.9460  140.1600 C   0  0  0  0  0  3  0  0  0  0  0  0
  191.5960  175.7680  143.5940 C   0  0  0  0  0  3  0  0  0  0  0  0
  184.3790  178.4060  145.3610 C   0  0  2  0  0  3  0  0  0  0  0  0
  187.5560  177.4930  147.0760 O   0  0  0  0  0  0  0  0  0  0  0  0
  189.8100  178.7410  147.0660 F   0  0  0  0  0  0  0  0  0  0  0  0
  190.2950  177.8980  140.8330 C   0  0  0  0  0  2  0  0  0  0  0  0
  191.3380  176.3800  142.4400 C   0  0  0  0  0  3  0  0  0  0  0  0
  188.6500  176.6570  146.7650 C   0  0  0  0  0  2  0  0  0  0  0  0
  184.7820  178.2290  143.8870 C   0  0  2  0  0  0  0  0  0  0  0  0
  186.3090  179.4590  142.1740 C   0  0  0  0  0  2  0  0  0  0  0  0
  190.3130  177.4540  142.2870 C   0  0  1  0  0  3  0  0  0  0  0  0
  186.4650  176.6430  145.0490 C   0  0  0  0  0  2  0  0  0  0  0  0
  190.5450  177.3060  145.3050 C   0  0  0  0  0  0  0  0  0  0  0  0
  186.6720  178.6920  139.8090 C   0  0  1  0  0  3  0  0  0  0  0  0
  190.8590  176.8340  147.6000 F   0  0  0  0  0  0  0  0  0  0  0  0
  185.7900  177.0670  143.7390 C   0  0  0  0  0  2  0  0  0  0  0  0
  183.3850  179.3780  145.5190 O   0  0  0  0  0  1  0  0  0  0  0  0
  187.6830  178.7080  145.1210 O   0  0  0  0  0  1  0  0  0  0  0  0
  189.0290  178.6190  140.4910 C   0  0  0  0  0  3  0  0  0  0  0  0
  186.2390  180.3100  148.0590 C   0  0  0  0  0  1  0  0  0  0  0  0
  185.8310  180.1150  146.6120 C   0  0  0  0  0  2  0  0  0  0  0  0
  185.9900  178.1320  138.5530 C   0  0  2  0  0  3  0  0  0  0  0  0
  184.5300  177.6940  138.7540 C   0  0  0  0  0  2  0  0  0  0  0  0
  183.0780  179.7220  138.9150 C   0  0  0  0  0  1  0  0  0  0  0  0
  183.5190  178.5740  138.0270 C   0  0  0  0  0  2  0  0  0  0  0  0
  186.7590  177.1210  137.9680 O   0  0  0  0  0  0  0  0  0  0  0  0
  187.6040  178.6260  136.3350 C   0  0  0  0  0  1  0  0  0  0  0  0
  186.7480  177.4060  136.6020 C   0  0  0  0  0  2  0  0  0  0  0  0
  1 27  1  6  0  0  0
  1  4  1  0  0  0  0
  1 13  1  0  0  0  0
  2 17  1  0  0  0  0
  2 14  1  0  0  0  0
  2 24  1  0  0  0  0
  3  9  2  0  0  0  0
  4 30  1  6  0  0  0
  5 19  1  0  0  0  0
  6 22  2  0  0  0  0
  7 18  1  0  0  0  0
  9 22  1  0  0  0  0
 10 28  2  0  0  0  0
 11  6  1  0  0  0  0
 12 26  1  6  0  0  0
 12  4  1  0  0  0  0
 16 11  2  0  0  0  0
 17 13  1  0  0  0  0
 18  8  1  6  0  0  0
 18 12  1  0  0  0  0
 19  7  1  0  0  0  0
 20 15  1  6  0  0  0
 20 16  1  0  0  0  0
 20  3  1  0  0  0  0
 21  1  1  0  0  0  0
 22  2  1  0  0  0  0
 23 31  1  6  0  0  0
 23 10  1  0  0  0  0
 23  5  1  0  0  0  0
 25 18  1  0  0  0  0
 25 21  1  0  0  0  0
 28 15  1  0  0  0  0
 30 29  1  0  0  0  0
 31 32  1  1  0  0  0
 34 32  1  0  0  0  0
 34 33  1  0  0  0  0
 35 31  1  0  0  0  0
 36 37  1  0  0  0  0
 37 35  1  0  0  0  0
M  END
>  <MODEL>
6

>  <REMARK>
 VINA RESULT:      -5.0      2.861      5.451
  Name = 
  6 active torsions:
  status: ('A' for Active; 'I' for Inactive)
    1  A    between atoms: C_2  and  C_6
    2  A    between atoms: C_2  and  C_35
    3  A    between atoms: C_5  and  C_23
    4  A    between atoms: C_6  and  O_8
    5  A    between atoms: C_6  and  C_31
    6  A    between atoms: O_8  and  C_19
                            x       y       z     vdW  Elec       q    Type
                         _______ _______ _______ _____ _____    ______ ____

>  <TORSDO>
F 6

$$$$
=
 OpenBabel10262422533D

 37 39  0  0  1  0  0  0  0  0999 V2000
  190.0680  177.3300  139.6650 C   0  0  1  0  0  0  0  0  0  0  0  0
  190.9230  176.5040  142.6870 C   0  0  0  0  0  0  0  0  0  0  0  0
  187.1800  176.3920  143.2550 C   0  0  0  0  0  3  0  0  0  0  0  0
  190.2270  176.9100  138.1780 C   0  0  2  0  0  3  0  0  0  0  0  0
  185.1630  178.5240  138.7170 C   0  0  0  0  0  2  0  0  0  0  0  0
  189.6550  177.9570  144.1940 C   0  0  0  0  0  3  0  0  0  0  0  0
  187.1220  177.1350  137.9270 C   0  0  0  0  0  2  0  0  0  0  0  0
  187.5480  179.2010  136.8430 F   0  0  0  0  0  0  0  0  0  0  0  0
  188.4560  176.0030  143.2210 C   0  0  0  0  0  3  0  0  0  0  0  0
  184.6320  178.8220  141.1600 C   0  0  0  0  0  3  0  0  0  0  0  0
  188.5330  178.4950  144.9890 C   0  0  0  0  0  3  0  0  0  0  0  0
  189.4310  177.7980  137.1870 C   0  0  2  0  0  3  0  0  0  0  0  0
  191.2940  177.0620  140.3250 O   0  0  0  0  0  0  0  0  0  0  0  0
  190.8160  175.2530  142.0980 F   0  0  0  0  0  0  0  0  0  0  0  0
  185.2370  177.9090  143.3640 C   0  0  0  0  0  2  0  0  0  0  0  0
  187.2450  178.4100  144.6650 C   0  0  0  0  0  3  0  0  0  0  0  0
  191.2660  177.5710  141.6430 C   0  0  0  0  0  2  0  0  0  0  0  0
  188.0980  178.3170  137.7540 C   0  0  2  0  0  0  0  0  0  0  0  0
  186.0400  177.3120  138.9910 C   0  0  0  0  0  2  0  0  0  0  0  0
  186.7540  177.8200  143.3840 C   0  0  1  0  0  3  0  0  0  0  0  0
  189.6980  178.8260  139.7220 C   0  0  0  0  0  2  0  0  0  0  0  0
  189.6370  176.8860  143.3800 C   0  0  0  0  0  0  0  0  0  0  0  0
  184.0710  178.6630  139.7760 C   0  0  1  0  0  3  0  0  0  0  0  0
  191.9490  176.4520  143.6150 F   0  0  0  0  0  0  0  0  0  0  0  0
  188.3360  179.0900  139.0710 C   0  0  0  0  0  2  0  0  0  0  0  0
  189.2660  177.1880  135.9380 O   0  0  0  0  0  1  0  0  0  0  0  0
  189.0400  176.5840  140.2590 O   0  0  0  0  0  1  0  0  0  0  0  0
  184.6930  177.7720  141.9770 C   0  0  0  0  0  3  0  0  0  0  0  0
  191.2970  174.7180  137.5920 C   0  0  0  0  0  1  0  0  0  0  0  0
  189.9960  175.4120  137.9470 C   0  0  0  0  0  2  0  0  0  0  0  0
  183.0940  179.7870  139.4050 C   0  0  2  0  0  3  0  0  0  0  0  0
  181.8560  179.8900  140.3110 C   0  0  0  0  0  2  0  0  0  0  0  0
  180.8870  178.5770  142.2030 C   0  0  0  0  0  1  0  0  0  0  0  0
  181.2990  178.5390  140.7440 C   0  0  0  0  0  2  0  0  0  0  0  0
  182.7430  179.7260  138.0520 O   0  0  0  0  0  0  0  0  0  0  0  0
  180.8060  180.1330  136.7370 C   0  0  0  0  0  1  0  0  0  0  0  0
  181.6320  180.5620  137.9320 C   0  0  0  0  0  2  0  0  0  0  0  0
  1 21  1  0  0  0  0
  1 27  1  1  0  0  0
  1 13  1  0  0  0  0
  2 22  1  0  0  0  0
  2 24  1  0  0  0  0
  4 30  1  1  0  0  0
  4  1  1  0  0  0  0
  5 19  1  0  0  0  0
  5 23  1  0  0  0  0
  6 11  1  0  0  0  0
  7 19  1  0  0  0  0
  9  3  2  0  0  0  0
  9 22  1  0  0  0  0
 10 28  2  0  0  0  0
 12 26  1  6  0  0  0
 12 18  1  0  0  0  0
 12  4  1  0  0  0  0
 13 17  1  0  0  0  0
 14  2  1  0  0  0  0
 15 20  1  0  0  0  0
 16 11  2  0  0  0  0
 17  2  1  0  0  0  0
 18  8  1  6  0  0  0
 18  7  1  0  0  0  0
 18 25  1  0  0  0  0
 20  3  1  1  0  0  0
 20 16  1  0  0  0  0
 22  6  2  0  0  0  0
 23 31  1  6  0  0  0
 23 10  1  0  0  0  0
 25 21  1  0  0  0  0
 28 15  1  0  0  0  0
 29 30  1  0  0  0  0
 31 32  1  1  0  0  0
 32 34  1  0  0  0  0
 34 33  1  0  0  0  0
 35 31  1  0  0  0  0
 36 37  1  0  0  0  0
 37 35  1  0  0  0  0
M  END
>  <MODEL>
7

>  <REMARK>
 VINA RESULT:      -4.2      2.173      5.388
  Name = 
  6 active torsions:
  status: ('A' for Active; 'I' for Inactive)
    1  A    between atoms: C_2  and  C_6
    2  A    between atoms: C_2  and  C_35
    3  A    between atoms: C_5  and  C_23
    4  A    between atoms: C_6  and  O_8
    5  A    between atoms: C_6  and  C_31
    6  A    between atoms: O_8  and  C_19
                            x       y       z     vdW  Elec       q    Type
                         _______ _______ _______ _____ _____    ______ ____

>  <TORSDO>
F 6

$$$$
=
 OpenBabel10262422533D

 37 39  0  0  1  0  0  0  0  0999 V2000
  184.8260  176.3220  135.9760 C   0  0  1  0  0  0  0  0  0  0  0  0
  188.0410  176.3190  135.5180 C   0  0  0  0  0  0  0  0  0  0  0  0
  188.1450  176.7520  139.2790 C   0  0  0  0  0  3  0  0  0  0  0  0
  183.5440  175.4780  135.7380 C   0  0  2  0  0  3  0  0  0  0  0  0
  182.9800  177.6800  140.5730 C   0  0  0  0  0  2  0  0  0  0  0  0
  188.9190  178.2640  136.7160 C   0  0  0  0  0  3  0  0  0  0  0  0
  182.8540  175.9330  138.7500 C   0  0  0  0  0  2  0  0  0  0  0  0
  181.3060  177.5450  137.9580 F   0  0  0  0  0  0  0  0  0  0  0  0
  188.3780  176.2440  138.0680 C   0  0  0  0  0  3  0  0  0  0  0  0
  185.1600  178.7200  141.2820 C   0  0  0  0  0  3  0  0  0  0  0  0
  189.3890  179.1190  137.8240 C   0  0  0  0  0  3  0  0  0  0  0  0
  182.2550  176.1190  136.3160 C   0  0  2  0  0  3  0  0  0  0  0  0
  185.6830  176.1330  134.8620 O   0  0  0  0  0  0  0  0  0  0  0  0
  187.8100  174.9690  135.7340 F   0  0  0  0  0  0  0  0  0  0  0  0
  187.5880  178.4240  141.0070 C   0  0  0  0  0  2  0  0  0  0  0  0
  188.9420  179.0730  139.0780 C   0  0  0  0  0  3  0  0  0  0  0  0
  186.7950  177.0000  134.9430 C   0  0  0  0  0  2  0  0  0  0  0  0
  182.4860  176.9100  137.6150 C   0  0  2  0  0  0  0  0  0  0  0  0
  183.6840  176.5160  139.8930 C   0  0  0  0  0  2  0  0  0  0  0  0
  187.8220  178.1930  139.5220 C   0  0  1  0  0  3  0  0  0  0  0  0
  184.4230  177.8010  136.1490 C   0  0  0  0  0  2  0  0  0  0  0  0
  188.4360  177.0110  136.8000 C   0  0  0  0  0  0  0  0  0  0  0  0
  183.8140  178.2270  141.7290 C   0  0  1  0  0  3  0  0  0  0  0  0
  189.0680  176.4340  134.5970 F   0  0  0  0  0  0  0  0  0  0  0  0
  183.5590  178.0010  137.3990 C   0  0  0  0  0  2  0  0  0  0  0  0
  181.2120  175.1950  136.4450 O   0  0  0  0  0  1  0  0  0  0  0  0
  185.4680  175.8860  137.1440 O   0  0  0  0  0  1  0  0  0  0  0  0
  186.2360  177.9490  141.4340 C   0  0  0  0  0  3  0  0  0  0  0  0
  183.4490  173.0950  134.9590 C   0  0  0  0  0  1  0  0  0  0  0  0
  183.7060  174.0080  136.1430 C   0  0  0  0  0  2  0  0  0  0  0  0
  183.0300  179.2890  142.5110 C   0  0  2  0  0  3  0  0  0  0  0  0
  183.0750  179.1280  144.0390 C   0  0  0  0  0  2  0  0  0  0  0  0
  184.7490  178.6470  145.8310 C   0  0  0  0  0  1  0  0  0  0  0  0
  184.4000  179.5490  144.6630 C   0  0  0  0  0  2  0  0  0  0  0  0
  181.7170  179.3970  142.0400 O   0  0  0  0  0  0  0  0  0  0  0  0
  179.5790  178.7540  142.8540 C   0  0  0  0  0  1  0  0  0  0  0  0
  180.9210  179.3730  143.1860 C   0  0  0  0  0  2  0  0  0  0  0  0
  1 21  1  0  0  0  0
  1 27  1  1  0  0  0
  2 14  1  0  0  0  0
  2 22  1  0  0  0  0
  3 20  1  0  0  0  0
  4  1  1  0  0  0  0
  4 30  1  1  0  0  0
  4 12  1  0  0  0  0
  5 23  1  0  0  0  0
  6 22  2  0  0  0  0
  6 11  1  0  0  0  0
  7 19  1  0  0  0  0
  9  3  2  0  0  0  0
 10 28  2  0  0  0  0
 10 23  1  0  0  0  0
 11 16  2  0  0  0  0
 12 26  1  1  0  0  0
 12 18  1  0  0  0  0
 13 17  1  0  0  0  0
 13  1  1  0  0  0  0
 15 28  1  0  0  0  0
 17  2  1  0  0  0  0
 18  8  1  1  0  0  0
 18  7  1  0  0  0  0
 19  5  1  0  0  0  0
 20 16  1  1  0  0  0
 20 15  1  0  0  0  0
 21 25  1  0  0  0  0
 22  9  1  0  0  0  0
 23 31  1  6  0  0  0
 24  2  1  0  0  0  0
 25 18  1  0  0  0  0
 29 30  1  0  0  0  0
 31 32  1  1  0  0  0
 32 34  1  0  0  0  0
 34 33  1  0  0  0  0
 35 31  1  0  0  0  0
 35 37  1  0  0  0  0
 36 37  1  0  0  0  0
M  END
>  <MODEL>
8

>  <REMARK>
 VINA RESULT:      -4.1      3.724      6.594
  Name = 
  6 active torsions:
  status: ('A' for Active; 'I' for Inactive)
    1  A    between atoms: C_2  and  C_6
    2  A    between atoms: C_2  and  C_35
    3  A    between atoms: C_5  and  C_23
    4  A    between atoms: C_6  and  O_8
    5  A    between atoms: C_6  and  C_31
    6  A    between atoms: O_8  and  C_19
                            x       y       z     vdW  Elec       q    Type
                         _______ _______ _______ _____ _____    ______ ____

>  <TORSDO>
F 6

$$$$
=
 OpenBabel10262422533D

 37 39  0  0  1  0  0  0  0  0999 V2000
  184.9290  174.0010  135.6250 C   0  0  1  0  0  0  0  0  0  0  0  0
  188.1460  174.4390  135.5700 C   0  0  0  0  0  0  0  0  0  0  0  0
  187.4470  176.7630  138.4770 C   0  0  0  0  0  3  0  0  0  0  0  0
  183.8330  172.9070  135.7560 C   0  0  2  0  0  3  0  0  0  0  0  0
  182.0540  177.1140  138.5270 C   0  0  0  0  0  2  0  0  0  0  0  0
  188.5220  176.8570  135.5980 C   0  0  0  0  0  3  0  0  0  0  0  0
  182.5080  174.6960  137.9470 C   0  0  0  0  0  2  0  0  0  0  0  0
  180.9620  175.2980  136.2530 F   0  0  0  0  0  0  0  0  0  0  0  0
  187.9770  175.7650  137.7690 C   0  0  0  0  0  3  0  0  0  0  0  0
  183.9050  178.8030  138.7720 C   0  0  0  0  0  3  0  0  0  0  0  0
  188.6540  178.2370  136.1040 C   0  0  0  0  0  3  0  0  0  0  0  0
  182.3860  173.4660  135.7580 C   0  0  2  0  0  3  0  0  0  0  0  0
  186.0060  173.4480  134.8860 O   0  0  0  0  0  0  0  0  0  0  0  0
  188.0440  173.3810  136.4620 F   0  0  0  0  0  0  0  0  0  0  0  0
  186.3560  178.9260  138.9500 C   0  0  0  0  0  2  0  0  0  0  0  0
  187.9760  178.7530  137.1270 C   0  0  0  0  0  3  0  0  0  0  0  0
  186.9650  174.4440  134.5940 C   0  0  0  0  0  2  0  0  0  0  0  0
  182.2560  174.8430  136.4330 C   0  0  2  0  0  0  0  0  0  0  0  0
  183.0170  175.9450  138.6650 C   0  0  0  0  0  2  0  0  0  0  0  0
  186.9070  178.0160  137.8630 C   0  0  1  0  0  3  0  0  0  0  0  0
  184.3200  175.2320  134.9230 C   0  0  0  0  0  2  0  0  0  0  0  0
  188.1900  175.7590  136.3010 C   0  0  0  0  0  0  0  0  0  0  0  0
  182.5680  178.3410  139.2770 C   0  0  1  0  0  3  0  0  0  0  0  0
  189.3140  174.2740  134.8440 F   0  0  0  0  0  0  0  0  0  0  0  0
  183.2070  175.8620  135.7670 C   0  0  0  0  0  2  0  0  0  0  0  0
  181.4600  172.5460  136.2620 O   0  0  0  0  0  1  0  0  0  0  0  0
  185.3750  174.3770  136.9000 O   0  0  0  0  0  1  0  0  0  0  0  0
  185.0150  178.4680  139.4270 C   0  0  0  0  0  3  0  0  0  0  0  0
  183.8090  170.5050  136.4780 C   0  0  0  0  0  1  0  0  0  0  0  0
  184.0920  171.9310  136.9090 C   0  0  0  0  0  2  0  0  0  0  0  0
  181.5190  179.4610  139.2700 C   0  0  2  0  0  3  0  0  0  0  0  0
  181.8560  180.6540  138.3610 C   0  0  0  0  0  2  0  0  0  0  0  0
  180.8630  182.8120  137.5870 C   0  0  0  0  0  1  0  0  0  0  0  0
  180.6330  181.3210  137.7440 C   0  0  0  0  0  2  0  0  0  0  0  0
  181.2100  179.8720  140.5720 O   0  0  0  0  0  0  0  0  0  0  0  0
  181.0890  179.0450  142.7960 C   0  0  0  0  0  1  0  0  0  0  0  0
  181.2030  178.6980  141.3260 C   0  0  0  0  0  2  0  0  0  0  0  0
  1  4  1  0  0  0  0
  1 27  1  1  0  0  0
  2 22  1  0  0  0  0
  2 14  1  0  0  0  0
  4 12  1  0  0  0  0
  4 30  1  1  0  0  0
  5 19  1  0  0  0  0
  5 23  1  0  0  0  0
  6 11  1  0  0  0  0
  6 22  2  0  0  0  0
  7 19  1  0  0  0  0
  9  3  2  0  0  0  0
 10 23  1  0  0  0  0
 10 28  2  0  0  0  0
 11 16  2  0  0  0  0
 12 26  1  1  0  0  0
 12 18  1  0  0  0  0
 13  1  1  0  0  0  0
 15 28  1  0  0  0  0
 17 13  1  0  0  0  0
 17  2  1  0  0  0  0
 18  8  1  6  0  0  0
 18  7  1  0  0  0  0
 20 16  1  1  0  0  0
 20  3  1  0  0  0  0
 20 15  1  0  0  0  0
 21  1  1  0  0  0  0
 21 25  1  0  0  0  0
 22  9  1  0  0  0  0
 23 31  1  6  0  0  0
 24  2  1  0  0  0  0
 25 18  1  0  0  0  0
 29 30  1  0  0  0  0
 31 32  1  6  0  0  0
 31 35  1  0  0  0  0
 33 34  1  0  0  0  0
 34 32  1  0  0  0  0
 35 37  1  0  0  0  0
 37 36  1  0  0  0  0
M  END
>  <MODEL>
9

>  <REMARK>
 VINA RESULT:      -3.9      4.679      7.043
  Name = 
  6 active torsions:
  status: ('A' for Active; 'I' for Inactive)
    1  A    between atoms: C_2  and  C_6
    2  A    between atoms: C_2  and  C_35
    3  A    between atoms: C_5  and  C_23
    4  A    between atoms: C_6  and  O_8
    5  A    between atoms: C_6  and  C_31
    6  A    between atoms: O_8  and  C_19
                            x       y       z     vdW  Elec       q    Type
                         _______ _______ _______ _____ _____    ______ ____

>  <TORSDO>
F 6

$$$$
