=
 OpenBabel10262421003D

 32 36  0  0  1  0  0  0  0  0999 V2000
  187.0540  178.1520  141.6640 C   0  0  0  0  0  0  0  0  0  0  0  0
  188.0370  177.4140  143.7890 C   0  0  0  0  0  0  0  0  0  0  0  0
  187.2240  178.4540  140.3070 C   0  0  0  0  0  3  0  0  0  0  0  0
  188.1670  177.6820  142.4060 C   0  0  0  0  0  0  0  0  0  0  0  0
  189.2050  176.8300  144.5680 C   0  0  2  0  0  3  0  0  0  0  0  0
  186.7970  177.6200  144.4250 C   0  0  0  0  0  0  0  0  0  0  0  0
  187.9420  177.8260  146.6140 C   0  0  1  0  0  3  0  0  0  0  0  0
  189.4040  177.5160  141.7460 C   0  0  0  0  0  0  0  0  0  0  0  0
  189.1930  177.1160  146.0820 C   0  0  0  0  0  2  0  0  0  0  0  0
  190.5970  176.9470  142.4540 C   0  0  0  0  0  2  0  0  0  0  0  0
  189.5140  177.8050  140.4220 N   0  0  0  0  0  0  0  0  0  0  0  0
  185.7010  178.0550  143.6710 C   0  0  0  0  0  3  0  0  0  0  0  0
  185.8040  178.3230  142.3020 C   0  0  0  0  0  0  0  0  0  0  0  0
  186.6650  177.3470  145.9090 C   0  0  1  0  0  3  0  0  0  0  0  0
  190.5520  177.2420  143.9530 C   0  0  2  0  0  3  0  0  0  0  0  0
  188.4640  178.2730  139.7000 C   0  0  0  0  0  3  0  0  0  0  0  0
  182.1010  178.6590  141.8880 C   0  0  0  0  0  0  0  0  0  0  0  0
  181.3840  179.6420  138.6150 O   0  0  0  0  0  1  0  0  0  0  0  0
  180.9710  178.8640  142.6730 O   0  0  0  0  0  1  0  0  0  0  0  0
  183.5970  179.5190  139.3870 C   0  0  0  0  0  3  0  0  0  0  0  0
  184.5820  178.7800  141.5950 C   0  0  0  0  0  0  0  0  0  0  0  0
  181.9070  178.1210  140.5110 C   0  0  0  0  0  2  0  0  0  0  0  0
  184.6840  179.0840  140.2870 C   0  0  0  0  0  3  0  0  0  0  0  0
  183.3210  178.9350  142.3790 C   0  0  0  0  0  0  0  0  0  0  0  0
  183.4510  179.5010  144.0440 Cl  0  0  0  0  0  0  0  0  0  0  0  0
  182.3280  179.1280  139.4930 C   0  0  0  0  0  0  0  0  0  0  0  0
  185.4350  178.0260  146.5250 C   0  0  0  0  0  2  0  0  0  0  0  0
  185.7420  179.4790  146.8490 C   0  0  0  0  0  1  0  0  0  0  0  0
  187.8820  177.6960  148.1390 C   0  0  0  0  0  2  0  0  0  0  0  0
  189.1190  178.2660  148.8200 C   0  0  0  0  0  1  0  0  0  0  0  0
  191.6990  176.6450  144.6480 N   0  0  0  0  0  2  0  0  0  0  0  0
  191.9250  175.2740  144.1980 C   0  0  0  0  0  1  0  0  0  0  0  0
  1 13  2  0  0  0  0
  1  4  1  0  0  0  0
  2  6  1  0  0  0  0
  2  5  1  0  0  0  0
  3  1  1  0  0  0  0
  4  2  2  0  0  0  0
  5  9  1  1  0  0  0
  6 14  1  0  0  0  0
  7 29  1  1  0  0  0
  8  4  1  0  0  0  0
  8 10  1  0  0  0  0
  9  7  1  0  0  0  0
 10 15  1  0  0  0  0
 11  8  2  0  0  0  0
 12  6  2  0  0  0  0
 13 12  1  0  0  0  0
 14 27  1  1  0  0  0
 14  7  1  0  0  0  0
 15  5  1  0  0  0  0
 15 31  1  1  0  0  0
 16  3  2  0  0  0  0
 16 11  1  0  0  0  0
 17 24  2  0  0  0  0
 17 19  1  0  0  0  0
 18 26  1  0  0  0  0
 20 26  2  0  0  0  0
 20 23  1  0  0  0  0
 21 13  1  0  0  0  0
 21 24  1  0  0  0  0
 22 17  1  0  0  0  0
 23 21  2  0  0  0  0
 24 25  1  0  0  0  0
 26 22  1  0  0  0  0
 27 28  1  0  0  0  0
 29 30  1  0  0  0  0
 32 31  1  0  0  0  0
M  END
>  <MODEL>
1

>  <REMARK>
 VINA RESULT:     -11.1      0.000      0.000
  Name = 
  4 active torsions:
  status: ('A' for Active; 'I' for Inactive)
    1  A    between atoms: C_9  and  C_28
    2  A    between atoms: C_11  and  C_12
    3  A    between atoms: N_13  and  C_29
    4  A    between atoms: C_16  and  C_27
                            x       y       z     vdW  Elec       q    Type
                         _______ _______ _______ _____ _____    ______ ____

>  <TORSDO>
F 4

$$$$
=
 OpenBabel10262421003D

 32 36  0  0  1  0  0  0  0  0999 V2000
  189.6590  177.1240  142.7400 C   0  0  0  0  0  0  0  0  0  0  0  0
  187.6210  177.6140  144.0170 C   0  0  0  0  0  0  0  0  0  0  0  0
  191.0260  176.8130  142.7370 C   0  0  0  0  0  3  0  0  0  0  0  0
  188.9880  177.2540  143.9820 C   0  0  0  0  0  0  0  0  0  0  0  0
  186.8790  177.6710  145.3430 C   0  0  2  0  0  3  0  0  0  0  0  0
  186.9310  177.8460  142.8120 C   0  0  0  0  0  0  0  0  0  0  0  0
  185.2590  179.2200  144.0210 C   0  0  1  0  0  3  0  0  0  0  0  0
  189.7170  177.0450  145.1740 C   0  0  0  0  0  0  0  0  0  0  0  0
  185.6460  178.5950  145.3660 C   0  0  0  0  0  2  0  0  0  0  0  0
  189.0480  177.0880  146.5160 C   0  0  0  0  0  2  0  0  0  0  0  0
  191.0370  176.7270  145.1180 N   0  0  0  0  0  0  0  0  0  0  0  0
  187.6010  177.6830  141.5930 C   0  0  0  0  0  3  0  0  0  0  0  0
  188.9510  177.3250  141.5330 C   0  0  0  0  0  0  0  0  0  0  0  0
  185.4710  178.2460  142.8530 C   0  0  1  0  0  3  0  0  0  0  0  0
  187.8270  178.0080  146.5040 C   0  0  2  0  0  3  0  0  0  0  0  0
  191.7000  176.6160  143.9390 C   0  0  0  0  0  3  0  0  0  0  0  0
  188.8880  176.4540  137.8950 C   0  0  0  0  0  0  0  0  0  0  0  0
  192.1620  176.1500  136.7180 O   0  0  0  0  0  1  0  0  0  0  0  0
  188.0300  176.5580  136.8050 O   0  0  0  0  0  1  0  0  0  0  0  0
  191.7210  176.9000  138.8980 C   0  0  0  0  0  3  0  0  0  0  0  0
  189.5670  177.1790  140.1910 C   0  0  0  0  0  0  0  0  0  0  0  0
  190.0230  175.4920  137.8010 C   0  0  0  0  0  2  0  0  0  0  0  0
  190.9080  177.0860  140.1160 C   0  0  0  0  0  3  0  0  0  0  0  0
  188.6770  177.2010  138.9920 C   0  0  0  0  0  0  0  0  0  0  0  0
  187.2670  178.2590  139.0330 Cl  0  0  0  0  0  0  0  0  0  0  0  0
  191.3270  176.2180  137.8250 C   0  0  0  0  0  0  0  0  0  0  0  0
  184.9990  178.8850  141.5400 C   0  0  0  0  0  2  0  0  0  0  0  0
  183.8860  178.0570  140.9200 C   0  0  0  0  0  1  0  0  0  0  0  0
  183.8340  179.7770  144.0990 C   0  0  0  0  0  2  0  0  0  0  0  0
  182.8220  178.7220  144.5250 C   0  0  0  0  0  1  0  0  0  0  0  0
  187.1520  178.0130  147.8060 N   0  0  0  0  0  2  0  0  0  0  0  0
  188.1210  177.9300  148.8960 C   0  0  0  0  0  1  0  0  0  0  0  0
  1  4  1  0  0  0  0
  2  5  1  0  0  0  0
  3  1  2  0  0  0  0
  3 16  1  0  0  0  0
  4  2  1  0  0  0  0
  4  8  2  0  0  0  0
  5  9  1  6  0  0  0
  5 15  1  0  0  0  0
  6 14  1  0  0  0  0
  6  2  2  0  0  0  0
  7 29  1  1  0  0  0
  7  9  1  0  0  0  0
  8 10  1  0  0  0  0
 11  8  1  0  0  0  0
 12  6  1  0  0  0  0
 13 12  2  0  0  0  0
 13  1  1  0  0  0  0
 14 27  1  6  0  0  0
 14  7  1  0  0  0  0
 15 10  1  0  0  0  0
 15 31  1  1  0  0  0
 16 11  2  0  0  0  0
 17 24  2  0  0  0  0
 18 26  1  0  0  0  0
 19 17  1  0  0  0  0
 20 23  1  0  0  0  0
 21 13  1  0  0  0  0
 22 26  1  0  0  0  0
 22 17  1  0  0  0  0
 23 21  2  0  0  0  0
 24 25  1  0  0  0  0
 24 21  1  0  0  0  0
 26 20  2  0  0  0  0
 28 27  1  0  0  0  0
 29 30  1  0  0  0  0
 31 32  1  0  0  0  0
M  END
>  <MODEL>
2

>  <REMARK>
 VINA RESULT:     -11.0      3.282      5.963
  Name = 
  4 active torsions:
  status: ('A' for Active; 'I' for Inactive)
    1  A    between atoms: C_9  and  C_28
    2  A    between atoms: C_11  and  C_12
    3  A    between atoms: N_13  and  C_29
    4  A    between atoms: C_16  and  C_27
                            x       y       z     vdW  Elec       q    Type
                         _______ _______ _______ _____ _____    ______ ____

>  <TORSDO>
F 4

$$$$
=
 OpenBabel10262421003D

 32 36  0  0  1  0  0  0  0  0999 V2000
  189.3300  177.6680  141.3230 C   0  0  0  0  0  0  0  0  0  0  0  0
  188.5960  177.3740  143.6470 C   0  0  0  0  0  0  0  0  0  0  0  0
  190.3790  177.7310  140.3970 C   0  0  0  0  0  3  0  0  0  0  0  0
  189.6300  177.3960  142.6810 C   0  0  0  0  0  0  0  0  0  0  0  0
  188.9030  176.9990  145.0880 C   0  0  2  0  0  3  0  0  0  0  0  0
  187.2680  177.6270  143.2510 C   0  0  0  0  0  0  0  0  0  0  0  0
  186.6900  178.2800  145.5710 C   0  0  1  0  0  3  0  0  0  0  0  0
  190.9750  177.1770  143.0510 C   0  0  0  0  0  0  0  0  0  0  0  0
  187.9150  177.5500  146.1340 C   0  0  0  0  0  2  0  0  0  0  0  0
  191.3490  176.8050  144.4550 C   0  0  0  0  0  2  0  0  0  0  0  0
  191.9560  177.2300  142.1120 N   0  0  0  0  0  0  0  0  0  0  0  0
  186.9860  177.8640  141.9000 C   0  0  0  0  0  3  0  0  0  0  0  0
  187.9900  177.8870  140.9280 C   0  0  0  0  0  0  0  0  0  0  0  0
  186.1650  177.6180  144.2890 C   0  0  1  0  0  3  0  0  0  0  0  0
  190.3470  177.3620  145.4670 C   0  0  2  0  0  3  0  0  0  0  0  0
  191.6900  177.5070  140.8100 C   0  0  0  0  0  3  0  0  0  0  0  0
  185.5450  177.9120  138.0960 C   0  0  0  0  0  0  0  0  0  0  0  0
  187.2620  178.3240  135.0840 O   0  0  0  0  0  1  0  0  0  0  0  0
  184.1940  178.1620  137.8770 O   0  0  0  0  0  1  0  0  0  0  0  0
  188.3760  178.4670  137.1450 C   0  0  0  0  0  3  0  0  0  0  0  0
  187.5850  178.1470  139.5230 C   0  0  0  0  0  0  0  0  0  0  0  0
  186.2930  177.1550  137.0520 C   0  0  0  0  0  2  0  0  0  0  0  0
  188.5540  178.2500  138.5940 C   0  0  0  0  0  3  0  0  0  0  0  0
  186.1350  178.3410  139.2240 C   0  0  0  0  0  0  0  0  0  0  0  0
  185.1480  179.1660  140.4300 Cl  0  0  0  0  0  0  0  0  0  0  0  0
  187.3440  178.0160  136.4350 C   0  0  0  0  0  0  0  0  0  0  0  0
  184.8970  178.3340  143.8060 C   0  0  0  0  0  2  0  0  0  0  0  0
  185.0560  179.8390  143.9430 C   0  0  0  0  0  1  0  0  0  0  0  0
  185.6250  178.4220  146.6630 C   0  0  0  0  0  2  0  0  0  0  0  0
  186.0110  179.4470  147.7210 C   0  0  0  0  0  1  0  0  0  0  0  0
  190.6930  176.9580  146.8350 N   0  0  0  0  0  2  0  0  0  0  0  0
  191.8870  176.1160  146.8430 C   0  0  0  0  0  1  0  0  0  0  0  0
  1  4  1  0  0  0  0
  2  5  1  0  0  0  0
  3 16  2  0  0  0  0
  3  1  1  0  0  0  0
  4  8  1  0  0  0  0
  4  2  2  0  0  0  0
  5 15  1  0  0  0  0
  5  9  1  1  0  0  0
  6  2  1  0  0  0  0
  6 14  1  0  0  0  0
  7  9  1  0  0  0  0
  7 29  1  1  0  0  0
  8 10  1  0  0  0  0
 10 15  1  0  0  0  0
 11  8  2  0  0  0  0
 12  6  2  0  0  0  0
 13  1  2  0  0  0  0
 13 12  1  0  0  0  0
 14 27  1  6  0  0  0
 14  7  1  0  0  0  0
 15 31  1  1  0  0  0
 16 11  1  0  0  0  0
 17 24  2  0  0  0  0
 18 26  1  0  0  0  0
 19 17  1  0  0  0  0
 20 23  1  0  0  0  0
 21 13  1  0  0  0  0
 22 17  1  0  0  0  0
 23 21  2  0  0  0  0
 24 21  1  0  0  0  0
 24 25  1  0  0  0  0
 26 22  1  0  0  0  0
 26 20  2  0  0  0  0
 27 28  1  0  0  0  0
 29 30  1  0  0  0  0
 31 32  1  0  0  0  0
M  END
>  <MODEL>
3

>  <REMARK>
 VINA RESULT:     -10.1      2.304      3.517
  Name = 
  4 active torsions:
  status: ('A' for Active; 'I' for Inactive)
    1  A    between atoms: C_9  and  C_28
    2  A    between atoms: C_11  and  C_12
    3  A    between atoms: N_13  and  C_29
    4  A    between atoms: C_16  and  C_27
                            x       y       z     vdW  Elec       q    Type
                         _______ _______ _______ _____ _____    ______ ____

>  <TORSDO>
F 4

$$$$
=
 OpenBabel10262421003D

 32 36  0  0  1  0  0  0  0  0999 V2000
  185.4330  178.3220  143.7890 C   0  0  0  0  0  0  0  0  0  0  0  0
  183.5940  178.5130  142.1740 C   0  0  0  0  0  0  0  0  0  0  0  0
  185.8740  178.3950  145.1170 C   0  0  0  0  0  3  0  0  0  0  0  0
  184.0590  178.5330  143.5100 C   0  0  0  0  0  0  0  0  0  0  0  0
  182.1090  178.6550  141.8790 C   0  0  2  0  0  3  0  0  0  0  0  0
  184.5040  178.2840  141.1230 C   0  0  0  0  0  0  0  0  0  0  0  0
  182.9580  179.3890  139.5310 C   0  0  1  0  0  3  0  0  0  0  0  0
  183.1780  178.7910  144.5830 C   0  0  0  0  0  0  0  0  0  0  0  0
  181.7670  179.1970  140.4780 C   0  0  0  0  0  2  0  0  0  0  0  0
  181.7030  178.9430  144.3630 C   0  0  0  0  0  2  0  0  0  0  0  0
  183.6510  178.8330  145.8570 N   0  0  0  0  0  0  0  0  0  0  0  0
  185.8510  178.0470  141.4190 C   0  0  0  0  0  3  0  0  0  0  0  0
  186.3340  178.0590  142.7310 C   0  0  0  0  0  0  0  0  0  0  0  0
  184.0060  178.2780  139.6930 C   0  0  1  0  0  3  0  0  0  0  0  0
  181.3970  179.4770  142.9640 C   0  0  2  0  0  3  0  0  0  0  0  0
  184.9660  178.6510  146.1410 C   0  0  0  0  0  3  0  0  0  0  0  0
  189.6920  176.7890  141.6760 C   0  0  0  0  0  0  0  0  0  0  0  0
  191.7620  176.5190  144.4750 O   0  0  0  0  0  1  0  0  0  0  0  0
  190.4800  176.7300  140.5310 O   0  0  0  0  0  1  0  0  0  0  0  0
  189.6270  177.4830  144.6340 C   0  0  0  0  0  3  0  0  0  0  0  0
  187.7800  177.7960  142.9370 C   0  0  0  0  0  0  0  0  0  0  0  0
  190.0330  175.8800  142.8070 C   0  0  0  0  0  2  0  0  0  0  0  0
  188.2440  177.7620  144.2010 C   0  0  0  0  0  3  0  0  0  0  0  0
  188.6540  177.6410  141.7370 C   0  0  0  0  0  0  0  0  0  0  0  0
  188.2890  178.6260  140.3200 Cl  0  0  0  0  0  0  0  0  0  0  0  0
  190.4670  176.6670  143.9980 C   0  0  0  0  0  0  0  0  0  0  0  0
  185.1380  178.4670  138.6750 C   0  0  0  0  0  2  0  0  0  0  0  0
  185.1990  177.2810  137.7270 C   0  0  0  0  0  1  0  0  0  0  0  0
  182.4550  179.5470  138.0920 C   0  0  0  0  0  2  0  0  0  0  0  0
  181.5070  178.4270  137.6830 C   0  0  0  0  0  1  0  0  0  0  0  0
  179.9510  179.5820  142.7390 N   0  0  0  0  0  2  0  0  0  0  0  0
  179.2070  179.1490  143.9190 C   0  0  0  0  0  1  0  0  0  0  0  0
  1  3  1  0  0  0  0
  2  4  1  0  0  0  0
  3 16  2  0  0  0  0
  4  1  2  0  0  0  0
  4  8  1  0  0  0  0
  5  9  1  6  0  0  0
  5  2  1  0  0  0  0
  5 15  1  0  0  0  0
  6 12  1  0  0  0  0
  6  2  2  0  0  0  0
  7 29  1  6  0  0  0
  7 14  1  0  0  0  0
  7  9  1  0  0  0  0
  8 11  2  0  0  0  0
 10  8  1  0  0  0  0
 11 16  1  0  0  0  0
 12 13  2  0  0  0  0
 13 21  1  0  0  0  0
 13  1  1  0  0  0  0
 14 27  1  6  0  0  0
 14  6  1  0  0  0  0
 15 31  1  6  0  0  0
 15 10  1  0  0  0  0
 17 24  2  0  0  0  0
 17 22  1  0  0  0  0
 19 17  1  0  0  0  0
 21 23  2  0  0  0  0
 22 26  1  0  0  0  0
 23 20  1  0  0  0  0
 24 21  1  0  0  0  0
 25 24  1  0  0  0  0
 26 18  1  0  0  0  0
 26 20  2  0  0  0  0
 28 27  1  0  0  0  0
 30 29  1  0  0  0  0
 31 32  1  0  0  0  0
M  END
>  <MODEL>
4

>  <REMARK>
 VINA RESULT:     -10.1      3.888      8.235
  Name = 
  4 active torsions:
  status: ('A' for Active; 'I' for Inactive)
    1  A    between atoms: C_9  and  C_28
    2  A    between atoms: C_11  and  C_12
    3  A    between atoms: N_13  and  C_29
    4  A    between atoms: C_16  and  C_27
                            x       y       z     vdW  Elec       q    Type
                         _______ _______ _______ _____ _____    ______ ____

>  <TORSDO>
F 4

$$$$
=
 OpenBabel10262421003D

 32 36  0  0  1  0  0  0  0  0999 V2000
  185.4200  178.3670  141.1800 C   0  0  0  0  0  0  0  0  0  0  0  0
  187.2870  177.7010  142.6280 C   0  0  0  0  0  0  0  0  0  0  0  0
  184.9710  178.7910  139.9220 C   0  0  0  0  0  3  0  0  0  0  0  0
  186.7970  178.0840  141.3570 C   0  0  0  0  0  0  0  0  0  0  0  0
  188.7470  177.3160  142.8000 C   0  0  2  0  0  3  0  0  0  0  0  0
  186.3980  177.6060  143.7170 C   0  0  0  0  0  0  0  0  0  0  0  0
  188.2860  177.8900  145.2970 C   0  0  1  0  0  3  0  0  0  0  0  0
  187.6680  178.2200  140.2530 C   0  0  0  0  0  0  0  0  0  0  0  0
  189.3070  177.4880  144.2260 C   0  0  0  0  0  2  0  0  0  0  0  0
  189.1190  177.8590  140.3540 C   0  0  0  0  0  2  0  0  0  0  0  0
  187.1810  178.6160  139.0470 N   0  0  0  0  0  0  0  0  0  0  0  0
  185.0350  177.8590  143.5160 C   0  0  0  0  0  3  0  0  0  0  0  0
  184.5280  178.2350  142.2690 C   0  0  0  0  0  0  0  0  0  0  0  0
  186.9270  177.2090  145.0790 C   0  0  1  0  0  3  0  0  0  0  0  0
  189.6420  178.0350  141.7800 C   0  0  2  0  0  3  0  0  0  0  0  0
  185.8680  178.9090  138.8640 C   0  0  0  0  0  3  0  0  0  0  0  0
  181.3270  178.6390  140.3760 C   0  0  0  0  0  0  0  0  0  0  0  0
  178.9310  180.1100  142.4470 O   0  0  0  0  0  1  0  0  0  0  0  0
  180.6840  178.0910  139.2700 O   0  0  0  0  0  1  0  0  0  0  0  0
  181.0280  179.4680  143.2830 C   0  0  0  0  0  3  0  0  0  0  0  0
  183.0680  178.4810  142.1640 C   0  0  0  0  0  0  0  0  0  0  0  0
  180.8520  179.9610  140.8760 C   0  0  0  0  0  2  0  0  0  0  0  0
  182.4530  179.0950  143.1930 C   0  0  0  0  0  3  0  0  0  0  0  0
  182.3470  177.9840  140.9540 C   0  0  0  0  0  0  0  0  0  0  0  0
  182.8800  176.4600  140.2460 Cl  0  0  0  0  0  0  0  0  0  0  0  0
  180.2740  179.8240  142.2450 C   0  0  0  0  0  0  0  0  0  0  0  0
  185.9630  177.5800  146.2140 C   0  0  0  0  0  2  0  0  0  0  0  0
  185.9830  179.0800  146.4540 C   0  0  0  0  0  1  0  0  0  0  0  0
  188.8730  177.6450  146.6900 C   0  0  0  0  0  2  0  0  0  0  0  0
  190.1440  176.8060  146.6450 C   0  0  0  0  0  1  0  0  0  0  0  0
  191.0520  177.6390  141.8820 N   0  0  0  0  0  2  0  0  0  0  0  0
  191.6490  177.4930  140.5570 C   0  0  0  0  0  1  0  0  0  0  0  0
  1  4  1  0  0  0  0
  1 13  2  0  0  0  0
  2  5  1  0  0  0  0
  2  6  1  0  0  0  0
  3  1  1  0  0  0  0
  4  2  2  0  0  0  0
  5  9  1  1  0  0  0
  6 14  1  0  0  0  0
  7 29  1  1  0  0  0
  8 10  1  0  0  0  0
  8  4  1  0  0  0  0
  9  7  1  0  0  0  0
 10 15  1  0  0  0  0
 11  8  2  0  0  0  0
 12  6  2  0  0  0  0
 13 12  1  0  0  0  0
 14  7  1  0  0  0  0
 14 27  1  1  0  0  0
 15 31  1  6  0  0  0
 15  5  1  0  0  0  0
 16 11  1  0  0  0  0
 16  3  2  0  0  0  0
 17 22  1  0  0  0  0
 17 24  2  0  0  0  0
 19 17  1  0  0  0  0
 21 13  1  0  0  0  0
 21 23  2  0  0  0  0
 22 26  1  0  0  0  0
 23 20  1  0  0  0  0
 24 21  1  0  0  0  0
 25 24  1  0  0  0  0
 26 18  1  0  0  0  0
 26 20  2  0  0  0  0
 27 28  1  0  0  0  0
 30 29  1  0  0  0  0
 32 31  1  0  0  0  0
M  END
>  <MODEL>
5

>  <REMARK>
 VINA RESULT:      -9.9      1.660      2.617
  Name = 
  4 active torsions:
  status: ('A' for Active; 'I' for Inactive)
    1  A    between atoms: C_9  and  C_28
    2  A    between atoms: C_11  and  C_12
    3  A    between atoms: N_13  and  C_29
    4  A    between atoms: C_16  and  C_27
                            x       y       z     vdW  Elec       q    Type
                         _______ _______ _______ _____ _____    ______ ____

>  <TORSDO>
F 4

$$$$
=
 OpenBabel10262421003D

 32 36  0  0  1  0  0  0  0  0999 V2000
  189.2800  177.4490  142.2970 C   0  0  0  0  0  0  0  0  0  0  0  0
  187.2310  178.2610  141.2160 C   0  0  0  0  0  0  0  0  0  0  0  0
  190.6010  176.9960  142.1750 C   0  0  0  0  0  3  0  0  0  0  0  0
  188.5800  177.8440  141.1300 C   0  0  0  0  0  0  0  0  0  0  0  0
  186.5050  178.7650  139.9790 C   0  0  2  0  0  3  0  0  0  0  0  0
  186.5860  178.2760  142.4690 C   0  0  0  0  0  0  0  0  0  0  0  0
  184.3800  178.1420  141.3470 C   0  0  1  0  0  3  0  0  0  0  0  0
  189.2450  177.7870  139.8850 C   0  0  0  0  0  0  0  0  0  0  0  0
  184.9710  178.6330  140.0190 C   0  0  0  0  0  2  0  0  0  0  0  0
  188.5880  178.2670  138.6260 C   0  0  0  0  0  2  0  0  0  0  0  0
  190.5340  177.3590  139.8210 N   0  0  0  0  0  0  0  0  0  0  0  0
  187.3020  177.9120  143.6150 C   0  0  0  0  0  3  0  0  0  0  0  0
  188.6370  177.5010  143.5550 C   0  0  0  0  0  0  0  0  0  0  0  0
  185.1370  178.7080  142.5570 C   0  0  1  0  0  3  0  0  0  0  0  0
  187.0680  178.1280  138.6990 C   0  0  2  0  0  3  0  0  0  0  0  0
  191.2140  176.9590  140.9260 C   0  0  0  0  0  3  0  0  0  0  0  0
  189.0220  177.5710  147.2760 C   0  0  0  0  0  0  0  0  0  0  0  0
  192.2040  176.4180  148.1360 O   0  0  0  0  0  1  0  0  0  0  0  0
  188.2230  177.5650  148.4150 O   0  0  0  0  0  1  0  0  0  0  0  0
  191.4440  176.3420  145.9160 C   0  0  0  0  0  3  0  0  0  0  0  0
  189.3050  177.1360  144.8300 C   0  0  0  0  0  0  0  0  0  0  0  0
  190.4380  178.0150  147.4190 C   0  0  0  0  0  2  0  0  0  0  0  0
  190.5840  176.7170  144.7770 C   0  0  0  0  0  3  0  0  0  0  0  0
  188.5100  177.1940  146.0920 C   0  0  0  0  0  0  0  0  0  0  0  0
  186.8050  176.7530  146.0140 Cl  0  0  0  0  0  0  0  0  0  0  0  0
  191.3700  176.8860  147.1290 C   0  0  0  0  0  0  0  0  0  0  0  0
  184.4660  178.2530  143.8590 C   0  0  0  0  0  2  0  0  0  0  0  0
  184.1120  179.4550  144.7180 C   0  0  0  0  0  1  0  0  0  0  0  0
  182.8760  178.4270  141.3810 C   0  0  0  0  0  2  0  0  0  0  0  0
  182.1340  177.7740  140.2220 C   0  0  0  0  0  1  0  0  0  0  0  0
  186.4270  178.6390  137.4820 N   0  0  0  0  0  2  0  0  0  0  0  0
  187.1840  178.2530  136.2930 C   0  0  0  0  0  1  0  0  0  0  0  0
  1 13  2  0  0  0  0
  2  6  1  0  0  0  0
  3  1  1  0  0  0  0
  4  2  2  0  0  0  0
  4  1  1  0  0  0  0
  5  9  1  1  0  0  0
  5  2  1  0  0  0  0
  6 14  1  0  0  0  0
  6 12  2  0  0  0  0
  7 29  1  1  0  0  0
  7 14  1  0  0  0  0
  8  4  1  0  0  0  0
  9  7  1  0  0  0  0
 10 15  1  0  0  0  0
 10  8  1  0  0  0  0
 11  8  2  0  0  0  0
 11 16  1  0  0  0  0
 13 12  1  0  0  0  0
 13 21  1  0  0  0  0
 14 27  1  1  0  0  0
 15 31  1  6  0  0  0
 15  5  1  0  0  0  0
 16  3  2  0  0  0  0
 17 22  1  0  0  0  0
 17 19  1  0  0  0  0
 20 26  2  0  0  0  0
 21 24  1  0  0  0  0
 23 21  2  0  0  0  0
 23 20  1  0  0  0  0
 24 17  2  0  0  0  0
 25 24  1  0  0  0  0
 26 22  1  0  0  0  0
 26 18  1  0  0  0  0
 27 28  1  0  0  0  0
 30 29  1  0  0  0  0
 32 31  1  0  0  0  0
M  END
>  <MODEL>
6

>  <REMARK>
 VINA RESULT:      -9.8      3.282      7.036
  Name = 
  4 active torsions:
  status: ('A' for Active; 'I' for Inactive)
    1  A    between atoms: C_9  and  C_28
    2  A    between atoms: C_11  and  C_12
    3  A    between atoms: N_13  and  C_29
    4  A    between atoms: C_16  and  C_27
                            x       y       z     vdW  Elec       q    Type
                         _______ _______ _______ _____ _____    ______ ____

>  <TORSDO>
F 4

$$$$
=
 OpenBabel10262421003D

 32 36  0  0  1  0  0  0  0  0999 V2000
  183.9720  178.6320  142.1870 C   0  0  0  0  0  0  0  0  0  0  0  0
  186.3620  178.3620  142.6770 C   0  0  0  0  0  0  0  0  0  0  0  0
  182.6560  178.7330  142.6580 C   0  0  0  0  0  3  0  0  0  0  0  0
  185.0290  178.5130  143.1240 C   0  0  0  0  0  0  0  0  0  0  0  0
  187.5040  178.3190  143.6790 C   0  0  2  0  0  3  0  0  0  0  0  0
  186.6330  178.3280  141.2950 C   0  0  0  0  0  0  0  0  0  0  0  0
  188.7620  177.1350  141.7320 C   0  0  1  0  0  3  0  0  0  0  0  0
  184.7200  178.5200  144.5030 C   0  0  0  0  0  0  0  0  0  0  0  0
  188.7740  177.5920  143.1950 C   0  0  0  0  0  2  0  0  0  0  0  0
  185.7970  178.4780  145.5440 C   0  0  0  0  0  2  0  0  0  0  0  0
  183.4290  178.6390  144.9100 N   0  0  0  0  0  0  0  0  0  0  0  0
  185.5810  178.4780  140.3840 C   0  0  0  0  0  3  0  0  0  0  0  0
  184.2560  178.6320  140.8020 C   0  0  0  0  0  0  0  0  0  0  0  0
  188.0600  178.1510  140.8190 C   0  0  1  0  0  3  0  0  0  0  0  0
  187.0440  177.7560  145.0320 C   0  0  2  0  0  3  0  0  0  0  0  0
  182.4030  178.7360  144.0270 C   0  0  0  0  0  3  0  0  0  0  0  0
  182.2540  177.4460  137.8720 C   0  0  0  0  0  0  0  0  0  0  0  0
  180.6410  180.1670  136.3920 O   0  0  0  0  0  1  0  0  0  0  0  0
  181.6700  176.2730  137.4050 O   0  0  0  0  0  1  0  0  0  0  0  0
  181.8360  180.4100  138.3970 C   0  0  0  0  0  3  0  0  0  0  0  0
  183.2150  178.7840  139.7550 C   0  0  0  0  0  0  0  0  0  0  0  0
  182.4660  178.5570  136.9000 C   0  0  0  0  0  2  0  0  0  0  0  0
  182.8220  180.0290  139.4280 C   0  0  0  0  0  3  0  0  0  0  0  0
  182.6160  177.5510  139.1620 C   0  0  0  0  0  0  0  0  0  0  0  0
  182.3880  176.1560  140.2170 Cl  0  0  0  0  0  0  0  0  0  0  0  0
  181.6300  179.7380  137.2660 C   0  0  0  0  0  0  0  0  0  0  0  0
  188.1390  177.6900  139.3570 C   0  0  0  0  0  2  0  0  0  0  0  0
  189.0260  178.6280  138.5560 C   0  0  0  0  0  1  0  0  0  0  0  0
  190.1870  176.7960  141.2830 C   0  0  0  0  0  2  0  0  0  0  0  0
  191.2430  177.5020  142.1220 C   0  0  0  0  0  1  0  0  0  0  0  0
  188.1110  177.7570  146.0400 N   0  0  0  0  0  2  0  0  0  0  0  0
  187.5560  177.8770  147.3860 C   0  0  0  0  0  1  0  0  0  0  0  0
  1  3  2  0  0  0  0
  1  4  1  0  0  0  0
  2  4  1  0  0  0  0
  2  5  1  0  0  0  0
  3 16  1  0  0  0  0
  4  8  2  0  0  0  0
  5  9  1  6  0  0  0
  5 15  1  0  0  0  0
  6  2  2  0  0  0  0
  7 29  1  6  0  0  0
  7  9  1  0  0  0  0
  8 11  1  0  0  0  0
  8 10  1  0  0  0  0
 12 13  2  0  0  0  0
 12  6  1  0  0  0  0
 13  1  1  0  0  0  0
 14 27  1  6  0  0  0
 14  6  1  0  0  0  0
 14  7  1  0  0  0  0
 15 10  1  0  0  0  0
 15 31  1  1  0  0  0
 16 11  2  0  0  0  0
 17 24  2  0  0  0  0
 18 26  1  0  0  0  0
 19 17  1  0  0  0  0
 20 23  1  0  0  0  0
 21 13  1  0  0  0  0
 22 26  1  0  0  0  0
 22 17  1  0  0  0  0
 23 21  2  0  0  0  0
 24 21  1  0  0  0  0
 24 25  1  0  0  0  0
 26 20  2  0  0  0  0
 28 27  1  0  0  0  0
 29 30  1  0  0  0  0
 31 32  1  0  0  0  0
M  END
>  <MODEL>
7

>  <REMARK>
 VINA RESULT:      -9.8      2.278      4.894
  Name = 
  4 active torsions:
  status: ('A' for Active; 'I' for Inactive)
    1  A    between atoms: C_9  and  C_28
    2  A    between atoms: C_11  and  C_12
    3  A    between atoms: N_13  and  C_29
    4  A    between atoms: C_16  and  C_27
                            x       y       z     vdW  Elec       q    Type
                         _______ _______ _______ _____ _____    ______ ____

>  <TORSDO>
F 4

$$$$
=
 OpenBabel10262421003D

 32 36  0  0  1  0  0  0  0  0999 V2000
  189.1610  177.2460  141.9090 C   0  0  0  0  0  0  0  0  0  0  0  0
  187.3100  177.6570  143.4680 C   0  0  0  0  0  0  0  0  0  0  0  0
  190.5160  176.9500  141.7090 C   0  0  0  0  0  3  0  0  0  0  0  0
  188.6620  177.3130  143.2340 C   0  0  0  0  0  0  0  0  0  0  0  0
  186.7530  177.6470  144.8830 C   0  0  2  0  0  3  0  0  0  0  0  0
  186.4640  177.9370  142.3780 C   0  0  0  0  0  0  0  0  0  0  0  0
  184.9640  179.2380  143.8610 C   0  0  1  0  0  3  0  0  0  0  0  0
  189.5440  177.0580  144.3080 C   0  0  0  0  0  0  0  0  0  0  0  0
  185.5310  178.5570  145.1130 C   0  0  0  0  0  2  0  0  0  0  0  0
  189.0610  177.0330  145.7270 C   0  0  0  0  0  2  0  0  0  0  0  0
  190.8470  176.7550  144.0610 N   0  0  0  0  0  0  0  0  0  0  0  0
  186.9660  177.8360  141.0740 C   0  0  0  0  0  3  0  0  0  0  0  0
  188.2970  177.4940  140.8180 C   0  0  0  0  0  0  0  0  0  0  0  0
  185.0210  178.3200  142.6320 C   0  0  1  0  0  3  0  0  0  0  0  0
  187.8460  177.9410  145.9210 C   0  0  2  0  0  3  0  0  0  0  0  0
  191.3460  176.7050  142.8000 C   0  0  0  0  0  3  0  0  0  0  0  0
  187.7390  176.8290  137.1790 C   0  0  0  0  0  0  0  0  0  0  0  0
  190.8230  176.5480  135.5650 O   0  0  0  0  0  1  0  0  0  0  0  0
  186.7480  177.0050  136.2190 O   0  0  0  0  0  1  0  0  0  0  0  0
  190.6880  177.1810  137.8210 C   0  0  0  0  0  3  0  0  0  0  0  0
  188.7280  177.4150  139.4000 C   0  0  0  0  0  0  0  0  0  0  0  0
  188.8320  175.8580  136.8840 C   0  0  0  0  0  2  0  0  0  0  0  0
  190.0460  177.3090  139.1440 C   0  0  0  0  0  3  0  0  0  0  0  0
  187.6890  177.5160  138.3320 C   0  0  0  0  0  0  0  0  0  0  0  0
  186.3180  178.5880  138.6160 Cl  0  0  0  0  0  0  0  0  0  0  0  0
  190.1420  176.5650  136.7740 C   0  0  0  0  0  0  0  0  0  0  0  0
  184.3750  179.0130  141.4250 C   0  0  0  0  0  2  0  0  0  0  0  0
  183.3300  178.1090  140.7940 C   0  0  0  0  0  1  0  0  0  0  0  0
  183.5600  179.7760  144.1550 C   0  0  0  0  0  2  0  0  0  0  0  0
  182.5470  178.6610  144.3780 C   0  0  0  0  0  1  0  0  0  0  0  0
  187.3510  177.8790  147.3000 N   0  0  0  0  0  2  0  0  0  0  0  0
  188.4320  177.5530  148.2280 C   0  0  0  0  0  1  0  0  0  0  0  0
  1  4  1  0  0  0  0
  2  5  1  0  0  0  0
  3  1  2  0  0  0  0
  3 16  1  0  0  0  0
  4  2  1  0  0  0  0
  4  8  2  0  0  0  0
  5  9  1  6  0  0  0
  5 15  1  0  0  0  0
  6 14  1  0  0  0  0
  6  2  2  0  0  0  0
  7 29  1  1  0  0  0
  7  9  1  0  0  0  0
  8 10  1  0  0  0  0
 10 15  1  0  0  0  0
 11  8  1  0  0  0  0
 12  6  1  0  0  0  0
 13 12  2  0  0  0  0
 13  1  1  0  0  0  0
 14 27  1  6  0  0  0
 14  7  1  0  0  0  0
 15 31  1  1  0  0  0
 16 11  2  0  0  0  0
 17 24  2  0  0  0  0
 18 26  1  0  0  0  0
 19 17  1  0  0  0  0
 20 23  1  0  0  0  0
 21 13  1  0  0  0  0
 22 17  1  0  0  0  0
 23 21  2  0  0  0  0
 24 25  1  0  0  0  0
 24 21  1  0  0  0  0
 26 22  1  0  0  0  0
 26 20  2  0  0  0  0
 28 27  1  0  0  0  0
 29 30  1  0  0  0  0
 31 32  1  0  0  0  0
M  END
>  <MODEL>
8

>  <REMARK>
 VINA RESULT:      -9.7      3.031      5.534
  Name = 
  4 active torsions:
  status: ('A' for Active; 'I' for Inactive)
    1  A    between atoms: C_9  and  C_28
    2  A    between atoms: C_11  and  C_12
    3  A    between atoms: N_13  and  C_29
    4  A    between atoms: C_16  and  C_27
                            x       y       z     vdW  Elec       q    Type
                         _______ _______ _______ _____ _____    ______ ____

>  <TORSDO>
F 4

$$$$
=
 OpenBabel10262421003D

 32 36  0  0  1  0  0  0  0  0999 V2000
  184.4160  178.5970  141.6250 C   0  0  0  0  0  0  0  0  0  0  0  0
  186.8520  178.3110  141.6990 C   0  0  0  0  0  0  0  0  0  0  0  0
  183.1960  178.6690  142.3110 C   0  0  0  0  0  3  0  0  0  0  0  0
  185.6120  178.4350  142.3670 C   0  0  0  0  0  0  0  0  0  0  0  0
  188.1440  178.2210  142.4960 C   0  0  2  0  0  3  0  0  0  0  0  0
  186.8920  178.3470  140.2910 C   0  0  0  0  0  0  0  0  0  0  0  0
  189.0570  177.1410  140.3110 C   0  0  1  0  0  3  0  0  0  0  0  0
  185.5350  178.3710  143.7760 C   0  0  0  0  0  0  0  0  0  0  0  0
  189.3130  177.5240  141.7730 C   0  0  0  0  0  2  0  0  0  0  0  0
  186.7690  178.2810  144.6230 C   0  0  0  0  0  2  0  0  0  0  0  0
  184.3290  178.4650  144.3970 N   0  0  0  0  0  0  0  0  0  0  0  0
  185.7040  178.5390  139.5750 C   0  0  0  0  0  3  0  0  0  0  0  0
  184.4670  178.6670  140.2130 C   0  0  0  0  0  0  0  0  0  0  0  0
  188.2190  178.1990  139.5780 C   0  0  1  0  0  3  0  0  0  0  0  0
  187.9110  177.5900  143.8770 C   0  0  2  0  0  3  0  0  0  0  0  0
  183.1720  178.6030  143.7010 C   0  0  0  0  0  3  0  0  0  0  0  0
  181.9900  177.6120  137.6160 C   0  0  0  0  0  0  0  0  0  0  0  0
  180.1890  180.4000  136.5300 O   0  0  0  0  0  1  0  0  0  0  0  0
  181.3210  176.4630  137.2080 O   0  0  0  0  0  1  0  0  0  0  0  0
  181.7050  180.5550  138.3160 C   0  0  0  0  0  3  0  0  0  0  0  0
  183.2680  178.8670  139.3610 C   0  0  0  0  0  0  0  0  0  0  0  0
  182.0520  178.7600  136.6650 C   0  0  0  0  0  2  0  0  0  0  0  0
  182.8430  180.1280  139.1520 C   0  0  0  0  0  3  0  0  0  0  0  0
  182.5630  177.6630  138.8300 C   0  0  0  0  0  0  0  0  0  0  0  0
  182.4950  176.2290  139.8540 Cl  0  0  0  0  0  0  0  0  0  0  0  0
  181.3040  179.9300  137.2100 C   0  0  0  0  0  0  0  0  0  0  0  0
  188.0540  177.8120  138.1030 C   0  0  0  0  0  2  0  0  0  0  0  0
  188.6660  178.8760  137.2070 C   0  0  0  0  0  1  0  0  0  0  0  0
  190.3870  176.8300  139.6170 C   0  0  0  0  0  2  0  0  0  0  0  0
  191.5820  177.4040  140.3670 C   0  0  0  0  0  1  0  0  0  0  0  0
  189.1290  177.5440  144.6930 N   0  0  0  0  0  2  0  0  0  0  0  0
  188.8010  177.4550  146.1140 C   0  0  0  0  0  1  0  0  0  0  0  0
  1  3  2  0  0  0  0
  1  4  1  0  0  0  0
  2  4  1  0  0  0  0
  2  5  1  0  0  0  0
  3 16  1  0  0  0  0
  4  8  2  0  0  0  0
  5  9  1  6  0  0  0
  5 15  1  0  0  0  0
  6  2  2  0  0  0  0
  7 29  1  6  0  0  0
  7  9  1  0  0  0  0
  8 11  1  0  0  0  0
  8 10  1  0  0  0  0
 12 13  2  0  0  0  0
 12  6  1  0  0  0  0
 13  1  1  0  0  0  0
 14 27  1  6  0  0  0
 14  6  1  0  0  0  0
 14  7  1  0  0  0  0
 15 10  1  0  0  0  0
 15 31  1  1  0  0  0
 16 11  2  0  0  0  0
 17 24  2  0  0  0  0
 18 26  1  0  0  0  0
 19 17  1  0  0  0  0
 20 23  1  0  0  0  0
 21 13  1  0  0  0  0
 22 26  1  0  0  0  0
 22 17  1  0  0  0  0
 23 21  2  0  0  0  0
 24 21  1  0  0  0  0
 24 25  1  0  0  0  0
 26 20  2  0  0  0  0
 28 27  1  0  0  0  0
 29 30  1  0  0  0  0
 31 32  1  0  0  0  0
M  END
>  <MODEL>
9

>  <REMARK>
 VINA RESULT:      -9.6      2.267      5.115
  Name = 
  4 active torsions:
  status: ('A' for Active; 'I' for Inactive)
    1  A    between atoms: C_9  and  C_28
    2  A    between atoms: C_11  and  C_12
    3  A    between atoms: N_13  and  C_29
    4  A    between atoms: C_16  and  C_27
                            x       y       z     vdW  Elec       q    Type
                         _______ _______ _______ _____ _____    ______ ____

>  <TORSDO>
F 4

$$$$
