=
 OpenBabel10252415003D

 34 38  0  0  1  0  0  0  0  0999 V2000
  190.8210  173.7460  136.5590 C   0  0  0  0  0  0  0  0  0  0  0  0
  188.3530  173.6700  135.9250 C   0  0  2  0  0  3  0  0  0  0  0  0
  189.3170  175.3720  137.5590 C   0  0  0  0  0  0  0  0  0  0  0  0
  189.1610  178.7100  137.9600 C   0  0  0  0  0  2  0  0  0  0  0  0
  190.0540  172.4040  134.5940 C   0  0  0  0  0  2  0  0  0  0  0  0
  188.6840  172.3420  135.2440 C   0  0  0  0  0  2  0  0  0  0  0  0
  187.5070  176.7420  136.5110 C   0  0  0  0  0  2  0  0  0  0  0  0
  189.5120  174.2500  136.7210 C   0  0  0  0  0  0  0  0  0  0  0  0
  187.7590  179.1500  137.5490 C   0  0  0  0  0  2  0  0  0  0  0  0
  191.1050  172.5610  135.6820 C   0  0  0  0  0  2  0  0  0  0  0  0
  190.4140  175.9170  138.2710 C   0  0  0  0  0  0  0  0  0  0  0  0
  191.8490  174.2930  137.2560 N   0  0  0  0  0  0  0  0  0  0  0  0
  187.2490  173.4820  136.7370 F   0  0  0  0  0  0  0  0  0  0  0  0
  189.0970  177.8750  139.1510 N   0  0  0  0  0  2  0  0  0  0  0  0
  190.3380  177.1010  139.2230 C   0  0  1  0  0  3  0  0  0  0  0  0
  186.8510  178.0480  136.9710 C   0  0  2  0  0  3  0  0  0  0  0  0
  188.0310  175.9880  137.6410 N   0  0  0  0  0  2  0  0  0  0  0  0
  191.6750  175.3440  138.0910 C   0  0  0  0  0  3  0  0  0  0  0  0
  189.8430  176.3420  142.8830 C   0  0  2  0  0  3  0  0  0  0  0  0
  191.2380  176.3430  143.1480 O   0  0  0  0  0  0  0  0  0  0  0  0
  190.6540  176.6970  140.6000 N   0  0  2  0  0  0  0  0  0  0  0  0
  191.8110  177.5260  142.6370 C   0  0  0  0  0  2  0  0  0  0  0  0
  189.4840  176.8330  141.4710 C   0  0  0  0  0  2  0  0  0  0  0  0
  191.7550  177.5310  141.1020 C   0  0  0  0  0  2  0  0  0  0  0  0
  189.0800  177.1100  143.9460 C   0  0  0  0  0  1  0  0  0  0  0  0
  185.5420  177.8640  137.7350 C   0  0  0  0  0  2  0  0  0  0  0  0
  185.2880  178.9460  138.6250 O   0  0  0  0  0  0  0  0  0  0  0  0
  182.6110  178.9180  139.6150 C   0  0  0  0  0  1  0  0  0  0  0  0
  185.0930  178.7880  140.0020 C   0  0  0  0  0  0  0  0  0  0  0  0
  183.7870  178.7600  140.5170 C   0  0  0  0  0  0  0  0  0  0  0  0
  184.6620  178.4520  142.7550 C   0  0  0  0  0  3  0  0  0  0  0  0
  185.9650  178.4860  142.2520 C   0  0  0  0  0  3  0  0  0  0  0  0
  186.1800  178.6570  140.8820 C   0  0  0  0  0  3  0  0  0  0  0  0
  183.5760  178.5920  141.8890 C   0  0  0  0  0  3  0  0  0  0  0  0
  1  8  2  0  0  0  0
  1 12  1  0  0  0  0
  2  8  1  0  0  0  0
  2 13  1  1  0  0  0
  3 17  1  0  0  0  0
  3 11  2  0  0  0  0
  4 14  1  0  0  0  0
  5  6  1  0  0  0  0
  5 10  1  0  0  0  0
  6  2  1  0  0  0  0
  7 16  1  0  0  0  0
  7 17  1  0  0  0  0
  8  3  1  0  0  0  0
  9  4  1  0  0  0  0
 10  1  1  0  0  0  0
 12 18  2  0  0  0  0
 14 15  1  0  0  0  0
 15 11  1  6  0  0  0
 15 21  1  0  0  0  0
 16  9  1  0  0  0  0
 16 26  1  1  0  0  0
 18 11  1  0  0  0  0
 19 20  1  0  0  0  0
 19 25  1  1  0  0  0
 21 24  1  1  0  0  0
 21 23  1  0  0  0  0
 22 20  1  0  0  0  0
 23 19  1  0  0  0  0
 24 22  1  0  0  0  0
 26 27  1  0  0  0  0
 27 29  1  0  0  0  0
 28 30  1  0  0  0  0
 29 30  2  0  0  0  0
 29 33  1  0  0  0  0
 30 34  1  0  0  0  0
 32 31  1  0  0  0  0
 33 32  2  0  0  0  0
 34 31  2  0  0  0  0
M  END
>  <MODEL>
1

>  <REMARK>
 VINA RESULT:      -7.9      0.000      0.000
  Name = 
  4 active torsions:
  status: ('A' for Active; 'I' for Inactive)
    1  A    between atoms: O_3  and  C_13
    2  A    between atoms: O_3  and  C_17
    3  A    between atoms: N_12  and  C_28
    4  A    between atoms: C_17  and  C_29
                            x       y       z     vdW  Elec       q    Type
                         _______ _______ _______ _____ _____    ______ ____

>  <TORSDO>
F 4

$$$$
=
 OpenBabel10252415003D

 34 38  0  0  1  0  0  0  0  0999 V2000
  180.5170  180.6750  135.9970 C   0  0  0  0  0  0  0  0  0  0  0  0
  181.1780  181.8700  138.1490 C   0  0  2  0  0  3  0  0  0  0  0  0
  181.6820  179.4100  137.7140 C   0  0  0  0  0  0  0  0  0  0  0  0
  184.3760  177.4070  137.9410 C   0  0  0  0  0  2  0  0  0  0  0  0
  180.4500  183.1710  136.1380 C   0  0  0  0  0  2  0  0  0  0  0  0
  180.3130  183.0240  137.6420 C   0  0  0  0  0  2  0  0  0  0  0  0
  183.6720  180.0310  139.0930 C   0  0  0  0  0  2  0  0  0  0  0  0
  181.0930  180.6220  137.2850 C   0  0  0  0  0  0  0  0  0  0  0  0
  185.1910  177.8790  139.1410 C   0  0  0  0  0  2  0  0  0  0  0  0
  179.8780  181.9280  135.4720 C   0  0  0  0  0  2  0  0  0  0  0  0
  181.6170  178.2650  136.8830 C   0  0  0  0  0  0  0  0  0  0  0  0
  180.4730  179.5590  135.2260 N   0  0  0  0  0  0  0  0  0  0  0  0
  180.8100  181.5870  139.4520 F   0  0  0  0  0  0  0  0  0  0  0  0
  183.0930  176.8790  138.3800 N   0  0  0  0  0  2  0  0  0  0  0  0
  182.1840  176.8960  137.2330 C   0  0  1  0  0  3  0  0  0  0  0  0
  184.6810  179.1530  139.8410 C   0  0  2  0  0  3  0  0  0  0  0  0
  182.3880  179.3580  138.9540 N   0  0  0  0  0  2  0  0  0  0  0  0
  180.9990  178.3800  135.6360 C   0  0  0  0  0  3  0  0  0  0  0  0
  179.4830  174.7990  138.8210 C   0  0  2  0  0  3  0  0  0  0  0  0
  179.4650  173.8740  137.7450 O   0  0  0  0  0  0  0  0  0  0  0  0
  181.1160  175.8960  137.3630 N   0  0  2  0  0  0  0  0  0  0  0  0
  180.7790  173.4370  137.4800 C   0  0  0  0  0  2  0  0  0  0  0  0
  180.6390  175.8110  138.7460 C   0  0  0  0  0  2  0  0  0  0  0  0
  181.6280  174.5900  136.9260 C   0  0  0  0  0  2  0  0  0  0  0  0
  179.4600  174.0860  140.1600 C   0  0  0  0  0  1  0  0  0  0  0  0
  184.3740  178.9600  141.3250 C   0  0  0  0  0  2  0  0  0  0  0  0
  185.4050  178.2410  141.9930 O   0  0  0  0  0  0  0  0  0  0  0  0
  187.6910  176.9230  143.0810 C   0  0  0  0  0  1  0  0  0  0  0  0
  185.5520  178.2110  143.3850 C   0  0  0  0  0  0  0  0  0  0  0  0
  186.6710  177.5780  143.9480 C   0  0  0  0  0  0  0  0  0  0  0  0
  185.8890  178.1460  146.1700 C   0  0  0  0  0  3  0  0  0  0  0  0
  184.7690  178.7710  145.6180 C   0  0  0  0  0  3  0  0  0  0  0  0
  184.5990  178.8000  144.2320 C   0  0  0  0  0  3  0  0  0  0  0  0
  186.8360  177.5480  145.3370 C   0  0  0  0  0  3  0  0  0  0  0  0
  1  8  1  0  0  0  0
  2 13  1  1  0  0  0
  3 17  1  0  0  0  0
  4 14  1  0  0  0  0
  4  9  1  0  0  0  0
  5  6  1  0  0  0  0
  6  2  1  0  0  0  0
  7 16  1  0  0  0  0
  8  3  2  0  0  0  0
  8  2  1  0  0  0  0
  9 16  1  0  0  0  0
 10  1  1  0  0  0  0
 10  5  1  0  0  0  0
 11  3  1  0  0  0  0
 12 18  1  0  0  0  0
 12  1  2  0  0  0  0
 15 11  1  1  0  0  0
 15 21  1  0  0  0  0
 15 14  1  0  0  0  0
 16 26  1  1  0  0  0
 17  7  1  0  0  0  0
 18 11  2  0  0  0  0
 19 25  1  1  0  0  0
 20 19  1  0  0  0  0
 21 24  1  1  0  0  0
 21 23  1  0  0  0  0
 22 20  1  0  0  0  0
 23 19  1  0  0  0  0
 24 22  1  0  0  0  0
 26 27  1  0  0  0  0
 27 29  1  0  0  0  0
 28 30  1  0  0  0  0
 29 30  2  0  0  0  0
 29 33  1  0  0  0  0
 30 34  1  0  0  0  0
 32 31  1  0  0  0  0
 33 32  2  0  0  0  0
 34 31  2  0  0  0  0
M  END
>  <MODEL>
2

>  <REMARK>
 VINA RESULT:      -7.4      5.236      9.185
  Name = 
  4 active torsions:
  status: ('A' for Active; 'I' for Inactive)
    1  A    between atoms: O_3  and  C_13
    2  A    between atoms: O_3  and  C_17
    3  A    between atoms: N_12  and  C_28
    4  A    between atoms: C_17  and  C_29
                            x       y       z     vdW  Elec       q    Type
                         _______ _______ _______ _____ _____    ______ ____

>  <TORSDO>
F 4

$$$$
=
 OpenBabel10252415003D

 34 38  0  0  1  0  0  0  0  0999 V2000
  180.1850  179.7240  140.4550 C   0  0  0  0  0  0  0  0  0  0  0  0
  181.0660  179.2920  142.8070 C   0  0  2  0  0  3  0  0  0  0  0  0
  182.3390  178.6280  140.7010 C   0  0  0  0  0  0  0  0  0  0  0  0
  185.4760  179.0030  139.5410 C   0  0  0  0  0  2  0  0  0  0  0  0
  179.1400  180.8450  142.4300 C   0  0  0  0  0  2  0  0  0  0  0  0
  179.6760  179.7110  143.2850 C   0  0  0  0  0  2  0  0  0  0  0  0
  184.2500  179.1660  142.2210 C   0  0  0  0  0  2  0  0  0  0  0  0
  181.1820  179.1820  141.2950 C   0  0  0  0  0  0  0  0  0  0  0  0
  186.4150  178.9170  140.7410 C   0  0  0  0  0  2  0  0  0  0  0  0
  178.9310  180.3330  141.0130 C   0  0  0  0  0  2  0  0  0  0  0  0
  182.4420  178.5600  139.2900 C   0  0  0  0  0  0  0  0  0  0  0  0
  180.3150  179.6430  139.1060 N   0  0  0  0  0  0  0  0  0  0  0  0
  181.3920  178.0890  143.4090 F   0  0  0  0  0  0  0  0  0  0  0  0
  184.8160  177.7230  139.3270 N   0  0  0  0  0  2  0  0  0  0  0  0
  183.6160  177.9660  138.5250 C   0  0  1  0  0  3  0  0  0  0  0  0
  185.7370  178.8090  142.1190 C   0  0  2  0  0  3  0  0  0  0  0  0
  183.4240  178.1920  141.5210 N   0  0  0  0  0  2  0  0  0  0  0  0
  181.3990  179.0820  138.5210 C   0  0  0  0  0  3  0  0  0  0  0  0
  183.2940  174.3360  137.5600 C   0  0  2  0  0  3  0  0  0  0  0  0
  182.8260  174.6470  136.2560 O   0  0  0  0  0  0  0  0  0  0  0  0
  183.2090  176.7740  137.7690 N   0  0  2  0  0  0  0  0  0  0  0  0
  183.7020  175.5710  135.6510 C   0  0  0  0  0  2  0  0  0  0  0  0
  183.7950  175.5600  138.3440 C   0  0  0  0  0  2  0  0  0  0  0  0
  183.6360  176.9260  136.3710 C   0  0  0  0  0  2  0  0  0  0  0  0
  184.3410  173.2380  137.5210 C   0  0  0  0  0  1  0  0  0  0  0  0
  186.1440  177.5680  142.9120 C   0  0  0  0  0  2  0  0  0  0  0  0
  185.9180  177.7320  144.3090 O   0  0  0  0  0  0  0  0  0  0  0  0
  185.3120  178.5720  146.9680 C   0  0  0  0  0  1  0  0  0  0  0  0
  186.9340  177.6730  145.2700 C   0  0  0  0  0  0  0  0  0  0  0  0
  186.6620  178.0700  146.5880 C   0  0  0  0  0  0  0  0  0  0  0  0
  188.9400  177.5500  147.2290 C   0  0  0  0  0  3  0  0  0  0  0  0
  189.2220  177.1600  145.9180 C   0  0  0  0  0  3  0  0  0  0  0  0
  188.2240  177.2240  144.9410 C   0  0  0  0  0  3  0  0  0  0  0  0
  187.6640  178.0070  147.5620 C   0  0  0  0  0  3  0  0  0  0  0  0
  1 10  1  0  0  0  0
  1  8  1  0  0  0  0
  2  6  1  0  0  0  0
  2 13  1  1  0  0  0
  3  8  2  0  0  0  0
  3 17  1  0  0  0  0
  4  9  1  0  0  0  0
  5  6  1  0  0  0  0
  8  2  1  0  0  0  0
  9 16  1  0  0  0  0
 10  5  1  0  0  0  0
 11  3  1  0  0  0  0
 12  1  2  0  0  0  0
 14  4  1  0  0  0  0
 15 11  1  1  0  0  0
 15 14  1  0  0  0  0
 16  7  1  0  0  0  0
 16 26  1  6  0  0  0
 17  7  1  0  0  0  0
 18 12  1  0  0  0  0
 18 11  2  0  0  0  0
 19 25  1  6  0  0  0
 19 23  1  0  0  0  0
 20 19  1  0  0  0  0
 21 24  1  6  0  0  0
 21 23  1  0  0  0  0
 21 15  1  0  0  0  0
 22 20  1  0  0  0  0
 22 24  1  0  0  0  0
 26 27  1  0  0  0  0
 27 29  1  0  0  0  0
 29 30  1  0  0  0  0
 30 28  1  0  0  0  0
 30 34  2  0  0  0  0
 31 34  1  0  0  0  0
 32 31  2  0  0  0  0
 33 29  2  0  0  0  0
 33 32  1  0  0  0  0
M  END
>  <MODEL>
3

>  <REMARK>
 VINA RESULT:      -7.2      4.730      9.016
  Name = 
  4 active torsions:
  status: ('A' for Active; 'I' for Inactive)
    1  A    between atoms: O_3  and  C_13
    2  A    between atoms: O_3  and  C_17
    3  A    between atoms: N_12  and  C_28
    4  A    between atoms: C_17  and  C_29
                            x       y       z     vdW  Elec       q    Type
                         _______ _______ _______ _____ _____    ______ ____

>  <TORSDO>
F 4

$$$$
=
 OpenBabel10252415003D

 34 38  0  0  1  0  0  0  0  0999 V2000
  186.2800  178.5490  140.2470 C   0  0  0  0  0  0  0  0  0  0  0  0
  186.7440  177.9330  142.6760 C   0  0  2  0  0  3  0  0  0  0  0  0
  188.3410  177.3720  140.7700 C   0  0  0  0  0  0  0  0  0  0  0  0
  191.6350  177.7260  140.1780 C   0  0  0  0  0  2  0  0  0  0  0  0
  184.9390  179.5670  142.0950 C   0  0  0  0  0  2  0  0  0  0  0  0
  185.3020  178.3610  142.9440 C   0  0  0  0  0  2  0  0  0  0  0  0
  189.9780  177.7480  142.6210 C   0  0  0  0  0  2  0  0  0  0  0  0
  187.1110  177.9210  141.2000 C   0  0  0  0  0  0  0  0  0  0  0  0
  192.3560  177.5310  141.5080 C   0  0  0  0  0  2  0  0  0  0  0  0
  184.9620  179.1570  140.6300 C   0  0  0  0  0  2  0  0  0  0  0  0
  188.6780  177.3960  139.3940 C   0  0  0  0  0  0  0  0  0  0  0  0
  186.6340  178.5540  138.9370 N   0  0  0  0  0  0  0  0  0  0  0  0
  186.9400  176.6830  143.2370 F   0  0  0  0  0  0  0  0  0  0  0  0
  190.9960  176.4850  139.7660 N   0  0  0  0  0  2  0  0  0  0  0  0
  189.9520  176.8190  138.7950 C   0  0  1  0  0  3  0  0  0  0  0  0
  191.4540  177.3520  142.7440 C   0  0  2  0  0  3  0  0  0  0  0  0
  189.2630  176.8490  141.7260 N   0  0  0  0  0  2  0  0  0  0  0  0
  187.7900  178.0000  138.5010 C   0  0  0  0  0  3  0  0  0  0  0  0
  190.4390  173.6130  136.8710 C   0  0  2  0  0  3  0  0  0  0  0  0
  189.3240  173.8610  136.0290 O   0  0  0  0  0  0  0  0  0  0  0  0
  189.6560  175.6930  137.8990 N   0  0  2  0  0  0  0  0  0  0  0  0
  189.4290  175.1580  135.4830 C   0  0  0  0  0  2  0  0  0  0  0  0
  190.8150  174.8060  137.7660 C   0  0  0  0  0  2  0  0  0  0  0  0
  189.2710  176.2190  136.5820 C   0  0  0  0  0  2  0  0  0  0  0  0
  191.6340  173.1240  136.0730 C   0  0  0  0  0  1  0  0  0  0  0  0
  191.6980  176.0490  143.5030 C   0  0  0  0  0  2  0  0  0  0  0  0
  191.8670  176.2710  144.8990 O   0  0  0  0  0  0  0  0  0  0  0  0
  192.2640  176.0390  147.7160 C   0  0  0  0  0  1  0  0  0  0  0  0
  190.8330  176.6800  145.7490 C   0  0  0  0  0  0  0  0  0  0  0  0
  191.0040  176.5870  147.1400 C   0  0  0  0  0  0  0  0  0  0  0  0
  188.7900  177.5090  147.4860 C   0  0  0  0  0  3  0  0  0  0  0  0
  188.6090  177.5980  146.1040 C   0  0  0  0  0  3  0  0  0  0  0  0
  189.6250  177.1820  145.2390 C   0  0  0  0  0  3  0  0  0  0  0  0
  189.9840  177.0020  148.0020 C   0  0  0  0  0  3  0  0  0  0  0  0
  1 10  1  0  0  0  0
  1  8  1  0  0  0  0
  2  6  1  0  0  0  0
  2 13  1  6  0  0  0
  3  8  2  0  0  0  0
  3 17  1  0  0  0  0
  4  9  1  0  0  0  0
  5  6  1  0  0  0  0
  7 16  1  0  0  0  0
  8  2  1  0  0  0  0
  9 16  1  0  0  0  0
 10  5  1  0  0  0  0
 11  3  1  0  0  0  0
 12  1  2  0  0  0  0
 14  4  1  0  0  0  0
 15 11  1  1  0  0  0
 15 14  1  0  0  0  0
 16 26  1  6  0  0  0
 17  7  1  0  0  0  0
 18 12  1  0  0  0  0
 18 11  2  0  0  0  0
 19 25  1  6  0  0  0
 19 23  1  0  0  0  0
 20 19  1  0  0  0  0
 21 24  1  6  0  0  0
 21 15  1  0  0  0  0
 22 20  1  0  0  0  0
 22 24  1  0  0  0  0
 23 21  1  0  0  0  0
 26 27  1  0  0  0  0
 27 29  1  0  0  0  0
 29 30  1  0  0  0  0
 30 28  1  0  0  0  0
 30 34  2  0  0  0  0
 31 34  1  0  0  0  0
 32 31  2  0  0  0  0
 33 29  2  0  0  0  0
 33 32  1  0  0  0  0
M  END
>  <MODEL>
4

>  <REMARK>
 VINA RESULT:      -7.1      2.589      7.313
  Name = 
  4 active torsions:
  status: ('A' for Active; 'I' for Inactive)
    1  A    between atoms: O_3  and  C_13
    2  A    between atoms: O_3  and  C_17
    3  A    between atoms: N_12  and  C_28
    4  A    between atoms: C_17  and  C_29
                            x       y       z     vdW  Elec       q    Type
                         _______ _______ _______ _____ _____    ______ ____

>  <TORSDO>
F 4

$$$$
=
 OpenBabel10252415003D

 34 38  0  0  1  0  0  0  0  0999 V2000
  193.2070  175.3290  137.3320 C   0  0  0  0  0  0  0  0  0  0  0  0
  191.3850  174.3830  135.8230 C   0  0  2  0  0  3  0  0  0  0  0  0
  190.8970  175.9220  137.7940 C   0  0  0  0  0  0  0  0  0  0  0  0
  189.0930  178.7170  138.3040 C   0  0  0  0  0  2  0  0  0  0  0  0
  193.7920  174.2630  135.1470 C   0  0  0  0  0  2  0  0  0  0  0  0
  192.4840  173.4970  135.2370 C   0  0  0  0  0  2  0  0  0  0  0  0
  189.0740  176.6170  136.2310 C   0  0  0  0  0  2  0  0  0  0  0  0
  191.8350  175.1980  137.0250 C   0  0  0  0  0  0  0  0  0  0  0  0
  187.8480  178.6180  137.4280 C   0  0  0  0  0  2  0  0  0  0  0  0
  194.2620  174.5940  136.5560 C   0  0  0  0  0  2  0  0  0  0  0  0
  191.3390  176.6990  138.8940 C   0  0  0  0  0  0  0  0  0  0  0  0
  193.5960  176.0820  138.3920 N   0  0  0  0  0  0  0  0  0  0  0  0
  190.3070  173.5810  136.1540 F   0  0  0  0  0  0  0  0  0  0  0  0
  189.0660  177.6890  139.3340 N   0  0  0  0  0  2  0  0  0  0  0  0
  190.4360  177.5030  139.8170 C   0  0  1  0  0  3  0  0  0  0  0  0
  187.7810  177.3980  136.4900 C   0  0  2  0  0  3  0  0  0  0  0  0
  189.5160  175.9170  137.4290 N   0  0  0  0  0  2  0  0  0  0  0  0
  192.7080  176.7530  139.1620 C   0  0  0  0  0  3  0  0  0  0  0  0
  189.1940  176.2690  143.1570 C   0  0  2  0  0  3  0  0  0  0  0  0
  190.4760  176.3770  143.7570 O   0  0  0  0  0  0  0  0  0  0  0  0
  190.4670  176.9720  141.1860 N   0  0  2  0  0  0  0  0  0  0  0  0
  191.0000  177.6630  143.5130 C   0  0  0  0  0  2  0  0  0  0  0  0
  189.1170  176.8860  141.7500 C   0  0  0  0  0  2  0  0  0  0  0  0
  191.3060  177.8450  142.0190 C   0  0  0  0  0  2  0  0  0  0  0  0
  188.1130  176.8260  144.0640 C   0  0  0  0  0  1  0  0  0  0  0  0
  186.5460  176.5240  136.7010 C   0  0  0  0  0  2  0  0  0  0  0  0
  185.3850  177.3020  136.9740 O   0  0  0  0  0  0  0  0  0  0  0  0
  184.5560  179.0120  139.1030 C   0  0  0  0  0  1  0  0  0  0  0  0
  184.3410  176.8710  137.8010 C   0  0  0  0  0  0  0  0  0  0  0  0
  183.9050  177.6950  138.8510 C   0  0  0  0  0  0  0  0  0  0  0  0
  182.2380  176.0490  139.4680 C   0  0  0  0  0  3  0  0  0  0  0  0
  182.6710  175.2190  138.4320 C   0  0  0  0  0  3  0  0  0  0  0  0
  183.7200  175.6270  137.6040 C   0  0  0  0  0  3  0  0  0  0  0  0
  182.8570  177.2830  139.6790 C   0  0  0  0  0  3  0  0  0  0  0  0
  1 12  1  0  0  0  0
  2 13  1  1  0  0  0
  2  8  1  0  0  0  0
  3 11  2  0  0  0  0
  4 14  1  0  0  0  0
  5  6  1  0  0  0  0
  5 10  1  0  0  0  0
  6  2  1  0  0  0  0
  7 16  1  0  0  0  0
  7 17  1  0  0  0  0
  8  1  2  0  0  0  0
  8  3  1  0  0  0  0
  9  4  1  0  0  0  0
 10  1  1  0  0  0  0
 11 18  1  0  0  0  0
 12 18  2  0  0  0  0
 14 15  1  0  0  0  0
 15 11  1  6  0  0  0
 15 21  1  0  0  0  0
 16 26  1  1  0  0  0
 16  9  1  0  0  0  0
 17  3  1  0  0  0  0
 19 20  1  0  0  0  0
 19 25  1  1  0  0  0
 21 23  1  1  0  0  0
 21 24  1  0  0  0  0
 22 20  1  0  0  0  0
 23 19  1  0  0  0  0
 24 22  1  0  0  0  0
 26 27  1  0  0  0  0
 27 29  1  0  0  0  0
 29 30  1  0  0  0  0
 30 28  1  0  0  0  0
 30 34  2  0  0  0  0
 31 34  1  0  0  0  0
 32 31  2  0  0  0  0
 33 29  2  0  0  0  0
 33 32  1  0  0  0  0
M  END
>  <MODEL>
5

>  <REMARK>
 VINA RESULT:      -7.0      1.883      2.604
  Name = 
  4 active torsions:
  status: ('A' for Active; 'I' for Inactive)
    1  A    between atoms: O_3  and  C_13
    2  A    between atoms: O_3  and  C_17
    3  A    between atoms: N_12  and  C_28
    4  A    between atoms: C_17  and  C_29
                            x       y       z     vdW  Elec       q    Type
                         _______ _______ _______ _____ _____    ______ ____

>  <TORSDO>
F 4

$$$$
=
 OpenBabel10252415003D

 34 38  0  0  1  0  0  0  0  0999 V2000
  193.4960  175.5410  137.9430 C   0  0  0  0  0  0  0  0  0  0  0  0
  191.8220  174.2670  136.5050 C   0  0  2  0  0  3  0  0  0  0  0  0
  191.1240  175.8700  138.3590 C   0  0  0  0  0  0  0  0  0  0  0  0
  188.9790  178.4460  138.6620 C   0  0  0  0  0  2  0  0  0  0  0  0
  194.2320  174.4020  135.8430 C   0  0  0  0  0  2  0  0  0  0  0  0
  193.0290  173.4870  135.9860 C   0  0  0  0  0  2  0  0  0  0  0  0
  189.2450  176.2160  136.7470 C   0  0  0  0  0  2  0  0  0  0  0  0
  192.1540  175.2160  137.6450 C   0  0  0  0  0  0  0  0  0  0  0  0
  187.7650  178.1280  137.7940 C   0  0  0  0  0  2  0  0  0  0  0  0
  194.6420  174.8900  137.2240 C   0  0  0  0  0  2  0  0  0  0  0  0
  191.4540  176.7730  139.3990 C   0  0  0  0  0  0  0  0  0  0  0  0
  193.7760  176.4110  138.9470 N   0  0  0  0  0  0  0  0  0  0  0  0
  190.8490  173.3620  136.8920 F   0  0  0  0  0  0  0  0  0  0  0  0
  189.0700  177.4990  139.7640 N   0  0  0  0  0  2  0  0  0  0  0  0
  190.4470  177.5210  140.2610 C   0  0  1  0  0  3  0  0  0  0  0  0
  187.8620  176.8450  136.9460 C   0  0  2  0  0  3  0  0  0  0  0  0
  189.7590  175.6650  137.9930 N   0  0  0  0  0  2  0  0  0  0  0  0
  192.8030  177.0190  139.6660 C   0  0  0  0  0  3  0  0  0  0  0  0
  189.3320  176.5240  143.7220 C   0  0  2  0  0  3  0  0  0  0  0  0
  190.6280  176.7030  144.2720 O   0  0  0  0  0  0  0  0  0  0  0  0
  190.5310  177.0980  141.6650 N   0  0  2  0  0  0  0  0  0  0  0  0
  191.1160  177.9770  143.9140 C   0  0  0  0  0  2  0  0  0  0  0  0
  189.2000  177.0290  142.2750 C   0  0  0  0  0  2  0  0  0  0  0  0
  191.3740  178.0490  142.4020 C   0  0  0  0  0  2  0  0  0  0  0  0
  188.2650  177.1270  144.6170 C   0  0  0  0  0  1  0  0  0  0  0  0
  186.7440  175.8410  137.2180 C   0  0  0  0  0  2  0  0  0  0  0  0
  187.1280  174.5120  136.8790 O   0  0  0  0  0  0  0  0  0  0  0  0
  187.6210  172.7380  134.6990 C   0  0  0  0  0  1  0  0  0  0  0  0
  186.2150  173.4760  136.6490 C   0  0  0  0  0  0  0  0  0  0  0  0
  186.4370  172.5820  135.5890 C   0  0  0  0  0  0  0  0  0  0  0  0
  184.4170  171.3760  136.1680 C   0  0  0  0  0  3  0  0  0  0  0  0
  184.1840  172.2660  137.2190 C   0  0  0  0  0  3  0  0  0  0  0  0
  185.0780  173.3140  137.4560 C   0  0  0  0  0  3  0  0  0  0  0  0
  185.5390  171.5360  135.3540 C   0  0  0  0  0  3  0  0  0  0  0  0
  1 12  1  0  0  0  0
  2 13  1  1  0  0  0
  2  8  1  0  0  0  0
  3 11  2  0  0  0  0
  4 14  1  0  0  0  0
  5  6  1  0  0  0  0
  5 10  1  0  0  0  0
  6  2  1  0  0  0  0
  7 16  1  0  0  0  0
  7 17  1  0  0  0  0
  8  1  2  0  0  0  0
  8  3  1  0  0  0  0
  9  4  1  0  0  0  0
 10  1  1  0  0  0  0
 11 18  1  0  0  0  0
 12 18  2  0  0  0  0
 14 15  1  0  0  0  0
 15 11  1  6  0  0  0
 15 21  1  0  0  0  0
 16 26  1  1  0  0  0
 16  9  1  0  0  0  0
 17  3  1  0  0  0  0
 19 20  1  0  0  0  0
 19 25  1  1  0  0  0
 21 23  1  1  0  0  0
 21 24  1  0  0  0  0
 22 20  1  0  0  0  0
 23 19  1  0  0  0  0
 24 22  1  0  0  0  0
 27 26  1  0  0  0  0
 28 30  1  0  0  0  0
 29 27  1  0  0  0  0
 29 33  1  0  0  0  0
 30 29  2  0  0  0  0
 31 32  1  0  0  0  0
 32 33  2  0  0  0  0
 34 30  1  0  0  0  0
 34 31  2  0  0  0  0
M  END
>  <MODEL>
6

>  <REMARK>
 VINA RESULT:      -7.0      2.606      4.494
  Name = 
  4 active torsions:
  status: ('A' for Active; 'I' for Inactive)
    1  A    between atoms: O_3  and  C_13
    2  A    between atoms: O_3  and  C_17
    3  A    between atoms: N_12  and  C_28
    4  A    between atoms: C_17  and  C_29
                            x       y       z     vdW  Elec       q    Type
                         _______ _______ _______ _____ _____    ______ ____

>  <TORSDO>
F 4

$$$$
=
 OpenBabel10252415003D

 34 38  0  0  1  0  0  0  0  0999 V2000
  183.9600  178.7460  144.7310 C   0  0  0  0  0  0  0  0  0  0  0  0
  186.2730  178.0000  143.9630 C   0  0  2  0  0  3  0  0  0  0  0  0
  184.2850  178.2140  142.3820 C   0  0  0  0  0  0  0  0  0  0  0  0
  183.7030  179.6510  139.3950 C   0  0  0  0  0  2  0  0  0  0  0  0
  185.9510  179.0490  146.2130 C   0  0  0  0  0  2  0  0  0  0  0  0
  186.6180  177.9190  145.4500 C   0  0  0  0  0  2  0  0  0  0  0  0
  186.1470  178.8420  140.8370 C   0  0  0  0  0  2  0  0  0  0  0  0
  184.8050  178.2920  143.6950 C   0  0  0  0  0  0  0  0  0  0  0  0
  184.9820  179.5220  138.5740 C   0  0  0  0  0  2  0  0  0  0  0  0
  184.4430  178.8590  146.1480 C   0  0  0  0  0  2  0  0  0  0  0  0
  182.9220  178.5180  142.1470 C   0  0  0  0  0  0  0  0  0  0  0  0
  182.6590  179.0290  144.4700 N   0  0  0  0  0  0  0  0  0  0  0  0
  186.6510  176.8130  143.3610 F   0  0  0  0  0  0  0  0  0  0  0  0
  183.1310  178.3360  139.6440 N   0  0  0  0  0  2  0  0  0  0  0  0
  182.2300  178.4490  140.7930 C   0  0  1  0  0  3  0  0  0  0  0  0
  186.1930  178.9140  139.3070 C   0  0  2  0  0  3  0  0  0  0  0  0
  185.1460  177.8870  141.2910 N   0  0  0  0  0  2  0  0  0  0  0  0
  182.1340  178.9250  143.2270 C   0  0  0  0  0  3  0  0  0  0  0  0
  180.4630  175.2290  139.9390 C   0  0  2  0  0  3  0  0  0  0  0  0
  179.2150  175.6990  140.4250 O   0  0  0  0  0  0  0  0  0  0  0  0
  181.1900  177.4120  140.7800 N   0  0  2  0  0  0  0  0  0  0  0  0
  178.9310  176.9550  139.8500 C   0  0  0  0  0  2  0  0  0  0  0  0
  181.5480  176.3170  139.8740 C   0  0  0  0  0  2  0  0  0  0  0  0
  179.9180  178.0160  140.3610 C   0  0  0  0  0  2  0  0  0  0  0  0
  180.3050  174.5260  138.6040 C   0  0  0  0  0  1  0  0  0  0  0  0
  186.7600  177.6660  138.6320 C   0  0  0  0  0  2  0  0  0  0  0  0
  187.9280  177.9570  137.8720 O   0  0  0  0  0  0  0  0  0  0  0  0
  189.5920  176.8140  135.8540 C   0  0  0  0  0  1  0  0  0  0  0  0
  189.2130  177.5350  138.2340 C   0  0  0  0  0  0  0  0  0  0  0  0
  190.0570  176.9780  137.2600 C   0  0  0  0  0  0  0  0  0  0  0  0
  191.8020  176.6940  138.9180 C   0  0  0  0  0  3  0  0  0  0  0  0
  190.9650  177.2400  139.8940 C   0  0  0  0  0  3  0  0  0  0  0  0
  189.6750  177.6550  139.5550 C   0  0  0  0  0  3  0  0  0  0  0  0
  191.3470  176.5610  137.6050 C   0  0  0  0  0  3  0  0  0  0  0  0
  1 10  1  0  0  0  0
  2 13  1  6  0  0  0
  2  6  1  0  0  0  0
  3  8  1  0  0  0  0
  4 14  1  0  0  0  0
  6  5  1  0  0  0  0
  7 17  1  0  0  0  0
  8  2  1  0  0  0  0
  8  1  2  0  0  0  0
  9 16  1  0  0  0  0
  9  4  1  0  0  0  0
 10  5  1  0  0  0  0
 11  3  2  0  0  0  0
 11 18  1  0  0  0  0
 12  1  1  0  0  0  0
 15 14  1  6  0  0  0
 15 11  1  0  0  0  0
 16 26  1  6  0  0  0
 16  7  1  0  0  0  0
 17  3  1  0  0  0  0
 18 12  2  0  0  0  0
 19 25  1  6  0  0  0
 19 20  1  0  0  0  0
 21 23  1  6  0  0  0
 21 15  1  0  0  0  0
 22 24  1  0  0  0  0
 22 20  1  0  0  0  0
 23 19  1  0  0  0  0
 24 21  1  0  0  0  0
 27 29  1  0  0  0  0
 27 26  1  0  0  0  0
 28 30  1  0  0  0  0
 29 33  1  0  0  0  0
 30 34  1  0  0  0  0
 30 29  2  0  0  0  0
 31 32  1  0  0  0  0
 33 32  2  0  0  0  0
 34 31  2  0  0  0  0
M  END
>  <MODEL>
7

>  <REMARK>
 VINA RESULT:      -6.8      3.633      8.930
  Name = 
  4 active torsions:
  status: ('A' for Active; 'I' for Inactive)
    1  A    between atoms: O_3  and  C_13
    2  A    between atoms: O_3  and  C_17
    3  A    between atoms: N_12  and  C_28
    4  A    between atoms: C_17  and  C_29
                            x       y       z     vdW  Elec       q    Type
                         _______ _______ _______ _____ _____    ______ ____

>  <TORSDO>
F 4

$$$$
=
 OpenBabel10252415003D

 34 38  0  0  1  0  0  0  0  0999 V2000
  182.9560  175.2850  135.7090 C   0  0  0  0  0  0  0  0  0  0  0  0
  181.6580  174.8520  137.8590 C   0  0  2  0  0  3  0  0  0  0  0  0
  183.5910  176.5060  137.7120 C   0  0  0  0  0  0  0  0  0  0  0  0
  184.1270  179.7010  138.6210 C   0  0  0  0  0  2  0  0  0  0  0  0
  180.7810  174.0540  135.6540 C   0  0  0  0  0  2  0  0  0  0  0  0
  181.0200  173.6830  137.1070 C   0  0  0  0  0  2  0  0  0  0  0  0
  182.1630  177.6470  139.4160 C   0  0  0  0  0  2  0  0  0  0  0  0
  182.7770  175.5330  137.0870 C   0  0  0  0  0  0  0  0  0  0  0  0
  183.3690  179.9340  139.9240 C   0  0  0  0  0  2  0  0  0  0  0  0
  182.1260  174.2700  134.9770 C   0  0  0  0  0  2  0  0  0  0  0  0
  184.6110  177.1510  136.9690 C   0  0  0  0  0  0  0  0  0  0  0  0
  183.9420  175.9210  135.0270 N   0  0  0  0  0  0  0  0  0  0  0  0
  182.1190  174.3870  139.0780 F   0  0  0  0  0  0  0  0  0  0  0  0
  185.2020  178.7420  138.8290 N   0  0  0  0  0  2  0  0  0  0  0  0
  185.5720  178.1920  137.5230 C   0  0  1  0  0  3  0  0  0  0  0  0
  182.4970  178.7620  140.4130 C   0  0  2  0  0  3  0  0  0  0  0  0
  183.3480  176.8760  139.0690 N   0  0  0  0  0  2  0  0  0  0  0  0
  184.7560  176.8280  135.6180 C   0  0  0  0  0  3  0  0  0  0  0  0
  188.9440  177.0910  138.7990 C   0  0  2  0  0  3  0  0  0  0  0  0
  189.5430  177.1820  137.5150 O   0  0  0  0  0  0  0  0  0  0  0  0
  186.9560  177.7010  137.5060 N   0  0  2  0  0  0  0  0  0  0  0  0
  189.2610  178.4460  136.9550 C   0  0  0  0  0  2  0  0  0  0  0  0
  187.5200  177.6680  138.8580 C   0  0  0  0  0  2  0  0  0  0  0  0
  187.7630  178.5750  136.6450 C   0  0  0  0  0  2  0  0  0  0  0  0
  189.8340  177.7030  139.8650 C   0  0  0  0  0  1  0  0  0  0  0  0
  182.8550  178.2700  141.8150 C   0  0  0  0  0  2  0  0  0  0  0  0
  183.9350  179.0080  142.3780 O   0  0  0  0  0  0  0  0  0  0  0  0
  186.5990  177.9880  142.4630 C   0  0  0  0  0  1  0  0  0  0  0  0
  184.4970  178.7270  143.6280 C   0  0  0  0  0  0  0  0  0  0  0  0
  185.8090  178.2330  143.7020 C   0  0  0  0  0  0  0  0  0  0  0  0
  185.6630  178.1690  146.1190 C   0  0  0  0  0  3  0  0  0  0  0  0
  184.3550  178.6530  146.0550 C   0  0  0  0  0  3  0  0  0  0  0  0
  183.7720  178.9270  144.8150 C   0  0  0  0  0  3  0  0  0  0  0  0
  186.3870  177.9570  144.9450 C   0  0  0  0  0  3  0  0  0  0  0  0
  1  8  1  0  0  0  0
  2 13  1  1  0  0  0
  3 17  1  0  0  0  0
  4 14  1  0  0  0  0
  4  9  1  0  0  0  0
  5  6  1  0  0  0  0
  6  2  1  0  0  0  0
  7 16  1  0  0  0  0
  8  3  2  0  0  0  0
  8  2  1  0  0  0  0
  9 16  1  0  0  0  0
 10  5  1  0  0  0  0
 10  1  1  0  0  0  0
 11  3  1  0  0  0  0
 12 18  1  0  0  0  0
 12  1  2  0  0  0  0
 15 11  1  1  0  0  0
 15 14  1  0  0  0  0
 16 26  1  1  0  0  0
 17  7  1  0  0  0  0
 18 11  2  0  0  0  0
 19 23  1  0  0  0  0
 19 25  1  1  0  0  0
 20 19  1  0  0  0  0
 21 24  1  6  0  0  0
 21 15  1  0  0  0  0
 21 23  1  0  0  0  0
 22 20  1  0  0  0  0
 24 22  1  0  0  0  0
 26 27  1  0  0  0  0
 27 29  1  0  0  0  0
 28 30  1  0  0  0  0
 29 30  2  0  0  0  0
 29 33  1  0  0  0  0
 30 34  1  0  0  0  0
 32 31  1  0  0  0  0
 33 32  2  0  0  0  0
 34 31  2  0  0  0  0
M  END
>  <MODEL>
8

>  <REMARK>
 VINA RESULT:      -6.6      3.422      5.849
  Name = 
  4 active torsions:
  status: ('A' for Active; 'I' for Inactive)
    1  A    between atoms: O_3  and  C_13
    2  A    between atoms: O_3  and  C_17
    3  A    between atoms: N_12  and  C_28
    4  A    between atoms: C_17  and  C_29
                            x       y       z     vdW  Elec       q    Type
                         _______ _______ _______ _____ _____    ______ ____

>  <TORSDO>
F 4

$$$$
=
 OpenBabel10252415003D

 34 38  0  0  1  0  0  0  0  0999 V2000
  180.7630  179.6040  135.7290 C   0  0  0  0  0  0  0  0  0  0  0  0
  180.5060  180.3320  138.1580 C   0  0  2  0  0  3  0  0  0  0  0  0
  182.1510  178.5340  137.4130 C   0  0  0  0  0  0  0  0  0  0  0  0
  185.4150  177.8760  137.9050 C   0  0  0  0  0  2  0  0  0  0  0  0
  179.5210  181.6960  136.3050 C   0  0  0  0  0  2  0  0  0  0  0  0
  179.2750  181.1020  137.6800 C   0  0  0  0  0  2  0  0  0  0  0  0
  183.4250  179.5360  139.3160 C   0  0  0  0  0  2  0  0  0  0  0  0
  181.1260  179.4500  137.0850 C   0  0  0  0  0  0  0  0  0  0  0  0
  185.7520  178.3020  139.3300 C   0  0  0  0  0  2  0  0  0  0  0  0
  179.6860  180.5600  135.3050 C   0  0  0  0  0  2  0  0  0  0  0  0
  182.7370  177.7420  136.3950 C   0  0  0  0  0  0  0  0  0  0  0  0
  181.3460  178.8290  134.7790 N   0  0  0  0  0  0  0  0  0  0  0  0
  180.1480  179.5780  139.2620 F   0  0  0  0  0  0  0  0  0  0  0  0
  184.4820  176.7590  137.9210 N   0  0  0  0  0  2  0  0  0  0  0  0
  183.8270  176.7020  136.6130 C   0  0  1  0  0  3  0  0  0  0  0  0
  184.6210  178.9990  140.1100 C   0  0  2  0  0  3  0  0  0  0  0  0
  182.6340  178.4500  138.7540 N   0  0  0  0  0  2  0  0  0  0  0  0
  182.3030  177.9200  135.0790 C   0  0  0  0  0  3  0  0  0  0  0  0
  181.6300  173.6380  136.6580 C   0  0  2  0  0  3  0  0  0  0  0  0
  182.6300  172.8220  136.0650 O   0  0  0  0  0  0  0  0  0  0  0  0
  183.3430  175.3510  136.2990 N   0  0  2  0  0  0  0  0  0  0  0  0
  183.8360  172.9640  136.7820 C   0  0  0  0  0  2  0  0  0  0  0  0
  182.1340  175.0330  137.0630 C   0  0  0  0  0  2  0  0  0  0  0  0
  184.4020  174.3810  136.6060 C   0  0  0  0  0  2  0  0  0  0  0  0
  180.9620  172.9320  137.8220 C   0  0  0  0  0  1  0  0  0  0  0  0
  184.2510  178.3000  141.4160 C   0  0  0  0  0  2  0  0  0  0  0  0
  184.8210  178.9490  142.5470 O   0  0  0  0  0  0  0  0  0  0  0  0
  184.2950  178.9370  145.3520 C   0  0  0  0  0  1  0  0  0  0  0  0
  185.7590  178.3480  143.3950 C   0  0  0  0  0  0  0  0  0  0  0  0
  185.5220  178.3180  144.7780 C   0  0  0  0  0  0  0  0  0  0  0  0
  187.6080  177.1340  145.1220 C   0  0  0  0  0  3  0  0  0  0  0  0
  187.8550  177.1660  143.7480 C   0  0  0  0  0  3  0  0  0  0  0  0
  186.9370  177.7740  142.8880 C   0  0  0  0  0  3  0  0  0  0  0  0
  186.4450  177.7120  145.6360 C   0  0  0  0  0  3  0  0  0  0  0  0
  1  8  1  0  0  0  0
  2 13  1  1  0  0  0
  3 17  1  0  0  0  0
  4 14  1  0  0  0  0
  4  9  1  0  0  0  0
  5  6  1  0  0  0  0
  6  2  1  0  0  0  0
  7 16  1  0  0  0  0
  8  3  2  0  0  0  0
  8  2  1  0  0  0  0
  9 16  1  0  0  0  0
 10  1  1  0  0  0  0
 10  5  1  0  0  0  0
 11  3  1  0  0  0  0
 12 18  1  0  0  0  0
 12  1  2  0  0  0  0
 15 11  1  1  0  0  0
 15 14  1  0  0  0  0
 16 26  1  1  0  0  0
 17  7  1  0  0  0  0
 18 11  2  0  0  0  0
 19 23  1  0  0  0  0
 19 25  1  1  0  0  0
 20 19  1  0  0  0  0
 20 22  1  0  0  0  0
 21 24  1  1  0  0  0
 21 15  1  0  0  0  0
 21 23  1  0  0  0  0
 24 22  1  0  0  0  0
 26 27  1  0  0  0  0
 27 29  1  0  0  0  0
 29 30  1  0  0  0  0
 30 28  1  0  0  0  0
 30 34  2  0  0  0  0
 31 34  1  0  0  0  0
 32 31  2  0  0  0  0
 33 29  2  0  0  0  0
 33 32  1  0  0  0  0
M  END
>  <MODEL>
9

>  <REMARK>
 VINA RESULT:      -6.5      4.574      8.453
  Name = 
  4 active torsions:
  status: ('A' for Active; 'I' for Inactive)
    1  A    between atoms: O_3  and  C_13
    2  A    between atoms: O_3  and  C_17
    3  A    between atoms: N_12  and  C_28
    4  A    between atoms: C_17  and  C_29
                            x       y       z     vdW  Elec       q    Type
                         _______ _______ _______ _____ _____    ______ ____

>  <TORSDO>
F 4

$$$$
