=
 OpenBabel10262421423D

 30 35  0  0  1  0  0  0  0  0999 V2000
  187.8500  177.6130  142.2040 C   0  0  0  0  0  0  0  0  0  0  0  0
  189.0240  177.3510  139.7520 C   0  0  0  0  0  0  0  0  0  0  0  0
  191.6520  178.4750  142.9390 N   0  0  0  0  0  2  0  0  0  0  0  0
  187.9700  177.5680  143.6360 C   0  0  0  0  0  0  0  0  0  0  0  0
  186.6280  178.0180  141.6370 C   0  0  0  0  0  3  0  0  0  0  0  0
  184.5790  178.6860  144.3600 N   0  0  0  0  0  0  0  0  0  0  0  0
  186.9900  176.6470  146.5690 C   0  0  0  0  0  2  0  0  0  0  0  0
  185.7220  178.3270  143.8090 N   0  0  0  0  0  0  0  0  0  0  0  0
  184.3520  178.7490  142.1070 N   0  0  0  0  0  0  0  0  0  0  0  0
  190.7580  177.7210  146.0430 O   0  0  0  0  0  0  0  0  0  0  0  0
  190.9210  179.0280  144.0500 C   0  0  0  0  0  0  0  0  0  0  0  0
  185.5840  178.3610  142.4810 C   0  0  0  0  0  0  0  0  0  0  0  0
  186.8640  177.9460  144.4400 C   0  0  0  0  0  0  0  0  0  0  0  0
  190.1980  177.3210  139.0000 C   0  0  0  0  0  3  0  0  0  0  0  0
  189.9250  177.8920  147.1540 C   0  0  0  0  0  2  0  0  0  0  0  0
  187.8310  176.7200  147.8430 C   0  0  0  0  0  2  0  0  0  0  0  0
  182.3510  179.3840  143.4690 C   0  0  0  0  0  1  0  0  0  0  0  0
  187.7510  177.3810  138.9810 C   0  0  0  0  0  1  0  0  0  0  0  0
  191.4100  177.1670  142.3530 C   0  0  2  0  0  3  0  0  0  0  0  0
  191.6600  177.2660  139.5390 C   0  0  0  0  0  2  0  0  0  0  0  0
  183.7620  178.9410  143.3130 C   0  0  0  0  0  0  0  0  0  0  0  0
  188.9930  177.3190  141.2850 C   0  0  0  0  0  0  0  0  0  0  0  0
  189.2260  177.0860  144.3070 C   0  0  0  0  0  2  0  0  0  0  0  0
  191.0970  180.2410  144.3350 O   0  0  0  0  0  0  0  0  0  0  0  0
  190.0220  178.2190  144.9620 C   0  0  1  0  0  3  0  0  0  0  0  0
  189.3110  176.5570  147.5400 C   0  0  0  0  0  2  0  0  0  0  0  0
  186.5130  179.1160  146.6120 C   0  0  0  0  0  1  0  0  0  0  0  0
  191.5320  177.2150  140.9690 N   0  0  0  0  0  0  0  0  0  0  0  0
  190.2170  177.2310  141.6870 C   0  0  0  0  0  0  0  0  0  0  0  0
  186.9370  177.9320  145.8750 N   0  0  0  0  0  0  0  0  0  0  0  0
  1  4  1  0  0  0  0
  2 22  1  0  0  0  0
  3 11  1  0  0  0  0
  4 23  1  0  0  0  0
  4 13  2  0  0  0  0
  5  1  2  0  0  0  0
  5 12  1  0  0  0  0
  7 16  1  0  0  0  0
  8  6  1  0  0  0  0
  8 13  1  0  0  0  0
  9 12  2  0  0  0  0
  9 21  1  0  0  0  0
 10 15  1  0  0  0  0
 11 24  2  0  0  0  0
 11 25  1  0  0  0  0
 12  8  1  0  0  0  0
 13 30  1  0  0  0  0
 14 20  1  0  0  0  0
 14  2  2  0  0  0  0
 15 26  1  0  0  0  0
 18  2  1  0  0  0  0
 19 29  1  6  0  0  0
 19  3  1  0  0  0  0
 20 28  1  0  0  0  0
 21 17  1  0  0  0  0
 21  6  2  0  0  0  0
 22 29  2  0  0  0  0
 22  1  1  0  0  0  0
 25 23  1  6  0  0  0
 25 10  1  0  0  0  0
 26 16  1  0  0  0  0
 28 29  1  0  0  0  0
 28 19  1  0  0  0  0
 30  7  1  0  0  0  0
 30 27  1  0  0  0  0
M  END
>  <MODEL>
1

>  <REMARK>
 VINA RESULT:      -8.6      0.000      0.000
  Name = 
  0 active torsions:
  status: ('A' for Active; 'I' for Inactive)
                            x       y       z     vdW  Elec       q    Type
                         _______ _______ _______ _____ _____    ______ ____

>  <TORSDO>
F 0

$$$$
=
 OpenBabel10262421423D

 30 35  0  0  1  0  0  0  0  0999 V2000
  187.2540  177.7470  142.6780 C   0  0  0  0  0  0  0  0  0  0  0  0
  188.8070  177.2650  144.8710 C   0  0  0  0  0  0  0  0  0  0  0  0
  185.1200  179.3000  145.6400 N   0  0  0  0  0  2  0  0  0  0  0  0
  185.9460  177.9610  142.1190 C   0  0  0  0  0  0  0  0  0  0  0  0
  188.3770  177.8580  141.8380 C   0  0  0  0  0  3  0  0  0  0  0  0
  187.0640  178.6440  138.7200 N   0  0  0  0  0  0  0  0  0  0  0  0
  183.6280  177.4010  139.9460 C   0  0  0  0  0  2  0  0  0  0  0  0
  186.9580  178.3800  140.0080 N   0  0  0  0  0  0  0  0  0  0  0  0
  189.1370  178.2940  139.5650 N   0  0  0  0  0  0  0  0  0  0  0  0
  182.6520  178.9440  143.4520 O   0  0  0  0  0  0  0  0  0  0  0  0
  184.5990  179.9090  144.4430 C   0  0  0  0  0  0  0  0  0  0  0  0
  188.1800  178.1700  140.5020 C   0  0  0  0  0  0  0  0  0  0  0  0
  185.8200  178.2910  140.7460 C   0  0  0  0  0  0  0  0  0  0  0  0
  188.9350  177.2930  146.2590 C   0  0  0  0  0  3  0  0  0  0  0  0
  182.0920  179.1660  142.1890 C   0  0  0  0  0  2  0  0  0  0  0  0
  182.1640  177.8150  140.0900 C   0  0  0  0  0  2  0  0  0  0  0  0
  188.9780  178.8290  137.1250 C   0  0  0  0  0  1  0  0  0  0  0  0
  190.0480  176.9680  144.1040 C   0  0  0  0  0  1  0  0  0  0  0  0
  185.4500  177.8900  145.7780 C   0  0  2  0  0  3  0  0  0  0  0  0
  187.8060  177.5560  147.3030 C   0  0  0  0  0  2  0  0  0  0  0  0
  188.3920  178.5910  138.4710 C   0  0  0  0  0  0  0  0  0  0  0  0
  187.4820  177.4850  144.1320 C   0  0  0  0  0  0  0  0  0  0  0  0
  184.7000  177.7980  142.9460 C   0  0  0  0  0  2  0  0  0  0  0  0
  184.5390  181.1660  144.3920 O   0  0  0  0  0  0  0  0  0  0  0  0
  184.0270  179.1340  143.2750 C   0  0  1  0  0  3  0  0  0  0  0  0
  181.7360  177.8360  141.5480 C   0  0  0  0  0  2  0  0  0  0  0  0
  184.3430  179.7380  139.3530 C   0  0  0  0  0  1  0  0  0  0  0  0
  186.6090  177.7260  146.5280 N   0  0  0  0  0  0  0  0  0  0  0  0
  186.5700  177.6570  145.0310 C   0  0  0  0  0  0  0  0  0  0  0  0
  184.5370  178.5280  140.1430 N   0  0  0  0  0  0  0  0  0  0  0  0
  1 22  1  0  0  0  0
  2 14  2  0  0  0  0
  3 19  1  0  0  0  0
  4  1  1  0  0  0  0
  4 23  1  0  0  0  0
  5  1  2  0  0  0  0
  6  8  1  0  0  0  0
  7 16  1  0  0  0  0
  7 30  1  0  0  0  0
  8 12  1  0  0  0  0
  8 13  1  0  0  0  0
  9 12  2  0  0  0  0
 11  3  1  0  0  0  0
 12  5  1  0  0  0  0
 13  4  2  0  0  0  0
 14 20  1  0  0  0  0
 15 10  1  0  0  0  0
 16 26  1  0  0  0  0
 17 21  1  0  0  0  0
 18  2  1  0  0  0  0
 19 29  1  6  0  0  0
 19 28  1  0  0  0  0
 21  6  2  0  0  0  0
 21  9  1  0  0  0  0
 22  2  1  0  0  0  0
 22 29  2  0  0  0  0
 24 11  2  0  0  0  0
 25 23  1  1  0  0  0
 25 10  1  0  0  0  0
 25 11  1  0  0  0  0
 26 15  1  0  0  0  0
 27 30  1  0  0  0  0
 28 20  1  0  0  0  0
 29 28  1  0  0  0  0
 30 13  1  0  0  0  0
M  END
>  <MODEL>
2

>  <REMARK>
 VINA RESULT:      -8.5      2.812      6.519
  Name = 
  0 active torsions:
  status: ('A' for Active; 'I' for Inactive)
                            x       y       z     vdW  Elec       q    Type
                         _______ _______ _______ _____ _____    ______ ____

>  <TORSDO>
F 0

$$$$
=
 OpenBabel10262421423D

 30 35  0  0  1  0  0  0  0  0999 V2000
  188.7050  177.6370  140.9640 C   0  0  0  0  0  0  0  0  0  0  0  0
  190.7560  177.1480  139.2280 C   0  0  0  0  0  0  0  0  0  0  0  0
  191.9240  178.4540  143.1350 N   0  0  0  0  0  2  0  0  0  0  0  0
  188.2300  177.7040  142.3190 C   0  0  0  0  0  0  0  0  0  0  0  0
  187.8440  178.0280  139.9220 C   0  0  0  0  0  3  0  0  0  0  0  0
  184.9080  178.9670  141.5210 N   0  0  0  0  0  0  0  0  0  0  0  0
  186.0940  177.0480  144.6460 C   0  0  0  0  0  2  0  0  0  0  0  0
  186.1530  178.5340  141.5090 N   0  0  0  0  0  0  0  0  0  0  0  0
  185.6190  178.8540  139.3730 N   0  0  0  0  0  0  0  0  0  0  0  0
  189.8050  177.9760  145.6420 O   0  0  0  0  0  0  0  0  0  0  0  0
  190.8370  179.1140  143.8130 C   0  0  0  0  0  0  0  0  0  0  0  0
  186.5680  178.4650  140.2420 C   0  0  0  0  0  0  0  0  0  0  0  0
  186.9170  178.1740  142.5750 C   0  0  0  0  0  0  0  0  0  0  0  0
  192.1310  177.0270  139.0260 C   0  0  0  0  0  3  0  0  0  0  0  0
  188.6040  178.2570  146.3020 C   0  0  0  0  0  2  0  0  0  0  0  0
  186.3470  177.2010  146.1450 C   0  0  0  0  0  2  0  0  0  0  0  0
  183.2770  179.6490  139.7550 C   0  0  0  0  0  1  0  0  0  0  0  0
  189.9100  177.1490  138.0040 C   0  0  0  0  0  1  0  0  0  0  0  0
  191.8660  177.1100  142.5840 C   0  0  2  0  0  3  0  0  0  0  0  0
  193.2420  176.9760  140.1190 C   0  0  0  0  0  2  0  0  0  0  0  0
  184.6020  179.1580  140.2180 C   0  0  0  0  0  0  0  0  0  0  0  0
  190.1040  177.2400  140.6130 C   0  0  0  0  0  0  0  0  0  0  0  0
  189.0760  177.2440  143.4740 C   0  0  0  0  0  2  0  0  0  0  0  0
  190.9520  180.3410  144.0690 O   0  0  0  0  0  0  0  0  0  0  0  0
  189.6010  178.4050  144.3260 C   0  0  1  0  0  3  0  0  0  0  0  0
  187.8110  176.9750  146.4850 C   0  0  0  0  0  2  0  0  0  0  0  0
  185.7810  179.5240  144.3360 C   0  0  0  0  0  1  0  0  0  0  0  0
  192.5420  177.0440  141.3710 N   0  0  0  0  0  0  0  0  0  0  0  0
  191.0520  177.1520  141.4860 C   0  0  0  0  0  0  0  0  0  0  0  0
  186.4000  178.2740  143.9120 N   0  0  0  0  0  0  0  0  0  0  0  0
  1  4  1  0  0  0  0
  2 22  1  0  0  0  0
  3 11  1  0  0  0  0
  4 13  2  0  0  0  0
  4 23  1  0  0  0  0
  5 12  1  0  0  0  0
  5  1  2  0  0  0  0
  7 16  1  0  0  0  0
  8  6  1  0  0  0  0
  8 13  1  0  0  0  0
  9 21  1  0  0  0  0
  9 12  2  0  0  0  0
 10 15  1  0  0  0  0
 11 24  2  0  0  0  0
 11 25  1  0  0  0  0
 12  8  1  0  0  0  0
 13 30  1  0  0  0  0
 14  2  2  0  0  0  0
 14 20  1  0  0  0  0
 15 26  1  0  0  0  0
 16 26  1  0  0  0  0
 17 21  1  0  0  0  0
 18  2  1  0  0  0  0
 19 29  1  6  0  0  0
 19  3  1  0  0  0  0
 20 28  1  0  0  0  0
 21  6  2  0  0  0  0
 22  1  1  0  0  0  0
 22 29  2  0  0  0  0
 25 23  1  6  0  0  0
 25 10  1  0  0  0  0
 28 29  1  0  0  0  0
 28 19  1  0  0  0  0
 30 27  1  0  0  0  0
 30  7  1  0  0  0  0
M  END
>  <MODEL>
3

>  <REMARK>
 VINA RESULT:      -7.5      1.408      1.955
  Name = 
  0 active torsions:
  status: ('A' for Active; 'I' for Inactive)
                            x       y       z     vdW  Elec       q    Type
                         _______ _______ _______ _____ _____    ______ ____

>  <TORSDO>
F 0

$$$$
=
 OpenBabel10262421423D

 30 35  0  0  1  0  0  0  0  0999 V2000
  184.4300  178.5500  141.0240 C   0  0  0  0  0  0  0  0  0  0  0  0
  186.3650  178.1520  139.1390 C   0  0  0  0  0  0  0  0  0  0  0  0
  182.4710  176.6980  138.1130 N   0  0  0  0  0  2  0  0  0  0  0  0
  183.0390  178.7330  141.3390 C   0  0  0  0  0  0  0  0  0  0  0  0
  185.3590  178.4590  142.0760 C   0  0  0  0  0  3  0  0  0  0  0  0
  183.4460  178.7650  144.9590 N   0  0  0  0  0  0  0  0  0  0  0  0
  180.6090  180.2540  142.8180 C   0  0  0  0  0  2  0  0  0  0  0  0
  183.5980  178.7000  143.6510 N   0  0  0  0  0  0  0  0  0  0  0  0
  185.6470  178.4970  144.4950 N   0  0  0  0  0  0  0  0  0  0  0  0
  179.8470  178.0570  139.6210 O   0  0  0  0  0  0  0  0  0  0  0  0
  181.6500  176.5270  139.2840 C   0  0  0  0  0  0  0  0  0  0  0  0
  184.8970  178.5470  143.3800 C   0  0  0  0  0  0  0  0  0  0  0  0
  182.6350  178.8010  142.6970 C   0  0  0  0  0  0  0  0  0  0  0  0
  186.6910  177.7400  137.8470 C   0  0  0  0  0  3  0  0  0  0  0  0
  179.0680  178.2780  140.7610 C   0  0  0  0  0  2  0  0  0  0  0  0
  179.1280  180.0920  142.4770 C   0  0  0  0  0  2  0  0  0  0  0  0
  185.0050  178.6550  146.9090 C   0  0  0  0  0  1  0  0  0  0  0  0
  187.5110  178.4060  140.0550 C   0  0  0  0  0  1  0  0  0  0  0  0
  183.1300  177.9380  137.7330 C   0  0  2  0  0  3  0  0  0  0  0  0
  185.7030  177.4260  136.6820 C   0  0  0  0  0  2  0  0  0  0  0  0
  184.6980  178.6380  145.4540 C   0  0  0  0  0  0  0  0  0  0  0  0
  184.9280  178.3780  139.6240 C   0  0  0  0  0  0  0  0  0  0  0  0
  182.0020  178.9000  140.2620 C   0  0  0  0  0  2  0  0  0  0  0  0
  181.3000  175.3600  139.6010 O   0  0  0  0  0  0  0  0  0  0  0  0
  181.1000  177.6710  140.1100 C   0  0  1  0  0  3  0  0  0  0  0  0
  178.9310  179.7710  141.0040 C   0  0  0  0  0  2  0  0  0  0  0  0
  180.6760  178.0620  144.0490 C   0  0  0  0  0  1  0  0  0  0  0  0
  184.3950  177.6870  137.2170 N   0  0  0  0  0  0  0  0  0  0  0  0
  184.1480  178.1490  138.6200 C   0  0  0  0  0  0  0  0  0  0  0  0
  181.2560  178.9680  143.0650 N   0  0  0  0  0  0  0  0  0  0  0  0
  1  4  1  0  0  0  0
  1  5  2  0  0  0  0
  2 22  1  0  0  0  0
  2 18  1  0  0  0  0
  3 11  1  0  0  0  0
  4 13  2  0  0  0  0
  5 12  1  0  0  0  0
  6 21  2  0  0  0  0
  7 30  1  0  0  0  0
  8  6  1  0  0  0  0
  9 21  1  0  0  0  0
 10 25  1  0  0  0  0
 10 15  1  0  0  0  0
 11 24  2  0  0  0  0
 11 25  1  0  0  0  0
 12  8  1  0  0  0  0
 12  9  2  0  0  0  0
 13 30  1  0  0  0  0
 13  8  1  0  0  0  0
 14  2  2  0  0  0  0
 15 26  1  0  0  0  0
 16  7  1  0  0  0  0
 19  3  1  1  0  0  0
 19 29  1  0  0  0  0
 20 28  1  0  0  0  0
 20 14  1  0  0  0  0
 21 17  1  0  0  0  0
 22  1  1  0  0  0  0
 23  4  1  0  0  0  0
 25 23  1  6  0  0  0
 26 16  1  0  0  0  0
 28 19  1  0  0  0  0
 28 29  1  0  0  0  0
 29 22  2  0  0  0  0
 30 27  1  0  0  0  0
M  END
>  <MODEL>
4

>  <REMARK>
 VINA RESULT:      -7.4      4.554      7.505
  Name = 
  0 active torsions:
  status: ('A' for Active; 'I' for Inactive)
                            x       y       z     vdW  Elec       q    Type
                         _______ _______ _______ _____ _____    ______ ____

>  <TORSDO>
F 0

$$$$
=
 OpenBabel10262421423D

 30 35  0  0  1  0  0  0  0  0999 V2000
  186.1160  178.4490  140.0100 C   0  0  0  0  0  0  0  0  0  0  0  0
  188.7600  178.0780  139.4390 C   0  0  0  0  0  0  0  0  0  0  0  0
  186.0140  176.3010  136.6760 N   0  0  0  0  0  2  0  0  0  0  0  0
  184.7590  178.5530  139.5440 C   0  0  0  0  0  0  0  0  0  0  0  0
  186.3630  178.4840  141.3940 C   0  0  0  0  0  3  0  0  0  0  0  0
  183.2220  178.8230  142.8360 N   0  0  0  0  0  0  0  0  0  0  0  0
  181.8710  179.9840  139.4190 C   0  0  0  0  0  2  0  0  0  0  0  0
  184.0350  178.6920  141.8060 N   0  0  0  0  0  0  0  0  0  0  0  0
  185.3500  178.6820  143.6010 N   0  0  0  0  0  0  0  0  0  0  0  0
  182.9500  177.5590  136.4900 O   0  0  0  0  0  0  0  0  0  0  0  0
  184.7090  176.1410  137.2650 C   0  0  0  0  0  0  0  0  0  0  0  0
  185.2880  178.6140  142.2590 C   0  0  0  0  0  0  0  0  0  0  0  0
  183.7060  178.6710  140.4870 C   0  0  0  0  0  0  0  0  0  0  0  0
  189.7230  177.6160  138.5410 C   0  0  0  0  0  3  0  0  0  0  0  0
  181.6850  177.7910  137.0390 C   0  0  0  0  0  2  0  0  0  0  0  0
  180.7900  179.7000  138.3760 C   0  0  0  0  0  2  0  0  0  0  0  0
  183.5400  178.9340  145.3120 C   0  0  0  0  0  1  0  0  0  0  0  0
  189.2540  178.4630  140.7890 C   0  0  0  0  0  1  0  0  0  0  0  0
  186.7370  177.5590  136.5880 C   0  0  2  0  0  3  0  0  0  0  0  0
  189.4950  177.1670  137.0650 C   0  0  0  0  0  2  0  0  0  0  0  0
  184.0360  178.8110  143.9150 C   0  0  0  0  0  0  0  0  0  0  0  0
  187.2750  178.2320  139.0900 C   0  0  0  0  0  0  0  0  0  0  0  0
  184.4300  178.5850  138.0770 C   0  0  0  0  0  2  0  0  0  0  0  0
  184.2790  174.9730  137.4540 O   0  0  0  0  0  0  0  0  0  0  0  0
  183.7760  177.2890  137.5870 C   0  0  1  0  0  3  0  0  0  0  0  0
  181.3980  179.2820  137.0480 C   0  0  0  0  0  2  0  0  0  0  0  0
  181.3520  177.8770  140.6890 C   0  0  0  0  0  1  0  0  0  0  0  0
  188.0930  177.3670  136.8230 N   0  0  0  0  0  0  0  0  0  0  0  0
  187.1380  177.8910  137.8510 C   0  0  0  0  0  0  0  0  0  0  0  0
  182.3330  178.7630  140.0740 N   0  0  0  0  0  0  0  0  0  0  0  0
  1  5  2  0  0  0  0
  2 18  1  0  0  0  0
  3 11  1  0  0  0  0
  4  1  1  0  0  0  0
  4 13  2  0  0  0  0
  5 12  1  0  0  0  0
  6 21  2  0  0  0  0
  7 30  1  0  0  0  0
  8 12  1  0  0  0  0
  8  6  1  0  0  0  0
  9 21  1  0  0  0  0
 10 15  1  0  0  0  0
 10 25  1  0  0  0  0
 11 24  2  0  0  0  0
 11 25  1  0  0  0  0
 12  9  2  0  0  0  0
 13  8  1  0  0  0  0
 14  2  2  0  0  0  0
 15 26  1  0  0  0  0
 16  7  1  0  0  0  0
 19  3  1  1  0  0  0
 19 28  1  0  0  0  0
 19 29  1  0  0  0  0
 20 14  1  0  0  0  0
 21 17  1  0  0  0  0
 22  2  1  0  0  0  0
 22  1  1  0  0  0  0
 23  4  1  0  0  0  0
 25 23  1  6  0  0  0
 26 16  1  0  0  0  0
 28 20  1  0  0  0  0
 28 29  1  0  0  0  0
 29 22  2  0  0  0  0
 30 13  1  0  0  0  0
 30 27  1  0  0  0  0
M  END
>  <MODEL>
5

>  <REMARK>
 VINA RESULT:      -7.3      4.318      7.132
  Name = 
  0 active torsions:
  status: ('A' for Active; 'I' for Inactive)
                            x       y       z     vdW  Elec       q    Type
                         _______ _______ _______ _____ _____    ______ ____

>  <TORSDO>
F 0

$$$$
=
 OpenBabel10262421423D

 30 35  0  0  1  0  0  0  0  0999 V2000
  183.8590  178.8390  140.7380 C   0  0  0  0  0  0  0  0  0  0  0  0
  186.5260  178.6690  141.2990 C   0  0  0  0  0  0  0  0  0  0  0  0
  185.3100  176.9070  137.5910 N   0  0  0  0  0  2  0  0  0  0  0  0
  182.8100  178.8890  139.7560 C   0  0  0  0  0  0  0  0  0  0  0  0
  183.5140  178.8000  142.1000 C   0  0  0  0  0  3  0  0  0  0  0  0
  180.0410  178.8530  142.1230 N   0  0  0  0  0  0  0  0  0  0  0  0
  180.1200  180.1460  138.4940 C   0  0  0  0  0  2  0  0  0  0  0  0
  181.2130  178.8390  141.5180 N   0  0  0  0  0  0  0  0  0  0  0  0
  181.6720  178.7940  143.6950 N   0  0  0  0  0  0  0  0  0  0  0  0
  182.5000  177.9840  136.1960 O   0  0  0  0  0  0  0  0  0  0  0  0
  183.8970  176.6300  137.5820 C   0  0  0  0  0  0  0  0  0  0  0  0
  182.1720  178.8090  142.4470 C   0  0  0  0  0  0  0  0  0  0  0  0
  181.4570  178.8820  140.1810 C   0  0  0  0  0  0  0  0  0  0  0  0
  187.8070  178.3250  140.8660 C   0  0  0  0  0  3  0  0  0  0  0  0
  181.1070  178.1020  136.1800 C   0  0  0  0  0  2  0  0  0  0  0  0
  179.5880  179.8630  137.0890 C   0  0  0  0  0  2  0  0  0  0  0  0
  179.3060  178.8240  144.5120 C   0  0  0  0  0  1  0  0  0  0  0  0
  186.3890  178.9960  142.7450 C   0  0  0  0  0  1  0  0  0  0  0  0
  185.9000  178.2100  137.8510 C   0  0  2  0  0  3  0  0  0  0  0  0
  188.2420  177.9590  139.4140 C   0  0  0  0  0  2  0  0  0  0  0  0
  180.3390  178.8220  143.4420 C   0  0  0  0  0  0  0  0  0  0  0  0
  185.3080  178.7530  140.3730 C   0  0  0  0  0  0  0  0  0  0  0  0
  183.1100  178.9950  138.2860 C   0  0  0  0  0  2  0  0  0  0  0  0
  183.5260  175.4280  137.5370 O   0  0  0  0  0  0  0  0  0  0  0  0
  182.8230  177.6960  137.5260 C   0  0  1  0  0  3  0  0  0  0  0  0
  180.7200  179.5690  136.1180 C   0  0  0  0  0  2  0  0  0  0  0  0
  179.3010  177.9330  139.3660 C   0  0  0  0  0  1  0  0  0  0  0  0
  187.0520  178.0870  138.6200 N   0  0  0  0  0  0  0  0  0  0  0  0
  185.7190  178.4840  139.1780 C   0  0  0  0  0  0  0  0  0  0  0  0
  180.3710  178.9150  139.2410 N   0  0  0  0  0  0  0  0  0  0  0  0
  1  5  2  0  0  0  0
  2 18  1  0  0  0  0
  4 13  2  0  0  0  0
  4  1  1  0  0  0  0
  5 12  1  0  0  0  0
  6 21  2  0  0  0  0
  7 30  1  0  0  0  0
  8  6  1  0  0  0  0
  8 12  1  0  0  0  0
 10 25  1  0  0  0  0
 11  3  1  0  0  0  0
 12  9  2  0  0  0  0
 13  8  1  0  0  0  0
 14  2  2  0  0  0  0
 15 10  1  0  0  0  0
 16  7  1  0  0  0  0
 19  3  1  1  0  0  0
 19 28  1  0  0  0  0
 19 29  1  0  0  0  0
 20 14  1  0  0  0  0
 21  9  1  0  0  0  0
 21 17  1  0  0  0  0
 22  1  1  0  0  0  0
 22  2  1  0  0  0  0
 23  4  1  0  0  0  0
 24 11  2  0  0  0  0
 25 11  1  0  0  0  0
 25 23  1  6  0  0  0
 26 15  1  0  0  0  0
 26 16  1  0  0  0  0
 28 29  1  0  0  0  0
 28 20  1  0  0  0  0
 29 22  2  0  0  0  0
 30 27  1  0  0  0  0
 30 13  1  0  0  0  0
M  END
>  <MODEL>
6

>  <REMARK>
 VINA RESULT:      -6.9      4.938      8.082
  Name = 
  0 active torsions:
  status: ('A' for Active; 'I' for Inactive)
                            x       y       z     vdW  Elec       q    Type
                         _______ _______ _______ _____ _____    ______ ____

>  <TORSDO>
F 0

$$$$
=
 OpenBabel10262421423D

 30 35  0  0  1  0  0  0  0  0999 V2000
  185.9850  178.5780  142.4860 C   0  0  0  0  0  0  0  0  0  0  0  0
  185.1770  178.9570  145.0660 C   0  0  0  0  0  0  0  0  0  0  0  0
  188.6000  176.4350  144.5630 N   0  0  0  0  0  2  0  0  0  0  0  0
  187.0460  178.2880  141.5590 C   0  0  0  0  0  0  0  0  0  0  0  0
  184.6720  178.7020  141.9980 C   0  0  0  0  0  3  0  0  0  0  0  0
  184.9550  178.1650  138.5780 N   0  0  0  0  0  0  0  0  0  0  0  0
  188.7370  178.8460  138.8690 C   0  0  0  0  0  2  0  0  0  0  0  0
  185.4460  178.2530  139.7990 N   0  0  0  0  0  0  0  0  0  0  0  0
  183.2650  178.6410  140.0100 N   0  0  0  0  0  0  0  0  0  0  0  0
  190.4000  176.7770  141.7970 O   0  0  0  0  0  0  0  0  0  0  0  0
  188.6800  175.9240  143.2180 C   0  0  0  0  0  0  0  0  0  0  0  0
  184.4490  178.5380  140.6400 C   0  0  0  0  0  0  0  0  0  0  0  0
  186.7430  178.1190  140.1840 C   0  0  0  0  0  0  0  0  0  0  0  0
  185.4310  178.7700  146.4250 C   0  0  0  0  0  3  0  0  0  0  0  0
  190.5560  176.6520  140.4130 C   0  0  0  0  0  2  0  0  0  0  0  0
  190.1090  178.2530  138.5500 C   0  0  0  0  0  2  0  0  0  0  0  0
  182.6710  178.4000  137.5910 C   0  0  0  0  0  1  0  0  0  0  0  0
  183.8300  179.4860  144.7180 C   0  0  0  0  0  1  0  0  0  0  0  0
  188.5280  177.8450  144.9130 C   0  0  2  0  0  3  0  0  0  0  0  0
  186.7520  178.2530  147.0730 C   0  0  0  0  0  2  0  0  0  0  0  0
  183.6320  178.4000  138.7270 C   0  0  0  0  0  0  0  0  0  0  0  0
  186.2040  178.6810  143.9620 C   0  0  0  0  0  0  0  0  0  0  0  0
  188.4800  178.2030  142.0040 C   0  0  0  0  0  2  0  0  0  0  0  0
  188.5420  174.6850  143.0430 O   0  0  0  0  0  0  0  0  0  0  0  0
  189.0170  176.7680  142.0070 C   0  0  1  0  0  3  0  0  0  0  0  0
  190.9110  178.0020  139.8160 C   0  0  0  0  0  2  0  0  0  0  0  0
  187.5570  176.6980  138.3050 C   0  0  0  0  0  1  0  0  0  0  0  0
  187.6540  178.0460  145.9750 N   0  0  0  0  0  0  0  0  0  0  0  0
  187.2920  178.2960  144.5430 C   0  0  0  0  0  0  0  0  0  0  0  0
  187.7640  177.8140  139.2200 N   0  0  0  0  0  0  0  0  0  0  0  0
  1 22  1  0  0  0  0
  2 14  2  0  0  0  0
  3 19  1  0  0  0  0
  4 23  1  0  0  0  0
  4  1  1  0  0  0  0
  5  1  2  0  0  0  0
  6 21  2  0  0  0  0
  6  8  1  0  0  0  0
  7 30  1  0  0  0  0
  8 13  1  0  0  0  0
  8 12  1  0  0  0  0
  9 12  2  0  0  0  0
 10 25  1  0  0  0  0
 11  3  1  0  0  0  0
 12  5  1  0  0  0  0
 13  4  2  0  0  0  0
 14 20  1  0  0  0  0
 15 10  1  0  0  0  0
 16  7  1  0  0  0  0
 16 26  1  0  0  0  0
 17 21  1  0  0  0  0
 18  2  1  0  0  0  0
 19 29  1  6  0  0  0
 19 28  1  0  0  0  0
 21  9  1  0  0  0  0
 22 29  2  0  0  0  0
 22  2  1  0  0  0  0
 24 11  2  0  0  0  0
 25 23  1  1  0  0  0
 25 11  1  0  0  0  0
 26 15  1  0  0  0  0
 27 30  1  0  0  0  0
 28 20  1  0  0  0  0
 29 28  1  0  0  0  0
 30 13  1  0  0  0  0
M  END
>  <MODEL>
7

>  <REMARK>
 VINA RESULT:      -6.8      2.394      5.782
  Name = 
  0 active torsions:
  status: ('A' for Active; 'I' for Inactive)
                            x       y       z     vdW  Elec       q    Type
                         _______ _______ _______ _____ _____    ______ ____

>  <TORSDO>
F 0

$$$$
=
 OpenBabel10262421423D

 30 35  0  0  1  0  0  0  0  0999 V2000
  184.9210  178.3970  139.5820 C   0  0  0  0  0  0  0  0  0  0  0  0
  187.3610  177.9520  138.4390 C   0  0  0  0  0  0  0  0  0  0  0  0
  184.0280  176.2000  136.4010 N   0  0  0  0  0  2  0  0  0  0  0  0
  183.4970  178.5260  139.4310 C   0  0  0  0  0  0  0  0  0  0  0  0
  185.4750  178.4460  140.8740 C   0  0  0  0  0  3  0  0  0  0  0  0
  182.7460  178.8840  142.9770 N   0  0  0  0  0  0  0  0  0  0  0  0
  180.6840  180.0260  139.9280 C   0  0  0  0  0  2  0  0  0  0  0  0
  183.3030  178.7180  141.7940 N   0  0  0  0  0  0  0  0  0  0  0  0
  184.9880  178.7030  143.2470 N   0  0  0  0  0  0  0  0  0  0  0  0
  181.0270  177.5300  136.8820 O   0  0  0  0  0  0  0  0  0  0  0  0
  182.8860  176.0820  137.2710 C   0  0  0  0  0  0  0  0  0  0  0  0
  184.6250  178.6170  141.9560 C   0  0  0  0  0  0  0  0  0  0  0  0
  182.6860  178.6840  140.5830 C   0  0  0  0  0  0  0  0  0  0  0  0
  188.0870  177.4530  137.3580 C   0  0  0  0  0  3  0  0  0  0  0  0
  179.9230  177.8010  137.6970 C   0  0  0  0  0  2  0  0  0  0  0  0
  179.3910  179.7520  139.1610 C   0  0  0  0  0  2  0  0  0  0  0  0
  183.6160  179.0250  145.3160 C   0  0  0  0  0  1  0  0  0  0  0  0
  188.1530  178.3460  139.6350 C   0  0  0  0  0  1  0  0  0  0  0  0
  184.7380  177.4390  136.1260 C   0  0  2  0  0  3  0  0  0  0  0  0
  187.5240  176.9870  135.9800 C   0  0  0  0  0  2  0  0  0  0  0  0
  183.7820  178.8690  143.8460 C   0  0  0  0  0  0  0  0  0  0  0  0
  185.8390  178.1370  138.4290 C   0  0  0  0  0  0  0  0  0  0  0  0
  182.8470  178.5440  138.0750 C   0  0  0  0  0  2  0  0  0  0  0  0
  182.4860  174.9270  137.5750 O   0  0  0  0  0  0  0  0  0  0  0  0
  182.0730  177.2570  137.7700 C   0  0  1  0  0  3  0  0  0  0  0  0
  179.6760  179.2990  137.7390 C   0  0  0  0  0  2  0  0  0  0  0  0
  180.4220  177.9520  141.3250 C   0  0  0  0  0  1  0  0  0  0  0  0
  186.1080  177.2170  136.0550 N   0  0  0  0  0  0  0  0  0  0  0  0
  185.4200  177.7800  137.2610 C   0  0  0  0  0  0  0  0  0  0  0  0
  181.2570  178.8040  140.4870 N   0  0  0  0  0  0  0  0  0  0  0  0
  1  5  2  0  0  0  0
  2 18  1  0  0  0  0
  3 11  1  0  0  0  0
  4  1  1  0  0  0  0
  4 13  2  0  0  0  0
  5 12  1  0  0  0  0
  6 21  2  0  0  0  0
  7 30  1  0  0  0  0
  8 12  1  0  0  0  0
  8  6  1  0  0  0  0
  9 21  1  0  0  0  0
 10 15  1  0  0  0  0
 10 25  1  0  0  0  0
 11 24  2  0  0  0  0
 11 25  1  0  0  0  0
 12  9  2  0  0  0  0
 13  8  1  0  0  0  0
 14  2  2  0  0  0  0
 15 26  1  0  0  0  0
 16  7  1  0  0  0  0
 19  3  1  1  0  0  0
 19 29  1  0  0  0  0
 20 28  1  0  0  0  0
 20 14  1  0  0  0  0
 21 17  1  0  0  0  0
 22  2  1  0  0  0  0
 22  1  1  0  0  0  0
 23  4  1  0  0  0  0
 25 23  1  6  0  0  0
 26 16  1  0  0  0  0
 28 19  1  0  0  0  0
 28 29  1  0  0  0  0
 29 22  2  0  0  0  0
 30 13  1  0  0  0  0
 30 27  1  0  0  0  0
M  END
>  <MODEL>
8

>  <REMARK>
 VINA RESULT:      -6.8      4.932      7.896
  Name = 
  0 active torsions:
  status: ('A' for Active; 'I' for Inactive)
                            x       y       z     vdW  Elec       q    Type
                         _______ _______ _______ _____ _____    ______ ____

>  <TORSDO>
F 0

$$$$
=
 OpenBabel10262421423D

 30 35  0  0  1  0  0  0  0  0999 V2000
  184.0460  178.0490  140.2980 C   0  0  0  0  0  0  0  0  0  0  0  0
  184.9300  178.7380  142.7880 C   0  0  0  0  0  0  0  0  0  0  0  0
  180.8470  179.7170  141.9490 N   0  0  0  0  0  2  0  0  0  0  0  0
  182.9520  177.6850  139.4380 C   0  0  0  0  0  0  0  0  0  0  0  0
  185.3220  178.2280  139.7350 C   0  0  0  0  0  3  0  0  0  0  0  0
  184.8790  177.6070  136.3470 N   0  0  0  0  0  0  0  0  0  0  0  0
  181.5650  175.8320  137.1910 C   0  0  0  0  0  2  0  0  0  0  0  0
  184.4460  177.7260  137.5870 N   0  0  0  0  0  0  0  0  0  0  0  0
  186.6260  178.1620  137.6780 N   0  0  0  0  0  0  0  0  0  0  0  0
  179.2820  178.0000  139.5810 O   0  0  0  0  0  0  0  0  0  0  0  0
  180.5980  179.7530  140.5310 C   0  0  0  0  0  0  0  0  0  0  0  0
  185.4790  178.0480  138.3700 C   0  0  0  0  0  0  0  0  0  0  0  0
  183.1820  177.5310  138.0470 C   0  0  0  0  0  0  0  0  0  0  0  0
  184.6240  179.2210  144.0600 C   0  0  0  0  0  3  0  0  0  0  0  0
  179.0960  177.6530  138.2400 C   0  0  0  0  0  2  0  0  0  0  0  0
  180.0730  175.8150  136.8590 C   0  0  0  0  0  2  0  0  0  0  0  0
  187.1050  177.8600  135.2400 C   0  0  0  0  0  1  0  0  0  0  0  0
  186.3770  178.6050  142.4670 C   0  0  0  0  0  1  0  0  0  0  0  0
  181.4010  178.5810  142.6670 C   0  0  2  0  0  3  0  0  0  0  0  0
  183.2040  179.4400  144.6670 C   0  0  0  0  0  2  0  0  0  0  0  0
  186.2020  177.8780  136.4210 C   0  0  0  0  0  0  0  0  0  0  0  0
  183.8730  178.3190  141.7590 C   0  0  0  0  0  0  0  0  0  0  0  0
  181.5770  177.4170  139.9820 C   0  0  0  0  0  2  0  0  0  0  0  0
  180.3010  180.8570  140.0050 O   0  0  0  0  0  0  0  0  0  0  0  0
  180.5770  178.5270  139.6410 C   0  0  1  0  0  3  0  0  0  0  0  0
  179.2310  176.1480  138.0790 C   0  0  0  0  0  2  0  0  0  0  0  0
  181.9310  177.9810  135.9380 C   0  0  0  0  0  1  0  0  0  0  0  0
  182.2880  179.0030  143.6510 N   0  0  0  0  0  0  0  0  0  0  0  0
  182.7180  178.4760  142.3150 C   0  0  0  0  0  0  0  0  0  0  0  0
  182.1210  177.1820  137.1430 N   0  0  0  0  0  0  0  0  0  0  0  0
  1 22  1  0  0  0  0
  2 14  2  0  0  0  0
  4 23  1  0  0  0  0
  4  1  1  0  0  0  0
  5  1  2  0  0  0  0
  6 21  2  0  0  0  0
  6  8  1  0  0  0  0
  8 13  1  0  0  0  0
  8 12  1  0  0  0  0
  9 12  2  0  0  0  0
 10 25  1  0  0  0  0
 11  3  1  0  0  0  0
 12  5  1  0  0  0  0
 13  4  2  0  0  0  0
 14 20  1  0  0  0  0
 15 10  1  0  0  0  0
 16  7  1  0  0  0  0
 16 26  1  0  0  0  0
 17 21  1  0  0  0  0
 18  2  1  0  0  0  0
 19  3  1  6  0  0  0
 19 28  1  0  0  0  0
 21  9  1  0  0  0  0
 22 29  2  0  0  0  0
 22  2  1  0  0  0  0
 24 11  2  0  0  0  0
 25 23  1  1  0  0  0
 25 11  1  0  0  0  0
 26 15  1  0  0  0  0
 27 30  1  0  0  0  0
 28 20  1  0  0  0  0
 29 19  1  0  0  0  0
 29 28  1  0  0  0  0
 30  7  1  0  0  0  0
 30 13  1  0  0  0  0
M  END
>  <MODEL>
9

>  <REMARK>
 VINA RESULT:      -6.4      5.211      9.262
  Name = 
  0 active torsions:
  status: ('A' for Active; 'I' for Inactive)
                            x       y       z     vdW  Elec       q    Type
                         _______ _______ _______ _____ _____    ______ ____

>  <TORSDO>
F 0

$$$$
