=
 OpenBabel10262419413D

 31 34  0  0  1  0  0  0  0  0999 V2000
  187.8280  177.6440  143.9480 C   0  0  0  0  0  0  0  0  0  0  0  0
  186.6730  178.0150  144.6740 C   0  0  0  0  0  0  0  0  0  0  0  0
  185.4700  178.3490  146.7620 C   0  0  0  0  0  3  0  0  0  0  0  0
  189.0910  177.2050  144.5850 C   0  0  0  0  0  0  0  0  0  0  0  0
  190.7810  176.7250  145.8650 C   0  0  0  0  0  0  0  0  0  0  0  0
  186.6300  177.9800  146.0760 C   0  0  0  0  0  3  0  0  0  0  0  0
  189.0570  177.3790  141.7150 C   0  0  2  0  0  3  0  0  0  0  0  0
  185.5370  178.4670  142.6050 N   0  0  0  0  0  0  0  0  0  0  0  0
  184.3380  178.7550  146.0550 C   0  0  0  0  0  3  0  0  0  0  0  0
  190.0340  176.4020  142.3950 C   0  0  0  0  0  2  0  0  0  0  0  0
  187.7980  177.6680  142.5330 C   0  0  0  0  0  0  0  0  0  0  0  0
  189.5010  177.2610  145.9060 C   0  0  0  0  0  3  0  0  0  0  0  0
  183.2210  179.2020  143.9700 O   0  0  0  0  0  1  0  0  0  0  0  0
  190.1190  176.6670  143.8600 C   0  0  0  0  0  0  0  0  0  0  0  0
  191.1240  176.3770  144.6440 O   0  0  0  0  0  0  0  0  0  0  0  0
  186.6350  178.1140  141.8910 C   0  0  0  0  0  3  0  0  0  0  0  0
  185.5190  178.4250  143.9630 C   0  0  0  0  0  0  0  0  0  0  0  0
  184.3580  178.7950  144.6590 C   0  0  0  0  0  0  0  0  0  0  0  0
  191.6350  176.5630  147.0070 C   0  0  0  0  0  0  0  0  0  0  0  0
  192.3240  176.4320  147.9280 N   0  0  0  0  0  0  0  0  0  0  0  0
  188.7260  176.8620  140.3150 C   0  0  0  0  0  2  0  0  0  0  0  0
  189.0870  179.1140  139.5420 O   0  0  0  0  0  1  0  0  0  0  0  0
  190.7230  177.4940  138.9630 C   0  0  0  0  0  1  0  0  0  0  0  0
  189.2500  177.7690  139.1990 C   0  0  1  0  0  0  0  0  0  0  0  0
  188.4980  177.4730  137.9000 C   0  0  0  0  0  2  0  0  0  0  0  0
  187.6630  179.3770  136.7420 O   0  0  0  0  0  0  0  0  0  0  0  0
  187.4380  178.4860  137.6040 C   0  0  0  0  0  0  0  0  0  0  0  0
  185.1020  177.8240  137.9810 C   0  0  0  0  0  0  0  0  0  0  0  0
  184.9650  177.0610  136.7040 C   0  0  0  0  0  1  0  0  0  0  0  0
  183.9210  177.9030  138.8800 C   0  0  0  0  0  1  0  0  0  0  0  0
  186.1970  178.4350  138.3280 N   0  0  0  0  0  0  0  0  0  0  0  0
  1  4  1  0  0  0  0
  1  2  1  0  0  0  0
  2  6  1  0  0  0  0
  4 12  1  0  0  0  0
  5 12  2  0  0  0  0
  5 19  1  0  0  0  0
  6  3  2  0  0  0  0
  7 21  1  6  0  0  0
  7 10  1  0  0  0  0
  7 11  1  0  0  0  0
  8 17  1  0  0  0  0
  9  3  1  0  0  0  0
 10 14  1  0  0  0  0
 11  1  2  0  0  0  0
 13 18  1  0  0  0  0
 14  4  2  0  0  0  0
 14 15  1  0  0  0  0
 15  5  1  0  0  0  0
 16 11  1  0  0  0  0
 16  8  2  0  0  0  0
 17 18  1  0  0  0  0
 17  2  2  0  0  0  0
 18  9  2  0  0  0  0
 19 20  3  0  0  0  0
 24 23  1  6  0  0  0
 24 22  1  0  0  0  0
 24 21  1  0  0  0  0
 25 24  1  0  0  0  0
 26 27  2  0  0  0  0
 27 25  1  0  0  0  0
 27 31  1  0  0  0  0
 28 31  2  0  0  0  0
 28 30  1  0  0  0  0
 29 28  1  0  0  0  0
M  END
>  <MODEL>
1

>  <REMARK>
 VINA RESULT:      -9.3      0.000      0.000
  Name = 
  6 active torsions:
  status: ('A' for Active; 'I' for Inactive)
    1  A    between atoms: C_2  and  C_13
    2  A    between atoms: C_9  and  C_22
    3  A    between atoms: C_9  and  C_23
    4  A    between atoms: C_15  and  C_23
    5  A    between atoms: C_19  and  C_22
    6  A    between atoms: C_19  and  N_24
                            x       y       z     vdW  Elec       q    Type
                         _______ _______ _______ _____ _____    ______ ____

>  <TORSDO>
F 6

$$$$
=
 OpenBabel10262419413D

 31 34  0  0  1  0  0  0  0  0999 V2000
  188.3660  177.4550  144.3890 C   0  0  0  0  0  0  0  0  0  0  0  0
  187.2170  177.8490  145.1120 C   0  0  0  0  0  0  0  0  0  0  0  0
  186.0170  178.2070  147.1980 C   0  0  0  0  0  3  0  0  0  0  0  0
  189.6170  176.9880  145.0280 C   0  0  0  0  0  0  0  0  0  0  0  0
  191.2930  176.4690  146.3120 C   0  0  0  0  0  0  0  0  0  0  0  0
  187.1700  177.8150  146.5140 C   0  0  0  0  0  3  0  0  0  0  0  0
  189.5940  177.1650  142.1580 C   0  0  2  0  0  3  0  0  0  0  0  0
  186.0970  178.3280  143.0410 N   0  0  0  0  0  0  0  0  0  0  0  0
  184.8960  178.6380  146.4880 C   0  0  0  0  0  3  0  0  0  0  0  0
  190.5490  176.1670  142.8390 C   0  0  0  0  0  2  0  0  0  0  0  0
  188.3400  177.4800  142.9730 C   0  0  0  0  0  0  0  0  0  0  0  0
  190.0250  177.0330  146.3500 C   0  0  0  0  0  3  0  0  0  0  0  0
  183.7940  179.1120  144.4010 O   0  0  0  0  0  1  0  0  0  0  0  0
  190.6350  176.4280  144.3050 C   0  0  0  0  0  0  0  0  0  0  0  0
  191.6320  176.1150  145.0910 O   0  0  0  0  0  0  0  0  0  0  0  0
  187.1890  177.9520  142.3290 C   0  0  0  0  0  3  0  0  0  0  0  0
  186.0750  178.2850  144.3990 C   0  0  0  0  0  0  0  0  0  0  0  0
  184.9200  178.6790  145.0930 C   0  0  0  0  0  0  0  0  0  0  0  0
  192.1410  176.2870  147.4550 C   0  0  0  0  0  0  0  0  0  0  0  0
  192.8250  176.1410  148.3780 N   0  0  0  0  0  0  0  0  0  0  0  0
  189.2550  176.6570  140.7570 C   0  0  0  0  0  2  0  0  0  0  0  0
  191.3160  177.7870  140.2330 O   0  0  0  0  0  1  0  0  0  0  0  0
  190.5510  176.1570  138.6860 C   0  0  0  0  0  1  0  0  0  0  0  0
  190.1590  177.2430  139.6690 C   0  0  1  0  0  0  0  0  0  0  0  0
  189.4010  178.3270  138.9010 C   0  0  0  0  0  2  0  0  0  0  0  0
  187.0400  178.5610  139.0820 O   0  0  0  0  0  0  0  0  0  0  0  0
  187.9980  177.9250  138.5690 C   0  0  0  0  0  0  0  0  0  0  0  0
  187.4710  176.8380  136.4300 C   0  0  0  0  0  0  0  0  0  0  0  0
  187.2800  178.1090  135.6700 C   0  0  0  0  0  1  0  0  0  0  0  0
  187.2800  175.5540  135.7070 C   0  0  0  0  0  1  0  0  0  0  0  0
  187.7780  176.8060  137.6940 N   0  0  0  0  0  0  0  0  0  0  0  0
  1  4  1  0  0  0  0
  1  2  1  0  0  0  0
  2  6  1  0  0  0  0
  4 12  1  0  0  0  0
  5 12  2  0  0  0  0
  5 19  1  0  0  0  0
  6  3  2  0  0  0  0
  7 21  1  6  0  0  0
  7 10  1  0  0  0  0
  7 11  1  0  0  0  0
  8 17  1  0  0  0  0
  9  3  1  0  0  0  0
 10 14  1  0  0  0  0
 11  1  2  0  0  0  0
 13 18  1  0  0  0  0
 14  4  2  0  0  0  0
 14 15  1  0  0  0  0
 15  5  1  0  0  0  0
 16 11  1  0  0  0  0
 16  8  2  0  0  0  0
 17 18  1  0  0  0  0
 17  2  2  0  0  0  0
 18  9  2  0  0  0  0
 19 20  3  0  0  0  0
 24 23  1  6  0  0  0
 24 22  1  0  0  0  0
 24 21  1  0  0  0  0
 25 24  1  0  0  0  0
 27 25  1  0  0  0  0
 27 26  2  0  0  0  0
 28 31  2  0  0  0  0
 29 28  1  0  0  0  0
 30 28  1  0  0  0  0
 31 27  1  0  0  0  0
M  END
>  <MODEL>
2

>  <REMARK>
 VINA RESULT:      -9.1      1.429      1.616
  Name = 
  6 active torsions:
  status: ('A' for Active; 'I' for Inactive)
    1  A    between atoms: C_2  and  C_13
    2  A    between atoms: C_9  and  C_22
    3  A    between atoms: C_9  and  C_23
    4  A    between atoms: C_15  and  C_23
    5  A    between atoms: C_19  and  C_22
    6  A    between atoms: C_19  and  N_24
                            x       y       z     vdW  Elec       q    Type
                         _______ _______ _______ _____ _____    ______ ____

>  <TORSDO>
F 6

$$$$
=
 OpenBabel10262419413D

 31 34  0  0  1  0  0  0  0  0999 V2000
  188.3360  177.6530  143.6380 C   0  0  0  0  0  0  0  0  0  0  0  0
  188.8790  177.4150  144.9220 C   0  0  0  0  0  0  0  0  0  0  0  0
  188.6820  177.3090  147.3440 C   0  0  0  0  0  3  0  0  0  0  0  0
  186.9290  178.0440  143.4020 C   0  0  0  0  0  0  0  0  0  0  0  0
  184.8010  178.4890  143.4480 C   0  0  0  0  0  0  0  0  0  0  0  0
  188.1140  177.5470  146.0910 C   0  0  0  0  0  3  0  0  0  0  0  0
  188.5960  177.6790  141.0890 C   0  0  2  0  0  3  0  0  0  0  0  0
  191.0000  176.9050  143.9140 N   0  0  0  0  0  0  0  0  0  0  0  0
  190.0240  176.9360  147.4450 C   0  0  0  0  0  3  0  0  0  0  0  0
  187.3870  178.6280  140.9980 C   0  0  0  0  0  2  0  0  0  0  0  0
  189.1690  177.5350  142.4990 C   0  0  0  0  0  0  0  0  0  0  0  0
  185.8390  178.0490  144.2570 C   0  0  0  0  0  3  0  0  0  0  0  0
  192.1380  176.4290  146.4140 O   0  0  0  0  0  1  0  0  0  0  0  0
  186.4870  178.4580  142.1750 C   0  0  0  0  0  0  0  0  0  0  0  0
  185.2090  178.7290  142.2200 O   0  0  0  0  0  0  0  0  0  0  0  0
  190.4990  177.1300  142.6740 C   0  0  0  0  0  3  0  0  0  0  0  0
  190.2400  177.0390  145.0320 C   0  0  0  0  0  0  0  0  0  0  0  0
  190.8030  176.8000  146.2950 C   0  0  0  0  0  0  0  0  0  0  0  0
  183.4450  178.6680  143.8830 C   0  0  0  0  0  0  0  0  0  0  0  0
  182.3520  178.8120  144.2350 N   0  0  0  0  0  0  0  0  0  0  0  0
  189.6560  178.1220  140.0800 C   0  0  0  0  0  2  0  0  0  0  0  0
  188.9930  179.2700  138.0700 O   0  0  0  0  0  1  0  0  0  0  0  0
  190.2350  177.2630  137.8120 C   0  0  0  0  0  1  0  0  0  0  0  0
  189.1910  178.0030  138.6270 C   0  0  1  0  0  0  0  0  0  0  0  0
  187.8890  177.2040  138.5670 C   0  0  0  0  0  2  0  0  0  0  0  0
  186.9410  177.5550  136.4120 O   0  0  0  0  0  0  0  0  0  0  0  0
  186.8810  177.8130  137.6440 C   0  0  0  0  0  0  0  0  0  0  0  0
  184.6400  178.4200  138.4500 C   0  0  0  0  0  0  0  0  0  0  0  0
  184.0370  177.0750  138.2150 C   0  0  0  0  0  1  0  0  0  0  0  0
  183.7700  179.4930  138.9980 C   0  0  0  0  0  1  0  0  0  0  0  0
  185.8830  178.6980  138.1800 N   0  0  0  0  0  0  0  0  0  0  0  0
  1  2  1  0  0  0  0
  2 17  2  0  0  0  0
  2  6  1  0  0  0  0
  3  9  1  0  0  0  0
  4  1  1  0  0  0  0
  4 12  1  0  0  0  0
  5 19  1  0  0  0  0
  5 12  2  0  0  0  0
  6  3  2  0  0  0  0
  7 21  1  6  0  0  0
  7 11  1  0  0  0  0
  8 17  1  0  0  0  0
 10  7  1  0  0  0  0
 10 14  1  0  0  0  0
 11 16  1  0  0  0  0
 11  1  2  0  0  0  0
 14 15  1  0  0  0  0
 14  4  2  0  0  0  0
 15  5  1  0  0  0  0
 16  8  2  0  0  0  0
 17 18  1  0  0  0  0
 18 13  1  0  0  0  0
 18  9  2  0  0  0  0
 19 20  3  0  0  0  0
 22 24  1  0  0  0  0
 24 23  1  6  0  0  0
 24 21  1  0  0  0  0
 25 24  1  0  0  0  0
 26 27  2  0  0  0  0
 27 31  1  0  0  0  0
 27 25  1  0  0  0  0
 28 30  1  0  0  0  0
 29 28  1  0  0  0  0
 31 28  2  0  0  0  0
M  END
>  <MODEL>
3

>  <REMARK>
 VINA RESULT:      -8.9      1.640      4.558
  Name = 
  6 active torsions:
  status: ('A' for Active; 'I' for Inactive)
    1  A    between atoms: C_2  and  C_13
    2  A    between atoms: C_9  and  C_22
    3  A    between atoms: C_9  and  C_23
    4  A    between atoms: C_15  and  C_23
    5  A    between atoms: C_19  and  C_22
    6  A    between atoms: C_19  and  N_24
                            x       y       z     vdW  Elec       q    Type
                         _______ _______ _______ _____ _____    ______ ____

>  <TORSDO>
F 6

$$$$
=
 OpenBabel10262419413D

 31 34  0  0  1  0  0  0  0  0999 V2000
  188.1700  177.7230  143.5780 C   0  0  0  0  0  0  0  0  0  0  0  0
  188.7220  177.5120  144.8620 C   0  0  0  0  0  0  0  0  0  0  0  0
  188.5380  177.4330  147.2870 C   0  0  0  0  0  3  0  0  0  0  0  0
  186.7540  178.0860  143.3440 C   0  0  0  0  0  0  0  0  0  0  0  0
  184.6190  178.4930  143.3930 C   0  0  0  0  0  0  0  0  0  0  0  0
  187.9600  177.6450  146.0330 C   0  0  0  0  0  3  0  0  0  0  0  0
  188.4180  177.7220  141.0270 C   0  0  2  0  0  3  0  0  0  0  0  0
  190.8480  177.0280  143.8510 N   0  0  0  0  0  0  0  0  0  0  0  0
  189.8860  177.0860  147.3860 C   0  0  0  0  0  3  0  0  0  0  0  0
  187.1910  178.6480  140.9300 C   0  0  0  0  0  2  0  0  0  0  0  0
  189.0000  177.6070  142.4360 C   0  0  0  0  0  0  0  0  0  0  0  0
  185.6690  178.0820  144.2030 C   0  0  0  0  0  3  0  0  0  0  0  0
  192.0050  176.6040  146.3520 O   0  0  0  0  0  1  0  0  0  0  0  0
  186.3000  178.4770  142.1130 C   0  0  0  0  0  0  0  0  0  0  0  0
  185.0170  178.7240  142.1610 O   0  0  0  0  0  0  0  0  0  0  0  0
  190.3370  177.2280  142.6110 C   0  0  0  0  0  3  0  0  0  0  0  0
  190.0900  177.1630  144.9710 C   0  0  0  0  0  0  0  0  0  0  0  0
  190.6630  176.9500  146.2340 C   0  0  0  0  0  0  0  0  0  0  0  0
  183.2620  178.6530  143.8320 C   0  0  0  0  0  0  0  0  0  0  0  0
  182.1670  178.7810  144.1870 N   0  0  0  0  0  0  0  0  0  0  0  0
  189.4660  178.1710  140.0090 C   0  0  0  0  0  2  0  0  0  0  0  0
  188.5850  176.2730  138.8180 O   0  0  0  0  0  1  0  0  0  0  0  0
  189.6920  177.9370  137.5360 C   0  0  0  0  0  1  0  0  0  0  0  0
  189.6440  177.1840  138.8530 C   0  0  1  0  0  0  0  0  0  0  0  0
  190.9650  176.4330  139.0170 C   0  0  0  0  0  2  0  0  0  0  0  0
  190.7080  174.3980  137.8090 O   0  0  0  0  0  0  0  0  0  0  0  0
  191.2620  175.5280  137.8630 C   0  0  0  0  0  0  0  0  0  0  0  0
  193.4710  175.7220  136.8020 C   0  0  0  0  0  0  0  0  0  0  0  0
  194.1960  174.9370  137.8450 C   0  0  0  0  0  1  0  0  0  0  0  0
  194.2550  176.2720  135.6660 C   0  0  0  0  0  1  0  0  0  0  0  0
  192.1920  175.9600  136.8550 N   0  0  0  0  0  0  0  0  0  0  0  0
  1  2  1  0  0  0  0
  2 17  2  0  0  0  0
  2  6  1  0  0  0  0
  3  9  1  0  0  0  0
  4  1  1  0  0  0  0
  4 12  1  0  0  0  0
  5 19  1  0  0  0  0
  5 12  2  0  0  0  0
  6  3  2  0  0  0  0
  7 21  1  6  0  0  0
  7 11  1  0  0  0  0
  8 17  1  0  0  0  0
 10  7  1  0  0  0  0
 10 14  1  0  0  0  0
 11 16  1  0  0  0  0
 11  1  2  0  0  0  0
 14 15  1  0  0  0  0
 14  4  2  0  0  0  0
 15  5  1  0  0  0  0
 16  8  2  0  0  0  0
 17 18  1  0  0  0  0
 18 13  1  0  0  0  0
 18  9  2  0  0  0  0
 19 20  3  0  0  0  0
 22 24  1  0  0  0  0
 24 23  1  6  0  0  0
 24 25  1  0  0  0  0
 24 21  1  0  0  0  0
 26 27  2  0  0  0  0
 27 25  1  0  0  0  0
 28 31  2  0  0  0  0
 28 29  1  0  0  0  0
 30 28  1  0  0  0  0
 31 27  1  0  0  0  0
M  END
>  <MODEL>
4

>  <REMARK>
 VINA RESULT:      -8.9      2.619      5.790
  Name = 
  6 active torsions:
  status: ('A' for Active; 'I' for Inactive)
    1  A    between atoms: C_2  and  C_13
    2  A    between atoms: C_9  and  C_22
    3  A    between atoms: C_9  and  C_23
    4  A    between atoms: C_15  and  C_23
    5  A    between atoms: C_19  and  C_22
    6  A    between atoms: C_19  and  N_24
                            x       y       z     vdW  Elec       q    Type
                         _______ _______ _______ _____ _____    ______ ____

>  <TORSDO>
F 6

$$$$
=
 OpenBabel10262419413D

 31 34  0  0  1  0  0  0  0  0999 V2000
  187.3950  177.9710  143.8060 C   0  0  0  0  0  0  0  0  0  0  0  0
  187.8470  177.7090  145.1200 C   0  0  0  0  0  0  0  0  0  0  0  0
  187.4690  177.5070  147.5140 C   0  0  0  0  0  3  0  0  0  0  0  0
  185.9940  178.3120  143.4740 C   0  0  0  0  0  0  0  0  0  0  0  0
  183.8510  178.6670  143.3670 C   0  0  0  0  0  0  0  0  0  0  0  0
  186.9900  177.7670  146.2290 C   0  0  0  0  0  3  0  0  0  0  0  0
  187.8490  178.1010  141.2870 C   0  0  2  0  0  3  0  0  0  0  0  0
  190.0600  177.3250  144.2650 N   0  0  0  0  0  0  0  0  0  0  0  0
  188.8140  177.1860  147.7070 C   0  0  0  0  0  3  0  0  0  0  0  0
  186.6090  179.0020  141.1330 C   0  0  0  0  0  2  0  0  0  0  0  0
  188.3170  177.9310  142.7320 C   0  0  0  0  0  0  0  0  0  0  0  0
  184.8430  178.2410  144.2400 C   0  0  0  0  0  3  0  0  0  0  0  0
  191.0220  176.8050  146.8280 O   0  0  0  0  0  1  0  0  0  0  0  0
  185.6300  178.7530  142.2300 C   0  0  0  0  0  0  0  0  0  0  0  0
  184.3420  178.9680  142.1840 O   0  0  0  0  0  0  0  0  0  0  0  0
  189.6460  177.5740  142.9970 C   0  0  0  0  0  3  0  0  0  0  0  0
  189.2110  177.3870  145.3240 C   0  0  0  0  0  0  0  0  0  0  0  0
  189.6860  177.1250  146.6180 C   0  0  0  0  0  0  0  0  0  0  0  0
  182.4590  178.7740  143.7000 C   0  0  0  0  0  0  0  0  0  0  0  0
  181.3360  178.8590  143.9690 N   0  0  0  0  0  0  0  0  0  0  0  0
  188.9620  178.6250  140.3800 C   0  0  0  0  0  2  0  0  0  0  0  0
  188.2680  176.7370  139.0550 O   0  0  0  0  0  1  0  0  0  0  0  0
  189.4310  178.4790  137.9350 C   0  0  0  0  0  1  0  0  0  0  0  0
  189.2860  177.6820  139.2180 C   0  0  1  0  0  0  0  0  0  0  0  0
  190.6120  176.9700  139.4870 C   0  0  0  0  0  2  0  0  0  0  0  0
  192.0200  176.7490  137.5810 O   0  0  0  0  0  0  0  0  0  0  0  0
  191.1200  176.2270  138.2920 C   0  0  0  0  0  0  0  0  0  0  0  0
  189.8890  174.6220  136.8970 C   0  0  0  0  0  0  0  0  0  0  0  0
  189.5930  175.5890  135.7980 C   0  0  0  0  0  1  0  0  0  0  0  0
  189.3810  173.2320  136.7640 C   0  0  0  0  0  1  0  0  0  0  0  0
  190.5530  174.9470  137.9680 N   0  0  0  0  0  0  0  0  0  0  0  0
  1  2  1  0  0  0  0
  2 17  2  0  0  0  0
  2  6  1  0  0  0  0
  3  9  1  0  0  0  0
  4  1  1  0  0  0  0
  4 12  1  0  0  0  0
  5 19  1  0  0  0  0
  5 12  2  0  0  0  0
  6  3  2  0  0  0  0
  7 21  1  6  0  0  0
  7 11  1  0  0  0  0
  8 17  1  0  0  0  0
 10  7  1  0  0  0  0
 10 14  1  0  0  0  0
 11 16  1  0  0  0  0
 11  1  2  0  0  0  0
 14  4  2  0  0  0  0
 15 14  1  0  0  0  0
 15  5  1  0  0  0  0
 16  8  2  0  0  0  0
 17 18  1  0  0  0  0
 18 13  1  0  0  0  0
 18  9  2  0  0  0  0
 19 20  3  0  0  0  0
 22 24  1  0  0  0  0
 24 23  1  6  0  0  0
 24 25  1  0  0  0  0
 24 21  1  0  0  0  0
 26 27  2  0  0  0  0
 27 25  1  0  0  0  0
 28 31  2  0  0  0  0
 29 28  1  0  0  0  0
 30 28  1  0  0  0  0
 31 27  1  0  0  0  0
M  END
>  <MODEL>
5

>  <REMARK>
 VINA RESULT:      -8.5      2.427      5.246
  Name = 
  6 active torsions:
  status: ('A' for Active; 'I' for Inactive)
    1  A    between atoms: C_2  and  C_13
    2  A    between atoms: C_9  and  C_22
    3  A    between atoms: C_9  and  C_23
    4  A    between atoms: C_15  and  C_23
    5  A    between atoms: C_19  and  C_22
    6  A    between atoms: C_19  and  N_24
                            x       y       z     vdW  Elec       q    Type
                         _______ _______ _______ _____ _____    ______ ____

>  <TORSDO>
F 6

$$$$
=
 OpenBabel10262419413D

 31 34  0  0  1  0  0  0  0  0999 V2000
  187.5330  177.7680  143.5070 C   0  0  0  0  0  0  0  0  0  0  0  0
  186.3820  178.1020  144.2580 C   0  0  0  0  0  0  0  0  0  0  0  0
  185.2080  178.3720  146.3720 C   0  0  0  0  0  3  0  0  0  0  0  0
  188.8130  177.3410  144.1140 C   0  0  0  0  0  0  0  0  0  0  0  0
  190.5320  176.8670  145.3580 C   0  0  0  0  0  0  0  0  0  0  0  0
  186.3620  178.0400  145.6600 C   0  0  0  0  0  3  0  0  0  0  0  0
  188.7290  177.5710  141.2490 C   0  0  2  0  0  3  0  0  0  0  0  0
  185.2050  178.5740  142.2170 N   0  0  0  0  0  0  0  0  0  0  0  0
  184.0570  178.7710  145.6900 C   0  0  0  0  0  3  0  0  0  0  0  0
  189.7360  176.5990  141.8940 C   0  0  0  0  0  2  0  0  0  0  0  0
  187.4790  177.8190  142.0930 C   0  0  0  0  0  0  0  0  0  0  0  0
  189.2430  177.3780  145.4300 C   0  0  0  0  0  3  0  0  0  0  0  0
  182.8990  179.2380  143.6330 O   0  0  0  0  0  1  0  0  0  0  0  0
  189.8390  176.8360  143.3630 C   0  0  0  0  0  0  0  0  0  0  0  0
  190.8620  176.5500  144.1250 O   0  0  0  0  0  0  0  0  0  0  0  0
  186.2980  178.2560  141.4780 C   0  0  0  0  0  3  0  0  0  0  0  0
  185.2100  178.5050  143.5740 C   0  0  0  0  0  0  0  0  0  0  0  0
  184.0540  178.8390  144.2960 C   0  0  0  0  0  0  0  0  0  0  0  0
  191.4080  176.6990  146.4820 C   0  0  0  0  0  0  0  0  0  0  0  0
  192.1140  176.5630  147.3900 N   0  0  0  0  0  0  0  0  0  0  0  0
  188.3850  177.0750  139.8450 C   0  0  0  0  0  2  0  0  0  0  0  0
  189.1610  179.2860  139.2910 O   0  0  0  0  0  1  0  0  0  0  0  0
  189.9860  177.4880  137.9780 C   0  0  0  0  0  1  0  0  0  0  0  0
  188.8030  178.0520  138.7430 C   0  0  1  0  0  0  0  0  0  0  0  0
  187.6480  178.2400  137.7580 C   0  0  0  0  0  2  0  0  0  0  0  0
  188.2280  177.3100  135.6460 O   0  0  0  0  0  0  0  0  0  0  0  0
  187.5910  177.1620  136.7230 C   0  0  0  0  0  0  0  0  0  0  0  0
  187.1910  174.7570  137.0310 C   0  0  0  0  0  0  0  0  0  0  0  0
  188.6140  174.3510  136.8280 C   0  0  0  0  0  1  0  0  0  0  0  0
  186.1890  173.6920  137.2940 C   0  0  0  0  0  1  0  0  0  0  0  0
  186.7910  175.9940  136.9700 N   0  0  0  0  0  0  0  0  0  0  0  0
  1  4  1  0  0  0  0
  1  2  1  0  0  0  0
  2  6  1  0  0  0  0
  4 12  1  0  0  0  0
  5 12  2  0  0  0  0
  5 19  1  0  0  0  0
  6  3  2  0  0  0  0
  7 21  1  6  0  0  0
  7 10  1  0  0  0  0
  7 11  1  0  0  0  0
  8 17  1  0  0  0  0
  9  3  1  0  0  0  0
 10 14  1  0  0  0  0
 11  1  2  0  0  0  0
 13 18  1  0  0  0  0
 14  4  2  0  0  0  0
 14 15  1  0  0  0  0
 15  5  1  0  0  0  0
 16 11  1  0  0  0  0
 16  8  2  0  0  0  0
 17  2  2  0  0  0  0
 17 18  1  0  0  0  0
 18  9  2  0  0  0  0
 19 20  3  0  0  0  0
 24 23  1  6  0  0  0
 24 22  1  0  0  0  0
 24 21  1  0  0  0  0
 25 24  1  0  0  0  0
 26 27  2  0  0  0  0
 27 31  1  0  0  0  0
 27 25  1  0  0  0  0
 28 30  1  0  0  0  0
 29 28  1  0  0  0  0
 31 28  2  0  0  0  0
M  END
>  <MODEL>
6

>  <REMARK>
 VINA RESULT:      -8.4      1.377      1.676
  Name = 
  6 active torsions:
  status: ('A' for Active; 'I' for Inactive)
    1  A    between atoms: C_2  and  C_13
    2  A    between atoms: C_9  and  C_22
    3  A    between atoms: C_9  and  C_23
    4  A    between atoms: C_15  and  C_23
    5  A    between atoms: C_19  and  C_22
    6  A    between atoms: C_19  and  N_24
                            x       y       z     vdW  Elec       q    Type
                         _______ _______ _______ _____ _____    ______ ____

>  <TORSDO>
F 6

$$$$
=
 OpenBabel10262419413D

 31 34  0  0  1  0  0  0  0  0999 V2000
  188.3910  177.4580  144.3800 C   0  0  0  0  0  0  0  0  0  0  0  0
  187.2240  177.8480  145.0760 C   0  0  0  0  0  0  0  0  0  0  0  0
  185.9810  178.2200  147.1340 C   0  0  0  0  0  3  0  0  0  0  0  0
  189.6350  177.0150  145.0480 C   0  0  0  0  0  0  0  0  0  0  0  0
  191.2930  176.5340  146.3700 C   0  0  0  0  0  0  0  0  0  0  0  0
  187.1510  177.8320  146.4770 C   0  0  0  0  0  3  0  0  0  0  0  0
  189.6630  177.1530  142.1760 C   0  0  2  0  0  3  0  0  0  0  0  0
  186.1370  178.2860  142.9780 N   0  0  0  0  0  0  0  0  0  0  0  0
  184.8680  178.6280  146.3970 C   0  0  0  0  0  3  0  0  0  0  0  0
  190.6170  176.1750  142.8880 C   0  0  0  0  0  2  0  0  0  0  0  0
  188.3900  177.4640  142.9630 C   0  0  0  0  0  0  0  0  0  0  0  0
  190.0180  177.0830  146.3770 C   0  0  0  0  0  3  0  0  0  0  0  0
  183.8000  179.0600  144.2840 O   0  0  0  0  0  1  0  0  0  0  0  0
  190.6730  176.4570  144.3520 C   0  0  0  0  0  0  0  0  0  0  0  0
  191.6580  176.1670  145.1600 O   0  0  0  0  0  0  0  0  0  0  0  0
  187.2460  177.9140  142.2910 C   0  0  0  0  0  3  0  0  0  0  0  0
  186.0900  178.2610  144.3360 C   0  0  0  0  0  0  0  0  0  0  0  0
  184.9180  178.6510  145.0020 C   0  0  0  0  0  0  0  0  0  0  0  0
  192.1210  176.3770  147.5310 C   0  0  0  0  0  0  0  0  0  0  0  0
  192.7900  176.2510  148.4680 N   0  0  0  0  0  0  0  0  0  0  0  0
  189.3570  176.6220  140.7760 C   0  0  0  0  0  2  0  0  0  0  0  0
  189.8190  178.2410  139.0540 O   0  0  0  0  0  1  0  0  0  0  0  0
  191.6540  177.5010  140.3670 C   0  0  0  0  0  1  0  0  0  0  0  0
  190.3390  177.1230  139.7140 C   0  0  1  0  0  0  0  0  0  0  0  0
  190.6140  176.0100  138.7020 C   0  0  0  0  0  2  0  0  0  0  0  0
  190.3950  177.0580  136.5770 O   0  0  0  0  0  0  0  0  0  0  0  0
  191.1720  176.5270  137.4130 C   0  0  0  0  0  0  0  0  0  0  0  0
  193.1970  175.3250  136.7110 C   0  0  0  0  0  0  0  0  0  0  0  0
  192.5000  174.0370  136.4160 C   0  0  0  0  0  1  0  0  0  0  0  0
  194.6680  175.3870  136.5110 C   0  0  0  0  0  1  0  0  0  0  0  0
  192.5780  176.3820  137.1500 N   0  0  0  0  0  0  0  0  0  0  0  0
  1  4  1  0  0  0  0
  1  2  1  0  0  0  0
  2  6  1  0  0  0  0
  4 12  1  0  0  0  0
  5 12  2  0  0  0  0
  5 19  1  0  0  0  0
  6  3  2  0  0  0  0
  7 21  1  6  0  0  0
  7 10  1  0  0  0  0
  7 11  1  0  0  0  0
  8 17  1  0  0  0  0
  9  3  1  0  0  0  0
 10 14  1  0  0  0  0
 11  1  2  0  0  0  0
 13 18  1  0  0  0  0
 14  4  2  0  0  0  0
 14 15  1  0  0  0  0
 15  5  1  0  0  0  0
 16 11  1  0  0  0  0
 16  8  2  0  0  0  0
 17 18  1  0  0  0  0
 17  2  2  0  0  0  0
 18  9  2  0  0  0  0
 19 20  3  0  0  0  0
 22 24  1  0  0  0  0
 24 23  1  1  0  0  0
 24 21  1  0  0  0  0
 25 24  1  0  0  0  0
 26 27  2  0  0  0  0
 27 25  1  0  0  0  0
 28 31  2  0  0  0  0
 29 28  1  0  0  0  0
 30 28  1  0  0  0  0
 31 27  1  0  0  0  0
M  END
>  <MODEL>
7

>  <REMARK>
 VINA RESULT:      -8.4      2.212      3.448
  Name = 
  6 active torsions:
  status: ('A' for Active; 'I' for Inactive)
    1  A    between atoms: C_2  and  C_13
    2  A    between atoms: C_9  and  C_22
    3  A    between atoms: C_9  and  C_23
    4  A    between atoms: C_15  and  C_23
    5  A    between atoms: C_19  and  C_22
    6  A    between atoms: C_19  and  N_24
                            x       y       z     vdW  Elec       q    Type
                         _______ _______ _______ _____ _____    ______ ____

>  <TORSDO>
F 6

$$$$
=
 OpenBabel10262419413D

 31 34  0  0  1  0  0  0  0  0999 V2000
  189.8760  177.5510  139.4470 C   0  0  0  0  0  0  0  0  0  0  0  0
  188.8050  177.7770  138.5530 C   0  0  0  0  0  0  0  0  0  0  0  0
  187.8660  177.8520  136.3100 C   0  0  0  0  0  3  0  0  0  0  0  0
  191.2240  177.1160  139.0180 C   0  0  0  0  0  0  0  0  0  0  0  0
  193.0160  176.3810  138.0290 C   0  0  0  0  0  0  0  0  0  0  0  0
  188.9440  177.6160  137.1660 C   0  0  0  0  0  3  0  0  0  0  0  0
  190.7810  177.4270  141.8410 C   0  0  2  0  0  3  0  0  0  0  0  0
  187.3940  178.3480  140.4130 N   0  0  0  0  0  0  0  0  0  0  0  0
  186.6340  178.2530  136.8300 C   0  0  0  0  0  3  0  0  0  0  0  0
  192.2090  177.5840  141.2860 C   0  0  0  0  0  2  0  0  0  0  0  0
  189.6820  177.7630  140.8330 C   0  0  0  0  0  0  0  0  0  0  0  0
  191.6720  176.6430  137.7950 C   0  0  0  0  0  3  0  0  0  0  0  0
  185.2400  178.8200  138.7080 O   0  0  0  0  0  1  0  0  0  0  0  0
  192.2890  177.0980  139.8780 C   0  0  0  0  0  0  0  0  0  0  0  0
  193.3580  176.6610  139.2670 O   0  0  0  0  0  0  0  0  0  0  0  0
  188.4100  178.1380  141.2860 C   0  0  0  0  0  3  0  0  0  0  0  0
  187.5530  178.1870  139.0730 C   0  0  0  0  0  0  0  0  0  0  0  0
  186.4740  178.4200  138.2070 C   0  0  0  0  0  0  0  0  0  0  0  0
  193.9300  175.8680  137.0480 C   0  0  0  0  0  0  0  0  0  0  0  0
  194.6680  175.4540  136.2570 N   0  0  0  0  0  0  0  0  0  0  0  0
  190.6520  178.2460  143.1260 C   0  0  0  0  0  2  0  0  0  0  0  0
  189.5070  176.2990  143.9610 O   0  0  0  0  0  1  0  0  0  0  0  0
  191.5390  176.9030  145.0310 C   0  0  0  0  0  1  0  0  0  0  0  0
  190.2800  177.3990  144.3450 C   0  0  1  0  0  0  0  0  0  0  0  0
  189.4990  178.2530  145.3450 C   0  0  0  0  0  2  0  0  0  0  0  0
  188.2930  176.7970  146.7900 O   0  0  0  0  0  0  0  0  0  0  0  0
  188.2420  177.5890  145.8120 C   0  0  0  0  0  0  0  0  0  0  0  0
  185.9590  178.4670  145.5770 C   0  0  0  0  0  0  0  0  0  0  0  0
  185.8710  179.0030  146.9680 C   0  0  0  0  0  1  0  0  0  0  0  0
  184.7800  178.6290  144.6880 C   0  0  0  0  0  1  0  0  0  0  0  0
  187.0110  177.8530  145.1190 N   0  0  0  0  0  0  0  0  0  0  0  0
  1 11  1  0  0  0  0
  2 17  1  0  0  0  0
  2  1  2  0  0  0  0
  3  9  1  0  0  0  0
  3  6  2  0  0  0  0
  4  1  1  0  0  0  0
  4 14  2  0  0  0  0
  5 15  1  0  0  0  0
  6  2  1  0  0  0  0
  7 21  1  1  0  0  0
  8 16  1  0  0  0  0
  9 18  2  0  0  0  0
 10  7  1  0  0  0  0
 11 16  2  0  0  0  0
 11  7  1  0  0  0  0
 12  5  2  0  0  0  0
 12  4  1  0  0  0  0
 14 10  1  0  0  0  0
 15 14  1  0  0  0  0
 17  8  2  0  0  0  0
 18 13  1  0  0  0  0
 18 17  1  0  0  0  0
 19  5  1  0  0  0  0
 20 19  3  0  0  0  0
 21 24  1  0  0  0  0
 22 24  1  0  0  0  0
 24 23  1  1  0  0  0
 24 25  1  0  0  0  0
 25 27  1  0  0  0  0
 27 26  2  0  0  0  0
 28 29  1  0  0  0  0
 30 28  1  0  0  0  0
 31 28  2  0  0  0  0
 31 27  1  0  0  0  0
M  END
>  <MODEL>
8

>  <REMARK>
 VINA RESULT:      -8.0      2.612      7.091
  Name = 
  6 active torsions:
  status: ('A' for Active; 'I' for Inactive)
    1  A    between atoms: C_2  and  C_13
    2  A    between atoms: C_9  and  C_22
    3  A    between atoms: C_9  and  C_23
    4  A    between atoms: C_15  and  C_23
    5  A    between atoms: C_19  and  C_22
    6  A    between atoms: C_19  and  N_24
                            x       y       z     vdW  Elec       q    Type
                         _______ _______ _______ _____ _____    ______ ____

>  <TORSDO>
F 6

$$$$
=
 OpenBabel10262419413D

 31 34  0  0  1  0  0  0  0  0999 V2000
  185.9520  178.3420  142.4640 C   0  0  0  0  0  0  0  0  0  0  0  0
  185.0050  178.5410  143.4950 C   0  0  0  0  0  0  0  0  0  0  0  0
  182.7430  178.9940  144.2670 C   0  0  0  0  0  3  0  0  0  0  0  0
  185.6140  178.3710  141.0230 C   0  0  0  0  0  0  0  0  0  0  0  0
  184.7250  178.3770  139.0390 C   0  0  0  0  0  0  0  0  0  0  0  0
  183.6520  178.7980  143.2250 C   0  0  0  0  0  3  0  0  0  0  0  0
  188.3430  177.7940  141.7210 C   0  0  2  0  0  3  0  0  0  0  0  0
  186.7420  178.2370  145.1270 N   0  0  0  0  0  0  0  0  0  0  0  0
  183.1760  178.9360  145.5930 C   0  0  0  0  0  3  0  0  0  0  0  0
  188.0380  178.4280  140.3510 C   0  0  0  0  0  2  0  0  0  0  0  0
  187.3090  178.1190  142.8000 C   0  0  0  0  0  0  0  0  0  0  0  0
  184.3850  178.3660  140.3850 C   0  0  0  0  0  3  0  0  0  0  0  0
  184.9310  178.6280  147.2100 O   0  0  0  0  0  1  0  0  0  0  0  0
  186.5780  178.3750  140.0520 C   0  0  0  0  0  0  0  0  0  0  0  0
  186.0290  178.3850  138.8660 O   0  0  0  0  0  0  0  0  0  0  0  0
  187.6650  178.0450  144.1530 C   0  0  0  0  0  3  0  0  0  0  0  0
  185.4360  178.4860  144.8420 C   0  0  0  0  0  0  0  0  0  0  0  0
  184.5170  178.6820  145.8840 C   0  0  0  0  0  0  0  0  0  0  0  0
  183.7800  178.3790  137.9580 C   0  0  0  0  0  0  0  0  0  0  0  0
  183.0190  178.3810  137.0860 N   0  0  0  0  0  0  0  0  0  0  0  0
  189.7590  178.1800  142.1480 C   0  0  0  0  0  2  0  0  0  0  0  0
  190.1880  175.9550  141.3340 O   0  0  0  0  0  1  0  0  0  0  0  0
  191.9870  177.5020  141.2580 C   0  0  0  0  0  1  0  0  0  0  0  0
  190.7620  177.0310  142.0170 C   0  0  1  0  0  0  0  0  0  0  0  0
  191.2090  176.5800  143.4080 C   0  0  0  0  0  2  0  0  0  0  0  0
  192.0580  178.6290  144.2720 O   0  0  0  0  0  0  0  0  0  0  0  0
  191.2190  177.6980  144.4020 C   0  0  0  0  0  0  0  0  0  0  0  0
  190.4490  177.1100  146.6600 C   0  0  0  0  0  0  0  0  0  0  0  0
  191.6840  176.3610  147.0390 C   0  0  0  0  0  1  0  0  0  0  0  0
  189.3480  177.1970  147.6550 C   0  0  0  0  0  1  0  0  0  0  0  0
  190.2890  177.6710  145.4970 N   0  0  0  0  0  0  0  0  0  0  0  0
  1 11  2  0  0  0  0
  1  2  1  0  0  0  0
  2 17  1  0  0  0  0
  3  9  2  0  0  0  0
  4  1  1  0  0  0  0
  5 12  2  0  0  0  0
  6  2  2  0  0  0  0
  6  3  1  0  0  0  0
  7 21  1  1  0  0  0
  7 11  1  0  0  0  0
  9 18  1  0  0  0  0
 10  7  1  0  0  0  0
 11 16  1  0  0  0  0
 12  4  1  0  0  0  0
 14 10  1  0  0  0  0
 14  4  2  0  0  0  0
 15  5  1  0  0  0  0
 15 14  1  0  0  0  0
 16  8  2  0  0  0  0
 17  8  1  0  0  0  0
 17 18  2  0  0  0  0
 18 13  1  0  0  0  0
 19  5  1  0  0  0  0
 20 19  3  0  0  0  0
 22 24  1  0  0  0  0
 24 23  1  6  0  0  0
 24 21  1  0  0  0  0
 24 25  1  0  0  0  0
 25 27  1  0  0  0  0
 26 27  2  0  0  0  0
 27 31  1  0  0  0  0
 28 29  1  0  0  0  0
 28 30  1  0  0  0  0
 31 28  2  0  0  0  0
M  END
>  <MODEL>
9

>  <REMARK>
 VINA RESULT:      -8.0      1.981      6.606
  Name = 
  6 active torsions:
  status: ('A' for Active; 'I' for Inactive)
    1  A    between atoms: C_2  and  C_13
    2  A    between atoms: C_9  and  C_22
    3  A    between atoms: C_9  and  C_23
    4  A    between atoms: C_15  and  C_23
    5  A    between atoms: C_19  and  C_22
    6  A    between atoms: C_19  and  N_24
                            x       y       z     vdW  Elec       q    Type
                         _______ _______ _______ _____ _____    ______ ____

>  <TORSDO>
F 6

$$$$
