=
 OpenBabel10262421323D

 32 36  0  0  1  0  0  0  0  0999 V2000
  189.0350  177.0750  142.2310 C   0  0  0  0  0  0  0  0  0  0  0  0
  191.0980  177.0130  146.5660 C   0  0  0  0  0  3  0  0  0  0  0  0
  189.8590  177.0870  147.1240 N   0  0  0  0  0  0  0  0  0  0  0  0
  190.6600  176.9670  140.8570 N   0  0  0  0  0  0  0  0  0  0  0  0
  191.2170  176.9500  142.0960 C   0  0  0  0  0  3  0  0  0  0  0  0
  191.2450  176.9880  145.1770 C   0  0  0  0  0  3  0  0  0  0  0  0
  190.1670  177.0210  142.9870 C   0  0  0  0  0  0  0  0  0  0  0  0
  190.1030  177.0420  144.3760 C   0  0  0  0  0  0  0  0  0  0  0  0
  187.6630  177.1750  144.1380 C   0  0  0  0  0  0  0  0  0  0  0  0
  188.7300  177.1400  146.3660 C   0  0  0  0  0  3  0  0  0  0  0  0
  188.8170  177.1210  144.9690 C   0  0  0  0  0  0  0  0  0  0  0  0
  189.3320  177.0430  140.9250 N   0  0  0  0  0  0  0  0  0  0  0  0
  187.7970  177.1520  142.7750 N   0  0  0  0  0  0  0  0  0  0  0  0
  191.3440  176.4310  137.2230 C   0  0  0  0  0  3  0  0  0  0  0  0
  190.6780  176.7580  138.3350 C   0  0  0  0  0  3  0  0  0  0  0  0
  193.5040  177.0070  138.3340 C   0  0  0  0  0  2  0  0  0  0  0  0
  191.3930  176.9120  139.6230 C   0  0  0  0  0  0  0  0  0  0  0  0
  192.7320  176.9860  139.6260 C   0  0  0  0  0  3  0  0  0  0  0  0
  192.8160  176.1300  137.2810 C   0  0  2  0  0  3  0  0  0  0  0  0
  193.3990  176.3380  136.0000 O   0  0  0  0  0  0  0  0  0  0  0  0
  194.7690  176.5450  135.8270 C   0  0  0  0  0  0  0  0  0  0  0  0
  195.6010  175.6420  136.1110 O   0  0  0  0  0  0  0  0  0  0  0  0
  195.2290  177.7870  135.3100 N   0  0  0  0  0  1  0  0  0  0  0  0
  186.2900  177.2660  144.7260 C   0  0  0  0  0  2  0  0  0  0  0  0
  184.6390  179.0040  143.8160 C   0  0  1  0  0  3  0  0  0  0  0  0
  185.1200  178.9490  146.0670 C   0  0  0  0  0  0  0  0  0  0  0  0
  183.7290  179.0620  145.9000 N   0  0  0  0  0  2  0  0  0  0  0  0
  183.3700  178.9090  144.5540 N   0  0  0  0  0  2  0  0  0  0  0  0
  185.6880  179.0540  147.1860 O   0  0  0  0  0  0  0  0  0  0  0  0
  185.8070  178.7180  144.7880 C   0  0  1  0  0  3  0  0  0  0  0  0
  184.6000  178.1670  142.5710 C   0  0  0  0  0  3  0  0  0  0  0  0
  184.8260  178.7140  141.3790 C   0  0  0  0  0  2  0  0  0  0  0  0
  1 13  1  0  0  0  0
  1  7  1  0  0  0  0
  2  3  1  0  0  0  0
  4 12  1  0  0  0  0
  4  5  1  0  0  0  0
  5  7  2  0  0  0  0
  6  2  2  0  0  0  0
  7  8  1  0  0  0  0
  8 11  2  0  0  0  0
  8  6  1  0  0  0  0
  9 24  1  0  0  0  0
  9 11  1  0  0  0  0
 10  3  2  0  0  0  0
 11 10  1  0  0  0  0
 12  1  2  0  0  0  0
 13  9  2  0  0  0  0
 14 19  1  0  0  0  0
 14 15  2  0  0  0  0
 15 17  1  0  0  0  0
 16 18  1  0  0  0  0
 17 18  2  0  0  0  0
 17  4  1  0  0  0  0
 19 20  1  6  0  0  0
 19 16  1  0  0  0  0
 21 20  1  0  0  0  0
 21 22  2  0  0  0  0
 23 21  1  0  0  0  0
 25 31  1  6  0  0  0
 25 28  1  0  0  0  0
 25 30  1  0  0  0  0
 26 29  2  0  0  0  0
 27 26  1  0  0  0  0
 28 27  1  0  0  0  0
 30 24  1  1  0  0  0
 30 26  1  0  0  0  0
 32 31  2  0  0  0  0
M  END
>  <MODEL>
1

>  <REMARK>
 VINA RESULT:      -9.4      0.000      0.000
  Name = 
  6 active torsions:
  status: ('A' for Active; 'I' for Inactive)
    1  A    between atoms: C_1  and  O_10
    2  A    between atoms: C_6  and  C_7
    3  A    between atoms: N_8  and  C_21
    4  A    between atoms: O_10  and  C_24
    5  A    between atoms: C_16  and  C_27
    6  A    between atoms: C_27  and  C_32
                            x       y       z     vdW  Elec       q    Type
                         _______ _______ _______ _____ _____    ______ ____

>  <TORSDO>
F 6

$$$$
=
 OpenBabel10262421323D

 32 36  0  0  1  0  0  0  0  0999 V2000
  185.6180  178.2070  142.5580 C   0  0  0  0  0  0  0  0  0  0  0  0
  181.0900  179.0200  143.9320 C   0  0  0  0  0  3  0  0  0  0  0  0
  180.7310  179.0680  142.6210 N   0  0  0  0  0  0  0  0  0  0  0  0
  186.7130  178.0320  144.3770 N   0  0  0  0  0  0  0  0  0  0  0  0
  185.4230  178.2620  144.7380 C   0  0  0  0  0  3  0  0  0  0  0  0
  182.4200  178.7890  144.2920 C   0  0  0  0  0  3  0  0  0  0  0  0
  184.7130  178.3770  143.5620 C   0  0  0  0  0  0  0  0  0  0  0  0
  183.3710  178.6110  143.2850 C   0  0  0  0  0  0  0  0  0  0  0  0
  183.9670  178.4820  140.9070 C   0  0  0  0  0  0  0  0  0  0  0  0
  181.6380  178.8970  141.6200 C   0  0  0  0  0  3  0  0  0  0  0  0
  182.9850  178.6650  141.9210 C   0  0  0  0  0  0  0  0  0  0  0  0
  186.8450  177.9970  143.0530 N   0  0  0  0  0  0  0  0  0  0  0  0
  185.2730  178.2560  141.2480 N   0  0  0  0  0  0  0  0  0  0  0  0
  190.2110  177.4950  145.5770 C   0  0  0  0  0  3  0  0  0  0  0  0
  189.2040  177.9300  144.8130 C   0  0  0  0  0  3  0  0  0  0  0  0
  188.7040  177.4760  147.5680 C   0  0  0  0  0  2  0  0  0  0  0  0
  187.8040  177.8490  145.2930 C   0  0  0  0  0  0  0  0  0  0  0  0
  187.5690  177.5910  146.5870 C   0  0  0  0  0  3  0  0  0  0  0  0
  189.9300  176.8390  146.9010 C   0  0  2  0  0  3  0  0  0  0  0  0
  191.0700  176.9500  147.7430 O   0  0  0  0  0  0  0  0  0  0  0  0
  192.1550  176.0760  147.6540 C   0  0  0  0  0  0  0  0  0  0  0  0
  192.2710  175.2890  146.6760 O   0  0  0  0  0  0  0  0  0  0  0  0
  193.1470  176.0830  148.6720 N   0  0  0  0  0  1  0  0  0  0  0  0
  183.6000  178.5390  139.4570 C   0  0  0  0  0  2  0  0  0  0  0  0
  182.8060  176.5590  138.0350 C   0  0  1  0  0  3  0  0  0  0  0  0
  184.8090  177.5870  137.5520 C   0  0  0  0  0  0  0  0  0  0  0  0
  184.0940  177.3950  136.3570 N   0  0  0  0  0  2  0  0  0  0  0  0
  182.7930  176.9470  136.6160 N   0  0  0  0  0  2  0  0  0  0  0  0
  186.0050  177.9820  137.5820 O   0  0  0  0  0  0  0  0  0  0  0  0
  184.0000  177.2500  138.7330 C   0  0  1  0  0  3  0  0  0  0  0  0
  181.4620  176.7750  138.6640 C   0  0  0  0  0  3  0  0  0  0  0  0
  180.9620  175.8860  139.5190 C   0  0  0  0  0  2  0  0  0  0  0  0
  1 12  2  0  0  0  0
  1  7  1  0  0  0  0
  2  6  1  0  0  0  0
  3  2  2  0  0  0  0
  4  5  1  0  0  0  0
  4 17  1  0  0  0  0
  7  5  2  0  0  0  0
  8  7  1  0  0  0  0
  8  6  2  0  0  0  0
  9 13  2  0  0  0  0
  9 11  1  0  0  0  0
 10 11  2  0  0  0  0
 10  3  1  0  0  0  0
 11  8  1  0  0  0  0
 12  4  1  0  0  0  0
 13  1  1  0  0  0  0
 14 19  1  0  0  0  0
 15 17  1  0  0  0  0
 15 14  2  0  0  0  0
 17 18  2  0  0  0  0
 18 16  1  0  0  0  0
 19 16  1  0  0  0  0
 19 20  1  1  0  0  0
 21 20  1  0  0  0  0
 21 23  1  0  0  0  0
 22 21  2  0  0  0  0
 24  9  1  0  0  0  0
 25 31  1  1  0  0  0
 25 30  1  0  0  0  0
 26 29  2  0  0  0  0
 26 30  1  0  0  0  0
 27 28  1  0  0  0  0
 27 26  1  0  0  0  0
 28 25  1  0  0  0  0
 30 24  1  6  0  0  0
 31 32  2  0  0  0  0
M  END
>  <MODEL>
2

>  <REMARK>
 VINA RESULT:      -8.8      5.044      8.267
  Name = 
  6 active torsions:
  status: ('A' for Active; 'I' for Inactive)
    1  A    between atoms: C_1  and  O_10
    2  A    between atoms: C_6  and  C_7
    3  A    between atoms: N_8  and  C_21
    4  A    between atoms: O_10  and  C_24
    5  A    between atoms: C_16  and  C_27
    6  A    between atoms: C_27  and  C_32
                            x       y       z     vdW  Elec       q    Type
                         _______ _______ _______ _____ _____    ______ ____

>  <TORSDO>
F 6

$$$$
=
 OpenBabel10262421323D

 32 36  0  0  1  0  0  0  0  0999 V2000
  185.7930  178.5720  141.7240 C   0  0  0  0  0  0  0  0  0  0  0  0
  185.7210  178.1420  146.5050 C   0  0  0  0  0  3  0  0  0  0  0  0
  184.4120  178.5150  146.4900 N   0  0  0  0  0  0  0  0  0  0  0  0
  187.7820  178.0560  141.1640 N   0  0  0  0  0  0  0  0  0  0  0  0
  187.7340  177.9410  142.5180 C   0  0  0  0  0  3  0  0  0  0  0  0
  186.4410  178.0480  145.3130 C   0  0  0  0  0  3  0  0  0  0  0  0
  186.4470  178.2760  142.8820 C   0  0  0  0  0  0  0  0  0  0  0  0
  185.7980  178.3460  144.1100 C   0  0  0  0  0  0  0  0  0  0  0  0
  183.7930  179.0360  142.8710 C   0  0  0  0  0  0  0  0  0  0  0  0
  183.7610  178.8100  145.3320 C   0  0  0  0  0  3  0  0  0  0  0  0
  184.4340  178.7360  144.1060 C   0  0  0  0  0  0  0  0  0  0  0  0
  186.6080  178.4400  140.6690 N   0  0  0  0  0  0  0  0  0  0  0  0
  184.4910  178.9480  141.6970 N   0  0  0  0  0  0  0  0  0  0  0  0
  189.8600  177.5340  138.1020 C   0  0  0  0  0  3  0  0  0  0  0  0
  188.8980  178.0210  138.8930 C   0  0  0  0  0  3  0  0  0  0  0  0
  191.3180  177.1550  140.0940 C   0  0  0  0  0  2  0  0  0  0  0  0
  188.9430  177.8020  140.3570 C   0  0  0  0  0  0  0  0  0  0  0  0
  190.0740  177.3510  140.9180 C   0  0  0  0  0  3  0  0  0  0  0  0
  190.9580  176.6830  138.6790 C   0  0  2  0  0  3  0  0  0  0  0  0
  192.0980  176.7320  137.8320 O   0  0  0  0  0  0  0  0  0  0  0  0
  192.9630  175.6460  137.6770 C   0  0  0  0  0  0  0  0  0  0  0  0
  192.5300  174.4630  137.7280 O   0  0  0  0  0  0  0  0  0  0  0  0
  194.3470  175.8800  137.4470 N   0  0  0  0  0  1  0  0  0  0  0  0
  182.3580  179.4570  142.8280 C   0  0  0  0  0  2  0  0  0  0  0  0
  180.1220  178.2520  142.4820 C   0  0  1  0  0  3  0  0  0  0  0  0
  181.1730  179.2530  140.6940 C   0  0  0  0  0  0  0  0  0  0  0  0
  179.8090  179.5940  140.6720 N   0  0  0  0  0  2  0  0  0  0  0  0
  179.1650  179.1670  141.8400 N   0  0  0  0  0  2  0  0  0  0  0  0
  181.9640  179.5250  139.7540 O   0  0  0  0  0  0  0  0  0  0  0  0
  181.5360  178.5340  141.9240 C   0  0  1  0  0  3  0  0  0  0  0  0
  179.9840  178.2910  143.9750 C   0  0  0  0  0  3  0  0  0  0  0  0
  179.0550  179.0500  144.5510 C   0  0  0  0  0  2  0  0  0  0  0  0
  1  7  1  0  0  0  0
  3  2  1  0  0  0  0
  4  5  1  0  0  0  0
  5  7  2  0  0  0  0
  6  2  2  0  0  0  0
  7  8  1  0  0  0  0
  8  6  1  0  0  0  0
  9 11  1  0  0  0  0
 10  3  2  0  0  0  0
 11  8  2  0  0  0  0
 11 10  1  0  0  0  0
 12  4  1  0  0  0  0
 12  1  2  0  0  0  0
 13  1  1  0  0  0  0
 13  9  2  0  0  0  0
 14 19  1  0  0  0  0
 14 15  2  0  0  0  0
 15 17  1  0  0  0  0
 16 18  1  0  0  0  0
 17 18  2  0  0  0  0
 17  4  1  0  0  0  0
 19 20  1  6  0  0  0
 19 16  1  0  0  0  0
 21 22  2  0  0  0  0
 21 20  1  0  0  0  0
 23 21  1  0  0  0  0
 24  9  1  0  0  0  0
 25 31  1  1  0  0  0
 26 30  1  0  0  0  0
 27 26  1  0  0  0  0
 27 28  1  0  0  0  0
 28 25  1  0  0  0  0
 29 26  2  0  0  0  0
 30 25  1  0  0  0  0
 30 24  1  1  0  0  0
 31 32  2  0  0  0  0
M  END
>  <MODEL>
3

>  <REMARK>
 VINA RESULT:      -8.6      3.053      4.507
  Name = 
  6 active torsions:
  status: ('A' for Active; 'I' for Inactive)
    1  A    between atoms: C_1  and  O_10
    2  A    between atoms: C_6  and  C_7
    3  A    between atoms: N_8  and  C_21
    4  A    between atoms: O_10  and  C_24
    5  A    between atoms: C_16  and  C_27
    6  A    between atoms: C_27  and  C_32
                            x       y       z     vdW  Elec       q    Type
                         _______ _______ _______ _____ _____    ______ ____

>  <TORSDO>
F 6

$$$$
=
 OpenBabel10262421323D

 32 36  0  0  1  0  0  0  0  0999 V2000
  186.8280  178.2820  141.7330 C   0  0  0  0  0  0  0  0  0  0  0  0
  182.0970  178.8140  142.3500 C   0  0  0  0  0  3  0  0  0  0  0  0
  181.9620  178.9150  141.0000 N   0  0  0  0  0  0  0  0  0  0  0  0
  187.6100  178.0610  143.7020 N   0  0  0  0  0  0  0  0  0  0  0  0
  186.2670  178.2130  143.8480 C   0  0  0  0  0  3  0  0  0  0  0  0
  183.3580  178.6250  142.9200 C   0  0  0  0  0  3  0  0  0  0  0  0
  185.7600  178.3570  142.5740 C   0  0  0  0  0  0  0  0  0  0  0  0
  184.4730  178.5440  142.0830 C   0  0  0  0  0  0  0  0  0  0  0  0
  185.4660  178.5680  139.8380 C   0  0  0  0  0  0  0  0  0  0  0  0
  183.0310  178.8380  140.1610 C   0  0  0  0  0  3  0  0  0  0  0  0
  184.3200  178.6520  140.6770 C   0  0  0  0  0  0  0  0  0  0  0  0
  187.9640  178.1020  142.4190 N   0  0  0  0  0  0  0  0  0  0  0  0
  186.7060  178.3830  140.3870 N   0  0  0  0  0  0  0  0  0  0  0  0
  190.8830  177.6600  145.4590 C   0  0  0  0  0  3  0  0  0  0  0  0
  189.9910  178.0860  144.5600 C   0  0  0  0  0  3  0  0  0  0  0  0
  189.0660  177.3970  147.1510 C   0  0  0  0  0  2  0  0  0  0  0  0
  188.5410  177.8810  144.7810 C   0  0  0  0  0  0  0  0  0  0  0  0
  188.1080  177.5120  145.9960 C   0  0  0  0  0  3  0  0  0  0  0  0
  190.4320  176.8900  146.6700 C   0  0  2  0  0  3  0  0  0  0  0  0
  191.4010  177.0110  147.7040 O   0  0  0  0  0  0  0  0  0  0  0  0
  192.4000  176.0580  147.9080 C   0  0  0  0  0  0  0  0  0  0  0  0
  193.2350  176.1860  148.8430 O   0  0  0  0  0  0  0  0  0  0  0  0
  192.4680  174.9200  147.0570 N   0  0  0  0  0  1  0  0  0  0  0  0
  185.3450  178.6840  138.3500 C   0  0  0  0  0  2  0  0  0  0  0  0
  185.6850  176.8910  136.5500 C   0  0  1  0  0  3  0  0  0  0  0  0
  187.2330  178.5780  136.7940 C   0  0  0  0  0  0  0  0  0  0  0  0
  186.9420  178.4190  135.4280 N   0  0  0  0  0  2  0  0  0  0  0  0
  185.8700  177.5370  135.2420 N   0  0  0  0  0  2  0  0  0  0  0  0
  188.1600  179.3180  137.2170 O   0  0  0  0  0  0  0  0  0  0  0  0
  186.3450  177.7670  137.6400 C   0  0  1  0  0  3  0  0  0  0  0  0
  184.2460  176.5340  136.7760 C   0  0  0  0  0  3  0  0  0  0  0  0
  183.8610  175.2610  136.8180 C   0  0  0  0  0  2  0  0  0  0  0  0
  1 12  2  0  0  0  0
  1  7  1  0  0  0  0
  2  6  1  0  0  0  0
  3  2  2  0  0  0  0
  4  5  1  0  0  0  0
  4 17  1  0  0  0  0
  7  5  2  0  0  0  0
  8  7  1  0  0  0  0
  8  6  2  0  0  0  0
  9 13  2  0  0  0  0
  9 11  1  0  0  0  0
 10 11  2  0  0  0  0
 10  3  1  0  0  0  0
 11  8  1  0  0  0  0
 12  4  1  0  0  0  0
 13  1  1  0  0  0  0
 14 19  1  0  0  0  0
 15 17  1  0  0  0  0
 15 14  2  0  0  0  0
 17 18  2  0  0  0  0
 18 16  1  0  0  0  0
 19 16  1  0  0  0  0
 19 20  1  1  0  0  0
 20 21  1  0  0  0  0
 21 22  2  0  0  0  0
 23 21  1  0  0  0  0
 24  9  1  0  0  0  0
 25 31  1  1  0  0  0
 25 30  1  0  0  0  0
 26 29  2  0  0  0  0
 26 30  1  0  0  0  0
 27 26  1  0  0  0  0
 28 27  1  0  0  0  0
 28 25  1  0  0  0  0
 30 24  1  6  0  0  0
 31 32  2  0  0  0  0
M  END
>  <MODEL>
4

>  <REMARK>
 VINA RESULT:      -8.4      4.180      8.282
  Name = 
  6 active torsions:
  status: ('A' for Active; 'I' for Inactive)
    1  A    between atoms: C_1  and  O_10
    2  A    between atoms: C_6  and  C_7
    3  A    between atoms: N_8  and  C_21
    4  A    between atoms: O_10  and  C_24
    5  A    between atoms: C_16  and  C_27
    6  A    between atoms: C_27  and  C_32
                            x       y       z     vdW  Elec       q    Type
                         _______ _______ _______ _____ _____    ______ ____

>  <TORSDO>
F 6

$$$$
=
 OpenBabel10262421323D

 32 36  0  0  1  0  0  0  0  0999 V2000
  189.4500  176.8560  141.7270 C   0  0  0  0  0  0  0  0  0  0  0  0
  185.2200  179.0590  141.1780 C   0  0  0  0  0  3  0  0  0  0  0  0
  184.9640  178.8330  142.4950 N   0  0  0  0  0  0  0  0  0  0  0  0
  190.3550  176.9330  139.8000 N   0  0  0  0  0  0  0  0  0  0  0  0
  189.1520  177.5530  139.6730 C   0  0  0  0  0  3  0  0  0  0  0  0
  186.4200  178.6280  140.6090 C   0  0  0  0  0  3  0  0  0  0  0  0
  188.5640  177.5030  140.9200 C   0  0  0  0  0  0  0  0  0  0  0  0
  187.3480  177.9620  141.4120 C   0  0  0  0  0  0  0  0  0  0  0  0
  188.0260  177.0490  143.5880 C   0  0  0  0  0  0  0  0  0  0  0  0
  185.8510  178.1860  143.3000 C   0  0  0  0  0  3  0  0  0  0  0  0
  187.0690  177.7300  142.7830 C   0  0  0  0  0  0  0  0  0  0  0  0
  190.5480  176.5040  141.0460 N   0  0  0  0  0  0  0  0  0  0  0  0
  189.2050  176.6220  143.0390 N   0  0  0  0  0  0  0  0  0  0  0  0
  191.7050  176.0030  136.4420 C   0  0  0  0  0  3  0  0  0  0  0  0
  190.8440  176.4400  137.3660 C   0  0  0  0  0  3  0  0  0  0  0  0
  193.6200  176.7470  137.8610 C   0  0  0  0  0  2  0  0  0  0  0  0
  191.3050  176.7540  138.7390 C   0  0  0  0  0  0  0  0  0  0  0  0
  192.6200  176.8560  138.9810 C   0  0  0  0  0  3  0  0  0  0  0  0
  193.1400  175.7410  136.8070 C   0  0  2  0  0  3  0  0  0  0  0  0
  193.9520  175.8150  135.6410 O   0  0  0  0  0  0  0  0  0  0  0  0
  195.2380  176.3570  135.6580 C   0  0  0  0  0  0  0  0  0  0  0  0
  196.2210  175.6770  136.0580 O   0  0  0  0  0  0  0  0  0  0  0  0
  195.4430  177.6900  135.2070 N   0  0  0  0  0  1  0  0  0  0  0  0
  187.7650  176.7800  145.0370 C   0  0  0  0  0  2  0  0  0  0  0  0
  187.4770  178.2120  147.1440 C   0  0  1  0  0  3  0  0  0  0  0  0
  189.5470  177.3520  146.6170 C   0  0  0  0  0  0  0  0  0  0  0  0
  189.2990  177.1390  147.9830 N   0  0  0  0  0  2  0  0  0  0  0  0
  187.9790  177.4720  148.3130 N   0  0  0  0  0  2  0  0  0  0  0  0
  190.6640  177.1300  146.0780 O   0  0  0  0  0  0  0  0  0  0  0  0
  188.3630  177.8780  145.9220 C   0  0  1  0  0  3  0  0  0  0  0  0
  186.0030  177.9990  146.9660 C   0  0  0  0  0  3  0  0  0  0  0  0
  185.2130  179.0030  146.5940 C   0  0  0  0  0  2  0  0  0  0  0  0
  1 13  1  0  0  0  0
  2  3  1  0  0  0  0
  3 10  2  0  0  0  0
  4 12  1  0  0  0  0
  5  4  1  0  0  0  0
  5  7  2  0  0  0  0
  6  2  2  0  0  0  0
  6  8  1  0  0  0  0
  7  8  1  0  0  0  0
  7  1  1  0  0  0  0
  8 11  2  0  0  0  0
  9 24  1  0  0  0  0
 11 10  1  0  0  0  0
 11  9  1  0  0  0  0
 12  1  2  0  0  0  0
 13  9  2  0  0  0  0
 14 19  1  0  0  0  0
 14 15  2  0  0  0  0
 15 17  1  0  0  0  0
 16 18  1  0  0  0  0
 17 18  2  0  0  0  0
 17  4  1  0  0  0  0
 19 20  1  6  0  0  0
 19 16  1  0  0  0  0
 20 21  1  0  0  0  0
 21 22  2  0  0  0  0
 23 21  1  0  0  0  0
 25 31  1  6  0  0  0
 25 28  1  0  0  0  0
 26 27  1  0  0  0  0
 27 28  1  0  0  0  0
 29 26  2  0  0  0  0
 30 24  1  6  0  0  0
 30 26  1  0  0  0  0
 30 25  1  0  0  0  0
 32 31  2  0  0  0  0
M  END
>  <MODEL>
5

>  <REMARK>
 VINA RESULT:      -8.2      1.680      3.728
  Name = 
  6 active torsions:
  status: ('A' for Active; 'I' for Inactive)
    1  A    between atoms: C_1  and  O_10
    2  A    between atoms: C_6  and  C_7
    3  A    between atoms: N_8  and  C_21
    4  A    between atoms: O_10  and  C_24
    5  A    between atoms: C_16  and  C_27
    6  A    between atoms: C_27  and  C_32
                            x       y       z     vdW  Elec       q    Type
                         _______ _______ _______ _____ _____    ______ ____

>  <TORSDO>
F 6

$$$$
=
 OpenBabel10262421323D

 32 36  0  0  1  0  0  0  0  0999 V2000
  185.4000  178.0330  142.5490 C   0  0  0  0  0  0  0  0  0  0  0  0
  185.4620  178.6270  147.3130 C   0  0  0  0  0  3  0  0  0  0  0  0
  186.7360  178.1510  147.3270 N   0  0  0  0  0  0  0  0  0  0  0  0
  183.4640  178.6860  141.9470 N   0  0  0  0  0  0  0  0  0  0  0  0
  183.5090  178.8450  143.2960 C   0  0  0  0  0  3  0  0  0  0  0  0
  184.7620  178.7350  146.1090 C   0  0  0  0  0  3  0  0  0  0  0  0
  184.7610  178.4210  143.6870 C   0  0  0  0  0  0  0  0  0  0  0  0
  185.3910  178.3450  144.9250 C   0  0  0  0  0  0  0  0  0  0  0  0
  187.3450  177.4530  143.7360 C   0  0  0  0  0  0  0  0  0  0  0  0
  187.3720  177.7640  146.1870 C   0  0  0  0  0  3  0  0  0  0  0  0
  186.7190  177.8470  144.9520 C   0  0  0  0  0  0  0  0  0  0  0  0
  184.6090  178.1920  141.4800 N   0  0  0  0  0  0  0  0  0  0  0  0
  186.6680  177.5540  142.5510 N   0  0  0  0  0  0  0  0  0  0  0  0
  179.8990  178.9870  140.8680 C   0  0  0  0  0  3  0  0  0  0  0  0
  180.9630  178.9690  141.6760 C   0  0  0  0  0  3  0  0  0  0  0  0
  181.3410  179.7260  138.9690 C   0  0  0  0  0  2  0  0  0  0  0  0
  182.3350  179.0020  141.1170 C   0  0  0  0  0  0  0  0  0  0  0  0
  182.5090  179.3180  139.8260 C   0  0  0  0  0  3  0  0  0  0  0  0
  180.0790  178.9550  139.3760 C   0  0  2  0  0  3  0  0  0  0  0  0
  178.9320  179.5060  138.7420 O   0  0  0  0  0  0  0  0  0  0  0  0
  178.9820  180.0770  137.4690 C   0  0  0  0  0  0  0  0  0  0  0  0
  179.0040  179.3540  136.4370 O   0  0  0  0  0  0  0  0  0  0  0  0
  178.9950  181.4930  137.3360 N   0  0  0  0  0  1  0  0  0  0  0  0
  188.7430  176.9180  143.7250 C   0  0  0  0  0  2  0  0  0  0  0  0
  191.0740  177.9500  143.9980 C   0  0  1  0  0  3  0  0  0  0  0  0
  190.2220  177.5840  141.8900 C   0  0  0  0  0  0  0  0  0  0  0  0
  191.5530  177.1320  141.9300 N   0  0  0  0  0  2  0  0  0  0  0  0
  192.0540  177.1580  143.2380 N   0  0  0  0  0  2  0  0  0  0  0  0
  189.5530  177.6580  140.8260 O   0  0  0  0  0  0  0  0  0  0  0  0
  189.7360  177.9700  143.2230 C   0  0  1  0  0  3  0  0  0  0  0  0
  191.0010  177.4890  145.4240 C   0  0  0  0  0  3  0  0  0  0  0  0
  191.6800  176.4180  145.8260 C   0  0  0  0  0  2  0  0  0  0  0  0
  1 13  1  0  0  0  0
  1  7  1  0  0  0  0
  2  3  1  0  0  0  0
  4  5  1  0  0  0  0
  5  7  2  0  0  0  0
  6  2  2  0  0  0  0
  7  8  1  0  0  0  0
  8 11  2  0  0  0  0
  8  6  1  0  0  0  0
  9 11  1  0  0  0  0
 10  3  2  0  0  0  0
 11 10  1  0  0  0  0
 12  4  1  0  0  0  0
 12  1  2  0  0  0  0
 13  9  2  0  0  0  0
 14 15  2  0  0  0  0
 16 19  1  0  0  0  0
 16 18  1  0  0  0  0
 17 15  1  0  0  0  0
 17  4  1  0  0  0  0
 18 17  2  0  0  0  0
 19 20  1  6  0  0  0
 19 14  1  0  0  0  0
 21 20  1  0  0  0  0
 22 21  2  0  0  0  0
 23 21  1  0  0  0  0
 24  9  1  0  0  0  0
 25 31  1  1  0  0  0
 26 27  1  0  0  0  0
 26 30  1  0  0  0  0
 27 28  1  0  0  0  0
 28 25  1  0  0  0  0
 29 26  2  0  0  0  0
 30 24  1  1  0  0  0
 30 25  1  0  0  0  0
 31 32  2  0  0  0  0
M  END
>  <MODEL>
6

>  <REMARK>
 VINA RESULT:      -8.1      4.336      9.050
  Name = 
  6 active torsions:
  status: ('A' for Active; 'I' for Inactive)
    1  A    between atoms: C_1  and  O_10
    2  A    between atoms: C_6  and  C_7
    3  A    between atoms: N_8  and  C_21
    4  A    between atoms: O_10  and  C_24
    5  A    between atoms: C_16  and  C_27
    6  A    between atoms: C_27  and  C_32
                            x       y       z     vdW  Elec       q    Type
                         _______ _______ _______ _____ _____    ______ ____

>  <TORSDO>
F 6

$$$$
=
 OpenBabel10262421323D

 32 36  0  0  1  0  0  0  0  0999 V2000
  185.6250  178.3470  142.5130 C   0  0  0  0  0  0  0  0  0  0  0  0
  181.0680  178.9300  143.9060 C   0  0  0  0  0  3  0  0  0  0  0  0
  180.7150  179.0610  142.5980 N   0  0  0  0  0  0  0  0  0  0  0  0
  186.7140  178.0740  144.3230 N   0  0  0  0  0  0  0  0  0  0  0  0
  185.4160  178.2410  144.6900 C   0  0  0  0  0  3  0  0  0  0  0  0
  182.4020  178.7120  144.2580 C   0  0  0  0  0  3  0  0  0  0  0  0
  184.7100  178.4190  143.5180 C   0  0  0  0  0  0  0  0  0  0  0  0
  183.3630  178.6340  143.2490 C   0  0  0  0  0  0  0  0  0  0  0  0
  183.9760  178.6920  140.8720 C   0  0  0  0  0  0  0  0  0  0  0  0
  181.6320  178.9880  141.5950 C   0  0  0  0  0  3  0  0  0  0  0  0
  182.9840  178.7740  141.8890 C   0  0  0  0  0  0  0  0  0  0  0  0
  186.8550  178.1370  143.0010 N   0  0  0  0  0  0  0  0  0  0  0  0
  185.2870  178.4790  141.2070 N   0  0  0  0  0  0  0  0  0  0  0  0
  190.2020  177.4360  145.5020 C   0  0  0  0  0  3  0  0  0  0  0  0
  189.2040  177.9010  144.7440 C   0  0  0  0  0  3  0  0  0  0  0  0
  188.7070  177.4540  147.5010 C   0  0  0  0  0  2  0  0  0  0  0  0
  187.8050  177.8590  145.2320 C   0  0  0  0  0  0  0  0  0  0  0  0
  187.5700  177.6040  146.5270 C   0  0  0  0  0  3  0  0  0  0  0  0
  189.9100  176.7840  146.8250 C   0  0  2  0  0  3  0  0  0  0  0  0
  191.0580  176.8610  147.6610 O   0  0  0  0  0  0  0  0  0  0  0  0
  192.1410  175.9900  147.5270 C   0  0  0  0  0  0  0  0  0  0  0  0
  192.2260  175.2120  146.5390 O   0  0  0  0  0  0  0  0  0  0  0  0
  193.1680  175.9920  148.5110 N   0  0  0  0  0  1  0  0  0  0  0  0
  183.6170  178.8410  139.4270 C   0  0  0  0  0  2  0  0  0  0  0  0
  181.4810  178.6610  138.0190 C   0  0  1  0  0  3  0  0  0  0  0  0
  182.8320  176.8170  138.2930 C   0  0  0  0  0  0  0  0  0  0  0  0
  182.4780  176.9260  136.9370 N   0  0  0  0  0  2  0  0  0  0  0  0
  181.8150  178.1340  136.6870 N   0  0  0  0  0  2  0  0  0  0  0  0
  183.4340  175.8180  138.7680 O   0  0  0  0  0  0  0  0  0  0  0  0
  182.3970  177.9880  139.0680 C   0  0  1  0  0  3  0  0  0  0  0  0
  181.4760  180.1610  138.0180 C   0  0  0  0  0  3  0  0  0  0  0  0
  180.3830  180.8360  138.3660 C   0  0  0  0  0  2  0  0  0  0  0  0
  1 12  2  0  0  0  0
  1  7  1  0  0  0  0
  2  6  1  0  0  0  0
  3  2  2  0  0  0  0
  4  5  1  0  0  0  0
  4 17  1  0  0  0  0
  7  5  2  0  0  0  0
  8  7  1  0  0  0  0
  8  6  2  0  0  0  0
  9 13  2  0  0  0  0
  9 11  1  0  0  0  0
 10 11  2  0  0  0  0
 10  3  1  0  0  0  0
 11  8  1  0  0  0  0
 12  4  1  0  0  0  0
 13  1  1  0  0  0  0
 14 19  1  0  0  0  0
 15 17  1  0  0  0  0
 15 14  2  0  0  0  0
 17 18  2  0  0  0  0
 18 16  1  0  0  0  0
 19 16  1  0  0  0  0
 19 20  1  1  0  0  0
 21 20  1  0  0  0  0
 21 23  1  0  0  0  0
 22 21  2  0  0  0  0
 24  9  1  0  0  0  0
 25 31  1  6  0  0  0
 25 30  1  0  0  0  0
 26 29  2  0  0  0  0
 26 30  1  0  0  0  0
 27 26  1  0  0  0  0
 28 27  1  0  0  0  0
 28 25  1  0  0  0  0
 30 24  1  6  0  0  0
 31 32  2  0  0  0  0
M  END
>  <MODEL>
7

>  <REMARK>
 VINA RESULT:      -8.1      5.377      8.236
  Name = 
  6 active torsions:
  status: ('A' for Active; 'I' for Inactive)
    1  A    between atoms: C_1  and  O_10
    2  A    between atoms: C_6  and  C_7
    3  A    between atoms: N_8  and  C_21
    4  A    between atoms: O_10  and  C_24
    5  A    between atoms: C_16  and  C_27
    6  A    between atoms: C_27  and  C_32
                            x       y       z     vdW  Elec       q    Type
                         _______ _______ _______ _____ _____    ______ ____

>  <TORSDO>
F 6

$$$$
=
 OpenBabel10262421323D

 32 36  0  0  1  0  0  0  0  0999 V2000
  190.0490  177.0030  140.0270 C   0  0  0  0  0  0  0  0  0  0  0  0
  187.6440  178.2480  136.0630 C   0  0  0  0  0  3  0  0  0  0  0  0
  188.6880  177.7900  135.3200 N   0  0  0  0  0  0  0  0  0  0  0  0
  188.7590  177.5410  141.6340 N   0  0  0  0  0  0  0  0  0  0  0  0
  188.1000  177.8830  140.4960 C   0  0  0  0  0  3  0  0  0  0  0  0
  187.6870  178.1800  137.4570 C   0  0  0  0  0  3  0  0  0  0  0  0
  188.9340  177.5360  139.4540 C   0  0  0  0  0  0  0  0  0  0  0  0
  188.8160  177.6380  138.0730 C   0  0  0  0  0  0  0  0  0  0  0  0
  191.0450  176.6170  137.9320 C   0  0  0  0  0  0  0  0  0  0  0  0
  189.8010  177.2570  135.8950 C   0  0  0  0  0  3  0  0  0  0  0  0
  189.9000  177.1660  137.2890 C   0  0  0  0  0  0  0  0  0  0  0  0
  189.9470  177.0050  141.3620 N   0  0  0  0  0  0  0  0  0  0  0  0
  191.0960  176.5470  139.2980 N   0  0  0  0  0  0  0  0  0  0  0  0
  188.7600  177.8260  145.3600 C   0  0  0  0  0  3  0  0  0  0  0  0
  189.1890  177.9280  144.0990 C   0  0  0  0  0  3  0  0  0  0  0  0
  186.3940  177.9840  144.5780 C   0  0  0  0  0  2  0  0  0  0  0  0
  188.2550  177.7280  142.9660 C   0  0  0  0  0  0  0  0  0  0  0  0
  186.9340  177.7120  143.2010 C   0  0  0  0  0  3  0  0  0  0  0  0
  187.3400  177.4240  145.6490 C   0  0  2  0  0  3  0  0  0  0  0  0
  186.9620  177.8880  146.9390 O   0  0  0  0  0  0  0  0  0  0  0  0
  185.8780  178.7440  147.1390 C   0  0  0  0  0  0  0  0  0  0  0  0
  186.0570  179.9500  147.4580 O   0  0  0  0  0  0  0  0  0  0  0  0
  184.5550  178.2510  146.9680 N   0  0  0  0  0  1  0  0  0  0  0  0
  192.2110  176.1150  137.1390 C   0  0  0  0  0  2  0  0  0  0  0  0
  192.3200  173.6000  136.6500 C   0  0  1  0  0  3  0  0  0  0  0  0
  194.1350  174.6670  137.5820 C   0  0  0  0  0  0  0  0  0  0  0  0
  194.5800  173.8370  136.5390 N   0  0  0  0  0  2  0  0  0  0  0  0
  193.4990  173.3130  135.8180 N   0  0  0  0  0  2  0  0  0  0  0  0
  194.9190  175.2520  138.3760 O   0  0  0  0  0  0  0  0  0  0  0  0
  192.6680  174.7400  137.6360 C   0  0  1  0  0  3  0  0  0  0  0  0
  191.1020  173.8150  135.8010 C   0  0  0  0  0  3  0  0  0  0  0  0
  189.9120  173.3720  136.1990 C   0  0  0  0  0  2  0  0  0  0  0  0
  1 12  2  0  0  0  0
  2  6  1  0  0  0  0
  3 10  1  0  0  0  0
  3  2  2  0  0  0  0
  4 17  1  0  0  0  0
  5  4  1  0  0  0  0
  6  8  2  0  0  0  0
  7  1  1  0  0  0  0
  7  5  2  0  0  0  0
  8  7  1  0  0  0  0
  9 13  2  0  0  0  0
 10 11  2  0  0  0  0
 11  9  1  0  0  0  0
 11  8  1  0  0  0  0
 12  4  1  0  0  0  0
 13  1  1  0  0  0  0
 14 19  1  0  0  0  0
 15 14  2  0  0  0  0
 16 19  1  0  0  0  0
 17 18  2  0  0  0  0
 17 15  1  0  0  0  0
 18 16  1  0  0  0  0
 19 20  1  1  0  0  0
 20 21  1  0  0  0  0
 21 22  2  0  0  0  0
 23 21  1  0  0  0  0
 24  9  1  0  0  0  0
 25 31  1  6  0  0  0
 25 30  1  0  0  0  0
 26 30  1  0  0  0  0
 26 29  2  0  0  0  0
 27 26  1  0  0  0  0
 28 27  1  0  0  0  0
 28 25  1  0  0  0  0
 30 24  1  6  0  0  0
 31 32  2  0  0  0  0
M  END
>  <MODEL>
8

>  <REMARK>
 VINA RESULT:      -8.1      2.408     10.042
  Name = 
  6 active torsions:
  status: ('A' for Active; 'I' for Inactive)
    1  A    between atoms: C_1  and  O_10
    2  A    between atoms: C_6  and  C_7
    3  A    between atoms: N_8  and  C_21
    4  A    between atoms: O_10  and  C_24
    5  A    between atoms: C_16  and  C_27
    6  A    between atoms: C_27  and  C_32
                            x       y       z     vdW  Elec       q    Type
                         _______ _______ _______ _____ _____    ______ ____

>  <TORSDO>
F 6

$$$$
=
 OpenBabel10262421323D

 32 36  0  0  1  0  0  0  0  0999 V2000
  185.7200  178.1030  142.0850 C   0  0  0  0  0  0  0  0  0  0  0  0
  189.8130  177.9420  139.5810 C   0  0  0  0  0  3  0  0  0  0  0  0
  190.4330  177.4360  140.6810 N   0  0  0  0  0  0  0  0  0  0  0  0
  184.2820  178.8850  140.7220 N   0  0  0  0  0  0  0  0  0  0  0  0
  185.4540  178.8280  140.0360 C   0  0  0  0  0  3  0  0  0  0  0  0
  188.4520  178.2530  139.6180 C   0  0  0  0  0  3  0  0  0  0  0  0
  186.3860  178.3230  140.9170 C   0  0  0  0  0  0  0  0  0  0  0  0
  187.7430  178.0380  140.8010 C   0  0  0  0  0  0  0  0  0  0  0  0
  187.6620  177.3000  143.1410 C   0  0  0  0  0  0  0  0  0  0  0  0
  189.7650  177.2170  141.8470 C   0  0  0  0  0  3  0  0  0  0  0  0
  188.3990  177.5130  141.9430 C   0  0  0  0  0  0  0  0  0  0  0  0
  184.4310  178.4470  141.9700 N   0  0  0  0  0  0  0  0  0  0  0  0
  186.3270  177.6020  143.1880 N   0  0  0  0  0  0  0  0  0  0  0  0
  181.9150  180.8020  138.5570 C   0  0  0  0  0  3  0  0  0  0  0  0
  183.0100  180.1280  138.9200 C   0  0  0  0  0  3  0  0  0  0  0  0
  180.5680  179.5360  140.2360 C   0  0  0  0  0  2  0  0  0  0  0  0
  183.0360  179.3560  140.1850 C   0  0  0  0  0  0  0  0  0  0  0  0
  181.8850  179.1140  140.8290 C   0  0  0  0  0  3  0  0  0  0  0  0
  180.7200  180.8560  139.4690 C   0  0  2  0  0  3  0  0  0  0  0  0
  179.5490  181.1300  138.7100 O   0  0  0  0  0  0  0  0  0  0  0  0
  179.3750  182.3240  138.0080 C   0  0  0  0  0  0  0  0  0  0  0  0
  179.3000  183.4260  138.6160 O   0  0  0  0  0  0  0  0  0  0  0  0
  179.2940  182.2970  136.5890 N   0  0  0  0  0  1  0  0  0  0  0  0
  188.3210  176.7530  144.3690 C   0  0  0  0  0  2  0  0  0  0  0  0
  188.1140  177.9960  146.6010 C   0  0  1  0  0  3  0  0  0  0  0  0
  190.1970  177.5060  145.7520 C   0  0  0  0  0  0  0  0  0  0  0  0
  190.1720  177.1760  147.1180 N   0  0  0  0  0  2  0  0  0  0  0  0
  188.8740  177.2780  147.6360 N   0  0  0  0  0  2  0  0  0  0  0  0
  191.2500  177.4950  145.0610 O   0  0  0  0  0  0  0  0  0  0  0  0
  188.8640  177.8780  145.2540 C   0  0  1  0  0  3  0  0  0  0  0  0
  186.6770  177.5650  146.5930 C   0  0  0  0  0  3  0  0  0  0  0  0
  185.6980  178.4660  146.6020 C   0  0  0  0  0  2  0  0  0  0  0  0
  1 13  1  0  0  0  0
  2  6  2  0  0  0  0
  2  3  1  0  0  0  0
  3 10  2  0  0  0  0
  4 12  1  0  0  0  0
  5  4  1  0  0  0  0
  5  7  2  0  0  0  0
  6  8  1  0  0  0  0
  7  1  1  0  0  0  0
  8  7  1  0  0  0  0
  8 11  2  0  0  0  0
  9 13  2  0  0  0  0
  9 24  1  0  0  0  0
 10 11  1  0  0  0  0
 11  9  1  0  0  0  0
 12  1  2  0  0  0  0
 14 15  2  0  0  0  0
 14 19  1  0  0  0  0
 15 17  1  0  0  0  0
 16 18  1  0  0  0  0
 17  4  1  0  0  0  0
 17 18  2  0  0  0  0
 19 20  1  6  0  0  0
 19 16  1  0  0  0  0
 21 22  2  0  0  0  0
 21 20  1  0  0  0  0
 23 21  1  0  0  0  0
 25 31  1  6  0  0  0
 25 28  1  0  0  0  0
 26 27  1  0  0  0  0
 27 28  1  0  0  0  0
 29 26  2  0  0  0  0
 30 24  1  6  0  0  0
 30 26  1  0  0  0  0
 30 25  1  0  0  0  0
 31 32  2  0  0  0  0
M  END
>  <MODEL>
9

>  <REMARK>
 VINA RESULT:      -7.9      4.273      8.675
  Name = 
  6 active torsions:
  status: ('A' for Active; 'I' for Inactive)
    1  A    between atoms: C_1  and  O_10
    2  A    between atoms: C_6  and  C_7
    3  A    between atoms: N_8  and  C_21
    4  A    between atoms: O_10  and  C_24
    5  A    between atoms: C_16  and  C_27
    6  A    between atoms: C_27  and  C_32
                            x       y       z     vdW  Elec       q    Type
                         _______ _______ _______ _____ _____    ______ ____

>  <TORSDO>
F 6

$$$$
