=
 OpenBabel10262421223D

 32 38  0  0  1  0  0  0  0  0999 V2000
  187.3580  177.5600  137.1280 C   0  0  0  0  0  2  0  0  0  0  0  0
  187.5730  177.8810  142.2930 C   0  0  0  0  0  0  0  0  0  0  0  0
  182.9500  179.0350  143.3180 C   0  0  0  0  0  3  0  0  0  0  0  0
  183.2300  178.9410  144.6810 C   0  0  0  0  0  3  0  0  0  0  0  0
  189.3220  177.6000  144.1470 C   0  0  0  0  0  0  0  0  0  0  0  0
  189.4440  177.4850  145.6380 C   0  0  0  0  0  0  0  0  0  0  0  0
  188.3170  177.8690  139.9790 C   0  0  0  0  0  0  0  0  0  0  0  0
  186.0500  178.4180  140.5170 N   0  0  0  0  0  0  0  0  0  0  0  0
  188.9350  177.5490  147.7400 C   0  0  0  0  0  0  0  0  0  0  0  0
  186.6500  178.4990  138.1220 C   0  0  0  0  0  2  0  0  0  0  0  0
  183.9640  178.8120  142.3840 C   0  0  0  0  0  3  0  0  0  0  0  0
  186.2900  178.2720  141.8630 C   0  0  0  0  0  0  0  0  0  0  0  0
  185.2590  178.4610  142.7950 C   0  0  0  0  0  0  0  0  0  0  0  0
  186.8230  178.0270  144.6280 C   0  0  0  0  0  0  0  0  0  0  0  0
  190.2040  177.2130  147.6010 O   0  0  0  0  0  0  0  0  0  0  0  0
  189.4090  178.6590  137.8460 C   0  0  0  0  0  2  0  0  0  0  0  0
  187.0070  178.2120  139.5670 C   0  0  0  0  0  0  0  0  0  0  0  0
  190.5510  177.1760  146.3430 N   0  0  0  0  0  0  0  0  0  0  0  0
  189.4910  177.7210  139.0570 C   0  0  0  0  0  2  0  0  0  0  0  0
  188.6950  178.0330  136.7130 N   0  0  1  0  0  0  0  0  0  0  0  0
  184.5100  178.6000  145.1100 C   0  0  0  0  0  3  0  0  0  0  0  0
  185.5310  178.3430  144.1850 C   0  0  0  0  0  0  0  0  0  0  0  0
  187.1080  178.0500  146.0460 N   0  0  0  0  0  0  0  0  0  0  0  0
  188.5700  177.6870  141.3350 C   0  0  0  0  0  3  0  0  0  0  0  0
  190.1750  178.7870  143.6730 C   0  0  0  0  0  1  0  0  0  0  0  0
  188.2240  177.6870  149.0350 C   0  0  0  0  0  1  0  0  0  0  0  0
  187.8650  177.7770  143.6810 C   0  0  0  0  0  0  0  0  0  0  0  0
  188.4230  177.7390  146.4850 C   0  0  0  0  0  0  0  0  0  0  0  0
  189.9220  176.9660  134.8070 C   0  0  2  0  0  3  0  0  0  0  0  0
  189.3880  176.8270  136.2300 C   0  0  2  0  0  3  0  0  0  0  0  0
  188.6460  176.1710  135.0820 C   0  0  0  0  0  2  0  0  0  0  0  0
  190.9630  176.0600  134.6060 O   0  0  0  0  0  1  0  0  0  0  0  0
  1 10  1  0  0  0  0
  2 27  1  0  0  0  0
  3  4  1  0  0  0  0
  4 21  2  0  0  0  0
  5  6  1  0  0  0  0
  6 18  2  0  0  0  0
  6 28  1  0  0  0  0
  7 24  1  0  0  0  0
  8 12  2  0  0  0  0
  9 26  1  0  0  0  0
 10 17  1  0  0  0  0
 11 13  1  0  0  0  0
 11  3  2  0  0  0  0
 12  2  1  0  0  0  0
 12 13  1  0  0  0  0
 13 22  2  0  0  0  0
 14 23  2  0  0  0  0
 15  9  1  0  0  0  0
 16 19  1  0  0  0  0
 17  7  2  0  0  0  0
 17  8  1  0  0  0  0
 18 15  1  0  0  0  0
 19  7  1  0  0  0  0
 20  1  1  1  0  0  0
 20 16  1  0  0  0  0
 22 14  1  0  0  0  0
 22 21  1  0  0  0  0
 23 28  1  0  0  0  0
 24  2  2  0  0  0  0
 25  5  1  0  0  0  0
 27  5  2  0  0  0  0
 27 14  1  0  0  0  0
 28  9  2  0  0  0  0
 29 32  1  1  0  0  0
 29 31  1  0  0  0  0
 29 30  1  0  0  0  0
 30 31  1  6  0  0  0
 30 20  1  0  0  0  0
M  END
>  <MODEL>
1

>  <REMARK>
 VINA RESULT:     -11.4      0.000      0.000
  Name = 
  1 active torsions:
  status: ('A' for Active; 'I' for Inactive)
    1  A    between atoms: C_10  and  N_24
                            x       y       z     vdW  Elec       q    Type
                         _______ _______ _______ _____ _____    ______ ____

>  <TORSDO>
F 1

$$$$
=
 OpenBabel10262421223D

 32 38  0  0  1  0  0  0  0  0999 V2000
  188.5240  176.7400  137.3080 C   0  0  0  0  0  2  0  0  0  0  0  0
  188.1860  177.5370  142.4140 C   0  0  0  0  0  0  0  0  0  0  0  0
  183.5350  178.9400  142.8010 C   0  0  0  0  0  3  0  0  0  0  0  0
  183.6590  178.9650  144.1910 C   0  0  0  0  0  3  0  0  0  0  0  0
  189.7070  177.3700  144.4720 C   0  0  0  0  0  0  0  0  0  0  0  0
  189.6590  177.3910  145.9710 C   0  0  0  0  0  0  0  0  0  0  0  0
  189.1780  177.2820  140.2100 C   0  0  0  0  0  0  0  0  0  0  0  0
  186.8920  177.9570  140.4360 N   0  0  0  0  0  0  0  0  0  0  0  0
  188.9260  177.6700  147.9880 C   0  0  0  0  0  0  0  0  0  0  0  0
  187.7550  177.7920  138.1270 C   0  0  0  0  0  2  0  0  0  0  0  0
  184.6340  178.5960  142.0120 C   0  0  0  0  0  3  0  0  0  0  0  0
  186.9770  177.9290  141.8080 C   0  0  0  0  0  0  0  0  0  0  0  0
  185.8590  178.2410  142.5970 C   0  0  0  0  0  0  0  0  0  0  0  0
  187.1910  177.9260  144.6270 C   0  0  0  0  0  0  0  0  0  0  0  0
  190.1870  177.2790  148.0250 O   0  0  0  0  0  0  0  0  0  0  0  0
  190.5310  177.8300  138.1520 C   0  0  0  0  0  2  0  0  0  0  0  0
  187.9380  177.6290  139.6230 C   0  0  0  0  0  0  0  0  0  0  0  0
  190.6670  177.1120  146.8220 N   0  0  0  0  0  0  0  0  0  0  0  0
  190.4380  177.0070  139.4440 C   0  0  0  0  0  2  0  0  0  0  0  0
  189.9190  177.1260  137.0060 N   0  0  1  0  0  0  0  0  0  0  0  0
  184.8680  178.6210  144.7900 C   0  0  0  0  0  3  0  0  0  0  0  0
  185.9710  178.2440  144.0130 C   0  0  0  0  0  0  0  0  0  0  0  0
  187.3200  178.0730  146.0600 N   0  0  0  0  0  0  0  0  0  0  0  0
  189.2720  177.2190  141.5970 C   0  0  0  0  0  3  0  0  0  0  0  0
  190.6590  178.4770  143.9940 C   0  0  0  0  0  1  0  0  0  0  0  0
  188.0840  177.9540  149.1770 C   0  0  0  0  0  1  0  0  0  0  0  0
  188.3180  177.5530  143.8300 C   0  0  0  0  0  0  0  0  0  0  0  0
  188.5630  177.7590  146.6710 C   0  0  0  0  0  0  0  0  0  0  0  0
  192.0560  176.0410  136.2770 C   0  0  2  0  0  3  0  0  0  0  0  0
  190.6060  175.8560  136.7150 C   0  0  2  0  0  3  0  0  0  0  0  0
  190.9700  175.7350  135.2480 C   0  0  0  0  0  2  0  0  0  0  0  0
  192.7710  174.8680  136.5160 O   0  0  0  0  0  1  0  0  0  0  0  0
  1 10  1  0  0  0  0
  2 27  1  0  0  0  0
  3  4  1  0  0  0  0
  4 21  2  0  0  0  0
  5  6  1  0  0  0  0
  6 28  1  0  0  0  0
  6 18  2  0  0  0  0
  7 24  1  0  0  0  0
  8 12  2  0  0  0  0
  9 15  1  0  0  0  0
  9 26  1  0  0  0  0
 10 17  1  0  0  0  0
 11 13  1  0  0  0  0
 11  3  2  0  0  0  0
 12  2  1  0  0  0  0
 12 13  1  0  0  0  0
 13 22  2  0  0  0  0
 14 23  2  0  0  0  0
 16 19  1  0  0  0  0
 17  7  2  0  0  0  0
 17  8  1  0  0  0  0
 18 15  1  0  0  0  0
 19  7  1  0  0  0  0
 20  1  1  1  0  0  0
 20 16  1  0  0  0  0
 22 14  1  0  0  0  0
 22 21  1  0  0  0  0
 23 28  1  0  0  0  0
 24  2  2  0  0  0  0
 25  5  1  0  0  0  0
 27  5  2  0  0  0  0
 27 14  1  0  0  0  0
 28  9  2  0  0  0  0
 29 32  1  1  0  0  0
 29 30  1  0  0  0  0
 30 31  1  6  0  0  0
 30 20  1  0  0  0  0
 31 29  1  0  0  0  0
M  END
>  <MODEL>
2

>  <REMARK>
 VINA RESULT:     -10.6      1.105      1.169
  Name = 
  1 active torsions:
  status: ('A' for Active; 'I' for Inactive)
    1  A    between atoms: C_10  and  N_24
                            x       y       z     vdW  Elec       q    Type
                         _______ _______ _______ _____ _____    ______ ____

>  <TORSDO>
F 1

$$$$
=
 OpenBabel10262421223D

 32 38  0  0  1  0  0  0  0  0999 V2000
  183.4280  179.7730  139.0940 C   0  0  0  0  0  2  0  0  0  0  0  0
  187.0310  178.2430  142.4850 C   0  0  0  0  0  0  0  0  0  0  0  0
  190.8160  177.5030  139.5050 C   0  0  0  0  0  3  0  0  0  0  0  0
  191.6310  177.2420  140.6070 C   0  0  0  0  0  3  0  0  0  0  0  0
  187.2250  177.8570  145.0130 C   0  0  0  0  0  0  0  0  0  0  0  0
  188.2420  177.6080  146.0870 C   0  0  0  0  0  0  0  0  0  0  0  0
  184.8370  178.6910  141.5410 C   0  0  0  0  0  0  0  0  0  0  0  0
  186.7200  178.3350  140.1070 N   0  0  0  0  0  0  0  0  0  0  0  0
  190.1180  177.1280  147.0520 C   0  0  0  0  0  0  0  0  0  0  0  0
  184.5560  178.7310  138.9830 C   0  0  0  0  0  2  0  0  0  0  0  0
  189.4650  177.7990  139.6960 C   0  0  0  0  0  3  0  0  0  0  0  0
  187.5530  178.1340  141.1820 C   0  0  0  0  0  0  0  0  0  0  0  0
  188.9180  177.8720  140.9860 C   0  0  0  0  0  0  0  0  0  0  0  0
  189.2340  177.6630  143.4050 C   0  0  0  0  0  0  0  0  0  0  0  0
  189.1850  177.3160  147.9670 O   0  0  0  0  0  0  0  0  0  0  0  0
  182.4730  178.2780  140.7620 C   0  0  0  0  0  2  0  0  0  0  0  0
  185.3940  178.6280  140.2410 C   0  0  0  0  0  0  0  0  0  0  0  0
  188.0330  177.5970  147.4190 N   0  0  0  0  0  0  0  0  0  0  0  0
  183.3800  178.8920  141.8360 C   0  0  0  0  0  2  0  0  0  0  0  0
  182.1800  179.2360  139.6760 N   0  0  1  0  0  0  0  0  0  0  0  0
  191.1060  177.3030  141.8950 C   0  0  0  0  0  3  0  0  0  0  0  0
  189.7590  177.6300  142.1050 C   0  0  0  0  0  0  0  0  0  0  0  0
  190.0760  177.2750  144.5160 N   0  0  0  0  0  0  0  0  0  0  0  0
  185.6720  178.5210  142.6410 C   0  0  0  0  0  3  0  0  0  0  0  0
  186.2030  176.7090  145.0260 C   0  0  0  0  0  1  0  0  0  0  0  0
  191.5350  176.7890  147.3340 C   0  0  0  0  0  1  0  0  0  0  0  0
  187.8570  177.9850  143.6140 C   0  0  0  0  0  0  0  0  0  0  0  0
  189.5320  177.3010  145.8280 C   0  0  0  0  0  0  0  0  0  0  0  0
  180.0760  180.0920  140.7340 C   0  0  2  0  0  3  0  0  0  0  0  0
  181.4570  180.4200  140.1720 C   0  0  2  0  0  3  0  0  0  0  0  0
  180.2200  180.7130  139.3450 C   0  0  0  0  0  2  0  0  0  0  0  0
  179.6800  181.0950  141.6190 O   0  0  0  0  0  1  0  0  0  0  0  0
  2 24  1  0  0  0  0
  2 27  1  0  0  0  0
  3 11  2  0  0  0  0
  3  4  1  0  0  0  0
  4 21  2  0  0  0  0
  5 25  1  0  0  0  0
  5  6  1  0  0  0  0
  6 18  2  0  0  0  0
  7 19  1  0  0  0  0
  7 24  2  0  0  0  0
  8 17  2  0  0  0  0
  8 12  1  0  0  0  0
  9 26  1  0  0  0  0
  9 15  1  0  0  0  0
 10  1  1  0  0  0  0
 10 17  1  0  0  0  0
 11 13  1  0  0  0  0
 12  2  2  0  0  0  0
 13 12  1  0  0  0  0
 13 22  2  0  0  0  0
 14 27  1  0  0  0  0
 14 23  2  0  0  0  0
 16 19  1  0  0  0  0
 17  7  1  0  0  0  0
 18 15  1  0  0  0  0
 20  1  1  1  0  0  0
 20 30  1  0  0  0  0
 20 16  1  0  0  0  0
 21 22  1  0  0  0  0
 22 14  1  0  0  0  0
 23 28  1  0  0  0  0
 27  5  2  0  0  0  0
 28  6  1  0  0  0  0
 28  9  2  0  0  0  0
 29 32  1  1  0  0  0
 30 31  1  6  0  0  0
 30 29  1  0  0  0  0
 31 29  1  0  0  0  0
M  END
>  <MODEL>
3

>  <REMARK>
 VINA RESULT:      -9.8      3.203      5.970
  Name = 
  1 active torsions:
  status: ('A' for Active; 'I' for Inactive)
    1  A    between atoms: C_10  and  N_24
                            x       y       z     vdW  Elec       q    Type
                         _______ _______ _______ _____ _____    ______ ____

>  <TORSDO>
F 1

$$$$
=
 OpenBabel10262421223D

 32 38  0  0  1  0  0  0  0  0999 V2000
  191.4610  176.6620  144.4400 C   0  0  0  0  0  2  0  0  0  0  0  0
  186.7760  177.9970  142.6810 C   0  0  0  0  0  0  0  0  0  0  0  0
  187.6590  178.2910  137.8970 C   0  0  0  0  0  3  0  0  0  0  0  0
  186.3030  178.5210  137.6610 C   0  0  0  0  0  3  0  0  0  0  0  0
  184.4430  178.4590  143.6390 C   0  0  0  0  0  0  0  0  0  0  0  0
  183.0180  178.6580  143.2140 C   0  0  0  0  0  0  0  0  0  0  0  0
  188.6320  177.7080  144.2230 C   0  0  0  0  0  0  0  0  0  0  0  0
  189.0280  177.8430  141.8660 N   0  0  0  0  0  0  0  0  0  0  0  0
  181.2900  179.0070  141.9590 C   0  0  0  0  0  0  0  0  0  0  0  0
  191.0290  177.5970  143.2940 C   0  0  0  0  0  2  0  0  0  0  0  0
  188.1180  178.1210  139.2050 C   0  0  0  0  0  3  0  0  0  0  0  0
  187.6890  178.0110  141.6090 C   0  0  0  0  0  0  0  0  0  0  0  0
  187.2290  178.1450  140.2890 C   0  0  0  0  0  0  0  0  0  0  0  0
  184.9370  178.4160  141.1070 C   0  0  0  0  0  0  0  0  0  0  0  0
  180.9130  178.9360  143.2220 O   0  0  0  0  0  0  0  0  0  0  0  0
  190.4130  178.2960  145.9100 C   0  0  0  0  0  2  0  0  0  0  0  0
  189.5250  177.6730  143.1260 C   0  0  0  0  0  0  0  0  0  0  0  0
  181.9330  178.7370  144.0120 N   0  0  0  0  0  0  0  0  0  0  0  0
  189.0460  177.6460  145.6640 C   0  0  0  0  0  2  0  0  0  0  0  0
  191.5190  177.3270  145.7580 N   0  0  1  0  0  0  0  0  0  0  0  0
  185.4050  178.5540  138.7250 C   0  0  0  0  0  3  0  0  0  0  0  0
  185.8450  178.3540  140.0410 C   0  0  0  0  0  0  0  0  0  0  0  0
  183.5590  178.7700  140.8390 N   0  0  0  0  0  0  0  0  0  0  0  0
  187.2690  177.8450  143.9780 C   0  0  0  0  0  3  0  0  0  0  0  0
  184.8950  179.6910  144.4380 C   0  0  0  0  0  1  0  0  0  0  0  0
  180.3820  179.2320  140.8070 C   0  0  0  0  0  1  0  0  0  0  0  0
  185.3910  178.2240  142.4480 C   0  0  0  0  0  0  0  0  0  0  0  0
  182.6480  178.8410  141.9270 C   0  0  0  0  0  0  0  0  0  0  0  0
  192.7600  175.8760  147.3810 C   0  0  2  0  0  3  0  0  0  0  0  0
  191.4220  176.2310  146.7370 C   0  0  2  0  0  3  0  0  0  0  0  0
  192.1730  174.9970  146.2780 C   0  0  0  0  0  2  0  0  0  0  0  0
  192.5390  175.2450  148.6040 O   0  0  0  0  0  1  0  0  0  0  0  0
  2 24  1  0  0  0  0
  3 11  1  0  0  0  0
  4  3  2  0  0  0  0
  4 21  1  0  0  0  0
  5 25  1  0  0  0  0
  6  5  1  0  0  0  0
  6 18  2  0  0  0  0
  7 19  1  0  0  0  0
  8 17  2  0  0  0  0
  9 15  1  0  0  0  0
 10  1  1  0  0  0  0
 11 13  2  0  0  0  0
 12  8  1  0  0  0  0
 12  2  2  0  0  0  0
 13 12  1  0  0  0  0
 14 27  1  0  0  0  0
 15 18  1  0  0  0  0
 17 10  1  0  0  0  0
 17  7  1  0  0  0  0
 19 16  1  0  0  0  0
 20  1  1  6  0  0  0
 20 16  1  0  0  0  0
 20 30  1  0  0  0  0
 21 22  2  0  0  0  0
 22 13  1  0  0  0  0
 22 14  1  0  0  0  0
 23 14  2  0  0  0  0
 23 28  1  0  0  0  0
 24  7  2  0  0  0  0
 26  9  1  0  0  0  0
 27  2  1  0  0  0  0
 27  5  2  0  0  0  0
 28  9  2  0  0  0  0
 28  6  1  0  0  0  0
 29 32  1  1  0  0  0
 30 31  1  6  0  0  0
 30 29  1  0  0  0  0
 31 29  1  0  0  0  0
M  END
>  <MODEL>
4

>  <REMARK>
 VINA RESULT:      -9.6      3.188      7.593
  Name = 
  1 active torsions:
  status: ('A' for Active; 'I' for Inactive)
    1  A    between atoms: C_10  and  N_24
                            x       y       z     vdW  Elec       q    Type
                         _______ _______ _______ _____ _____    ______ ____

>  <TORSDO>
F 1

$$$$
=
 OpenBabel10262421223D

 32 38  0  0  1  0  0  0  0  0999 V2000
  183.1200  178.1910  145.3520 C   0  0  0  0  0  2  0  0  0  0  0  0
  187.7220  177.6120  143.0480 C   0  0  0  0  0  0  0  0  0  0  0  0
  190.5980  176.9710  146.9300 C   0  0  0  0  0  3  0  0  0  0  0  0
  191.6820  176.7250  146.0860 C   0  0  0  0  0  3  0  0  0  0  0  0
  188.6690  177.5870  140.6650 C   0  0  0  0  0  0  0  0  0  0  0  0
  189.9140  177.2470  139.9010 C   0  0  0  0  0  0  0  0  0  0  0  0
  185.4050  178.2710  143.3740 C   0  0  0  0  0  0  0  0  0  0  0  0
  186.8420  177.9340  145.2580 N   0  0  0  0  0  0  0  0  0  0  0  0
  191.9760  176.7530  139.4710 C   0  0  0  0  0  0  0  0  0  0  0  0
  184.5320  178.6470  145.7650 C   0  0  0  0  0  2  0  0  0  0  0  0
  189.3480  177.2700  146.3860 C   0  0  0  0  0  3  0  0  0  0  0  0
  187.9080  177.6310  144.4440 C   0  0  0  0  0  0  0  0  0  0  0  0
  189.1530  177.2950  144.9970 C   0  0  0  0  0  0  0  0  0  0  0  0
  190.1000  177.0710  142.7500 C   0  0  0  0  0  0  0  0  0  0  0  0
  191.3080  176.8850  138.3400 O   0  0  0  0  0  0  0  0  0  0  0  0
  183.3680  179.7530  143.5000 C   0  0  0  0  0  2  0  0  0  0  0  0
  185.6010  178.2330  144.7740 C   0  0  0  0  0  0  0  0  0  0  0  0
  190.0590  177.1960  138.5610 N   0  0  0  0  0  0  0  0  0  0  0  0
  184.1310  178.6890  142.7010 C   0  0  0  0  0  2  0  0  0  0  0  0
  182.4250  179.1460  144.4630 N   0  0  1  0  0  0  0  0  0  0  0  0
  191.5110  176.7520  144.7040 C   0  0  0  0  0  3  0  0  0  0  0  0
  190.2550  177.0210  144.1430 C   0  0  0  0  0  0  0  0  0  0  0  0
  191.2660  176.9270  141.9050 N   0  0  0  0  0  0  0  0  0  0  0  0
  186.4650  177.9360  142.5350 C   0  0  0  0  0  3  0  0  0  0  0  0
  188.3060  179.0540  140.3880 C   0  0  0  0  0  1  0  0  0  0  0  0
  193.4160  176.4100  139.5770 C   0  0  0  0  0  1  0  0  0  0  0  0
  188.8200  177.3570  142.1810 C   0  0  0  0  0  0  0  0  0  0  0  0
  191.1000  176.9910  140.4950 C   0  0  0  0  0  0  0  0  0  0  0  0
  180.4210  179.1860  142.9590 C   0  0  2  0  0  3  0  0  0  0  0  0
  181.3910  178.3460  143.7850 C   0  0  2  0  0  3  0  0  0  0  0  0
  180.0050  178.6410  144.3240 C   0  0  0  0  0  2  0  0  0  0  0  0
  179.8330  178.3920  141.9760 O   0  0  0  0  0  1  0  0  0  0  0  0
  1 10  1  0  0  0  0
  2 12  1  0  0  0  0
  4  3  2  0  0  0  0
  5 27  2  0  0  0  0
  6 28  1  0  0  0  0
  6  5  1  0  0  0  0
  7 17  2  0  0  0  0
  9 26  1  0  0  0  0
  9 28  2  0  0  0  0
 11  3  1  0  0  0  0
 12 13  1  0  0  0  0
 12  8  2  0  0  0  0
 13 11  2  0  0  0  0
 14 22  1  0  0  0  0
 15 18  1  0  0  0  0
 15  9  1  0  0  0  0
 17  8  1  0  0  0  0
 17 10  1  0  0  0  0
 18  6  2  0  0  0  0
 19  7  1  0  0  0  0
 19 16  1  0  0  0  0
 20 16  1  6  0  0  0
 20  1  1  0  0  0  0
 21  4  1  0  0  0  0
 22 21  2  0  0  0  0
 22 13  1  0  0  0  0
 23 14  2  0  0  0  0
 24  2  2  0  0  0  0
 24  7  1  0  0  0  0
 25  5  1  0  0  0  0
 27 14  1  0  0  0  0
 27  2  1  0  0  0  0
 28 23  1  0  0  0  0
 29 32  1  6  0  0  0
 29 30  1  0  0  0  0
 29 31  1  0  0  0  0
 30 31  1  1  0  0  0
 30 20  1  0  0  0  0
M  END
>  <MODEL>
5

>  <REMARK>
 VINA RESULT:      -9.5      2.990      7.680
  Name = 
  1 active torsions:
  status: ('A' for Active; 'I' for Inactive)
    1  A    between atoms: C_10  and  N_24
                            x       y       z     vdW  Elec       q    Type
                         _______ _______ _______ _____ _____    ______ ____

>  <TORSDO>
F 1

$$$$
=
 OpenBabel10262421223D

 32 38  0  0  1  0  0  0  0  0999 V2000
  185.8910  177.9850  137.8580 C   0  0  0  0  0  2  0  0  0  0  0  0
  187.8590  177.8140  142.6460 C   0  0  0  0  0  0  0  0  0  0  0  0
  183.8950  178.8460  145.2870 C   0  0  0  0  0  3  0  0  0  0  0  0
  184.6190  178.6250  146.4590 C   0  0  0  0  0  3  0  0  0  0  0  0
  190.1250  177.3650  143.7580 C   0  0  0  0  0  0  0  0  0  0  0  0
  190.7430  177.1090  145.1010 C   0  0  0  0  0  0  0  0  0  0  0  0
  187.7710  178.0250  140.2260 C   0  0  0  0  0  0  0  0  0  0  0  0
  185.8390  178.5120  141.5530 N   0  0  0  0  0  0  0  0  0  0  0  0
  190.9820  176.9710  147.2470 C   0  0  0  0  0  0  0  0  0  0  0  0
  185.5910  178.8230  139.1150 C   0  0  0  0  0  2  0  0  0  0  0  0
  184.5240  178.7180  144.0470 C   0  0  0  0  0  3  0  0  0  0  0  0
  186.5180  178.2390  142.7170 C   0  0  0  0  0  0  0  0  0  0  0  0
  185.8710  178.3350  143.9580 C   0  0  0  0  0  0  0  0  0  0  0  0
  187.9520  177.7340  145.1000 C   0  0  0  0  0  0  0  0  0  0  0  0
  192.1180  176.6550  146.6540 O   0  0  0  0  0  0  0  0  0  0  0  0
  188.0940  179.0190  137.9300 C   0  0  0  0  0  2  0  0  0  0  0  0
  186.4090  178.4000  140.3180 C   0  0  0  0  0  0  0  0  0  0  0  0
  192.0150  176.7390  145.3550 N   0  0  0  0  0  0  0  0  0  0  0  0
  188.5570  177.9700  138.9490 C   0  0  0  0  0  2  0  0  0  0  0  0
  187.0200  178.5010  137.0570 N   0  0  1  0  0  0  0  0  0  0  0  0
  185.9580  178.2500  146.3920 C   0  0  0  0  0  3  0  0  0  0  0  0
  186.5960  178.0860  145.1550 C   0  0  0  0  0  0  0  0  0  0  0  0
  188.7030  177.6240  146.3320 N   0  0  0  0  0  0  0  0  0  0  0  0
  188.4650  177.7160  141.3920 C   0  0  0  0  0  3  0  0  0  0  0  0
  190.8000  178.5950  143.1320 C   0  0  0  0  0  1  0  0  0  0  0  0
  190.7580  176.9830  148.7140 C   0  0  0  0  0  1  0  0  0  0  0  0
  188.6020  177.5800  143.8360 C   0  0  0  0  0  0  0  0  0  0  0  0
  190.0790  177.2780  146.2650 C   0  0  0  0  0  0  0  0  0  0  0  0
  186.3250  176.5060  135.7090 C   0  0  2  0  0  3  0  0  0  0  0  0
  187.4730  177.3490  136.2590 C   0  0  2  0  0  3  0  0  0  0  0  0
  187.1230  176.0310  136.9220 C   0  0  0  0  0  2  0  0  0  0  0  0
  186.7600  175.7900  134.5950 O   0  0  0  0  0  1  0  0  0  0  0  0
  1 10  1  0  0  0  0
  2 12  1  0  0  0  0
  2 27  1  0  0  0  0
  3  4  1  0  0  0  0
  5 27  2  0  0  0  0
  5  6  1  0  0  0  0
  6 18  2  0  0  0  0
  6 28  1  0  0  0  0
  7 17  2  0  0  0  0
  7 24  1  0  0  0  0
  8 12  2  0  0  0  0
  9 26  1  0  0  0  0
 10 17  1  0  0  0  0
 11  3  2  0  0  0  0
 12 13  1  0  0  0  0
 13 11  1  0  0  0  0
 13 22  2  0  0  0  0
 14 22  1  0  0  0  0
 14 23  2  0  0  0  0
 15  9  1  0  0  0  0
 16 19  1  0  0  0  0
 17  8  1  0  0  0  0
 18 15  1  0  0  0  0
 19  7  1  0  0  0  0
 20  1  1  1  0  0  0
 20 16  1  0  0  0  0
 21  4  2  0  0  0  0
 22 21  1  0  0  0  0
 24  2  2  0  0  0  0
 25  5  1  0  0  0  0
 27 14  1  0  0  0  0
 28 23  1  0  0  0  0
 28  9  2  0  0  0  0
 29 32  1  6  0  0  0
 29 30  1  0  0  0  0
 29 31  1  0  0  0  0
 30 31  1  1  0  0  0
 30 20  1  0  0  0  0
M  END
>  <MODEL>
6

>  <REMARK>
 VINA RESULT:      -9.3      1.595      1.840
  Name = 
  1 active torsions:
  status: ('A' for Active; 'I' for Inactive)
    1  A    between atoms: C_10  and  N_24
                            x       y       z     vdW  Elec       q    Type
                         _______ _______ _______ _____ _____    ______ ____

>  <TORSDO>
F 1

$$$$
=
 OpenBabel10262421223D

 32 38  0  0  1  0  0  0  0  0999 V2000
  191.5790  176.2780  137.3250 C   0  0  0  0  0  2  0  0  0  0  0  0
  188.6200  177.4630  141.4080 C   0  0  0  0  0  0  0  0  0  0  0  0
  184.5860  179.0350  139.1710 C   0  0  0  0  0  3  0  0  0  0  0  0
  183.9500  179.1590  140.4060 C   0  0  0  0  0  3  0  0  0  0  0  0
  188.7920  177.4030  143.9650 C   0  0  0  0  0  0  0  0  0  0  0  0
  187.9530  177.5370  145.2010 C   0  0  0  0  0  0  0  0  0  0  0  0
  190.6160  177.0140  140.0960 C   0  0  0  0  0  0  0  0  0  0  0  0
  188.6130  177.7750  139.0280 N   0  0  0  0  0  0  0  0  0  0  0  0
  186.2770  177.9870  146.4940 C   0  0  0  0  0  0  0  0  0  0  0  0
  190.5620  177.4120  137.5540 C   0  0  0  0  0  2  0  0  0  0  0  0
  185.9110  178.5990  139.1120 C   0  0  0  0  0  3  0  0  0  0  0  0
  187.9510  177.8470  140.2300 C   0  0  0  0  0  0  0  0  0  0  0  0
  186.6070  178.2510  140.2790 C   0  0  0  0  0  0  0  0  0  0  0  0
  186.6260  178.0470  142.7190 C   0  0  0  0  0  0  0  0  0  0  0  0
  187.2940  177.5610  147.2200 O   0  0  0  0  0  0  0  0  0  0  0  0
  192.8920  177.3650  139.0640 C   0  0  0  0  0  2  0  0  0  0  0  0
  189.9080  177.3550  138.9190 C   0  0  0  0  0  0  0  0  0  0  0  0
  188.3300  177.2900  146.4730 N   0  0  0  0  0  0  0  0  0  0  0  0
  192.0690  176.6440  140.1400 C   0  0  0  0  0  2  0  0  0  0  0  0
  192.9410  176.5970  137.8020 N   0  0  1  0  0  0  0  0  0  0  0  0
  184.6260  178.8240  141.5770 C   0  0  0  0  0  3  0  0  0  0  0  0
  185.9460  178.3560  141.5330 C   0  0  0  0  0  0  0  0  0  0  0  0
  185.9780  178.2960  143.9890 N   0  0  0  0  0  0  0  0  0  0  0  0
  189.9510  177.0510  141.3170 C   0  0  0  0  0  3  0  0  0  0  0  0
  189.9230  178.4410  144.0230 C   0  0  0  0  0  1  0  0  0  0  0  0
  184.9510  178.3850  147.0300 C   0  0  0  0  0  1  0  0  0  0  0  0
  187.9770  177.5800  142.6710 C   0  0  0  0  0  0  0  0  0  0  0  0
  186.6800  177.9900  145.1860 C   0  0  0  0  0  0  0  0  0  0  0  0
  194.0760  174.6670  136.6770 C   0  0  2  0  0  3  0  0  0  0  0  0
  193.5920  175.2890  137.9840 C   0  0  2  0  0  3  0  0  0  0  0  0
  192.7950  174.1680  137.3440 C   0  0  0  0  0  2  0  0  0  0  0  0
  195.0900  173.7480  136.9420 O   0  0  0  0  0  1  0  0  0  0  0  0
  1 10  1  0  0  0  0
  2 27  1  0  0  0  0
  3  4  1  0  0  0  0
  4 21  2  0  0  0  0
  5 25  1  0  0  0  0
  5  6  1  0  0  0  0
  6 18  2  0  0  0  0
  7 19  1  0  0  0  0
  7 24  2  0  0  0  0
  8 12  1  0  0  0  0
  9 26  1  0  0  0  0
  9 15  1  0  0  0  0
 10 17  1  0  0  0  0
 11  3  2  0  0  0  0
 11 13  1  0  0  0  0
 12 13  1  0  0  0  0
 12  2  2  0  0  0  0
 13 22  2  0  0  0  0
 14 23  2  0  0  0  0
 16 19  1  0  0  0  0
 17  8  2  0  0  0  0
 17  7  1  0  0  0  0
 18 15  1  0  0  0  0
 20  1  1  1  0  0  0
 20 30  1  0  0  0  0
 20 16  1  0  0  0  0
 22 21  1  0  0  0  0
 22 14  1  0  0  0  0
 23 28  1  0  0  0  0
 24  2  1  0  0  0  0
 27 14  1  0  0  0  0
 27  5  2  0  0  0  0
 28  6  1  0  0  0  0
 28  9  2  0  0  0  0
 29 32  1  1  0  0  0
 29 31  1  0  0  0  0
 29 30  1  0  0  0  0
 30 31  1  6  0  0  0
M  END
>  <MODEL>
7

>  <REMARK>
 VINA RESULT:      -9.1      2.506      3.340
  Name = 
  1 active torsions:
  status: ('A' for Active; 'I' for Inactive)
    1  A    between atoms: C_10  and  N_24
                            x       y       z     vdW  Elec       q    Type
                         _______ _______ _______ _____ _____    ______ ____

>  <TORSDO>
F 1

$$$$
=
 OpenBabel10262421223D

 32 38  0  0  1  0  0  0  0  0999 V2000
  180.6020  178.7190  141.7880 C   0  0  0  0  0  2  0  0  0  0  0  0
  185.6050  177.9230  142.8620 C   0  0  0  0  0  0  0  0  0  0  0  0
  185.6130  178.6250  147.6850 C   0  0  0  0  0  3  0  0  0  0  0  0
  186.9560  178.2500  147.7370 C   0  0  0  0  0  3  0  0  0  0  0  0
  187.7530  177.3240  141.5960 C   0  0  0  0  0  0  0  0  0  0  0  0
  189.1710  176.8940  141.8290 C   0  0  0  0  0  0  0  0  0  0  0  0
  183.6060  178.4450  141.5820 C   0  0  0  0  0  0  0  0  0  0  0  0
  183.6400  178.7650  143.9550 N   0  0  0  0  0  0  0  0  0  0  0  0
  191.0410  176.4790  142.8360 C   0  0  0  0  0  0  0  0  0  0  0  0
  181.5460  179.3890  142.8020 C   0  0  0  0  0  2  0  0  0  0  0  0
  184.9470  178.6540  146.4590 C   0  0  0  0  0  3  0  0  0  0  0  0
  184.9460  178.3420  144.0340 C   0  0  0  0  0  0  0  0  0  0  0  0
  185.5990  178.2790  145.2750 C   0  0  0  0  0  0  0  0  0  0  0  0
  187.6490  177.5270  144.1670 C   0  0  0  0  0  0  0  0  0  0  0  0
  191.1700  176.2370  141.5440 O   0  0  0  0  0  0  0  0  0  0  0  0
  182.0270  179.7250  140.0880 C   0  0  0  0  0  2  0  0  0  0  0  0
  182.9470  178.8120  142.7800 C   0  0  0  0  0  0  0  0  0  0  0  0
  190.0620  176.4880  140.9010 N   0  0  0  0  0  0  0  0  0  0  0  0
  183.0070  178.5510  140.2110 C   0  0  0  0  0  2  0  0  0  0  0  0
  180.6470  179.3290  140.4420 N   0  0  1  0  0  0  0  0  0  0  0  0
  187.6240  177.8810  146.5720 C   0  0  0  0  0  3  0  0  0  0  0  0
  186.9600  177.8750  145.3370 C   0  0  0  0  0  0  0  0  0  0  0  0
  189.0690  177.2550  144.2380 N   0  0  0  0  0  0  0  0  0  0  0  0
  184.9180  177.9840  141.6490 C   0  0  0  0  0  3  0  0  0  0  0  0
  187.7600  178.6210  140.7730 C   0  0  0  0  0  1  0  0  0  0  0  0
  192.1100  176.3030  143.8490 C   0  0  0  0  0  1  0  0  0  0  0  0
  186.9730  177.5340  142.9080 C   0  0  0  0  0  0  0  0  0  0  0  0
  189.7600  176.9140  143.0450 C   0  0  0  0  0  0  0  0  0  0  0  0
  180.2890  178.6350  138.0610 C   0  0  2  0  0  3  0  0  0  0  0  0
  180.1290  178.2870  139.5390 C   0  0  2  0  0  3  0  0  0  0  0  0
  178.9310  178.7710  138.7470 C   0  0  0  0  0  2  0  0  0  0  0  0
  180.2760  177.4670  137.3010 O   0  0  0  0  0  1  0  0  0  0  0  0
  1 10  1  0  0  0  0
  2 27  1  0  0  0  0
  2 12  1  0  0  0  0
  3  4  1  0  0  0  0
  5  6  1  0  0  0  0
  5 27  2  0  0  0  0
  6 28  1  0  0  0  0
  7 24  1  0  0  0  0
  7 17  2  0  0  0  0
  8 12  2  0  0  0  0
  9 28  2  0  0  0  0
  9 26  1  0  0  0  0
 11  3  2  0  0  0  0
 12 13  1  0  0  0  0
 13 22  2  0  0  0  0
 13 11  1  0  0  0  0
 14 23  2  0  0  0  0
 14 22  1  0  0  0  0
 15  9  1  0  0  0  0
 16 19  1  0  0  0  0
 17 10  1  0  0  0  0
 17  8  1  0  0  0  0
 18 15  1  0  0  0  0
 18  6  2  0  0  0  0
 19  7  1  0  0  0  0
 20 16  1  6  0  0  0
 20  1  1  0  0  0  0
 21  4  2  0  0  0  0
 22 21  1  0  0  0  0
 24  2  2  0  0  0  0
 25  5  1  0  0  0  0
 27 14  1  0  0  0  0
 28 23  1  0  0  0  0
 29 32  1  6  0  0  0
 29 31  1  0  0  0  0
 29 30  1  0  0  0  0
 30 31  1  1  0  0  0
 30 20  1  0  0  0  0
M  END
>  <MODEL>
8

>  <REMARK>
 VINA RESULT:      -8.9      3.515      5.956
  Name = 
  1 active torsions:
  status: ('A' for Active; 'I' for Inactive)
    1  A    between atoms: C_10  and  N_24
                            x       y       z     vdW  Elec       q    Type
                         _______ _______ _______ _____ _____    ______ ____

>  <TORSDO>
F 1

$$$$
=
 OpenBabel10262421223D

 32 38  0  0  1  0  0  0  0  0999 V2000
  183.3000  178.6920  141.2040 C   0  0  0  0  0  2  0  0  0  0  0  0
  188.1240  177.6690  139.6210 C   0  0  0  0  0  0  0  0  0  0  0  0
  190.5370  177.9500  143.8460 C   0  0  0  0  0  3  0  0  0  0  0  0
  191.7060  177.5360  143.2050 C   0  0  0  0  0  3  0  0  0  0  0  0
  189.3320  177.1220  137.4260 C   0  0  0  0  0  0  0  0  0  0  0  0
  190.6510  176.6350  136.9030 C   0  0  0  0  0  0  0  0  0  0  0  0
  185.7940  178.3550  139.5280 C   0  0  0  0  0  0  0  0  0  0  0  0
  187.0060  178.4670  141.5890 N   0  0  0  0  0  0  0  0  0  0  0  0
  192.7420  176.0830  136.8290 C   0  0  0  0  0  0  0  0  0  0  0  0
  184.6620  179.2460  141.6600 C   0  0  0  0  0  2  0  0  0  0  0  0
  189.3600  178.1040  143.1110 C   0  0  0  0  0  3  0  0  0  0  0  0
  188.1520  178.0030  140.9890 C   0  0  0  0  0  0  0  0  0  0  0  0
  189.3230  177.8150  141.7390 C   0  0  0  0  0  0  0  0  0  0  0  0
  190.5130  177.1050  139.7210 C   0  0  0  0  0  0  0  0  0  0  0  0
  192.2060  175.9500  135.6300 O   0  0  0  0  0  0  0  0  0  0  0  0
  183.7750  179.8020  139.0890 C   0  0  0  0  0  2  0  0  0  0  0  0
  185.8310  178.6340  140.9150 C   0  0  0  0  0  0  0  0  0  0  0  0
  190.9440  176.2860  135.6330 N   0  0  0  0  0  0  0  0  0  0  0  0
  184.6090  178.5950  138.6400 C   0  0  0  0  0  2  0  0  0  0  0  0
  182.7220  179.4150  140.0510 N   0  0  1  0  0  0  0  0  0  0  0  0
  191.6910  177.2500  141.8430 C   0  0  0  0  0  3  0  0  0  0  0  0
  190.5100  177.3700  141.0980 C   0  0  0  0  0  0  0  0  0  0  0  0
  191.7640  176.7890  139.0660 N   0  0  0  0  0  0  0  0  0  0  0  0
  186.9360  177.8540  138.9110 C   0  0  0  0  0  3  0  0  0  0  0  0
  189.0220  178.4850  136.7890 C   0  0  0  0  0  1  0  0  0  0  0  0
  194.1560  175.7900  137.1710 C   0  0  0  0  0  1  0  0  0  0  0  0
  189.3090  177.2390  138.9620 C   0  0  0  0  0  0  0  0  0  0  0  0
  191.7590  176.5340  137.6690 C   0  0  0  0  0  0  0  0  0  0  0  0
  180.5700  178.1700  140.3660 C   0  0  2  0  0  3  0  0  0  0  0  0
  181.7610  178.4700  139.4580 C   0  0  2  0  0  3  0  0  0  0  0  0
  181.7090  177.1620  140.2240 C   0  0  0  0  0  2  0  0  0  0  0  0
  179.4960  177.7220  139.5980 O   0  0  0  0  0  1  0  0  0  0  0  0
  1 10  1  0  0  0  0
  2 12  1  0  0  0  0
  4  3  1  0  0  0  0
  5 27  2  0  0  0  0
  6  5  1  0  0  0  0
  6 28  1  0  0  0  0
  7 17  2  0  0  0  0
  9 26  1  0  0  0  0
  9 28  2  0  0  0  0
 11  3  2  0  0  0  0
 12  8  2  0  0  0  0
 12 13  1  0  0  0  0
 13 11  1  0  0  0  0
 14 22  1  0  0  0  0
 15 18  1  0  0  0  0
 15  9  1  0  0  0  0
 17  8  1  0  0  0  0
 17 10  1  0  0  0  0
 18  6  2  0  0  0  0
 19 16  1  0  0  0  0
 19  7  1  0  0  0  0
 20 16  1  6  0  0  0
 20  1  1  0  0  0  0
 21  4  2  0  0  0  0
 22 13  2  0  0  0  0
 22 21  1  0  0  0  0
 23 14  2  0  0  0  0
 24  7  1  0  0  0  0
 24  2  2  0  0  0  0
 25  5  1  0  0  0  0
 27  2  1  0  0  0  0
 27 14  1  0  0  0  0
 28 23  1  0  0  0  0
 29 32  1  6  0  0  0
 30 20  1  0  0  0  0
 30 31  1  1  0  0  0
 30 29  1  0  0  0  0
 31 29  1  0  0  0  0
M  END
>  <MODEL>
9

>  <REMARK>
 VINA RESULT:      -8.4      3.370      7.662
  Name = 
  1 active torsions:
  status: ('A' for Active; 'I' for Inactive)
    1  A    between atoms: C_10  and  N_24
                            x       y       z     vdW  Elec       q    Type
                         _______ _______ _______ _____ _____    ______ ____

>  <TORSDO>
F 1

$$$$
