=
 OpenBabel10262419463D

 25 27  0  0  1  0  0  0  0  0999 V2000
  186.6290  177.9760  146.4430 C   0  0  1  0  0  3  0  0  0  0  0  0
  187.8960  177.1660  146.1270 C   0  0  1  0  0  3  0  0  0  0  0  0
  188.0770  179.0560  148.2600 C   0  0  0  0  0  2  0  0  0  0  0  0
  188.2890  177.5910  148.6350 C   0  0  0  0  0  2  0  0  0  0  0  0
  190.1040  176.7570  146.9720 C   0  0  0  0  0  0  0  0  0  0  0  0
  190.5920  175.3260  146.8510 C   0  0  0  0  0  1  0  0  0  0  0  0
  188.7770  177.9020  145.3190 O   0  0  0  0  0  0  0  0  0  0  0  0
  186.9050  179.2290  147.2870 C   0  0  0  0  0  2  0  0  0  0  0  0
  191.0290  177.4900  147.9470 C   0  0  0  0  0  1  0  0  0  0  0  0
  190.0520  177.3680  145.5680 C   0  0  1  0  0  3  0  0  0  0  0  0
  188.6420  176.7360  147.3950 C   0  0  2  0  0  3  0  0  0  0  0  0
  185.8050  178.2810  145.2250 C   0  0  0  0  0  0  0  0  0  0  0  0
  183.9830  178.3930  143.0190 C   0  0  0  0  0  2  0  0  0  0  0  0
  184.5580  179.1410  145.3350 C   0  0  1  0  0  3  0  0  0  0  0  0
  184.0120  179.5770  143.9750 C   0  0  0  0  0  2  0  0  0  0  0  0
  185.4110  177.9200  142.7790 C   0  0  0  0  0  2  0  0  0  0  0  0
  183.5750  178.4570  146.0270 F   0  0  0  0  0  0  0  0  0  0  0  0
  186.1390  177.6730  144.0740 C   0  0  0  0  0  3  0  0  0  0  0  0
  191.3790  178.5580  145.1270 S   0  0  0  0  0  0  0  0  0  0  0  0
  190.7950  178.8200  143.4200 C   0  0  0  0  0  2  0  0  0  0  0  0
  191.3250  177.7320  142.5030 C   0  0  1  0  0  3  0  0  0  0  0  0
  191.9250  176.7340  143.2680 O   0  0  0  0  0  1  0  0  0  0  0  0
  190.2180  177.1450  141.6940 C   0  0  0  0  0  0  0  0  0  0  0  0
  190.5000  176.3360  140.5990 O   0  0  0  0  0  0  0  0  0  0  0  0
  189.0220  177.3750  142.0100 O   0  0  0  0  0  1  0  0  0  0  0  0
  1 12  1  6  0  0  0
  1  8  1  0  0  0  0
  2  7  1  6  0  0  0
  2  1  1  0  0  0  0
  2 11  1  0  0  0  0
  3  4  1  0  0  0  0
  5 11  1  0  0  0  0
  5  9  1  0  0  0  0
  6  5  1  0  0  0  0
  7 10  1  0  0  0  0
  8  3  1  0  0  0  0
 10 19  1  1  0  0  0
 10  5  1  0  0  0  0
 11  4  1  1  0  0  0
 12 14  1  0  0  0  0
 13 15  1  0  0  0  0
 14 17  1  6  0  0  0
 15 14  1  0  0  0  0
 16 13  1  0  0  0  0
 16 18  1  0  0  0  0
 18 12  2  0  0  0  0
 20 19  1  0  0  0  0
 21 22  1  1  0  0  0
 21 20  1  0  0  0  0
 23 25  1  0  0  0  0
 23 21  1  0  0  0  0
 24 23  2  0  0  0  0
M  END
>  <MODEL>
1

>  <REMARK>
 VINA RESULT:      -6.6      0.000      0.000
  Name = 
  5 active torsions:
  status: ('A' for Active; 'I' for Inactive)
    1  A    between atoms: C_1  and  C_5
    2  A    between atoms: C_2  and  C_21
    3  A    between atoms: S_6  and  C_15
    4  A    between atoms: S_6  and  C_23
    5  A    between atoms: C_15  and  C_21
                            x       y       z     vdW  Elec       q    Type
                         _______ _______ _______ _____ _____    ______ ____

>  <TORSDO>
F 5

$$$$
=
 OpenBabel10262419463D

 25 27  0  0  1  0  0  0  0  0999 V2000
  184.2580  178.3270  144.0130 C   0  0  1  0  0  3  0  0  0  0  0  0
  185.4320  177.5630  143.3830 C   0  0  1  0  0  3  0  0  0  0  0  0
  186.0770  179.4610  145.4170 C   0  0  0  0  0  2  0  0  0  0  0  0
  186.4270  178.0050  145.7150 C   0  0  0  0  0  2  0  0  0  0  0  0
  187.7950  177.2350  143.6430 C   0  0  0  0  0  0  0  0  0  0  0  0
  188.2860  175.8230  143.3920 C   0  0  0  0  0  1  0  0  0  0  0  0
  186.0560  178.3300  142.3850 O   0  0  0  0  0  0  0  0  0  0  0  0
  184.6930  179.5910  144.7700 C   0  0  0  0  0  2  0  0  0  0  0  0
  188.9090  178.0020  144.3610 C   0  0  0  0  0  1  0  0  0  0  0  0
  187.3710  177.8430  142.3020 C   0  0  1  0  0  3  0  0  0  0  0  0
  186.4880  177.1620  144.4190 C   0  0  2  0  0  3  0  0  0  0  0  0
  183.1440  178.6010  143.0430 C   0  0  0  0  0  0  0  0  0  0  0  0
  180.9030  178.5960  141.2610 C   0  0  0  0  0  2  0  0  0  0  0  0
  181.8020  179.1110  143.5370 C   0  0  1  0  0  3  0  0  0  0  0  0
  180.8950  179.5990  142.4060 C   0  0  0  0  0  2  0  0  0  0  0  0
  182.3110  178.5210  140.6830 C   0  0  0  0  0  2  0  0  0  0  0  0
  181.1540  178.1170  144.2490 F   0  0  0  0  0  0  0  0  0  0  0  0
  183.3380  178.2670  141.7560 C   0  0  0  0  0  3  0  0  0  0  0  0
  188.5020  179.0780  141.5520 S   0  0  0  0  0  0  0  0  0  0  0  0
  189.2300  177.9170  140.3500 C   0  0  0  0  0  2  0  0  0  0  0  0
  188.3890  177.8610  139.0870 C   0  0  1  0  0  3  0  0  0  0  0  0
  187.2460  178.6410  139.2570 O   0  0  0  0  0  1  0  0  0  0  0  0
  189.1670  178.3630  137.9170 C   0  0  0  0  0  0  0  0  0  0  0  0
  190.0430  177.5210  137.2420 O   0  0  0  0  0  0  0  0  0  0  0  0
  189.0220  179.5520  137.5340 O   0  0  0  0  0  1  0  0  0  0  0  0
  1 12  1  6  0  0  0
  1  8  1  0  0  0  0
  2  7  1  6  0  0  0
  2  1  1  0  0  0  0
  2 11  1  0  0  0  0
  3  4  1  0  0  0  0
  5  9  1  0  0  0  0
  5 11  1  0  0  0  0
  6  5  1  0  0  0  0
  8  3  1  0  0  0  0
 10 19  1  1  0  0  0
 10  7  1  0  0  0  0
 10  5  1  0  0  0  0
 11  4  1  1  0  0  0
 12 14  1  0  0  0  0
 13 15  1  0  0  0  0
 14 17  1  6  0  0  0
 15 14  1  0  0  0  0
 16 13  1  0  0  0  0
 16 18  1  0  0  0  0
 18 12  2  0  0  0  0
 20 19  1  0  0  0  0
 21 22  1  1  0  0  0
 21 20  1  0  0  0  0
 23 21  1  0  0  0  0
 24 23  2  0  0  0  0
 25 23  1  0  0  0  0
M  END
>  <MODEL>
2

>  <REMARK>
 VINA RESULT:      -6.4      2.934      3.980
  Name = 
  5 active torsions:
  status: ('A' for Active; 'I' for Inactive)
    1  A    between atoms: C_1  and  C_5
    2  A    between atoms: C_2  and  C_21
    3  A    between atoms: S_6  and  C_15
    4  A    between atoms: S_6  and  C_23
    5  A    between atoms: C_15  and  C_21
                            x       y       z     vdW  Elec       q    Type
                         _______ _______ _______ _____ _____    ______ ____

>  <TORSDO>
F 5

$$$$
=
 OpenBabel10262419463D

 25 27  0  0  1  0  0  0  0  0999 V2000
  187.0290  177.5750  145.2820 C   0  0  1  0  0  3  0  0  0  0  0  0
  188.0540  176.9400  144.3300 C   0  0  1  0  0  3  0  0  0  0  0  0
  189.0860  178.2000  146.6760 C   0  0  0  0  0  2  0  0  0  0  0  0
  189.3400  176.7000  146.5460 C   0  0  0  0  0  2  0  0  0  0  0  0
  190.3930  176.4270  144.1850 C   0  0  0  0  0  0  0  0  0  0  0  0
  190.7290  175.1050  143.5220 C   0  0  0  0  0  1  0  0  0  0  0  0
  188.6250  177.9070  143.4860 O   0  0  0  0  0  0  0  0  0  0  0  0
  187.6550  178.5700  146.2710 C   0  0  0  0  0  2  0  0  0  0  0  0
  191.6430  176.9170  144.9200 C   0  0  0  0  0  1  0  0  0  0  0  0
  189.8750  177.3880  143.1090 C   0  0  1  0  0  3  0  0  0  0  0  0
  189.1800  176.2240  145.0820 C   0  0  2  0  0  3  0  0  0  0  0  0
  185.8410  178.1550  144.5680 C   0  0  0  0  0  0  0  0  0  0  0  0
  183.3280  178.7970  143.3550 C   0  0  0  0  0  2  0  0  0  0  0  0
  184.8770  179.0730  145.2990 C   0  0  1  0  0  3  0  0  0  0  0  0
  183.9030  179.7850  144.3600 C   0  0  0  0  0  2  0  0  0  0  0  0
  184.4600  178.2680  142.4830 C   0  0  0  0  0  2  0  0  0  0  0  0
  184.1640  178.3530  146.2400 F   0  0  0  0  0  0  0  0  0  0  0  0
  185.5990  177.7390  143.3130 C   0  0  0  0  0  3  0  0  0  0  0  0
  191.0170  178.7130  142.5550 S   0  0  0  0  0  0  0  0  0  0  0  0
  191.7380  177.7410  141.1920 C   0  0  0  0  0  2  0  0  0  0  0  0
  190.6420  177.1270  140.3390 C   0  0  1  0  0  3  0  0  0  0  0  0
  189.7860  178.1320  139.8930 O   0  0  0  0  0  1  0  0  0  0  0  0
  191.2290  176.4140  139.1670 C   0  0  0  0  0  0  0  0  0  0  0  0
  190.4960  175.4410  138.4960 O   0  0  0  0  0  0  0  0  0  0  0  0
  192.3900  176.7010  138.7780 O   0  0  0  0  0  1  0  0  0  0  0  0
  1 12  1  6  0  0  0
  1  8  1  0  0  0  0
  2  7  1  1  0  0  0
  2 11  1  0  0  0  0
  2  1  1  0  0  0  0
  4  3  1  0  0  0  0
  5  9  1  0  0  0  0
  5 11  1  0  0  0  0
  6  5  1  0  0  0  0
  8  3  1  0  0  0  0
 10 19  1  1  0  0  0
 10  7  1  0  0  0  0
 10  5  1  0  0  0  0
 11  4  1  1  0  0  0
 12 14  1  0  0  0  0
 13 15  1  0  0  0  0
 14 17  1  1  0  0  0
 15 14  1  0  0  0  0
 16 18  1  0  0  0  0
 16 13  1  0  0  0  0
 18 12  2  0  0  0  0
 20 19  1  0  0  0  0
 21 22  1  6  0  0  0
 21 20  1  0  0  0  0
 23 21  1  0  0  0  0
 24 23  2  0  0  0  0
 25 23  1  0  0  0  0
M  END
>  <MODEL>
3

>  <REMARK>
 VINA RESULT:      -6.3      1.658      2.353
  Name = 
  5 active torsions:
  status: ('A' for Active; 'I' for Inactive)
    1  A    between atoms: C_1  and  C_5
    2  A    between atoms: C_2  and  C_21
    3  A    between atoms: S_6  and  C_15
    4  A    between atoms: S_6  and  C_23
    5  A    between atoms: C_15  and  C_21
                            x       y       z     vdW  Elec       q    Type
                         _______ _______ _______ _____ _____    ______ ____

>  <TORSDO>
F 5

$$$$
=
 OpenBabel10262419463D

 25 27  0  0  1  0  0  0  0  0999 V2000
  189.5610  177.4510  138.8960 C   0  0  1  0  0  3  0  0  0  0  0  0
  188.8760  176.3680  138.0480 C   0  0  1  0  0  3  0  0  0  0  0  0
  188.8750  179.0220  136.9930 C   0  0  0  0  0  2  0  0  0  0  0  0
  189.6100  177.9670  136.1690 C   0  0  0  0  0  2  0  0  0  0  0  0
  187.8790  176.0470  135.8890 C   0  0  0  0  0  0  0  0  0  0  0  0
  188.1550  174.7060  135.2390 C   0  0  0  0  0  1  0  0  0  0  0  0
  187.4850  176.3800  138.2420 O   0  0  0  0  0  0  0  0  0  0  0  0
  189.1680  178.8790  138.4900 C   0  0  0  0  0  2  0  0  0  0  0  0
  187.3290  176.9890  134.8140 C   0  0  0  0  0  1  0  0  0  0  0  0
  186.9360  175.8230  137.0760 C   0  0  1  0  0  3  0  0  0  0  0  0
  189.1590  176.5370  136.5520 C   0  0  2  0  0  3  0  0  0  0  0  0
  189.4180  177.2210  140.3740 C   0  0  0  0  0  0  0  0  0  0  0  0
  189.4640  177.2220  143.2370 C   0  0  0  0  0  2  0  0  0  0  0  0
  188.2450  177.8110  141.1340 C   0  0  1  0  0  3  0  0  0  0  0  0
  188.1060  177.2490  142.5500 C   0  0  0  0  0  2  0  0  0  0  0  0
  190.3790  176.2660  142.4800 C   0  0  0  0  0  2  0  0  0  0  0  0
  188.3700  179.1880  141.1980 F   0  0  0  0  0  0  0  0  0  0  0  0
  190.4180  176.5850  141.0080 C   0  0  0  0  0  3  0  0  0  0  0  0
  185.1830  176.3170  136.8530 S   0  0  0  0  0  0  0  0  0  0  0  0
  185.3390  177.8770  137.7820 C   0  0  0  0  0  2  0  0  0  0  0  0
  183.9970  178.2880  138.3620 C   0  0  1  0  0  3  0  0  0  0  0  0
  183.4900  177.2480  139.1390 O   0  0  0  0  0  1  0  0  0  0  0  0
  184.1420  179.5140  139.1990 C   0  0  0  0  0  0  0  0  0  0  0  0
  185.0510  179.5450  140.2500 O   0  0  0  0  0  1  0  0  0  0  0  0
  183.4430  180.5290  138.9470 O   0  0  0  0  0  0  0  0  0  0  0  0
  1 12  1  1  0  0  0
  2  7  1  6  0  0  0
  2  1  1  0  0  0  0
  3  8  1  0  0  0  0
  4  3  1  0  0  0  0
  5 11  1  0  0  0  0
  5 10  1  0  0  0  0
  6  5  1  0  0  0  0
  8  1  1  0  0  0  0
  9  5  1  0  0  0  0
 10 19  1  6  0  0  0
 10  7  1  0  0  0  0
 11  4  1  1  0  0  0
 11  2  1  0  0  0  0
 12 18  2  0  0  0  0
 12 14  1  0  0  0  0
 14 17  1  1  0  0  0
 14 15  1  0  0  0  0
 15 13  1  0  0  0  0
 16 13  1  0  0  0  0
 18 16  1  0  0  0  0
 19 20  1  0  0  0  0
 20 21  1  0  0  0  0
 21 22  1  1  0  0  0
 21 23  1  0  0  0  0
 23 24  1  0  0  0  0
 25 23  2  0  0  0  0
M  END
>  <MODEL>
4

>  <REMARK>
 VINA RESULT:      -6.2      5.190      8.752
  Name = 
  5 active torsions:
  status: ('A' for Active; 'I' for Inactive)
    1  A    between atoms: C_1  and  C_5
    2  A    between atoms: C_2  and  C_21
    3  A    between atoms: S_6  and  C_15
    4  A    between atoms: S_6  and  C_23
    5  A    between atoms: C_15  and  C_21
                            x       y       z     vdW  Elec       q    Type
                         _______ _______ _______ _____ _____    ______ ____

>  <TORSDO>
F 5

$$$$
=
 OpenBabel10262419463D

 25 27  0  0  1  0  0  0  0  0999 V2000
  188.0670  177.7500  142.2780 C   0  0  1  0  0  3  0  0  0  0  0  0
  189.0180  178.4570  143.2550 C   0  0  1  0  0  3  0  0  0  0  0  0
  189.4520  175.6670  142.8290 C   0  0  0  0  0  2  0  0  0  0  0  0
  190.5890  176.5990  142.4160 C   0  0  0  0  0  2  0  0  0  0  0  0
  191.0180  178.0630  144.5210 C   0  0  0  0  0  0  0  0  0  0  0  0
  191.9810  179.2310  144.5950 C   0  0  0  0  0  1  0  0  0  0  0  0
  188.6170  178.2530  144.5860 O   0  0  0  0  0  0  0  0  0  0  0  0
  188.0840  176.2200  142.4130 C   0  0  0  0  0  2  0  0  0  0  0  0
  191.7640  176.8070  144.9790 C   0  0  0  0  0  1  0  0  0  0  0  0
  189.7810  178.4050  145.3580 C   0  0  1  0  0  3  0  0  0  0  0  0
  190.4660  177.9790  143.1050 C   0  0  2  0  0  3  0  0  0  0  0  0
  186.6720  178.3070  142.3060 C   0  0  0  0  0  0  0  0  0  0  0  0
  183.8600  178.8490  142.2960 C   0  0  0  0  0  2  0  0  0  0  0  0
  185.9500  178.5070  143.6270 C   0  0  1  0  0  3  0  0  0  0  0  0
  184.6710  179.3350  143.4890 C   0  0  0  0  0  2  0  0  0  0  0  0
  184.6660  179.0860  141.0250 C   0  0  0  0  0  2  0  0  0  0  0  0
  185.6440  177.2790  144.1860 F   0  0  0  0  0  0  0  0  0  0  0  0
  186.0510  178.5030  141.1300 C   0  0  0  0  0  3  0  0  0  0  0  0
  189.6220  177.5760  146.9870 S   0  0  0  0  0  0  0  0  0  0  0  0
  187.8350  177.2490  146.8250 C   0  0  0  0  0  2  0  0  0  0  0  0
  187.0660  177.9320  147.9410 C   0  0  1  0  0  3  0  0  0  0  0  0
  187.9360  178.7280  148.6840 O   0  0  0  0  0  1  0  0  0  0  0  0
  185.9710  178.7770  147.3820 C   0  0  0  0  0  0  0  0  0  0  0  0
  184.7800  178.1970  146.9590 O   0  0  0  0  0  0  0  0  0  0  0  0
  186.1220  180.0230  147.3010 O   0  0  0  0  0  1  0  0  0  0  0  0
  1 12  1  1  0  0  0
  1  8  1  0  0  0  0
  1  2  1  0  0  0  0
  2  7  1  1  0  0  0
  4  3  1  0  0  0  0
  5  6  1  0  0  0  0
  5  9  1  0  0  0  0
  5 10  1  0  0  0  0
  7 10  1  0  0  0  0
  8  3  1  0  0  0  0
 10 19  1  1  0  0  0
 11  4  1  1  0  0  0
 11  2  1  0  0  0  0
 11  5  1  0  0  0  0
 12 14  1  0  0  0  0
 13 15  1  0  0  0  0
 14 17  1  6  0  0  0
 15 14  1  0  0  0  0
 16 18  1  0  0  0  0
 16 13  1  0  0  0  0
 18 12  2  0  0  0  0
 20 19  1  0  0  0  0
 20 21  1  0  0  0  0
 21 22  1  6  0  0  0
 23 21  1  0  0  0  0
 24 23  2  0  0  0  0
 25 23  1  0  0  0  0
M  END
>  <MODEL>
5

>  <REMARK>
 VINA RESULT:      -6.2      2.105      4.726
  Name = 
  5 active torsions:
  status: ('A' for Active; 'I' for Inactive)
    1  A    between atoms: C_1  and  C_5
    2  A    between atoms: C_2  and  C_21
    3  A    between atoms: S_6  and  C_15
    4  A    between atoms: S_6  and  C_23
    5  A    between atoms: C_15  and  C_21
                            x       y       z     vdW  Elec       q    Type
                         _______ _______ _______ _____ _____    ______ ____

>  <TORSDO>
F 5

$$$$
=
 OpenBabel10262419463D

 25 27  0  0  1  0  0  0  0  0999 V2000
  190.9670  176.7050  140.9350 C   0  0  1  0  0  3  0  0  0  0  0  0
  189.9270  176.4990  139.8240 C   0  0  1  0  0  3  0  0  0  0  0  0
  192.5720  177.1860  138.9970 C   0  0  0  0  0  2  0  0  0  0  0  0
  192.0510  175.8270  138.5350 C   0  0  0  0  0  2  0  0  0  0  0  0
  189.7560  176.3580  137.4340 C   0  0  0  0  0  0  0  0  0  0  0  0
  188.7750  175.3270  136.9130 C   0  0  0  0  0  1  0  0  0  0  0  0
  189.4050  177.7270  139.3860 O   0  0  0  0  0  0  0  0  0  0  0  0
  192.2180  177.4620  140.4630 C   0  0  0  0  0  2  0  0  0  0  0  0
  190.6550  176.7860  136.2710 C   0  0  0  0  0  1  0  0  0  0  0  0
  188.9600  177.5020  138.0730 C   0  0  1  0  0  3  0  0  0  0  0  0
  190.5070  175.7580  138.6150 C   0  0  2  0  0  3  0  0  0  0  0  0
  190.3840  177.2970  142.1870 C   0  0  0  0  0  0  0  0  0  0  0  0
  189.4000  177.9460  144.7970 C   0  0  0  0  0  2  0  0  0  0  0  0
  191.2480  178.1260  143.1200 C   0  0  1  0  0  3  0  0  0  0  0  0
  190.4360  178.8740  144.1790 C   0  0  0  0  0  2  0  0  0  0  0  0
  188.4140  177.5210  143.7160 C   0  0  0  0  0  2  0  0  0  0  0  0
  192.1780  177.3140  143.7450 F   0  0  0  0  0  0  0  0  0  0  0  0
  189.1210  176.9680  142.5060 C   0  0  0  0  0  3  0  0  0  0  0  0
  188.8420  179.0670  137.1230 S   0  0  0  0  0  0  0  0  0  0  0  0
  187.1710  178.7320  136.4740 C   0  0  0  0  0  2  0  0  0  0  0  0
  186.3240  178.0320  137.5220 C   0  0  1  0  0  3  0  0  0  0  0  0
  185.7880  178.9790  138.3920 O   0  0  0  0  0  1  0  0  0  0  0  0
  185.2200  177.2640  136.8750 C   0  0  0  0  0  0  0  0  0  0  0  0
  183.8960  177.5160  137.2150 O   0  0  0  0  0  1  0  0  0  0  0  0
  185.4890  176.3920  136.0100 O   0  0  0  0  0  0  0  0  0  0  0  0
  1 12  1  1  0  0  0
  2  7  1  6  0  0  0
  2  1  1  0  0  0  0
  3  8  1  0  0  0  0
  4  3  1  0  0  0  0
  5 10  1  0  0  0  0
  5 11  1  0  0  0  0
  6  5  1  0  0  0  0
  8  1  1  0  0  0  0
  9  5  1  0  0  0  0
 10 19  1  6  0  0  0
 10  7  1  0  0  0  0
 11  4  1  6  0  0  0
 11  2  1  0  0  0  0
 12 18  2  0  0  0  0
 12 14  1  0  0  0  0
 14 17  1  1  0  0  0
 14 15  1  0  0  0  0
 15 13  1  0  0  0  0
 16 13  1  0  0  0  0
 18 16  1  0  0  0  0
 20 19  1  0  0  0  0
 20 21  1  0  0  0  0
 21 22  1  1  0  0  0
 23 24  1  0  0  0  0
 23 21  1  0  0  0  0
 25 23  2  0  0  0  0
M  END
>  <MODEL>
6

>  <REMARK>
 VINA RESULT:      -6.1      4.613      7.920
  Name = 
  5 active torsions:
  status: ('A' for Active; 'I' for Inactive)
    1  A    between atoms: C_1  and  C_5
    2  A    between atoms: C_2  and  C_21
    3  A    between atoms: S_6  and  C_15
    4  A    between atoms: S_6  and  C_23
    5  A    between atoms: C_15  and  C_21
                            x       y       z     vdW  Elec       q    Type
                         _______ _______ _______ _____ _____    ______ ____

>  <TORSDO>
F 5

$$$$
=
 OpenBabel10262419463D

 25 27  0  0  1  0  0  0  0  0999 V2000
  187.6370  177.9070  143.9570 C   0  0  1  0  0  3  0  0  0  0  0  0
  189.0600  178.2850  144.3960 C   0  0  1  0  0  3  0  0  0  0  0  0
  188.8010  176.0020  142.7000 C   0  0  0  0  0  2  0  0  0  0  0  0
  189.6020  177.1740  142.1390 C   0  0  0  0  0  2  0  0  0  0  0  0
  191.3520  177.7030  143.9870 C   0  0  0  0  0  0  0  0  0  0  0  0
  192.3240  178.8660  143.9680 C   0  0  0  0  0  1  0  0  0  0  0  0
  189.4760  177.5030  145.4870 O   0  0  0  0  0  0  0  0  0  0  0  0
  187.5300  176.4730  143.4160 C   0  0  0  0  0  2  0  0  0  0  0  0
  192.0540  176.4900  143.3700 C   0  0  0  0  0  1  0  0  0  0  0  0
  190.8800  177.4940  145.4310 C   0  0  1  0  0  3  0  0  0  0  0  0
  190.0800  178.1220  143.2640 C   0  0  2  0  0  3  0  0  0  0  0  0
  186.6000  178.1970  145.0050 C   0  0  0  0  0  0  0  0  0  0  0  0
  184.5150  178.2180  146.9670 C   0  0  0  0  0  2  0  0  0  0  0  0
  186.9680  178.1750  146.4780 C   0  0  1  0  0  3  0  0  0  0  0  0
  185.8760  178.7640  147.3740 C   0  0  0  0  0  2  0  0  0  0  0  0
  184.2040  178.6800  145.5490 C   0  0  0  0  0  2  0  0  0  0  0  0
  187.2390  176.8790  146.8760 F   0  0  0  0  0  0  0  0  0  0  0  0
  185.3280  178.3540  144.6000 C   0  0  0  0  0  3  0  0  0  0  0  0
  191.5820  176.0610  146.3380 S   0  0  0  0  0  0  0  0  0  0  0  0
  191.6680  176.9200  147.9440 C   0  0  0  0  0  2  0  0  0  0  0  0
  192.6970  176.2590  148.8450 C   0  0  1  0  0  3  0  0  0  0  0  0
  193.6320  175.5830  148.0630 O   0  0  0  0  0  1  0  0  0  0  0  0
  193.3900  177.2790  149.6840 C   0  0  0  0  0  0  0  0  0  0  0  0
  194.6830  177.0530  150.1430 O   0  0  0  0  0  1  0  0  0  0  0  0
  192.8060  178.3560  149.9680 O   0  0  0  0  0  0  0  0  0  0  0  0
  1  2  1  0  0  0  0
  1 12  1  1  0  0  0
  2  7  1  1  0  0  0
  3  8  1  0  0  0  0
  4  3  1  0  0  0  0
  5 10  1  0  0  0  0
  6  5  1  0  0  0  0
  8  1  1  0  0  0  0
  9  5  1  0  0  0  0
 10  7  1  0  0  0  0
 10 19  1  6  0  0  0
 11  4  1  6  0  0  0
 11  5  1  0  0  0  0
 11  2  1  0  0  0  0
 12 14  1  0  0  0  0
 13 15  1  0  0  0  0
 14 17  1  1  0  0  0
 14 15  1  0  0  0  0
 16 13  1  0  0  0  0
 18 12  2  0  0  0  0
 18 16  1  0  0  0  0
 19 20  1  0  0  0  0
 20 21  1  0  0  0  0
 21 22  1  6  0  0  0
 21 23  1  0  0  0  0
 23 25  2  0  0  0  0
 23 24  1  0  0  0  0
M  END
>  <MODEL>
7

>  <REMARK>
 VINA RESULT:      -6.0      2.755      5.040
  Name = 
  5 active torsions:
  status: ('A' for Active; 'I' for Inactive)
    1  A    between atoms: C_1  and  C_5
    2  A    between atoms: C_2  and  C_21
    3  A    between atoms: S_6  and  C_15
    4  A    between atoms: S_6  and  C_23
    5  A    between atoms: C_15  and  C_21
                            x       y       z     vdW  Elec       q    Type
                         _______ _______ _______ _____ _____    ______ ____

>  <TORSDO>
F 5

$$$$
=
 OpenBabel10262419463D

 25 27  0  0  1  0  0  0  0  0999 V2000
  189.2220  177.8380  139.3390 C   0  0  1  0  0  3  0  0  0  0  0  0
  189.9160  176.8910  138.3490 C   0  0  1  0  0  3  0  0  0  0  0  0
  187.6600  178.3440  137.3720 C   0  0  0  0  0  2  0  0  0  0  0  0
  188.9960  178.6280  136.6880 C   0  0  0  0  0  2  0  0  0  0  0  0
  189.8930  176.2790  136.0290 C   0  0  0  0  0  0  0  0  0  0  0  0
  191.2520  175.9990  135.4170 C   0  0  0  0  0  1  0  0  0  0  0  0
  189.2380  175.6640  138.2640 O   0  0  0  0  0  0  0  0  0  0  0  0
  187.8110  178.2520  138.8950 C   0  0  0  0  0  2  0  0  0  0  0  0
  188.8880  176.4510  134.8870 C   0  0  0  0  0  1  0  0  0  0  0  0
  189.5590  175.1420  137.0000 C   0  0  1  0  0  3  0  0  0  0  0  0
  190.0130  177.4910  136.9420 C   0  0  2  0  0  3  0  0  0  0  0  0
  189.2460  177.3330  140.7540 C   0  0  0  0  0  0  0  0  0  0  0  0
  189.5520  176.8380  143.5580 C   0  0  0  0  0  2  0  0  0  0  0  0
  188.0790  177.6030  141.6870 C   0  0  1  0  0  3  0  0  0  0  0  0
  188.1460  176.7860  142.9780 C   0  0  0  0  0  2  0  0  0  0  0  0
  190.5120  176.1750  142.5770 C   0  0  0  0  0  2  0  0  0  0  0  0
  188.0270  178.9500  141.9980 F   0  0  0  0  0  0  0  0  0  0  0  0
  190.3740  176.7500  141.1920 C   0  0  0  0  0  3  0  0  0  0  0  0
  188.3190  173.9090  136.4450 S   0  0  0  0  0  0  0  0  0  0  0  0
  186.9000  174.7530  137.2190 C   0  0  0  0  0  2  0  0  0  0  0  0
  185.6330  173.9350  137.0420 C   0  0  1  0  0  3  0  0  0  0  0  0
  185.6130  172.9050  137.9810 O   0  0  0  0  0  1  0  0  0  0  0  0
  184.4260  174.7940  137.2170 C   0  0  0  0  0  0  0  0  0  0  0  0
  183.1610  174.2240  137.2910 O   0  0  0  0  0  0  0  0  0  0  0  0
  184.5560  176.0420  137.3080 O   0  0  0  0  0  1  0  0  0  0  0  0
  1 12  1  1  0  0  0
  2  7  1  6  0  0  0
  2  1  1  0  0  0  0
  3  8  1  0  0  0  0
  4  3  1  0  0  0  0
  5 11  1  0  0  0  0
  5 10  1  0  0  0  0
  6  5  1  0  0  0  0
  8  1  1  0  0  0  0
  9  5  1  0  0  0  0
 10 19  1  6  0  0  0
 10  7  1  0  0  0  0
 11  4  1  6  0  0  0
 11  2  1  0  0  0  0
 12 18  2  0  0  0  0
 12 14  1  0  0  0  0
 14 17  1  1  0  0  0
 14 15  1  0  0  0  0
 15 13  1  0  0  0  0
 16 13  1  0  0  0  0
 18 16  1  0  0  0  0
 19 20  1  0  0  0  0
 21 23  1  0  0  0  0
 21 20  1  0  0  0  0
 21 22  1  1  0  0  0
 23 24  2  0  0  0  0
 23 25  1  0  0  0  0
M  END
>  <MODEL>
8

>  <REMARK>
 VINA RESULT:      -5.8      5.331      8.606
  Name = 
  5 active torsions:
  status: ('A' for Active; 'I' for Inactive)
    1  A    between atoms: C_1  and  C_5
    2  A    between atoms: C_2  and  C_21
    3  A    between atoms: S_6  and  C_15
    4  A    between atoms: S_6  and  C_23
    5  A    between atoms: C_15  and  C_21
                            x       y       z     vdW  Elec       q    Type
                         _______ _______ _______ _____ _____    ______ ____

>  <TORSDO>
F 5

$$$$
=
 OpenBabel10262419463D

 25 27  0  0  1  0  0  0  0  0999 V2000
  181.2080  178.9680  141.3690 C   0  0  1  0  0  3  0  0  0  0  0  0
  181.5000  179.5350  139.9710 C   0  0  1  0  0  3  0  0  0  0  0  0
  179.5220  177.4820  140.1380 C   0  0  0  0  0  2  0  0  0  0  0  0
  179.0450  178.8420  139.6340 C   0  0  0  0  0  2  0  0  0  0  0  0
  180.6940  179.4330  137.7130 C   0  0  0  0  0  0  0  0  0  0  0  0
  180.7210  180.7440  136.9530 C   0  0  0  0  0  1  0  0  0  0  0  0
  182.3880  178.7070  139.2650 O   0  0  0  0  0  0  0  0  0  0  0  0
  180.4700  177.6210  141.3340 C   0  0  0  0  0  2  0  0  0  0  0  0
  179.8050  178.4560  136.9380 C   0  0  0  0  0  1  0  0  0  0  0  0
  182.1380  178.9570  137.9060 C   0  0  1  0  0  3  0  0  0  0  0  0
  180.2270  179.7070  139.1360 C   0  0  2  0  0  3  0  0  0  0  0  0
  182.4210  178.9290  142.2540 C   0  0  0  0  0  0  0  0  0  0  0  0
  184.5930  178.3340  144.0230 C   0  0  0  0  0  2  0  0  0  0  0  0
  183.7890  178.6220  141.6720 C   0  0  1  0  0  3  0  0  0  0  0  0
  184.9310  178.9000  142.6520 C   0  0  0  0  0  2  0  0  0  0  0  0
  183.3700  179.0620  144.5680 C   0  0  0  0  0  2  0  0  0  0  0  0
  183.8430  177.3000  141.2690 F   0  0  0  0  0  0  0  0  0  0  0  0
  182.2330  179.0530  143.5790 C   0  0  0  0  0  3  0  0  0  0  0  0
  182.7060  177.5690  136.8490 S   0  0  0  0  0  0  0  0  0  0  0  0
  184.0380  177.0460  137.9780 C   0  0  0  0  0  2  0  0  0  0  0  0
  185.3880  177.1440  137.2900 C   0  0  1  0  0  3  0  0  0  0  0  0
  185.1980  177.3330  135.9220 O   0  0  0  0  0  1  0  0  0  0  0  0
  186.1780  178.2800  137.8470 C   0  0  0  0  0  0  0  0  0  0  0  0
  187.1060  178.9470  137.0550 O   0  0  0  0  0  0  0  0  0  0  0  0
  185.9960  178.6440  139.0370 O   0  0  0  0  0  1  0  0  0  0  0  0
  1 12  1  6  0  0  0
  2  7  1  6  0  0  0
  2  1  1  0  0  0  0
  3  8  1  0  0  0  0
  4  3  1  0  0  0  0
  5 10  1  0  0  0  0
  5 11  1  0  0  0  0
  6  5  1  0  0  0  0
  8  1  1  0  0  0  0
  9  5  1  0  0  0  0
 10 19  1  6  0  0  0
 10  7  1  0  0  0  0
 11  4  1  1  0  0  0
 11  2  1  0  0  0  0
 12 18  2  0  0  0  0
 13 16  1  0  0  0  0
 14 17  1  1  0  0  0
 14 12  1  0  0  0  0
 14 15  1  0  0  0  0
 15 13  1  0  0  0  0
 18 16  1  0  0  0  0
 19 20  1  0  0  0  0
 21 22  1  6  0  0  0
 21 23  1  0  0  0  0
 21 20  1  0  0  0  0
 23 25  1  0  0  0  0
 24 23  2  0  0  0  0
M  END
>  <MODEL>
9

>  <REMARK>
 VINA RESULT:      -5.7      5.538      9.147
  Name = 
  5 active torsions:
  status: ('A' for Active; 'I' for Inactive)
    1  A    between atoms: C_1  and  C_5
    2  A    between atoms: C_2  and  C_21
    3  A    between atoms: S_6  and  C_15
    4  A    between atoms: S_6  and  C_23
    5  A    between atoms: C_15  and  C_21
                            x       y       z     vdW  Elec       q    Type
                         _______ _______ _______ _____ _____    ______ ____

>  <TORSDO>
F 5

$$$$
