=
 OpenBabel10252414593D

 34 39  0  0  1  0  0  0  0  0999 V2000
  185.5870  178.9580  146.1780 C   0  0  0  0  0  0  0  0  0  0  0  0
  187.3340  177.4110  145.3310 C   0  0  0  0  0  0  0  0  0  0  0  0
  185.6510  178.5060  143.6970 C   0  0  0  0  0  0  0  0  0  0  0  0
  185.4830  178.5000  141.3200 N   0  0  0  0  0  0  0  0  0  0  0  0
  187.2900  178.1400  147.6820 C   0  0  0  0  0  3  0  0  0  0  0  0
  187.7870  177.2770  146.5850 C   0  0  0  0  0  3  0  0  0  0  0  0
  187.6250  178.6080  142.2410 N   0  0  0  0  0  2  0  0  0  0  0  0
  186.4440  178.5970  144.9830 C   0  0  1  0  0  3  0  0  0  0  0  0
  186.3620  178.5870  140.1740 C   0  0  0  0  0  2  0  0  0  0  0  0
  186.2260  178.9300  147.4990 C   0  0  0  0  0  3  0  0  0  0  0  0
  184.1690  178.6360  143.7170 C   0  0  0  0  0  0  0  0  0  0  0  0
  184.3020  179.1250  146.0870 N   0  0  0  0  0  0  0  0  0  0  0  0
  187.8570  176.4730  144.2970 C   0  0  0  0  0  1  0  0  0  0  0  0
  184.0800  178.5020  141.3050 N   0  0  0  0  0  0  0  0  0  0  0  0
  183.4060  178.5450  142.4230 C   0  0  0  0  0  0  0  0  0  0  0  0
  187.7850  178.6460  140.7850 C   0  0  2  0  0  3  0  0  0  0  0  0
  186.2390  178.5100  142.4970 C   0  0  0  0  0  0  0  0  0  0  0  0
  183.5700  178.9760  144.8620 C   0  0  0  0  0  3  0  0  0  0  0  0
  179.7380  178.5830  143.4020 C   0  0  0  0  0  0  0  0  0  0  0  0
  179.1510  178.3930  142.1900 N   0  0  0  0  0  0  0  0  0  0  0  0
  181.9200  178.5140  142.3540 C   0  0  0  0  0  0  0  0  0  0  0  0
  179.8900  178.2540  141.0570 C   0  0  0  0  0  3  0  0  0  0  0  0
  181.1280  178.6420  143.5040 C   0  0  0  0  0  3  0  0  0  0  0  0
  181.2840  178.3090  141.1210 C   0  0  0  0  0  3  0  0  0  0  0  0
  178.9720  178.7120  144.5110 F   0  0  0  0  0  0  0  0  0  0  0  0
  188.6000  177.4430  140.3340 C   0  0  0  0  0  2  0  0  0  0  0  0
  189.9610  177.5360  140.8410 N   0  0  0  0  0  2  0  0  0  0  0  0
  189.9760  176.9470  142.1720 C   0  0  0  0  0  2  0  0  0  0  0  0
  190.6230  179.2790  143.7420 C   0  0  0  0  0  1  0  0  0  0  0  0
  191.6010  178.1140  143.8030 C   0  0  2  0  0  3  0  0  0  0  0  0
  191.5490  176.1060  144.9660 C   0  0  0  0  0  2  0  0  0  0  0  0
  191.6370  175.7110  143.5320 C   0  0  0  0  0  2  0  0  0  0  0  0
  191.3860  177.0000  142.7610 C   0  0  1  0  0  3  0  0  0  0  0  0
  191.5210  177.4210  145.1150 C   0  0  0  0  0  2  0  0  0  0  0  0
  1 10  1  0  0  0  0
  2  6  2  0  0  0  0
  3 11  1  0  0  0  0
  4 17  1  0  0  0  0
  6  5  1  0  0  0  0
  7 17  1  0  0  0  0
  8  3  1  6  0  0  0
  8  2  1  0  0  0  0
  8  1  1  0  0  0  0
  9 16  1  0  0  0  0
  9  4  1  0  0  0  0
 10  5  2  0  0  0  0
 11 18  2  0  0  0  0
 12  1  2  0  0  0  0
 13  2  1  0  0  0  0
 14  4  1  0  0  0  0
 14 15  2  0  0  0  0
 15 11  1  0  0  0  0
 16 26  1  6  0  0  0
 16  7  1  0  0  0  0
 17  3  2  0  0  0  0
 18 12  1  0  0  0  0
 19 23  1  0  0  0  0
 19 25  1  0  0  0  0
 20 19  2  0  0  0  0
 21 15  1  0  0  0  0
 21 23  2  0  0  0  0
 22 24  2  0  0  0  0
 22 20  1  0  0  0  0
 24 21  1  0  0  0  0
 26 27  1  0  0  0  0
 27 28  1  0  0  0  0
 30 29  1  1  0  0  0
 30 34  1  0  0  0  0
 31 34  1  0  0  0  0
 32 31  1  0  0  0  0
 33 28  1  1  0  0  0
 33 32  1  0  0  0  0
 33 30  1  0  0  0  0
M  END
>  <MODEL>
1

>  <REMARK>
 VINA RESULT:     -10.6      0.000      0.000
  Name = 
  5 active torsions:
  status: ('A' for Active; 'I' for Inactive)
    1  A    between atoms: N_3  and  C_13
    2  A    between atoms: N_3  and  C_17
    3  A    between atoms: C_12  and  C_28
    4  A    between atoms: C_13  and  C_33
    5  A    between atoms: C_17  and  C_29
                            x       y       z     vdW  Elec       q    Type
                         _______ _______ _______ _____ _____    ______ ____

>  <TORSDO>
F 5

$$$$
=
 OpenBabel10252414593D

 34 39  0  0  1  0  0  0  0  0999 V2000
  184.9880  178.9800  145.0040 C   0  0  0  0  0  0  0  0  0  0  0  0
  186.9080  177.4410  144.6720 C   0  0  0  0  0  0  0  0  0  0  0  0
  185.6600  178.4360  142.6340 C   0  0  0  0  0  0  0  0  0  0  0  0
  186.0760  178.3370  140.2890 N   0  0  0  0  0  0  0  0  0  0  0  0
  186.2840  178.2560  146.9100 C   0  0  0  0  0  3  0  0  0  0  0  0
  187.0430  177.3640  146.0040 C   0  0  0  0  0  3  0  0  0  0  0  0
  187.9280  178.5270  141.6980 N   0  0  0  0  0  2  0  0  0  0  0  0
  186.1150  178.5930  144.0690 C   0  0  1  0  0  3  0  0  0  0  0  0
  187.2060  178.4000  139.3890 C   0  0  0  0  0  2  0  0  0  0  0  0
  185.2870  179.0150  146.4410 C   0  0  0  0  0  3  0  0  0  0  0  0
  184.2160  178.5340  142.2880 C   0  0  0  0  0  0  0  0  0  0  0  0
  183.7630  179.1150  144.5970 N   0  0  0  0  0  0  0  0  0  0  0  0
  187.6780  176.4770  143.8360 C   0  0  0  0  0  1  0  0  0  0  0  0
  184.7190  178.3080  139.9350 N   0  0  0  0  0  0  0  0  0  0  0  0
  183.7920  178.3780  140.8530 C   0  0  0  0  0  0  0  0  0  0  0  0
  188.4370  178.5130  140.3240 C   0  0  2  0  0  3  0  0  0  0  0  0
  186.5220  178.4080  141.6140 C   0  0  0  0  0  0  0  0  0  0  0  0
  183.3530  178.9040  143.2380 C   0  0  0  0  0  3  0  0  0  0  0  0
  180.3930  177.0650  139.7900 C   0  0  0  0  0  0  0  0  0  0  0  0
  179.7270  178.2300  139.5750 N   0  0  0  0  0  0  0  0  0  0  0  0
  182.3690  178.3120  140.4270 C   0  0  0  0  0  0  0  0  0  0  0  0
  180.3280  179.4360  139.7610 C   0  0  0  0  0  3  0  0  0  0  0  0
  181.7220  177.0860  140.2140 C   0  0  0  0  0  3  0  0  0  0  0  0
  181.6570  179.4960  140.1860 C   0  0  0  0  0  3  0  0  0  0  0  0
  179.7660  175.8810  139.5910 F   0  0  0  0  0  0  0  0  0  0  0  0
  189.3520  177.3120  140.1360 C   0  0  0  0  0  2  0  0  0  0  0  0
  190.5820  177.4900  140.8930 N   0  0  0  0  0  2  0  0  0  0  0  0
  190.4150  176.8120  142.1700 C   0  0  0  0  0  2  0  0  0  0  0  0
  190.6980  179.1960  143.7690 C   0  0  0  0  0  1  0  0  0  0  0  0
  191.6820  178.0660  144.0370 C   0  0  2  0  0  3  0  0  0  0  0  0
  191.4770  176.0810  145.2230 C   0  0  0  0  0  2  0  0  0  0  0  0
  191.8360  175.6600  143.8400 C   0  0  0  0  0  2  0  0  0  0  0  0
  191.6920  176.9240  143.0020 C   0  0  1  0  0  3  0  0  0  0  0  0
  191.3860  177.3980  145.3300 C   0  0  0  0  0  2  0  0  0  0  0  0
  1 10  1  0  0  0  0
  2  6  2  0  0  0  0
  4 17  1  0  0  0  0
  6  5  1  0  0  0  0
  8  3  1  6  0  0  0
  8  2  1  0  0  0  0
  8  1  1  0  0  0  0
  9  4  1  0  0  0  0
  9 16  1  0  0  0  0
 10  5  2  0  0  0  0
 11  3  1  0  0  0  0
 11 18  2  0  0  0  0
 12  1  2  0  0  0  0
 13  2  1  0  0  0  0
 14  4  1  0  0  0  0
 14 15  2  0  0  0  0
 15 11  1  0  0  0  0
 16 26  1  1  0  0  0
 16  7  1  0  0  0  0
 17  7  1  0  0  0  0
 17  3  2  0  0  0  0
 18 12  1  0  0  0  0
 19 23  1  0  0  0  0
 20 22  1  0  0  0  0
 20 19  2  0  0  0  0
 21 15  1  0  0  0  0
 22 24  2  0  0  0  0
 23 21  2  0  0  0  0
 24 21  1  0  0  0  0
 25 19  1  0  0  0  0
 26 27  1  0  0  0  0
 27 28  1  0  0  0  0
 30 29  1  6  0  0  0
 30 34  1  0  0  0  0
 31 34  1  0  0  0  0
 32 31  1  0  0  0  0
 33 28  1  1  0  0  0
 33 32  1  0  0  0  0
 33 30  1  0  0  0  0
M  END
>  <MODEL>
2

>  <REMARK>
 VINA RESULT:     -10.5      1.593      1.774
  Name = 
  5 active torsions:
  status: ('A' for Active; 'I' for Inactive)
    1  A    between atoms: N_3  and  C_13
    2  A    between atoms: N_3  and  C_17
    3  A    between atoms: C_12  and  C_28
    4  A    between atoms: C_13  and  C_33
    5  A    between atoms: C_17  and  C_29
                            x       y       z     vdW  Elec       q    Type
                         _______ _______ _______ _____ _____    ______ ____

>  <TORSDO>
F 5

$$$$
=
 OpenBabel10252414593D

 34 39  0  0  1  0  0  0  0  0999 V2000
  185.6890  178.8280  146.1200 C   0  0  0  0  0  0  0  0  0  0  0  0
  187.3710  177.2980  145.1230 C   0  0  0  0  0  0  0  0  0  0  0  0
  185.6130  178.4650  143.6250 C   0  0  0  0  0  0  0  0  0  0  0  0
  185.3160  178.5480  141.2610 N   0  0  0  0  0  0  0  0  0  0  0  0
  187.4620  177.9410  147.4980 C   0  0  0  0  0  3  0  0  0  0  0  0
  187.8900  177.1140  146.3460 C   0  0  0  0  0  3  0  0  0  0  0  0
  187.5060  178.6040  142.0670 N   0  0  0  0  0  2  0  0  0  0  0  0
  186.4760  178.5030  144.8670 C   0  0  1  0  0  3  0  0  0  0  0  0
  186.1320  178.6690  140.0730 C   0  0  0  0  0  2  0  0  0  0  0  0
  186.3990  178.7460  147.4020 C   0  0  0  0  0  3  0  0  0  0  0  0
  184.1360  178.6070  143.7300 C   0  0  0  0  0  0  0  0  0  0  0  0
  184.4030  179.0090  146.1050 N   0  0  0  0  0  0  0  0  0  0  0  0
  187.8270  176.3940  144.0300 C   0  0  0  0  0  1  0  0  0  0  0  0
  183.9140  178.5620  141.3240 N   0  0  0  0  0  0  0  0  0  0  0  0
  183.3020  178.5700  142.4780 C   0  0  0  0  0  0  0  0  0  0  0  0
  187.5870  178.6930  140.6070 C   0  0  2  0  0  3  0  0  0  0  0  0
  186.1350  178.5080  142.3950 C   0  0  0  0  0  0  0  0  0  0  0  0
  183.6040  178.9100  144.9170 C   0  0  0  0  0  3  0  0  0  0  0  0
  179.6940  178.6490  143.6530 C   0  0  0  0  0  0  0  0  0  0  0  0
  179.0400  178.4610  142.4750 N   0  0  0  0  0  0  0  0  0  0  0  0
  181.8150  178.5540  142.4890 C   0  0  0  0  0  0  0  0  0  0  0  0
  179.7150  178.3100  141.3050 C   0  0  0  0  0  3  0  0  0  0  0  0
  181.0880  178.6940  143.6800 C   0  0  0  0  0  3  0  0  0  0  0  0
  181.1120  178.3510  141.2930 C   0  0  0  0  0  3  0  0  0  0  0  0
  178.9900  178.7900  144.8010 F   0  0  0  0  0  0  0  0  0  0  0  0
  188.3640  177.5000  140.0690 C   0  0  0  0  0  2  0  0  0  0  0  0
  189.4560  177.9500  139.2190 N   0  0  0  0  0  2  0  0  0  0  0  0
  189.6880  176.9190  138.2180 C   0  0  0  0  0  2  0  0  0  0  0  0
  187.9870  175.3720  136.4770 C   0  0  0  0  0  1  0  0  0  0  0  0
  188.3470  176.7780  136.0170 C   0  0  2  0  0  3  0  0  0  0  0  0
  187.5300  178.8640  136.6230 C   0  0  0  0  0  2  0  0  0  0  0  0
  188.9840  178.9200  136.9400 C   0  0  0  0  0  2  0  0  0  0  0  0
  189.4630  177.4800  136.8140 C   0  0  1  0  0  3  0  0  0  0  0  0
  187.1790  177.6880  136.1250 C   0  0  0  0  0  2  0  0  0  0  0  0
  1 10  1  0  0  0  0
  2  6  2  0  0  0  0
  3 11  1  0  0  0  0
  4 14  1  0  0  0  0
  4 17  1  0  0  0  0
  6  5  1  0  0  0  0
  7 17  1  0  0  0  0
  8  3  1  6  0  0  0
  8  2  1  0  0  0  0
  8  1  1  0  0  0  0
  9 16  1  0  0  0  0
  9  4  1  0  0  0  0
 10  5  2  0  0  0  0
 11 18  2  0  0  0  0
 12  1  2  0  0  0  0
 13  2  1  0  0  0  0
 14 15  2  0  0  0  0
 15 21  1  0  0  0  0
 15 11  1  0  0  0  0
 16 26  1  6  0  0  0
 16  7  1  0  0  0  0
 17  3  2  0  0  0  0
 18 12  1  0  0  0  0
 19 23  1  0  0  0  0
 19 25  1  0  0  0  0
 20 19  2  0  0  0  0
 21 23  2  0  0  0  0
 22 20  1  0  0  0  0
 24 22  2  0  0  0  0
 24 21  1  0  0  0  0
 27 26  1  0  0  0  0
 28 27  1  0  0  0  0
 30 34  1  0  0  0  0
 30 29  1  1  0  0  0
 30 33  1  0  0  0  0
 31 32  1  0  0  0  0
 33 32  1  0  0  0  0
 33 28  1  1  0  0  0
 34 31  1  0  0  0  0
M  END
>  <MODEL>
3

>  <REMARK>
 VINA RESULT:     -10.0      1.782      3.684
  Name = 
  5 active torsions:
  status: ('A' for Active; 'I' for Inactive)
    1  A    between atoms: N_3  and  C_13
    2  A    between atoms: N_3  and  C_17
    3  A    between atoms: C_12  and  C_28
    4  A    between atoms: C_13  and  C_33
    5  A    between atoms: C_17  and  C_29
                            x       y       z     vdW  Elec       q    Type
                         _______ _______ _______ _____ _____    ______ ____

>  <TORSDO>
F 5

$$$$
=
 OpenBabel10252414593D

 34 39  0  0  1  0  0  0  0  0999 V2000
  185.6870  178.8250  146.0810 C   0  0  0  0  0  0  0  0  0  0  0  0
  187.3260  177.2820  145.0330 C   0  0  0  0  0  0  0  0  0  0  0  0
  185.5480  178.4830  143.5860 C   0  0  0  0  0  0  0  0  0  0  0  0
  185.1970  178.5890  141.2310 N   0  0  0  0  0  0  0  0  0  0  0  0
  187.4810  177.9040  147.4100 C   0  0  0  0  0  3  0  0  0  0  0  0
  187.8720  177.0820  146.2420 C   0  0  0  0  0  3  0  0  0  0  0  0
  187.4050  178.6120  141.9850 N   0  0  0  0  0  2  0  0  0  0  0  0
  186.4400  178.5000  144.8080 C   0  0  1  0  0  3  0  0  0  0  0  0
  185.9860  178.7100  140.0240 C   0  0  0  0  0  2  0  0  0  0  0  0
  186.4260  178.7230  147.3460 C   0  0  0  0  0  3  0  0  0  0  0  0
  184.0760  178.6420  143.7270 C   0  0  0  0  0  0  0  0  0  0  0  0
  184.4040  179.0210  146.0990 N   0  0  0  0  0  0  0  0  0  0  0  0
  187.7450  176.3820  143.9220 C   0  0  0  0  0  1  0  0  0  0  0  0
  183.7970  178.6200  141.3270 N   0  0  0  0  0  0  0  0  0  0  0  0
  183.2130  178.6260  142.4950 C   0  0  0  0  0  0  0  0  0  0  0  0
  187.4530  178.7120  140.5240 C   0  0  2  0  0  3  0  0  0  0  0  0
  186.0420  178.5300  142.3450 C   0  0  0  0  0  0  0  0  0  0  0  0
  183.5760  178.9430  144.9290 C   0  0  0  0  0  3  0  0  0  0  0  0
  179.6340  178.6240  143.7600 C   0  0  0  0  0  0  0  0  0  0  0  0
  178.9500  178.5730  142.5860 N   0  0  0  0  0  0  0  0  0  0  0  0
  181.7260  178.6280  142.5410 C   0  0  0  0  0  0  0  0  0  0  0  0
  179.5960  178.5410  141.3900 C   0  0  0  0  0  3  0  0  0  0  0  0
  181.0290  178.6480  143.7570 C   0  0  0  0  0  3  0  0  0  0  0  0
  180.9920  178.5650  141.3480 C   0  0  0  0  0  3  0  0  0  0  0  0
  178.9600  178.6490  144.9340 F   0  0  0  0  0  0  0  0  0  0  0  0
  188.2030  177.5150  139.9590 C   0  0  0  0  0  2  0  0  0  0  0  0
  189.1850  177.9500  138.9770 N   0  0  0  0  0  2  0  0  0  0  0  0
  190.3220  177.0470  139.0620 C   0  0  0  0  0  2  0  0  0  0  0  0
  193.1820  176.7520  138.8200 C   0  0  0  0  0  1  0  0  0  0  0  0
  192.3410  176.3200  137.6260 C   0  0  2  0  0  3  0  0  0  0  0  0
  191.0980  174.4030  137.2190 C   0  0  0  0  0  2  0  0  0  0  0  0
  190.1160  175.5190  137.1230 C   0  0  0  0  0  2  0  0  0  0  0  0
  190.8580  176.7340  137.6640 C   0  0  1  0  0  3  0  0  0  0  0  0
  192.3150  174.8410  137.5020 C   0  0  0  0  0  2  0  0  0  0  0  0
  1 12  2  0  0  0  0
  1 10  1  0  0  0  0
  2  6  2  0  0  0  0
  3 11  1  0  0  0  0
  4 14  1  0  0  0  0
  4 17  1  0  0  0  0
  6  5  1  0  0  0  0
  7 17  1  0  0  0  0
  8  3  1  6  0  0  0
  8  2  1  0  0  0  0
  8  1  1  0  0  0  0
  9 16  1  0  0  0  0
  9  4  1  0  0  0  0
 10  5  2  0  0  0  0
 11 18  2  0  0  0  0
 13  2  1  0  0  0  0
 14 15  2  0  0  0  0
 15 21  1  0  0  0  0
 15 11  1  0  0  0  0
 16 26  1  6  0  0  0
 16  7  1  0  0  0  0
 17  3  2  0  0  0  0
 18 12  1  0  0  0  0
 19 25  1  0  0  0  0
 20 19  2  0  0  0  0
 21 23  2  0  0  0  0
 22 20  1  0  0  0  0
 23 19  1  0  0  0  0
 24 22  2  0  0  0  0
 24 21  1  0  0  0  0
 27 28  1  0  0  0  0
 27 26  1  0  0  0  0
 30 33  1  0  0  0  0
 30 29  1  1  0  0  0
 31 34  1  0  0  0  0
 32 31  1  0  0  0  0
 32 33  1  0  0  0  0
 33 28  1  1  0  0  0
 34 30  1  0  0  0  0
M  END
>  <MODEL>
4

>  <REMARK>
 VINA RESULT:      -9.8      2.002      2.942
  Name = 
  5 active torsions:
  status: ('A' for Active; 'I' for Inactive)
    1  A    between atoms: N_3  and  C_13
    2  A    between atoms: N_3  and  C_17
    3  A    between atoms: C_12  and  C_28
    4  A    between atoms: C_13  and  C_33
    5  A    between atoms: C_17  and  C_29
                            x       y       z     vdW  Elec       q    Type
                         _______ _______ _______ _____ _____    ______ ____

>  <TORSDO>
F 5

$$$$
=
 OpenBabel10252414593D

 34 39  0  0  1  0  0  0  0  0999 V2000
  190.2020  177.3690  146.3980 C   0  0  0  0  0  0  0  0  0  0  0  0
  191.2840  175.7860  144.8200 C   0  0  0  0  0  0  0  0  0  0  0  0
  189.4820  177.4450  143.9820 C   0  0  0  0  0  0  0  0  0  0  0  0
  188.6670  177.9670  141.8040 N   0  0  0  0  0  0  0  0  0  0  0  0
  192.0440  176.0000  147.1520 C   0  0  0  0  0  3  0  0  0  0  0  0
  192.0270  175.3230  145.8350 C   0  0  0  0  0  3  0  0  0  0  0  0
  190.9540  177.5490  142.0190 N   0  0  0  0  0  2  0  0  0  0  0  0
  190.6010  177.1400  144.9550 C   0  0  1  0  0  3  0  0  0  0  0  0
  189.1930  178.1590  140.4700 C   0  0  0  0  0  2  0  0  0  0  0  0
  191.1610  176.9640  147.4340 C   0  0  0  0  0  3  0  0  0  0  0  0
  188.1250  177.7930  144.4810 C   0  0  0  0  0  0  0  0  0  0  0  0
  189.0070  177.7450  146.7380 N   0  0  0  0  0  0  0  0  0  0  0  0
  191.2930  175.0190  143.5420 C   0  0  0  0  0  1  0  0  0  0  0  0
  187.3480  178.1870  142.2270 N   0  0  0  0  0  0  0  0  0  0  0  0
  187.0330  178.0960  143.4910 C   0  0  0  0  0  0  0  0  0  0  0  0
  190.7100  177.8690  140.6100 C   0  0  2  0  0  3  0  0  0  0  0  0
  189.7040  177.6130  142.6750 C   0  0  0  0  0  0  0  0  0  0  0  0
  187.9510  177.9720  145.7940 C   0  0  0  0  0  3  0  0  0  0  0  0
  183.2780  178.6280  143.3310 C   0  0  0  0  0  0  0  0  0  0  0  0
  182.9840  178.7600  144.6520 N   0  0  0  0  0  0  0  0  0  0  0  0
  185.6140  178.3070  143.8830 C   0  0  0  0  0  0  0  0  0  0  0  0
  183.9500  178.6820  145.6050 C   0  0  0  0  0  3  0  0  0  0  0  0
  184.5940  178.4040  142.9250 C   0  0  0  0  0  3  0  0  0  0  0  0
  185.2790  178.4580  145.2370 C   0  0  0  0  0  3  0  0  0  0  0  0
  182.2920  178.7160  142.4070 F   0  0  0  0  0  0  0  0  0  0  0  0
  191.0990  176.6780  139.7470 C   0  0  0  0  0  2  0  0  0  0  0  0
  190.8890  176.9830  138.3390 N   0  0  0  0  0  2  0  0  0  0  0  0
  189.8500  176.0910  137.8450 C   0  0  0  0  0  2  0  0  0  0  0  0
  187.1900  175.1840  137.1940 C   0  0  0  0  0  1  0  0  0  0  0  0
  187.7340  176.3580  136.3920 C   0  0  2  0  0  3  0  0  0  0  0  0
  187.9290  178.6170  136.8890 C   0  0  0  0  0  2  0  0  0  0  0  0
  189.3210  178.1700  136.6060 C   0  0  0  0  0  2  0  0  0  0  0  0
  189.2370  176.6500  136.5610 C   0  0  1  0  0  3  0  0  0  0  0  0
  187.0600  177.6240  136.7800 C   0  0  0  0  0  2  0  0  0  0  0  0
  1 12  2  0  0  0  0
  1 10  1  0  0  0  0
  2  8  1  0  0  0  0
  2  6  2  0  0  0  0
  3 11  1  0  0  0  0
  4 14  1  0  0  0  0
  4 17  1  0  0  0  0
  5 10  2  0  0  0  0
  6  5  1  0  0  0  0
  7 17  1  0  0  0  0
  8  3  1  6  0  0  0
  8  1  1  0  0  0  0
  9 16  1  0  0  0  0
  9  4  1  0  0  0  0
 11 18  2  0  0  0  0
 13  2  1  0  0  0  0
 14 15  2  0  0  0  0
 15 21  1  0  0  0  0
 15 11  1  0  0  0  0
 16 26  1  6  0  0  0
 16  7  1  0  0  0  0
 17  3  2  0  0  0  0
 18 12  1  0  0  0  0
 19 20  1  0  0  0  0
 20 22  2  0  0  0  0
 21 24  2  0  0  0  0
 23 19  2  0  0  0  0
 23 21  1  0  0  0  0
 24 22  1  0  0  0  0
 25 19  1  0  0  0  0
 27 26  1  0  0  0  0
 28 27  1  0  0  0  0
 30 33  1  0  0  0  0
 30 34  1  0  0  0  0
 30 29  1  1  0  0  0
 32 31  1  0  0  0  0
 33 32  1  0  0  0  0
 33 28  1  1  0  0  0
 34 31  1  0  0  0  0
M  END
>  <MODEL>
5

>  <REMARK>
 VINA RESULT:      -9.2      2.402      5.187
  Name = 
  5 active torsions:
  status: ('A' for Active; 'I' for Inactive)
    1  A    between atoms: N_3  and  C_13
    2  A    between atoms: N_3  and  C_17
    3  A    between atoms: C_12  and  C_28
    4  A    between atoms: C_13  and  C_33
    5  A    between atoms: C_17  and  C_29
                            x       y       z     vdW  Elec       q    Type
                         _______ _______ _______ _____ _____    ______ ____

>  <TORSDO>
F 5

$$$$
=
 OpenBabel10252414593D

 34 39  0  0  1  0  0  0  0  0999 V2000
  186.1560  178.8390  140.5260 C   0  0  0  0  0  0  0  0  0  0  0  0
  186.5160  177.7110  142.7080 C   0  0  0  0  0  0  0  0  0  0  0  0
  188.4100  177.7850  140.9450 C   0  0  0  0  0  0  0  0  0  0  0  0
  190.6920  177.1020  141.0070 N   0  0  0  0  0  0  0  0  0  0  0  0
  184.4640  178.9890  142.2430 C   0  0  0  0  0  3  0  0  0  0  0  0
  185.2700  178.0540  143.0620 C   0  0  0  0  0  3  0  0  0  0  0  0
  189.8150  178.0770  142.9370 N   0  0  0  0  0  2  0  0  0  0  0  0
  187.1920  178.4440  141.5580 C   0  0  0  0  0  0  0  0  0  0  0  0
  191.8070  177.1380  141.9290 C   0  0  0  0  0  2  0  0  0  0  0  0
  184.8730  179.3510  141.0220 C   0  0  0  0  0  2  0  0  0  0  0  0
  188.4430  177.4720  139.4910 C   0  0  0  0  0  0  0  0  0  0  0  0
  186.3040  178.5880  139.2610 N   0  0  0  0  0  0  0  0  0  0  0  0
  187.2400  176.7310  143.5670 C   0  0  0  0  0  1  0  0  0  0  0  0
  190.7220  176.6850  139.6680 N   0  0  0  0  0  0  0  0  0  0  0  0
  189.6680  176.8210  138.9080 C   0  0  0  0  0  0  0  0  0  0  0  0
  191.2210  177.7740  143.2150 C   0  0  2  0  0  3  0  0  0  0  0  0
  189.5560  177.6460  141.6170 C   0  0  0  0  0  0  0  0  0  0  0  0
  187.4460  177.9110  138.7170 C   0  0  0  0  0  3  0  0  0  0  0  0
  189.4160  174.6210  135.8240 C   0  0  0  0  0  0  0  0  0  0  0  0
  189.9500  175.4430  134.8820 N   0  0  0  0  0  0  0  0  0  0  0  0
  189.7420  176.3350  137.5040 C   0  0  0  0  0  0  0  0  0  0  0  0
  190.3910  176.6900  135.1970 C   0  0  0  0  0  3  0  0  0  0  0  0
  189.3070  175.0500  137.1480 C   0  0  0  0  0  3  0  0  0  0  0  0
  190.2980  177.1550  136.5110 C   0  0  0  0  0  3  0  0  0  0  0  0
  188.9910  173.3830  135.4780 F   0  0  0  0  0  0  0  0  0  0  0  0
  191.3070  176.7920  144.3730 C   0  0  0  0  0  2  0  0  0  0  0  0
  191.3370  177.5060  145.6410 N   0  0  0  0  0  2  0  0  0  0  0  0
  190.0350  178.1280  145.8270 C   0  0  0  0  0  2  0  0  0  0  0  0
  190.3380  178.2570  148.6930 C   0  0  0  0  0  1  0  0  0  0  0  0
  189.1230  177.5080  148.1610 C   0  0  2  0  0  3  0  0  0  0  0  0
  187.0850  178.2500  147.3340 C   0  0  0  0  0  2  0  0  0  0  0  0
  187.6820  177.4610  146.2200 C   0  0  0  0  0  2  0  0  0  0  0  0
  189.1220  177.2170  146.6480 C   0  0  1  0  0  3  0  0  0  0  0  0
  187.8770  178.2820  148.3940 C   0  0  0  0  0  2  0  0  0  0  0  0
  1 10  1  0  0  0  0
  1  8  1  0  0  0  0
  2  6  1  0  0  0  0
  2 13  1  0  0  0  0
  3  8  1  0  0  0  0
  3 17  2  0  0  0  0
  4 17  1  0  0  0  0
  4  9  1  0  0  0  0
  5  6  2  0  0  0  0
  7 16  1  0  0  0  0
  8  2  2  0  0  0  0
  9 16  1  0  0  0  0
 10  5  1  0  0  0  0
 11  3  1  0  0  0  0
 12  1  2  0  0  0  0
 14  4  1  0  0  0  0
 15 11  1  0  0  0  0
 15 14  2  0  0  0  0
 16 26  1  1  0  0  0
 17  7  1  0  0  0  0
 18 12  1  0  0  0  0
 18 11  2  0  0  0  0
 19 23  1  0  0  0  0
 20 22  1  0  0  0  0
 20 19  2  0  0  0  0
 21 15  1  0  0  0  0
 22 24  2  0  0  0  0
 23 21  2  0  0  0  0
 24 21  1  0  0  0  0
 25 19  1  0  0  0  0
 26 27  1  0  0  0  0
 27 28  1  0  0  0  0
 30 34  1  0  0  0  0
 30 29  1  6  0  0  0
 31 34  1  0  0  0  0
 32 33  1  0  0  0  0
 32 31  1  0  0  0  0
 33 28  1  6  0  0  0
 33 30  1  0  0  0  0
M  END
>  <MODEL>
6

>  <REMARK>
 VINA RESULT:      -9.1      3.616      7.175
  Name = 
  5 active torsions:
  status: ('A' for Active; 'I' for Inactive)
    1  A    between atoms: N_3  and  C_13
    2  A    between atoms: N_3  and  C_17
    3  A    between atoms: C_12  and  C_28
    4  A    between atoms: C_13  and  C_33
    5  A    between atoms: C_17  and  C_29
                            x       y       z     vdW  Elec       q    Type
                         _______ _______ _______ _____ _____    ______ ____

>  <TORSDO>
F 5

$$$$
=
 OpenBabel10252414593D

 34 39  0  0  1  0  0  0  0  0999 V2000
  184.9360  179.3440  142.0840 C   0  0  0  0  0  0  0  0  0  0  0  0
  186.0400  177.7460  143.6300 C   0  0  0  0  0  0  0  0  0  0  0  0
  187.0680  178.2430  141.3070 C   0  0  0  0  0  0  0  0  0  0  0  0
  189.1150  177.5840  140.2800 N   0  0  0  0  0  0  0  0  0  0  0  0
  184.0930  179.0790  144.3320 C   0  0  0  0  0  3  0  0  0  0  0  0
  185.0740  177.9870  144.5280 C   0  0  0  0  0  3  0  0  0  0  0  0
  189.1730  178.0800  142.5600 N   0  0  0  0  0  2  0  0  0  0  0  0
  186.2600  178.7310  142.4890 C   0  0  1  0  0  3  0  0  0  0  0  0
  190.5050  177.4160  140.6490 C   0  0  0  0  0  2  0  0  0  0  0  0
  184.0080  179.7170  143.1590 C   0  0  0  0  0  3  0  0  0  0  0  0
  186.4890  178.2730  139.9370 C   0  0  0  0  0  0  0  0  0  0  0  0
  184.5420  179.3940  140.8470 N   0  0  0  0  0  0  0  0  0  0  0  0
  186.9600  176.6010  143.8850 C   0  0  0  0  0  1  0  0  0  0  0  0
  188.5700  177.4870  138.9910 N   0  0  0  0  0  0  0  0  0  0  0  0
  187.3160  177.7860  138.7780 C   0  0  0  0  0  0  0  0  0  0  0  0
  190.5400  177.7330  142.1660 C   0  0  2  0  0  3  0  0  0  0  0  0
  188.3700  177.9620  141.4030 C   0  0  0  0  0  0  0  0  0  0  0  0
  185.3080  178.8700  139.7520 C   0  0  0  0  0  3  0  0  0  0  0  0
  185.2390  176.6580  135.8080 C   0  0  0  0  0  0  0  0  0  0  0  0
  185.8430  177.3430  134.8010 N   0  0  0  0  0  0  0  0  0  0  0  0
  186.7800  177.6370  137.3990 C   0  0  0  0  0  0  0  0  0  0  0  0
  186.9000  178.1650  135.0370 C   0  0  0  0  0  3  0  0  0  0  0  0
  185.6980  176.7890  137.1190 C   0  0  0  0  0  3  0  0  0  0  0  0
  187.3870  178.3230  136.3370 C   0  0  0  0  0  3  0  0  0  0  0  0
  184.1910  175.8430  135.5370 F   0  0  0  0  0  0  0  0  0  0  0  0
  190.9980  176.5110  142.9470 C   0  0  0  0  0  2  0  0  0  0  0  0
  192.0210  176.8820  143.9140 N   0  0  0  0  0  2  0  0  0  0  0  0
  191.3770  177.6670  144.9570 C   0  0  0  0  0  2  0  0  0  0  0  0
  192.0880  176.1770  147.3220 C   0  0  0  0  0  1  0  0  0  0  0  0
  190.6030  176.3050  147.0080 C   0  0  2  0  0  3  0  0  0  0  0  0
  189.0940  178.0390  147.3310 C   0  0  0  0  0  2  0  0  0  0  0  0
  189.0750  177.7880  145.8630 C   0  0  0  0  0  2  0  0  0  0  0  0
  190.2570  176.8600  145.6140 C   0  0  1  0  0  3  0  0  0  0  0  0
  189.9360  177.2320  147.9580 C   0  0  0  0  0  2  0  0  0  0  0  0
  1  8  1  0  0  0  0
  1 10  1  0  0  0  0
  2 13  1  0  0  0  0
  2  6  2  0  0  0  0
  3 17  2  0  0  0  0
  4  9  1  0  0  0  0
  4 17  1  0  0  0  0
  5  6  1  0  0  0  0
  8  3  1  6  0  0  0
  8  2  1  0  0  0  0
  9 16  1  0  0  0  0
 10  5  2  0  0  0  0
 11  3  1  0  0  0  0
 12  1  2  0  0  0  0
 14  4  1  0  0  0  0
 15 14  2  0  0  0  0
 15 11  1  0  0  0  0
 16  7  1  0  0  0  0
 16 26  1  1  0  0  0
 17  7  1  0  0  0  0
 18 11  2  0  0  0  0
 18 12  1  0  0  0  0
 19 23  1  0  0  0  0
 20 22  1  0  0  0  0
 20 19  2  0  0  0  0
 21 15  1  0  0  0  0
 22 24  2  0  0  0  0
 23 21  2  0  0  0  0
 24 21  1  0  0  0  0
 25 19  1  0  0  0  0
 26 27  1  0  0  0  0
 27 28  1  0  0  0  0
 30 29  1  1  0  0  0
 30 34  1  0  0  0  0
 31 34  1  0  0  0  0
 32 31  1  0  0  0  0
 33 28  1  1  0  0  0
 33 32  1  0  0  0  0
 33 30  1  0  0  0  0
M  END
>  <MODEL>
7

>  <REMARK>
 VINA RESULT:      -9.1      3.054      5.362
  Name = 
  5 active torsions:
  status: ('A' for Active; 'I' for Inactive)
    1  A    between atoms: N_3  and  C_13
    2  A    between atoms: N_3  and  C_17
    3  A    between atoms: C_12  and  C_28
    4  A    between atoms: C_13  and  C_33
    5  A    between atoms: C_17  and  C_29
                            x       y       z     vdW  Elec       q    Type
                         _______ _______ _______ _____ _____    ______ ____

>  <TORSDO>
F 5

$$$$
=
 OpenBabel10252414593D

 34 39  0  0  1  0  0  0  0  0999 V2000
  189.2720  177.5220  136.9830 C   0  0  0  0  0  0  0  0  0  0  0  0
  186.9370  176.7340  136.6780 C   0  0  0  0  0  0  0  0  0  0  0  0
  187.6540  177.8820  138.8850 C   0  0  0  0  0  0  0  0  0  0  0  0
  186.4300  178.5730  140.8090 N   0  0  0  0  0  0  0  0  0  0  0  0
  188.5670  176.6730  134.8340 C   0  0  0  0  0  3  0  0  0  0  0  0
  187.2640  176.3220  135.4450 C   0  0  0  0  0  3  0  0  0  0  0  0
  185.4070  178.8580  138.7300 N   0  0  0  0  0  2  0  0  0  0  0  0
  187.8300  177.7430  137.3880 C   0  0  0  0  0  0  0  0  0  0  0  0
  185.1620  179.1990  141.1160 C   0  0  0  0  0  2  0  0  0  0  0  0
  189.5370  177.2280  135.5690 C   0  0  0  0  0  2  0  0  0  0  0  0
  188.8080  177.6710  139.7990 C   0  0  0  0  0  0  0  0  0  0  0  0
  190.2310  177.4230  137.8530 N   0  0  0  0  0  0  0  0  0  0  0  0
  185.6240  176.2990  137.2330 C   0  0  0  0  0  1  0  0  0  0  0  0
  187.4600  178.2710  141.7130 N   0  0  0  0  0  0  0  0  0  0  0  0
  188.6070  177.8190  141.2830 C   0  0  0  0  0  0  0  0  0  0  0  0
  184.4780  179.3770  139.7370 C   0  0  2  0  0  3  0  0  0  0  0  0
  186.5420  178.3850  139.4260 C   0  0  0  0  0  0  0  0  0  0  0  0
  190.0240  177.5020  139.2700 C   0  0  0  0  0  3  0  0  0  0  0  0
  191.4160  178.1280  143.8180 C   0  0  0  0  0  0  0  0  0  0  0  0
  191.6400  176.8190  144.1080 N   0  0  0  0  0  0  0  0  0  0  0  0
  189.6540  177.4860  142.2850 C   0  0  0  0  0  0  0  0  0  0  0  0
  190.9180  175.8280  143.5210 C   0  0  0  0  0  3  0  0  0  0  0  0
  190.4250  178.4820  142.9010 C   0  0  0  0  0  3  0  0  0  0  0  0
  189.9170  176.1440  142.5990 C   0  0  0  0  0  3  0  0  0  0  0  0
  192.1570  179.0900  144.4170 F   0  0  0  0  0  0  0  0  0  0  0  0
  183.1820  178.5820  139.6870 C   0  0  0  0  0  2  0  0  0  0  0  0
  182.8950  177.9990  140.9890 N   0  0  0  0  0  2  0  0  0  0  0  0
  181.4820  178.2120  141.2660 C   0  0  0  0  0  2  0  0  0  0  0  0
  179.2060  179.9470  140.9040 C   0  0  0  0  0  1  0  0  0  0  0  0
  179.9470  180.0490  142.2300 C   0  0  2  0  0  3  0  0  0  0  0  0
  179.9040  178.7230  144.1350 C   0  0  0  0  0  2  0  0  0  0  0  0
  181.3250  178.7000  143.6890 C   0  0  0  0  0  2  0  0  0  0  0  0
  181.3040  179.3240  142.3000 C   0  0  1  0  0  3  0  0  0  0  0  0
  179.1480  179.4560  143.3330 C   0  0  0  0  0  2  0  0  0  0  0  0
  1  8  1  0  0  0  0
  1 12  2  0  0  0  0
  2 13  1  0  0  0  0
  2  8  2  0  0  0  0
  3 17  2  0  0  0  0
  3 11  1  0  0  0  0
  4  9  1  0  0  0  0
  4 14  1  0  0  0  0
  5  6  2  0  0  0  0
  5 10  1  0  0  0  0
  6  2  1  0  0  0  0
  7 17  1  0  0  0  0
  7 16  1  0  0  0  0
  8  3  1  0  0  0  0
 10  1  1  0  0  0  0
 11 15  1  0  0  0  0
 12 18  1  0  0  0  0
 15 14  2  0  0  0  0
 15 21  1  0  0  0  0
 16 26  1  1  0  0  0
 16  9  1  0  0  0  0
 17  4  1  0  0  0  0
 18 11  2  0  0  0  0
 19 20  1  0  0  0  0
 19 25  1  0  0  0  0
 21 24  2  0  0  0  0
 21 23  1  0  0  0  0
 22 20  2  0  0  0  0
 23 19  2  0  0  0  0
 24 22  1  0  0  0  0
 26 27  1  0  0  0  0
 27 28  1  0  0  0  0
 30 29  1  6  0  0  0
 30 33  1  0  0  0  0
 30 34  1  0  0  0  0
 32 31  1  0  0  0  0
 33 28  1  6  0  0  0
 33 32  1  0  0  0  0
 34 31  1  0  0  0  0
M  END
>  <MODEL>
8

>  <REMARK>
 VINA RESULT:      -8.9      3.563      9.187
  Name = 
  5 active torsions:
  status: ('A' for Active; 'I' for Inactive)
    1  A    between atoms: N_3  and  C_13
    2  A    between atoms: N_3  and  C_17
    3  A    between atoms: C_12  and  C_28
    4  A    between atoms: C_13  and  C_33
    5  A    between atoms: C_17  and  C_29
                            x       y       z     vdW  Elec       q    Type
                         _______ _______ _______ _____ _____    ______ ____

>  <TORSDO>
F 5

$$$$
=
 OpenBabel10252414593D

 34 39  0  0  1  0  0  0  0  0999 V2000
  190.2470  177.3600  146.3470 C   0  0  0  0  0  0  0  0  0  0  0  0
  191.3060  175.6980  144.8370 C   0  0  0  0  0  0  0  0  0  0  0  0
  189.5270  177.3440  143.9290 C   0  0  0  0  0  0  0  0  0  0  0  0
  188.7180  177.7850  141.7310 N   0  0  0  0  0  0  0  0  0  0  0  0
  192.0710  176.0000  147.1570 C   0  0  0  0  0  3  0  0  0  0  0  0
  192.0440  175.2680  145.8700 C   0  0  0  0  0  3  0  0  0  0  0  0
  190.9980  177.3470  141.9630 N   0  0  0  0  0  2  0  0  0  0  0  0
  190.6410  177.0660  144.9140 C   0  0  1  0  0  3  0  0  0  0  0  0
  189.2460  177.9130  140.3900 C   0  0  0  0  0  2  0  0  0  0  0  0
  191.2000  176.9870  147.3990 C   0  0  0  0  0  3  0  0  0  0  0  0
  188.1740  177.7310  144.4130 C   0  0  0  0  0  0  0  0  0  0  0  0
  189.0560  177.7660  146.6700 N   0  0  0  0  0  0  0  0  0  0  0  0
  191.3050  174.8780  143.5920 C   0  0  0  0  0  1  0  0  0  0  0  0
  187.4010  178.0400  142.1440 N   0  0  0  0  0  0  0  0  0  0  0  0
  187.0860  178.0060  143.4110 C   0  0  0  0  0  0  0  0  0  0  0  0
  190.7580  177.6090  140.5420 C   0  0  2  0  0  3  0  0  0  0  0  0
  189.7500  177.4540  142.6160 C   0  0  0  0  0  0  0  0  0  0  0  0
  188.0030  177.9670  145.7170 C   0  0  0  0  0  3  0  0  0  0  0  0
  183.3380  178.5820  143.2280 C   0  0  0  0  0  0  0  0  0  0  0  0
  183.0470  178.7720  144.5420 N   0  0  0  0  0  0  0  0  0  0  0  0
  185.6700  178.2520  143.7930 C   0  0  0  0  0  0  0  0  0  0  0  0
  184.0120  178.7190  145.4980 C   0  0  0  0  0  3  0  0  0  0  0  0
  184.6510  178.3240  142.8320 C   0  0  0  0  0  3  0  0  0  0  0  0
  185.3380  178.4620  145.1400 C   0  0  0  0  0  3  0  0  0  0  0  0
  182.3530  178.6460  142.3010 F   0  0  0  0  0  0  0  0  0  0  0  0
  191.1310  176.3780  139.7300 C   0  0  0  0  0  2  0  0  0  0  0  0
  191.9690  176.7530  138.6000 N   0  0  0  0  0  2  0  0  0  0  0  0
  191.6330  175.8720  137.4920 C   0  0  0  0  0  2  0  0  0  0  0  0
  190.6730  173.6700  135.8940 C   0  0  0  0  0  1  0  0  0  0  0  0
  192.0440  173.5100  136.5360 C   0  0  2  0  0  3  0  0  0  0  0  0
  194.1350  174.3350  135.9540 C   0  0  0  0  0  2  0  0  0  0  0  0
  193.8880  174.8610  137.3250 C   0  0  0  0  0  2  0  0  0  0  0  0
  192.4180  174.5640  137.5940 C   0  0  1  0  0  3  0  0  0  0  0  0
  193.1220  173.6010  135.5180 C   0  0  0  0  0  2  0  0  0  0  0  0
  1 12  2  0  0  0  0
  1 10  1  0  0  0  0
  2  8  1  0  0  0  0
  2  6  2  0  0  0  0
  3 11  1  0  0  0  0
  4 14  1  0  0  0  0
  4 17  1  0  0  0  0
  5 10  2  0  0  0  0
  6  5  1  0  0  0  0
  7 17  1  0  0  0  0
  8  3  1  6  0  0  0
  8  1  1  0  0  0  0
  9 16  1  0  0  0  0
  9  4  1  0  0  0  0
 11 18  2  0  0  0  0
 13  2  1  0  0  0  0
 14 15  2  0  0  0  0
 15 21  1  0  0  0  0
 15 11  1  0  0  0  0
 16 26  1  6  0  0  0
 16  7  1  0  0  0  0
 17  3  2  0  0  0  0
 18 12  1  0  0  0  0
 19 20  1  0  0  0  0
 20 22  2  0  0  0  0
 21 24  2  0  0  0  0
 23 19  2  0  0  0  0
 23 21  1  0  0  0  0
 24 22  1  0  0  0  0
 25 19  1  0  0  0  0
 27 26  1  0  0  0  0
 28 27  1  0  0  0  0
 30 29  1  6  0  0  0
 30 33  1  0  0  0  0
 31 32  1  0  0  0  0
 32 33  1  0  0  0  0
 33 28  1  6  0  0  0
 34 31  1  0  0  0  0
 34 30  1  0  0  0  0
M  END
>  <MODEL>
9

>  <REMARK>
 VINA RESULT:      -8.8      3.375      5.308
  Name = 
  5 active torsions:
  status: ('A' for Active; 'I' for Inactive)
    1  A    between atoms: N_3  and  C_13
    2  A    between atoms: N_3  and  C_17
    3  A    between atoms: C_12  and  C_28
    4  A    between atoms: C_13  and  C_33
    5  A    between atoms: C_17  and  C_29
                            x       y       z     vdW  Elec       q    Type
                         _______ _______ _______ _____ _____    ______ ____

>  <TORSDO>
F 5

$$$$
