=
 OpenBabel10262420483D

 28 31  0  0  1  0  0  0  0  0999 V2000
  188.5780  177.5460  141.1790 C   0  0  1  0  0  3  0  0  0  0  0  0
  191.4210  176.6260  139.1410 C   0  0  0  0  0  2  0  0  0  0  0  0
  189.5540  177.7750  140.0940 N   0  0  0  0  0  0  0  0  0  0  0  0
  190.1970  176.2300  138.3590 C   0  0  0  0  0  2  0  0  0  0  0  0
  190.8720  177.2290  140.4090 C   0  0  0  0  0  2  0  0  0  0  0  0
  189.1040  177.1550  138.8520 C   0  0  0  0  0  2  0  0  0  0  0  0
  188.7520  175.7330  142.8210 O   0  0  0  0  0  1  0  0  0  0  0  0
  189.1140  177.0510  142.5410 C   0  0  2  0  0  3  0  0  0  0  0  0
  188.7110  177.9710  143.6850 C   0  0  0  0  0  2  0  0  0  0  0  0
  188.3820  177.1650  144.9370 C   0  0  2  0  0  3  0  0  0  0  0  0
  187.2290  178.1470  147.5510 C   0  0  0  0  0  2  0  0  0  0  0  0
  186.8720  177.2140  145.2280 C   0  0  0  0  0  2  0  0  0  0  0  0
  190.5870  176.9350  146.0880 C   0  0  0  0  0  1  0  0  0  0  0  0
  189.2490  177.6460  146.1110 C   0  0  2  0  0  3  0  0  0  0  0  0
  188.5630  177.3960  147.4510 C   0  0  0  0  0  2  0  0  0  0  0  0
  186.5280  178.3400  146.1990 C   0  0  0  0  0  2  0  0  0  0  0  0
  187.6250  178.7210  141.3460 C   0  0  0  0  0  2  0  0  0  0  0  0
  186.2750  178.4000  140.7180 C   0  0  0  0  0  2  0  0  0  0  0  0
  185.4050  179.4270  142.7830 C   0  0  0  0  0  3  0  0  0  0  0  0
  183.7020  178.4570  141.3090 C   0  0  2  0  0  0  0  0  0  0  0  0
  183.1310  178.9010  143.6380 C   0  0  0  0  0  0  0  0  0  0  0  0
  185.1420  178.8130  141.6180 C   0  0  0  0  0  0  0  0  0  0  0  0
  183.9000  179.8040  139.1570 C   0  0  0  0  0  1  0  0  0  0  0  0
  182.8550  178.2490  142.4320 O   0  0  0  0  0  0  0  0  0  0  0  0
  183.4050  177.5680  140.1250 C   0  0  0  0  0  2  0  0  0  0  0  0
  182.3750  178.7350  144.6290 O   0  0  0  0  0  0  0  0  0  0  0  0
  184.3070  179.8300  143.7380 C   0  0  0  0  0  2  0  0  0  0  0  0
  182.9850  179.0370  140.0970 C   0  0  1  0  0  3  0  0  0  0  0  0
  1 17  1  1  0  0  0
  1  8  1  0  0  0  0
  2  5  1  0  0  0  0
  3  5  1  0  0  0  0
  3  1  1  0  0  0  0
  4  6  1  0  0  0  0
  4  2  1  0  0  0  0
  6  3  1  0  0  0  0
  8  7  1  1  0  0  0
  8  9  1  0  0  0  0
 10  9  1  6  0  0  0
 10 12  1  0  0  0  0
 10 14  1  0  0  0  0
 12 16  1  0  0  0  0
 14 13  1  1  0  0  0
 14 15  1  0  0  0  0
 15 11  1  0  0  0  0
 16 11  1  0  0  0  0
 18 17  1  0  0  0  0
 18 22  1  0  0  0  0
 19 27  1  0  0  0  0
 20 25  1  6  0  0  0
 20 22  1  0  0  0  0
 20 24  1  0  0  0  0
 21 27  1  0  0  0  0
 21 26  2  0  0  0  0
 22 19  2  0  0  0  0
 24 21  1  0  0  0  0
 28 23  1  6  0  0  0
 28 25  1  0  0  0  0
 28 20  1  0  0  0  0
M  END
>  <MODEL>
1

>  <REMARK>
 VINA RESULT:      -8.2      0.000      0.000
  Name = 
  7 active torsions:
  status: ('A' for Active; 'I' for Inactive)
    1  A    between atoms: C_2  and  C_3
    2  A    between atoms: C_2  and  C_26
    3  A    between atoms: C_10  and  C_13
    4  A    between atoms: C_10  and  C_17
    5  A    between atoms: N_16  and  C_27
    6  A    between atoms: C_17  and  C_27
    7  A    between atoms: C_26  and  C_27
                            x       y       z     vdW  Elec       q    Type
                         _______ _______ _______ _____ _____    ______ ____

>  <TORSDO>
F 7

$$$$
=
 OpenBabel10262420483D

 28 31  0  0  1  0  0  0  0  0999 V2000
  187.7490  178.5600  140.8160 C   0  0  1  0  0  3  0  0  0  0  0  0
  189.9030  176.9860  138.3730 C   0  0  0  0  0  2  0  0  0  0  0  0
  188.4690  178.5110  139.5270 N   0  0  0  0  0  0  0  0  0  0  0  0
  188.4920  176.7010  137.9360 C   0  0  0  0  0  2  0  0  0  0  0  0
  189.7430  177.8050  139.6290 C   0  0  0  0  0  2  0  0  0  0  0  0
  187.6680  177.8330  138.5110 C   0  0  0  0  0  2  0  0  0  0  0  0
  185.6210  179.6790  140.3340 O   0  0  0  0  0  1  0  0  0  0  0  0
  186.2060  178.4960  140.7850 C   0  0  2  0  0  3  0  0  0  0  0  0
  185.6210  178.0890  142.1300 C   0  0  0  0  0  2  0  0  0  0  0  0
  184.5510  179.0780  142.5760 C   0  0  2  0  0  3  0  0  0  0  0  0
  182.7570  178.9350  145.0030 C   0  0  0  0  0  2  0  0  0  0  0  0
  184.9190  179.6960  143.9360 C   0  0  0  0  0  2  0  0  0  0  0  0
  182.5710  178.4770  141.1770 C   0  0  0  0  0  1  0  0  0  0  0  0
  183.1730  178.3980  142.5650 C   0  0  2  0  0  3  0  0  0  0  0  0
  182.2220  179.0450  143.5690 C   0  0  0  0  0  2  0  0  0  0  0  0
  184.2890  178.9200  145.0900 C   0  0  0  0  0  2  0  0  0  0  0  0
  188.3290  177.5850  141.8320 C   0  0  0  0  0  2  0  0  0  0  0  0
  189.2590  178.3150  142.7920 C   0  0  0  0  0  2  0  0  0  0  0  0
  187.8430  177.6460  144.6960 C   0  0  0  0  0  3  0  0  0  0  0  0
  190.2550  177.6280  145.1390 C   0  0  2  0  0  0  0  0  0  0  0  0
  188.7100  177.6530  147.0260 C   0  0  0  0  0  0  0  0  0  0  0  0
  189.0800  177.8240  144.2030 C   0  0  0  0  0  0  0  0  0  0  0  0
  191.1730  175.8940  143.5150 C   0  0  0  0  0  1  0  0  0  0  0  0
  189.9980  177.8500  146.5200 O   0  0  0  0  0  0  0  0  0  0  0  0
  191.6330  178.0420  144.6820 C   0  0  0  0  0  2  0  0  0  0  0  0
  188.4810  177.8300  148.2490 O   0  0  0  0  0  0  0  0  0  0  0  0
  187.6080  177.1890  146.1150 C   0  0  0  0  0  2  0  0  0  0  0  0
  191.3100  176.5610  144.8740 C   0  0  1  0  0  3  0  0  0  0  0  0
  1 17  1  1  0  0  0
  2  5  1  0  0  0  0
  3  5  1  0  0  0  0
  3  1  1  0  0  0  0
  4  2  1  0  0  0  0
  4  6  1  0  0  0  0
  6  3  1  0  0  0  0
  8  7  1  1  0  0  0
  8  1  1  0  0  0  0
  8  9  1  0  0  0  0
 10  9  1  1  0  0  0
 10 12  1  0  0  0  0
 11 16  1  0  0  0  0
 12 16  1  0  0  0  0
 14 13  1  6  0  0  0
 14 10  1  0  0  0  0
 14 15  1  0  0  0  0
 15 11  1  0  0  0  0
 17 18  1  0  0  0  0
 18 22  1  0  0  0  0
 19 27  1  0  0  0  0
 20 25  1  6  0  0  0
 20 24  1  0  0  0  0
 21 26  2  0  0  0  0
 22 19  2  0  0  0  0
 22 20  1  0  0  0  0
 24 21  1  0  0  0  0
 25 28  1  0  0  0  0
 27 21  1  0  0  0  0
 28 23  1  6  0  0  0
 28 20  1  0  0  0  0
M  END
>  <MODEL>
2

>  <REMARK>
 VINA RESULT:      -8.2      1.942      5.703
  Name = 
  7 active torsions:
  status: ('A' for Active; 'I' for Inactive)
    1  A    between atoms: C_2  and  C_3
    2  A    between atoms: C_2  and  C_26
    3  A    between atoms: C_10  and  C_13
    4  A    between atoms: C_10  and  C_17
    5  A    between atoms: N_16  and  C_27
    6  A    between atoms: C_17  and  C_27
    7  A    between atoms: C_26  and  C_27
                            x       y       z     vdW  Elec       q    Type
                         _______ _______ _______ _____ _____    ______ ____

>  <TORSDO>
F 7

$$$$
=
 OpenBabel10262420483D

 28 31  0  0  1  0  0  0  0  0999 V2000
  187.7630  177.7370  142.6270 C   0  0  1  0  0  3  0  0  0  0  0  0
  191.2180  177.0560  141.8010 C   0  0  0  0  0  2  0  0  0  0  0  0
  188.8280  177.0550  141.8650 N   0  0  0  0  0  0  0  0  0  0  0  0
  190.7900  175.9700  142.7500 C   0  0  0  0  0  2  0  0  0  0  0  0
  189.9880  177.9140  141.6410 C   0  0  0  0  0  2  0  0  0  0  0  0
  189.2900  175.8630  142.5720 C   0  0  0  0  0  2  0  0  0  0  0  0
  186.7470  178.7560  140.6400 O   0  0  0  0  0  1  0  0  0  0  0  0
  186.4810  178.1470  141.8670 C   0  0  2  0  0  3  0  0  0  0  0  0
  185.5690  179.0250  142.7130 C   0  0  0  0  0  2  0  0  0  0  0  0
  184.2880  178.2820  143.0760 C   0  0  2  0  0  3  0  0  0  0  0  0
  181.4290  179.1000  142.5400 C   0  0  0  0  0  2  0  0  0  0  0  0
  183.5190  177.8810  141.8060 C   0  0  0  0  0  2  0  0  0  0  0  0
  183.9240  178.8720  145.4750 C   0  0  0  0  0  1  0  0  0  0  0  0
  183.4560  179.1230  144.0560 C   0  0  2  0  0  3  0  0  0  0  0  0
  181.9680  178.8010  143.9460 C   0  0  0  0  0  2  0  0  0  0  0  0
  182.4750  178.9290  141.4310 C   0  0  0  0  0  2  0  0  0  0  0  0
  187.4360  177.0140  143.9250 C   0  0  0  0  0  2  0  0  0  0  0  0
  187.6040  177.9550  145.1110 C   0  0  0  0  0  2  0  0  0  0  0  0
  190.0670  178.0530  145.1330 C   0  0  0  0  0  3  0  0  0  0  0  0
  189.0470  177.1030  147.1510 C   0  0  2  0  0  0  0  0  0  0  0  0
  191.4080  176.6770  146.7110 C   0  0  0  0  0  0  0  0  0  0  0  0
  188.9330  177.7500  145.7860 C   0  0  0  0  0  0  0  0  0  0  0  0
  187.6510  179.0100  148.0990 C   0  0  0  0  0  1  0  0  0  0  0  0
  190.2300  176.3490  147.3880 O   0  0  0  0  0  0  0  0  0  0  0  0
  187.8050  176.5460  147.8040 C   0  0  0  0  0  2  0  0  0  0  0  0
  192.4610  176.0260  146.9300 O   0  0  0  0  0  0  0  0  0  0  0  0
  191.4270  177.8340  145.7520 C   0  0  0  0  0  2  0  0  0  0  0  0
  188.4880  177.7770  148.3970 C   0  0  1  0  0  3  0  0  0  0  0  0
  1 17  1  1  0  0  0
  2  4  1  0  0  0  0
  3  6  1  0  0  0  0
  3  1  1  0  0  0  0
  5  2  1  0  0  0  0
  5  3  1  0  0  0  0
  6  4  1  0  0  0  0
  8  7  1  6  0  0  0
  8  1  1  0  0  0  0
  8  9  1  0  0  0  0
 10  9  1  6  0  0  0
 10 14  1  0  0  0  0
 11 15  1  0  0  0  0
 12 10  1  0  0  0  0
 14 13  1  1  0  0  0
 15 14  1  0  0  0  0
 16 12  1  0  0  0  0
 16 11  1  0  0  0  0
 17 18  1  0  0  0  0
 18 22  1  0  0  0  0
 19 27  1  0  0  0  0
 19 22  2  0  0  0  0
 20 24  1  0  0  0  0
 20 25  1  6  0  0  0
 20 28  1  0  0  0  0
 21 26  2  0  0  0  0
 21 24  1  0  0  0  0
 22 20  1  0  0  0  0
 25 28  1  0  0  0  0
 27 21  1  0  0  0  0
 28 23  1  6  0  0  0
M  END
>  <MODEL>
3

>  <REMARK>
 VINA RESULT:      -7.7      2.249      6.414
  Name = 
  7 active torsions:
  status: ('A' for Active; 'I' for Inactive)
    1  A    between atoms: C_2  and  C_3
    2  A    between atoms: C_2  and  C_26
    3  A    between atoms: C_10  and  C_13
    4  A    between atoms: C_10  and  C_17
    5  A    between atoms: N_16  and  C_27
    6  A    between atoms: C_17  and  C_27
    7  A    between atoms: C_26  and  C_27
                            x       y       z     vdW  Elec       q    Type
                         _______ _______ _______ _____ _____    ______ ____

>  <TORSDO>
F 7

$$$$
=
 OpenBabel10262420483D

 28 31  0  0  1  0  0  0  0  0999 V2000
  186.5700  177.7550  145.5690 C   0  0  1  0  0  3  0  0  0  0  0  0
  189.3510  177.3550  147.8480 C   0  0  0  0  0  2  0  0  0  0  0  0
  187.1920  177.2840  146.8230 N   0  0  0  0  0  0  0  0  0  0  0  0
  188.5790  178.5530  148.3320 C   0  0  0  0  0  2  0  0  0  0  0  0
  188.5850  176.8860  146.6360 C   0  0  0  0  0  2  0  0  0  0  0  0
  187.1640  178.3300  147.8410 C   0  0  0  0  0  2  0  0  0  0  0  0
  184.3380  178.4180  146.3370 O   0  0  0  0  0  1  0  0  0  0  0  0
  185.4830  178.8490  145.6680 C   0  0  2  0  0  3  0  0  0  0  0  0
  185.1220  179.4240  144.3060 C   0  0  0  0  0  2  0  0  0  0  0  0
  184.2140  178.4690  143.5390 C   0  0  2  0  0  3  0  0  0  0  0  0
  183.0740  178.7890  140.7590 C   0  0  0  0  0  2  0  0  0  0  0  0
  184.9190  177.9530  142.2730 C   0  0  0  0  0  2  0  0  0  0  0  0
  181.9380  178.9650  144.4420 C   0  0  0  0  0  1  0  0  0  0  0  0
  182.8640  179.1460  143.2560 C   0  0  2  0  0  3  0  0  0  0  0  0
  182.2030  178.5740  142.0040 C   0  0  0  0  0  2  0  0  0  0  0  0
  184.5790  178.8110  141.0570 C   0  0  0  0  0  2  0  0  0  0  0  0
  187.6090  178.0930  144.5080 C   0  0  0  0  0  2  0  0  0  0  0  0
  188.0770  176.8260  143.8050 C   0  0  0  0  0  2  0  0  0  0  0  0
  188.1580  177.8600  141.5690 C   0  0  0  0  0  3  0  0  0  0  0  0
  190.1610  176.5930  142.2010 C   0  0  2  0  0  0  0  0  0  0  0  0
  189.7830  177.1050  139.8460 C   0  0  0  0  0  0  0  0  0  0  0  0
  188.7860  177.1470  142.5170 C   0  0  0  0  0  0  0  0  0  0  0  0
  191.0540  177.8190  144.2460 C   0  0  0  0  0  1  0  0  0  0  0  0
  190.4350  176.3510  140.8260 O   0  0  0  0  0  0  0  0  0  0  0  0
  190.7890  175.6020  143.1510 C   0  0  0  0  0  2  0  0  0  0  0  0
  190.0350  176.9070  138.6300 O   0  0  0  0  0  0  0  0  0  0  0  0
  188.8130  178.1800  140.2460 C   0  0  0  0  0  2  0  0  0  0  0  0
  191.3860  177.0020  143.0080 C   0  0  1  0  0  3  0  0  0  0  0  0
  1 17  1  6  0  0  0
  1  8  1  0  0  0  0
  1  3  1  0  0  0  0
  2  4  1  0  0  0  0
  3  6  1  0  0  0  0
  5  3  1  0  0  0  0
  5  2  1  0  0  0  0
  6  4  1  0  0  0  0
  8  7  1  6  0  0  0
  9  8  1  0  0  0  0
 10  9  1  6  0  0  0
 11 16  1  0  0  0  0
 11 15  1  0  0  0  0
 12 10  1  0  0  0  0
 14 10  1  0  0  0  0
 14 13  1  1  0  0  0
 15 14  1  0  0  0  0
 16 12  1  0  0  0  0
 18 17  1  0  0  0  0
 19 22  2  0  0  0  0
 20 22  1  0  0  0  0
 20 28  1  0  0  0  0
 20 25  1  1  0  0  0
 21 27  1  0  0  0  0
 21 24  1  0  0  0  0
 22 18  1  0  0  0  0
 24 20  1  0  0  0  0
 26 21  2  0  0  0  0
 27 19  1  0  0  0  0
 28 25  1  0  0  0  0
 28 23  1  1  0  0  0
M  END
>  <MODEL>
4

>  <REMARK>
 VINA RESULT:      -7.6      2.111      7.062
  Name = 
  7 active torsions:
  status: ('A' for Active; 'I' for Inactive)
    1  A    between atoms: C_2  and  C_3
    2  A    between atoms: C_2  and  C_26
    3  A    between atoms: C_10  and  C_13
    4  A    between atoms: C_10  and  C_17
    5  A    between atoms: N_16  and  C_27
    6  A    between atoms: C_17  and  C_27
    7  A    between atoms: C_26  and  C_27
                            x       y       z     vdW  Elec       q    Type
                         _______ _______ _______ _____ _____    ______ ____

>  <TORSDO>
F 7

$$$$
=
 OpenBabel10262420483D

 28 31  0  0  1  0  0  0  0  0999 V2000
  185.8780  178.8910  142.1980 C   0  0  1  0  0  3  0  0  0  0  0  0
  184.1090  178.2200  139.1140 C   0  0  0  0  0  2  0  0  0  0  0  0
  184.8930  179.2100  141.1440 N   0  0  0  0  0  0  0  0  0  0  0  0
  183.2110  177.7470  140.2260 C   0  0  0  0  0  2  0  0  0  0  0  0
  185.3250  178.7590  139.8240 C   0  0  0  0  0  2  0  0  0  0  0  0
  183.6070  178.5790  141.4280 C   0  0  0  0  0  2  0  0  0  0  0  0
  185.0510  179.5900  144.3980 O   0  0  0  0  0  1  0  0  0  0  0  0
  185.3420  178.4900  143.5900 C   0  0  2  0  0  3  0  0  0  0  0  0
  186.2770  177.5300  144.3110 C   0  0  0  0  0  2  0  0  0  0  0  0
  187.0730  178.2570  145.3890 C   0  0  2  0  0  3  0  0  0  0  0  0
  189.0340  177.0990  147.3750 C   0  0  0  0  0  2  0  0  0  0  0  0
  188.5820  178.1410  145.1160 C   0  0  0  0  0  2  0  0  0  0  0  0
  185.4410  178.5000  147.2640 C   0  0  0  0  0  1  0  0  0  0  0  0
  186.6610  177.7440  146.7780 C   0  0  2  0  0  3  0  0  0  0  0  0
  187.7930  177.9000  147.7900 C   0  0  0  0  0  2  0  0  0  0  0  0
  189.1940  176.9550  145.8560 C   0  0  0  0  0  2  0  0  0  0  0  0
  186.9440  177.9210  141.7080 C   0  0  0  0  0  2  0  0  0  0  0  0
  188.3100  178.5940  141.7070 C   0  0  0  0  0  2  0  0  0  0  0  0
  189.1150  178.4010  139.3850 C   0  0  0  0  0  3  0  0  0  0  0  0
  190.1610  176.8570  140.9780 C   0  0  2  0  0  0  0  0  0  0  0  0
  190.3230  176.3790  138.5920 C   0  0  0  0  0  0  0  0  0  0  0  0
  189.2120  177.9960  140.6610 C   0  0  0  0  0  0  0  0  0  0  0  0
  191.3290  178.3830  142.6490 C   0  0  0  0  0  1  0  0  0  0  0  0
  190.4170  175.9450  139.9170 O   0  0  0  0  0  0  0  0  0  0  0  0
  190.1210  176.2300  142.3510 C   0  0  0  0  0  2  0  0  0  0  0  0
  190.5670  175.5820  137.6510 O   0  0  0  0  0  0  0  0  0  0  0  0
  189.9720  177.8090  138.2920 C   0  0  0  0  0  2  0  0  0  0  0  0
  191.3390  177.0480  141.9240 C   0  0  1  0  0  3  0  0  0  0  0  0
  1 17  1  6  0  0  0
  1  8  1  0  0  0  0
  2  5  1  0  0  0  0
  2  4  1  0  0  0  0
  3  6  1  0  0  0  0
  3  1  1  0  0  0  0
  4  6  1  0  0  0  0
  5  3  1  0  0  0  0
  8  9  1  0  0  0  0
  8  7  1  1  0  0  0
 10  9  1  6  0  0  0
 10 14  1  0  0  0  0
 11 15  1  0  0  0  0
 12 10  1  0  0  0  0
 12 16  1  0  0  0  0
 14 13  1  1  0  0  0
 14 15  1  0  0  0  0
 16 11  1  0  0  0  0
 18 17  1  0  0  0  0
 19 22  2  0  0  0  0
 20 28  1  0  0  0  0
 20 25  1  1  0  0  0
 21 24  1  0  0  0  0
 22 20  1  0  0  0  0
 22 18  1  0  0  0  0
 24 20  1  0  0  0  0
 26 21  2  0  0  0  0
 27 21  1  0  0  0  0
 27 19  1  0  0  0  0
 28 25  1  0  0  0  0
 28 23  1  1  0  0  0
M  END
>  <MODEL>
5

>  <REMARK>
 VINA RESULT:      -7.6      1.946      5.884
  Name = 
  7 active torsions:
  status: ('A' for Active; 'I' for Inactive)
    1  A    between atoms: C_2  and  C_3
    2  A    between atoms: C_2  and  C_26
    3  A    between atoms: C_10  and  C_13
    4  A    between atoms: C_10  and  C_17
    5  A    between atoms: N_16  and  C_27
    6  A    between atoms: C_17  and  C_27
    7  A    between atoms: C_26  and  C_27
                            x       y       z     vdW  Elec       q    Type
                         _______ _______ _______ _____ _____    ______ ____

>  <TORSDO>
F 7

$$$$
=
 OpenBabel10262420483D

 28 31  0  0  1  0  0  0  0  0999 V2000
  186.4220  178.0800  142.9040 C   0  0  1  0  0  3  0  0  0  0  0  0
  183.1890  178.8880  144.3130 C   0  0  0  0  0  2  0  0  0  0  0  0
  185.4370  179.0020  143.5060 N   0  0  0  0  0  0  0  0  0  0  0  0
  184.1040  178.6280  145.4790 C   0  0  0  0  0  2  0  0  0  0  0  0
  184.0680  178.6920  143.1030 C   0  0  0  0  0  2  0  0  0  0  0  0
  185.4930  178.9410  144.9640 C   0  0  0  0  0  2  0  0  0  0  0  0
  186.6220  179.5730  140.9680 O   0  0  0  0  0  1  0  0  0  0  0  0
  187.2770  178.6050  141.7290 C   0  0  2  0  0  3  0  0  0  0  0  0
  187.7830  177.4780  140.8390 C   0  0  0  0  0  2  0  0  0  0  0  0
  188.4450  178.0350  139.5840 C   0  0  2  0  0  3  0  0  0  0  0  0
  188.6430  176.7690  136.8490 C   0  0  0  0  0  2  0  0  0  0  0  0
  187.4020  178.2530  138.4760 C   0  0  0  0  0  2  0  0  0  0  0  0
  190.8660  177.5140  139.9130 C   0  0  0  0  0  1  0  0  0  0  0  0
  189.6090  177.1260  139.1600 C   0  0  2  0  0  3  0  0  0  0  0  0
  189.8690  177.2140  137.6580 C   0  0  0  0  0  2  0  0  0  0  0  0
  187.3080  177.0410  137.5520 C   0  0  0  0  0  2  0  0  0  0  0  0
  187.2800  177.3930  143.9570 C   0  0  0  0  0  2  0  0  0  0  0  0
  188.6250  178.0950  144.0830 C   0  0  0  0  0  2  0  0  0  0  0  0
  189.0490  177.1280  146.3110 C   0  0  0  0  0  3  0  0  0  0  0  0
  190.9640  177.0860  144.7790 C   0  0  2  0  0  0  0  0  0  0  0  0
  191.3600  176.8060  147.1690 C   0  0  0  0  0  0  0  0  0  0  0  0
  189.5120  177.3980  145.0800 C   0  0  0  0  0  0  0  0  0  0  0  0
  190.1820  175.6280  142.8440 C   0  0  0  0  0  1  0  0  0  0  0  0
  191.8490  177.0980  145.8930 O   0  0  0  0  0  0  0  0  0  0  0  0
  191.5700  177.5870  143.4900 C   0  0  0  0  0  2  0  0  0  0  0  0
  192.1410  176.7960  148.1540 O   0  0  0  0  0  0  0  0  0  0  0  0
  189.9090  176.4620  147.3580 C   0  0  0  0  0  2  0  0  0  0  0  0
  191.3530  176.0890  143.6960 C   0  0  1  0  0  3  0  0  0  0  0  0
  1  3  1  0  0  0  0
  1 17  1  1  0  0  0
  2  4  1  0  0  0  0
  3  6  1  0  0  0  0
  5  3  1  0  0  0  0
  5  2  1  0  0  0  0
  6  4  1  0  0  0  0
  8  7  1  6  0  0  0
  8  1  1  0  0  0  0
  9  8  1  0  0  0  0
 10  9  1  1  0  0  0
 11 16  1  0  0  0  0
 11 15  1  0  0  0  0
 12 10  1  0  0  0  0
 14 10  1  0  0  0  0
 14 13  1  1  0  0  0
 15 14  1  0  0  0  0
 16 12  1  0  0  0  0
 17 18  1  0  0  0  0
 18 22  1  0  0  0  0
 19 27  1  0  0  0  0
 20 25  1  6  0  0  0
 20 22  1  0  0  0  0
 20 24  1  0  0  0  0
 21 27  1  0  0  0  0
 21 26  2  0  0  0  0
 22 19  2  0  0  0  0
 24 21  1  0  0  0  0
 25 28  1  0  0  0  0
 28 23  1  6  0  0  0
 28 20  1  0  0  0  0
M  END
>  <MODEL>
6

>  <REMARK>
 VINA RESULT:      -7.6      2.499      7.508
  Name = 
  7 active torsions:
  status: ('A' for Active; 'I' for Inactive)
    1  A    between atoms: C_2  and  C_3
    2  A    between atoms: C_2  and  C_26
    3  A    between atoms: C_10  and  C_13
    4  A    between atoms: C_10  and  C_17
    5  A    between atoms: N_16  and  C_27
    6  A    between atoms: C_17  and  C_27
    7  A    between atoms: C_26  and  C_27
                            x       y       z     vdW  Elec       q    Type
                         _______ _______ _______ _____ _____    ______ ____

>  <TORSDO>
F 7

$$$$
=
 OpenBabel10262420483D

 28 31  0  0  1  0  0  0  0  0999 V2000
  189.7490  176.6260  142.3780 C   0  0  1  0  0  3  0  0  0  0  0  0
  191.8570  178.6540  144.5070 C   0  0  0  0  0  2  0  0  0  0  0  0
  191.0550  177.0590  142.9170 N   0  0  0  0  0  0  0  0  0  0  0  0
  191.6540  177.3510  145.2330 C   0  0  0  0  0  2  0  0  0  0  0  0
  191.0830  178.4870  143.2240 C   0  0  0  0  0  2  0  0  0  0  0  0
  191.3760  176.3360  144.1440 C   0  0  0  0  0  2  0  0  0  0  0  0
  187.8030  175.4490  143.2950 O   0  0  0  0  0  1  0  0  0  0  0  0
  188.5350  176.6360  143.3320 C   0  0  2  0  0  3  0  0  0  0  0  0
  187.6250  177.8330  143.0910 C   0  0  0  0  0  2  0  0  0  0  0  0
  186.2550  177.6070  143.7200 C   0  0  2  0  0  3  0  0  0  0  0  0
  184.0840  179.6350  144.2670 C   0  0  0  0  0  2  0  0  0  0  0  0
  185.1390  177.9400  142.7150 C   0  0  0  0  0  2  0  0  0  0  0  0
  186.7300  177.5700  146.1720 C   0  0  0  0  0  1  0  0  0  0  0  0
  186.1490  178.3900  145.0370 C   0  0  2  0  0  3  0  0  0  0  0  0
  184.7010  178.7490  145.3590 C   0  0  0  0  0  2  0  0  0  0  0  0
  184.6630  179.3830  142.8690 C   0  0  0  0  0  2  0  0  0  0  0  0
  189.4260  177.3010  141.0530 C   0  0  0  0  0  2  0  0  0  0  0  0
  190.4310  176.8830  139.9880 C   0  0  0  0  0  2  0  0  0  0  0  0
  189.3590  178.5160  138.4830 C   0  0  0  0  0  3  0  0  0  0  0  0
  190.1680  176.4730  137.3930 C   0  0  2  0  0  0  0  0  0  0  0  0
  188.5310  177.8600  136.2330 C   0  0  0  0  0  0  0  0  0  0  0  0
  190.0010  177.3440  138.6210 C   0  0  0  0  0  0  0  0  0  0  0  0
  192.6830  176.5090  137.7890 C   0  0  0  0  0  1  0  0  0  0  0  0
  189.1870  176.6340  136.3750 O   0  0  0  0  0  0  0  0  0  0  0  0
  190.6750  175.0600  137.5590 C   0  0  0  0  0  2  0  0  0  0  0  0
  187.6770  178.0140  135.3230 O   0  0  0  0  0  0  0  0  0  0  0  0
  188.8770  179.0080  137.1400 C   0  0  0  0  0  2  0  0  0  0  0  0
  191.5470  176.1040  136.8630 C   0  0  1  0  0  3  0  0  0  0  0  0
  1 17  1  6  0  0  0
  1  3  1  0  0  0  0
  1  8  1  0  0  0  0
  2  4  1  0  0  0  0
  3  5  1  0  0  0  0
  3  6  1  0  0  0  0
  5  2  1  0  0  0  0
  6  4  1  0  0  0  0
  8  7  1  6  0  0  0
  9  8  1  0  0  0  0
 10  9  1  6  0  0  0
 10 14  1  0  0  0  0
 11 15  1  0  0  0  0
 12 16  1  0  0  0  0
 12 10  1  0  0  0  0
 14 15  1  0  0  0  0
 14 13  1  1  0  0  0
 16 11  1  0  0  0  0
 18 17  1  0  0  0  0
 19 22  2  0  0  0  0
 20 25  1  1  0  0  0
 20 22  1  0  0  0  0
 21 24  1  0  0  0  0
 21 27  1  0  0  0  0
 22 18  1  0  0  0  0
 24 20  1  0  0  0  0
 26 21  2  0  0  0  0
 27 19  1  0  0  0  0
 28 20  1  0  0  0  0
 28 25  1  0  0  0  0
 28 23  1  1  0  0  0
M  END
>  <MODEL>
7

>  <REMARK>
 VINA RESULT:      -7.4      2.544      5.966
  Name = 
  7 active torsions:
  status: ('A' for Active; 'I' for Inactive)
    1  A    between atoms: C_2  and  C_3
    2  A    between atoms: C_2  and  C_26
    3  A    between atoms: C_10  and  C_13
    4  A    between atoms: C_10  and  C_17
    5  A    between atoms: N_16  and  C_27
    6  A    between atoms: C_17  and  C_27
    7  A    between atoms: C_26  and  C_27
                            x       y       z     vdW  Elec       q    Type
                         _______ _______ _______ _____ _____    ______ ____

>  <TORSDO>
F 7

$$$$
=
 OpenBabel10262420483D

 28 31  0  0  1  0  0  0  0  0999 V2000
  189.2870  177.1770  142.1320 C   0  0  1  0  0  3  0  0  0  0  0  0
  191.5660  178.6840  144.5040 C   0  0  0  0  0  2  0  0  0  0  0  0
  190.6170  177.6500  142.5680 N   0  0  0  0  0  0  0  0  0  0  0  0
  191.7140  177.1940  144.6660 C   0  0  0  0  0  2  0  0  0  0  0  0
  190.5340  178.8370  143.4150 C   0  0  0  0  0  2  0  0  0  0  0  0
  191.3140  176.6140  143.3250 C   0  0  0  0  0  2  0  0  0  0  0  0
  188.3260  175.2000  143.2180 O   0  0  0  0  0  1  0  0  0  0  0  0
  188.3410  176.5950  143.2050 C   0  0  2  0  0  3  0  0  0  0  0  0
  186.9260  177.1430  143.0800 C   0  0  0  0  0  2  0  0  0  0  0  0
  186.7030  178.2910  144.0590 C   0  0  2  0  0  3  0  0  0  0  0  0
  185.3880  178.2090  146.7780 C   0  0  0  0  0  2  0  0  0  0  0  0
  187.4780  178.0450  145.3640 C   0  0  0  0  0  2  0  0  0  0  0  0
  184.6500  179.4170  143.1890 C   0  0  0  0  0  1  0  0  0  0  0  0
  185.1970  178.5100  144.2720 C   0  0  2  0  0  3  0  0  0  0  0  0
  184.9090  179.1220  145.6410 C   0  0  0  0  0  2  0  0  0  0  0  0
  186.6070  177.3530  146.4080 C   0  0  0  0  0  2  0  0  0  0  0  0
  188.5780  178.1980  141.2540 C   0  0  0  0  0  2  0  0  0  0  0  0
  188.5900  177.7430  139.8000 C   0  0  0  0  0  2  0  0  0  0  0  0
  186.2660  178.5650  139.8340 C   0  0  0  0  0  3  0  0  0  0  0  0
  187.0240  177.6810  137.6750 C   0  0  2  0  0  0  0  0  0  0  0  0
  184.6290  177.9080  138.0820 C   0  0  0  0  0  0  0  0  0  0  0  0
  187.2800  178.0460  139.1230 C   0  0  0  0  0  0  0  0  0  0  0  0
  188.9470  179.2140  137.0160 C   0  0  0  0  0  1  0  0  0  0  0  0
  185.6790  177.3560  137.3430 O   0  0  0  0  0  0  0  0  0  0  0  0
  188.0670  176.8900  136.9230 C   0  0  0  0  0  2  0  0  0  0  0  0
  183.4390  177.6380  137.7800 O   0  0  0  0  0  0  0  0  0  0  0  0
  184.9220  178.8560  139.2110 C   0  0  0  0  0  2  0  0  0  0  0  0
  187.7940  178.3450  136.5410 C   0  0  1  0  0  3  0  0  0  0  0  0
  1 17  1  1  0  0  0
  1  3  1  0  0  0  0
  1  8  1  0  0  0  0
  2  4  1  0  0  0  0
  3  6  1  0  0  0  0
  3  5  1  0  0  0  0
  5  2  1  0  0  0  0
  6  4  1  0  0  0  0
  8  7  1  6  0  0  0
  9  8  1  0  0  0  0
 10  9  1  6  0  0  0
 10 14  1  0  0  0  0
 10 12  1  0  0  0  0
 12 16  1  0  0  0  0
 14 13  1  6  0  0  0
 14 15  1  0  0  0  0
 15 11  1  0  0  0  0
 16 11  1  0  0  0  0
 18 17  1  0  0  0  0
 20 25  1  6  0  0  0
 20 22  1  0  0  0  0
 21 27  1  0  0  0  0
 22 18  1  0  0  0  0
 22 19  2  0  0  0  0
 24 20  1  0  0  0  0
 24 21  1  0  0  0  0
 26 21  2  0  0  0  0
 27 19  1  0  0  0  0
 28 25  1  0  0  0  0
 28 23  1  1  0  0  0
 28 20  1  0  0  0  0
M  END
>  <MODEL>
8

>  <REMARK>
 VINA RESULT:      -7.2      2.316      4.317
  Name = 
  7 active torsions:
  status: ('A' for Active; 'I' for Inactive)
    1  A    between atoms: C_2  and  C_3
    2  A    between atoms: C_2  and  C_26
    3  A    between atoms: C_10  and  C_13
    4  A    between atoms: C_10  and  C_17
    5  A    between atoms: N_16  and  C_27
    6  A    between atoms: C_17  and  C_27
    7  A    between atoms: C_26  and  C_27
                            x       y       z     vdW  Elec       q    Type
                         _______ _______ _______ _____ _____    ______ ____

>  <TORSDO>
F 7

$$$$
=
 OpenBabel10262420483D

 28 31  0  0  1  0  0  0  0  0999 V2000
  186.4850  177.8930  142.7330 C   0  0  1  0  0  3  0  0  0  0  0  0
  189.4630  177.1340  140.8230 C   0  0  0  0  0  2  0  0  0  0  0  0
  187.8810  178.1320  142.3130 N   0  0  0  0  0  0  0  0  0  0  0  0
  188.7360  178.2080  140.0600 C   0  0  0  0  0  2  0  0  0  0  0  0
  188.5980  176.8900  142.0340 C   0  0  0  0  0  2  0  0  0  0  0  0
  187.9270  178.9490  141.1040 C   0  0  0  0  0  2  0  0  0  0  0  0
  186.0110  179.0550  144.8390 O   0  0  0  0  0  1  0  0  0  0  0  0
  186.1920  177.8050  144.2470 C   0  0  2  0  0  3  0  0  0  0  0  0
  187.2530  177.0090  144.9920 C   0  0  0  0  0  2  0  0  0  0  0  0
  188.1350  177.9310  145.8260 C   0  0  2  0  0  3  0  0  0  0  0  0
  190.4960  177.2020  147.5650 C   0  0  0  0  0  2  0  0  0  0  0  0
  189.5850  177.9010  145.3120 C   0  0  0  0  0  2  0  0  0  0  0  0
  186.8100  178.2870  147.9130 C   0  0  0  0  0  1  0  0  0  0  0  0
  188.0050  177.5730  147.3150 C   0  0  2  0  0  3  0  0  0  0  0  0
  189.2640  177.9490  148.0930 C   0  0  0  0  0  2  0  0  0  0  0  0
  190.4230  176.8740  146.0680 C   0  0  0  0  0  2  0  0  0  0  0  0
  185.5100  178.8230  142.0260 C   0  0  0  0  0  2  0  0  0  0  0  0
  184.4510  178.0150  141.2870 C   0  0  0  0  0  2  0  0  0  0  0  0
  182.8430  178.8680  142.9500 C   0  0  0  0  0  3  0  0  0  0  0  0
  181.8700  178.2550  140.7830 C   0  0  2  0  0  0  0  0  0  0  0  0
  180.4000  178.4720  142.7170 C   0  0  0  0  0  0  0  0  0  0  0  0
  183.0640  178.4270  141.7010 C   0  0  0  0  0  0  0  0  0  0  0  0
  183.0000  179.8250  139.1270 C   0  0  0  0  0  1  0  0  0  0  0  0
  180.6240  178.0000  141.4210 O   0  0  0  0  0  0  0  0  0  0  0  0
  182.0570  177.5490  139.4620 C   0  0  0  0  0  2  0  0  0  0  0  0
  179.2940  178.2650  143.2780 O   0  0  0  0  0  0  0  0  0  0  0  0
  181.4640  179.2610  143.4250 C   0  0  0  0  0  2  0  0  0  0  0  0
  181.7470  179.0450  139.4870 C   0  0  1  0  0  3  0  0  0  0  0  0
  1 17  1  1  0  0  0
  1  8  1  0  0  0  0
  2  5  1  0  0  0  0
  3  1  1  0  0  0  0
  4  2  1  0  0  0  0
  4  6  1  0  0  0  0
  5  3  1  0  0  0  0
  6  3  1  0  0  0  0
  8  7  1  1  0  0  0
  8  9  1  0  0  0  0
 10  9  1  6  0  0  0
 10 14  1  0  0  0  0
 11 15  1  0  0  0  0
 12 10  1  0  0  0  0
 12 16  1  0  0  0  0
 14 13  1  1  0  0  0
 14 15  1  0  0  0  0
 16 11  1  0  0  0  0
 18 22  1  0  0  0  0
 18 17  1  0  0  0  0
 19 27  1  0  0  0  0
 20 25  1  6  0  0  0
 20 24  1  0  0  0  0
 20 22  1  0  0  0  0
 21 26  2  0  0  0  0
 21 27  1  0  0  0  0
 22 19  2  0  0  0  0
 24 21  1  0  0  0  0
 25 28  1  0  0  0  0
 28 23  1  1  0  0  0
 28 20  1  0  0  0  0
M  END
>  <MODEL>
9

>  <REMARK>
 VINA RESULT:      -7.1      1.809      2.757
  Name = 
  7 active torsions:
  status: ('A' for Active; 'I' for Inactive)
    1  A    between atoms: C_2  and  C_3
    2  A    between atoms: C_2  and  C_26
    3  A    between atoms: C_10  and  C_13
    4  A    between atoms: C_10  and  C_17
    5  A    between atoms: N_16  and  C_27
    6  A    between atoms: C_17  and  C_27
    7  A    between atoms: C_26  and  C_27
                            x       y       z     vdW  Elec       q    Type
                         _______ _______ _______ _____ _____    ______ ____

>  <TORSDO>
F 7

$$$$
