=
 OpenBabel10262419513D

 25 28  0  0  1  0  0  0  0  0999 V2000
  187.4530  177.7950  145.5050 C   0  0  0  0  0  0  0  0  0  0  0  0
  188.6620  177.1800  144.8450 C   0  0  1  0  0  3  0  0  0  0  0  0
  188.5910  177.8870  147.7780 C   0  0  0  0  0  2  0  0  0  0  0  0
  186.2290  178.0770  144.8800 C   0  0  0  0  0  0  0  0  0  0  0  0
  190.7420  177.7940  141.7550 N   0  0  0  0  0  2  0  0  0  0  0  0
  183.6790  178.7590  143.9730 C   0  0  0  0  0  3  0  0  0  0  0  0
  189.4760  176.7670  147.2340 C   0  0  0  0  0  2  0  0  0  0  0  0
  185.2830  178.6110  145.7480 C   0  0  0  0  0  0  0  0  0  0  0  0
  184.0040  178.9610  145.3240 C   0  0  0  0  0  3  0  0  0  0  0  0
  191.0750  176.7650  145.2950 C   0  0  0  0  0  0  0  0  0  0  0  0
  192.0020  176.3570  146.0440 O   0  0  0  0  0  0  0  0  0  0  0  0
  189.1410  178.0580  143.6860 C   0  0  0  0  0  2  0  0  0  0  0  0
  184.6250  178.2150  143.0850 C   0  0  0  0  0  3  0  0  0  0  0  0
  187.4250  178.0830  146.8670 C   0  0  0  0  0  0  0  0  0  0  0  0
  185.9260  178.7300  147.2970 S   0  0  0  0  0  0  0  0  0  0  0  0
  191.3360  177.0090  143.9100 N   0  0  0  0  0  0  0  0  0  0  0  0
  185.9090  177.8690  143.5350 C   0  0  0  0  0  3  0  0  0  0  0  0
  190.4480  177.5590  143.1320 C   0  0  0  0  0  0  0  0  0  0  0  0
  189.7560  176.9850  145.8130 N   0  0  0  0  0  0  0  0  0  0  0  0
  191.9940  177.3760  141.1430 C   0  0  0  0  0  2  0  0  0  0  0  0
  191.7770  177.0660  139.6700 C   0  0  0  0  0  2  0  0  0  0  0  0
  190.3130  176.7500  139.3820 C   0  0  0  0  0  2  0  0  0  0  0  0
  189.7200  177.7360  138.4260 C   0  0  0  0  0  0  0  0  0  0  0  0
  189.3090  178.9460  138.8820 F   0  0  0  0  0  0  0  0  0  0  0  0
  189.7300  177.4950  137.1170 C   0  0  0  0  0  2  0  0  0  0  0  0
  1 14  2  0  0  0  0
  2 12  1  6  0  0  0
  2  1  1  0  0  0  0
  2 19  1  0  0  0  0
  4  1  1  0  0  0  0
  4  8  1  0  0  0  0
  5 18  1  0  0  0  0
  6  9  1  0  0  0  0
  7  3  1  0  0  0  0
  8 15  1  0  0  0  0
  9  8  2  0  0  0  0
 10 19  1  0  0  0  0
 10 11  2  0  0  0  0
 13 17  1  0  0  0  0
 13  6  2  0  0  0  0
 14 15  1  0  0  0  0
 14  3  1  0  0  0  0
 16 10  1  0  0  0  0
 17  4  2  0  0  0  0
 18 12  1  0  0  0  0
 18 16  2  0  0  0  0
 19  7  1  0  0  0  0
 20  5  1  0  0  0  0
 21 20  1  0  0  0  0
 22 21  1  0  0  0  0
 23 24  1  0  0  0  0
 23 22  1  0  0  0  0
 25 23  2  0  0  0  0
M  END
>  <MODEL>
1

>  <REMARK>
 VINA RESULT:      -9.3      0.000      0.000
  Name = 
  4 active torsions:
  status: ('A' for Active; 'I' for Inactive)
    1  A    between atoms: C_2  and  C_25
    2  A    between atoms: N_6  and  C_15
    3  A    between atoms: C_15  and  C_21
    4  A    between atoms: C_21  and  C_25
                            x       y       z     vdW  Elec       q    Type
                         _______ _______ _______ _____ _____    ______ ____

>  <TORSDO>
F 4

$$$$
=
 OpenBabel10262419513D

 25 28  0  0  1  0  0  0  0  0999 V2000
  187.4250  177.7940  145.4990 C   0  0  0  0  0  0  0  0  0  0  0  0
  188.6760  177.1680  144.9370 C   0  0  1  0  0  3  0  0  0  0  0  0
  188.3960  177.9180  147.8470 C   0  0  0  0  0  2  0  0  0  0  0  0
  186.2490  178.0680  144.7830 C   0  0  0  0  0  0  0  0  0  0  0  0
  190.9750  177.7320  141.9960 N   0  0  0  0  0  2  0  0  0  0  0  0
  183.7730  178.7410  143.6860 C   0  0  0  0  0  3  0  0  0  0  0  0
  189.3160  176.7890  147.3850 C   0  0  0  0  0  2  0  0  0  0  0  0
  185.2450  178.6170  145.5740 C   0  0  0  0  0  0  0  0  0  0  0  0
  184.0010  178.9620  145.0530 C   0  0  0  0  0  3  0  0  0  0  0  0
  191.0490  176.7550  145.5650 C   0  0  0  0  0  0  0  0  0  0  0  0
  191.9190  176.3570  146.3850 O   0  0  0  0  0  0  0  0  0  0  0  0
  189.2400  178.0270  143.8030 C   0  0  0  0  0  2  0  0  0  0  0  0
  184.7800  178.1820  142.8760 C   0  0  0  0  0  3  0  0  0  0  0  0
  187.3000  178.1030  146.8520 C   0  0  0  0  0  0  0  0  0  0  0  0
  185.7750  178.7580  147.1630 S   0  0  0  0  0  0  0  0  0  0  0  0
  191.4100  176.9780  144.2000 N   0  0  0  0  0  0  0  0  0  0  0  0
  186.0270  177.8410  143.4220 C   0  0  0  0  0  3  0  0  0  0  0  0
  190.5820  177.5180  143.3520 C   0  0  0  0  0  0  0  0  0  0  0  0
  189.6980  176.9850  145.9840 N   0  0  0  0  0  0  0  0  0  0  0  0
  192.2670  177.3040  141.4820 C   0  0  0  0  0  2  0  0  0  0  0  0
  192.3120  177.4810  139.9720 C   0  0  0  0  0  2  0  0  0  0  0  0
  191.1890  176.7080  139.2910 C   0  0  0  0  0  2  0  0  0  0  0  0
  191.6350  176.1350  137.9830 C   0  0  0  0  0  0  0  0  0  0  0  0
  192.6140  176.7570  137.2790 F   0  0  0  0  0  0  0  0  0  0  0  0
  191.1880  174.9480  137.5800 C   0  0  0  0  0  2  0  0  0  0  0  0
  1 14  2  0  0  0  0
  2 12  1  6  0  0  0
  2  1  1  0  0  0  0
  2 19  1  0  0  0  0
  4  1  1  0  0  0  0
  4  8  1  0  0  0  0
  5 18  1  0  0  0  0
  6  9  1  0  0  0  0
  7  3  1  0  0  0  0
  8 15  1  0  0  0  0
  9  8  2  0  0  0  0
 10 19  1  0  0  0  0
 10 11  2  0  0  0  0
 13 17  1  0  0  0  0
 13  6  2  0  0  0  0
 14 15  1  0  0  0  0
 14  3  1  0  0  0  0
 16 10  1  0  0  0  0
 17  4  2  0  0  0  0
 18 12  1  0  0  0  0
 18 16  2  0  0  0  0
 19  7  1  0  0  0  0
 20  5  1  0  0  0  0
 21 20  1  0  0  0  0
 22 21  1  0  0  0  0
 23 22  1  0  0  0  0
 24 23  1  0  0  0  0
 25 23  2  0  0  0  0
M  END
>  <MODEL>
2

>  <REMARK>
 VINA RESULT:      -8.9      1.125      1.201
  Name = 
  4 active torsions:
  status: ('A' for Active; 'I' for Inactive)
    1  A    between atoms: C_2  and  C_25
    2  A    between atoms: N_6  and  C_15
    3  A    between atoms: C_15  and  C_21
    4  A    between atoms: C_21  and  C_25
                            x       y       z     vdW  Elec       q    Type
                         _______ _______ _______ _____ _____    ______ ____

>  <TORSDO>
F 4

$$$$
=
 OpenBabel10262419513D

 25 28  0  0  1  0  0  0  0  0999 V2000
  186.7030  177.9490  143.8880 C   0  0  0  0  0  0  0  0  0  0  0  0
  187.5950  177.4840  142.7650 C   0  0  1  0  0  3  0  0  0  0  0  0
  188.5620  177.7380  145.6120 C   0  0  0  0  0  2  0  0  0  0  0  0
  185.3430  178.2770  143.7770 C   0  0  0  0  0  0  0  0  0  0  0  0
  188.4810  178.6310  139.2780 N   0  0  0  0  0  2  0  0  0  0  0  0
  182.6510  178.9950  143.9280 C   0  0  0  0  0  3  0  0  0  0  0  0
  189.1820  176.7460  144.6300 C   0  0  0  0  0  2  0  0  0  0  0  0
  184.7690  178.6400  144.9910 C   0  0  0  0  0  0  0  0  0  0  0  0
  183.4290  179.0030  145.0960 C   0  0  0  0  0  3  0  0  0  0  0  0
  190.0050  177.0940  142.2810 C   0  0  0  0  0  0  0  0  0  0  0  0
  191.1280  176.6110  142.5900 O   0  0  0  0  0  0  0  0  0  0  0  0
  187.6570  178.5430  141.6610 C   0  0  0  0  0  2  0  0  0  0  0  0
  183.2180  178.6250  142.6940 C   0  0  0  0  0  3  0  0  0  0  0  0
  187.1570  178.0280  145.2030 C   0  0  0  0  0  0  0  0  0  0  0  0
  185.9130  178.5480  146.2200 S   0  0  0  0  0  0  0  0  0  0  0  0
  189.7730  177.5520  140.9470 N   0  0  0  0  0  0  0  0  0  0  0  0
  184.5720  178.2620  142.6120 C   0  0  0  0  0  3  0  0  0  0  0  0
  188.6800  178.1810  140.6190 C   0  0  0  0  0  0  0  0  0  0  0  0
  188.9540  177.1850  143.2500 N   0  0  0  0  0  0  0  0  0  0  0  0
  189.4340  178.3550  138.2140 C   0  0  0  0  0  2  0  0  0  0  0  0
  188.7850  178.5920  136.8590 C   0  0  0  0  0  2  0  0  0  0  0  0
  187.2660  178.6310  136.9730 C   0  0  0  0  0  2  0  0  0  0  0  0
  186.6600  177.2990  136.6610 C   0  0  0  0  0  0  0  0  0  0  0  0
  187.4010  176.3620  136.0180 F   0  0  0  0  0  0  0  0  0  0  0  0
  185.4600  176.9760  137.1370 C   0  0  0  0  0  2  0  0  0  0  0  0
  1 14  2  0  0  0  0
  2 12  1  6  0  0  0
  2 19  1  0  0  0  0
  2  1  1  0  0  0  0
  4  1  1  0  0  0  0
  4  8  1  0  0  0  0
  5 18  1  0  0  0  0
  6  9  1  0  0  0  0
  7  3  1  0  0  0  0
  8  9  2  0  0  0  0
  8 15  1  0  0  0  0
 10 11  2  0  0  0  0
 10 19  1  0  0  0  0
 13  6  2  0  0  0  0
 14  3  1  0  0  0  0
 14 15  1  0  0  0  0
 16 10  1  0  0  0  0
 17 13  1  0  0  0  0
 17  4  2  0  0  0  0
 18 16  2  0  0  0  0
 18 12  1  0  0  0  0
 19  7  1  0  0  0  0
 20  5  1  0  0  0  0
 21 22  1  0  0  0  0
 21 20  1  0  0  0  0
 23 22  1  0  0  0  0
 23 25  2  0  0  0  0
 24 23  1  0  0  0  0
M  END
>  <MODEL>
3

>  <REMARK>
 VINA RESULT:      -8.7      2.143      2.882
  Name = 
  4 active torsions:
  status: ('A' for Active; 'I' for Inactive)
    1  A    between atoms: C_2  and  C_25
    2  A    between atoms: N_6  and  C_15
    3  A    between atoms: C_15  and  C_21
    4  A    between atoms: C_21  and  C_25
                            x       y       z     vdW  Elec       q    Type
                         _______ _______ _______ _____ _____    ______ ____

>  <TORSDO>
F 4

$$$$
=
 OpenBabel10262419513D

 25 28  0  0  1  0  0  0  0  0999 V2000
  189.1300  177.4740  143.4000 C   0  0  0  0  0  0  0  0  0  0  0  0
  188.2840  177.4090  142.1540 C   0  0  1  0  0  3  0  0  0  0  0  0
  191.3000  177.4340  142.0720 C   0  0  0  0  0  2  0  0  0  0  0  0
  188.6530  177.4910  144.7190 C   0  0  0  0  0  0  0  0  0  0  0  0
  185.3190  179.2560  140.7220 N   0  0  0  0  0  2  0  0  0  0  0  0
  188.0650  177.5340  147.4470 C   0  0  0  0  0  3  0  0  0  0  0  0
  190.4640  176.7770  140.9750 C   0  0  0  0  0  2  0  0  0  0  0  0
  189.6700  177.5180  145.6670 C   0  0  0  0  0  0  0  0  0  0  0  0
  189.4070  177.5410  147.0340 C   0  0  0  0  0  3  0  0  0  0  0  0
  188.4980  177.6660  139.6870 C   0  0  0  0  0  0  0  0  0  0  0  0
  189.0820  177.4150  138.5990 O   0  0  0  0  0  0  0  0  0  0  0  0
  187.3390  178.6110  142.0880 C   0  0  0  0  0  2  0  0  0  0  0  0
  187.0260  177.5020  146.4980 C   0  0  0  0  0  3  0  0  0  0  0  0
  190.5220  177.4500  143.3460 C   0  0  0  0  0  0  0  0  0  0  0  0
  191.1690  177.5030  144.9040 S   0  0  0  0  0  0  0  0  0  0  0  0
  187.1970  178.2600  139.6750 N   0  0  0  0  0  0  0  0  0  0  0  0
  187.3150  177.4800  145.1250 C   0  0  0  0  0  3  0  0  0  0  0  0
  186.6170  178.6620  140.7690 C   0  0  0  0  0  0  0  0  0  0  0  0
  189.1200  177.3600  140.9420 N   0  0  0  0  0  0  0  0  0  0  0  0
  184.5620  179.3780  139.4850 C   0  0  0  0  0  2  0  0  0  0  0  0
  183.1100  178.9970  139.7230 C   0  0  0  0  0  2  0  0  0  0  0  0
  182.9730  178.0630  140.9200 C   0  0  0  0  0  2  0  0  0  0  0  0
  182.0530  178.6310  141.9540 C   0  0  0  0  0  0  0  0  0  0  0  0
  180.7140  178.6270  141.7330 F   0  0  0  0  0  0  0  0  0  0  0  0
  182.5220  179.0020  143.1430 C   0  0  0  0  0  2  0  0  0  0  0  0
  1  4  1  0  0  0  0
  2 12  1  6  0  0  0
  2  1  1  0  0  0  0
  3 14  1  0  0  0  0
  4 17  2  0  0  0  0
  4  8  1  0  0  0  0
  5 18  1  0  0  0  0
  7  3  1  0  0  0  0
  8  9  2  0  0  0  0
  9  6  1  0  0  0  0
 10 19  1  0  0  0  0
 11 10  2  0  0  0  0
 13  6  2  0  0  0  0
 14  1  2  0  0  0  0
 14 15  1  0  0  0  0
 15  8  1  0  0  0  0
 16 10  1  0  0  0  0
 16 18  2  0  0  0  0
 17 13  1  0  0  0  0
 18 12  1  0  0  0  0
 19  7  1  0  0  0  0
 19  2  1  0  0  0  0
 20 21  1  0  0  0  0
 20  5  1  0  0  0  0
 21 22  1  0  0  0  0
 22 23  1  0  0  0  0
 23 25  2  0  0  0  0
 24 23  1  0  0  0  0
M  END
>  <MODEL>
4

>  <REMARK>
 VINA RESULT:      -8.6      3.512      6.122
  Name = 
  4 active torsions:
  status: ('A' for Active; 'I' for Inactive)
    1  A    between atoms: C_2  and  C_25
    2  A    between atoms: N_6  and  C_15
    3  A    between atoms: C_15  and  C_21
    4  A    between atoms: C_21  and  C_25
                            x       y       z     vdW  Elec       q    Type
                         _______ _______ _______ _____ _____    ______ ____

>  <TORSDO>
F 4

$$$$
=
 OpenBabel10262419513D

 25 28  0  0  1  0  0  0  0  0999 V2000
  186.7500  177.9040  143.7470 C   0  0  0  0  0  0  0  0  0  0  0  0
  187.5930  177.4690  142.5760 C   0  0  1  0  0  3  0  0  0  0  0  0
  188.6620  177.5870  145.3960 C   0  0  0  0  0  2  0  0  0  0  0  0
  185.3950  178.2640  143.6970 C   0  0  0  0  0  0  0  0  0  0  0  0
  188.3850  178.7380  139.1090 N   0  0  0  0  0  2  0  0  0  0  0  0
  182.7250  179.0290  143.9690 C   0  0  0  0  0  3  0  0  0  0  0  0
  189.2270  176.6230  144.3530 C   0  0  0  0  0  2  0  0  0  0  0  0
  184.8700  178.5880  144.9430 C   0  0  0  0  0  0  0  0  0  0  0  0
  183.5420  178.9740  145.1090 C   0  0  0  0  0  3  0  0  0  0  0  0
  189.9770  177.0500  141.9930 C   0  0  0  0  0  0  0  0  0  0  0  0
  191.0990  176.5330  142.2430 O   0  0  0  0  0  0  0  0  0  0  0  0
  187.6400  178.5700  141.5130 C   0  0  0  0  0  2  0  0  0  0  0  0
  183.2420  178.6990  142.7030 C   0  0  0  0  0  3  0  0  0  0  0  0
  187.2500  177.9210  145.0480 C   0  0  0  0  0  0  0  0  0  0  0  0
  186.0530  178.4230  146.1270 S   0  0  0  0  0  0  0  0  0  0  0  0
  189.7090  177.5670  140.6870 N   0  0  0  0  0  0  0  0  0  0  0  0
  184.5840  178.3120  142.5590 C   0  0  0  0  0  3  0  0  0  0  0  0
  188.6200  178.2300  140.4230 C   0  0  0  0  0  0  0  0  0  0  0  0
  188.9610  177.1220  143.0010 N   0  0  0  0  0  0  0  0  0  0  0  0
  189.2950  178.4870  138.0020 C   0  0  0  0  0  2  0  0  0  0  0  0
  188.9270  177.1840  137.3100 C   0  0  0  0  0  2  0  0  0  0  0  0
  190.1520  176.5250  136.6850 C   0  0  0  0  0  2  0  0  0  0  0  0
  190.5190  175.2650  137.4020 C   0  0  0  0  0  0  0  0  0  0  0  0
  191.3500  175.3220  138.4730 F   0  0  0  0  0  0  0  0  0  0  0  0
  189.9240  174.1150  137.0920 C   0  0  0  0  0  2  0  0  0  0  0  0
  1 14  2  0  0  0  0
  2 12  1  6  0  0  0
  2 19  1  0  0  0  0
  2  1  1  0  0  0  0
  4  1  1  0  0  0  0
  4  8  1  0  0  0  0
  5 18  1  0  0  0  0
  6  9  1  0  0  0  0
  7  3  1  0  0  0  0
  8  9  2  0  0  0  0
  8 15  1  0  0  0  0
 10 11  2  0  0  0  0
 10 19  1  0  0  0  0
 13  6  2  0  0  0  0
 14  3  1  0  0  0  0
 14 15  1  0  0  0  0
 16 10  1  0  0  0  0
 17 13  1  0  0  0  0
 17  4  2  0  0  0  0
 18 16  2  0  0  0  0
 18 12  1  0  0  0  0
 19  7  1  0  0  0  0
 20  5  1  0  0  0  0
 21 20  1  0  0  0  0
 22 21  1  0  0  0  0
 22 23  1  0  0  0  0
 23 24  1  0  0  0  0
 25 23  2  0  0  0  0
M  END
>  <MODEL>
5

>  <REMARK>
 VINA RESULT:      -8.5      2.006      2.798
  Name = 
  4 active torsions:
  status: ('A' for Active; 'I' for Inactive)
    1  A    between atoms: C_2  and  C_25
    2  A    between atoms: N_6  and  C_15
    3  A    between atoms: C_15  and  C_21
    4  A    between atoms: C_21  and  C_25
                            x       y       z     vdW  Elec       q    Type
                         _______ _______ _______ _____ _____    ______ ____

>  <TORSDO>
F 4

$$$$
=
 OpenBabel10262419513D

 25 28  0  0  1  0  0  0  0  0999 V2000
  188.4770  177.3750  144.2210 C   0  0  0  0  0  0  0  0  0  0  0  0
  188.4040  177.0500  142.7500 C   0  0  1  0  0  3  0  0  0  0  0  0
  190.9780  176.9200  144.3210 C   0  0  0  0  0  2  0  0  0  0  0  0
  187.3940  177.7310  145.0390 C   0  0  0  0  0  0  0  0  0  0  0  0
  186.9750  178.6280  139.6320 N   0  0  0  0  0  2  0  0  0  0  0  0
  185.4910  178.4570  146.9470 C   0  0  0  0  0  3  0  0  0  0  0  0
  190.7370  176.0560  143.0840 C   0  0  0  0  0  2  0  0  0  0  0  0
  187.7580  177.9410  146.3650 C   0  0  0  0  0  0  0  0  0  0  0  0
  186.8310  178.3040  147.3380 C   0  0  0  0  0  3  0  0  0  0  0  0
  189.9090  176.6950  140.7990 C   0  0  0  0  0  0  0  0  0  0  0  0
  190.9210  176.1630  140.2700 O   0  0  0  0  0  0  0  0  0  0  0  0
  187.8480  178.2420  141.9670 C   0  0  0  0  0  2  0  0  0  0  0  0
  185.1090  178.2440  145.6100 C   0  0  0  0  0  3  0  0  0  0  0  0
  189.6670  177.2770  144.9380 C   0  0  0  0  0  0  0  0  0  0  0  0
  189.4070  177.6760  146.5580 S   0  0  0  0  0  0  0  0  0  0  0  0
  188.9260  177.3260  139.9750 N   0  0  0  0  0  0  0  0  0  0  0  0
  186.0610  177.8780  144.6450 C   0  0  0  0  0  3  0  0  0  0  0  0
  187.9380  178.0050  140.4840 C   0  0  0  0  0  0  0  0  0  0  0  0
  189.7270  176.6730  142.2210 N   0  0  0  0  0  0  0  0  0  0  0  0
  187.0040  178.4810  138.1850 C   0  0  0  0  0  2  0  0  0  0  0  0
  185.6850  177.9090  137.6920 C   0  0  0  0  0  2  0  0  0  0  0  0
  184.5170  178.4090  138.5340 C   0  0  0  0  0  2  0  0  0  0  0  0
  183.6000  177.2910  138.9160 C   0  0  0  0  0  0  0  0  0  0  0  0
  183.2600  177.1210  140.2190 F   0  0  0  0  0  0  0  0  0  0  0  0
  183.0010  176.5590  137.9800 C   0  0  0  0  0  2  0  0  0  0  0  0
  1 14  2  0  0  0  0
  1  4  1  0  0  0  0
  2 12  1  6  0  0  0
  2  1  1  0  0  0  0
  3 14  1  0  0  0  0
  4  8  1  0  0  0  0
  5 18  1  0  0  0  0
  6  9  1  0  0  0  0
  7  3  1  0  0  0  0
  8 15  1  0  0  0  0
  8  9  2  0  0  0  0
 10 19  1  0  0  0  0
 11 10  2  0  0  0  0
 13  6  2  0  0  0  0
 14 15  1  0  0  0  0
 16 18  2  0  0  0  0
 16 10  1  0  0  0  0
 17  4  2  0  0  0  0
 17 13  1  0  0  0  0
 18 12  1  0  0  0  0
 19  2  1  0  0  0  0
 19  7  1  0  0  0  0
 20  5  1  0  0  0  0
 21 20  1  0  0  0  0
 21 22  1  0  0  0  0
 22 23  1  0  0  0  0
 23 24  1  0  0  0  0
 25 23  2  0  0  0  0
M  END
>  <MODEL>
6

>  <REMARK>
 VINA RESULT:      -8.4      3.096      4.371
  Name = 
  4 active torsions:
  status: ('A' for Active; 'I' for Inactive)
    1  A    between atoms: C_2  and  C_25
    2  A    between atoms: N_6  and  C_15
    3  A    between atoms: C_15  and  C_21
    4  A    between atoms: C_21  and  C_25
                            x       y       z     vdW  Elec       q    Type
                         _______ _______ _______ _____ _____    ______ ____

>  <TORSDO>
F 4

$$$$
=
 OpenBabel10262419513D

 25 28  0  0  1  0  0  0  0  0999 V2000
  188.0670  177.7840  143.6810 C   0  0  0  0  0  0  0  0  0  0  0  0
  188.5780  178.0200  142.2820 C   0  0  1  0  0  3  0  0  0  0  0  0
  185.6470  178.1590  142.9910 C   0  0  0  0  0  2  0  0  0  0  0  0
  188.8560  177.5170  144.8110 C   0  0  0  0  0  0  0  0  0  0  0  0
  190.9050  176.3000  139.8570 N   0  0  0  0  0  2  0  0  0  0  0  0
  190.1010  176.9770  147.2490 C   0  0  0  0  0  3  0  0  0  0  0  0
  186.2400  178.9520  141.8270 C   0  0  0  0  0  2  0  0  0  0  0  0
  188.1100  177.3780  145.9760 C   0  0  0  0  0  0  0  0  0  0  0  0
  188.7040  177.1080  147.2060 C   0  0  0  0  0  3  0  0  0  0  0  0
  187.7300  178.2000  139.9480 C   0  0  0  0  0  0  0  0  0  0  0  0
  186.9180  178.6640  139.1030 O   0  0  0  0  0  0  0  0  0  0  0  0
  189.3610  176.8010  141.7880 C   0  0  0  0  0  2  0  0  0  0  0  0
  190.8680  177.1190  146.0770 C   0  0  0  0  0  3  0  0  0  0  0  0
  186.7140  177.8860  143.9980 C   0  0  0  0  0  0  0  0  0  0  0  0
  186.4770  177.5980  145.6450 S   0  0  0  0  0  0  0  0  0  0  0  0
  188.9250  177.5530  139.5050 N   0  0  0  0  0  0  0  0  0  0  0  0
  190.2480  177.3910  144.8480 C   0  0  0  0  0  3  0  0  0  0  0  0
  189.7210  176.9410  140.3340 C   0  0  0  0  0  0  0  0  0  0  0  0
  187.4730  178.3170  141.3540 N   0  0  0  0  0  0  0  0  0  0  0  0
  191.3140  176.3550  138.4620 C   0  0  0  0  0  2  0  0  0  0  0  0
  192.8180  176.5570  138.3670 C   0  0  0  0  0  2  0  0  0  0  0  0
  193.4040  175.7980  137.1820 C   0  0  0  0  0  2  0  0  0  0  0  0
  193.8980  174.4460  137.5900 C   0  0  0  0  0  0  0  0  0  0  0  0
  193.3040  173.3360  137.0840 F   0  0  0  0  0  0  0  0  0  0  0  0
  195.0030  174.3240  138.3230 C   0  0  0  0  0  2  0  0  0  0  0  0
  1 14  2  0  0  0  0
  1  4  1  0  0  0  0
  2 12  1  6  0  0  0
  2  1  1  0  0  0  0
  3 14  1  0  0  0  0
  4 17  2  0  0  0  0
  4  8  1  0  0  0  0
  5 18  1  0  0  0  0
  7  3  1  0  0  0  0
  8  9  2  0  0  0  0
  9  6  1  0  0  0  0
 10 19  1  0  0  0  0
 11 10  2  0  0  0  0
 13  6  2  0  0  0  0
 14 15  1  0  0  0  0
 15  8  1  0  0  0  0
 16 10  1  0  0  0  0
 16 18  2  0  0  0  0
 17 13  1  0  0  0  0
 18 12  1  0  0  0  0
 19  7  1  0  0  0  0
 19  2  1  0  0  0  0
 20  5  1  0  0  0  0
 21 20  1  0  0  0  0
 22 23  1  0  0  0  0
 22 21  1  0  0  0  0
 23 25  2  0  0  0  0
 24 23  1  0  0  0  0
M  END
>  <MODEL>
7

>  <REMARK>
 VINA RESULT:      -8.4      3.067      4.942
  Name = 
  4 active torsions:
  status: ('A' for Active; 'I' for Inactive)
    1  A    between atoms: C_2  and  C_25
    2  A    between atoms: N_6  and  C_15
    3  A    between atoms: C_15  and  C_21
    4  A    between atoms: C_21  and  C_25
                            x       y       z     vdW  Elec       q    Type
                         _______ _______ _______ _____ _____    ______ ____

>  <TORSDO>
F 4

$$$$
=
 OpenBabel10262419513D

 25 28  0  0  1  0  0  0  0  0999 V2000
  189.1040  177.4950  143.2930 C   0  0  0  0  0  0  0  0  0  0  0  0
  188.2680  177.4270  142.0400 C   0  0  1  0  0  3  0  0  0  0  0  0
  191.2850  177.4730  141.9830 C   0  0  0  0  0  2  0  0  0  0  0  0
  188.6160  177.5060  144.6080 C   0  0  0  0  0  0  0  0  0  0  0  0
  185.3030  179.2580  140.5870 N   0  0  0  0  0  2  0  0  0  0  0  0
  188.0050  177.5390  147.3310 C   0  0  0  0  0  3  0  0  0  0  0  0
  190.4620  176.8130  140.8780 C   0  0  0  0  0  2  0  0  0  0  0  0
  189.6250  177.5380  145.5640 C   0  0  0  0  0  0  0  0  0  0  0  0
  189.3500  177.5550  146.9290 C   0  0  0  0  0  3  0  0  0  0  0  0
  188.5010  177.6920  139.5750 C   0  0  0  0  0  0  0  0  0  0  0  0
  189.0950  177.4470  138.4920 O   0  0  0  0  0  0  0  0  0  0  0  0
  187.3160  178.6240  141.9690 C   0  0  0  0  0  2  0  0  0  0  0  0
  186.9740  177.5030  146.3740 C   0  0  0  0  0  3  0  0  0  0  0  0
  190.4970  177.4810  143.2500 C   0  0  0  0  0  0  0  0  0  0  0  0
  191.1300  177.5350  144.8140 S   0  0  0  0  0  0  0  0  0  0  0  0
  187.1970  178.2770  139.5530 N   0  0  0  0  0  0  0  0  0  0  0  0
  187.2750  177.4850  145.0030 C   0  0  0  0  0  3  0  0  0  0  0  0
  186.6050  178.6730  140.6440 C   0  0  0  0  0  0  0  0  0  0  0  0
  189.1150  177.3870  140.8340 N   0  0  0  0  0  0  0  0  0  0  0  0
  184.5560  179.3780  139.3440 C   0  0  0  0  0  2  0  0  0  0  0  0
  183.7090  178.1340  139.1240 C   0  0  0  0  0  2  0  0  0  0  0  0
  183.5400  177.8360  137.6380 C   0  0  0  0  0  2  0  0  0  0  0  0
  184.7370  177.1310  137.0830 C   0  0  0  0  0  0  0  0  0  0  0  0
  185.7660  177.8560  136.5760 F   0  0  0  0  0  0  0  0  0  0  0  0
  184.8650  175.8130  137.2170 C   0  0  0  0  0  2  0  0  0  0  0  0
  1  4  1  0  0  0  0
  2 12  1  6  0  0  0
  2  1  1  0  0  0  0
  3 14  1  0  0  0  0
  4 17  2  0  0  0  0
  4  8  1  0  0  0  0
  5 18  1  0  0  0  0
  7  3  1  0  0  0  0
  8  9  2  0  0  0  0
  9  6  1  0  0  0  0
 10 19  1  0  0  0  0
 11 10  2  0  0  0  0
 13  6  2  0  0  0  0
 14  1  2  0  0  0  0
 14 15  1  0  0  0  0
 15  8  1  0  0  0  0
 16 10  1  0  0  0  0
 16 18  2  0  0  0  0
 17 13  1  0  0  0  0
 18 12  1  0  0  0  0
 19  7  1  0  0  0  0
 19  2  1  0  0  0  0
 20  5  1  0  0  0  0
 21 20  1  0  0  0  0
 22 21  1  0  0  0  0
 23 25  2  0  0  0  0
 23 22  1  0  0  0  0
 24 23  1  0  0  0  0
M  END
>  <MODEL>
8

>  <REMARK>
 VINA RESULT:      -8.3      3.570      5.481
  Name = 
  4 active torsions:
  status: ('A' for Active; 'I' for Inactive)
    1  A    between atoms: C_2  and  C_25
    2  A    between atoms: N_6  and  C_15
    3  A    between atoms: C_15  and  C_21
    4  A    between atoms: C_21  and  C_25
                            x       y       z     vdW  Elec       q    Type
                         _______ _______ _______ _____ _____    ______ ____

>  <TORSDO>
F 4

$$$$
=
 OpenBabel10262419513D

 25 28  0  0  1  0  0  0  0  0999 V2000
  187.0210  177.8200  144.6290 C   0  0  0  0  0  0  0  0  0  0  0  0
  188.0870  177.2130  143.7520 C   0  0  1  0  0  3  0  0  0  0  0  0
  188.5500  177.8660  146.6620 C   0  0  0  0  0  2  0  0  0  0  0  0
  185.7060  178.1180  144.2400 C   0  0  0  0  0  0  0  0  0  0  0  0
  189.5810  177.8750  140.3490 N   0  0  0  0  0  2  0  0  0  0  0  0
  183.0400  178.8270  143.8210 C   0  0  0  0  0  3  0  0  0  0  0  0
  189.3150  176.7530  145.9480 C   0  0  0  0  0  2  0  0  0  0  0  0
  184.9360  178.6400  145.2740 C   0  0  0  0  0  0  0  0  0  0  0  0
  183.6040  179.0030  145.0940 C   0  0  0  0  0  3  0  0  0  0  0  0
  190.5380  176.7800  143.7530 C   0  0  0  0  0  0  0  0  0  0  0  0
  191.5820  176.3550  144.3150 O   0  0  0  0  0  0  0  0  0  0  0  0
  188.3550  178.1100  142.5410 C   0  0  0  0  0  2  0  0  0  0  0  0
  183.8070  178.2950  142.7670 C   0  0  0  0  0  3  0  0  0  0  0  0
  187.2410  178.0840  145.9800 C   0  0  0  0  0  0  0  0  0  0  0  0
  185.8490  178.7280  146.6840 S   0  0  0  0  0  0  0  0  0  0  0  0
  190.5470  177.0480  142.3480 N   0  0  0  0  0  0  0  0  0  0  0  0
  185.1480  177.9360  142.9720 C   0  0  0  0  0  3  0  0  0  0  0  0
  189.5380  177.6160  141.7530 C   0  0  0  0  0  0  0  0  0  0  0  0
  189.3360  176.9950  144.5030 N   0  0  0  0  0  0  0  0  0  0  0  0
  190.6990  177.4640  139.5140 C   0  0  0  0  0  2  0  0  0  0  0  0
  190.1970  176.6380  138.3400 C   0  0  0  0  0  2  0  0  0  0  0  0
  191.1920  175.5440  137.9690 C   0  0  0  0  0  2  0  0  0  0  0  0
  192.1360  176.0030  136.9040 C   0  0  0  0  0  0  0  0  0  0  0  0
  191.6760  176.2050  135.6430 F   0  0  0  0  0  0  0  0  0  0  0  0
  193.3820  176.3550  137.2130 C   0  0  0  0  0  2  0  0  0  0  0  0
  1 14  2  0  0  0  0
  2 12  1  6  0  0  0
  2 19  1  0  0  0  0
  2  1  1  0  0  0  0
  4  1  1  0  0  0  0
  4  8  1  0  0  0  0
  5 18  1  0  0  0  0
  6  9  1  0  0  0  0
  7  3  1  0  0  0  0
  8 15  1  0  0  0  0
  9  8  2  0  0  0  0
 10 11  2  0  0  0  0
 10 19  1  0  0  0  0
 13 17  1  0  0  0  0
 13  6  2  0  0  0  0
 14  3  1  0  0  0  0
 14 15  1  0  0  0  0
 16 10  1  0  0  0  0
 17  4  2  0  0  0  0
 18 16  2  0  0  0  0
 18 12  1  0  0  0  0
 19  7  1  0  0  0  0
 20  5  1  0  0  0  0
 21 20  1  0  0  0  0
 22 21  1  0  0  0  0
 23 25  2  0  0  0  0
 23 22  1  0  0  0  0
 24 23  1  0  0  0  0
M  END
>  <MODEL>
9

>  <REMARK>
 VINA RESULT:      -8.3      1.679      1.910
  Name = 
  4 active torsions:
  status: ('A' for Active; 'I' for Inactive)
    1  A    between atoms: C_2  and  C_25
    2  A    between atoms: N_6  and  C_15
    3  A    between atoms: C_15  and  C_21
    4  A    between atoms: C_21  and  C_25
                            x       y       z     vdW  Elec       q    Type
                         _______ _______ _______ _____ _____    ______ ____

>  <TORSDO>
F 4

$$$$
