=
 OpenBabel10252415073D

 34 38  0  0  1  0  0  0  0  0999 V2000
  182.9900  178.9740  143.5360 C   0  0  0  0  0  0  0  0  0  0  0  0
  183.2870  178.2680  141.1720 C   0  0  0  0  0  3  0  0  0  0  0  0
  185.2750  178.5970  142.6310 N   0  0  0  0  0  0  0  0  0  0  0  0
  187.7330  178.3950  142.0330 C   0  0  2  0  0  3  0  0  0  0  0  0
  181.0550  178.6460  142.1190 C   0  0  0  0  0  3  0  0  0  0  0  0
  181.4340  177.5510  139.9600 F   0  0  0  0  0  0  0  0  0  0  0  0
  186.0210  178.9160  140.4240 O   0  0  0  0  0  0  0  0  0  0  0  0
  183.8980  179.0220  142.3280 C   0  0  2  0  0  3  0  0  0  0  0  0
  181.5380  179.0150  143.3100 C   0  0  0  0  0  3  0  0  0  0  0  0
  185.7240  178.4920  143.9980 C   0  0  0  0  0  0  0  0  0  0  0  0
  183.4620  178.8720  144.7400 N   0  0  0  0  0  0  0  0  0  0  0  0
  181.9580  178.1660  141.0470 C   0  0  0  0  0  0  0  0  0  0  0  0
  187.7800  177.5750  143.1800 O   0  0  0  0  0  0  0  0  0  0  0  0
  187.2100  178.2950  144.2500 C   0  0  2  0  0  3  0  0  0  0  0  0
  186.2990  178.6160  141.6160 C   0  0  0  0  0  0  0  0  0  0  0  0
  184.8570  178.6810  144.9980 C   0  0  0  0  0  3  0  0  0  0  0  0
  189.3690  177.0110  147.1770 C   0  0  0  0  0  0  0  0  0  0  0  0
  188.5220  177.3880  148.3580 C   0  0  0  0  0  2  0  0  0  0  0  0
  187.5640  177.5940  145.5670 C   0  0  1  0  0  3  0  0  0  0  0  0
  187.5180  178.4770  147.9810 C   0  0  0  0  0  2  0  0  0  0  0  0
  189.0760  177.5810  145.8220 C   0  0  0  0  0  2  0  0  0  0  0  0
  186.6990  178.0710  146.7540 C   0  0  0  0  0  2  0  0  0  0  0  0
  190.3110  176.2520  147.3250 O   0  0  0  0  0  0  0  0  0  0  0  0
  188.5320  177.7440  140.9150 C   0  0  0  0  0  2  0  0  0  0  0  0
  189.6120  176.8440  141.4950 C   0  0  0  0  0  2  0  0  0  0  0  0
  190.7930  177.1180  139.4350 C   0  0  0  0  0  3  0  0  0  0  0  0
  190.4860  176.3610  140.4390 N   0  0  0  0  0  0  0  0  0  0  0  0
  193.6820  177.0590  139.4530 O   0  0  0  0  0  0  0  0  0  0  0  0
  191.6740  176.6640  138.3440 C   0  0  2  0  0  3  0  0  0  0  0  0
  193.0840  176.6620  138.4190 C   0  0  0  0  0  0  0  0  0  0  0  0
  193.2320  175.7820  136.2130 C   0  0  0  0  0  3  0  0  0  0  0  0
  191.8420  175.7690  136.0990 C   0  0  0  0  0  3  0  0  0  0  0  0
  191.0660  176.2120  137.1700 C   0  0  0  0  0  3  0  0  0  0  0  0
  193.8170  176.2240  137.3590 N   0  0  0  0  0  0  0  0  0  0  0  0
  1 11  2  0  0  0  0
  3 10  1  0  0  0  0
  4 24  1  6  0  0  0
  4 13  1  0  0  0  0
  5  9  2  0  0  0  0
  6 12  1  0  0  0  0
  7 15  2  0  0  0  0
  8  2  1  6  0  0  0
  8  3  1  0  0  0  0
  8  1  1  0  0  0  0
  9  1  1  0  0  0  0
 10 14  1  0  0  0  0
 10 16  2  0  0  0  0
 11 16  1  0  0  0  0
 12  2  2  0  0  0  0
 12  5  1  0  0  0  0
 14 13  1  6  0  0  0
 14 19  1  0  0  0  0
 15  4  1  0  0  0  0
 15  3  1  0  0  0  0
 17 23  2  0  0  0  0
 17 18  1  0  0  0  0
 19 21  1  1  0  0  0
 19 22  1  0  0  0  0
 20 18  1  0  0  0  0
 21 17  1  0  0  0  0
 22 20  1  0  0  0  0
 24 25  1  0  0  0  0
 26 27  2  0  0  0  0
 27 25  1  0  0  0  0
 29 30  1  0  0  0  0
 29 26  1  6  0  0  0
 30 28  2  0  0  0  0
 31 34  2  0  0  0  0
 32 31  1  0  0  0  0
 32 33  2  0  0  0  0
 33 29  1  0  0  0  0
 34 30  1  0  0  0  0
M  END
>  <MODEL>
1

>  <REMARK>
 VINA RESULT:     -10.3      0.000      0.000
  Name = 
  5 active torsions:
  status: ('A' for Active; 'I' for Inactive)
    1  A    between atoms: C_3  and  C_13
    2  A    between atoms: C_5  and  C_18
    3  A    between atoms: C_12  and  C_28
    4  A    between atoms: N_17  and  C_29
    5  A    between atoms: C_18  and  C_29
                            x       y       z     vdW  Elec       q    Type
                         _______ _______ _______ _____ _____    ______ ____

>  <TORSDO>
F 5

$$$$
=
 OpenBabel10252415073D

 34 38  0  0  1  0  0  0  0  0999 V2000
  181.2300  178.6420  142.7940 C   0  0  0  0  0  0  0  0  0  0  0  0
  181.7120  177.8520  140.4880 C   0  0  0  0  0  3  0  0  0  0  0  0
  183.5750  178.5840  141.9660 N   0  0  0  0  0  0  0  0  0  0  0  0
  186.0510  178.7450  141.4360 C   0  0  2  0  0  3  0  0  0  0  0  0
  179.4190  177.9220  141.3590 C   0  0  0  0  0  3  0  0  0  0  0  0
  180.0360  176.7740  139.2850 F   0  0  0  0  0  0  0  0  0  0  0  0
  184.3300  178.8860  139.7590 O   0  0  0  0  0  0  0  0  0  0  0  0
  182.1580  178.7630  141.6050 C   0  0  2  0  0  3  0  0  0  0  0  0
  179.7980  178.4350  142.5340 C   0  0  0  0  0  3  0  0  0  0  0  0
  183.9900  178.6360  143.3460 C   0  0  0  0  0  0  0  0  0  0  0  0
  181.6740  178.6910  144.0120 N   0  0  0  0  0  0  0  0  0  0  0  0
  180.4210  177.5300  140.3410 C   0  0  0  0  0  0  0  0  0  0  0  0
  186.1910  178.0140  142.6340 O   0  0  0  0  0  0  0  0  0  0  0  0
  185.4800  178.6960  143.6420 C   0  0  2  0  0  3  0  0  0  0  0  0
  184.6140  178.7070  140.9740 C   0  0  0  0  0  0  0  0  0  0  0  0
  183.0730  178.7430  144.3130 C   0  0  0  0  0  3  0  0  0  0  0  0
  187.7960  177.5460  146.5040 C   0  0  0  0  0  0  0  0  0  0  0  0
  187.1460  178.1950  147.6910 C   0  0  0  0  0  2  0  0  0  0  0  0
  185.8990  178.1420  145.0100 C   0  0  1  0  0  3  0  0  0  0  0  0
  186.2440  179.3480  147.2540 C   0  0  0  0  0  2  0  0  0  0  0  0
  187.4170  177.9590  145.1130 C   0  0  0  0  0  2  0  0  0  0  0  0
  185.2430  178.8920  146.1890 C   0  0  0  0  0  2  0  0  0  0  0  0
  188.6510  176.6930  146.6720 O   0  0  0  0  0  0  0  0  0  0  0  0
  186.9790  178.1650  140.3790 C   0  0  0  0  0  2  0  0  0  0  0  0
  188.3900  178.6980  140.5700 C   0  0  0  0  0  2  0  0  0  0  0  0
  190.1700  177.8650  141.9310 C   0  0  0  0  0  3  0  0  0  0  0  0
  188.9340  178.2370  141.8370 N   0  0  0  0  0  0  0  0  0  0  0  0
  190.8800  179.4750  144.2230 O   0  0  0  0  0  0  0  0  0  0  0  0
  190.7580  177.3900  143.1950 C   0  0  2  0  0  3  0  0  0  0  0  0
  191.0830  178.2340  144.2810 C   0  0  0  0  0  0  0  0  0  0  0  0
  191.8670  176.3720  145.5370 C   0  0  0  0  0  3  0  0  0  0  0  0
  191.5620  175.5050  144.4890 C   0  0  0  0  0  3  0  0  0  0  0  0
  191.0060  176.0200  143.3180 C   0  0  0  0  0  3  0  0  0  0  0  0
  191.6240  177.7040  145.4110 N   0  0  0  0  0  0  0  0  0  0  0  0
  1 11  2  0  0  0  0
  3 10  1  0  0  0  0
  4 24  1  6  0  0  0
  4 13  1  0  0  0  0
  5  9  2  0  0  0  0
  6 12  1  0  0  0  0
  7 15  2  0  0  0  0
  8  2  1  6  0  0  0
  8  3  1  0  0  0  0
  8  1  1  0  0  0  0
  9  1  1  0  0  0  0
 10 14  1  0  0  0  0
 10 16  2  0  0  0  0
 11 16  1  0  0  0  0
 12  2  2  0  0  0  0
 12  5  1  0  0  0  0
 14 13  1  6  0  0  0
 14 19  1  0  0  0  0
 15  4  1  0  0  0  0
 15  3  1  0  0  0  0
 17 23  2  0  0  0  0
 17 18  1  0  0  0  0
 19 21  1  1  0  0  0
 19 22  1  0  0  0  0
 20 18  1  0  0  0  0
 21 17  1  0  0  0  0
 22 20  1  0  0  0  0
 24 25  1  0  0  0  0
 25 27  1  0  0  0  0
 27 26  2  0  0  0  0
 28 30  2  0  0  0  0
 29 26  1  6  0  0  0
 29 33  1  0  0  0  0
 29 30  1  0  0  0  0
 30 34  1  0  0  0  0
 32 31  1  0  0  0  0
 33 32  2  0  0  0  0
 34 31  2  0  0  0  0
M  END
>  <MODEL>
2

>  <REMARK>
 VINA RESULT:     -10.0      2.935      3.729
  Name = 
  5 active torsions:
  status: ('A' for Active; 'I' for Inactive)
    1  A    between atoms: C_3  and  C_13
    2  A    between atoms: C_5  and  C_18
    3  A    between atoms: C_12  and  C_28
    4  A    between atoms: N_17  and  C_29
    5  A    between atoms: C_18  and  C_29
                            x       y       z     vdW  Elec       q    Type
                         _______ _______ _______ _____ _____    ______ ____

>  <TORSDO>
F 5

$$$$
=
 OpenBabel10252415073D

 34 38  0  0  1  0  0  0  0  0999 V2000
  189.6700  176.6920  141.0500 C   0  0  0  0  0  0  0  0  0  0  0  0
  188.3500  178.5690  140.0960 C   0  0  0  0  0  3  0  0  0  0  0  0
  187.7120  177.5910  142.2930 N   0  0  0  0  0  0  0  0  0  0  0  0
  185.7460  178.1840  143.7830 C   0  0  2  0  0  3  0  0  0  0  0  0
  190.2960  177.6500  138.9170 C   0  0  0  0  0  3  0  0  0  0  0  0
  189.2030  179.7480  138.2790 F   0  0  0  0  0  0  0  0  0  0  0  0
  185.7520  178.5380  141.4020 O   0  0  0  0  0  0  0  0  0  0  0  0
  188.3050  177.3380  140.9680 C   0  0  0  0  0  0  0  0  0  0  0  0
  190.5190  176.7190  139.8500 C   0  0  0  0  0  2  0  0  0  0  0  0
  188.2590  176.9630  143.4700 C   0  0  0  0  0  0  0  0  0  0  0  0
  190.1030  176.1510  142.1460 N   0  0  0  0  0  0  0  0  0  0  0  0
  189.2340  178.6670  139.0950 C   0  0  0  0  0  0  0  0  0  0  0  0
  186.7350  178.2610  144.7850 O   0  0  0  0  0  0  0  0  0  0  0  0
  187.4660  177.0560  144.7640 C   0  0  2  0  0  3  0  0  0  0  0  0
  186.3950  178.1620  142.4190 C   0  0  0  0  0  0  0  0  0  0  0  0
  189.3740  176.2300  143.3760 C   0  0  0  0  0  3  0  0  0  0  0  0
  190.4570  177.4820  147.1620 C   0  0  0  0  0  0  0  0  0  0  0  0
  189.7700  177.9470  148.4130 C   0  0  0  0  0  2  0  0  0  0  0  0
  188.2960  176.9530  146.0500 C   0  0  1  0  0  3  0  0  0  0  0  0
  188.3840  178.5050  148.0970 C   0  0  0  0  0  2  0  0  0  0  0  0
  189.7240  177.4740  145.8540 C   0  0  0  0  0  2  0  0  0  0  0  0
  187.5560  177.5030  147.2890 C   0  0  0  0  0  2  0  0  0  0  0  0
  191.6230  177.1280  147.2070 O   0  0  0  0  0  0  0  0  0  0  0  0
  184.7980  179.3670  143.9170 C   0  0  0  0  0  2  0  0  0  0  0  0
  183.6290  179.0020  144.8180 C   0  0  0  0  0  2  0  0  0  0  0  0
  182.4220  179.0630  142.7550 C   0  0  0  0  0  3  0  0  0  0  0  0
  182.4170  178.8480  144.0310 N   0  0  0  0  0  0  0  0  0  0  0  0
  180.0560  180.7180  142.8410 O   0  0  0  0  0  0  0  0  0  0  0  0
  181.2140  178.9190  141.9240 C   0  0  1  0  0  3  0  0  0  0  0  0
  180.0880  179.7660  142.0170 C   0  0  0  0  0  0  0  0  0  0  0  0
  178.9870  178.5460  140.2970 C   0  0  0  0  0  3  0  0  0  0  0  0
  180.0790  177.6870  140.1730 C   0  0  0  0  0  3  0  0  0  0  0  0
  181.1920  177.8790  140.9910 C   0  0  0  0  0  3  0  0  0  0  0  0
  179.0150  179.5560  141.2060 N   0  0  0  0  0  0  0  0  0  0  0  0
  1 11  2  0  0  0  0
  2  8  2  0  0  0  0
  3 15  1  0  0  0  0
  3 10  1  0  0  0  0
  4 24  1  6  0  0  0
  4 13  1  0  0  0  0
  5 12  2  0  0  0  0
  5  9  1  0  0  0  0
  6 12  1  0  0  0  0
  7 15  2  0  0  0  0
  8  1  1  0  0  0  0
  8  3  1  0  0  0  0
  9  1  1  0  0  0  0
 11 16  1  0  0  0  0
 12  2  1  0  0  0  0
 14 10  1  6  0  0  0
 14 13  1  0  0  0  0
 14 19  1  0  0  0  0
 15  4  1  0  0  0  0
 16 10  2  0  0  0  0
 17 23  2  0  0  0  0
 17 18  1  0  0  0  0
 19 21  1  6  0  0  0
 19 22  1  0  0  0  0
 20 18  1  0  0  0  0
 21 17  1  0  0  0  0
 22 20  1  0  0  0  0
 24 25  1  0  0  0  0
 26 27  2  0  0  0  0
 27 25  1  0  0  0  0
 29 30  1  0  0  0  0
 29 26  1  6  0  0  0
 30 28  2  0  0  0  0
 31 34  2  0  0  0  0
 32 31  1  0  0  0  0
 32 33  2  0  0  0  0
 33 29  1  0  0  0  0
 34 30  1  0  0  0  0
M  END
>  <MODEL>
3

>  <REMARK>
 VINA RESULT:      -9.9      2.777      7.814
  Name = 
  5 active torsions:
  status: ('A' for Active; 'I' for Inactive)
    1  A    between atoms: C_3  and  C_13
    2  A    between atoms: C_5  and  C_18
    3  A    between atoms: C_12  and  C_28
    4  A    between atoms: N_17  and  C_29
    5  A    between atoms: C_18  and  C_29
                            x       y       z     vdW  Elec       q    Type
                         _______ _______ _______ _____ _____    ______ ____

>  <TORSDO>
F 5

$$$$
=
 OpenBabel10252415073D

 34 38  0  0  1  0  0  0  0  0999 V2000
  184.6000  178.8500  144.3310 C   0  0  0  0  0  0  0  0  0  0  0  0
  183.7650  178.4730  142.0220 C   0  0  0  0  0  3  0  0  0  0  0  0
  186.2110  178.4730  142.4740 N   0  0  0  0  0  0  0  0  0  0  0  0
  188.1280  178.2140  140.8320 C   0  0  2  0  0  3  0  0  0  0  0  0
  182.2200  178.8420  143.8920 C   0  0  0  0  0  3  0  0  0  0  0  0
  181.5000  178.0470  141.6890 F   0  0  0  0  0  0  0  0  0  0  0  0
  185.9620  179.0600  140.2100 O   0  0  0  0  0  0  0  0  0  0  0  0
  184.8970  179.0170  142.8570 C   0  0  2  0  0  3  0  0  0  0  0  0
  183.2080  179.0080  144.7770 C   0  0  0  0  0  3  0  0  0  0  0  0
  187.1900  178.1470  143.4820 C   0  0  0  0  0  0  0  0  0  0  0  0
  185.5300  178.5500  145.1840 N   0  0  0  0  0  0  0  0  0  0  0  0
  182.5100  178.4680  142.4890 C   0  0  0  0  0  0  0  0  0  0  0  0
  188.5700  177.2370  141.7480 O   0  0  0  0  0  0  0  0  0  0  0  0
  188.6060  177.8290  143.0270 C   0  0  2  0  0  3  0  0  0  0  0  0
  186.6910  178.5770  141.1190 C   0  0  0  0  0  0  0  0  0  0  0  0
  186.8680  178.2420  144.7760 C   0  0  0  0  0  3  0  0  0  0  0  0
  191.5250  175.6650  144.3210 C   0  0  0  0  0  0  0  0  0  0  0  0
  191.6630  176.1650  145.7290 C   0  0  0  0  0  2  0  0  0  0  0  0
  189.4100  176.9270  143.9720 C   0  0  1  0  0  3  0  0  0  0  0  0
  191.0140  177.5390  145.8850 C   0  0  0  0  0  2  0  0  0  0  0  0
  190.7060  176.4280  143.3230 C   0  0  0  0  0  2  0  0  0  0  0  0
  189.5670  177.5260  145.3870 C   0  0  0  0  0  2  0  0  0  0  0  0
  192.0970  174.6440  143.9810 O   0  0  0  0  0  0  0  0  0  0  0  0
  188.2850  177.6840  139.4150 C   0  0  0  0  0  2  0  0  0  0  0  0
  189.2310  178.5730  138.6240 C   0  0  0  0  0  2  0  0  0  0  0  0
  190.3670  176.5050  138.2330 C   0  0  0  0  0  3  0  0  0  0  0  0
  190.3540  177.7950  138.1270 N   0  0  0  0  0  0  0  0  0  0  0  0
  190.2570  173.7300  137.4360 O   0  0  0  0  0  0  0  0  0  0  0  0
  191.4870  175.6830  137.7440 C   0  0  2  0  0  3  0  0  0  0  0  0
  191.3640  174.3260  137.3700 C   0  0  0  0  0  0  0  0  0  0  0  0
  193.6800  174.2310  136.8340 C   0  0  0  0  0  3  0  0  0  0  0  0
  193.8440  175.5680  137.1940 C   0  0  0  0  0  3  0  0  0  0  0  0
  192.7420  176.2910  137.6490 C   0  0  0  0  0  3  0  0  0  0  0  0
  192.4570  173.6450  136.9290 N   0  0  0  0  0  0  0  0  0  0  0  0
  1  9  1  0  0  0  0
  1 11  2  0  0  0  0
  2 12  2  0  0  0  0
  3  8  1  0  0  0  0
  3 10  1  0  0  0  0
  4 24  1  6  0  0  0
  4 15  1  0  0  0  0
  4 13  1  0  0  0  0
  5  9  2  0  0  0  0
  6 12  1  0  0  0  0
  7 15  2  0  0  0  0
  8  2  1  6  0  0  0
  8  1  1  0  0  0  0
 10 16  2  0  0  0  0
 12  5  1  0  0  0  0
 14 13  1  6  0  0  0
 14 10  1  0  0  0  0
 14 19  1  0  0  0  0
 15  3  1  0  0  0  0
 16 11  1  0  0  0  0
 17 18  1  0  0  0  0
 18 20  1  0  0  0  0
 19 21  1  6  0  0  0
 19 22  1  0  0  0  0
 21 17  1  0  0  0  0
 22 20  1  0  0  0  0
 23 17  2  0  0  0  0
 25 24  1  0  0  0  0
 27 26  2  0  0  0  0
 27 25  1  0  0  0  0
 29 26  1  1  0  0  0
 30 28  2  0  0  0  0
 30 29  1  0  0  0  0
 31 34  2  0  0  0  0
 31 32  1  0  0  0  0
 32 33  2  0  0  0  0
 33 29  1  0  0  0  0
 34 30  1  0  0  0  0
M  END
>  <MODEL>
4

>  <REMARK>
 VINA RESULT:      -9.8      1.980      2.525
  Name = 
  5 active torsions:
  status: ('A' for Active; 'I' for Inactive)
    1  A    between atoms: C_3  and  C_13
    2  A    between atoms: C_5  and  C_18
    3  A    between atoms: C_12  and  C_28
    4  A    between atoms: N_17  and  C_29
    5  A    between atoms: C_18  and  C_29
                            x       y       z     vdW  Elec       q    Type
                         _______ _______ _______ _____ _____    ______ ____

>  <TORSDO>
F 5

$$$$
=
 OpenBabel10252415073D

 34 38  0  0  1  0  0  0  0  0999 V2000
  183.8590  178.9080  143.9040 C   0  0  0  0  0  0  0  0  0  0  0  0
  183.6390  178.3590  141.4910 C   0  0  0  0  0  3  0  0  0  0  0  0
  185.8950  178.5380  142.5250 N   0  0  0  0  0  0  0  0  0  0  0  0
  188.1690  178.3170  141.4210 C   0  0  2  0  0  3  0  0  0  0  0  0
  181.6640  178.7250  142.8990 C   0  0  0  0  0  3  0  0  0  0  0  0
  181.5520  177.7720  140.6450 F   0  0  0  0  0  0  0  0  0  0  0  0
  186.1850  178.9890  140.2350 O   0  0  0  0  0  0  0  0  0  0  0  0
  184.5020  179.0170  142.5390 C   0  0  2  0  0  3  0  0  0  0  0  0
  182.3940  179.0000  143.9850 C   0  0  0  0  0  3  0  0  0  0  0  0
  186.6090  178.3290  143.7600 C   0  0  0  0  0  0  0  0  0  0  0  0
  184.5630  178.7120  144.9760 N   0  0  0  0  0  0  0  0  0  0  0  0
  182.3100  178.2980  141.6370 C   0  0  0  0  0  0  0  0  0  0  0  0
  188.4180  177.4190  142.4800 O   0  0  0  0  0  0  0  0  0  0  0  0
  188.1070  178.0780  143.6870 C   0  0  2  0  0  3  0  0  0  0  0  0
  186.6890  178.6020  141.3230 C   0  0  0  0  0  0  0  0  0  0  0  0
  185.9730  178.4700  144.9280 C   0  0  0  0  0  3  0  0  0  0  0  0
  190.7380  176.7480  146.1740 C   0  0  0  0  0  0  0  0  0  0  0  0
  190.0040  176.8760  147.4780 C   0  0  0  0  0  2  0  0  0  0  0  0
  188.6960  177.2800  144.8570 C   0  0  1  0  0  3  0  0  0  0  0  0
  188.8460  177.8640  147.3550 C   0  0  0  0  0  2  0  0  0  0  0  0
  190.2190  177.4300  144.9440 C   0  0  0  0  0  2  0  0  0  0  0  0
  187.9340  177.5030  146.1810 C   0  0  0  0  0  2  0  0  0  0  0  0
  191.7710  176.1030  146.1210 O   0  0  0  0  0  0  0  0  0  0  0  0
  188.6970  177.7250  140.1230 C   0  0  0  0  0  2  0  0  0  0  0  0
  190.1930  177.4750  140.2300 C   0  0  0  0  0  2  0  0  0  0  0  0
  191.5970  176.3870  138.6290 C   0  0  0  0  0  3  0  0  0  0  0  0
  190.5720  176.3310  139.4180 N   0  0  0  0  0  0  0  0  0  0  0  0
  194.3040  175.5780  138.0230 O   0  0  0  0  0  0  0  0  0  0  0  0
  192.0110  175.2500  137.7880 C   0  0  2  0  0  3  0  0  0  0  0  0
  193.3570  174.9090  137.5310 C   0  0  0  0  0  0  0  0  0  0  0  0
  192.6690  173.0760  136.1800 C   0  0  0  0  0  3  0  0  0  0  0  0
  191.3260  173.3800  136.4080 C   0  0  0  0  0  3  0  0  0  0  0  0
  191.0030  174.4700  137.2150 C   0  0  0  0  0  3  0  0  0  0  0  0
  193.6440  173.8390  136.7410 N   0  0  0  0  0  0  0  0  0  0  0  0
  1  9  1  0  0  0  0
  1 11  2  0  0  0  0
  2 12  2  0  0  0  0
  3  8  1  0  0  0  0
  3 10  1  0  0  0  0
  4 24  1  6  0  0  0
  4 13  1  0  0  0  0
  5  9  2  0  0  0  0
  6 12  1  0  0  0  0
  7 15  2  0  0  0  0
  8  2  1  6  0  0  0
  8  1  1  0  0  0  0
 10 16  2  0  0  0  0
 12  5  1  0  0  0  0
 14 13  1  6  0  0  0
 14 10  1  0  0  0  0
 14 19  1  0  0  0  0
 15  4  1  0  0  0  0
 15  3  1  0  0  0  0
 16 11  1  0  0  0  0
 17 18  1  0  0  0  0
 19 21  1  1  0  0  0
 19 22  1  0  0  0  0
 20 18  1  0  0  0  0
 21 17  1  0  0  0  0
 22 20  1  0  0  0  0
 23 17  2  0  0  0  0
 24 25  1  0  0  0  0
 26 27  2  0  0  0  0
 27 25  1  0  0  0  0
 29 26  1  6  0  0  0
 30 29  1  0  0  0  0
 30 28  2  0  0  0  0
 31 32  1  0  0  0  0
 31 34  2  0  0  0  0
 32 33  2  0  0  0  0
 33 29  1  0  0  0  0
 34 30  1  0  0  0  0
M  END
>  <MODEL>
5

>  <REMARK>
 VINA RESULT:      -9.7      1.291      1.432
  Name = 
  5 active torsions:
  status: ('A' for Active; 'I' for Inactive)
    1  A    between atoms: C_3  and  C_13
    2  A    between atoms: C_5  and  C_18
    3  A    between atoms: C_12  and  C_28
    4  A    between atoms: N_17  and  C_29
    5  A    between atoms: C_18  and  C_29
                            x       y       z     vdW  Elec       q    Type
                         _______ _______ _______ _____ _____    ______ ____

>  <TORSDO>
F 5

$$$$
=
 OpenBabel10252415073D

 34 38  0  0  1  0  0  0  0  0999 V2000
  187.8290  178.2900  138.0560 C   0  0  0  0  0  0  0  0  0  0  0  0
  188.7000  177.4500  140.2260 C   0  0  0  0  0  3  0  0  0  0  0  0
  186.4040  178.3990  140.0920 N   0  0  0  0  0  0  0  0  0  0  0  0
  184.7200  178.7490  141.9580 C   0  0  2  0  0  3  0  0  0  0  0  0
  190.0590  177.3590  138.1860 C   0  0  0  0  0  3  0  0  0  0  0  0
  190.6530  176.1850  140.2520 F   0  0  0  0  0  0  0  0  0  0  0  0
  187.0980  178.6740  142.3220 O   0  0  0  0  0  0  0  0  0  0  0  0
  187.7770  178.4410  139.5600 C   0  0  0  0  0  0  0  0  0  0  0  0
  189.1200  177.9500  137.4410 C   0  0  0  0  0  2  0  0  0  0  0  0
  185.2730  178.5420  139.2080 C   0  0  0  0  0  0  0  0  0  0  0  0
  186.7690  178.4250  137.3210 N   0  0  0  0  0  0  0  0  0  0  0  0
  189.8010  177.0130  139.6030 C   0  0  0  0  0  0  0  0  0  0  0  0
  183.8450  178.0820  141.0750 O   0  0  0  0  0  0  0  0  0  0  0  0
  183.9000  178.7410  139.8300 C   0  0  2  0  0  3  0  0  0  0  0  0
  186.1480  178.5690  141.5000 C   0  0  0  0  0  0  0  0  0  0  0  0
  185.4660  178.6090  137.8870 C   0  0  0  0  0  3  0  0  0  0  0  0
  180.6220  176.9440  138.8820 C   0  0  0  0  0  0  0  0  0  0  0  0
  179.8820  178.0360  138.1640 C   0  0  0  0  0  2  0  0  0  0  0  0
  182.7170  178.2810  138.9690 C   0  0  1  0  0  3  0  0  0  0  0  0
  180.4490  179.4070  138.5290 C   0  0  0  0  0  2  0  0  0  0  0  0
  181.8360  177.2640  139.7020 C   0  0  0  0  0  2  0  0  0  0  0  0
  181.9620  179.4550  138.3080 C   0  0  0  0  0  2  0  0  0  0  0  0
  180.2220  175.7940  138.8130 O   0  0  0  0  0  0  0  0  0  0  0  0
  184.5260  178.2080  143.3660 C   0  0  0  0  0  2  0  0  0  0  0  0
  184.5110  179.3500  144.3690 C   0  0  0  0  0  2  0  0  0  0  0  0
  186.2540  178.0950  145.4200 C   0  0  0  0  0  3  0  0  0  0  0  0
  185.6210  179.2180  145.2980 N   0  0  0  0  0  0  0  0  0  0  0  0
  188.8550  176.9960  144.8040 O   0  0  0  0  0  0  0  0  0  0  0  0
  187.3820  177.9210  146.3520 C   0  0  2  0  0  3  0  0  0  0  0  0
  188.6320  177.3740  145.9840 C   0  0  0  0  0  0  0  0  0  0  0  0
  189.4390  177.6400  148.2060 C   0  0  0  0  0  3  0  0  0  0  0  0
  188.2200  178.1840  148.6100 C   0  0  0  0  0  3  0  0  0  0  0  0
  187.1930  178.3220  147.6770 C   0  0  0  0  0  3  0  0  0  0  0  0
  189.6160  177.2510  146.9150 N   0  0  0  0  0  0  0  0  0  0  0  0
  1  8  1  0  0  0  0
  3 15  1  0  0  0  0
  4 24  1  1  0  0  0
  5 12  2  0  0  0  0
  8  3  1  0  0  0  0
  8  2  2  0  0  0  0
  9  1  1  0  0  0  0
  9  5  1  0  0  0  0
 10  3  1  0  0  0  0
 11 16  1  0  0  0  0
 11  1  2  0  0  0  0
 12  2  1  0  0  0  0
 12  6  1  0  0  0  0
 13  4  1  0  0  0  0
 14 10  1  6  0  0  0
 14 13  1  0  0  0  0
 15  4  1  0  0  0  0
 15  7  2  0  0  0  0
 16 10  2  0  0  0  0
 17 21  1  0  0  0  0
 18 20  1  0  0  0  0
 18 17  1  0  0  0  0
 19 22  1  1  0  0  0
 19 21  1  0  0  0  0
 19 14  1  0  0  0  0
 22 20  1  0  0  0  0
 23 17  2  0  0  0  0
 24 25  1  0  0  0  0
 25 27  1  0  0  0  0
 27 26  2  0  0  0  0
 28 30  2  0  0  0  0
 29 26  1  1  0  0  0
 29 33  1  0  0  0  0
 30 29  1  0  0  0  0
 30 34  1  0  0  0  0
 31 32  1  0  0  0  0
 33 32  2  0  0  0  0
 34 31  2  0  0  0  0
M  END
>  <MODEL>
6

>  <REMARK>
 VINA RESULT:      -9.5      3.113      8.613
  Name = 
  5 active torsions:
  status: ('A' for Active; 'I' for Inactive)
    1  A    between atoms: C_3  and  C_13
    2  A    between atoms: C_5  and  C_18
    3  A    between atoms: C_12  and  C_28
    4  A    between atoms: N_17  and  C_29
    5  A    between atoms: C_18  and  C_29
                            x       y       z     vdW  Elec       q    Type
                         _______ _______ _______ _____ _____    ______ ____

>  <TORSDO>
F 5

$$$$
=
 OpenBabel10252415073D

 34 38  0  0  1  0  0  0  0  0999 V2000
  187.0440  177.5860  146.8630 C   0  0  0  0  0  0  0  0  0  0  0  0
  189.5070  177.9090  146.8770 C   0  0  0  0  0  3  0  0  0  0  0  0
  188.3170  177.5240  144.7270 N   0  0  0  0  0  0  0  0  0  0  0  0
  189.2870  177.3090  142.3920 C   0  0  2  0  0  3  0  0  0  0  0  0
  188.2020  177.9690  148.9540 C   0  0  0  0  0  3  0  0  0  0  0  0
  190.5390  178.6920  148.8120 F   0  0  0  0  0  0  0  0  0  0  0  0
  190.5300  176.8020  144.3910 O   0  0  0  0  0  0  0  0  0  0  0  0
  188.3470  177.2480  146.1740 C   0  0  2  0  0  3  0  0  0  0  0  0
  187.0490  177.7090  148.3280 C   0  0  0  0  0  3  0  0  0  0  0  0
  187.0630  177.7570  144.0540 C   0  0  0  0  0  0  0  0  0  0  0  0
  185.9520  177.7910  146.1930 N   0  0  0  0  0  0  0  0  0  0  0  0
  189.4540  178.1690  148.1890 C   0  0  0  0  0  0  0  0  0  0  0  0
  188.3040  178.2680  142.0700 O   0  0  0  0  0  0  0  0  0  0  0  0
  187.0630  177.7870  142.5330 C   0  0  2  0  0  3  0  0  0  0  0  0
  189.4530  177.2260  143.8910 C   0  0  0  0  0  0  0  0  0  0  0  0
  185.9310  177.8270  144.7620 C   0  0  0  0  0  3  0  0  0  0  0  0
  184.7570  179.2110  139.7900 C   0  0  0  0  0  0  0  0  0  0  0  0
  183.4080  179.0740  140.4350 C   0  0  0  0  0  2  0  0  0  0  0  0
  185.9380  178.6110  141.8940 C   0  0  1  0  0  3  0  0  0  0  0  0
  183.4500  178.0520  141.5700 C   0  0  0  0  0  2  0  0  0  0  0  0
  185.9470  178.5050  140.3650 C   0  0  0  0  0  2  0  0  0  0  0  0
  184.5660  178.3780  142.5650 C   0  0  0  0  0  2  0  0  0  0  0  0
  184.8800  179.8850  138.7810 O   0  0  0  0  0  0  0  0  0  0  0  0
  190.5980  177.6850  141.7190 C   0  0  0  0  0  2  0  0  0  0  0  0
  190.8710  176.7550  140.5470 C   0  0  0  0  0  2  0  0  0  0  0  0
  189.5990  177.4780  138.6550 C   0  0  0  0  0  3  0  0  0  0  0  0
  189.7090  176.6890  139.6760 N   0  0  0  0  0  0  0  0  0  0  0  0
  188.4880  179.6990  137.1790 O   0  0  0  0  0  0  0  0  0  0  0  0
  188.4360  177.4430  137.7520 C   0  0  1  0  0  3  0  0  0  0  0  0
  187.9430  178.5710  137.0580 C   0  0  0  0  0  0  0  0  0  0  0  0
  186.2270  177.2530  136.0690 C   0  0  0  0  0  3  0  0  0  0  0  0
  186.6820  176.1150  136.7360 C   0  0  0  0  0  3  0  0  0  0  0  0
  187.7900  176.2170  137.5770 C   0  0  0  0  0  3  0  0  0  0  0  0
  186.8610  178.4430  136.2430 N   0  0  0  0  0  0  0  0  0  0  0  0
  1  9  1  0  0  0  0
  2 12  2  0  0  0  0
  3  8  1  0  0  0  0
  4 24  1  6  0  0  0
  4 15  1  0  0  0  0
  8  1  1  0  0  0  0
  8  2  1  1  0  0  0
  9  5  2  0  0  0  0
 10  3  1  0  0  0  0
 10 16  2  0  0  0  0
 11  1  2  0  0  0  0
 12  6  1  0  0  0  0
 12  5  1  0  0  0  0
 13  4  1  0  0  0  0
 14 13  1  1  0  0  0
 14 10  1  0  0  0  0
 15  7  2  0  0  0  0
 15  3  1  0  0  0  0
 16 11  1  0  0  0  0
 17 21  1  0  0  0  0
 17 18  1  0  0  0  0
 18 20  1  0  0  0  0
 19 21  1  6  0  0  0
 19 14  1  0  0  0  0
 19 22  1  0  0  0  0
 20 22  1  0  0  0  0
 23 17  2  0  0  0  0
 25 24  1  0  0  0  0
 26 27  2  0  0  0  0
 27 25  1  0  0  0  0
 29 26  1  6  0  0  0
 30 28  2  0  0  0  0
 30 29  1  0  0  0  0
 31 34  2  0  0  0  0
 31 32  1  0  0  0  0
 32 33  2  0  0  0  0
 33 29  1  0  0  0  0
 34 30  1  0  0  0  0
M  END
>  <MODEL>
7

>  <REMARK>
 VINA RESULT:      -9.4      3.270      6.235
  Name = 
  5 active torsions:
  status: ('A' for Active; 'I' for Inactive)
    1  A    between atoms: C_3  and  C_13
    2  A    between atoms: C_5  and  C_18
    3  A    between atoms: C_12  and  C_28
    4  A    between atoms: N_17  and  C_29
    5  A    between atoms: C_18  and  C_29
                            x       y       z     vdW  Elec       q    Type
                         _______ _______ _______ _____ _____    ______ ____

>  <TORSDO>
F 5

$$$$
=
 OpenBabel10252415073D

 34 38  0  0  1  0  0  0  0  0999 V2000
  189.8770  177.5790  143.4730 C   0  0  0  0  0  0  0  0  0  0  0  0
  187.4080  177.7000  143.2210 C   0  0  0  0  0  3  0  0  0  0  0  0
  188.8680  177.7680  141.2080 N   0  0  0  0  0  0  0  0  0  0  0  0
  188.2040  178.0440  138.7740 C   0  0  2  0  0  3  0  0  0  0  0  0
  188.4560  177.5040  145.4310 C   0  0  0  0  0  3  0  0  0  0  0  0
  186.0550  177.2030  145.0490 F   0  0  0  0  0  0  0  0  0  0  0  0
  186.8710  178.8550  140.6080 O   0  0  0  0  0  0  0  0  0  0  0  0
  188.7360  178.1110  142.6340 C   0  0  2  0  0  3  0  0  0  0  0  0
  189.6960  177.5270  144.9310 C   0  0  0  0  0  3  0  0  0  0  0  0
  190.1220  177.2850  140.6850 C   0  0  0  0  0  0  0  0  0  0  0  0
  190.9780  177.1540  142.9350 N   0  0  0  0  0  0  0  0  0  0  0  0
  187.2750  177.4950  144.5370 C   0  0  0  0  0  0  0  0  0  0  0  0
  189.0250  176.9120  138.5890 O   0  0  0  0  0  0  0  0  0  0  0  0
  190.2770  177.1860  139.1760 C   0  0  2  0  0  3  0  0  0  0  0  0
  187.9000  178.2240  140.2430 C   0  0  0  0  0  0  0  0  0  0  0  0
  191.1420  177.0480  141.5170 C   0  0  0  0  0  3  0  0  0  0  0  0
  191.8020  174.3810  137.0120 C   0  0  0  0  0  0  0  0  0  0  0  0
  193.1990  174.8910  136.8060 C   0  0  0  0  0  2  0  0  0  0  0  0
  191.2950  176.1470  138.6880 C   0  0  1  0  0  3  0  0  0  0  0  0
  193.2720  176.3950  137.0640 C   0  0  0  0  0  2  0  0  0  0  0  0
  190.7360  175.2880  137.5480 C   0  0  0  0  0  2  0  0  0  0  0  0
  192.6950  176.7480  138.4370 C   0  0  0  0  0  2  0  0  0  0  0  0
  191.5290  173.2280  136.7230 O   0  0  0  0  0  0  0  0  0  0  0  0
  186.9240  177.8770  137.9690 C   0  0  0  0  0  2  0  0  0  0  0  0
  187.2350  177.2630  136.6130 C   0  0  0  0  0  2  0  0  0  0  0  0
  185.5050  175.7410  137.2540 C   0  0  0  0  0  3  0  0  0  0  0  0
  186.3860  176.1060  136.3790 N   0  0  0  0  0  0  0  0  0  0  0  0
  186.0830  173.0020  137.9670 O   0  0  0  0  0  0  0  0  0  0  0  0
  184.6290  174.5740  137.0540 C   0  0  1  0  0  3  0  0  0  0  0  0
  184.9740  173.2560  137.4280 C   0  0  0  0  0  0  0  0  0  0  0  0
  182.8860  172.4460  136.6250 C   0  0  0  0  0  3  0  0  0  0  0  0
  182.5070  173.7330  136.2410 C   0  0  0  0  0  3  0  0  0  0  0  0
  183.3840  174.7950  136.4590 C   0  0  0  0  0  3  0  0  0  0  0  0
  184.0990  172.2380  137.2040 N   0  0  0  0  0  0  0  0  0  0  0  0
  1  9  1  0  0  0  0
  2 12  2  0  0  0  0
  3  8  1  0  0  0  0
  4 24  1  6  0  0  0
  4 15  1  0  0  0  0
  8  2  1  1  0  0  0
  8  1  1  0  0  0  0
  9  5  2  0  0  0  0
 10  3  1  0  0  0  0
 10 16  2  0  0  0  0
 11  1  2  0  0  0  0
 12  6  1  0  0  0  0
 12  5  1  0  0  0  0
 13  4  1  0  0  0  0
 14 13  1  6  0  0  0
 14 10  1  0  0  0  0
 15  7  2  0  0  0  0
 15  3  1  0  0  0  0
 16 11  1  0  0  0  0
 17 21  1  0  0  0  0
 18 17  1  0  0  0  0
 18 20  1  0  0  0  0
 19 21  1  6  0  0  0
 19 14  1  0  0  0  0
 20 22  1  0  0  0  0
 22 19  1  0  0  0  0
 23 17  2  0  0  0  0
 25 24  1  0  0  0  0
 27 25  1  0  0  0  0
 27 26  2  0  0  0  0
 29 26  1  1  0  0  0
 29 30  1  0  0  0  0
 30 28  2  0  0  0  0
 31 34  2  0  0  0  0
 32 33  2  0  0  0  0
 32 31  1  0  0  0  0
 33 29  1  0  0  0  0
 34 30  1  0  0  0  0
M  END
>  <MODEL>
8

>  <REMARK>
 VINA RESULT:      -9.4      3.954      7.797
  Name = 
  5 active torsions:
  status: ('A' for Active; 'I' for Inactive)
    1  A    between atoms: C_3  and  C_13
    2  A    between atoms: C_5  and  C_18
    3  A    between atoms: C_12  and  C_28
    4  A    between atoms: N_17  and  C_29
    5  A    between atoms: C_18  and  C_29
                            x       y       z     vdW  Elec       q    Type
                         _______ _______ _______ _____ _____    ______ ____

>  <TORSDO>
F 5

$$$$
=
 OpenBabel10252415073D

 34 38  0  0  1  0  0  0  0  0999 V2000
  188.9980  176.8860  137.0710 C   0  0  0  0  0  0  0  0  0  0  0  0
  187.0830  178.4280  136.7100 C   0  0  0  0  0  3  0  0  0  0  0  0
  187.6870  177.7140  139.0150 N   0  0  0  0  0  0  0  0  0  0  0  0
  186.5340  178.2780  141.2050 C   0  0  2  0  0  3  0  0  0  0  0  0
  188.4150  177.5880  134.8280 C   0  0  0  0  0  3  0  0  0  0  0  0
  186.8020  179.4200  134.6230 F   0  0  0  0  0  0  0  0  0  0  0  0
  185.4040  178.2750  139.0790 O   0  0  0  0  0  0  0  0  0  0  0  0
  187.6530  177.3430  137.5900 C   0  0  0  0  0  0  0  0  0  0  0  0
  189.1960  176.8390  135.6150 C   0  0  0  0  0  2  0  0  0  0  0  0
  188.8080  177.3380  139.8420 C   0  0  0  0  0  0  0  0  0  0  0  0
  189.9670  176.5690  137.8730 N   0  0  0  0  0  0  0  0  0  0  0  0
  187.3880  178.4840  135.4080 C   0  0  0  0  0  0  0  0  0  0  0  0
  187.8380  178.6210  141.6180 O   0  0  0  0  0  0  0  0  0  0  0  0
  188.6810  177.5240  141.3460 C   0  0  2  0  0  3  0  0  0  0  0  0
  186.4910  178.1340  139.7020 C   0  0  0  0  0  0  0  0  0  0  0  0
  189.8700  176.7400  139.2910 C   0  0  0  0  0  3  0  0  0  0  0  0
  191.1690  178.8540  143.9750 C   0  0  0  0  0  0  0  0  0  0  0  0
  191.8600  177.5900  144.3960 C   0  0  0  0  0  2  0  0  0  0  0  0
  190.0050  177.7130  142.0970 C   0  0  1  0  0  3  0  0  0  0  0  0
  191.0210  176.3660  144.0360 C   0  0  0  0  0  2  0  0  0  0  0  0
  189.9010  178.7950  143.1780 C   0  0  0  0  0  2  0  0  0  0  0  0
  190.6330  176.3790  142.5550 C   0  0  0  0  0  2  0  0  0  0  0  0
  191.6320  179.9350  144.3000 O   0  0  0  0  0  0  0  0  0  0  0  0
  185.5580  179.3430  141.6790 C   0  0  0  0  0  2  0  0  0  0  0  0
  184.5650  178.7440  142.6630 C   0  0  0  0  0  2  0  0  0  0  0  0
  186.0050  178.9340  144.5630 C   0  0  0  0  0  3  0  0  0  0  0  0
  185.2670  178.1860  143.8070 N   0  0  0  0  0  0  0  0  0  0  0  0
  185.3060  179.2850  147.3440 O   0  0  0  0  0  0  0  0  0  0  0  0
  186.7330  178.4050  145.7290 C   0  0  2  0  0  3  0  0  0  0  0  0
  186.3350  178.6140  147.0690 C   0  0  0  0  0  0  0  0  0  0  0  0
  188.1940  177.3530  147.8520 C   0  0  0  0  0  3  0  0  0  0  0  0
  188.6210  177.1230  146.5440 C   0  0  0  0  0  3  0  0  0  0  0  0
  187.8850  177.6530  145.4850 C   0  0  0  0  0  3  0  0  0  0  0  0
  187.0720  178.0860  148.0830 N   0  0  0  0  0  0  0  0  0  0  0  0
  1  8  1  0  0  0  0
  1 11  2  0  0  0  0
  2  8  2  0  0  0  0
  3 15  1  0  0  0  0
  3 10  1  0  0  0  0
  4 13  1  0  0  0  0
  4 24  1  6  0  0  0
  5 12  2  0  0  0  0
  5  9  1  0  0  0  0
  6 12  1  0  0  0  0
  7 15  2  0  0  0  0
  8  3  1  0  0  0  0
  9  1  1  0  0  0  0
 11 16  1  0  0  0  0
 12  2  1  0  0  0  0
 14 10  1  6  0  0  0
 14 13  1  0  0  0  0
 14 19  1  0  0  0  0
 15  4  1  0  0  0  0
 16 10  2  0  0  0  0
 17 23  2  0  0  0  0
 17 18  1  0  0  0  0
 19 22  1  1  0  0  0
 19 21  1  0  0  0  0
 20 18  1  0  0  0  0
 21 17  1  0  0  0  0
 22 20  1  0  0  0  0
 24 25  1  0  0  0  0
 25 27  1  0  0  0  0
 27 26  2  0  0  0  0
 29 26  1  1  0  0  0
 29 30  1  0  0  0  0
 30 28  2  0  0  0  0
 30 34  1  0  0  0  0
 31 34  2  0  0  0  0
 32 31  1  0  0  0  0
 33 29  1  0  0  0  0
 33 32  2  0  0  0  0
M  END
>  <MODEL>
9

>  <REMARK>
 VINA RESULT:      -9.4      2.917      7.496
  Name = 
  5 active torsions:
  status: ('A' for Active; 'I' for Inactive)
    1  A    between atoms: C_3  and  C_13
    2  A    between atoms: C_5  and  C_18
    3  A    between atoms: C_12  and  C_28
    4  A    between atoms: N_17  and  C_29
    5  A    between atoms: C_18  and  C_29
                            x       y       z     vdW  Elec       q    Type
                         _______ _______ _______ _____ _____    ______ ____

>  <TORSDO>
F 5

$$$$
