=
 OpenBabel10262421463D

 30 32  0  0  1  0  0  0  0  0999 V2000
  184.9110  178.2360  143.0330 C   0  0  0  0  0  0  0  0  0  0  0  0
  183.8110  178.7510  143.7210 C   0  0  0  0  0  3  0  0  0  0  0  0
  184.8050  178.0090  141.6990 F   0  0  0  0  0  0  0  0  0  0  0  0
  186.1960  178.1950  145.1110 C   0  0  0  0  0  0  0  0  0  0  0  0
  183.8890  178.9790  145.0930 C   0  0  0  0  0  3  0  0  0  0  0  0
  186.1050  177.9450  143.7160 C   0  0  0  0  0  0  0  0  0  0  0  0
  185.0710  178.7030  145.7800 C   0  0  0  0  0  3  0  0  0  0  0  0
  188.3840  176.8210  147.9230 C   0  0  0  0  0  3  0  0  0  0  0  0
  189.5930  176.8130  147.3430 C   0  0  0  0  0  3  0  0  0  0  0  0
  187.3070  177.7500  147.4150 C   0  0  1  0  0  3  0  0  0  0  0  0
  188.6390  177.9320  145.3510 C   0  0  0  0  0  3  0  0  0  0  0  0
  187.4200  178.9780  148.0440 F   0  0  0  0  0  0  0  0  0  0  0  0
  189.8750  177.7430  146.1880 C   0  0  2  0  0  3  0  0  0  0  0  0
  187.4190  177.9360  145.9150 C   0  0  0  0  0  0  0  0  0  0  0  0
  191.0150  177.2190  145.3270 C   0  0  0  0  0  2  0  0  0  0  0  0
  191.6850  179.0920  144.0000 O   0  0  0  0  0  1  0  0  0  0  0  0
  191.0130  177.8700  143.9530 C   0  0  1  0  0  3  0  0  0  0  0  0
  191.7060  176.9590  142.9640 C   0  0  0  0  0  1  0  0  0  0  0  0
  187.2370  177.3440  142.9420 C   0  0  0  0  0  2  0  0  0  0  0  0
  187.8220  178.3420  142.0640 N   0  0  0  0  0  2  0  0  0  0  0  0
  188.5790  177.6170  141.0600 C   0  0  0  0  0  2  0  0  0  0  0  0
  188.4900  178.3350  139.7200 C   0  0  2  0  0  3  0  0  0  0  0  0
  187.0550  178.2600  139.2210 C   0  0  0  0  0  1  0  0  0  0  0  0
  191.3070  175.9410  138.4920 C   0  0  0  0  0  2  0  0  0  0  0  0
  189.4490  177.7020  138.7060 C   0  0  2  0  0  3  0  0  0  0  0  0
  189.9660  176.3840  136.3890 C   0  0  2  0  0  3  0  0  0  0  0  0
  188.5470  176.6280  137.5310 S   0  0  0  0  0  0  0  0  0  0  0  0
  190.5440  176.8940  139.4160 C   0  0  0  0  0  2  0  0  0  0  0  0
  189.8100  175.0560  135.6750 C   0  0  0  0  0  1  0  0  0  0  0  0
  191.3440  176.4570  137.0580 C   0  0  0  0  0  2  0  0  0  0  0  0
  1  6  2  0  0  0  0
  1  2  1  0  0  0  0
  2  5  2  0  0  0  0
  3  1  1  0  0  0  0
  4  7  2  0  0  0  0
  4 14  1  0  0  0  0
  5  7  1  0  0  0  0
  6  4  1  0  0  0  0
  9  8  2  0  0  0  0
 10  8  1  0  0  0  0
 10 12  1  1  0  0  0
 11 14  2  0  0  0  0
 11 13  1  0  0  0  0
 13 15  1  6  0  0  0
 13  9  1  0  0  0  0
 14 10  1  0  0  0  0
 17 18  1  6  0  0  0
 17 16  1  0  0  0  0
 17 15  1  0  0  0  0
 19  6  1  0  0  0  0
 20 19  1  0  0  0  0
 21 20  1  0  0  0  0
 22 23  1  6  0  0  0
 22 21  1  0  0  0  0
 24 28  1  0  0  0  0
 25 28  1  0  0  0  0
 25 22  1  1  0  0  0
 26 29  1  1  0  0  0
 26 30  1  0  0  0  0
 26 27  1  0  0  0  0
 27 25  1  0  0  0  0
 30 24  1  0  0  0  0
M  END
>  <MODEL>
1

>  <REMARK>
 VINA RESULT:      -9.3      0.000      0.000
  Name = 
  8 active torsions:
  status: ('A' for Active; 'I' for Inactive)
    1  A    between atoms: N_1  and  C_4
    2  A    between atoms: N_1  and  C_5
    3  A    between atoms: C_4  and  C_27
    4  A    between atoms: C_5  and  C_22
    5  A    between atoms: C_8  and  C_27
    6  A    between atoms: C_15  and  C_16
    7  A    between atoms: C_16  and  C_25
    8  A    between atoms: C_19  and  C_29
                            x       y       z     vdW  Elec       q    Type
                         _______ _______ _______ _____ _____    ______ ____

>  <TORSDO>
F 8

$$$$
=
 OpenBabel10262421463D

 30 32  0  0  1  0  0  0  0  0999 V2000
  190.0800  176.8800  146.2690 C   0  0  0  0  0  0  0  0  0  0  0  0
  190.0780  177.1800  147.6320 C   0  0  0  0  0  3  0  0  0  0  0  0
  191.1770  176.2960  145.7240 F   0  0  0  0  0  0  0  0  0  0  0  0
  187.8250  177.7990  146.0610 C   0  0  0  0  0  0  0  0  0  0  0  0
  188.9700  177.7920  148.2120 C   0  0  0  0  0  3  0  0  0  0  0  0
  188.9650  177.1920  145.4700 C   0  0  0  0  0  0  0  0  0  0  0  0
  187.8560  178.0990  147.4320 C   0  0  0  0  0  3  0  0  0  0  0  0
  184.6830  179.7300  145.0720 C   0  0  0  0  0  3  0  0  0  0  0  0
  184.5580  179.3950  143.7790 C   0  0  0  0  0  3  0  0  0  0  0  0
  185.4420  178.8290  146.0160 C   0  0  1  0  0  3  0  0  0  0  0  0
  186.4510  177.8170  144.0100 C   0  0  0  0  0  3  0  0  0  0  0  0
  184.5870  177.8700  146.5300 F   0  0  0  0  0  0  0  0  0  0  0  0
  185.1710  178.1120  143.2760 C   0  0  2  0  0  3  0  0  0  0  0  0
  186.5950  178.1510  145.3040 C   0  0  0  0  0  0  0  0  0  0  0  0
  185.4320  178.1770  141.7780 C   0  0  0  0  0  2  0  0  0  0  0  0
  184.8250  179.6200  139.9700 O   0  0  0  0  0  1  0  0  0  0  0  0
  184.3120  178.9070  141.0540 C   0  0  1  0  0  3  0  0  0  0  0  0
  183.2990  177.9020  140.5520 C   0  0  0  0  0  1  0  0  0  0  0  0
  189.0390  176.9000  144.0040 C   0  0  0  0  0  2  0  0  0  0  0  0
  189.8890  177.8780  143.3470 N   0  0  0  0  0  2  0  0  0  0  0  0
  189.4600  177.9350  141.9620 C   0  0  0  0  0  2  0  0  0  0  0  0
  190.4230  177.1470  141.0830 C   0  0  2  0  0  3  0  0  0  0  0  0
  191.8470  177.5290  141.4580 C   0  0  0  0  0  1  0  0  0  0  0  0
  189.7280  176.2700  137.3530 C   0  0  0  0  0  2  0  0  0  0  0  0
  190.1570  177.4340  139.6020 C   0  0  2  0  0  3  0  0  0  0  0  0
  188.7360  178.5870  137.5960 C   0  0  2  0  0  3  0  0  0  0  0  0
  188.4810  178.1250  139.3560 S   0  0  0  0  0  0  0  0  0  0  0  0
  190.3270  176.1630  138.7580 C   0  0  0  0  0  2  0  0  0  0  0  0
  187.4010  178.5750  136.8790 C   0  0  0  0  0  1  0  0  0  0  0  0
  189.7410  177.7060  136.8440 C   0  0  0  0  0  2  0  0  0  0  0  0
  1  2  1  0  0  0  0
  2  5  2  0  0  0  0
  3  1  1  0  0  0  0
  4  7  2  0  0  0  0
  6  4  1  0  0  0  0
  6  1  2  0  0  0  0
  7  5  1  0  0  0  0
  8 10  1  0  0  0  0
  9  8  2  0  0  0  0
 10 12  1  6  0  0  0
 11 14  2  0  0  0  0
 13 15  1  6  0  0  0
 13  9  1  0  0  0  0
 13 11  1  0  0  0  0
 14 10  1  0  0  0  0
 14  4  1  0  0  0  0
 16 17  1  0  0  0  0
 17 18  1  6  0  0  0
 17 15  1  0  0  0  0
 19  6  1  0  0  0  0
 20 19  1  0  0  0  0
 21 20  1  0  0  0  0
 22 23  1  1  0  0  0
 22 21  1  0  0  0  0
 24 28  1  0  0  0  0
 25 22  1  1  0  0  0
 26 29  1  6  0  0  0
 26 27  1  0  0  0  0
 27 25  1  0  0  0  0
 28 25  1  0  0  0  0
 30 24  1  0  0  0  0
 30 26  1  0  0  0  0
M  END
>  <MODEL>
2

>  <REMARK>
 VINA RESULT:      -9.1      2.300      4.769
  Name = 
  8 active torsions:
  status: ('A' for Active; 'I' for Inactive)
    1  A    between atoms: N_1  and  C_4
    2  A    between atoms: N_1  and  C_5
    3  A    between atoms: C_4  and  C_27
    4  A    between atoms: C_5  and  C_22
    5  A    between atoms: C_8  and  C_27
    6  A    between atoms: C_15  and  C_16
    7  A    between atoms: C_16  and  C_25
    8  A    between atoms: C_19  and  C_29
                            x       y       z     vdW  Elec       q    Type
                         _______ _______ _______ _____ _____    ______ ____

>  <TORSDO>
F 8

$$$$
=
 OpenBabel10262421463D

 30 32  0  0  1  0  0  0  0  0999 V2000
  184.8810  178.3070  143.0110 C   0  0  0  0  0  0  0  0  0  0  0  0
  183.7420  178.7370  143.6940 C   0  0  0  0  0  3  0  0  0  0  0  0
  184.8210  178.1490  141.6650 F   0  0  0  0  0  0  0  0  0  0  0  0
  186.1110  178.2040  145.1210 C   0  0  0  0  0  0  0  0  0  0  0  0
  183.7730  178.8930  145.0780 C   0  0  0  0  0  3  0  0  0  0  0  0
  186.0680  178.0280  143.7120 C   0  0  0  0  0  0  0  0  0  0  0  0
  184.9470  178.6280  145.7830 C   0  0  0  0  0  3  0  0  0  0  0  0
  188.2300  176.9910  148.0560 C   0  0  0  0  0  3  0  0  0  0  0  0
  189.4320  176.8460  147.4780 C   0  0  0  0  0  3  0  0  0  0  0  0
  187.2110  177.9290  147.4570 C   0  0  1  0  0  3  0  0  0  0  0  0
  188.5340  177.8120  145.3830 C   0  0  0  0  0  3  0  0  0  0  0  0
  187.4060  179.2050  147.9550 F   0  0  0  0  0  0  0  0  0  0  0  0
  189.7630  177.6320  146.2330 C   0  0  2  0  0  3  0  0  0  0  0  0
  187.3220  177.9520  145.9450 C   0  0  0  0  0  0  0  0  0  0  0  0
  190.8590  176.9500  145.4280 C   0  0  0  0  0  2  0  0  0  0  0  0
  191.6290  177.8900  143.3680 O   0  0  0  0  0  1  0  0  0  0  0  0
  190.6240  177.1040  143.9340 C   0  0  1  0  0  3  0  0  0  0  0  0
  190.6340  175.7400  143.2800 C   0  0  0  0  0  1  0  0  0  0  0  0
  187.2440  177.5170  142.9400 C   0  0  0  0  0  2  0  0  0  0  0  0
  187.3660  178.2410  141.6880 N   0  0  0  0  0  2  0  0  0  0  0  0
  188.7780  178.2490  141.3490 C   0  0  0  0  0  2  0  0  0  0  0  0
  189.0540  177.2500  140.2340 C   0  0  2  0  0  3  0  0  0  0  0  0
  190.5600  177.1360  140.0440 C   0  0  0  0  0  1  0  0  0  0  0  0
  188.7690  179.0890  136.8130 C   0  0  0  0  0  2  0  0  0  0  0  0
  188.3770  177.6940  138.9340 C   0  0  2  0  0  3  0  0  0  0  0  0
  187.1240  177.1780  136.5810 C   0  0  2  0  0  3  0  0  0  0  0  0
  188.2190  176.2960  137.7640 S   0  0  0  0  0  0  0  0  0  0  0  0
  189.1550  178.8410  138.2740 C   0  0  0  0  0  2  0  0  0  0  0  0
  187.3150  176.5950  135.1950 C   0  0  0  0  0  1  0  0  0  0  0  0
  187.3220  178.6990  136.5390 C   0  0  0  0  0  2  0  0  0  0  0  0
  1  2  2  0  0  0  0
  1  6  1  0  0  0  0
  2  5  1  0  0  0  0
  3  1  1  0  0  0  0
  4  7  1  0  0  0  0
  4 14  1  0  0  0  0
  5  7  2  0  0  0  0
  6  4  2  0  0  0  0
  9  8  2  0  0  0  0
 10 12  1  1  0  0  0
 10  8  1  0  0  0  0
 11 14  2  0  0  0  0
 11 13  1  0  0  0  0
 13 15  1  6  0  0  0
 13  9  1  0  0  0  0
 14 10  1  0  0  0  0
 16 17  1  0  0  0  0
 17 18  1  6  0  0  0
 17 15  1  0  0  0  0
 19  6  1  0  0  0  0
 20 19  1  0  0  0  0
 21 20  1  0  0  0  0
 22 23  1  6  0  0  0
 22 21  1  0  0  0  0
 24 28  1  0  0  0  0
 25 22  1  1  0  0  0
 26 29  1  6  0  0  0
 26 27  1  0  0  0  0
 27 25  1  0  0  0  0
 28 25  1  0  0  0  0
 30 26  1  0  0  0  0
 30 24  1  0  0  0  0
M  END
>  <MODEL>
3

>  <REMARK>
 VINA RESULT:      -9.1      1.196      1.726
  Name = 
  8 active torsions:
  status: ('A' for Active; 'I' for Inactive)
    1  A    between atoms: N_1  and  C_4
    2  A    between atoms: N_1  and  C_5
    3  A    between atoms: C_4  and  C_27
    4  A    between atoms: C_5  and  C_22
    5  A    between atoms: C_8  and  C_27
    6  A    between atoms: C_15  and  C_16
    7  A    between atoms: C_16  and  C_25
    8  A    between atoms: C_19  and  C_29
                            x       y       z     vdW  Elec       q    Type
                         _______ _______ _______ _____ _____    ______ ____

>  <TORSDO>
F 8

$$$$
=
 OpenBabel10262421463D

 30 32  0  0  1  0  0  0  0  0999 V2000
  191.4000  176.8120  144.8900 C   0  0  0  0  0  0  0  0  0  0  0  0
  192.0470  176.2180  145.9750 C   0  0  0  0  0  3  0  0  0  0  0  0
  192.0580  176.9180  143.7080 F   0  0  0  0  0  0  0  0  0  0  0  0
  189.4160  177.1780  146.2710 C   0  0  0  0  0  0  0  0  0  0  0  0
  191.3990  176.1100  147.2030 C   0  0  0  0  0  3  0  0  0  0  0  0
  190.0890  177.3030  145.0260 C   0  0  0  0  0  0  0  0  0  0  0  0
  190.0960  176.5860  147.3470 C   0  0  0  0  0  3  0  0  0  0  0  0
  186.5660  179.2890  147.6840 C   0  0  0  0  0  3  0  0  0  0  0  0
  185.6220  179.1270  146.7460 C   0  0  0  0  0  3  0  0  0  0  0  0
  187.6570  178.2580  147.8450 C   0  0  1  0  0  3  0  0  0  0  0  0
  187.0670  177.4900  145.5800 C   0  0  0  0  0  3  0  0  0  0  0  0
  187.2280  177.2600  148.7030 F   0  0  0  0  0  0  0  0  0  0  0  0
  185.6480  177.9060  145.8600 C   0  0  2  0  0  3  0  0  0  0  0  0
  188.0270  177.6510  146.5060 C   0  0  0  0  0  0  0  0  0  0  0  0
  184.9100  178.1590  144.5540 C   0  0  0  0  0  2  0  0  0  0  0  0
  184.1150  180.3330  143.9550 O   0  0  0  0  0  1  0  0  0  0  0  0
  183.8240  179.2080  144.7270 C   0  0  1  0  0  3  0  0  0  0  0  0
  182.4950  178.6330  144.2860 C   0  0  0  0  0  1  0  0  0  0  0  0
  189.4600  177.9800  143.8480 C   0  0  0  0  0  2  0  0  0  0  0  0
  188.9440  176.9860  142.9240 N   0  0  0  0  0  2  0  0  0  0  0  0
  189.4370  177.3490  141.6080 C   0  0  0  0  0  2  0  0  0  0  0  0
  188.5830  178.4650  141.0200 C   0  0  2  0  0  3  0  0  0  0  0  0
  187.1390  178.2510  141.4480 C   0  0  0  0  0  1  0  0  0  0  0  0
  189.6710  177.1650  137.5130 C   0  0  0  0  0  2  0  0  0  0  0  0
  188.6970  178.4820  139.4920 C   0  0  2  0  0  3  0  0  0  0  0  0
  187.6140  178.5520  137.0040 C   0  0  2  0  0  3  0  0  0  0  0  0
  187.0860  178.1140  138.7090 S   0  0  0  0  0  0  0  0  0  0  0  0
  189.7540  177.4780  139.0100 C   0  0  0  0  0  2  0  0  0  0  0  0
  186.7850  177.7650  136.0080 C   0  0  0  0  0  1  0  0  0  0  0  0
  189.1060  178.3390  136.7230 C   0  0  0  0  0  2  0  0  0  0  0  0
  1  6  2  0  0  0  0
  1  2  1  0  0  0  0
  2  5  2  0  0  0  0
  3  1  1  0  0  0  0
  4 14  1  0  0  0  0
  4  7  2  0  0  0  0
  5  7  1  0  0  0  0
  6  4  1  0  0  0  0
  8 10  1  0  0  0  0
  9  8  2  0  0  0  0
 10 12  1  1  0  0  0
 11 13  1  0  0  0  0
 11 14  2  0  0  0  0
 13 15  1  6  0  0  0
 13  9  1  0  0  0  0
 14 10  1  0  0  0  0
 15 17  1  0  0  0  0
 16 17  1  0  0  0  0
 17 18  1  6  0  0  0
 19  6  1  0  0  0  0
 20 19  1  0  0  0  0
 21 20  1  0  0  0  0
 22 23  1  6  0  0  0
 22 21  1  0  0  0  0
 24 28  1  0  0  0  0
 25 22  1  1  0  0  0
 26 29  1  6  0  0  0
 26 27  1  0  0  0  0
 27 25  1  0  0  0  0
 28 25  1  0  0  0  0
 30 26  1  0  0  0  0
 30 24  1  0  0  0  0
M  END
>  <MODEL>
4

>  <REMARK>
 VINA RESULT:      -8.7      2.410      4.767
  Name = 
  8 active torsions:
  status: ('A' for Active; 'I' for Inactive)
    1  A    between atoms: N_1  and  C_4
    2  A    between atoms: N_1  and  C_5
    3  A    between atoms: C_4  and  C_27
    4  A    between atoms: C_5  and  C_22
    5  A    between atoms: C_8  and  C_27
    6  A    between atoms: C_15  and  C_16
    7  A    between atoms: C_16  and  C_25
    8  A    between atoms: C_19  and  C_29
                            x       y       z     vdW  Elec       q    Type
                         _______ _______ _______ _____ _____    ______ ____

>  <TORSDO>
F 8

$$$$
=
 OpenBabel10262421463D

 30 32  0  0  1  0  0  0  0  0999 V2000
  186.6920  178.0860  147.1960 C   0  0  0  0  0  0  0  0  0  0  0  0
  187.4570  178.2440  148.3540 C   0  0  0  0  0  3  0  0  0  0  0  0
  185.3430  178.2120  147.2760 F   0  0  0  0  0  0  0  0  0  0  0  0
  188.7260  177.6620  145.9080 C   0  0  0  0  0  0  0  0  0  0  0  0
  188.8410  178.1040  148.3010 C   0  0  0  0  0  3  0  0  0  0  0  0
  187.3120  177.7860  145.9700 C   0  0  0  0  0  0  0  0  0  0  0  0
  189.4680  177.8160  147.0890 C   0  0  0  0  0  3  0  0  0  0  0  0
  191.0770  175.8430  143.5120 C   0  0  0  0  0  3  0  0  0  0  0  0
  190.5880  176.2170  142.3200 C   0  0  0  0  0  3  0  0  0  0  0  0
  190.8290  176.6970  144.7320 C   0  0  1  0  0  3  0  0  0  0  0  0
  188.9990  177.7380  143.4550 C   0  0  0  0  0  3  0  0  0  0  0  0
  191.8150  177.6630  144.8290 F   0  0  0  0  0  0  0  0  0  0  0  0
  189.7980  177.4980  142.2030 C   0  0  2  0  0  3  0  0  0  0  0  0
  189.4710  177.3640  144.6570 C   0  0  0  0  0  0  0  0  0  0  0  0
  188.8770  177.4670  140.9930 C   0  0  0  0  0  2  0  0  0  0  0  0
  189.6810  176.4650  138.9760 O   0  0  0  0  0  1  0  0  0  0  0  0
  189.6550  177.6570  139.7010 C   0  0  1  0  0  3  0  0  0  0  0  0
  188.9920  178.7310  138.8680 C   0  0  0  0  0  1  0  0  0  0  0  0
  186.4430  177.5720  144.7700 C   0  0  0  0  0  2  0  0  0  0  0  0
  185.7350  178.7990  144.4470 N   0  0  0  0  0  2  0  0  0  0  0  0
  184.5610  178.4110  143.6860 C   0  0  0  0  0  2  0  0  0  0  0  0
  184.9360  178.1750  142.2290 C   0  0  2  0  0  3  0  0  0  0  0  0
  185.8390  179.3100  141.7700 C   0  0  0  0  0  1  0  0  0  0  0  0
  181.2620  178.9500  141.1930 C   0  0  0  0  0  2  0  0  0  0  0  0
  183.6790  178.0960  141.3560 C   0  0  2  0  0  3  0  0  0  0  0  0
  182.3770  178.3820  138.9910 C   0  0  2  0  0  3  0  0  0  0  0  0
  183.9130  179.0050  139.7860 S   0  0  0  0  0  0  0  0  0  0  0  0
  182.4570  178.6490  142.1030 C   0  0  0  0  0  2  0  0  0  0  0  0
  181.8940  179.3980  137.9750 C   0  0  0  0  0  1  0  0  0  0  0  0
  181.2450  178.0430  139.9680 C   0  0  0  0  0  2  0  0  0  0  0  0
  1  3  1  0  0  0  0
  1  2  1  0  0  0  0
  4  6  1  0  0  0  0
  4  7  2  0  0  0  0
  5  2  2  0  0  0  0
  6  1  2  0  0  0  0
  7  5  1  0  0  0  0
  8 10  1  0  0  0  0
  9  8  2  0  0  0  0
 10 12  1  6  0  0  0
 11 14  2  0  0  0  0
 13 15  1  6  0  0  0
 13  9  1  0  0  0  0
 13 11  1  0  0  0  0
 14 10  1  0  0  0  0
 14  4  1  0  0  0  0
 16 17  1  0  0  0  0
 17 18  1  6  0  0  0
 17 15  1  0  0  0  0
 19  6  1  0  0  0  0
 20 19  1  0  0  0  0
 21 20  1  0  0  0  0
 22 23  1  6  0  0  0
 22 21  1  0  0  0  0
 24 28  1  0  0  0  0
 25 28  1  0  0  0  0
 25 22  1  1  0  0  0
 26 29  1  6  0  0  0
 26 27  1  0  0  0  0
 26 30  1  0  0  0  0
 27 25  1  0  0  0  0
 30 24  1  0  0  0  0
M  END
>  <MODEL>
5

>  <REMARK>
 VINA RESULT:      -8.7      2.800      5.765
  Name = 
  8 active torsions:
  status: ('A' for Active; 'I' for Inactive)
    1  A    between atoms: N_1  and  C_4
    2  A    between atoms: N_1  and  C_5
    3  A    between atoms: C_4  and  C_27
    4  A    between atoms: C_5  and  C_22
    5  A    between atoms: C_8  and  C_27
    6  A    between atoms: C_15  and  C_16
    7  A    between atoms: C_16  and  C_25
    8  A    between atoms: C_19  and  C_29
                            x       y       z     vdW  Elec       q    Type
                         _______ _______ _______ _____ _____    ______ ____

>  <TORSDO>
F 8

$$$$
=
 OpenBabel10262421463D

 30 32  0  0  1  0  0  0  0  0999 V2000
  188.7690  177.0960  145.0340 C   0  0  0  0  0  0  0  0  0  0  0  0
  188.6320  177.2620  146.4130 C   0  0  0  0  0  3  0  0  0  0  0  0
  189.9340  176.6010  144.5430 F   0  0  0  0  0  0  0  0  0  0  0  0
  186.5070  177.9600  144.7020 C   0  0  0  0  0  0  0  0  0  0  0  0
  187.4530  177.7810  146.9410 C   0  0  0  0  0  3  0  0  0  0  0  0
  187.7200  177.4480  144.1670 C   0  0  0  0  0  0  0  0  0  0  0  0
  186.4020  178.1270  146.0920 C   0  0  0  0  0  3  0  0  0  0  0  0
  184.2200  178.1550  141.6510 C   0  0  0  0  0  3  0  0  0  0  0  0
  183.0370  178.4280  142.2190 C   0  0  0  0  0  3  0  0  0  0  0  0
  185.5020  178.4990  142.3700 C   0  0  1  0  0  3  0  0  0  0  0  0
  184.1470  178.6290  144.4220 C   0  0  0  0  0  3  0  0  0  0  0  0
  185.8630  179.8030  142.0760 F   0  0  0  0  0  0  0  0  0  0  0  0
  182.9920  179.0900  143.5750 C   0  0  2  0  0  3  0  0  0  0  0  0
  185.3380  178.3440  143.8690 C   0  0  0  0  0  0  0  0  0  0  0  0
  181.6770  178.8030  144.2830 C   0  0  0  0  0  2  0  0  0  0  0  0
  179.6330  177.6900  143.7340 O   0  0  0  0  0  1  0  0  0  0  0  0
  180.5350  178.6580  143.2900 C   0  0  1  0  0  3  0  0  0  0  0  0
  179.8160  179.9820  143.1540 C   0  0  0  0  0  1  0  0  0  0  0  0
  187.9370  177.3020  142.6930 C   0  0  0  0  0  2  0  0  0  0  0  0
  188.9480  178.2450  142.2460 N   0  0  0  0  0  2  0  0  0  0  0  0
  188.7400  178.4300  140.8220 C   0  0  0  0  0  2  0  0  0  0  0  0
  189.3150  177.2480  140.0520 C   0  0  2  0  0  3  0  0  0  0  0  0
  190.8110  177.4650  139.8740 C   0  0  0  0  0  1  0  0  0  0  0  0
  186.9790  178.2880  137.1140 C   0  0  0  0  0  2  0  0  0  0  0  0
  188.6230  177.1040  138.6920 C   0  0  2  0  0  3  0  0  0  0  0  0
  188.6690  176.7660  135.9990 C   0  0  2  0  0  3  0  0  0  0  0  0
  189.8150  177.3260  137.3220 S   0  0  0  0  0  0  0  0  0  0  0  0
  187.4730  178.1110  138.5530 C   0  0  0  0  0  2  0  0  0  0  0  0
  189.0600  177.4230  134.6900 C   0  0  0  0  0  1  0  0  0  0  0  0
  187.1850  177.0240  136.2880 C   0  0  0  0  0  2  0  0  0  0  0  0
  1  2  1  0  0  0  0
  2  5  2  0  0  0  0
  3  1  1  0  0  0  0
  4  7  2  0  0  0  0
  6  4  1  0  0  0  0
  6  1  2  0  0  0  0
  7  5  1  0  0  0  0
  8  9  2  0  0  0  0
  8 10  1  0  0  0  0
  9 13  1  0  0  0  0
 10 12  1  1  0  0  0
 10 14  1  0  0  0  0
 13 15  1  1  0  0  0
 13 11  1  0  0  0  0
 14 11  2  0  0  0  0
 14  4  1  0  0  0  0
 17 18  1  1  0  0  0
 17 16  1  0  0  0  0
 17 15  1  0  0  0  0
 19  6  1  0  0  0  0
 20 19  1  0  0  0  0
 21 20  1  0  0  0  0
 22 23  1  6  0  0  0
 22 21  1  0  0  0  0
 24 28  1  0  0  0  0
 25 22  1  1  0  0  0
 26 29  1  6  0  0  0
 26 30  1  0  0  0  0
 26 27  1  0  0  0  0
 27 25  1  0  0  0  0
 28 25  1  0  0  0  0
 30 24  1  0  0  0  0
M  END
>  <MODEL>
6

>  <REMARK>
 VINA RESULT:      -8.4      2.897      5.728
  Name = 
  8 active torsions:
  status: ('A' for Active; 'I' for Inactive)
    1  A    between atoms: N_1  and  C_4
    2  A    between atoms: N_1  and  C_5
    3  A    between atoms: C_4  and  C_27
    4  A    between atoms: C_5  and  C_22
    5  A    between atoms: C_8  and  C_27
    6  A    between atoms: C_15  and  C_16
    7  A    between atoms: C_16  and  C_25
    8  A    between atoms: C_19  and  C_29
                            x       y       z     vdW  Elec       q    Type
                         _______ _______ _______ _____ _____    ______ ____

>  <TORSDO>
F 8

$$$$
=
 OpenBabel10262421463D

 30 32  0  0  1  0  0  0  0  0999 V2000
  190.4970  177.0780  147.1260 C   0  0  0  0  0  0  0  0  0  0  0  0
  191.6180  176.2660  147.3040 C   0  0  0  0  0  3  0  0  0  0  0  0
  189.9350  177.6710  148.2100 F   0  0  0  0  0  0  0  0  0  0  0  0
  190.5570  176.6410  144.7220 C   0  0  0  0  0  0  0  0  0  0  0  0
  192.2050  175.6350  146.2090 C   0  0  0  0  0  3  0  0  0  0  0  0
  189.9510  177.2670  145.8440 C   0  0  0  0  0  0  0  0  0  0  0  0
  191.6770  175.8210  144.9320 C   0  0  0  0  0  3  0  0  0  0  0  0
  188.3390  177.8000  141.8390 C   0  0  0  0  0  3  0  0  0  0  0  0
  189.1860  177.7240  140.8010 C   0  0  0  0  0  3  0  0  0  0  0  0
  188.5780  176.9640  143.0730 C   0  0  1  0  0  3  0  0  0  0  0  0
  190.8960  176.7120  142.2780 C   0  0  0  0  0  3  0  0  0  0  0  0
  187.9900  175.7210  142.9120 F   0  0  0  0  0  0  0  0  0  0  0  0
  190.3720  176.7940  140.8700 C   0  0  2  0  0  3  0  0  0  0  0  0
  190.0620  176.7930  143.3290 C   0  0  0  0  0  0  0  0  0  0  0  0
  191.4780  177.2420  139.9260 C   0  0  0  0  0  2  0  0  0  0  0  0
  190.9330  175.2530  138.7170 O   0  0  0  0  0  1  0  0  0  0  0  0
  191.3470  176.5770  138.5650 C   0  0  1  0  0  3  0  0  0  0  0  0
  190.3260  177.3250  137.7360 C   0  0  0  0  0  1  0  0  0  0  0  0
  188.7150  178.1020  145.7160 C   0  0  0  0  0  2  0  0  0  0  0  0
  187.6210  177.4830  146.4420 N   0  0  0  0  0  2  0  0  0  0  0  0
  186.5460  177.2890  145.4860 C   0  0  0  0  0  2  0  0  0  0  0  0
  185.7900  178.5940  145.2780 C   0  0  2  0  0  3  0  0  0  0  0  0
  185.1500  179.0020  146.5960 C   0  0  0  0  0  1  0  0  0  0  0  0
  182.4300  179.3090  143.4430 C   0  0  0  0  0  2  0  0  0  0  0  0
  184.7270  178.4320  144.1870 C   0  0  2  0  0  3  0  0  0  0  0  0
  183.9260  178.4440  141.5930 C   0  0  2  0  0  3  0  0  0  0  0  0
  185.3040  179.1290  142.5970 S   0  0  0  0  0  0  0  0  0  0  0  0
  183.4090  179.1010  144.6030 C   0  0  0  0  0  2  0  0  0  0  0  0
  183.6980  179.3330  140.3860 C   0  0  0  0  0  1  0  0  0  0  0  0
  182.6100  178.2550  142.3580 C   0  0  0  0  0  2  0  0  0  0  0  0
  1  2  1  0  0  0  0
  1  3  1  0  0  0  0
  4  7  2  0  0  0  0
  4  6  1  0  0  0  0
  5  2  2  0  0  0  0
  6  1  2  0  0  0  0
  7  5  1  0  0  0  0
  8 10  1  0  0  0  0
  9 13  1  0  0  0  0
  9  8  2  0  0  0  0
 10 12  1  6  0  0  0
 10 14  1  0  0  0  0
 11 14  2  0  0  0  0
 13 15  1  6  0  0  0
 13 11  1  0  0  0  0
 14  4  1  0  0  0  0
 17 18  1  6  0  0  0
 17 16  1  0  0  0  0
 17 15  1  0  0  0  0
 19  6  1  0  0  0  0
 19 20  1  0  0  0  0
 21 20  1  0  0  0  0
 22 21  1  0  0  0  0
 22 23  1  1  0  0  0
 24 28  1  0  0  0  0
 25 28  1  0  0  0  0
 25 22  1  1  0  0  0
 26 29  1  6  0  0  0
 26 30  1  0  0  0  0
 26 27  1  0  0  0  0
 27 25  1  0  0  0  0
 30 24  1  0  0  0  0
M  END
>  <MODEL>
7

>  <REMARK>
 VINA RESULT:      -8.1      2.476      6.841
  Name = 
  8 active torsions:
  status: ('A' for Active; 'I' for Inactive)
    1  A    between atoms: N_1  and  C_4
    2  A    between atoms: N_1  and  C_5
    3  A    between atoms: C_4  and  C_27
    4  A    between atoms: C_5  and  C_22
    5  A    between atoms: C_8  and  C_27
    6  A    between atoms: C_15  and  C_16
    7  A    between atoms: C_16  and  C_25
    8  A    between atoms: C_19  and  C_29
                            x       y       z     vdW  Elec       q    Type
                         _______ _______ _______ _____ _____    ______ ____

>  <TORSDO>
F 8

$$$$
=
 OpenBabel10262421463D

 30 32  0  0  1  0  0  0  0  0999 V2000
  190.6530  177.4400  142.4470 C   0  0  0  0  0  0  0  0  0  0  0  0
  191.6350  177.5460  143.4340 C   0  0  0  0  0  3  0  0  0  0  0  0
  191.0310  177.1880  141.1680 F   0  0  0  0  0  0  0  0  0  0  0  0
  188.9220  177.8670  144.1180 C   0  0  0  0  0  0  0  0  0  0  0  0
  191.2740  177.8200  144.7520 C   0  0  0  0  0  3  0  0  0  0  0  0
  189.2960  177.6070  142.7730 C   0  0  0  0  0  0  0  0  0  0  0  0
  189.9300  177.9790  145.0880 C   0  0  0  0  0  3  0  0  0  0  0  0
  185.9890  178.8970  146.3350 C   0  0  0  0  0  3  0  0  0  0  0  0
  184.9990  179.0070  145.4370 C   0  0  0  0  0  3  0  0  0  0  0  0
  187.1840  178.0220  146.0400 C   0  0  1  0  0  3  0  0  0  0  0  0
  186.5090  178.1450  143.6750 C   0  0  0  0  0  3  0  0  0  0  0  0
  186.9170  176.7240  146.4390 F   0  0  0  0  0  0  0  0  0  0  0  0
  185.0800  178.2460  144.1360 C   0  0  2  0  0  3  0  0  0  0  0  0
  187.5140  178.0410  144.5610 C   0  0  0  0  0  0  0  0  0  0  0  0
  184.2290  178.9030  143.0610 C   0  0  0  0  0  2  0  0  0  0  0  0
  183.2810  177.6720  141.2430 O   0  0  0  0  0  1  0  0  0  0  0  0
  184.4600  178.2590  141.7030 C   0  0  1  0  0  3  0  0  0  0  0  0
  184.9070  179.3150  140.7160 C   0  0  0  0  0  1  0  0  0  0  0  0
  188.2880  177.5380  141.6680 C   0  0  0  0  0  2  0  0  0  0  0  0
  188.4810  178.6490  140.7520 N   0  0  0  0  0  2  0  0  0  0  0  0
  188.1090  178.1680  139.4340 C   0  0  0  0  0  2  0  0  0  0  0  0
  189.3310  178.1300  138.5260 C   0  0  2  0  0  3  0  0  0  0  0  0
  189.0550  178.9890  137.3010 C   0  0  0  0  0  1  0  0  0  0  0  0
  189.3030  174.9920  136.2190 C   0  0  0  0  0  2  0  0  0  0  0  0
  189.6510  176.6890  138.1160 C   0  0  2  0  0  3  0  0  0  0  0  0
  191.3900  174.6650  137.6160 C   0  0  2  0  0  3  0  0  0  0  0  0
  191.4260  176.5000  137.7130 S   0  0  0  0  0  0  0  0  0  0  0  0
  188.7950  176.2570  136.9170 C   0  0  0  0  0  2  0  0  0  0  0  0
  192.4830  174.1940  136.6760 C   0  0  0  0  0  1  0  0  0  0  0  0
  190.0420  174.0740  137.1850 C   0  0  0  0  0  2  0  0  0  0  0  0
  1  6  2  0  0  0  0
  1  2  1  0  0  0  0
  2  5  2  0  0  0  0
  3  1  1  0  0  0  0
  4 14  1  0  0  0  0
  4  7  2  0  0  0  0
  5  7  1  0  0  0  0
  6  4  1  0  0  0  0
  9  8  2  0  0  0  0
 10  8  1  0  0  0  0
 10 12  1  6  0  0  0
 11 13  1  0  0  0  0
 11 14  2  0  0  0  0
 13 15  1  6  0  0  0
 13  9  1  0  0  0  0
 14 10  1  0  0  0  0
 16 17  1  0  0  0  0
 17 18  1  6  0  0  0
 17 15  1  0  0  0  0
 19  6  1  0  0  0  0
 20 19  1  0  0  0  0
 21 20  1  0  0  0  0
 22 23  1  6  0  0  0
 22 21  1  0  0  0  0
 24 28  1  0  0  0  0
 24 30  1  0  0  0  0
 25 22  1  6  0  0  0
 26 29  1  6  0  0  0
 26 27  1  0  0  0  0
 27 25  1  0  0  0  0
 28 25  1  0  0  0  0
 30 26  1  0  0  0  0
M  END
>  <MODEL>
8

>  <REMARK>
 VINA RESULT:      -8.0      2.465      4.603
  Name = 
  8 active torsions:
  status: ('A' for Active; 'I' for Inactive)
    1  A    between atoms: N_1  and  C_4
    2  A    between atoms: N_1  and  C_5
    3  A    between atoms: C_4  and  C_27
    4  A    between atoms: C_5  and  C_22
    5  A    between atoms: C_8  and  C_27
    6  A    between atoms: C_15  and  C_16
    7  A    between atoms: C_16  and  C_25
    8  A    between atoms: C_19  and  C_29
                            x       y       z     vdW  Elec       q    Type
                         _______ _______ _______ _____ _____    ______ ____

>  <TORSDO>
F 8

$$$$
=
 OpenBabel10262421463D

 30 32  0  0  1  0  0  0  0  0999 V2000
  188.5790  177.7900  138.8370 C   0  0  0  0  0  0  0  0  0  0  0  0
  189.4990  176.9930  138.1530 C   0  0  0  0  0  3  0  0  0  0  0  0
  187.5750  178.3790  138.1410 F   0  0  0  0  0  0  0  0  0  0  0  0
  189.7580  177.3570  140.9340 C   0  0  0  0  0  0  0  0  0  0  0  0
  190.5480  176.3880  138.8420 C   0  0  0  0  0  3  0  0  0  0  0  0
  188.7010  177.9870  140.2240 C   0  0  0  0  0  0  0  0  0  0  0  0
  190.6750  176.5700  140.2190 C   0  0  0  0  0  3  0  0  0  0  0  0
  190.9780  178.8300  144.2390 C   0  0  0  0  0  3  0  0  0  0  0  0
  190.0730  178.3420  145.1000 C   0  0  0  0  0  3  0  0  0  0  0  0
  191.2320  178.1230  142.9290 C   0  0  1  0  0  3  0  0  0  0  0  0
  189.0660  177.0030  143.2770 C   0  0  0  0  0  3  0  0  0  0  0  0
  192.1930  177.1440  143.1090 F   0  0  0  0  0  0  0  0  0  0  0  0
  189.3180  177.0810  144.7590 C   0  0  2  0  0  3  0  0  0  0  0  0
  189.9590  177.4930  142.4000 C   0  0  0  0  0  0  0  0  0  0  0  0
  188.0010  177.0060  145.5170 C   0  0  0  0  0  2  0  0  0  0  0  0
  186.7780  178.4300  147.0000 O   0  0  0  0  0  1  0  0  0  0  0  0
  188.0350  177.8680  146.7690 C   0  0  1  0  0  3  0  0  0  0  0  0
  188.4240  177.0150  147.9560 C   0  0  0  0  0  1  0  0  0  0  0  0
  187.7210  178.8950  140.9000 C   0  0  0  0  0  2  0  0  0  0  0  0
  186.5750  178.1300  141.3600 N   0  0  0  0  0  2  0  0  0  0  0  0
  185.4160  178.9910  141.2100 C   0  0  0  0  0  2  0  0  0  0  0  0
  184.7630  179.2290  142.5650 C   0  0  2  0  0  3  0  0  0  0  0  0
  185.1550  178.0940  143.5000 C   0  0  0  0  0  1  0  0  0  0  0  0
  181.2460  178.1880  141.2540 C   0  0  0  0  0  2  0  0  0  0  0  0
  183.2400  179.3110  142.4220 C   0  0  2  0  0  3  0  0  0  0  0  0
  180.7290  179.3310  143.4540 C   0  0  2  0  0  3  0  0  0  0  0  0
  182.4060  178.7760  143.9600 S   0  0  0  0  0  0  0  0  0  0  0  0
  182.7540  178.4590  141.2400 C   0  0  0  0  0  2  0  0  0  0  0  0
  179.6880  178.4840  144.1590 C   0  0  0  0  0  1  0  0  0  0  0  0
  180.4790  179.3120  141.9410 C   0  0  0  0  0  2  0  0  0  0  0  0
  1  6  1  0  0  0  0
  2  1  2  0  0  0  0
  2  5  1  0  0  0  0
  3  1  1  0  0  0  0
  4 14  1  0  0  0  0
  5  7  2  0  0  0  0
  6 19  1  0  0  0  0
  6  4  2  0  0  0  0
  7  4  1  0  0  0  0
  8  9  2  0  0  0  0
 10 12  1  1  0  0  0
 10  8  1  0  0  0  0
 11 13  1  0  0  0  0
 13  9  1  0  0  0  0
 13 15  1  1  0  0  0
 14 10  1  0  0  0  0
 14 11  2  0  0  0  0
 15 17  1  0  0  0  0
 17 16  1  0  0  0  0
 17 18  1  1  0  0  0
 19 20  1  0  0  0  0
 21 20  1  0  0  0  0
 21 22  1  0  0  0  0
 22 23  1  1  0  0  0
 24 30  1  0  0  0  0
 25 22  1  1  0  0  0
 25 27  1  0  0  0  0
 26 27  1  0  0  0  0
 26 29  1  1  0  0  0
 28 24  1  0  0  0  0
 28 25  1  0  0  0  0
 30 26  1  0  0  0  0
M  END
>  <MODEL>
9

>  <REMARK>
 VINA RESULT:      -7.9      3.067      6.904
  Name = 
  8 active torsions:
  status: ('A' for Active; 'I' for Inactive)
    1  A    between atoms: N_1  and  C_4
    2  A    between atoms: N_1  and  C_5
    3  A    between atoms: C_4  and  C_27
    4  A    between atoms: C_5  and  C_22
    5  A    between atoms: C_8  and  C_27
    6  A    between atoms: C_15  and  C_16
    7  A    between atoms: C_16  and  C_25
    8  A    between atoms: C_19  and  C_29
                            x       y       z     vdW  Elec       q    Type
                         _______ _______ _______ _____ _____    ______ ____

>  <TORSDO>
F 8

$$$$
