=
 OpenBabel10262420463D

 28 31  0  0  0  0  0  0  0  0999 V2000
  187.6860  177.6070  145.3580 C   0  0  0  0  0  0  0  0  0  0  0  0
  191.3010  176.6530  147.4970 C   0  0  0  0  0  1  0  0  0  0  0  0
  189.9700  177.3440  142.4950 C   0  0  0  0  0  0  0  0  0  0  0  0
  190.0720  177.0700  145.3260 C   0  0  0  0  0  0  0  0  0  0  0  0
  188.8820  177.4420  143.2000 N   0  0  0  0  0  0  0  0  0  0  0  0
  188.8880  177.2200  147.4360 C   0  0  0  0  0  3  0  0  0  0  0  0
  191.3150  176.7220  144.5490 C   0  0  0  0  0  2  0  0  0  0  0  0
  190.0680  176.9920  146.7300 C   0  0  0  0  0  0  0  0  0  0  0  0
  191.2260  177.1510  143.1580 N   0  0  0  0  0  2  0  0  0  0  0  0
  187.7080  177.5240  146.7570 C   0  0  0  0  0  3  0  0  0  0  0  0
  188.8790  177.3770  144.6350 C   0  0  0  0  0  0  0  0  0  0  0  0
  190.9110  176.8820  140.3170 C   0  0  0  0  0  3  0  0  0  0  0  0
  188.2110  177.8080  139.2160 C   0  0  0  0  0  3  0  0  0  0  0  0
  189.8620  176.2510  138.1900 C   0  0  0  0  0  0  0  0  0  0  0  0
  189.9190  177.4460  141.0170 C   0  0  0  0  0  0  0  0  0  0  0  0
  188.2570  179.2410  141.0100 F   0  0  0  0  0  0  0  0  0  0  0  0
  188.6140  176.6960  138.3330 C   0  0  0  0  0  3  0  0  0  0  0  0
  188.7990  178.1820  140.3610 C   0  0  0  0  0  0  0  0  0  0  0  0
  190.1220  175.1090  137.2750 C   0  0  0  0  0  1  0  0  0  0  0  0
  191.0200  176.9400  138.8310 C   0  0  0  0  0  2  0  0  0  0  0  0
  186.4140  177.9570  144.6840 C   0  0  0  0  0  0  0  0  0  0  0  0
  186.3130  177.8500  143.2900 C   0  0  0  0  0  3  0  0  0  0  0  0
  184.1230  178.7810  144.7520 C   0  0  0  0  0  0  0  0  0  0  0  0
  185.1310  178.1970  142.6320 C   0  0  0  0  0  3  0  0  0  0  0  0
  185.3630  178.5390  146.7690 F   0  0  0  0  0  0  0  0  0  0  0  0
  185.3070  178.4340  145.4160 C   0  0  0  0  0  0  0  0  0  0  0  0
  183.0550  179.2300  145.4540 F   0  0  0  0  0  0  0  0  0  0  0  0
  184.0370  178.6610  143.3630 C   0  0  0  0  0  3  0  0  0  0  0  0
  1 10  1  0  0  0  0
  3  9  1  0  0  0  0
  3  5  2  0  0  0  0
  4  8  2  0  0  0  0
  5 11  1  0  0  0  0
  7  4  1  0  0  0  0
  8  6  1  0  0  0  0
  8  2  1  0  0  0  0
  9  7  1  0  0  0  0
 10  6  2  0  0  0  0
 11  4  1  0  0  0  0
 11  1  2  0  0  0  0
 12 15  2  0  0  0  0
 13 18  2  0  0  0  0
 14 17  2  0  0  0  0
 14 20  1  0  0  0  0
 15  3  1  0  0  0  0
 17 13  1  0  0  0  0
 18 16  1  0  0  0  0
 18 15  1  0  0  0  0
 19 14  1  0  0  0  0
 20 12  1  0  0  0  0
 21  1  1  0  0  0  0
 21 26  1  0  0  0  0
 22 21  2  0  0  0  0
 23 26  2  0  0  0  0
 23 27  1  0  0  0  0
 24 22  1  0  0  0  0
 24 28  2  0  0  0  0
 26 25  1  0  0  0  0
 28 23  1  0  0  0  0
M  END
>  <MODEL>
1

>  <REMARK>
 VINA RESULT:     -11.7      0.000      0.000
  Name = 
  2 active torsions:
  status: ('A' for Active; 'I' for Inactive)
    1  A    between atoms: C_1  and  C_2
    2  A    between atoms: C_10  and  C_13
                            x       y       z     vdW  Elec       q    Type
                         _______ _______ _______ _____ _____    ______ ____

>  <TORSDO>
F 2

$$$$
=
 OpenBabel10262420463D

 28 31  0  0  0  0  0  0  0  0999 V2000
  187.4630  177.5760  144.3060 C   0  0  0  0  0  0  0  0  0  0  0  0
  183.4670  179.0850  144.8620 C   0  0  0  0  0  1  0  0  0  0  0  0
  186.6860  178.3840  140.8100 C   0  0  0  0  0  0  0  0  0  0  0  0
  185.4280  178.5460  143.3570 C   0  0  0  0  0  0  0  0  0  0  0  0
  187.3420  178.0550  141.8830 N   0  0  0  0  0  0  0  0  0  0  0  0
  185.5630  178.0850  145.7340 C   0  0  0  0  0  3  0  0  0  0  0  0
  184.7020  179.1510  142.1850 C   0  0  0  0  0  2  0  0  0  0  0  0
  184.8450  178.5590  144.6370 C   0  0  0  0  0  0  0  0  0  0  0  0
  185.3110  178.7760  140.9140 N   0  0  0  0  0  2  0  0  0  0  0  0
  186.8590  177.5990  145.5700 C   0  0  0  0  0  3  0  0  0  0  0  0
  186.7410  178.0550  143.1890 C   0  0  0  0  0  0  0  0  0  0  0  0
  188.6750  178.5050  139.4420 C   0  0  0  0  0  3  0  0  0  0  0  0
  186.9110  177.4080  137.1960 C   0  0  0  0  0  3  0  0  0  0  0  0
  189.3790  177.2190  137.4730 C   0  0  0  0  0  0  0  0  0  0  0  0
  187.3470  178.3400  139.4840 C   0  0  0  0  0  0  0  0  0  0  0  0
  185.2700  178.6410  138.2270 F   0  0  0  0  0  0  0  0  0  0  0  0
  188.2230  176.7650  136.9890 C   0  0  0  0  0  3  0  0  0  0  0  0
  186.5300  178.1420  138.2520 C   0  0  0  0  0  0  0  0  0  0  0  0
  190.6250  176.4590  137.1990 C   0  0  0  0  0  1  0  0  0  0  0  0
  189.4730  178.5290  138.1820 C   0  0  0  0  0  2  0  0  0  0  0  0
  188.8340  177.0270  144.1800 C   0  0  0  0  0  0  0  0  0  0  0  0
  189.1310  176.1270  143.1470 C   0  0  0  0  0  3  0  0  0  0  0  0
  191.1250  176.8140  144.9770 C   0  0  0  0  0  0  0  0  0  0  0  0
  190.4100  175.5790  143.0240 C   0  0  0  0  0  3  0  0  0  0  0  0
  189.5970  178.2430  146.1100 F   0  0  0  0  0  0  0  0  0  0  0  0
  189.8430  177.3650  145.1050 C   0  0  0  0  0  0  0  0  0  0  0  0
  192.1000  177.1440  145.8590 F   0  0  0  0  0  0  0  0  0  0  0  0
  191.4060  175.9240  143.9380 C   0  0  0  0  0  3  0  0  0  0  0  0
  1 10  1  0  0  0  0
  3  9  1  0  0  0  0
  3  5  2  0  0  0  0
  4  8  2  0  0  0  0
  5 11  1  0  0  0  0
  7  4  1  0  0  0  0
  8  2  1  0  0  0  0
  8  6  1  0  0  0  0
  9  7  1  0  0  0  0
 10  6  2  0  0  0  0
 11  4  1  0  0  0  0
 11  1  2  0  0  0  0
 12 15  2  0  0  0  0
 13 18  2  0  0  0  0
 14 20  1  0  0  0  0
 15  3  1  0  0  0  0
 16 18  1  0  0  0  0
 17 13  1  0  0  0  0
 17 14  2  0  0  0  0
 18 15  1  0  0  0  0
 19 14  1  0  0  0  0
 20 12  1  0  0  0  0
 21  1  1  0  0  0  0
 21 26  1  0  0  0  0
 22 21  2  0  0  0  0
 23 26  2  0  0  0  0
 23 27  1  0  0  0  0
 24 22  1  0  0  0  0
 24 28  2  0  0  0  0
 26 25  1  0  0  0  0
 28 23  1  0  0  0  0
M  END
>  <MODEL>
2

>  <REMARK>
 VINA RESULT:     -11.2      2.330      4.760
  Name = 
  2 active torsions:
  status: ('A' for Active; 'I' for Inactive)
    1  A    between atoms: C_1  and  C_2
    2  A    between atoms: C_10  and  C_13
                            x       y       z     vdW  Elec       q    Type
                         _______ _______ _______ _____ _____    ______ ____

>  <TORSDO>
F 2

$$$$
=
 OpenBabel10262420463D

 28 31  0  0  0  0  0  0  0  0999 V2000
  187.9790  177.6140  144.1110 C   0  0  0  0  0  0  0  0  0  0  0  0
  184.0330  178.9750  143.0500 C   0  0  0  0  0  1  0  0  0  0  0  0
  188.4570  177.9200  140.4840 C   0  0  0  0  0  0  0  0  0  0  0  0
  186.3950  178.3460  142.3980 C   0  0  0  0  0  0  0  0  0  0  0  0
  188.7020  177.7680  141.7510 N   0  0  0  0  0  0  0  0  0  0  0  0
  185.7010  178.2060  144.7170 C   0  0  0  0  0  3  0  0  0  0  0  0
  186.1180  178.7560  140.9760 C   0  0  0  0  0  2  0  0  0  0  0  0
  185.4050  178.4960  143.3850 C   0  0  0  0  0  0  0  0  0  0  0  0
  187.1300  178.2510  140.0550 N   0  0  0  0  0  2  0  0  0  0  0  0
  186.9750  177.7700  145.0760 C   0  0  0  0  0  3  0  0  0  0  0  0
  187.6870  177.9060  142.7590 C   0  0  0  0  0  0  0  0  0  0  0  0
  190.6400  177.0850  139.8680 C   0  0  0  0  0  3  0  0  0  0  0  0
  189.8000  177.6900  136.9900 C   0  0  0  0  0  3  0  0  0  0  0  0
  191.4590  176.0240  137.8120 C   0  0  0  0  0  0  0  0  0  0  0  0
  189.5360  177.7380  139.4840 C   0  0  0  0  0  0  0  0  0  0  0  0
  188.6690  179.4400  137.9570 F   0  0  0  0  0  0  0  0  0  0  0  0
  190.5870  176.4450  136.8960 C   0  0  0  0  0  3  0  0  0  0  0  0
  189.3790  178.2960  138.1100 C   0  0  0  0  0  0  0  0  0  0  0  0
  192.1710  174.7380  137.5940 C   0  0  0  0  0  1  0  0  0  0  0  0
  191.8250  176.8620  138.9910 C   0  0  0  0  0  2  0  0  0  0  0  0
  189.3110  177.1250  144.5400 C   0  0  0  0  0  0  0  0  0  0  0  0
  190.1000  176.3850  143.6480 C   0  0  0  0  0  3  0  0  0  0  0  0
  191.0410  176.8640  146.2330 C   0  0  0  0  0  0  0  0  0  0  0  0
  191.3480  175.8940  144.0400 C   0  0  0  0  0  3  0  0  0  0  0  0
  189.0580  178.0820  146.7330 F   0  0  0  0  0  0  0  0  0  0  0  0
  189.7890  177.3580  145.8460 C   0  0  0  0  0  0  0  0  0  0  0  0
  191.5070  177.0960  147.4850 F   0  0  0  0  0  0  0  0  0  0  0  0
  191.8180  176.1350  145.3310 C   0  0  0  0  0  3  0  0  0  0  0  0
  1 21  1  0  0  0  0
  1 10  1  0  0  0  0
  2  8  1  0  0  0  0
  3  5  2  0  0  0  0
  4 11  1  0  0  0  0
  4  8  2  0  0  0  0
  5 11  1  0  0  0  0
  6 10  2  0  0  0  0
  7  4  1  0  0  0  0
  8  6  1  0  0  0  0
  9  3  1  0  0  0  0
  9  7  1  0  0  0  0
 11  1  2  0  0  0  0
 13 18  2  0  0  0  0
 14 20  1  0  0  0  0
 15 12  2  0  0  0  0
 15  3  1  0  0  0  0
 16 18  1  0  0  0  0
 17 13  1  0  0  0  0
 17 14  2  0  0  0  0
 18 15  1  0  0  0  0
 19 14  1  0  0  0  0
 20 12  1  0  0  0  0
 21 26  1  0  0  0  0
 22 24  1  0  0  0  0
 22 21  2  0  0  0  0
 23 27  1  0  0  0  0
 24 28  2  0  0  0  0
 26 23  2  0  0  0  0
 26 25  1  0  0  0  0
 28 23  1  0  0  0  0
M  END
>  <MODEL>
3

>  <REMARK>
 VINA RESULT:     -10.9      2.018      4.617
  Name = 
  2 active torsions:
  status: ('A' for Active; 'I' for Inactive)
    1  A    between atoms: C_1  and  C_2
    2  A    between atoms: C_10  and  C_13
                            x       y       z     vdW  Elec       q    Type
                         _______ _______ _______ _____ _____    ______ ____

>  <TORSDO>
F 2

$$$$
=
 OpenBabel10262420463D

 28 31  0  0  0  0  0  0  0  0999 V2000
  189.3050  177.4510  144.3190 C   0  0  0  0  0  0  0  0  0  0  0  0
  188.1910  177.5000  148.4790 C   0  0  0  0  0  1  0  0  0  0  0  0
  185.7650  178.3430  143.9320 C   0  0  0  0  0  0  0  0  0  0  0  0
  187.6010  177.8010  146.0370 C   0  0  0  0  0  0  0  0  0  0  0  0
  187.0190  178.1300  143.6650 N   0  0  0  0  0  0  0  0  0  0  0  0
  189.8490  177.1490  146.6690 C   0  0  0  0  0  3  0  0  0  0  0  0
  186.2200  178.2620  146.4220 C   0  0  0  0  0  2  0  0  0  0  0  0
  188.5440  177.4810  147.0300 C   0  0  0  0  0  0  0  0  0  0  0  0
  185.3050  178.2500  145.2860 N   0  0  0  0  0  2  0  0  0  0  0  0
  190.2260  177.1350  145.3270 C   0  0  0  0  0  3  0  0  0  0  0  0
  187.9800  177.7880  144.6770 C   0  0  0  0  0  0  0  0  0  0  0  0
  185.2710  178.6580  141.5870 C   0  0  0  0  0  3  0  0  0  0  0  0
  182.3350  178.6280  142.4430 C   0  0  0  0  0  3  0  0  0  0  0  0
  183.3200  178.0350  140.2340 C   0  0  0  0  0  0  0  0  0  0  0  0
  184.8100  178.6640  142.8440 C   0  0  0  0  0  0  0  0  0  0  0  0
  183.1410  179.6420  144.3400 F   0  0  0  0  0  0  0  0  0  0  0  0
  182.3530  177.9270  141.1450 C   0  0  0  0  0  3  0  0  0  0  0  0
  183.3960  179.0030  143.1720 C   0  0  0  0  0  0  0  0  0  0  0  0
  183.2160  177.2560  138.9740 C   0  0  0  0  0  1  0  0  0  0  0  0
  184.4450  179.0030  140.3950 C   0  0  0  0  0  2  0  0  0  0  0  0
  189.7480  177.3980  142.9060 C   0  0  0  0  0  0  0  0  0  0  0  0
  188.8040  177.2040  141.8880 C   0  0  0  0  0  3  0  0  0  0  0  0
  191.5070  177.4230  141.2220 C   0  0  0  0  0  0  0  0  0  0  0  0
  189.2020  177.1270  140.5510 C   0  0  0  0  0  3  0  0  0  0  0  0
  192.0540  177.7020  143.5210 F   0  0  0  0  0  0  0  0  0  0  0  0
  191.1120  177.5010  142.5640 C   0  0  0  0  0  0  0  0  0  0  0  0
  192.8160  177.5330  140.8890 F   0  0  0  0  0  0  0  0  0  0  0  0
  190.5530  177.2370  140.2190 C   0  0  0  0  0  3  0  0  0  0  0  0
  1 11  2  0  0  0  0
  1 10  1  0  0  0  0
  3  9  1  0  0  0  0
  4  7  1  0  0  0  0
  4  8  2  0  0  0  0
  5  3  2  0  0  0  0
  5 11  1  0  0  0  0
  6  8  1  0  0  0  0
  8  2  1  0  0  0  0
  9  7  1  0  0  0  0
 10  6  2  0  0  0  0
 11  4  1  0  0  0  0
 12 15  2  0  0  0  0
 13 18  2  0  0  0  0
 14 20  1  0  0  0  0
 14 17  2  0  0  0  0
 15 18  1  0  0  0  0
 15  3  1  0  0  0  0
 17 13  1  0  0  0  0
 18 16  1  0  0  0  0
 19 14  1  0  0  0  0
 20 12  1  0  0  0  0
 21  1  1  0  0  0  0
 22 21  2  0  0  0  0
 23 26  2  0  0  0  0
 24 22  1  0  0  0  0
 26 21  1  0  0  0  0
 26 25  1  0  0  0  0
 27 23  1  0  0  0  0
 28 24  2  0  0  0  0
 28 23  1  0  0  0  0
M  END
>  <MODEL>
4

>  <REMARK>
 VINA RESULT:     -10.6      2.153      5.707
  Name = 
  2 active torsions:
  status: ('A' for Active; 'I' for Inactive)
    1  A    between atoms: C_1  and  C_2
    2  A    between atoms: C_10  and  C_13
                            x       y       z     vdW  Elec       q    Type
                         _______ _______ _______ _____ _____    ______ ____

>  <TORSDO>
F 2

$$$$
=
 OpenBabel10262420463D

 28 31  0  0  0  0  0  0  0  0999 V2000
  189.4020  177.5220  143.8670 C   0  0  0  0  0  0  0  0  0  0  0  0
  191.9160  177.3150  140.3760 C   0  0  0  0  0  1  0  0  0  0  0  0
  186.9370  178.5550  141.3490 C   0  0  0  0  0  0  0  0  0  0  0  0
  189.6680  177.7620  141.4480 C   0  0  0  0  0  0  0  0  0  0  0  0
  187.4650  178.1700  142.4730 N   0  0  0  0  0  0  0  0  0  0  0  0
  191.5580  177.1130  142.8220 C   0  0  0  0  0  3  0  0  0  0  0  0
  189.0570  177.9770  140.0890 C   0  0  0  0  0  2  0  0  0  0  0  0
  191.0240  177.4060  141.5680 C   0  0  0  0  0  0  0  0  0  0  0  0
  187.7540  178.6280  140.1740 N   0  0  0  0  0  2  0  0  0  0  0  0
  190.7550  177.1700  143.9600 C   0  0  0  0  0  3  0  0  0  0  0  0
  188.8530  177.8200  142.5990 C   0  0  0  0  0  0  0  0  0  0  0  0
  184.9260  178.9750  140.0750 C   0  0  0  0  0  3  0  0  0  0  0  0
  183.4910  178.9390  142.7770 C   0  0  0  0  0  3  0  0  0  0  0  0
  182.5740  178.4300  140.5170 C   0  0  0  0  0  0  0  0  0  0  0  0
  185.5060  178.9320  141.2820 C   0  0  0  0  0  0  0  0  0  0  0  0
  185.4490  179.8630  143.5430 F   0  0  0  0  0  0  0  0  0  0  0  0
  182.5480  178.2930  141.8430 C   0  0  0  0  0  3  0  0  0  0  0  0
  184.7670  179.2720  142.5320 C   0  0  0  0  0  0  0  0  0  0  0  0
  181.5700  177.7060  139.6960 C   0  0  0  0  0  1  0  0  0  0  0  0
  183.5100  179.3780  139.8440 C   0  0  0  0  0  2  0  0  0  0  0  0
  188.5960  177.5920  145.1080 C   0  0  0  0  0  0  0  0  0  0  0  0
  187.1990  177.4970  145.0380 C   0  0  0  0  0  3  0  0  0  0  0  0
  188.4190  177.8780  147.5200 C   0  0  0  0  0  0  0  0  0  0  0  0
  186.4190  177.5850  146.1930 C   0  0  0  0  0  3  0  0  0  0  0  0
  190.5560  177.8750  146.4740 F   0  0  0  0  0  0  0  0  0  0  0  0
  189.2060  177.7910  146.3640 C   0  0  0  0  0  0  0  0  0  0  0  0
  189.0030  178.0590  148.7300 F   0  0  0  0  0  0  0  0  0  0  0  0
  187.0290  177.7740  147.4330 C   0  0  0  0  0  3  0  0  0  0  0  0
  1 10  1  0  0  0  0
  1 21  1  0  0  0  0
  2  8  1  0  0  0  0
  3  5  2  0  0  0  0
  4  8  2  0  0  0  0
  4 11  1  0  0  0  0
  5 11  1  0  0  0  0
  6 10  2  0  0  0  0
  7  9  1  0  0  0  0
  7  4  1  0  0  0  0
  8  6  1  0  0  0  0
  9  3  1  0  0  0  0
 11  1  2  0  0  0  0
 12 15  2  0  0  0  0
 14 17  2  0  0  0  0
 15  3  1  0  0  0  0
 15 18  1  0  0  0  0
 17 13  1  0  0  0  0
 18 13  2  0  0  0  0
 18 16  1  0  0  0  0
 19 14  1  0  0  0  0
 20 12  1  0  0  0  0
 20 14  1  0  0  0  0
 21 26  1  0  0  0  0
 22 21  2  0  0  0  0
 22 24  1  0  0  0  0
 23 27  1  0  0  0  0
 24 28  2  0  0  0  0
 26 25  1  0  0  0  0
 26 23  2  0  0  0  0
 28 23  1  0  0  0  0
M  END
>  <MODEL>
5

>  <REMARK>
 VINA RESULT:     -10.6      2.299      5.287
  Name = 
  2 active torsions:
  status: ('A' for Active; 'I' for Inactive)
    1  A    between atoms: C_1  and  C_2
    2  A    between atoms: C_10  and  C_13
                            x       y       z     vdW  Elec       q    Type
                         _______ _______ _______ _____ _____    ______ ____

>  <TORSDO>
F 2

$$$$
=
 OpenBabel10262420463D

 28 31  0  0  0  0  0  0  0  0999 V2000
  185.7790  178.3360  145.1650 C   0  0  0  0  0  0  0  0  0  0  0  0
  188.7250  178.0300  148.2920 C   0  0  0  0  0  1  0  0  0  0  0  0
  188.6870  177.4620  143.1010 C   0  0  0  0  0  0  0  0  0  0  0  0
  188.0820  177.8770  145.8500 C   0  0  0  0  0  0  0  0  0  0  0  0
  187.4630  177.6940  143.4720 N   0  0  0  0  0  0  0  0  0  0  0  0
  186.4200  178.4940  147.5050 C   0  0  0  0  0  3  0  0  0  0  0  0
  189.4660  177.3910  145.5100 C   0  0  0  0  0  2  0  0  0  0  0  0
  187.7300  178.1380  147.1870 C   0  0  0  0  0  0  0  0  0  0  0  0
  189.7350  177.4710  144.0790 N   0  0  0  0  0  2  0  0  0  0  0  0
  185.4540  178.5910  146.5040 C   0  0  0  0  0  3  0  0  0  0  0  0
  187.1050  177.9740  144.8350 C   0  0  0  0  0  0  0  0  0  0  0  0
  188.0690  177.5030  140.7650 C   0  0  0  0  0  3  0  0  0  0  0  0
  191.0280  176.9570  140.2150 C   0  0  0  0  0  3  0  0  0  0  0  0
  189.3500  178.0700  138.7500 C   0  0  0  0  0  0  0  0  0  0  0  0
  189.0040  177.2060  141.6760 C   0  0  0  0  0  0  0  0  0  0  0  0
  190.9060  175.7470  142.1640 F   0  0  0  0  0  0  0  0  0  0  0  0
  190.6100  177.8740  139.1370 C   0  0  0  0  0  3  0  0  0  0  0  0
  190.3210  176.6140  141.3010 C   0  0  0  0  0  0  0  0  0  0  0  0
  189.0720  179.0380  137.6580 C   0  0  0  0  0  1  0  0  0  0  0  0
  188.2230  177.2610  139.3020 C   0  0  0  0  0  2  0  0  0  0  0  0
  184.7230  178.4750  144.1350 C   0  0  0  0  0  0  0  0  0  0  0  0
  185.0410  178.2890  142.7820 C   0  0  0  0  0  3  0  0  0  0  0  0
  182.4300  178.9810  143.4900 C   0  0  0  0  0  0  0  0  0  0  0  0
  184.0670  178.4400  141.7940 C   0  0  0  0  0  3  0  0  0  0  0  0
  183.0550  179.0070  145.7850 F   0  0  0  0  0  0  0  0  0  0  0  0
  183.4040  178.8310  144.4850 C   0  0  0  0  0  0  0  0  0  0  0  0
  181.1590  179.3130  143.8250 F   0  0  0  0  0  0  0  0  0  0  0  0
  182.7620  178.7850  142.1470 C   0  0  0  0  0  3  0  0  0  0  0  0
  1 10  1  0  0  0  0
  3  5  2  0  0  0  0
  3  9  1  0  0  0  0
  4  8  2  0  0  0  0
  5 11  1  0  0  0  0
  7  4  1  0  0  0  0
  8  6  1  0  0  0  0
  8  2  1  0  0  0  0
  9  7  1  0  0  0  0
 10  6  2  0  0  0  0
 11  1  2  0  0  0  0
 11  4  1  0  0  0  0
 12 15  2  0  0  0  0
 13 18  2  0  0  0  0
 14 17  2  0  0  0  0
 14 20  1  0  0  0  0
 15  3  1  0  0  0  0
 17 13  1  0  0  0  0
 18 15  1  0  0  0  0
 18 16  1  0  0  0  0
 19 14  1  0  0  0  0
 20 12  1  0  0  0  0
 21 26  1  0  0  0  0
 21  1  1  0  0  0  0
 22 21  2  0  0  0  0
 23 27  1  0  0  0  0
 23 26  2  0  0  0  0
 24 28  2  0  0  0  0
 24 22  1  0  0  0  0
 26 25  1  0  0  0  0
 28 23  1  0  0  0  0
M  END
>  <MODEL>
6

>  <REMARK>
 VINA RESULT:     -10.5      1.659      2.449
  Name = 
  2 active torsions:
  status: ('A' for Active; 'I' for Inactive)
    1  A    between atoms: C_1  and  C_2
    2  A    between atoms: C_10  and  C_13
                            x       y       z     vdW  Elec       q    Type
                         _______ _______ _______ _____ _____    ______ ____

>  <TORSDO>
F 2

$$$$
=
 OpenBabel10262420463D

 28 31  0  0  0  0  0  0  0  0999 V2000
  186.1730  178.2380  142.0370 C   0  0  0  0  0  0  0  0  0  0  0  0
  182.7670  178.7690  144.6190 C   0  0  0  0  0  1  0  0  0  0  0  0
  187.9000  178.0680  145.2720 C   0  0  0  0  0  0  0  0  0  0  0  0
  185.2480  178.3930  144.2960 C   0  0  0  0  0  0  0  0  0  0  0  0
  187.6610  177.9950  143.9970 N   0  0  0  0  0  0  0  0  0  0  0  0
  183.7940  178.6160  142.3670 C   0  0  0  0  0  3  0  0  0  0  0  0
  185.4280  178.2610  145.7850 C   0  0  0  0  0  2  0  0  0  0  0  0
  183.9660  178.5930  143.7510 C   0  0  0  0  0  0  0  0  0  0  0  0
  186.8290  178.3670  146.1760 N   0  0  0  0  0  2  0  0  0  0  0  0
  184.8860  178.4400  141.5190 C   0  0  0  0  0  3  0  0  0  0  0  0
  186.3550  178.2130  143.4390 C   0  0  0  0  0  0  0  0  0  0  0  0
  189.4070  177.4640  147.0630 C   0  0  0  0  0  3  0  0  0  0  0  0
  191.5690  177.3840  144.9000 C   0  0  0  0  0  3  0  0  0  0  0  0
  191.4910  176.1670  147.0710 C   0  0  0  0  0  0  0  0  0  0  0  0
  189.2730  177.8620  145.7910 C   0  0  0  0  0  0  0  0  0  0  0  0
  190.3500  179.0980  143.9770 F   0  0  0  0  0  0  0  0  0  0  0  0
  191.9090  176.2740  145.8110 C   0  0  0  0  0  3  0  0  0  0  0  0
  190.4480  178.1210  144.9110 C   0  0  0  0  0  0  0  0  0  0  0  0
  191.8990  174.9820  147.8700 C   0  0  0  0  0  1  0  0  0  0  0  0
  190.7200  177.2570  147.7380 C   0  0  0  0  0  2  0  0  0  0  0  0
  187.3050  178.0800  141.0940 C   0  0  0  0  0  0  0  0  0  0  0  0
  188.5660  177.7050  141.5780 C   0  0  0  0  0  3  0  0  0  0  0  0
  188.2410  178.2040  138.8500 C   0  0  0  0  0  0  0  0  0  0  0  0
  189.6520  177.5740  140.7100 C   0  0  0  0  0  3  0  0  0  0  0  0
  185.9400  178.6910  139.2090 F   0  0  0  0  0  0  0  0  0  0  0  0
  187.1490  178.3380  139.7160 C   0  0  0  0  0  0  0  0  0  0  0  0
  188.0920  178.4410  137.5230 F   0  0  0  0  0  0  0  0  0  0  0  0
  189.4900  177.8220  139.3470 C   0  0  0  0  0  3  0  0  0  0  0  0
  1 11  1  0  0  0  0
  3 15  1  0  0  0  0
  3  9  1  0  0  0  0
  4  7  1  0  0  0  0
  5  3  2  0  0  0  0
  6  8  2  0  0  0  0
  7  9  1  0  0  0  0
  8  4  1  0  0  0  0
  8  2  1  0  0  0  0
 10  1  2  0  0  0  0
 10  6  1  0  0  0  0
 11  5  1  0  0  0  0
 11  4  2  0  0  0  0
 12 20  1  0  0  0  0
 13 18  2  0  0  0  0
 13 17  1  0  0  0  0
 14 20  1  0  0  0  0
 14 19  1  0  0  0  0
 15 12  2  0  0  0  0
 16 18  1  0  0  0  0
 17 14  2  0  0  0  0
 18 15  1  0  0  0  0
 21 22  1  0  0  0  0
 21  1  1  0  0  0  0
 23 28  2  0  0  0  0
 23 26  1  0  0  0  0
 24 22  2  0  0  0  0
 25 26  1  0  0  0  0
 26 21  2  0  0  0  0
 27 23  1  0  0  0  0
 28 24  1  0  0  0  0
M  END
>  <MODEL>
7

>  <REMARK>
 VINA RESULT:     -10.3      2.297      6.487
  Name = 
  2 active torsions:
  status: ('A' for Active; 'I' for Inactive)
    1  A    between atoms: C_1  and  C_2
    2  A    between atoms: C_10  and  C_13
                            x       y       z     vdW  Elec       q    Type
                         _______ _______ _______ _____ _____    ______ ____

>  <TORSDO>
F 2

$$$$
=
 OpenBabel10262420463D

 28 31  0  0  0  0  0  0  0  0999 V2000
  187.4570  177.6920  143.9780 C   0  0  0  0  0  0  0  0  0  0  0  0
  183.4880  179.3350  144.2880 C   0  0  0  0  0  1  0  0  0  0  0  0
  186.7590  178.1300  140.3990 C   0  0  0  0  0  0  0  0  0  0  0  0
  185.4620  178.5940  142.8890 C   0  0  0  0  0  0  0  0  0  0  0  0
  187.3890  177.9060  141.5150 N   0  0  0  0  0  0  0  0  0  0  0  0
  185.5450  178.3930  145.3040 C   0  0  0  0  0  3  0  0  0  0  0  0
  184.7700  179.0830  141.6440 C   0  0  0  0  0  2  0  0  0  0  0  0
  184.8560  178.7590  144.1480 C   0  0  0  0  0  0  0  0  0  0  0  0
  185.3920  178.5590  140.4330 N   0  0  0  0  0  2  0  0  0  0  0  0
  186.8320  177.8650  145.2200 C   0  0  0  0  0  3  0  0  0  0  0  0
  186.7660  178.0610  142.8010 C   0  0  0  0  0  0  0  0  0  0  0  0
  186.8030  177.2140  138.1630 C   0  0  0  0  0  3  0  0  0  0  0  0
  189.2320  179.0220  137.7250 C   0  0  0  0  0  3  0  0  0  0  0  0
  187.6250  178.1350  136.0410 C   0  0  0  0  0  0  0  0  0  0  0  0
  187.4420  177.9270  139.0990 C   0  0  0  0  0  0  0  0  0  0  0  0
  189.6460  178.5750  139.9400 F   0  0  0  0  0  0  0  0  0  0  0  0
  188.5060  179.0510  136.4400 C   0  0  0  0  0  3  0  0  0  0  0  0
  188.8050  178.4900  138.8790 C   0  0  0  0  0  0  0  0  0  0  0  0
  186.9550  178.3000  134.7250 C   0  0  0  0  0  1  0  0  0  0  0  0
  187.3780  176.8890  136.8260 C   0  0  0  0  0  2  0  0  0  0  0  0
  188.8170  177.1050  143.9390 C   0  0  0  0  0  0  0  0  0  0  0  0
  189.1110  176.0890  143.0180 C   0  0  0  0  0  3  0  0  0  0  0  0
  191.0900  176.9350  144.7980 C   0  0  0  0  0  0  0  0  0  0  0  0
  190.3790  175.5050  142.9810 C   0  0  0  0  0  3  0  0  0  0  0  0
  189.5760  178.5120  145.7360 F   0  0  0  0  0  0  0  0  0  0  0  0
  189.8190  177.5230  144.8390 C   0  0  0  0  0  0  0  0  0  0  0  0
  192.0570  177.3420  145.6550 F   0  0  0  0  0  0  0  0  0  0  0  0
  191.3680  175.9290  143.8700 C   0  0  0  0  0  3  0  0  0  0  0  0
  1 10  1  0  0  0  0
  3  9  1  0  0  0  0
  3  5  2  0  0  0  0
  4  8  2  0  0  0  0
  5 11  1  0  0  0  0
  7  4  1  0  0  0  0
  8  2  1  0  0  0  0
  8  6  1  0  0  0  0
  9  7  1  0  0  0  0
 10  6  2  0  0  0  0
 11  4  1  0  0  0  0
 11  1  2  0  0  0  0
 12 15  2  0  0  0  0
 13 18  2  0  0  0  0
 14 17  2  0  0  0  0
 14 20  1  0  0  0  0
 15  3  1  0  0  0  0
 17 13  1  0  0  0  0
 18 15  1  0  0  0  0
 18 16  1  0  0  0  0
 19 14  1  0  0  0  0
 20 12  1  0  0  0  0
 21  1  1  0  0  0  0
 21 26  1  0  0  0  0
 22 21  2  0  0  0  0
 23 26  2  0  0  0  0
 23 27  1  0  0  0  0
 24 22  1  0  0  0  0
 24 28  2  0  0  0  0
 26 25  1  0  0  0  0
 28 23  1  0  0  0  0
M  END
>  <MODEL>
8

>  <REMARK>
 VINA RESULT:     -10.1      2.435      4.987
  Name = 
  2 active torsions:
  status: ('A' for Active; 'I' for Inactive)
    1  A    between atoms: C_1  and  C_2
    2  A    between atoms: C_10  and  C_13
                            x       y       z     vdW  Elec       q    Type
                         _______ _______ _______ _____ _____    ______ ____

>  <TORSDO>
F 2

$$$$
=
 OpenBabel10262420463D

 28 31  0  0  0  0  0  0  0  0999 V2000
  187.7160  177.6420  144.4850 C   0  0  0  0  0  0  0  0  0  0  0  0
  191.6810  176.7770  145.9280 C   0  0  0  0  0  1  0  0  0  0  0  0
  189.3810  177.1310  141.2530 C   0  0  0  0  0  0  0  0  0  0  0  0
  190.0450  177.0590  144.0190 C   0  0  0  0  0  0  0  0  0  0  0  0
  188.4560  177.3000  142.1500 N   0  0  0  0  0  0  0  0  0  0  0  0
  189.3060  177.3830  146.3050 C   0  0  0  0  0  3  0  0  0  0  0  0
  191.1060  176.6330  143.0390 C   0  0  0  0  0  2  0  0  0  0  0  0
  190.3210  177.0830  145.3980 C   0  0  0  0  0  0  0  0  0  0  0  0
  190.7430  176.9620  141.6650 N   0  0  0  0  0  2  0  0  0  0  0  0
  188.0160  177.6600  145.8540 C   0  0  0  0  0  3  0  0  0  0  0  0
  188.7400  177.3380  143.5580 C   0  0  0  0  0  0  0  0  0  0  0  0
  187.8210  177.5660  139.4590 C   0  0  0  0  0  3  0  0  0  0  0  0
  190.2130  177.1570  137.5960 C   0  0  0  0  0  3  0  0  0  0  0  0
  188.1440  178.4870  137.2060 C   0  0  0  0  0  0  0  0  0  0  0  0
  189.0370  177.1280  139.8110 C   0  0  0  0  0  0  0  0  0  0  0  0
  190.8640  175.6280  139.1830 F   0  0  0  0  0  0  0  0  0  0  0  0
  189.4320  178.2410  136.9700 C   0  0  0  0  0  3  0  0  0  0  0  0
  190.0220  176.6240  138.8120 C   0  0  0  0  0  0  0  0  0  0  0  0
  187.4870  179.6250  136.5150 C   0  0  0  0  0  1  0  0  0  0  0  0
  187.3150  177.5820  138.0560 C   0  0  0  0  0  2  0  0  0  0  0  0
  186.3360  177.9670  144.0530 C   0  0  0  0  0  0  0  0  0  0  0  0
  186.0110  177.9470  142.6890 C   0  0  0  0  0  3  0  0  0  0  0  0
  184.0550  178.6590  144.5500 C   0  0  0  0  0  0  0  0  0  0  0  0
  184.7230  178.2730  142.2590 C   0  0  0  0  0  3  0  0  0  0  0  0
  185.6200  178.3520  146.3170 F   0  0  0  0  0  0  0  0  0  0  0  0
  185.3460  178.3340  144.9870 C   0  0  0  0  0  0  0  0  0  0  0  0
  183.0980  179.0030  145.4470 F   0  0  0  0  0  0  0  0  0  0  0  0
  183.7460  178.6280  143.1890 C   0  0  0  0  0  3  0  0  0  0  0  0
  1 10  1  0  0  0  0
  3  9  1  0  0  0  0
  3  5  2  0  0  0  0
  4  8  2  0  0  0  0
  5 11  1  0  0  0  0
  7  4  1  0  0  0  0
  8  2  1  0  0  0  0
  8  6  1  0  0  0  0
  9  7  1  0  0  0  0
 10  6  2  0  0  0  0
 11  4  1  0  0  0  0
 11  1  2  0  0  0  0
 12 15  2  0  0  0  0
 13 18  2  0  0  0  0
 14 20  1  0  0  0  0
 15  3  1  0  0  0  0
 17 14  2  0  0  0  0
 17 13  1  0  0  0  0
 18 16  1  0  0  0  0
 18 15  1  0  0  0  0
 19 14  1  0  0  0  0
 20 12  1  0  0  0  0
 21  1  1  0  0  0  0
 21 26  1  0  0  0  0
 22 21  2  0  0  0  0
 23 26  2  0  0  0  0
 23 27  1  0  0  0  0
 24 22  1  0  0  0  0
 24 28  2  0  0  0  0
 26 25  1  0  0  0  0
 28 23  1  0  0  0  0
M  END
>  <MODEL>
9

>  <REMARK>
 VINA RESULT:     -10.1      1.521      2.127
  Name = 
  2 active torsions:
  status: ('A' for Active; 'I' for Inactive)
    1  A    between atoms: C_1  and  C_2
    2  A    between atoms: C_10  and  C_13
                            x       y       z     vdW  Elec       q    Type
                         _______ _______ _______ _____ _____    ______ ____

>  <TORSDO>
F 2

$$$$
