=
 OpenBabel10262421273D

 32 36  0  0  1  0  0  0  0  0999 V2000
  190.5350  176.0230  142.1380 C   0  0  0  0  0  2  0  0  0  0  0  0
  185.9290  178.9240  140.1900 C   0  0  0  0  0  3  0  0  0  0  0  0
  186.2410  178.2770  138.9790 C   0  0  0  0  0  3  0  0  0  0  0  0
  191.1800  177.5890  144.1090 C   0  0  2  0  0  3  0  0  0  0  0  0
  189.5060  178.9930  142.9720 C   0  0  0  0  0  2  0  0  0  0  0  0
  191.2700  179.9810  144.1910 C   0  0  0  0  0  1  0  0  0  0  0  0
  186.8170  178.8590  141.2750 C   0  0  0  0  0  3  0  0  0  0  0  0
  189.0300  177.8190  142.1200 C   0  0  1  0  0  3  0  0  0  0  0  0
  188.0230  178.1780  141.1020 C   0  0  0  0  0  0  0  0  0  0  0  0
  189.6100  176.8120  140.0710 C   0  0  2  0  0  3  0  0  0  0  0  0
  190.9100  178.8380  143.3660 N   0  0  0  0  0  0  0  0  0  0  0  0
  187.4450  177.5670  138.8470 C   0  0  0  0  0  3  0  0  0  0  0  0
  188.3320  177.5570  139.9250 C   0  0  0  0  0  0  0  0  0  0  0  0
  191.5630  176.3910  143.2180 C   0  0  0  0  0  2  0  0  0  0  0  0
  190.1450  177.2050  141.3840 N   0  0  2  0  0  0  0  0  0  0  0  0
  188.6820  176.8960  147.5710 C   0  0  0  0  0  0  0  0  0  0  0  0
  192.1970  176.5210  146.6910 F   0  0  0  0  0  0  0  0  0  0  0  0
  190.0420  176.5940  147.6520 C   0  0  0  0  0  3  0  0  0  0  0  0
  188.1540  177.4200  146.3920 C   0  0  0  0  0  3  0  0  0  0  0  0
  190.3540  177.3310  145.3550 C   0  0  0  0  0  0  0  0  0  0  0  0
  187.8760  176.6860  148.6390 F   0  0  0  0  0  0  0  0  0  0  0  0
  188.9870  177.6360  145.2910 C   0  0  0  0  0  3  0  0  0  0  0  0
  190.8810  176.8080  146.5550 C   0  0  0  0  0  0  0  0  0  0  0  0
  190.6390  177.0830  138.9550 C   0  0  0  0  0  2  0  0  0  0  0  0
  193.0180  176.4070  138.2150 C   0  0  0  0  0  2  0  0  0  0  0  0
  193.8370  175.3530  137.5220 C   0  0  0  0  0  0  0  0  0  0  0  0
  191.0050  174.9900  137.5410 C   0  0  0  0  0  0  0  0  0  0  0  0
  191.7850  174.1180  136.9010 C   0  0  0  0  0  3  0  0  0  0  0  0
  193.2520  174.0110  137.1930 C   0  0  0  0  0  2  0  0  0  0  0  0
  195.0030  175.5830  137.2500 O   0  0  0  0  0  0  0  0  0  0  0  0
  189.6370  174.9670  137.3030 O   0  0  0  0  0  1  0  0  0  0  0  0
  191.5950  175.9380  138.5580 C   0  0  2  0  0  3  0  0  0  0  0  0
  1 14  1  0  0  0  0
  2  7  1  0  0  0  0
  3  2  2  0  0  0  0
  4 20  1  6  0  0  0
  5 11  1  0  0  0  0
  8  5  1  6  0  0  0
  9  7  2  0  0  0  0
  9  8  1  0  0  0  0
 10 24  1  6  0  0  0
 10 15  1  0  0  0  0
 11  4  1  0  0  0  0
 11  6  1  0  0  0  0
 12  3  1  0  0  0  0
 12 13  2  0  0  0  0
 13 10  1  0  0  0  0
 13  9  1  0  0  0  0
 14  4  1  0  0  0  0
 15  8  1  0  0  0  0
 15  1  1  1  0  0  0
 16 18  1  0  0  0  0
 16 21  1  0  0  0  0
 19 16  2  0  0  0  0
 20 23  1  0  0  0  0
 22 20  2  0  0  0  0
 22 19  1  0  0  0  0
 23 17  1  0  0  0  0
 23 18  2  0  0  0  0
 25 32  1  0  0  0  0
 26 25  1  0  0  0  0
 27 32  1  0  0  0  0
 28 29  1  0  0  0  0
 28 27  2  0  0  0  0
 29 26  1  0  0  0  0
 30 26  2  0  0  0  0
 31 27  1  0  0  0  0
 32 24  1  6  0  0  0
M  END
>  <MODEL>
1

>  <REMARK>
 VINA RESULT:      -8.7      0.000      0.000
  Name = 
  3 active torsions:
  status: ('A' for Active; 'I' for Inactive)
    1  A    between atoms: C_8  and  C_19
    2  A    between atoms: C_16  and  C_27
    3  A    between atoms: C_27  and  C_32
                            x       y       z     vdW  Elec       q    Type
                         _______ _______ _______ _____ _____    ______ ____

>  <TORSDO>
F 3

$$$$
=
 OpenBabel10262421273D

 32 36  0  0  1  0  0  0  0  0999 V2000
  190.6050  176.1910  141.9640 C   0  0  0  0  0  2  0  0  0  0  0  0
  185.8290  178.9550  140.2400 C   0  0  0  0  0  3  0  0  0  0  0  0
  186.1490  178.3850  138.9930 C   0  0  0  0  0  3  0  0  0  0  0  0
  191.2110  177.6880  144.0000 C   0  0  2  0  0  3  0  0  0  0  0  0
  189.4510  179.0630  142.9620 C   0  0  0  0  0  2  0  0  0  0  0  0
  191.1870  180.0740  144.2000 C   0  0  0  0  0  1  0  0  0  0  0  0
  186.7390  178.8800  141.3060 C   0  0  0  0  0  3  0  0  0  0  0  0
  189.0160  177.9100  142.0610 C   0  0  1  0  0  3  0  0  0  0  0  0
  187.9730  178.2690  141.0790 C   0  0  0  0  0  0  0  0  0  0  0  0
  189.6050  177.0340  139.9550 C   0  0  2  0  0  3  0  0  0  0  0  0
  190.8670  178.9570  143.3260 N   0  0  0  0  0  0  0  0  0  0  0  0
  187.3840  177.7420  138.8050 C   0  0  0  0  0  3  0  0  0  0  0  0
  188.2900  177.7230  139.8670 C   0  0  0  0  0  0  0  0  0  0  0  0
  191.6350  176.5550  143.0440 C   0  0  0  0  0  2  0  0  0  0  0  0
  190.1450  177.3880  141.2770 N   0  0  2  0  0  0  0  0  0  0  0  0
  188.8160  176.7100  147.4660 C   0  0  0  0  0  0  0  0  0  0  0  0
  192.3120  176.4590  146.4740 F   0  0  0  0  0  0  0  0  0  0  0  0
  190.1820  176.4270  147.4920 C   0  0  0  0  0  3  0  0  0  0  0  0
  188.2490  177.3050  146.3400 C   0  0  0  0  0  3  0  0  0  0  0  0
  190.4220  177.3280  145.2450 C   0  0  0  0  0  0  0  0  0  0  0  0
  188.0420  176.4110  148.5370 F   0  0  0  0  0  0  0  0  0  0  0  0
  189.0500  177.6120  145.2370 C   0  0  0  0  0  3  0  0  0  0  0  0
  190.9890  176.7320  146.3920 C   0  0  0  0  0  0  0  0  0  0  0  0
  190.5990  177.4100  138.8370 C   0  0  0  0  0  2  0  0  0  0  0  0
  189.9430  175.1930  137.6900 C   0  0  0  0  0  2  0  0  0  0  0  0
  190.4620  173.9890  136.9530 C   0  0  0  0  0  0  0  0  0  0  0  0
  192.4000  175.8280  137.9610 C   0  0  0  0  0  0  0  0  0  0  0  0
  192.7950  174.7160  137.3400 C   0  0  0  0  0  3  0  0  0  0  0  0
  191.8740  173.9430  136.4460 C   0  0  0  0  0  2  0  0  0  0  0  0
  189.7160  173.0500  136.7390 O   0  0  0  0  0  0  0  0  0  0  0  0
  193.3300  176.5570  138.6910 O   0  0  0  0  0  1  0  0  0  0  0  0
  190.9800  176.3210  137.8120 C   0  0  2  0  0  3  0  0  0  0  0  0
  1 14  1  0  0  0  0
  2  7  1  0  0  0  0
  3  2  2  0  0  0  0
  4 20  1  6  0  0  0
  5 11  1  0  0  0  0
  8  5  1  6  0  0  0
  9  7  2  0  0  0  0
  9  8  1  0  0  0  0
 10 24  1  6  0  0  0
 10 15  1  0  0  0  0
 11  4  1  0  0  0  0
 11  6  1  0  0  0  0
 12  3  1  0  0  0  0
 12 13  2  0  0  0  0
 13 10  1  0  0  0  0
 13  9  1  0  0  0  0
 14  4  1  0  0  0  0
 15  1  1  1  0  0  0
 15  8  1  0  0  0  0
 16 18  1  0  0  0  0
 16 21  1  0  0  0  0
 19 16  2  0  0  0  0
 20 23  1  0  0  0  0
 22 20  2  0  0  0  0
 22 19  1  0  0  0  0
 23 17  1  0  0  0  0
 23 18  2  0  0  0  0
 25 32  1  0  0  0  0
 26 25  1  0  0  0  0
 27 31  1  0  0  0  0
 28 27  2  0  0  0  0
 29 26  1  0  0  0  0
 29 28  1  0  0  0  0
 30 26  2  0  0  0  0
 32 27  1  0  0  0  0
 32 24  1  1  0  0  0
M  END
>  <MODEL>
2

>  <REMARK>
 VINA RESULT:      -8.5      0.717      1.643
  Name = 
  3 active torsions:
  status: ('A' for Active; 'I' for Inactive)
    1  A    between atoms: C_8  and  C_19
    2  A    between atoms: C_16  and  C_27
    3  A    between atoms: C_27  and  C_32
                            x       y       z     vdW  Elec       q    Type
                         _______ _______ _______ _____ _____    ______ ____

>  <TORSDO>
F 3

$$$$
=
 OpenBabel10262421273D

 32 36  0  0  1  0  0  0  0  0999 V2000
  189.0070  176.5560  142.5090 C   0  0  0  0  0  2  0  0  0  0  0  0
  184.7890  178.8440  145.7330 C   0  0  0  0  0  3  0  0  0  0  0  0
  184.0310  178.6860  144.5580 C   0  0  0  0  0  3  0  0  0  0  0  0
  191.0500  177.5410  143.7790 C   0  0  2  0  0  3  0  0  0  0  0  0
  189.2290  178.8280  144.8250 C   0  0  0  0  0  2  0  0  0  0  0  0
  191.3930  179.7500  144.6350 C   0  0  0  0  0  1  0  0  0  0  0  0
  186.1780  178.6420  145.7110 C   0  0  0  0  0  3  0  0  0  0  0  0
  188.1700  177.8990  144.2370 C   0  0  1  0  0  3  0  0  0  0  0  0
  186.7800  178.3270  144.4920 C   0  0  0  0  0  0  0  0  0  0  0  0
  186.9290  177.7230  142.2420 C   0  0  2  0  0  3  0  0  0  0  0  0
  190.4340  178.8670  143.9910 N   0  0  0  0  0  0  0  0  0  0  0  0
  184.6590  178.3300  143.3540 C   0  0  0  0  0  3  0  0  0  0  0  0
  186.0470  178.1810  143.3480 C   0  0  0  0  0  0  0  0  0  0  0  0
  190.5240  176.7880  142.5400 C   0  0  0  0  0  2  0  0  0  0  0  0
  188.2980  177.7980  142.7750 N   0  0  2  0  0  0  0  0  0  0  0  0
  192.0000  175.3750  147.4000 C   0  0  0  0  0  0  0  0  0  0  0  0
  192.3670  174.8750  143.8110 F   0  0  0  0  0  0  0  0  0  0  0  0
  192.3130  174.7970  146.1690 C   0  0  0  0  0  3  0  0  0  0  0  0
  191.4010  176.6330  147.4460 C   0  0  0  0  0  3  0  0  0  0  0  0
  191.4100  176.7390  145.0150 C   0  0  0  0  0  0  0  0  0  0  0  0
  192.2840  174.7170  148.5500 F   0  0  0  0  0  0  0  0  0  0  0  0
  191.1090  177.3100  146.2590 C   0  0  0  0  0  3  0  0  0  0  0  0
  192.0240  175.4680  144.9780 C   0  0  0  0  0  0  0  0  0  0  0  0
  186.8000  178.5410  140.9410 C   0  0  0  0  0  2  0  0  0  0  0  0
  188.7120  177.9420  139.3140 C   0  0  0  0  0  2  0  0  0  0  0  0
  189.0490  177.5810  137.8930 C   0  0  0  0  0  0  0  0  0  0  0  0
  186.3300  178.2500  138.4500 C   0  0  0  0  0  0  0  0  0  0  0  0
  186.7060  177.9680  137.2010 C   0  0  0  0  0  3  0  0  0  0  0  0
  187.9740  177.2240  136.9100 C   0  0  0  0  0  2  0  0  0  0  0  0
  190.2170  177.5490  137.5450 O   0  0  0  0  0  0  0  0  0  0  0  0
  185.0930  178.8480  138.6600 O   0  0  0  0  0  1  0  0  0  0  0  0
  187.2060  177.8620  139.6170 C   0  0  2  0  0  3  0  0  0  0  0  0
  1 14  1  0  0  0  0
  3  2  2  0  0  0  0
  4 11  1  0  0  0  0
  4 20  1  1  0  0  0
  7  2  1  0  0  0  0
  8  9  1  0  0  0  0
  8  5  1  6  0  0  0
  9  7  2  0  0  0  0
 10 24  1  6  0  0  0
 10 15  1  0  0  0  0
 10 13  1  0  0  0  0
 11  6  1  0  0  0  0
 11  5  1  0  0  0  0
 12  3  1  0  0  0  0
 13 12  2  0  0  0  0
 13  9  1  0  0  0  0
 14  4  1  0  0  0  0
 15  1  1  1  0  0  0
 15  8  1  0  0  0  0
 16 19  1  0  0  0  0
 16 21  1  0  0  0  0
 17 23  1  0  0  0  0
 18 16  2  0  0  0  0
 20 22  1  0  0  0  0
 22 19  2  0  0  0  0
 23 20  2  0  0  0  0
 23 18  1  0  0  0  0
 25 32  1  0  0  0  0
 26 25  1  0  0  0  0
 27 31  1  0  0  0  0
 27 32  1  0  0  0  0
 28 27  2  0  0  0  0
 29 28  1  0  0  0  0
 29 26  1  0  0  0  0
 30 26  2  0  0  0  0
 32 24  1  1  0  0  0
M  END
>  <MODEL>
3

>  <REMARK>
 VINA RESULT:      -8.1      2.649      4.089
  Name = 
  3 active torsions:
  status: ('A' for Active; 'I' for Inactive)
    1  A    between atoms: C_8  and  C_19
    2  A    between atoms: C_16  and  C_27
    3  A    between atoms: C_27  and  C_32
                            x       y       z     vdW  Elec       q    Type
                         _______ _______ _______ _____ _____    ______ ____

>  <TORSDO>
F 3

$$$$
=
 OpenBabel10262421273D

 32 36  0  0  1  0  0  0  0  0999 V2000
  185.9020  177.7310  139.4810 C   0  0  0  0  0  2  0  0  0  0  0  0
  190.1540  176.5610  143.2200 C   0  0  0  0  0  3  0  0  0  0  0  0
  189.1950  176.9460  144.1760 C   0  0  0  0  0  3  0  0  0  0  0  0
  187.3510  178.2400  137.3850 C   0  0  2  0  0  3  0  0  0  0  0  0
  189.1030  178.1700  139.1150 C   0  0  0  0  0  2  0  0  0  0  0  0
  189.3660  179.5210  137.1980 C   0  0  0  0  0  1  0  0  0  0  0  0
  189.9070  176.7580  141.8520 C   0  0  0  0  0  3  0  0  0  0  0  0
  188.1470  177.5420  140.1260 C   0  0  1  0  0  3  0  0  0  0  0  0
  188.7150  177.3810  141.4800 C   0  0  0  0  0  0  0  0  0  0  0  0
  186.5730  178.2790  141.7170 C   0  0  2  0  0  3  0  0  0  0  0  0
  188.3860  178.9860  138.1310 N   0  0  0  0  0  0  0  0  0  0  0  0
  187.9880  177.5360  143.7680 C   0  0  0  0  0  3  0  0  0  0  0  0
  187.7870  177.7640  142.4060 C   0  0  0  0  0  0  0  0  0  0  0  0
  185.9560  178.2620  138.0420 C   0  0  0  0  0  2  0  0  0  0  0  0
  186.9340  178.3570  140.2940 N   0  0  2  0  0  0  0  0  0  0  0  0
  188.5540  174.5610  135.4560 C   0  0  0  0  0  0  0  0  0  0  0  0
  188.3640  178.0950  134.5940 F   0  0  0  0  0  0  0  0  0  0  0  0
  188.6290  175.7530  134.7350 C   0  0  0  0  0  3  0  0  0  0  0  0
  188.1060  174.5720  136.7760 C   0  0  0  0  0  3  0  0  0  0  0  0
  187.7910  176.9820  136.6600 C   0  0  0  0  0  0  0  0  0  0  0  0
  188.9210  173.3930  134.8750 F   0  0  0  0  0  0  0  0  0  0  0  0
  187.7280  175.7770  137.3730 C   0  0  0  0  0  3  0  0  0  0  0  0
  188.2520  176.9630  135.3270 C   0  0  0  0  0  0  0  0  0  0  0  0
  186.0760  179.6440  142.2350 C   0  0  0  0  0  2  0  0  0  0  0  0
  185.3670  179.2030  144.6770 C   0  0  0  0  0  2  0  0  0  0  0  0
  184.2060  178.8980  145.5840 C   0  0  0  0  0  0  0  0  0  0  0  0
  183.6740  178.9780  142.7800 C   0  0  0  0  0  0  0  0  0  0  0  0
  182.7000  178.6650  143.6360 C   0  0  0  0  0  3  0  0  0  0  0  0
  182.7920  179.0030  145.0930 C   0  0  0  0  0  2  0  0  0  0  0  0
  184.4180  178.5890  146.7440 O   0  0  0  0  0  0  0  0  0  0  0  0
  183.4820  178.7340  141.4260 O   0  0  0  0  0  1  0  0  0  0  0  0
  184.9330  179.6510  143.2710 C   0  0  2  0  0  3  0  0  0  0  0  0
  2  3  1  0  0  0  0
  4 20  1  1  0  0  0
  4 14  1  0  0  0  0
  4 11  1  0  0  0  0
  6 11  1  0  0  0  0
  7  2  2  0  0  0  0
  8  5  1  6  0  0  0
  8 15  1  0  0  0  0
  8  9  1  0  0  0  0
  9  7  1  0  0  0  0
  9 13  2  0  0  0  0
 10 24  1  1  0  0  0
 10 13  1  0  0  0  0
 11  5  1  0  0  0  0
 12  3  2  0  0  0  0
 13 12  1  0  0  0  0
 14  1  1  0  0  0  0
 15  1  1  6  0  0  0
 15 10  1  0  0  0  0
 16 19  1  0  0  0  0
 17 23  1  0  0  0  0
 18 23  1  0  0  0  0
 18 16  2  0  0  0  0
 19 22  2  0  0  0  0
 20 22  1  0  0  0  0
 21 16  1  0  0  0  0
 23 20  2  0  0  0  0
 25 26  1  0  0  0  0
 26 30  2  0  0  0  0
 27 32  1  0  0  0  0
 27 28  2  0  0  0  0
 28 29  1  0  0  0  0
 29 26  1  0  0  0  0
 31 27  1  0  0  0  0
 32 24  1  6  0  0  0
 32 25  1  0  0  0  0
M  END
>  <MODEL>
4

>  <REMARK>
 VINA RESULT:      -7.4      5.062      9.004
  Name = 
  3 active torsions:
  status: ('A' for Active; 'I' for Inactive)
    1  A    between atoms: C_8  and  C_19
    2  A    between atoms: C_16  and  C_27
    3  A    between atoms: C_27  and  C_32
                            x       y       z     vdW  Elec       q    Type
                         _______ _______ _______ _____ _____    ______ ____

>  <TORSDO>
F 3

$$$$
=
 OpenBabel10262421273D

 32 36  0  0  1  0  0  0  0  0999 V2000
  182.9010  177.8480  141.5780 C   0  0  0  0  0  2  0  0  0  0  0  0
  187.8990  178.1730  138.6900 C   0  0  0  0  0  3  0  0  0  0  0  0
  188.4500  178.2530  139.9830 C   0  0  0  0  0  3  0  0  0  0  0  0
  181.3180  178.7480  139.7240 C   0  0  2  0  0  3  0  0  0  0  0  0
  183.5030  179.2760  138.7190 C   0  0  0  0  0  2  0  0  0  0  0  0
  181.6100  180.5990  138.2340 C   0  0  0  0  0  1  0  0  0  0  0  0
  186.5100  178.2530  138.5080 C   0  0  0  0  0  3  0  0  0  0  0  0
  184.2350  178.3980  139.7320 C   0  0  1  0  0  3  0  0  0  0  0  0
  185.7070  178.4550  139.6320 C   0  0  0  0  0  0  0  0  0  0  0  0
  185.1470  178.6280  141.8910 C   0  0  2  0  0  3  0  0  0  0  0  0
  182.2490  179.8000  139.2680 N   0  0  0  0  0  0  0  0  0  0  0  0
  187.6140  178.4190  141.0990 C   0  0  0  0  0  3  0  0  0  0  0  0
  186.2400  178.5420  140.8860 C   0  0  0  0  0  0  0  0  0  0  0  0
  181.4960  178.3380  141.2000 C   0  0  0  0  0  2  0  0  0  0  0  0
  183.9100  178.7880  141.1120 N   0  0  2  0  0  0  0  0  0  0  0  0
  180.3480  175.6070  136.9130 C   0  0  0  0  0  0  0  0  0  0  0  0
  178.9620  178.8240  137.9120 F   0  0  0  0  0  0  0  0  0  0  0  0
  179.5090  176.7200  136.9930 C   0  0  0  0  0  3  0  0  0  0  0  0
  181.4790  175.5270  137.7240 C   0  0  0  0  0  3  0  0  0  0  0  0
  180.9320  177.6810  138.7180 C   0  0  0  0  0  0  0  0  0  0  0  0
  180.0650  174.6070  136.0440 F   0  0  0  0  0  0  0  0  0  0  0  0
  181.7680  176.5600  138.6210 C   0  0  0  0  0  3  0  0  0  0  0  0
  179.7930  177.7560  137.8870 C   0  0  0  0  0  0  0  0  0  0  0  0
  185.3060  179.7740  142.9110 C   0  0  0  0  0  2  0  0  0  0  0  0
  186.8230  178.4450  144.5210 C   0  0  0  0  0  2  0  0  0  0  0  0
  186.9230  177.8320  145.8910 C   0  0  0  0  0  0  0  0  0  0  0  0
  184.4130  178.9850  145.1680 C   0  0  0  0  0  0  0  0  0  0  0  0
  184.5550  178.3830  146.3490 C   0  0  0  0  0  3  0  0  0  0  0  0
  185.9060  178.1370  146.9510 C   0  0  0  0  0  2  0  0  0  0  0  0
  187.8630  177.1010  146.1520 O   0  0  0  0  0  0  0  0  0  0  0  0
  183.1340  179.2800  144.7130 O   0  0  0  0  0  1  0  0  0  0  0  0
  185.6280  179.4020  144.3730 C   0  0  2  0  0  3  0  0  0  0  0  0
  2  3  1  0  0  0  0
  3 12  2  0  0  0  0
  4 20  1  6  0  0  0
  4 14  1  0  0  0  0
  5 11  1  0  0  0  0
  6 11  1  0  0  0  0
  7  2  2  0  0  0  0
  7  9  1  0  0  0  0
  8  5  1  6  0  0  0
  8 15  1  0  0  0  0
  9  8  1  0  0  0  0
  9 13  2  0  0  0  0
 10 24  1  1  0  0  0
 11  4  1  0  0  0  0
 13 12  1  0  0  0  0
 13 10  1  0  0  0  0
 14  1  1  0  0  0  0
 15  1  1  1  0  0  0
 15 10  1  0  0  0  0
 16 18  2  0  0  0  0
 16 19  1  0  0  0  0
 18 23  1  0  0  0  0
 19 22  2  0  0  0  0
 21 16  1  0  0  0  0
 22 20  1  0  0  0  0
 23 17  1  0  0  0  0
 23 20  2  0  0  0  0
 25 26  1  0  0  0  0
 26 30  2  0  0  0  0
 26 29  1  0  0  0  0
 27 28  2  0  0  0  0
 28 29  1  0  0  0  0
 31 27  1  0  0  0  0
 32 24  1  6  0  0  0
 32 25  1  0  0  0  0
 32 27  1  0  0  0  0
M  END
>  <MODEL>
5

>  <REMARK>
 VINA RESULT:      -7.1      5.928      9.964
  Name = 
  3 active torsions:
  status: ('A' for Active; 'I' for Inactive)
    1  A    between atoms: C_8  and  C_19
    2  A    between atoms: C_16  and  C_27
    3  A    between atoms: C_27  and  C_32
                            x       y       z     vdW  Elec       q    Type
                         _______ _______ _______ _____ _____    ______ ____

>  <TORSDO>
F 3

$$$$
=
 OpenBabel10262421273D

 32 36  0  0  1  0  0  0  0  0999 V2000
  190.5610  175.7230  142.1160 C   0  0  0  0  0  2  0  0  0  0  0  0
  187.6450  178.7360  138.1350 C   0  0  0  0  0  3  0  0  0  0  0  0
  188.3520  177.9150  137.2360 C   0  0  0  0  0  3  0  0  0  0  0  0
  190.5110  177.4680  144.0420 C   0  0  2  0  0  3  0  0  0  0  0  0
  189.6800  178.8530  142.1830 C   0  0  0  0  0  2  0  0  0  0  0  0
  190.8740  179.8330  143.9670 C   0  0  0  0  0  1  0  0  0  0  0  0
  187.9710  178.7340  139.5000 C   0  0  0  0  0  3  0  0  0  0  0  0
  189.4580  177.6250  141.3030 C   0  0  1  0  0  3  0  0  0  0  0  0
  189.0350  177.9360  139.9230 C   0  0  0  0  0  0  0  0  0  0  0  0
  190.7130  176.3180  139.7980 C   0  0  2  0  0  3  0  0  0  0  0  0
  190.7490  178.6300  143.1600 N   0  0  0  0  0  0  0  0  0  0  0  0
  189.3930  177.0940  137.6970 C   0  0  0  0  0  3  0  0  0  0  0  0
  189.7280  177.1450  139.0510 C   0  0  0  0  0  0  0  0  0  0  0  0
  191.0730  176.1370  143.5030 C   0  0  0  0  0  2  0  0  0  0  0  0
  190.6880  176.8280  141.1770 N   0  0  2  0  0  0  0  0  0  0  0  0
  186.7130  177.3730  146.1080 C   0  0  0  0  0  0  0  0  0  0  0  0
  190.2380  177.5820  147.0000 F   0  0  0  0  0  0  0  0  0  0  0  0
  187.8850  177.4490  146.8600 C   0  0  0  0  0  3  0  0  0  0  0  0
  186.7800  177.3370  144.7150 C   0  0  0  0  0  3  0  0  0  0  0  0
  189.2090  177.4430  144.8180 C   0  0  0  0  0  0  0  0  0  0  0  0
  185.5090  177.3380  146.7290 F   0  0  0  0  0  0  0  0  0  0  0  0
  188.0220  177.3730  144.0760 C   0  0  0  0  0  3  0  0  0  0  0  0
  189.1310  177.4850  146.2270 C   0  0  0  0  0  0  0  0  0  0  0  0
  192.1440  176.3550  139.2240 C   0  0  0  0  0  2  0  0  0  0  0  0
  191.3290  174.5550  137.5630 C   0  0  0  0  0  2  0  0  0  0  0  0
  191.7550  173.5850  136.4950 C   0  0  0  0  0  0  0  0  0  0  0  0
  193.8230  175.0250  137.8360 C   0  0  0  0  0  0  0  0  0  0  0  0
  194.1350  174.1150  136.9120 C   0  0  0  0  0  3  0  0  0  0  0  0
  193.1330  173.6410  135.9030 C   0  0  0  0  0  2  0  0  0  0  0  0
  190.9570  172.7610  136.0820 O   0  0  0  0  0  0  0  0  0  0  0  0
  194.8240  175.5020  138.6740 O   0  0  0  0  0  1  0  0  0  0  0  0
  192.4200  175.5780  137.9200 C   0  0  2  0  0  3  0  0  0  0  0  0
  1 14  1  0  0  0  0
  2  7  1  0  0  0  0
  3 12  1  0  0  0  0
  3  2  2  0  0  0  0
  4 20  1  6  0  0  0
  5 11  1  0  0  0  0
  7  9  2  0  0  0  0
  8  5  1  1  0  0  0
  9  8  1  0  0  0  0
 10 24  1  6  0  0  0
 10 15  1  0  0  0  0
 11  6  1  0  0  0  0
 11  4  1  0  0  0  0
 12 13  2  0  0  0  0
 13 10  1  0  0  0  0
 13  9  1  0  0  0  0
 14  4  1  0  0  0  0
 15  8  1  0  0  0  0
 15  1  1  1  0  0  0
 16 21  1  0  0  0  0
 16 18  1  0  0  0  0
 19 16  2  0  0  0  0
 20 23  1  0  0  0  0
 22 19  1  0  0  0  0
 22 20  2  0  0  0  0
 23 18  2  0  0  0  0
 23 17  1  0  0  0  0
 25 32  1  0  0  0  0
 26 25  1  0  0  0  0
 27 32  1  0  0  0  0
 27 31  1  0  0  0  0
 28 27  2  0  0  0  0
 29 26  1  0  0  0  0
 29 28  1  0  0  0  0
 30 26  2  0  0  0  0
 32 24  1  1  0  0  0
M  END
>  <MODEL>
6

>  <REMARK>
 VINA RESULT:      -7.1      1.386      2.262
  Name = 
  3 active torsions:
  status: ('A' for Active; 'I' for Inactive)
    1  A    between atoms: C_8  and  C_19
    2  A    between atoms: C_16  and  C_27
    3  A    between atoms: C_27  and  C_32
                            x       y       z     vdW  Elec       q    Type
                         _______ _______ _______ _____ _____    ______ ____

>  <TORSDO>
F 3

$$$$
=
 OpenBabel10262421273D

 32 36  0  0  1  0  0  0  0  0999 V2000
  183.2920  177.6020  140.8430 C   0  0  0  0  0  2  0  0  0  0  0  0
  187.8010  178.3640  137.3040 C   0  0  0  0  0  3  0  0  0  0  0  0
  188.5470  178.0780  138.4630 C   0  0  0  0  0  3  0  0  0  0  0  0
  181.5430  179.0360  139.5630 C   0  0  2  0  0  3  0  0  0  0  0  0
  183.5920  179.6760  138.3550 C   0  0  0  0  0  2  0  0  0  0  0  0
  181.7880  181.1870  138.5390 C   0  0  0  0  0  1  0  0  0  0  0  0
  186.4140  178.5670  137.3880 C   0  0  0  0  0  3  0  0  0  0  0  0
  184.3780  178.5270  138.9830 C   0  0  1  0  0  3  0  0  0  0  0  0
  185.8160  178.5220  138.6480 C   0  0  0  0  0  0  0  0  0  0  0  0
  185.6260  178.1450  140.9440 C   0  0  2  0  0  3  0  0  0  0  0  0
  182.4940  180.1140  139.2220 N   0  0  0  0  0  0  0  0  0  0  0  0
  187.9110  178.0020  139.7120 C   0  0  0  0  0  3  0  0  0  0  0  0
  186.5390  178.2550  139.7760 C   0  0  0  0  0  0  0  0  0  0  0  0
  181.9020  178.2540  140.8420 C   0  0  0  0  0  2  0  0  0  0  0  0
  184.3070  178.5690  140.4510 N   0  0  2  0  0  0  0  0  0  0  0  0
  179.8510  176.7810  136.2840 C   0  0  0  0  0  0  0  0  0  0  0  0
  178.9430  179.6910  138.2770 F   0  0  0  0  0  0  0  0  0  0  0  0
  179.1410  177.8730  136.7850 C   0  0  0  0  0  3  0  0  0  0  0  0
  181.0850  176.4400  136.8340 C   0  0  0  0  0  3  0  0  0  0  0  0
  180.9040  178.2860  138.4100 C   0  0  0  0  0  0  0  0  0  0  0  0
  179.3420  176.0550  135.2590 F   0  0  0  0  0  0  0  0  0  0  0  0
  181.6080  177.1900  137.8910 C   0  0  0  0  0  3  0  0  0  0  0  0
  179.6580  178.6280  137.8420 C   0  0  0  0  0  0  0  0  0  0  0  0
  186.0510  178.9810  142.1680 C   0  0  0  0  0  2  0  0  0  0  0  0
  185.2680  179.0230  144.6270 C   0  0  0  0  0  2  0  0  0  0  0  0
  185.5600  178.5340  146.0190 C   0  0  0  0  0  0  0  0  0  0  0  0
  187.4610  177.8830  143.9900 C   0  0  0  0  0  0  0  0  0  0  0  0
  187.6840  177.5220  145.2550 C   0  0  0  0  0  3  0  0  0  0  0  0
  186.5770  177.4580  146.2630 C   0  0  0  0  0  2  0  0  0  0  0  0
  184.9400  178.9990  146.9600 O   0  0  0  0  0  0  0  0  0  0  0  0
  188.5070  177.8200  143.0790 O   0  0  0  0  0  1  0  0  0  0  0  0
  186.0750  178.2860  143.5460 C   0  0  2  0  0  3  0  0  0  0  0  0
  2  7  2  0  0  0  0
  2  3  1  0  0  0  0
  3 12  2  0  0  0  0
  4 20  1  6  0  0  0
  4 14  1  0  0  0  0
  5 11  1  0  0  0  0
  6 11  1  0  0  0  0
  7  9  1  0  0  0  0
  8  5  1  6  0  0  0
  8 15  1  0  0  0  0
  9  8  1  0  0  0  0
  9 13  2  0  0  0  0
 10 24  1  1  0  0  0
 11  4  1  0  0  0  0
 12 13  1  0  0  0  0
 13 10  1  0  0  0  0
 14  1  1  0  0  0  0
 15  1  1  1  0  0  0
 15 10  1  0  0  0  0
 16 18  2  0  0  0  0
 16 19  1  0  0  0  0
 18 23  1  0  0  0  0
 19 22  2  0  0  0  0
 21 16  1  0  0  0  0
 22 20  1  0  0  0  0
 23 17  1  0  0  0  0
 23 20  2  0  0  0  0
 25 26  1  0  0  0  0
 26 29  1  0  0  0  0
 26 30  2  0  0  0  0
 27 28  2  0  0  0  0
 28 29  1  0  0  0  0
 31 27  1  0  0  0  0
 32 24  1  6  0  0  0
 32 27  1  0  0  0  0
 32 25  1  0  0  0  0
M  END
>  <MODEL>
7

>  <REMARK>
 VINA RESULT:      -7.0      5.864      9.894
  Name = 
  3 active torsions:
  status: ('A' for Active; 'I' for Inactive)
    1  A    between atoms: C_8  and  C_19
    2  A    between atoms: C_16  and  C_27
    3  A    between atoms: C_27  and  C_32
                            x       y       z     vdW  Elec       q    Type
                         _______ _______ _______ _____ _____    ______ ____

>  <TORSDO>
F 3

$$$$
=
 OpenBabel10262421273D

 32 36  0  0  1  0  0  0  0  0999 V2000
  184.5220  178.3560  138.8710 C   0  0  0  0  0  2  0  0  0  0  0  0
  182.4350  173.2280  137.2060 C   0  0  0  0  0  3  0  0  0  0  0  0
  183.7730  172.9880  136.8430 C   0  0  0  0  0  3  0  0  0  0  0  0
  182.3350  179.7470  138.6910 C   0  0  2  0  0  3  0  0  0  0  0  0
  181.6190  177.6710  137.5760 C   0  0  0  0  0  2  0  0  0  0  0  0
  180.6610  179.7440  136.9780 C   0  0  0  0  0  1  0  0  0  0  0  0
  182.0280  174.5150  137.5930 C   0  0  0  0  0  3  0  0  0  0  0  0
  182.8480  176.9190  138.0820 C   0  0  1  0  0  3  0  0  0  0  0  0
  182.9720  175.5420  137.5640 C   0  0  0  0  0  0  0  0  0  0  0  0
  185.0680  176.5540  137.3870 C   0  0  2  0  0  3  0  0  0  0  0  0
  181.8850  179.1060  137.4380 N   0  0  0  0  0  0  0  0  0  0  0  0
  184.7100  174.0340  136.8590 C   0  0  0  0  0  3  0  0  0  0  0  0
  184.2690  175.3130  137.2030 C   0  0  0  0  0  0  0  0  0  0  0  0
  183.8630  179.7430  138.8930 C   0  0  0  0  0  2  0  0  0  0  0  0
  184.0900  177.6060  137.7010 N   0  0  2  0  0  0  0  0  0  0  0  0
  179.8840  179.1680  142.2070 C   0  0  0  0  0  0  0  0  0  0  0  0
  180.1610  181.6020  139.5120 F   0  0  0  0  0  0  0  0  0  0  0  0
  179.6610  180.2910  141.4100 C   0  0  0  0  0  3  0  0  0  0  0  0
  180.8770  178.2530  141.8580 C   0  0  0  0  0  3  0  0  0  0  0  0
  181.4430  179.5930  139.9070 C   0  0  0  0  0  0  0  0  0  0  0  0
  179.1330  178.9640  143.3160 F   0  0  0  0  0  0  0  0  0  0  0  0
  181.6500  178.4660  140.7140 C   0  0  0  0  0  3  0  0  0  0  0  0
  180.4300  180.5100  140.2640 C   0  0  0  0  0  0  0  0  0  0  0  0
  185.9270  176.9470  136.1670 C   0  0  0  0  0  2  0  0  0  0  0  0
  188.0120  175.6840  137.0140 C   0  0  0  0  0  2  0  0  0  0  0  0
  189.4390  175.8310  137.4670 C   0  0  0  0  0  0  0  0  0  0  0  0
  188.0010  178.2340  136.9100 C   0  0  0  0  0  0  0  0  0  0  0  0
  189.2550  178.2960  137.3610 C   0  0  0  0  0  3  0  0  0  0  0  0
  190.1820  177.1210  137.2760 C   0  0  0  0  0  2  0  0  0  0  0  0
  190.0100  174.8780  137.9690 O   0  0  0  0  0  0  0  0  0  0  0  0
  187.2260  179.3870  136.9190 O   0  0  0  0  0  1  0  0  0  0  0  0
  187.4610  176.9470  136.3330 C   0  0  2  0  0  3  0  0  0  0  0  0
  1 14  1  0  0  0  0
  2  7  1  0  0  0  0
  3 12  1  0  0  0  0
  3  2  2  0  0  0  0
  4 14  1  0  0  0  0
  4 20  1  1  0  0  0
  6 11  1  0  0  0  0
  8  5  1  6  0  0  0
  9  7  2  0  0  0  0
  9  8  1  0  0  0  0
 10 24  1  6  0  0  0
 10 15  1  0  0  0  0
 11  5  1  0  0  0  0
 11  4  1  0  0  0  0
 12 13  2  0  0  0  0
 13 10  1  0  0  0  0
 13  9  1  0  0  0  0
 15  8  1  0  0  0  0
 15  1  1  1  0  0  0
 16 21  1  0  0  0  0
 17 23  1  0  0  0  0
 18 16  2  0  0  0  0
 19 16  1  0  0  0  0
 20 23  2  0  0  0  0
 20 22  1  0  0  0  0
 22 19  2  0  0  0  0
 23 18  1  0  0  0  0
 25 26  1  0  0  0  0
 26 30  2  0  0  0  0
 27 31  1  0  0  0  0
 27 28  2  0  0  0  0
 29 28  1  0  0  0  0
 29 26  1  0  0  0  0
 32 24  1  1  0  0  0
 32 27  1  0  0  0  0
 32 25  1  0  0  0  0
M  END
>  <MODEL>
8

>  <REMARK>
 VINA RESULT:      -6.8      6.308      8.388
  Name = 
  3 active torsions:
  status: ('A' for Active; 'I' for Inactive)
    1  A    between atoms: C_8  and  C_19
    2  A    between atoms: C_16  and  C_27
    3  A    between atoms: C_27  and  C_32
                            x       y       z     vdW  Elec       q    Type
                         _______ _______ _______ _____ _____    ______ ____

>  <TORSDO>
F 3

$$$$
=
 OpenBabel10262421273D

 32 36  0  0  1  0  0  0  0  0999 V2000
  188.4870  176.7240  142.4230 C   0  0  0  0  0  2  0  0  0  0  0  0
  184.6190  178.9640  146.0900 C   0  0  0  0  0  3  0  0  0  0  0  0
  183.7620  178.8810  144.9770 C   0  0  0  0  0  3  0  0  0  0  0  0
  190.6550  177.5940  143.5610 C   0  0  2  0  0  3  0  0  0  0  0  0
  188.9660  178.8780  144.8130 C   0  0  0  0  0  2  0  0  0  0  0  0
  191.1340  179.7520  144.4840 C   0  0  0  0  0  1  0  0  0  0  0  0
  185.9940  178.7280  145.9420 C   0  0  0  0  0  3  0  0  0  0  0  0
  187.8350  178.0050  144.2740 C   0  0  1  0  0  3  0  0  0  0  0  0
  186.4840  178.4550  144.6640 C   0  0  0  0  0  0  0  0  0  0  0  0
  186.4290  177.9550  142.3840 C   0  0  2  0  0  3  0  0  0  0  0  0
  190.0990  178.9250  143.8830 N   0  0  0  0  0  0  0  0  0  0  0  0
  184.2780  178.5670  143.7090 C   0  0  0  0  0  3  0  0  0  0  0  0
  185.6550  178.3830  143.5800 C   0  0  0  0  0  0  0  0  0  0  0  0
  190.0080  176.9150  142.3370 C   0  0  0  0  0  2  0  0  0  0  0  0
  187.8390  177.9700  142.8040 N   0  0  2  0  0  0  0  0  0  0  0  0
  191.8070  175.2160  146.9840 C   0  0  0  0  0  0  0  0  0  0  0  0
  192.3290  175.1430  143.3800 F   0  0  0  0  0  0  0  0  0  0  0  0
  192.2280  174.8150  145.7160 C   0  0  0  0  0  3  0  0  0  0  0  0
  191.0370  176.3700  147.1310 C   0  0  0  0  0  3  0  0  0  0  0  0
  191.0930  176.7260  144.7250 C   0  0  0  0  0  0  0  0  0  0  0  0
  192.1500  174.4880  148.0740 F   0  0  0  0  0  0  0  0  0  0  0  0
  190.6840  177.1190  146.0060 C   0  0  0  0  0  3  0  0  0  0  0  0
  191.8780  175.5610  144.5860 C   0  0  0  0  0  0  0  0  0  0  0  0
  186.2170  178.8370  141.1370 C   0  0  0  0  0  2  0  0  0  0  0  0
  184.0320  177.4980  140.8300 C   0  0  0  0  0  2  0  0  0  0  0  0
  183.0420  176.9740  139.8260 C   0  0  0  0  0  0  0  0  0  0  0  0
  185.3630  178.2820  138.7980 C   0  0  0  0  0  0  0  0  0  0  0  0
  184.4700  177.7530  137.9610 C   0  0  0  0  0  3  0  0  0  0  0  0
  183.0710  177.4350  138.3980 C   0  0  0  0  0  2  0  0  0  0  0  0
  182.1850  176.1860  140.1850 O   0  0  0  0  0  0  0  0  0  0  0  0
  186.6080  178.6520  138.3050 O   0  0  0  0  0  1  0  0  0  0  0  0
  184.9980  178.5400  140.2400 C   0  0  2  0  0  3  0  0  0  0  0  0
  3  2  2  0  0  0  0
  4 11  1  0  0  0  0
  4 20  1  1  0  0  0
  7  2  1  0  0  0  0
  8  9  1  0  0  0  0
  8  5  1  6  0  0  0
  9  7  2  0  0  0  0
 10 24  1  6  0  0  0
 10 15  1  0  0  0  0
 10 13  1  0  0  0  0
 11  6  1  0  0  0  0
 11  5  1  0  0  0  0
 12  3  1  0  0  0  0
 13 12  2  0  0  0  0
 13  9  1  0  0  0  0
 14  1  1  0  0  0  0
 14  4  1  0  0  0  0
 15  1  1  1  0  0  0
 15  8  1  0  0  0  0
 16 19  1  0  0  0  0
 16 21  1  0  0  0  0
 17 23  1  0  0  0  0
 18 16  2  0  0  0  0
 20 22  1  0  0  0  0
 22 19  2  0  0  0  0
 23 20  2  0  0  0  0
 23 18  1  0  0  0  0
 26 30  2  0  0  0  0
 26 25  1  0  0  0  0
 27 32  1  0  0  0  0
 28 29  1  0  0  0  0
 28 27  2  0  0  0  0
 29 26  1  0  0  0  0
 31 27  1  0  0  0  0
 32 25  1  0  0  0  0
 32 24  1  1  0  0  0
M  END
>  <MODEL>
9

>  <REMARK>
 VINA RESULT:      -6.7      3.537      5.643
  Name = 
  3 active torsions:
  status: ('A' for Active; 'I' for Inactive)
    1  A    between atoms: C_8  and  C_19
    2  A    between atoms: C_16  and  C_27
    3  A    between atoms: C_27  and  C_32
                            x       y       z     vdW  Elec       q    Type
                         _______ _______ _______ _____ _____    ______ ____

>  <TORSDO>
F 3

$$$$
