=
 OpenBabel10262421043D

 32 35  0  0  1  0  0  0  0  0999 V2000
  182.6770  178.7620  143.4990 O   0  0  0  0  0  0  0  0  0  0  0  0
  182.5140  178.8250  140.7570 O   0  0  0  0  0  0  0  0  0  0  0  0
  187.1700  177.4180  144.1430 C   0  0  1  0  0  3  0  0  0  0  0  0
  183.2020  179.0250  144.7880 C   0  0  0  0  0  2  0  0  0  0  0  0
  188.0970  178.4220  143.8470 O   0  0  0  0  0  1  0  0  0  0  0  0
  183.6520  178.6760  141.2750 C   0  0  0  0  0  0  0  0  0  0  0  0
  186.6750  177.5210  145.6180 C   0  0  2  0  0  3  0  0  0  0  0  0
  184.5460  178.3560  144.8010 C   0  0  2  0  0  3  0  0  0  0  0  0
  185.6000  178.5970  145.8600 C   0  0  0  0  0  2  0  0  0  0  0  0
  186.0110  177.4460  143.1120 C   0  0  0  0  0  2  0  0  0  0  0  0
  185.6910  179.9620  143.2420 C   0  0  0  0  0  1  0  0  0  0  0  0
  183.7730  178.5600  142.7020 N   0  0  0  0  0  0  0  0  0  0  0  0
  185.0360  178.5870  143.4210 C   0  0  2  0  0  0  0  0  0  0  0  0
  188.7700  178.1970  148.7790 C   0  0  0  0  0  1  0  0  0  0  0  0
  187.7860  177.5830  146.6260 C   0  0  0  0  0  3  0  0  0  0  0  0
  187.6350  178.1640  147.8160 C   0  0  0  0  0  3  0  0  0  0  0  0
  184.8490  178.5960  140.3800 C   0  0  0  0  0  2  0  0  0  0  0  0
  184.4680  178.8800  138.9340 C   0  0  0  0  0  2  0  0  0  0  0  0
  185.4170  178.1860  137.9710 C   0  0  0  0  0  2  0  0  0  0  0  0
  186.6180  178.8960  137.8900 O   0  0  0  0  0  0  0  0  0  0  0  0
  186.8580  176.6710  137.0850 C   0  0  0  0  0  1  0  0  0  0  0  0
  187.5000  178.0360  137.2320 C   0  0  2  0  0  3  0  0  0  0  0  0
  188.7850  177.8970  138.0310 C   0  0  0  0  0  2  0  0  0  0  0  0
  190.9300  177.4580  139.8740 C   0  0  2  0  0  3  0  0  0  0  0  0
  188.6240  178.5150  139.4170 C   0  0  2  0  0  3  0  0  0  0  0  0
  189.7190  178.2380  140.4870 C   0  0  1  0  0  0  0  0  0  0  0  0
  190.6780  176.0710  139.2620 C   0  0  0  0  0  1  0  0  0  0  0  0
  188.3830  177.4630  140.4420 C   0  0  0  0  0  2  0  0  0  0  0  0
  190.7320  177.4660  141.3740 C   0  0  1  0  0  3  0  0  0  0  0  0
  190.2490  176.1590  142.0230 C   0  0  0  0  0  2  0  0  0  0  0  0
  190.7140  176.1040  143.4630 C   0  0  0  0  0  2  0  0  0  0  0  0
  191.5570  177.3240  143.7680 C   0  0  0  0  0  1  0  0  0  0  0  0
  1  4  1  0  0  0  0
  2  6  2  0  0  0  0
  3  5  1  6  0  0  0
  3  7  1  0  0  0  0
  6 12  1  0  0  0  0
  7  9  1  0  0  0  0
  7 15  1  1  0  0  0
  8  4  1  1  0  0  0
  8  9  1  0  0  0  0
 10 13  1  0  0  0  0
 10  3  1  0  0  0  0
 12 13  1  0  0  0  0
 12  1  1  0  0  0  0
 13 11  1  6  0  0  0
 13  8  1  0  0  0  0
 15 16  2  0  0  0  0
 16 14  1  0  0  0  0
 17  6  1  0  0  0  0
 18 17  1  0  0  0  0
 19 18  1  0  0  0  0
 20 19  1  0  0  0  0
 22 21  1  1  0  0  0
 22 20  1  0  0  0  0
 22 23  1  0  0  0  0
 24 27  1  6  0  0  0
 24 26  1  0  0  0  0
 24 29  1  0  0  0  0
 25 23  1  6  0  0  0
 25 28  1  0  0  0  0
 25 26  1  0  0  0  0
 26 28  1  6  0  0  0
 26 29  1  0  0  0  0
 29 30  1  6  0  0  0
 30 31  1  0  0  0  0
 31 32  1  0  0  0  0
M  END
>  <MODEL>
1

>  <REMARK>
 VINA RESULT:      -7.1      0.000      0.000
  Name = 
  10 active torsions:
  status: ('A' for Active; 'I' for Inactive)
    1  A    between atoms: C_6  and  C_17
    2  A    between atoms: C_9  and  O_31
    3  A    between atoms: C_9  and  C_32
    4  A    between atoms: C_10  and  C_28
    5  A    between atoms: C_12  and  C_17
    6  A    between atoms: C_12  and  O_31
    7  A    between atoms: C_14  and  C_21
    8  A    between atoms: C_14  and  C_29
    9  A    between atoms: C_15  and  C_19
   10  A    between atoms: C_28  and  C_32
                            x       y       z     vdW  Elec       q    Type
                         _______ _______ _______ _____ _____    ______ ____

>  <TORSDO>
F 10

$$$$
=
 OpenBabel10262421043D

 32 35  0  0  1  0  0  0  0  0999 V2000
  190.5940  176.7580  145.9050 O   0  0  0  0  0  0  0  0  0  0  0  0
  188.2330  177.3350  147.1860 O   0  0  0  0  0  0  0  0  0  0  0  0
  189.2960  177.0530  141.3620 C   0  0  1  0  0  3  0  0  0  0  0  0
  191.6600  176.9160  144.9860 C   0  0  0  0  0  2  0  0  0  0  0  0
  189.0770  178.3650  140.9320 O   0  0  0  0  0  1  0  0  0  0  0  0
  188.2830  177.5090  145.9390 C   0  0  0  0  0  0  0  0  0  0  0  0
  190.7960  176.6530  141.2190 C   0  0  2  0  0  3  0  0  0  0  0  0
  191.0230  176.8010  143.6320 C   0  0  2  0  0  3  0  0  0  0  0  0
  191.7110  177.1830  142.3390 C   0  0  0  0  0  2  0  0  0  0  0  0
  188.7560  176.8710  142.8050 C   0  0  0  0  0  2  0  0  0  0  0  0
  189.8150  179.0060  143.6840 C   0  0  0  0  0  1  0  0  0  0  0  0
  189.4730  177.1460  145.2200 N   0  0  0  0  0  0  0  0  0  0  0  0
  189.7210  177.4810  143.8280 C   0  0  2  0  0  0  0  0  0  0  0  0
  191.5120  176.5490  137.4360 C   0  0  0  0  0  1  0  0  0  0  0  0
  191.3600  176.9040  139.8500 C   0  0  0  0  0  3  0  0  0  0  0  0
  190.9160  176.2620  138.7690 C   0  0  0  0  0  3  0  0  0  0  0  0
  187.0840  178.0640  145.2380 C   0  0  0  0  0  2  0  0  0  0  0  0
  185.8400  177.9450  146.1070 C   0  0  0  0  0  2  0  0  0  0  0  0
  184.8320  179.0320  145.7730 C   0  0  0  0  0  2  0  0  0  0  0  0
  183.6970  178.4650  145.1860 O   0  0  0  0  0  0  0  0  0  0  0  0
  182.0740  179.3590  143.6950 C   0  0  0  0  0  1  0  0  0  0  0  0
  183.5470  179.1380  143.9710 C   0  0  2  0  0  3  0  0  0  0  0  0
  184.1450  178.3140  142.8430 C   0  0  0  0  0  2  0  0  0  0  0  0
  183.3890  178.7690  140.1200 C   0  0  2  0  0  3  0  0  0  0  0  0
  185.1000  179.1620  142.0070 C   0  0  2  0  0  3  0  0  0  0  0  0
  184.7830  179.3710  140.4980 C   0  0  1  0  0  0  0  0  0  0  0  0
  183.1600  177.2630  140.3220 C   0  0  0  0  0  1  0  0  0  0  0  0
  185.8070  178.3270  140.9980 C   0  0  0  0  0  2  0  0  0  0  0  0
  184.3970  179.0530  139.0290 C   0  0  1  0  0  3  0  0  0  0  0  0
  185.0740  177.8400  138.3690 C   0  0  0  0  0  2  0  0  0  0  0  0
  186.1590  178.3150  137.4250 C   0  0  0  0  0  2  0  0  0  0  0  0
  187.4710  177.6540  137.7890 C   0  0  0  0  0  1  0  0  0  0  0  0
  3  5  1  1  0  0  0
  3 10  1  0  0  0  0
  4  1  1  0  0  0  0
  6  2  2  0  0  0  0
  7 15  1  6  0  0  0
  7  3  1  0  0  0  0
  7  9  1  0  0  0  0
  8  9  1  6  0  0  0
  8 13  1  0  0  0  0
  8  4  1  0  0  0  0
 10 13  1  0  0  0  0
 12  1  1  0  0  0  0
 12  6  1  0  0  0  0
 13 11  1  6  0  0  0
 13 12  1  0  0  0  0
 14 16  1  0  0  0  0
 16 15  2  0  0  0  0
 17  6  1  0  0  0  0
 17 18  1  0  0  0  0
 19 18  1  0  0  0  0
 20 19  1  0  0  0  0
 22 21  1  6  0  0  0
 22 20  1  0  0  0  0
 23 22  1  0  0  0  0
 24 27  1  1  0  0  0
 24 26  1  0  0  0  0
 25 23  1  1  0  0  0
 26 28  1  6  0  0  0
 26 25  1  0  0  0  0
 28 25  1  0  0  0  0
 29 30  1  1  0  0  0
 29 24  1  0  0  0  0
 29 26  1  0  0  0  0
 31 32  1  0  0  0  0
 31 30  1  0  0  0  0
M  END
>  <MODEL>
2

>  <REMARK>
 VINA RESULT:      -7.1      2.072      7.015
  Name = 
  10 active torsions:
  status: ('A' for Active; 'I' for Inactive)
    1  A    between atoms: C_6  and  C_17
    2  A    between atoms: C_9  and  O_31
    3  A    between atoms: C_9  and  C_32
    4  A    between atoms: C_10  and  C_28
    5  A    between atoms: C_12  and  C_17
    6  A    between atoms: C_12  and  O_31
    7  A    between atoms: C_14  and  C_21
    8  A    between atoms: C_14  and  C_29
    9  A    between atoms: C_15  and  C_19
   10  A    between atoms: C_28  and  C_32
                            x       y       z     vdW  Elec       q    Type
                         _______ _______ _______ _____ _____    ______ ____

>  <TORSDO>
F 10

$$$$
=
 OpenBabel10262421043D

 32 35  0  0  1  0  0  0  0  0999 V2000
  182.5910  177.1010  138.8960 O   0  0  0  0  0  0  0  0  0  0  0  0
  184.1390  177.1090  136.6260 O   0  0  0  0  0  0  0  0  0  0  0  0
  185.7200  178.4730  142.1730 C   0  0  1  0  0  3  0  0  0  0  0  0
  182.0240  177.5900  140.0990 C   0  0  0  0  0  2  0  0  0  0  0  0
  186.0550  179.8270  142.0870 O   0  0  0  0  0  1  0  0  0  0  0  0
  184.6280  177.6100  137.6730 C   0  0  0  0  0  0  0  0  0  0  0  0
  184.4480  178.2580  143.0470 C   0  0  2  0  0  3  0  0  0  0  0  0
  183.1900  177.7810  141.0250 C   0  0  2  0  0  3  0  0  0  0  0  0
  183.1180  178.5500  142.3270 C   0  0  0  0  0  2  0  0  0  0  0  0
  185.5860  177.8680  140.7500 C   0  0  0  0  0  2  0  0  0  0  0  0
  184.1720  179.7790  139.8560 C   0  0  0  0  0  1  0  0  0  0  0  0
  183.8830  177.5570  138.9010 N   0  0  0  0  0  0  0  0  0  0  0  0
  184.2510  178.2690  140.1130 C   0  0  2  0  0  0  0  0  0  0  0  0
  185.5320  179.3200  146.5870 C   0  0  0  0  0  1  0  0  0  0  0  0
  184.5240  178.9100  144.3980 C   0  0  0  0  0  3  0  0  0  0  0  0
  185.5040  178.6440  145.2610 C   0  0  0  0  0  3  0  0  0  0  0  0
  185.9910  178.2250  137.6120 C   0  0  0  0  0  2  0  0  0  0  0  0
  187.0710  177.1530  137.5830 C   0  0  0  0  0  2  0  0  0  0  0  0
  188.3790  177.6770  138.1520 C   0  0  0  0  0  2  0  0  0  0  0  0
  188.5000  177.3030  139.4930 O   0  0  0  0  0  0  0  0  0  0  0  0
  190.6920  176.3830  139.4120 C   0  0  0  0  0  1  0  0  0  0  0  0
  189.8330  177.5640  139.8200 C   0  0  2  0  0  3  0  0  0  0  0  0
  189.9690  177.7820  141.3180 C   0  0  0  0  0  2  0  0  0  0  0  0
  189.2440  178.4710  144.0000 C   0  0  2  0  0  3  0  0  0  0  0  0
  189.1540  176.7450  142.0860 C   0  0  2  0  0  3  0  0  0  0  0  0
  188.8040  177.0300  143.5760 C   0  0  1  0  0  0  0  0  0  0  0  0
  190.7330  178.8410  143.9110 C   0  0  0  0  0  1  0  0  0  0  0  0
  189.9740  176.1120  143.1550 C   0  0  0  0  0  2  0  0  0  0  0  0
  188.9750  177.4320  145.0650 C   0  0  1  0  0  3  0  0  0  0  0  0
  190.1930  176.8650  145.8140 C   0  0  0  0  0  2  0  0  0  0  0  0
  189.8800  176.7670  147.2920 C   0  0  0  0  0  2  0  0  0  0  0  0
  188.8840  177.8430  147.6700 C   0  0  0  0  0  1  0  0  0  0  0  0
  1 12  1  0  0  0  0
  1  4  1  0  0  0  0
  2  6  2  0  0  0  0
  3  5  1  6  0  0  0
  3  7  1  0  0  0  0
  6 12  1  0  0  0  0
  7 15  1  1  0  0  0
  8  4  1  6  0  0  0
  8  9  1  0  0  0  0
  9  7  1  0  0  0  0
 10  3  1  0  0  0  0
 12 13  1  0  0  0  0
 13 11  1  6  0  0  0
 13 10  1  0  0  0  0
 13  8  1  0  0  0  0
 15 16  2  0  0  0  0
 16 14  1  0  0  0  0
 17  6  1  0  0  0  0
 18 17  1  0  0  0  0
 18 19  1  0  0  0  0
 19 20  1  0  0  0  0
 20 22  1  0  0  0  0
 22 21  1  1  0  0  0
 22 23  1  0  0  0  0
 24 27  1  6  0  0  0
 24 29  1  0  0  0  0
 25 23  1  6  0  0  0
 25 28  1  0  0  0  0
 25 26  1  0  0  0  0
 26 28  1  1  0  0  0
 26 24  1  0  0  0  0
 26 29  1  0  0  0  0
 29 30  1  6  0  0  0
 30 31  1  0  0  0  0
 31 32  1  0  0  0  0
M  END
>  <MODEL>
3

>  <REMARK>
 VINA RESULT:      -6.8      1.778      3.874
  Name = 
  10 active torsions:
  status: ('A' for Active; 'I' for Inactive)
    1  A    between atoms: C_6  and  C_17
    2  A    between atoms: C_9  and  O_31
    3  A    between atoms: C_9  and  C_32
    4  A    between atoms: C_10  and  C_28
    5  A    between atoms: C_12  and  C_17
    6  A    between atoms: C_12  and  O_31
    7  A    between atoms: C_14  and  C_21
    8  A    between atoms: C_14  and  C_29
    9  A    between atoms: C_15  and  C_19
   10  A    between atoms: C_28  and  C_32
                            x       y       z     vdW  Elec       q    Type
                         _______ _______ _______ _____ _____    ______ ____

>  <TORSDO>
F 10

$$$$
=
 OpenBabel10262421043D

 32 35  0  0  1  0  0  0  0  0999 V2000
  192.1200  178.0570  142.9930 O   0  0  0  0  0  0  0  0  0  0  0  0
  192.4010  177.5220  140.3130 O   0  0  0  0  0  0  0  0  0  0  0  0
  187.4170  177.8580  143.5030 C   0  0  1  0  0  3  0  0  0  0  0  0
  191.6680  177.8840  144.3250 C   0  0  0  0  0  2  0  0  0  0  0  0
  186.9070  176.5580  143.4390 O   0  0  0  0  0  1  0  0  0  0  0  0
  191.2620  177.3640  140.8270 C   0  0  0  0  0  0  0  0  0  0  0  0
  187.8590  178.2210  144.9530 C   0  0  2  0  0  3  0  0  0  0  0  0
  190.1760  178.0340  144.2490 C   0  0  2  0  0  3  0  0  0  0  0  0
  189.2300  177.6530  145.3680 C   0  0  0  0  0  2  0  0  0  0  0  0
  188.5540  178.0330  142.4610 C   0  0  0  0  0  2  0  0  0  0  0  0
  189.7190  175.8600  143.0710 C   0  0  0  0  0  1  0  0  0  0  0  0
  191.0530  177.7070  142.2070 N   0  0  0  0  0  0  0  0  0  0  0  0
  189.8510  177.3840  142.9570 C   0  0  2  0  0  0  0  0  0  0  0  0
  184.5760  178.2520  146.9660 C   0  0  0  0  0  1  0  0  0  0  0  0
  186.8000  177.9750  145.9880 C   0  0  0  0  0  3  0  0  0  0  0  0
  185.5900  178.5300  145.9120 C   0  0  0  0  0  3  0  0  0  0  0  0
  190.1470  176.8490  139.9730 C   0  0  0  0  0  2  0  0  0  0  0  0
  189.4800  177.9820  139.2070 C   0  0  0  0  0  2  0  0  0  0  0  0
  188.4440  177.4480  138.2320 C   0  0  0  0  0  2  0  0  0  0  0  0
  187.2680  178.1980  138.3270 O   0  0  0  0  0  0  0  0  0  0  0  0
  186.5010  177.8640  136.1010 C   0  0  0  0  0  1  0  0  0  0  0  0
  186.3320  177.4980  137.5620 C   0  0  2  0  0  3  0  0  0  0  0  0
  184.9240  177.8580  138.0040 C   0  0  0  0  0  2  0  0  0  0  0  0
  183.6130  177.4620  140.5180 C   0  0  2  0  0  3  0  0  0  0  0  0
  184.9510  179.0350  138.9750 C   0  0  2  0  0  3  0  0  0  0  0  0
  184.1830  178.9060  140.3220 C   0  0  1  0  0  0  0  0  0  0  0  0
  182.6090  176.9220  139.4870 C   0  0  0  0  0  1  0  0  0  0  0  0
  183.6030  179.6530  139.0990 C   0  0  0  0  0  2  0  0  0  0  0  0
  183.0410  178.6030  141.3290 C   0  0  1  0  0  3  0  0  0  0  0  0
  181.6280  179.0850  140.9600 C   0  0  0  0  0  2  0  0  0  0  0  0
  180.6500  178.6590  142.0340 C   0  0  0  0  0  2  0  0  0  0  0  0
  181.2090  179.0120  143.3960 C   0  0  0  0  0  1  0  0  0  0  0  0
  1  4  1  0  0  0  0
  2  6  2  0  0  0  0
  3  5  1  1  0  0  0
  3  7  1  0  0  0  0
  6 12  1  0  0  0  0
  7  9  1  0  0  0  0
  7 15  1  1  0  0  0
  8  4  1  1  0  0  0
  8  9  1  0  0  0  0
 10 13  1  0  0  0  0
 10  3  1  0  0  0  0
 12 13  1  0  0  0  0
 12  1  1  0  0  0  0
 13 11  1  1  0  0  0
 13  8  1  0  0  0  0
 16 15  2  0  0  0  0
 16 14  1  0  0  0  0
 17  6  1  0  0  0  0
 18 17  1  0  0  0  0
 19 20  1  0  0  0  0
 19 18  1  0  0  0  0
 22 21  1  6  0  0  0
 22 23  1  0  0  0  0
 22 20  1  0  0  0  0
 24 27  1  6  0  0  0
 24 29  1  0  0  0  0
 25 23  1  6  0  0  0
 25 28  1  0  0  0  0
 25 26  1  0  0  0  0
 26 28  1  6  0  0  0
 26 24  1  0  0  0  0
 26 29  1  0  0  0  0
 29 30  1  6  0  0  0
 30 31  1  0  0  0  0
 31 32  1  0  0  0  0
M  END
>  <MODEL>
4

>  <REMARK>
 VINA RESULT:      -6.8      2.314      6.054
  Name = 
  10 active torsions:
  status: ('A' for Active; 'I' for Inactive)
    1  A    between atoms: C_6  and  C_17
    2  A    between atoms: C_9  and  O_31
    3  A    between atoms: C_9  and  C_32
    4  A    between atoms: C_10  and  C_28
    5  A    between atoms: C_12  and  C_17
    6  A    between atoms: C_12  and  O_31
    7  A    between atoms: C_14  and  C_21
    8  A    between atoms: C_14  and  C_29
    9  A    between atoms: C_15  and  C_19
   10  A    between atoms: C_28  and  C_32
                            x       y       z     vdW  Elec       q    Type
                         _______ _______ _______ _____ _____    ______ ____

>  <TORSDO>
F 10

$$$$
=
 OpenBabel10262421043D

 32 35  0  0  1  0  0  0  0  0999 V2000
  190.9870  176.0480  144.9140 O   0  0  0  0  0  0  0  0  0  0  0  0
  189.4240  176.7430  147.0640 O   0  0  0  0  0  0  0  0  0  0  0  0
  188.4250  177.7300  141.3060 C   0  0  1  0  0  3  0  0  0  0  0  0
  191.6980  176.2160  143.7010 C   0  0  0  0  0  2  0  0  0  0  0  0
  188.4510  179.1250  141.2100 O   0  0  0  0  0  1  0  0  0  0  0  0
  189.1140  177.2120  145.9360 C   0  0  0  0  0  0  0  0  0  0  0  0
  189.6250  177.0880  140.5460 C   0  0  2  0  0  3  0  0  0  0  0  0
  190.6520  176.5750  142.6860 C   0  0  2  0  0  3  0  0  0  0  0  0
  190.9620  177.1250  141.3100 C   0  0  0  0  0  2  0  0  0  0  0  0
  188.3530  177.3020  142.7950 C   0  0  0  0  0  2  0  0  0  0  0  0
  190.1860  178.8910  143.5480 C   0  0  0  0  0  1  0  0  0  0  0  0
  189.8580  176.8120  144.7740 N   0  0  0  0  0  0  0  0  0  0  0  0
  189.7250  177.4300  143.4650 C   0  0  2  0  0  0  0  0  0  0  0  0
  189.0700  177.7190  136.7870 C   0  0  0  0  0  1  0  0  0  0  0  0
  189.7630  177.5570  139.1260 C   0  0  0  0  0  3  0  0  0  0  0  0
  188.8850  177.2260  138.1790 C   0  0  0  0  0  3  0  0  0  0  0  0
  187.9560  178.1540  145.8370 C   0  0  0  0  0  2  0  0  0  0  0  0
  186.6350  177.4000  145.8790 C   0  0  0  0  0  2  0  0  0  0  0  0
  185.5140  178.2240  145.2690 C   0  0  0  0  0  2  0  0  0  0  0  0
  185.8940  178.6830  144.0040 O   0  0  0  0  0  0  0  0  0  0  0  0
  183.5310  178.6910  144.2800 C   0  0  0  0  0  1  0  0  0  0  0  0
  184.6980  179.0430  143.3780 C   0  0  2  0  0  3  0  0  0  0  0  0
  184.5520  178.2940  142.0640 C   0  0  0  0  0  2  0  0  0  0  0  0
  182.5820  178.7010  140.0270 C   0  0  2  0  0  3  0  0  0  0  0  0
  184.9620  179.1830  140.8930 C   0  0  2  0  0  3  0  0  0  0  0  0
  183.9620  179.3710  139.7150 C   0  0  1  0  0  0  0  0  0  0  0  0
  182.5420  177.1870  140.2850 C   0  0  0  0  0  1  0  0  0  0  0  0
  185.1450  178.3780  139.6540 C   0  0  0  0  0  2  0  0  0  0  0  0
  182.9440  179.0270  138.5950 C   0  0  1  0  0  3  0  0  0  0  0  0
  183.2820  177.8460  137.6720 C   0  0  0  0  0  2  0  0  0  0  0  0
  182.3710  177.8690  136.4630 C   0  0  0  0  0  2  0  0  0  0  0  0
  180.9310  177.7420  136.9130 C   0  0  0  0  0  1  0  0  0  0  0  0
  3  5  1  1  0  0  0
  3 10  1  0  0  0  0
  4  1  1  0  0  0  0
  6  2  2  0  0  0  0
  7 15  1  6  0  0  0
  7  3  1  0  0  0  0
  7  9  1  0  0  0  0
  8  9  1  6  0  0  0
  8 13  1  0  0  0  0
  8  4  1  0  0  0  0
 10 13  1  0  0  0  0
 12  1  1  0  0  0  0
 12  6  1  0  0  0  0
 13 11  1  1  0  0  0
 13 12  1  0  0  0  0
 14 16  1  0  0  0  0
 16 15  2  0  0  0  0
 17 18  1  0  0  0  0
 17  6  1  0  0  0  0
 19 18  1  0  0  0  0
 20 19  1  0  0  0  0
 22 20  1  0  0  0  0
 22 21  1  1  0  0  0
 23 22  1  0  0  0  0
 24 27  1  6  0  0  0
 25 23  1  1  0  0  0
 26 28  1  6  0  0  0
 26 24  1  0  0  0  0
 26 25  1  0  0  0  0
 28 25  1  0  0  0  0
 29 30  1  6  0  0  0
 29 26  1  0  0  0  0
 29 24  1  0  0  0  0
 31 32  1  0  0  0  0
 31 30  1  0  0  0  0
M  END
>  <MODEL>
5

>  <REMARK>
 VINA RESULT:      -6.7      2.217      7.516
  Name = 
  10 active torsions:
  status: ('A' for Active; 'I' for Inactive)
    1  A    between atoms: C_6  and  C_17
    2  A    between atoms: C_9  and  O_31
    3  A    between atoms: C_9  and  C_32
    4  A    between atoms: C_10  and  C_28
    5  A    between atoms: C_12  and  C_17
    6  A    between atoms: C_12  and  O_31
    7  A    between atoms: C_14  and  C_21
    8  A    between atoms: C_14  and  C_29
    9  A    between atoms: C_15  and  C_19
   10  A    between atoms: C_28  and  C_32
                            x       y       z     vdW  Elec       q    Type
                         _______ _______ _______ _____ _____    ______ ____

>  <TORSDO>
F 10

$$$$
=
 OpenBabel10262421043D

 32 35  0  0  1  0  0  0  0  0999 V2000
  192.1740  177.9530  143.0530 O   0  0  0  0  0  0  0  0  0  0  0  0
  192.4990  177.4670  140.3680 O   0  0  0  0  0  0  0  0  0  0  0  0
  187.4610  177.8050  143.4720 C   0  0  1  0  0  3  0  0  0  0  0  0
  191.6950  177.7610  144.3720 C   0  0  0  0  0  2  0  0  0  0  0  0
  186.9360  176.5140  143.3720 O   0  0  0  0  0  1  0  0  0  0  0  0
  191.3490  177.3140  140.8580 C   0  0  0  0  0  0  0  0  0  0  0  0
  187.8810  178.1350  144.9360 C   0  0  2  0  0  3  0  0  0  0  0  0
  190.2070  177.9320  144.2720 C   0  0  2  0  0  3  0  0  0  0  0  0
  189.2360  177.5420  145.3650 C   0  0  0  0  0  2  0  0  0  0  0  0
  188.6190  177.9870  142.4550 C   0  0  0  0  0  2  0  0  0  0  0  0
  189.7450  175.7870  143.0430 C   0  0  0  0  0  1  0  0  0  0  0  0
  191.1180  177.6330  142.2410 N   0  0  0  0  0  0  0  0  0  0  0  0
  189.8980  177.3120  142.9610 C   0  0  2  0  0  0  0  0  0  0  0  0
  184.6010  178.2520  146.9530 C   0  0  0  0  0  1  0  0  0  0  0  0
  186.7990  177.8830  145.9470 C   0  0  0  0  0  3  0  0  0  0  0  0
  185.6400  178.5420  145.9270 C   0  0  0  0  0  3  0  0  0  0  0  0
  190.2440  176.8300  139.9730 C   0  0  0  0  0  2  0  0  0  0  0  0
  189.7400  177.9470  139.0710 C   0  0  0  0  0  2  0  0  0  0  0  0
  188.4380  177.5570  138.3900 C   0  0  0  0  0  2  0  0  0  0  0  0
  188.6170  176.3780  137.6600 O   0  0  0  0  0  0  0  0  0  0  0  0
  187.9660  176.8800  135.4290 C   0  0  0  0  0  1  0  0  0  0  0  0
  189.1080  176.7940  136.4210 C   0  0  2  0  0  3  0  0  0  0  0  0
  190.1370  175.8010  135.9080 C   0  0  0  0  0  2  0  0  0  0  0  0
  192.7000  175.7610  137.1820 C   0  0  2  0  0  3  0  0  0  0  0  0
  190.3670  174.6920  136.9310 C   0  0  2  0  0  3  0  0  0  0  0  0
  191.7700  174.5700  137.5930 C   0  0  1  0  0  0  0  0  0  0  0  0
  193.0290  175.9570  135.6940 C   0  0  0  0  0  1  0  0  0  0  0  0
  191.3270  173.6800  136.4100 C   0  0  0  0  0  2  0  0  0  0  0  0
  193.3140  174.4960  137.7420 C   0  0  1  0  0  3  0  0  0  0  0  0
  194.0760  173.5930  136.7580 C   0  0  0  0  0  2  0  0  0  0  0  0
  195.3580  173.1100  137.4010 C   0  0  0  0  0  2  0  0  0  0  0  0
  195.5640  173.8260  138.7190 C   0  0  0  0  0  1  0  0  0  0  0  0
  1  4  1  0  0  0  0
  2  6  2  0  0  0  0
  3  5  1  1  0  0  0
  3  7  1  0  0  0  0
  6 12  1  0  0  0  0
  7  9  1  0  0  0  0
  7 15  1  1  0  0  0
  8  4  1  1  0  0  0
  8  9  1  0  0  0  0
 10 13  1  0  0  0  0
 10  3  1  0  0  0  0
 12 13  1  0  0  0  0
 12  1  1  0  0  0  0
 13 11  1  1  0  0  0
 13  8  1  0  0  0  0
 16 15  2  0  0  0  0
 16 14  1  0  0  0  0
 17  6  1  0  0  0  0
 18 17  1  0  0  0  0
 19 18  1  0  0  0  0
 20 19  1  0  0  0  0
 22 21  1  6  0  0  0
 22 20  1  0  0  0  0
 23 22  1  0  0  0  0
 24 27  1  6  0  0  0
 24 26  1  0  0  0  0
 24 29  1  0  0  0  0
 25 23  1  6  0  0  0
 25 26  1  0  0  0  0
 26 28  1  6  0  0  0
 26 29  1  0  0  0  0
 28 25  1  0  0  0  0
 29 30  1  6  0  0  0
 30 31  1  0  0  0  0
 31 32  1  0  0  0  0
M  END
>  <MODEL>
6

>  <REMARK>
 VINA RESULT:      -6.6      3.143      5.463
  Name = 
  10 active torsions:
  status: ('A' for Active; 'I' for Inactive)
    1  A    between atoms: C_6  and  C_17
    2  A    between atoms: C_9  and  O_31
    3  A    between atoms: C_9  and  C_32
    4  A    between atoms: C_10  and  C_28
    5  A    between atoms: C_12  and  C_17
    6  A    between atoms: C_12  and  O_31
    7  A    between atoms: C_14  and  C_21
    8  A    between atoms: C_14  and  C_29
    9  A    between atoms: C_15  and  C_19
   10  A    between atoms: C_28  and  C_32
                            x       y       z     vdW  Elec       q    Type
                         _______ _______ _______ _____ _____    ______ ____

>  <TORSDO>
F 10

$$$$
=
 OpenBabel10262421043D

 32 35  0  0  1  0  0  0  0  0999 V2000
  188.4370  178.4730  141.3710 O   0  0  0  0  0  0  0  0  0  0  0  0
  185.7720  178.8990  140.8560 O   0  0  0  0  0  0  0  0  0  0  0  0
  188.4050  177.8810  146.0680 C   0  0  1  0  0  3  0  0  0  0  0  0
  189.5850  177.8350  141.9030 C   0  0  0  0  0  2  0  0  0  0  0  0
  187.8600  176.6570  146.4690 O   0  0  0  0  0  1  0  0  0  0  0  0
  186.0940  178.5200  142.0140 C   0  0  0  0  0  0  0  0  0  0  0  0
  189.9270  177.7500  145.7610 C   0  0  2  0  0  3  0  0  0  0  0  0
  189.4230  177.9280  143.3920 C   0  0  2  0  0  3  0  0  0  0  0  0
  190.2550  177.1430  144.3840 C   0  0  0  0  0  2  0  0  0  0  0  0
  187.5940  178.4570  144.8770 C   0  0  0  0  0  2  0  0  0  0  0  0
  187.5460  176.2670  143.5910 C   0  0  0  0  0  1  0  0  0  0  0  0
  187.4820  178.3600  142.3470 N   0  0  0  0  0  0  0  0  0  0  0  0
  187.9630  177.7430  143.5720 C   0  0  2  0  0  0  0  0  0  0  0  0
  192.4350  175.6280  147.7730 C   0  0  0  0  0  1  0  0  0  0  0  0
  190.7150  177.1130  146.8700 C   0  0  0  0  0  3  0  0  0  0  0  0
  191.6840  176.2280  146.6360 C   0  0  0  0  0  3  0  0  0  0  0  0
  185.0140  178.2720  143.0200 C   0  0  0  0  0  2  0  0  0  0  0  0
  184.5590  179.5750  143.6620 C   0  0  0  0  0  2  0  0  0  0  0  0
  183.1340  179.4630  144.1780 C   0  0  0  0  0  2  0  0  0  0  0  0
  182.4160  178.5500  143.4010 O   0  0  0  0  0  0  0  0  0  0  0  0
  180.0880  178.6120  143.8830 C   0  0  0  0  0  1  0  0  0  0  0  0
  181.2270  179.2080  143.0800 C   0  0  2  0  0  3  0  0  0  0  0  0
  180.9260  179.0490  141.5990 C   0  0  0  0  0  2  0  0  0  0  0  0
  182.6210  179.6270  139.3660 C   0  0  2  0  0  3  0  0  0  0  0  0
  181.7050  177.8720  141.0180 C   0  0  2  0  0  3  0  0  0  0  0  0
  182.5770  178.1110  139.7510 C   0  0  1  0  0  0  0  0  0  0  0  0
  181.3030  180.3370  139.0240 C   0  0  0  0  0  1  0  0  0  0  0  0
  181.1660  177.4840  139.6860 C   0  0  0  0  0  2  0  0  0  0  0  0
  182.9950  178.5870  138.3340 C   0  0  1  0  0  3  0  0  0  0  0  0
  181.9990  178.3490  137.1870 C   0  0  0  0  0  2  0  0  0  0  0  0
  182.6520  177.5020  136.1150 C   0  0  0  0  0  2  0  0  0  0  0  0
  183.7500  176.6630  136.7330 C   0  0  0  0  0  1  0  0  0  0  0  0
  1  4  1  0  0  0  0
  1 12  1  0  0  0  0
  2  6  2  0  0  0  0
  3  5  1  6  0  0  0
  6 12  1  0  0  0  0
  6 17  1  0  0  0  0
  7  3  1  0  0  0  0
  7 15  1  1  0  0  0
  8  4  1  6  0  0  0
  8 13  1  0  0  0  0
  8  9  1  0  0  0  0
  9  7  1  0  0  0  0
 10  3  1  0  0  0  0
 12 13  1  0  0  0  0
 13 11  1  1  0  0  0
 13 10  1  0  0  0  0
 16 15  2  0  0  0  0
 16 14  1  0  0  0  0
 17 18  1  0  0  0  0
 18 19  1  0  0  0  0
 20 19  1  0  0  0  0
 22 20  1  0  0  0  0
 22 21  1  1  0  0  0
 23 22  1  0  0  0  0
 24 27  1  6  0  0  0
 24 26  1  0  0  0  0
 25 23  1  6  0  0  0
 26 28  1  6  0  0  0
 26 25  1  0  0  0  0
 28 25  1  0  0  0  0
 29 30  1  6  0  0  0
 29 24  1  0  0  0  0
 29 26  1  0  0  0  0
 31 32  1  0  0  0  0
 31 30  1  0  0  0  0
M  END
>  <MODEL>
7

>  <REMARK>
 VINA RESULT:      -6.6      2.448      6.580
  Name = 
  10 active torsions:
  status: ('A' for Active; 'I' for Inactive)
    1  A    between atoms: C_6  and  C_17
    2  A    between atoms: C_9  and  O_31
    3  A    between atoms: C_9  and  C_32
    4  A    between atoms: C_10  and  C_28
    5  A    between atoms: C_12  and  C_17
    6  A    between atoms: C_12  and  O_31
    7  A    between atoms: C_14  and  C_21
    8  A    between atoms: C_14  and  C_29
    9  A    between atoms: C_15  and  C_19
   10  A    between atoms: C_28  and  C_32
                            x       y       z     vdW  Elec       q    Type
                         _______ _______ _______ _____ _____    ______ ____

>  <TORSDO>
F 10

$$$$
=
 OpenBabel10262421043D

 32 35  0  0  1  0  0  0  0  0999 V2000
  190.9270  177.6330  140.5240 O   0  0  0  0  0  0  0  0  0  0  0  0
  188.5850  178.3330  139.2710 O   0  0  0  0  0  0  0  0  0  0  0  0
  189.6670  177.8850  145.0810 C   0  0  1  0  0  3  0  0  0  0  0  0
  191.7800  176.9430  141.4210 C   0  0  0  0  0  2  0  0  0  0  0  0
  188.8310  176.8400  145.4840 O   0  0  0  0  0  1  0  0  0  0  0  0
  188.5460  178.1220  140.5120 C   0  0  0  0  0  0  0  0  0  0  0  0
  191.1690  177.4890  145.2080 C   0  0  2  0  0  3  0  0  0  0  0  0
  191.2870  177.3190  142.7890 C   0  0  2  0  0  3  0  0  0  0  0  0
  191.7010  176.6100  144.0600 C   0  0  0  0  0  2  0  0  0  0  0  0
  189.2830  178.3520  143.6520 C   0  0  0  0  0  2  0  0  0  0  0  0
  189.1480  175.9990  142.7050 C   0  0  0  0  0  1  0  0  0  0  0  0
  189.7630  177.8290  141.2200 N   0  0  0  0  0  0  0  0  0  0  0  0
  189.8180  177.3750  142.5990 C   0  0  2  0  0  0  0  0  0  0  0  0
  192.4230  175.2590  148.0880 C   0  0  0  0  0  1  0  0  0  0  0  0
  191.5410  176.9530  146.5610 C   0  0  0  0  0  3  0  0  0  0  0  0
  192.0720  175.7410  146.7240 C   0  0  0  0  0  3  0  0  0  0  0  0
  187.2320  178.2090  141.2210 C   0  0  0  0  0  2  0  0  0  0  0  0
  186.3370  179.2600  140.5810 C   0  0  0  0  0  2  0  0  0  0  0  0
  185.0860  178.6300  139.9910 C   0  0  0  0  0  2  0  0  0  0  0  0
  183.9490  179.2760  140.4840 O   0  0  0  0  0  0  0  0  0  0  0  0
  181.8140  178.7430  141.3880 C   0  0  0  0  0  1  0  0  0  0  0  0
  183.2430  178.2870  141.1730 C   0  0  2  0  0  3  0  0  0  0  0  0
  183.8910  178.0300  142.5240 C   0  0  0  0  0  2  0  0  0  0  0  0
  185.9580  178.7450  144.3700 C   0  0  2  0  0  3  0  0  0  0  0  0
  183.5690  179.1620  143.4960 C   0  0  2  0  0  3  0  0  0  0  0  0
  184.6240  179.5370  144.5770 C   0  0  1  0  0  0  0  0  0  0  0  0
  185.9190  177.2100  144.4330 C   0  0  0  0  0  1  0  0  0  0  0  0
  183.4000  178.6420  144.8800 C   0  0  0  0  0  2  0  0  0  0  0  0
  185.6700  179.3790  145.7130 C   0  0  1  0  0  3  0  0  0  0  0  0
  185.3160  178.4340  146.8730 C   0  0  0  0  0  2  0  0  0  0  0  0
  186.1550  178.7800  148.0850 C   0  0  0  0  0  2  0  0  0  0  0  0
  187.5840  178.3390  147.8530 C   0  0  0  0  0  1  0  0  0  0  0  0
  1 12  1  0  0  0  0
  1  4  1  0  0  0  0
  2  6  2  0  0  0  0
  3  7  1  0  0  0  0
  3  5  1  6  0  0  0
  6 12  1  0  0  0  0
  6 17  1  0  0  0  0
  7 15  1  1  0  0  0
  8  4  1  6  0  0  0
  8  9  1  0  0  0  0
  9  7  1  0  0  0  0
 10  3  1  0  0  0  0
 12 13  1  0  0  0  0
 13 11  1  1  0  0  0
 13  8  1  0  0  0  0
 13 10  1  0  0  0  0
 15 16  2  0  0  0  0
 16 14  1  0  0  0  0
 18 17  1  0  0  0  0
 19 20  1  0  0  0  0
 19 18  1  0  0  0  0
 20 22  1  0  0  0  0
 22 21  1  1  0  0  0
 22 23  1  0  0  0  0
 24 27  1  1  0  0  0
 24 26  1  0  0  0  0
 24 29  1  0  0  0  0
 25 23  1  6  0  0  0
 25 26  1  0  0  0  0
 25 28  1  0  0  0  0
 26 28  1  1  0  0  0
 26 29  1  0  0  0  0
 29 30  1  1  0  0  0
 30 31  1  0  0  0  0
 32 31  1  0  0  0  0
M  END
>  <MODEL>
8

>  <REMARK>
 VINA RESULT:      -6.6      2.218      5.859
  Name = 
  10 active torsions:
  status: ('A' for Active; 'I' for Inactive)
    1  A    between atoms: C_6  and  C_17
    2  A    between atoms: C_9  and  O_31
    3  A    between atoms: C_9  and  C_32
    4  A    between atoms: C_10  and  C_28
    5  A    between atoms: C_12  and  C_17
    6  A    between atoms: C_12  and  O_31
    7  A    between atoms: C_14  and  C_21
    8  A    between atoms: C_14  and  C_29
    9  A    between atoms: C_15  and  C_19
   10  A    between atoms: C_28  and  C_32
                            x       y       z     vdW  Elec       q    Type
                         _______ _______ _______ _____ _____    ______ ____

>  <TORSDO>
F 10

$$$$
=
 OpenBabel10262421043D

 32 35  0  0  1  0  0  0  0  0999 V2000
  190.7820  176.0820  136.3230 O   0  0  0  0  0  0  0  0  0  0  0  0
  192.2260  176.3770  138.6420 O   0  0  0  0  0  0  0  0  0  0  0  0
  186.4430  177.3230  137.7540 C   0  0  1  0  0  3  0  0  0  0  0  0
  189.8840  176.4300  135.2840 C   0  0  0  0  0  2  0  0  0  0  0  0
  186.3040  178.6960  137.9790 O   0  0  0  0  0  1  0  0  0  0  0  0
  191.0430  176.8090  138.6280 C   0  0  0  0  0  0  0  0  0  0  0  0
  186.1740  176.9630  136.2620 C   0  0  2  0  0  3  0  0  0  0  0  0
  188.5560  176.6010  135.9620 C   0  0  2  0  0  3  0  0  0  0  0  0
  187.3510  177.2460  135.3100 C   0  0  0  0  0  2  0  0  0  0  0  0
  187.8320  176.8420  138.2520 C   0  0  0  0  0  2  0  0  0  0  0  0
  189.1060  178.7450  137.1540 C   0  0  0  0  0  1  0  0  0  0  0  0
  190.2270  176.6050  137.4620 N   0  0  0  0  0  0  0  0  0  0  0  0
  188.9300  177.2250  137.2540 C   0  0  2  0  0  0  0  0  0  0  0  0
  182.4330  177.5680  135.5720 C   0  0  0  0  0  1  0  0  0  0  0  0
  184.8710  177.4950  135.7370 C   0  0  0  0  0  3  0  0  0  0  0  0
  183.6940  177.0030  136.1250 C   0  0  0  0  0  3  0  0  0  0  0  0
  190.5100  177.4990  139.8440 C   0  0  0  0  0  2  0  0  0  0  0  0
  191.5510  177.5290  140.9530 C   0  0  0  0  0  2  0  0  0  0  0  0
  190.9130  177.2890  142.3110 C   0  0  0  0  0  2  0  0  0  0  0  0
  191.9050  177.0720  143.2720 O   0  0  0  0  0  0  0  0  0  0  0  0
  191.6820  176.3740  145.5350 C   0  0  0  0  0  1  0  0  0  0  0  0
  191.3040  177.4030  144.4890 C   0  0  2  0  0  3  0  0  0  0  0  0
  189.7920  177.4220  144.3350 C   0  0  0  0  0  2  0  0  0  0  0  0
  186.9670  176.9660  144.2840 C   0  0  2  0  0  3  0  0  0  0  0  0
  189.1130  177.2280  145.6880 C   0  0  2  0  0  3  0  0  0  0  0  0
  187.5670  177.0610  145.7270 C   0  0  1  0  0  0  0  0  0  0  0  0
  187.1690  178.1490  143.3250 C   0  0  0  0  0  1  0  0  0  0  0  0
  188.2680  178.4050  146.0310 C   0  0  0  0  0  2  0  0  0  0  0  0
  186.0620  177.3190  145.4450 C   0  0  1  0  0  3  0  0  0  0  0  0
  185.5660  178.7710  145.5290 C   0  0  0  0  0  2  0  0  0  0  0  0
  184.0760  178.8160  145.2660 C   0  0  0  0  0  2  0  0  0  0  0  0
  183.7970  179.7240  144.0880 C   0  0  0  0  0  1  0  0  0  0  0  0
  1 12  1  0  0  0  0
  3  5  1  6  0  0  0
  3 10  1  0  0  0  0
  4  1  1  0  0  0  0
  6  2  2  0  0  0  0
  6 17  1  0  0  0  0
  7 15  1  6  0  0  0
  7  3  1  0  0  0  0
  8  4  1  6  0  0  0
  8 13  1  0  0  0  0
  9  8  1  0  0  0  0
  9  7  1  0  0  0  0
 12  6  1  0  0  0  0
 13 11  1  6  0  0  0
 13 12  1  0  0  0  0
 13 10  1  0  0  0  0
 14 16  1  0  0  0  0
 15 16  2  0  0  0  0
 17 18  1  0  0  0  0
 18 19  1  0  0  0  0
 19 20  1  0  0  0  0
 20 22  1  0  0  0  0
 22 21  1  1  0  0  0
 23 22  1  0  0  0  0
 24 27  1  6  0  0  0
 24 29  1  0  0  0  0
 24 26  1  0  0  0  0
 25 23  1  6  0  0  0
 25 26  1  0  0  0  0
 25 28  1  0  0  0  0
 26 28  1  6  0  0  0
 29 30  1  6  0  0  0
 29 26  1  0  0  0  0
 31 30  1  0  0  0  0
 32 31  1  0  0  0  0
M  END
>  <MODEL>
9

>  <REMARK>
 VINA RESULT:      -6.4      2.695      8.471
  Name = 
  10 active torsions:
  status: ('A' for Active; 'I' for Inactive)
    1  A    between atoms: C_6  and  C_17
    2  A    between atoms: C_9  and  O_31
    3  A    between atoms: C_9  and  C_32
    4  A    between atoms: C_10  and  C_28
    5  A    between atoms: C_12  and  C_17
    6  A    between atoms: C_12  and  O_31
    7  A    between atoms: C_14  and  C_21
    8  A    between atoms: C_14  and  C_29
    9  A    between atoms: C_15  and  C_19
   10  A    between atoms: C_28  and  C_32
                            x       y       z     vdW  Elec       q    Type
                         _______ _______ _______ _____ _____    ______ ____

>  <TORSDO>
F 10

$$$$
