=
 OpenBabel10252414543D

 34 38  0  0  1  0  0  0  0  0999 V2000
  183.9930  179.0150  144.2040 C   0  0  0  0  0  0  0  0  0  0  0  0
  184.1150  178.4520  141.7890 C   0  0  0  0  0  0  0  0  0  0  0  0
  186.2380  178.6560  143.0900 C   0  0  1  0  0  3  0  0  0  0  0  0
  189.0080  177.0050  142.0300 C   0  0  0  0  0  2  0  0  0  0  0  0
  183.8410  178.7080  146.5570 O   0  0  0  0  0  1  0  0  0  0  0  0
  182.7300  178.4930  141.6820 O   0  0  0  0  0  1  0  0  0  0  0  0
  186.2080  177.9240  140.6600 C   0  0  0  0  0  3  0  0  0  0  0  0
  184.7330  178.7660  142.9430 C   0  0  0  0  0  0  0  0  0  0  0  0
  188.3810  178.3780  141.8440 C   0  0  2  0  0  3  0  0  0  0  0  0
  182.7050  179.7760  144.2140 C   0  0  0  0  0  1  0  0  0  0  0  0
  186.5820  177.7470  144.2640 C   0  0  0  0  0  0  0  0  0  0  0  0
  184.5080  178.5310  145.3500 C   0  0  0  0  0  0  0  0  0  0  0  0
  184.8830  178.0010  140.6200 C   0  0  0  0  0  3  0  0  0  0  0  0
  188.2860  176.1750  143.0990 C   0  0  0  0  0  2  0  0  0  0  0  0
  187.8600  176.9470  144.3640 C   0  0  1  0  0  3  0  0  0  0  0  0
  186.9250  178.3000  141.8440 N   0  0  0  0  0  0  0  0  0  0  0  0
  185.7830  177.7740  145.3400 C   0  0  0  0  0  3  0  0  0  0  0  0
  190.7800  176.1210  146.0660 N   0  0  0  0  0  0  0  0  0  0  0  0
  190.9850  176.9270  147.2750 C   0  0  0  0  0  2  0  0  0  0  0  0
  188.9600  177.5700  145.2360 C   0  0  2  0  0  3  0  0  0  0  0  0
  189.8000  177.8550  147.5890 C   0  0  0  0  0  2  0  0  0  0  0  0
  190.3590  176.9930  144.9700 C   0  0  0  0  0  2  0  0  0  0  0  0
  188.5840  177.5430  146.7220 C   0  0  0  0  0  2  0  0  0  0  0  0
  192.0750  175.5810  145.6980 C   0  0  0  0  0  1  0  0  0  0  0  0
  188.9330  179.1170  140.6340 C   0  0  0  0  0  2  0  0  0  0  0  0
  189.6370  178.2160  139.8280 O   0  0  0  0  0  0  0  0  0  0  0  0
  189.1970  178.4580  138.5240 C   0  0  0  0  0  2  0  0  0  0  0  0
  186.8940  178.1810  136.7960 C   0  0  0  0  0  1  0  0  0  0  0  0
  188.9550  177.1940  137.8330 N   0  0  0  0  0  0  0  0  0  0  0  0
  187.5230  176.9960  137.5320 C   0  0  2  0  0  3  0  0  0  0  0  0
  188.0950  175.8190  135.5010 O   0  0  0  0  0  0  0  0  0  0  0  0
  189.4580  175.8790  135.8460 C   0  0  0  0  0  2  0  0  0  0  0  0
  189.7470  177.1760  136.6040 C   0  0  0  0  0  2  0  0  0  0  0  0
  187.3620  175.7170  136.7010 C   0  0  0  0  0  2  0  0  0  0  0  0
  1 10  1  0  0  0  0
  1 12  2  0  0  0  0
  2  8  2  0  0  0  0
  3  8  1  6  0  0  0
  3 11  1  0  0  0  0
  4 14  1  0  0  0  0
  6  2  1  0  0  0  0
  7 16  1  0  0  0  0
  8  1  1  0  0  0  0
  9 25  1  6  0  0  0
  9  4  1  0  0  0  0
 11 15  1  0  0  0  0
 11 17  2  0  0  0  0
 12  5  1  0  0  0  0
 13  7  2  0  0  0  0
 13  2  1  0  0  0  0
 15 14  1  6  0  0  0
 15 20  1  0  0  0  0
 16  9  1  0  0  0  0
 16  3  1  0  0  0  0
 17 12  1  0  0  0  0
 18 19  1  0  0  0  0
 19 21  1  0  0  0  0
 20 22  1  1  0  0  0
 20 23  1  0  0  0  0
 22 18  1  0  0  0  0
 23 21  1  0  0  0  0
 24 18  1  0  0  0  0
 26 25  1  0  0  0  0
 27 26  1  0  0  0  0
 29 27  1  0  0  0  0
 30 28  1  6  0  0  0
 30 29  1  0  0  0  0
 31 32  1  0  0  0  0
 31 34  1  0  0  0  0
 32 33  1  0  0  0  0
 33 29  1  0  0  0  0
 34 30  1  0  0  0  0
M  END
>  <MODEL>
1

>  <REMARK>
 VINA RESULT:      -7.5      0.000      0.000
  Name = 
  5 active torsions:
  status: ('A' for Active; 'I' for Inactive)
    1  A    between atoms: C_3  and  N_13
    2  A    between atoms: C_3  and  O_17
    3  A    between atoms: C_12  and  C_28
    4  A    between atoms: O_17  and  C_29
    5  A    between atoms: C_18  and  C_29
                            x       y       z     vdW  Elec       q    Type
                         _______ _______ _______ _____ _____    ______ ____

>  <TORSDO>
F 5

$$$$
=
 OpenBabel10252414543D

 34 38  0  0  1  0  0  0  0  0999 V2000
  188.9860  177.0590  146.1160 C   0  0  0  0  0  0  0  0  0  0  0  0
  191.0590  177.4450  144.8050 C   0  0  0  0  0  0  0  0  0  0  0  0
  188.8960  177.1560  143.5870 C   0  0  1  0  0  3  0  0  0  0  0  0
  188.5340  178.4980  140.4910 C   0  0  0  0  0  2  0  0  0  0  0  0
  187.0000  177.5370  147.3330 O   0  0  0  0  0  1  0  0  0  0  0  0
  191.8150  177.5120  145.9690 O   0  0  0  0  0  1  0  0  0  0  0  0
  191.0580  177.7210  142.3840 C   0  0  0  0  0  3  0  0  0  0  0  0
  189.7430  177.1600  144.8450 C   0  0  0  0  0  0  0  0  0  0  0  0
  188.9690  177.1720  141.0940 C   0  0  2  0  0  3  0  0  0  0  0  0
  189.5790  176.4090  147.3260 C   0  0  0  0  0  1  0  0  0  0  0  0
  187.7200  178.1110  143.7480 C   0  0  0  0  0  0  0  0  0  0  0  0
  187.7440  177.5760  146.1590 C   0  0  0  0  0  0  0  0  0  0  0  0
  191.7260  177.7510  143.5320 C   0  0  0  0  0  3  0  0  0  0  0  0
  187.9580  179.4550  141.5420 C   0  0  0  0  0  2  0  0  0  0  0  0
  187.0360  178.8090  142.5950 C   0  0  1  0  0  3  0  0  0  0  0  0
  189.6670  177.3690  142.3590 N   0  0  0  0  0  0  0  0  0  0  0  0
  187.1570  178.2230  144.9610 C   0  0  0  0  0  3  0  0  0  0  0  0
  184.3580  179.3490  140.4420 N   0  0  0  0  0  0  0  0  0  0  0  0
  183.1040  178.7630  140.9290 C   0  0  0  0  0  2  0  0  0  0  0  0
  185.7310  178.1570  142.1130 C   0  0  2  0  0  3  0  0  0  0  0  0
  183.2270  178.1640  142.3400 C   0  0  0  0  0  2  0  0  0  0  0  0
  185.4430  178.3850  140.6210 C   0  0  0  0  0  2  0  0  0  0  0  0
  184.5470  178.5400  143.0070 C   0  0  0  0  0  2  0  0  0  0  0  0
  184.2010  179.5430  139.0120 C   0  0  0  0  0  1  0  0  0  0  0  0
  189.7520  176.3100  140.1150 C   0  0  0  0  0  2  0  0  0  0  0  0
  190.0860  177.0770  138.9940 O   0  0  0  0  0  0  0  0  0  0  0  0
  189.8170  176.2640  137.8900 C   0  0  0  0  0  2  0  0  0  0  0  0
  188.4280  177.7340  135.8210 C   0  0  0  0  0  1  0  0  0  0  0  0
  188.3740  176.1020  137.7260 N   0  0  0  0  0  0  0  0  0  0  0  0
  187.7500  177.2950  137.1200 C   0  0  2  0  0  3  0  0  0  0  0  0
  186.1260  175.9000  136.0010 O   0  0  0  0  0  0  0  0  0  0  0  0
  186.6230  174.7720  136.6800 C   0  0  0  0  0  2  0  0  0  0  0  0
  188.1300  174.9190  136.9020 C   0  0  0  0  0  2  0  0  0  0  0  0
  186.2660  177.0050  136.8650 C   0  0  0  0  0  2  0  0  0  0  0  0
  1 12  2  0  0  0  0
  1 10  1  0  0  0  0
  2  8  2  0  0  0  0
  2  6  1  0  0  0  0
  3 11  1  1  0  0  0
  3  8  1  0  0  0  0
  4  9  1  0  0  0  0
  4 14  1  0  0  0  0
  7 13  2  0  0  0  0
  8  1  1  0  0  0  0
  9 25  1  6  0  0  0
  9 16  1  0  0  0  0
 11 17  2  0  0  0  0
 12  5  1  0  0  0  0
 13  2  1  0  0  0  0
 15 14  1  6  0  0  0
 15 11  1  0  0  0  0
 16  7  1  0  0  0  0
 16  3  1  0  0  0  0
 17 12  1  0  0  0  0
 18 22  1  0  0  0  0
 18 19  1  0  0  0  0
 19 21  1  0  0  0  0
 20 22  1  6  0  0  0
 20 15  1  0  0  0  0
 20 23  1  0  0  0  0
 21 23  1  0  0  0  0
 24 18  1  0  0  0  0
 26 25  1  0  0  0  0
 27 26  1  0  0  0  0
 29 27  1  0  0  0  0
 30 28  1  6  0  0  0
 30 29  1  0  0  0  0
 31 32  1  0  0  0  0
 31 34  1  0  0  0  0
 32 33  1  0  0  0  0
 33 29  1  0  0  0  0
 34 30  1  0  0  0  0
M  END
>  <MODEL>
2

>  <REMARK>
 VINA RESULT:      -7.4      2.086      5.351
  Name = 
  5 active torsions:
  status: ('A' for Active; 'I' for Inactive)
    1  A    between atoms: C_3  and  N_13
    2  A    between atoms: C_3  and  O_17
    3  A    between atoms: C_12  and  C_28
    4  A    between atoms: O_17  and  C_29
    5  A    between atoms: C_18  and  C_29
                            x       y       z     vdW  Elec       q    Type
                         _______ _______ _______ _____ _____    ______ ____

>  <TORSDO>
F 5

$$$$
=
 OpenBabel10252414543D

 34 38  0  0  1  0  0  0  0  0999 V2000
  188.0420  177.6840  142.6270 C   0  0  0  0  0  0  0  0  0  0  0  0
  190.5080  177.6410  142.3350 C   0  0  0  0  0  0  0  0  0  0  0  0
  189.0510  177.0440  140.3940 C   0  0  1  0  0  3  0  0  0  0  0  0
  190.2370  177.4340  137.2380 C   0  0  0  0  0  2  0  0  0  0  0  0
  185.8190  178.5260  142.6580 O   0  0  0  0  0  1  0  0  0  0  0  0
  190.6980  178.0310  143.6550 O   0  0  0  0  0  1  0  0  0  0  0  0
  191.5760  177.2020  140.1890 C   0  0  0  0  0  3  0  0  0  0  0  0
  189.2740  177.4000  141.8510 C   0  0  0  0  0  0  0  0  0  0  0  0
  190.1790  176.3340  138.2850 C   0  0  2  0  0  3  0  0  0  0  0  0
  187.9650  177.4050  144.0940 C   0  0  0  0  0  1  0  0  0  0  0  0
  188.0690  178.0230  139.7630 C   0  0  0  0  0  0  0  0  0  0  0  0
  186.9880  178.2110  141.9760 C   0  0  0  0  0  0  0  0  0  0  0  0
  191.6890  177.5530  141.4660 C   0  0  0  0  0  3  0  0  0  0  0  0
  189.4130  178.6640  137.6390 C   0  0  0  0  0  2  0  0  0  0  0  0
  188.0480  178.3660  138.2920 C   0  0  1  0  0  3  0  0  0  0  0  0
  190.2940  176.8790  139.6330 N   0  0  0  0  0  0  0  0  0  0  0  0
  187.0660  178.4910  140.5210 C   0  0  0  0  0  3  0  0  0  0  0  0
  187.6300  175.5090  136.3510 N   0  0  0  0  0  0  0  0  0  0  0  0
  186.6760  175.6980  135.2530 C   0  0  0  0  0  2  0  0  0  0  0  0
  186.9940  177.6230  137.4580 C   0  0  2  0  0  3  0  0  0  0  0  0
  186.1810  177.1480  135.1260 C   0  0  0  0  0  2  0  0  0  0  0  0
  187.0820  176.0930  137.5740 C   0  0  0  0  0  2  0  0  0  0  0  0
  186.9850  178.1040  136.0030 C   0  0  0  0  0  2  0  0  0  0  0  0
  187.7310  174.0790  136.5780 C   0  0  0  0  0  1  0  0  0  0  0  0
  191.1710  175.2120  138.0150 C   0  0  0  0  0  2  0  0  0  0  0  0
  192.1790  175.6860  137.1690 O   0  0  0  0  0  0  0  0  0  0  0  0
  193.3630  175.1110  137.6390 C   0  0  0  0  0  2  0  0  0  0  0  0
  195.0130  173.5100  135.8830 C   0  0  0  0  0  1  0  0  0  0  0  0
  194.5130  175.7150  136.9710 N   0  0  0  0  0  0  0  0  0  0  0  0
  195.5530  174.7160  136.6530 C   0  0  2  0  0  3  0  0  0  0  0  0
  196.1440  175.9410  134.6560 O   0  0  0  0  0  0  0  0  0  0  0  0
  195.2550  176.9700  135.0200 C   0  0  0  0  0  2  0  0  0  0  0  0
  194.0490  176.3800  135.7540 C   0  0  0  0  0  2  0  0  0  0  0  0
  196.6670  175.3970  135.8470 C   0  0  0  0  0  2  0  0  0  0  0  0
  1 10  1  0  0  0  0
  2  6  1  0  0  0  0
  3 11  1  6  0  0  0
  3  8  1  0  0  0  0
  4 14  1  0  0  0  0
  4  9  1  0  0  0  0
  7 13  2  0  0  0  0
  8  2  2  0  0  0  0
  8  1  1  0  0  0  0
  9 25  1  6  0  0  0
  9 16  1  0  0  0  0
 11 17  2  0  0  0  0
 12  1  2  0  0  0  0
 12  5  1  0  0  0  0
 13  2  1  0  0  0  0
 15 14  1  6  0  0  0
 15 11  1  0  0  0  0
 16  7  1  0  0  0  0
 16  3  1  0  0  0  0
 17 12  1  0  0  0  0
 18 24  1  0  0  0  0
 18 22  1  0  0  0  0
 19 18  1  0  0  0  0
 20 23  1  6  0  0  0
 20 22  1  0  0  0  0
 20 15  1  0  0  0  0
 21 19  1  0  0  0  0
 21 23  1  0  0  0  0
 26 27  1  0  0  0  0
 26 25  1  0  0  0  0
 29 27  1  0  0  0  0
 30 28  1  6  0  0  0
 30 29  1  0  0  0  0
 31 32  1  0  0  0  0
 31 34  1  0  0  0  0
 32 33  1  0  0  0  0
 33 29  1  0  0  0  0
 34 30  1  0  0  0  0
M  END
>  <MODEL>
3

>  <REMARK>
 VINA RESULT:      -7.3      3.485      7.223
  Name = 
  5 active torsions:
  status: ('A' for Active; 'I' for Inactive)
    1  A    between atoms: C_3  and  N_13
    2  A    between atoms: C_3  and  O_17
    3  A    between atoms: C_12  and  C_28
    4  A    between atoms: O_17  and  C_29
    5  A    between atoms: C_18  and  C_29
                            x       y       z     vdW  Elec       q    Type
                         _______ _______ _______ _____ _____    ______ ____

>  <TORSDO>
F 5

$$$$
=
 OpenBabel10252414543D

 34 38  0  0  1  0  0  0  0  0999 V2000
  185.0930  178.9990  140.7750 C   0  0  1  0  0  3  0  0  0  0  0  0
  186.5760  177.8990  139.1150 C   0  0  0  0  0  0  0  0  0  0  0  0
  187.4640  178.3690  141.4020 C   0  0  0  0  0  0  0  0  0  0  0  0
  190.0140  176.4880  142.6190 C   0  0  0  0  0  2  0  0  0  0  0  0
  183.4930  179.2370  142.5170 O   0  0  0  0  0  1  0  0  0  0  0  0
  185.5700  177.9300  138.1560 O   0  0  0  0  0  1  0  0  0  0  0  0
  188.8120  177.1040  139.6630 C   0  0  0  0  0  3  0  0  0  0  0  0
  186.4000  178.4600  140.3260 C   0  0  0  0  0  0  0  0  0  0  0  0
  189.8490  177.7900  141.8510 C   0  0  2  0  0  3  0  0  0  0  0  0
  184.2010  179.7570  139.8430 C   0  0  0  0  0  1  0  0  0  0  0  0
  186.8780  177.7470  142.6630 C   0  0  0  0  0  0  0  0  0  0  0  0
  184.7210  178.7820  142.0500 C   0  0  0  0  0  0  0  0  0  0  0  0
  187.8180  177.1850  138.7870 C   0  0  0  0  0  3  0  0  0  0  0  0
  188.6740  175.9320  143.1170 C   0  0  0  0  0  2  0  0  0  0  0  0
  187.6890  176.9760  143.6790 C   0  0  1  0  0  3  0  0  0  0  0  0
  188.7050  177.7310  140.9490 N   0  0  0  0  0  0  0  0  0  0  0  0
  185.6030  178.0280  142.9740 C   0  0  0  0  0  3  0  0  0  0  0  0
  189.7510  176.7670  146.4730 N   0  0  0  0  0  0  0  0  0  0  0  0
  189.2030  177.4640  147.6420 C   0  0  0  0  0  2  0  0  0  0  0  0
  188.1060  177.7690  144.9260 C   0  0  2  0  0  3  0  0  0  0  0  0
  187.7850  178.0110  147.4080 C   0  0  0  0  0  2  0  0  0  0  0  0
  189.5910  177.6100  145.2890 C   0  0  0  0  0  2  0  0  0  0  0  0
  187.1760  177.4860  146.1110 C   0  0  0  0  0  2  0  0  0  0  0  0
  191.1770  176.6270  146.6990 C   0  0  0  0  0  1  0  0  0  0  0  0
  191.1290  178.2270  141.1540 C   0  0  0  0  0  2  0  0  0  0  0  0
  191.8590  177.0940  140.7830 O   0  0  0  0  0  0  0  0  0  0  0  0
  192.1230  177.2490  139.4190 C   0  0  0  0  0  2  0  0  0  0  0  0
  190.9690  176.5230  136.8670 C   0  0  0  0  0  1  0  0  0  0  0  0
  192.4400  175.9550  138.8190 N   0  0  0  0  0  0  0  0  0  0  0  0
  191.3680  175.4860  137.9190 C   0  0  2  0  0  3  0  0  0  0  0  0
  193.0030  174.4200  136.4970 O   0  0  0  0  0  0  0  0  0  0  0  0
  194.0180  174.7410  137.4180 C   0  0  0  0  0  2  0  0  0  0  0  0
  193.7050  176.0760  138.0950 C   0  0  0  0  0  2  0  0  0  0  0  0
  191.8240  174.1920  137.2350 C   0  0  0  0  0  2  0  0  0  0  0  0
  1 10  1  6  0  0  0
  1 12  1  0  0  0  0
  2  8  2  0  0  0  0
  3 11  2  0  0  0  0
  4 14  1  0  0  0  0
  6  2  1  0  0  0  0
  7 16  1  0  0  0  0
  8  1  1  0  0  0  0
  8  3  1  0  0  0  0
  9 25  1  6  0  0  0
  9  4  1  0  0  0  0
 11 17  1  0  0  0  0
 11 15  1  0  0  0  0
 12  5  1  0  0  0  0
 12 17  2  0  0  0  0
 13  2  1  0  0  0  0
 13  7  2  0  0  0  0
 15 14  1  6  0  0  0
 15 20  1  0  0  0  0
 16  3  1  0  0  0  0
 16  9  1  0  0  0  0
 18 24  1  0  0  0  0
 18 19  1  0  0  0  0
 20 22  1  1  0  0  0
 20 23  1  0  0  0  0
 21 19  1  0  0  0  0
 22 18  1  0  0  0  0
 23 21  1  0  0  0  0
 26 25  1  0  0  0  0
 27 26  1  0  0  0  0
 29 27  1  0  0  0  0
 30 28  1  6  0  0  0
 30 29  1  0  0  0  0
 31 34  1  0  0  0  0
 31 32  1  0  0  0  0
 32 33  1  0  0  0  0
 33 29  1  0  0  0  0
 34 30  1  0  0  0  0
M  END
>  <MODEL>
4

>  <REMARK>
 VINA RESULT:      -7.2      2.307      3.134
  Name = 
  5 active torsions:
  status: ('A' for Active; 'I' for Inactive)
    1  A    between atoms: C_3  and  N_13
    2  A    between atoms: C_3  and  O_17
    3  A    between atoms: C_12  and  C_28
    4  A    between atoms: O_17  and  C_29
    5  A    between atoms: C_18  and  C_29
                            x       y       z     vdW  Elec       q    Type
                         _______ _______ _______ _____ _____    ______ ____

>  <TORSDO>
F 5

$$$$
=
 OpenBabel10252414543D

 34 38  0  0  1  0  0  0  0  0999 V2000
  188.8510  177.0880  146.2840 C   0  0  0  0  0  0  0  0  0  0  0  0
  190.9340  177.4830  144.9910 C   0  0  0  0  0  0  0  0  0  0  0  0
  188.7810  177.2010  143.7550 C   0  0  1  0  0  3  0  0  0  0  0  0
  188.4430  178.5640  140.6650 C   0  0  0  0  0  2  0  0  0  0  0  0
  186.8560  177.5580  147.4880 O   0  0  0  0  0  1  0  0  0  0  0  0
  191.6810  177.5420  146.1620 O   0  0  0  0  0  1  0  0  0  0  0  0
  190.9520  177.7750  142.5730 C   0  0  0  0  0  3  0  0  0  0  0  0
  189.6180  177.1980  145.0190 C   0  0  0  0  0  0  0  0  0  0  0  0
  188.8730  177.2340  141.2630 C   0  0  2  0  0  3  0  0  0  0  0  0
  189.4350  176.4310  147.4940 C   0  0  0  0  0  1  0  0  0  0  0  0
  187.6030  178.1550  143.9130 C   0  0  0  0  0  0  0  0  0  0  0  0
  187.6090  177.6050  146.3200 C   0  0  0  0  0  0  0  0  0  0  0  0
  191.6110  177.7970  143.7260 C   0  0  0  0  0  3  0  0  0  0  0  0
  187.8590  179.5140  141.7180 C   0  0  0  0  0  2  0  0  0  0  0  0
  186.9290  178.8610  142.7590 C   0  0  1  0  0  3  0  0  0  0  0  0
  189.5620  177.4220  142.5340 N   0  0  0  0  0  0  0  0  0  0  0  0
  187.0310  178.2600  145.1220 C   0  0  0  0  0  3  0  0  0  0  0  0
  184.3080  179.3780  140.5310 N   0  0  0  0  0  0  0  0  0  0  0  0
  183.0360  178.8190  141.0030 C   0  0  0  0  0  2  0  0  0  0  0  0
  185.6280  178.2120  142.2630 C   0  0  2  0  0  3  0  0  0  0  0  0
  183.1200  178.2530  142.4300 C   0  0  0  0  0  2  0  0  0  0  0  0
  185.3770  178.4070  140.7590 C   0  0  0  0  0  2  0  0  0  0  0  0
  184.4270  178.6300  143.1190 C   0  0  0  0  0  2  0  0  0  0  0  0
  184.1870  179.5380  139.0940 C   0  0  0  0  0  1  0  0  0  0  0  0
  189.6640  176.3780  140.2840 C   0  0  0  0  0  2  0  0  0  0  0  0
  189.9700  177.1400  139.1520 O   0  0  0  0  0  0  0  0  0  0  0  0
  189.9200  176.2500  138.0760 C   0  0  0  0  0  2  0  0  0  0  0  0
  190.7520  175.0630  135.5720 C   0  0  0  0  0  1  0  0  0  0  0  0
  191.1500  175.4630  138.0170 N   0  0  0  0  0  0  0  0  0  0  0  0
  191.1130  174.4630  136.9320 C   0  0  2  0  0  3  0  0  0  0  0  0
  193.4930  174.7100  136.5990 O   0  0  0  0  0  0  0  0  0  0  0  0
  193.5650  175.5580  137.7200 C   0  0  0  0  0  2  0  0  0  0  0  0
  192.2780  176.3770  137.8380 C   0  0  0  0  0  2  0  0  0  0  0  0
  192.4770  173.7660  136.8520 C   0  0  0  0  0  2  0  0  0  0  0  0
  1 12  2  0  0  0  0
  1 10  1  0  0  0  0
  2  8  2  0  0  0  0
  2  6  1  0  0  0  0
  3 11  1  1  0  0  0
  3  8  1  0  0  0  0
  4  9  1  0  0  0  0
  4 14  1  0  0  0  0
  7 13  2  0  0  0  0
  8  1  1  0  0  0  0
  9 25  1  6  0  0  0
  9 16  1  0  0  0  0
 11 17  2  0  0  0  0
 12  5  1  0  0  0  0
 13  2  1  0  0  0  0
 15 14  1  6  0  0  0
 15 11  1  0  0  0  0
 16  7  1  0  0  0  0
 16  3  1  0  0  0  0
 17 12  1  0  0  0  0
 18 22  1  0  0  0  0
 18 19  1  0  0  0  0
 19 21  1  0  0  0  0
 20 22  1  6  0  0  0
 20 15  1  0  0  0  0
 20 23  1  0  0  0  0
 21 23  1  0  0  0  0
 24 18  1  0  0  0  0
 26 25  1  0  0  0  0
 27 26  1  0  0  0  0
 29 27  1  0  0  0  0
 30 28  1  6  0  0  0
 30 29  1  0  0  0  0
 31 34  1  0  0  0  0
 31 32  1  0  0  0  0
 32 33  1  0  0  0  0
 33 29  1  0  0  0  0
 34 30  1  0  0  0  0
M  END
>  <MODEL>
5

>  <REMARK>
 VINA RESULT:      -7.1      2.443      5.630
  Name = 
  5 active torsions:
  status: ('A' for Active; 'I' for Inactive)
    1  A    between atoms: C_3  and  N_13
    2  A    between atoms: C_3  and  O_17
    3  A    between atoms: C_12  and  C_28
    4  A    between atoms: O_17  and  C_29
    5  A    between atoms: C_18  and  C_29
                            x       y       z     vdW  Elec       q    Type
                         _______ _______ _______ _____ _____    ______ ____

>  <TORSDO>
F 5

$$$$
=
 OpenBabel10252414543D

 34 38  0  0  1  0  0  0  0  0999 V2000
  185.5920  173.5070  136.7600 C   0  0  1  0  0  3  0  0  0  0  0  0
  184.6790  175.7540  137.2900 C   0  0  0  0  0  0  0  0  0  0  0  0
  187.1570  175.4410  137.2330 C   0  0  0  0  0  0  0  0  0  0  0  0
  189.1600  178.1070  136.6030 C   0  0  0  0  0  2  0  0  0  0  0  0
  186.4120  171.6840  135.4720 O   0  0  0  0  0  1  0  0  0  0  0  0
  183.3770  175.2830  137.1690 O   0  0  0  0  0  1  0  0  0  0  0  0
  186.0910  177.7150  137.5960 C   0  0  0  0  0  3  0  0  0  0  0  0
  185.7320  174.9240  137.1750 C   0  0  0  0  0  0  0  0  0  0  0  0
  188.5780  177.4050  137.8190 C   0  0  2  0  0  3  0  0  0  0  0  0
  184.4600  172.6610  137.2500 C   0  0  0  0  0  1  0  0  0  0  0  0
  187.9120  175.0290  135.9750 C   0  0  0  0  0  0  0  0  0  0  0  0
  186.5110  172.9970  135.9190 C   0  0  0  0  0  0  0  0  0  0  0  0
  184.8730  177.1970  137.4890 C   0  0  0  0  0  3  0  0  0  0  0  0
  188.9070  177.3300  135.3060 C   0  0  0  0  0  2  0  0  0  0  0  0
  189.0780  175.8010  135.4020 C   0  0  1  0  0  3  0  0  0  0  0  0
  187.2510  176.8720  137.5390 N   0  0  0  0  0  0  0  0  0  0  0  0
  187.6320  173.8360  135.4300 C   0  0  0  0  0  3  0  0  0  0  0  0
  191.8090  176.4140  137.4690 N   0  0  0  0  0  0  0  0  0  0  0  0
  193.0850  176.0150  136.8650 C   0  0  0  0  0  2  0  0  0  0  0  0
  190.4680  175.2490  135.7530 C   0  0  2  0  0  3  0  0  0  0  0  0
  192.9410  175.5430  135.4090 C   0  0  0  0  0  2  0  0  0  0  0  0
  190.8180  175.3630  137.2450 C   0  0  0  0  0  2  0  0  0  0  0  0
  191.5540  175.8380  134.8460 C   0  0  0  0  0  2  0  0  0  0  0  0
  192.0280  176.4870  138.9010 C   0  0  0  0  0  1  0  0  0  0  0  0
  188.6140  178.2700  139.0710 C   0  0  0  0  0  2  0  0  0  0  0  0
  188.9820  177.4800  140.1640 O   0  0  0  0  0  0  0  0  0  0  0  0
  188.3650  178.0650  141.2730 C   0  0  0  0  0  2  0  0  0  0  0  0
  187.9420  176.3920  143.5960 C   0  0  0  0  0  1  0  0  0  0  0  0
  189.3000  178.1270  142.3940 N   0  0  0  0  0  0  0  0  0  0  0  0
  188.6610  177.7410  143.6680 C   0  0  2  0  0  3  0  0  0  0  0  0
  190.7400  176.7840  144.4420 O   0  0  0  0  0  0  0  0  0  0  0  0
  191.3940  177.2690  143.2930 C   0  0  0  0  0  2  0  0  0  0  0  0
  190.4350  177.2520  142.1010 C   0  0  0  0  0  2  0  0  0  0  0  0
  189.7270  177.7090  144.7700 C   0  0  0  0  0  2  0  0  0  0  0  0
  1  8  1  0  0  0  0
  1 10  1  6  0  0  0
  2 13  1  0  0  0  0
  3 16  1  0  0  0  0
  4  9  1  0  0  0  0
  5 12  1  0  0  0  0
  6  2  1  0  0  0  0
  8  3  1  0  0  0  0
  8  2  2  0  0  0  0
  9 25  1  1  0  0  0
 11  3  2  0  0  0  0
 12  1  1  0  0  0  0
 13  7  2  0  0  0  0
 14  4  1  0  0  0  0
 15 14  1  1  0  0  0
 15 20  1  0  0  0  0
 15 11  1  0  0  0  0
 16  7  1  0  0  0  0
 16  9  1  0  0  0  0
 17 12  2  0  0  0  0
 17 11  1  0  0  0  0
 18 24  1  0  0  0  0
 19 18  1  0  0  0  0
 20 23  1  6  0  0  0
 20 22  1  0  0  0  0
 21 19  1  0  0  0  0
 22 18  1  0  0  0  0
 23 21  1  0  0  0  0
 25 26  1  0  0  0  0
 26 27  1  0  0  0  0
 27 29  1  0  0  0  0
 29 30  1  0  0  0  0
 30 28  1  6  0  0  0
 30 34  1  0  0  0  0
 31 34  1  0  0  0  0
 32 31  1  0  0  0  0
 33 29  1  0  0  0  0
 33 32  1  0  0  0  0
M  END
>  <MODEL>
6

>  <REMARK>
 VINA RESULT:      -7.0      3.129      7.982
  Name = 
  5 active torsions:
  status: ('A' for Active; 'I' for Inactive)
    1  A    between atoms: C_3  and  N_13
    2  A    between atoms: C_3  and  O_17
    3  A    between atoms: C_12  and  C_28
    4  A    between atoms: O_17  and  C_29
    5  A    between atoms: C_18  and  C_29
                            x       y       z     vdW  Elec       q    Type
                         _______ _______ _______ _____ _____    ______ ____

>  <TORSDO>
F 5

$$$$
=
 OpenBabel10252414543D

 34 38  0  0  1  0  0  0  0  0999 V2000
  188.9940  177.7700  140.0320 C   0  0  0  0  0  0  0  0  0  0  0  0
  188.4430  178.0900  137.6320 C   0  0  0  0  0  0  0  0  0  0  0  0
  186.5860  177.6800  139.2520 C   0  0  1  0  0  3  0  0  0  0  0  0
  183.4610  178.7860  138.5220 C   0  0  0  0  0  2  0  0  0  0  0  0
  189.4210  178.3060  142.3090 O   0  0  0  0  0  1  0  0  0  0  0  0
  189.7870  178.2530  137.3180 O   0  0  0  0  0  1  0  0  0  0  0  0
  186.1540  178.1880  136.8040 C   0  0  0  0  0  3  0  0  0  0  0  0
  188.0530  177.7900  138.8850 C   0  0  0  0  0  0  0  0  0  0  0  0
  184.2730  177.5140  138.3340 C   0  0  2  0  0  3  0  0  0  0  0  0
  190.3780  177.2200  139.8940 C   0  0  0  0  0  1  0  0  0  0  0  0
  186.2650  178.6260  140.4030 C   0  0  0  0  0  0  0  0  0  0  0  0
  188.5720  178.2700  141.2080 C   0  0  0  0  0  0  0  0  0  0  0  0
  187.4550  178.3120  136.5670 C   0  0  0  0  0  3  0  0  0  0  0  0
  184.1790  179.8080  139.4110 C   0  0  0  0  0  2  0  0  0  0  0  0
  184.9000  179.2270  140.6440 C   0  0  1  0  0  3  0  0  0  0  0  0
  185.6820  177.8140  138.1060 N   0  0  0  0  0  0  0  0  0  0  0  0
  187.2010  178.8190  141.3440 C   0  0  0  0  0  3  0  0  0  0  0  0
  181.7900  179.3910  142.1940 N   0  0  0  0  0  0  0  0  0  0  0  0
  181.8210  178.9420  143.5910 C   0  0  0  0  0  2  0  0  0  0  0  0
  184.0510  178.5230  141.7130 C   0  0  2  0  0  3  0  0  0  0  0  0
  183.2420  178.6300  144.0910 C   0  0  0  0  0  2  0  0  0  0  0  0
  182.5550  178.4580  141.3680 C   0  0  0  0  0  2  0  0  0  0  0  0
  184.3100  179.1010  143.1090 C   0  0  0  0  0  2  0  0  0  0  0  0
  180.4090  179.3020  141.7580 C   0  0  0  0  0  1  0  0  0  0  0  0
  183.6860  176.5940  137.2730 C   0  0  0  0  0  2  0  0  0  0  0  0
  183.9110  175.2650  137.6440 O   0  0  0  0  0  0  0  0  0  0  0  0
  184.3630  174.6240  136.4860 C   0  0  0  0  0  2  0  0  0  0  0  0
  186.4310  172.7390  137.2200 C   0  0  0  0  0  1  0  0  0  0  0  0
  185.7660  174.9540  136.2450 N   0  0  0  0  0  0  0  0  0  0  0  0
  186.6660  174.2510  137.1810 C   0  0  2  0  0  3  0  0  0  0  0  0
  188.3660  174.1140  135.4700 O   0  0  0  0  0  0  0  0  0  0  0  0
  187.5740  174.9030  134.6150 C   0  0  0  0  0  2  0  0  0  0  0  0
  186.0920  174.6120  134.8610 C   0  0  0  0  0  2  0  0  0  0  0  0
  188.1190  174.5460  136.7890 C   0  0  0  0  0  2  0  0  0  0  0  0
  1 12  2  0  0  0  0
  2  8  2  0  0  0  0
  3  8  1  6  0  0  0
  3 11  1  0  0  0  0
  4 14  1  0  0  0  0
  6  2  1  0  0  0  0
  7 16  1  0  0  0  0
  8  1  1  0  0  0  0
  9 25  1  6  0  0  0
  9  4  1  0  0  0  0
 10  1  1  0  0  0  0
 11 15  1  0  0  0  0
 11 17  2  0  0  0  0
 12 17  1  0  0  0  0
 12  5  1  0  0  0  0
 13  7  2  0  0  0  0
 13  2  1  0  0  0  0
 15 14  1  6  0  0  0
 15 20  1  0  0  0  0
 16  9  1  0  0  0  0
 16  3  1  0  0  0  0
 18 19  1  0  0  0  0
 19 21  1  0  0  0  0
 20 22  1  6  0  0  0
 20 23  1  0  0  0  0
 22 18  1  0  0  0  0
 23 21  1  0  0  0  0
 24 18  1  0  0  0  0
 25 26  1  0  0  0  0
 27 26  1  0  0  0  0
 29 27  1  0  0  0  0
 29 30  1  0  0  0  0
 30 28  1  6  0  0  0
 31 34  1  0  0  0  0
 32 33  1  0  0  0  0
 32 31  1  0  0  0  0
 33 29  1  0  0  0  0
 34 30  1  0  0  0  0
M  END
>  <MODEL>
7

>  <REMARK>
 VINA RESULT:      -6.7      3.702      6.410
  Name = 
  5 active torsions:
  status: ('A' for Active; 'I' for Inactive)
    1  A    between atoms: C_3  and  N_13
    2  A    between atoms: C_3  and  O_17
    3  A    between atoms: C_12  and  C_28
    4  A    between atoms: O_17  and  C_29
    5  A    between atoms: C_18  and  C_29
                            x       y       z     vdW  Elec       q    Type
                         _______ _______ _______ _____ _____    ______ ____

>  <TORSDO>
F 5

$$$$
=
 OpenBabel10252414543D

 34 38  0  0  1  0  0  0  0  0999 V2000
  180.3290  176.4440  139.6180 C   0  0  1  0  0  3  0  0  0  0  0  0
  180.3740  178.0520  141.5090 C   0  0  0  0  0  0  0  0  0  0  0  0
  182.5360  177.3390  140.4790 C   0  0  0  0  0  0  0  0  0  0  0  0
  185.2430  179.3740  140.7100 C   0  0  0  0  0  2  0  0  0  0  0  0
  180.2360  175.6380  137.3830 O   0  0  0  0  0  1  0  0  0  0  0  0
  178.9880  178.0240  141.6010 O   0  0  0  0  0  1  0  0  0  0  0  0
  182.4250  179.1000  142.3040 C   0  0  0  0  0  3  0  0  0  0  0  0
  181.0300  177.2640  140.6360 C   0  0  0  0  0  0  0  0  0  0  0  0
  184.6380  178.2190  141.4930 C   0  0  2  0  0  3  0  0  0  0  0  0
  179.0570  175.7260  139.9370 C   0  0  0  0  0  1  0  0  0  0  0  0
  182.8950  177.6210  139.0250 C   0  0  0  0  0  0  0  0  0  0  0  0
  180.8660  176.3670  138.3860 C   0  0  0  0  0  0  0  0  0  0  0  0
  181.1010  179.0100  142.3540 C   0  0  0  0  0  3  0  0  0  0  0  0
  184.5350  179.6010  139.3680 C   0  0  0  0  0  2  0  0  0  0  0  0
  184.1590  178.3250  138.5900 C   0  0  1  0  0  3  0  0  0  0  0  0
  183.1820  178.2450  141.4350 N   0  0  0  0  0  0  0  0  0  0  0  0
  182.1260  177.0810  138.0680 C   0  0  0  0  0  3  0  0  0  0  0  0
  187.1800  178.3930  136.8670 N   0  0  0  0  0  0  0  0  0  0  0  0
  187.4370  177.1610  136.1120 C   0  0  0  0  0  2  0  0  0  0  0  0
  185.2940  177.4040  138.1170 C   0  0  2  0  0  3  0  0  0  0  0  0
  186.2560  176.1770  136.1450 C   0  0  0  0  0  2  0  0  0  0  0  0
  186.6860  178.0500  138.1990 C   0  0  0  0  0  2  0  0  0  0  0  0
  185.0000  176.8110  136.7350 C   0  0  0  0  0  2  0  0  0  0  0  0
  188.4630  179.0470  137.0500 C   0  0  0  0  0  1  0  0  0  0  0  0
  185.1710  178.1320  142.9160 C   0  0  0  0  0  2  0  0  0  0  0  0
  186.3100  177.3210  142.9300 O   0  0  0  0  0  0  0  0  0  0  0  0
  187.0620  177.7520  144.0260 C   0  0  0  0  0  2  0  0  0  0  0  0
  188.9480  177.1290  146.1300 C   0  0  0  0  0  1  0  0  0  0  0  0
  188.4890  177.6640  143.7220 N   0  0  0  0  0  0  0  0  0  0  0  0
  189.3240  177.9620  144.9030 C   0  0  2  0  0  3  0  0  0  0  0  0
  190.9950  176.3940  144.1390 O   0  0  0  0  0  0  0  0  0  0  0  0
  190.2760  176.2050  142.9430 C   0  0  0  0  0  2  0  0  0  0  0  0
  188.7750  176.3240  143.2140 C   0  0  0  0  0  2  0  0  0  0  0  0
  190.7960  177.7300  144.5420 C   0  0  0  0  0  2  0  0  0  0  0  0
  1 10  1  6  0  0  0
  1  8  1  0  0  0  0
  2  6  1  0  0  0  0
  2 13  1  0  0  0  0
  3  8  1  0  0  0  0
  3 16  1  0  0  0  0
  4  9  1  0  0  0  0
  5 12  1  0  0  0  0
  7 13  2  0  0  0  0
  8  2  2  0  0  0  0
  9 25  1  1  0  0  0
 11  3  2  0  0  0  0
 12  1  1  0  0  0  0
 14  4  1  0  0  0  0
 15 11  1  0  0  0  0
 15 14  1  1  0  0  0
 16  9  1  0  0  0  0
 16  7  1  0  0  0  0
 17 12  2  0  0  0  0
 17 11  1  0  0  0  0
 18 24  1  0  0  0  0
 18 22  1  0  0  0  0
 19 21  1  0  0  0  0
 19 18  1  0  0  0  0
 20 23  1  6  0  0  0
 20 22  1  0  0  0  0
 20 15  1  0  0  0  0
 21 23  1  0  0  0  0
 25 26  1  0  0  0  0
 26 27  1  0  0  0  0
 29 27  1  0  0  0  0
 29 30  1  0  0  0  0
 30 28  1  1  0  0  0
 31 34  1  0  0  0  0
 32 33  1  0  0  0  0
 32 31  1  0  0  0  0
 33 29  1  0  0  0  0
 34 30  1  0  0  0  0
M  END
>  <MODEL>
8

>  <REMARK>
 VINA RESULT:      -6.7      2.952      7.399
  Name = 
  5 active torsions:
  status: ('A' for Active; 'I' for Inactive)
    1  A    between atoms: C_3  and  N_13
    2  A    between atoms: C_3  and  O_17
    3  A    between atoms: C_12  and  C_28
    4  A    between atoms: O_17  and  C_29
    5  A    between atoms: C_18  and  C_29
                            x       y       z     vdW  Elec       q    Type
                         _______ _______ _______ _____ _____    ______ ____

>  <TORSDO>
F 5

$$$$
=
 OpenBabel10252414543D

 34 38  0  0  1  0  0  0  0  0999 V2000
  180.8170  178.1530  141.1750 C   0  0  1  0  0  3  0  0  0  0  0  0
  181.6000  179.0120  143.3700 C   0  0  0  0  0  0  0  0  0  0  0  0
  183.2660  178.0070  141.8020 C   0  0  0  0  0  0  0  0  0  0  0  0
  186.5270  178.9200  142.0260 C   0  0  0  0  0  2  0  0  0  0  0  0
  180.2410  178.1360  138.8680 O   0  0  0  0  0  1  0  0  0  0  0  0
  180.3080  179.3920  143.7120 O   0  0  0  0  0  1  0  0  0  0  0  0
  183.9520  179.0710  144.0020 C   0  0  0  0  0  3  0  0  0  0  0  0
  181.8510  178.3620  142.2170 C   0  0  0  0  0  0  0  0  0  0  0  0
  185.6260  177.8330  142.5890 C   0  0  2  0  0  3  0  0  0  0  0  0
  179.4060  177.8080  141.5360 C   0  0  0  0  0  1  0  0  0  0  0  0
  183.5670  178.5900  140.4270 C   0  0  0  0  0  0  0  0  0  0  0  0
  181.1770  178.2900  139.8850 C   0  0  0  0  0  0  0  0  0  0  0  0
  182.6920  179.3890  144.2770 C   0  0  0  0  0  3  0  0  0  0  0  0
  185.8270  179.7540  140.9460 C   0  0  0  0  0  2  0  0  0  0  0  0
  184.9540  178.9600  139.9540 C   0  0  1  0  0  3  0  0  0  0  0  0
  184.2740  178.3290  142.8160 N   0  0  0  0  0  0  0  0  0  0  0  0
  182.5740  178.6360  139.5270 C   0  0  0  0  0  3  0  0  0  0  0  0
  187.4690  178.6600  137.5690 N   0  0  0  0  0  0  0  0  0  0  0  0
  187.1880  177.6240  136.5680 C   0  0  0  0  0  2  0  0  0  0  0  0
  185.6410  177.9200  139.0560 C   0  0  2  0  0  3  0  0  0  0  0  0
  185.7910  177.0020  136.7200 C   0  0  0  0  0  2  0  0  0  0  0  0
  187.1540  178.1440  138.9000 C   0  0  0  0  0  2  0  0  0  0  0  0
  184.9250  177.7760  137.7090 C   0  0  0  0  0  2  0  0  0  0  0  0
  188.9000  178.8950  137.5380 C   0  0  0  0  0  1  0  0  0  0  0  0
  186.2200  177.1550  143.8160 C   0  0  0  0  0  2  0  0  0  0  0  0
  187.5990  177.3870  143.8460 O   0  0  0  0  0  0  0  0  0  0  0  0
  187.9000  177.6810  145.1780 C   0  0  0  0  0  2  0  0  0  0  0  0
  190.5020  178.6170  144.3280 C   0  0  0  0  0  1  0  0  0  0  0  0
  189.1020  176.9610  145.5910 N   0  0  0  0  0  0  0  0  0  0  0  0
  190.2120  177.1470  144.6350 C   0  0  2  0  0  3  0  0  0  0  0  0
  191.8120  177.0320  146.4410 O   0  0  0  0  0  0  0  0  0  0  0  0
  190.7770  176.7160  147.3420 C   0  0  0  0  0  2  0  0  0  0  0  0
  189.4880  177.4250  146.9240 C   0  0  0  0  0  2  0  0  0  0  0  0
  191.4690  176.4700  145.1950 C   0  0  0  0  0  2  0  0  0  0  0  0
  1 10  1  1  0  0  0
  1  8  1  0  0  0  0
  2  6  1  0  0  0  0
  2 13  1  0  0  0  0
  3  8  1  0  0  0  0
  3 16  1  0  0  0  0
  4  9  1  0  0  0  0
  5 12  1  0  0  0  0
  7 13  2  0  0  0  0
  8  2  2  0  0  0  0
  9 16  1  0  0  0  0
  9 25  1  1  0  0  0
 11  3  2  0  0  0  0
 12  1  1  0  0  0  0
 14  4  1  0  0  0  0
 15 11  1  0  0  0  0
 15 14  1  1  0  0  0
 16  7  1  0  0  0  0
 17 12  2  0  0  0  0
 17 11  1  0  0  0  0
 18 22  1  0  0  0  0
 19 21  1  0  0  0  0
 19 18  1  0  0  0  0
 20 23  1  6  0  0  0
 20 15  1  0  0  0  0
 21 23  1  0  0  0  0
 22 20  1  0  0  0  0
 24 18  1  0  0  0  0
 25 26  1  0  0  0  0
 26 27  1  0  0  0  0
 27 29  1  0  0  0  0
 29 33  1  0  0  0  0
 30 28  1  1  0  0  0
 30 34  1  0  0  0  0
 30 29  1  0  0  0  0
 31 32  1  0  0  0  0
 33 32  1  0  0  0  0
 34 31  1  0  0  0  0
M  END
>  <MODEL>
9

>  <REMARK>
 VINA RESULT:      -6.5      2.463      7.196
  Name = 
  5 active torsions:
  status: ('A' for Active; 'I' for Inactive)
    1  A    between atoms: C_3  and  N_13
    2  A    between atoms: C_3  and  O_17
    3  A    between atoms: C_12  and  C_28
    4  A    between atoms: O_17  and  C_29
    5  A    between atoms: C_18  and  C_29
                            x       y       z     vdW  Elec       q    Type
                         _______ _______ _______ _____ _____    ______ ____

>  <TORSDO>
F 5

$$$$
