=
 OpenBabel10262419383D

 31 34  0  0  1  0  0  0  0  0999 V2000
  188.5330  178.1250  140.2780 C   0  0  1  0  0  3  0  0  0  0  0  0
  185.7640  178.7770  142.8970 C   0  0  2  0  0  3  0  0  0  0  0  0
  184.3920  178.4730  142.3370 C   0  0  0  0  0  0  0  0  0  0  0  0
  182.9370  177.5690  140.6150 C   0  0  0  0  0  3  0  0  0  0  0  0
  186.9120  178.0560  142.1840 C   0  0  1  0  0  3  0  0  0  0  0  0
  189.4520  177.3100  141.1620 C   0  0  0  0  0  3  0  0  0  0  0  0
  184.2190  177.7880  141.1250 C   0  0  0  0  0  3  0  0  0  0  0  0
  186.5060  177.4580  145.0400 C   0  0  2  0  0  3  0  0  0  0  0  0
  187.8830  177.2800  139.3990 F   0  0  0  0  0  0  0  0  0  0  0  0
  183.4750  179.7070  144.3040 C   0  0  0  0  0  2  0  0  0  0  0  0
  181.8200  178.0440  141.3050 C   0  0  0  0  0  3  0  0  0  0  0  0
  187.4870  176.7900  144.1660 N   0  0  0  0  0  2  0  0  0  0  0  0
  185.8320  178.7200  144.4540 C   0  0  2  0  0  3  0  0  0  0  0  0
  187.4960  178.9240  141.0750 C   0  0  0  0  0  2  0  0  0  0  0  0
  180.5420  179.3240  143.3350 Cl  0  0  0  0  0  0  0  0  0  0  0  0
  188.0220  177.7020  143.1630 C   0  0  1  0  0  3  0  0  0  0  0  0
  189.1960  177.0770  142.4600 C   0  0  0  0  0  3  0  0  0  0  0  0
  184.4860  178.9590  145.1660 C   0  0  0  0  0  2  0  0  0  0  0  0
  183.2640  178.9560  143.0250 C   0  0  0  0  0  0  0  0  0  0  0  0
  181.9760  178.7400  142.5060 C   0  0  0  0  0  0  0  0  0  0  0  0
  187.1430  177.7870  146.3840 C   0  0  0  0  0  2  0  0  0  0  0  0
  187.9940  176.2080  147.8670 C   0  0  0  0  0  1  0  0  0  0  0  0
  188.2930  176.9220  146.6310 N   0  0  0  0  0  0  0  0  0  0  0  0
  189.6030  178.0630  148.2270 O   0  0  0  0  0  1  0  0  0  0  0  0
  189.4650  177.7750  146.8650 C   0  0  1  0  0  3  0  0  0  0  0  0
  191.1390  177.3940  145.1330 C   0  0  0  0  0  2  0  0  0  0  0  0
  190.7310  177.1230  146.3730 C   0  0  0  0  0  0  0  0  0  0  0  0
  191.5750  176.2350  147.2530 C   0  0  0  0  0  0  0  0  0  0  0  0
  192.1400  176.9880  148.2660 F   0  0  0  0  0  0  0  0  0  0  0  0
  190.8120  175.2280  147.8210 F   0  0  0  0  0  0  0  0  0  0  0  0
  192.5830  175.6580  146.5030 F   0  0  0  0  0  0  0  0  0  0  0  0
  1  9  1  6  0  0  0
  1 14  1  0  0  0  0
  1  6  1  0  0  0  0
  2  3  1  6  0  0  0
  2 13  1  0  0  0  0
  3 19  1  0  0  0  0
  4  7  1  0  0  0  0
  4 11  2  0  0  0  0
  5 14  1  6  0  0  0
  5  2  1  0  0  0  0
  5 16  1  0  0  0  0
  6 17  2  0  0  0  0
  7  3  2  0  0  0  0
  8 21  1  1  0  0  0
 10 18  1  0  0  0  0
 11 20  1  0  0  0  0
 12  8  1  0  0  0  0
 13  8  1  0  0  0  0
 13 18  1  1  0  0  0
 16 17  1  6  0  0  0
 16 12  1  0  0  0  0
 19 10  1  0  0  0  0
 20 19  2  0  0  0  0
 20 15  1  0  0  0  0
 21 23  1  0  0  0  0
 23 25  1  0  0  0  0
 23 22  1  0  0  0  0
 25 24  1  1  0  0  0
 26 27  2  0  0  0  0
 27 25  1  0  0  0  0
 27 28  1  0  0  0  0
 28 30  1  0  0  0  0
 28 29  1  0  0  0  0
 31 28  1  0  0  0  0
M  END
>  <MODEL>
1

>  <REMARK>
 VINA RESULT:      -8.8      0.000      0.000
  Name = 
  5 active torsions:
  status: ('A' for Active; 'I' for Inactive)
    1  A    between atoms: C_1  and  C_19
    2  A    between atoms: N_9  and  C_22
    3  A    between atoms: N_9  and  C_23
    4  A    between atoms: C_15  and  C_23
    5  A    between atoms: C_19  and  C_22
                            x       y       z     vdW  Elec       q    Type
                         _______ _______ _______ _____ _____    ______ ____

>  <TORSDO>
F 5

$$$$
=
 OpenBabel10262419383D

 31 34  0  0  1  0  0  0  0  0999 V2000
  188.1650  178.1380  139.6780 C   0  0  1  0  0  3  0  0  0  0  0  0
  185.6610  178.7770  142.5540 C   0  0  2  0  0  3  0  0  0  0  0  0
  184.2420  178.4590  142.1310 C   0  0  0  0  0  0  0  0  0  0  0  0
  182.6340  177.5380  140.5620 C   0  0  0  0  0  3  0  0  0  0  0  0
  186.7390  178.0620  141.7330 C   0  0  1  0  0  3  0  0  0  0  0  0
  189.1730  177.3340  140.4690 C   0  0  0  0  0  3  0  0  0  0  0  0
  183.9580  177.7690  140.9440 C   0  0  0  0  0  3  0  0  0  0  0  0
  186.6200  177.4710  144.6170 C   0  0  2  0  0  3  0  0  0  0  0  0
  187.4380  177.2860  138.8680 F   0  0  0  0  0  0  0  0  0  0  0  0
  183.5120  179.6930  144.1760 C   0  0  0  0  0  2  0  0  0  0  0  0
  181.5850  178.0060  141.3570 C   0  0  0  0  0  3  0  0  0  0  0  0
  187.5150  176.8080  143.6520 N   0  0  0  0  0  2  0  0  0  0  0  0
  185.8800  178.7250  144.0960 C   0  0  2  0  0  3  0  0  0  0  0  0
  187.2040  178.9320  140.5700 C   0  0  0  0  0  2  0  0  0  0  0  0
  180.5020  179.2830  143.5000 Cl  0  0  0  0  0  0  0  0  0  0  0  0
  187.9430  177.7210  142.6000 C   0  0  1  0  0  3  0  0  0  0  0  0
  189.0470  177.1030  141.7870 C   0  0  0  0  0  3  0  0  0  0  0  0
  184.6090  178.9550  144.9370 C   0  0  0  0  0  2  0  0  0  0  0  0
  183.1830  178.9360  142.9260 C   0  0  0  0  0  0  0  0  0  0  0  0
  181.8520  178.7080  142.5360 C   0  0  0  0  0  0  0  0  0  0  0  0
  187.3830  177.8090  145.8920 C   0  0  0  0  0  2  0  0  0  0  0  0
  188.5840  176.3440  147.2430 C   0  0  0  0  0  1  0  0  0  0  0  0
  188.6230  177.0430  145.9630 N   0  0  0  0  0  0  0  0  0  0  0  0
  190.3520  177.9990  147.2530 O   0  0  0  0  0  1  0  0  0  0  0  0
  189.7440  177.9910  145.9930 C   0  0  1  0  0  3  0  0  0  0  0  0
  191.1660  176.3840  144.8340 C   0  0  0  0  0  2  0  0  0  0  0  0
  190.7810  177.6550  144.9520 C   0  0  0  0  0  0  0  0  0  0  0  0
  191.3390  178.6900  144.0080 C   0  0  0  0  0  0  0  0  0  0  0  0
  190.3340  179.5580  143.6240 F   0  0  0  0  0  0  0  0  0  0  0  0
  192.3490  179.4210  144.6120 F   0  0  0  0  0  0  0  0  0  0  0  0
  191.8530  178.0680  142.8850 F   0  0  0  0  0  0  0  0  0  0  0  0
  1  9  1  1  0  0  0
  1  6  1  0  0  0  0
  1 14  1  0  0  0  0
  2  3  1  1  0  0  0
  2 13  1  0  0  0  0
  3 19  1  0  0  0  0
  4  7  1  0  0  0  0
  4 11  2  0  0  0  0
  5 14  1  6  0  0  0
  5  2  1  0  0  0  0
  5 16  1  0  0  0  0
  6 17  2  0  0  0  0
  7  3  2  0  0  0  0
  8 21  1  1  0  0  0
 10 18  1  0  0  0  0
 11 20  1  0  0  0  0
 12  8  1  0  0  0  0
 13  8  1  0  0  0  0
 13 18  1  1  0  0  0
 16 17  1  6  0  0  0
 16 12  1  0  0  0  0
 19 10  1  0  0  0  0
 20 19  2  0  0  0  0
 20 15  1  0  0  0  0
 21 23  1  0  0  0  0
 23 25  1  0  0  0  0
 23 22  1  0  0  0  0
 25 24  1  1  0  0  0
 26 27  2  0  0  0  0
 27 25  1  0  0  0  0
 28 30  1  0  0  0  0
 28 27  1  0  0  0  0
 29 28  1  0  0  0  0
 31 28  1  0  0  0  0
M  END
>  <MODEL>
2

>  <REMARK>
 VINA RESULT:      -8.6      1.642      1.877
  Name = 
  5 active torsions:
  status: ('A' for Active; 'I' for Inactive)
    1  A    between atoms: C_1  and  C_19
    2  A    between atoms: N_9  and  C_22
    3  A    between atoms: N_9  and  C_23
    4  A    between atoms: C_15  and  C_23
    5  A    between atoms: C_19  and  C_22
                            x       y       z     vdW  Elec       q    Type
                         _______ _______ _______ _____ _____    ______ ____

>  <TORSDO>
F 5

$$$$
=
 OpenBabel10262419383D

 31 34  0  0  1  0  0  0  0  0999 V2000
  190.6430  176.8460  139.9270 C   0  0  1  0  0  3  0  0  0  0  0  0
  187.9980  177.3040  142.7100 C   0  0  2  0  0  3  0  0  0  0  0  0
  188.6460  177.6130  144.0420 C   0  0  0  0  0  0  0  0  0  0  0  0
  190.5790  178.1800  145.4000 C   0  0  0  0  0  3  0  0  0  0  0  0
  188.8630  177.6470  141.4920 C   0  0  1  0  0  3  0  0  0  0  0  0
  190.0040  177.7500  138.8970 C   0  0  0  0  0  3  0  0  0  0  0  0
  190.0040  177.9510  144.1470 C   0  0  0  0  0  3  0  0  0  0  0  0
  186.2930  179.0610  141.7680 C   0  0  2  0  0  3  0  0  0  0  0  0
  191.7350  177.4880  140.4800 F   0  0  0  0  0  0  0  0  0  0  0  0
  186.4300  177.1010  145.0740 C   0  0  0  0  0  2  0  0  0  0  0  0
  189.8050  178.0620  146.5560 C   0  0  0  0  0  3  0  0  0  0  0  0
  187.3000  179.3300  140.7260 N   0  0  0  0  0  2  0  0  0  0  0  0
  186.5180  177.7830  142.6080 C   0  0  2  0  0  3  0  0  0  0  0  0
  189.6760  176.4380  141.0440 C   0  0  0  0  0  2  0  0  0  0  0  0
  187.5220  177.5700  147.9510 Cl  0  0  0  0  0  0  0  0  0  0  0  0
  187.9990  178.1150  140.3290 C   0  0  1  0  0  3  0  0  0  0  0  0
  188.8270  178.3650  139.0980 C   0  0  0  0  0  3  0  0  0  0  0  0
  185.7920  177.9250  143.9600 C   0  0  0  0  0  2  0  0  0  0  0  0
  187.8720  177.4870  145.2100 C   0  0  0  0  0  0  0  0  0  0  0  0
  188.4540  177.7120  146.4690 C   0  0  0  0  0  0  0  0  0  0  0  0
  184.8980  179.0410  141.1540 C   0  0  0  0  0  2  0  0  0  0  0  0
  184.0730  179.9960  139.2000 C   0  0  0  0  0  1  0  0  0  0  0  0
  184.9810  178.9700  139.6990 N   0  0  0  0  0  0  0  0  0  0  0  0
  183.1490  177.4830  139.7010 O   0  0  0  0  0  1  0  0  0  0  0  0
  184.4700  177.6610  139.2760 C   0  0  1  0  0  3  0  0  0  0  0  0
  183.3760  177.4560  137.1050 C   0  0  0  0  0  2  0  0  0  0  0  0
  184.5260  177.5030  137.7780 C   0  0  0  0  0  0  0  0  0  0  0  0
  185.8300  177.4630  137.0210 C   0  0  0  0  0  0  0  0  0  0  0  0
  185.5930  177.1160  135.7040 F   0  0  0  0  0  0  0  0  0  0  0  0
  186.4600  178.6960  137.0490 F   0  0  0  0  0  0  0  0  0  0  0  0
  186.6710  176.5230  137.5910 F   0  0  0  0  0  0  0  0  0  0  0  0
  1  9  1  1  0  0  0
  1 14  1  0  0  0  0
  2  3  1  1  0  0  0
  3  7  2  0  0  0  0
  3 19  1  0  0  0  0
  4 11  2  0  0  0  0
  5 14  1  6  0  0  0
  5  2  1  0  0  0  0
  6 17  2  0  0  0  0
  6  1  1  0  0  0  0
  7  4  1  0  0  0  0
  8 21  1  6  0  0  0
  8 13  1  0  0  0  0
 10 19  1  0  0  0  0
 12  8  1  0  0  0  0
 13  2  1  0  0  0  0
 13 18  1  1  0  0  0
 16 17  1  6  0  0  0
 16 12  1  0  0  0  0
 16  5  1  0  0  0  0
 18 10  1  0  0  0  0
 19 20  2  0  0  0  0
 20 11  1  0  0  0  0
 20 15  1  0  0  0  0
 22 23  1  0  0  0  0
 23 21  1  0  0  0  0
 25 23  1  0  0  0  0
 25 24  1  6  0  0  0
 26 27  2  0  0  0  0
 27 25  1  0  0  0  0
 28 30  1  0  0  0  0
 28 31  1  0  0  0  0
 28 27  1  0  0  0  0
 29 28  1  0  0  0  0
M  END
>  <MODEL>
3

>  <REMARK>
 VINA RESULT:      -8.2      3.958      7.544
  Name = 
  5 active torsions:
  status: ('A' for Active; 'I' for Inactive)
    1  A    between atoms: C_1  and  C_19
    2  A    between atoms: N_9  and  C_22
    3  A    between atoms: N_9  and  C_23
    4  A    between atoms: C_15  and  C_23
    5  A    between atoms: C_19  and  C_22
                            x       y       z     vdW  Elec       q    Type
                         _______ _______ _______ _____ _____    ______ ____

>  <TORSDO>
F 5

$$$$
=
 OpenBabel10262419383D

 31 34  0  0  1  0  0  0  0  0999 V2000
  183.4760  179.4070  144.5200 C   0  0  1  0  0  3  0  0  0  0  0  0
  186.0040  178.7440  141.6710 C   0  0  2  0  0  3  0  0  0  0  0  0
  187.1560  177.8840  142.1450 C   0  0  0  0  0  0  0  0  0  0  0  0
  188.2290  176.4700  143.8030 C   0  0  0  0  0  3  0  0  0  0  0  0
  184.7280  178.6060  142.5070 C   0  0  1  0  0  3  0  0  0  0  0  0
  182.2190  179.0570  143.7530 C   0  0  0  0  0  3  0  0  0  0  0  0
  187.1260  177.2150  143.3770 C   0  0  0  0  0  3  0  0  0  0  0  0
  184.5750  177.8390  139.6660 C   0  0  2  0  0  3  0  0  0  0  0  0
  183.7750  178.3800  145.3950 F   0  0  0  0  0  0  0  0  0  0  0  0
  188.3330  178.5610  140.0490 C   0  0  0  0  0  2  0  0  0  0  0  0
  189.3740  176.4000  143.0070 C   0  0  0  0  0  3  0  0  0  0  0  0
  183.4870  177.6790  140.6470 N   0  0  0  0  0  2  0  0  0  0  0  0
  185.7780  178.6930  140.1300 C   0  0  2  0  0  3  0  0  0  0  0  0
  184.6790  179.6620  143.6050 C   0  0  0  0  0  2  0  0  0  0  0  0
  190.8890  176.9600  140.8190 Cl  0  0  0  0  0  0  0  0  0  0  0  0
  183.4900  178.7510  141.6330 C   0  0  1  0  0  3  0  0  0  0  0  0
  182.2310  178.7120  142.4550 C   0  0  0  0  0  3  0  0  0  0  0  0
  187.0240  178.3100  139.3070 C   0  0  0  0  0  2  0  0  0  0  0  0
  188.3150  177.8170  141.3490 C   0  0  0  0  0  0  0  0  0  0  0  0
  189.4260  177.0730  141.7830 C   0  0  0  0  0  0  0  0  0  0  0  0
  184.0230  178.3870  138.3560 C   0  0  0  0  0  2  0  0  0  0  0  0
  183.0230  176.6980  137.1070 C   0  0  0  0  0  1  0  0  0  0  0  0
  182.7350  177.7740  138.0480 N   0  0  0  0  0  0  0  0  0  0  0  0
  180.9530  178.1500  136.5490 O   0  0  0  0  0  1  0  0  0  0  0  0
  181.9050  178.7720  137.3630 C   0  0  1  0  0  3  0  0  0  0  0  0
  180.3700  179.1130  139.2270 C   0  0  0  0  0  2  0  0  0  0  0  0
  181.1980  179.6710  138.3440 C   0  0  0  0  0  0  0  0  0  0  0  0
  181.4470  181.1580  138.3980 C   0  0  0  0  0  0  0  0  0  0  0  0
  182.7800  181.3950  138.6770 F   0  0  0  0  0  0  0  0  0  0  0  0
  181.1320  181.7590  137.1910 F   0  0  0  0  0  0  0  0  0  0  0  0
  180.6690  181.7250  139.3910 F   0  0  0  0  0  0  0  0  0  0  0  0
  1  9  1  1  0  0  0
  2  3  1  1  0  0  0
  2  5  1  0  0  0  0
  3  7  1  0  0  0  0
  5 14  1  1  0  0  0
  6  1  1  0  0  0  0
  7  4  2  0  0  0  0
  8 21  1  6  0  0  0
  8 13  1  0  0  0  0
  8 12  1  0  0  0  0
 10 19  1  0  0  0  0
 11  4  1  0  0  0  0
 12 16  1  0  0  0  0
 13 18  1  6  0  0  0
 13  2  1  0  0  0  0
 14  1  1  0  0  0  0
 15 20  1  0  0  0  0
 16 17  1  1  0  0  0
 16  5  1  0  0  0  0
 17  6  2  0  0  0  0
 18 10  1  0  0  0  0
 19 20  1  0  0  0  0
 19  3  2  0  0  0  0
 20 11  2  0  0  0  0
 22 23  1  0  0  0  0
 23 21  1  0  0  0  0
 25 24  1  1  0  0  0
 25 23  1  0  0  0  0
 25 27  1  0  0  0  0
 27 28  1  0  0  0  0
 27 26  2  0  0  0  0
 28 29  1  0  0  0  0
 28 31  1  0  0  0  0
 30 28  1  0  0  0  0
M  END
>  <MODEL>
4

>  <REMARK>
 VINA RESULT:      -8.1      5.077      9.216
  Name = 
  5 active torsions:
  status: ('A' for Active; 'I' for Inactive)
    1  A    between atoms: C_1  and  C_19
    2  A    between atoms: N_9  and  C_22
    3  A    between atoms: N_9  and  C_23
    4  A    between atoms: C_15  and  C_23
    5  A    between atoms: C_19  and  C_22
                            x       y       z     vdW  Elec       q    Type
                         _______ _______ _______ _____ _____    ______ ____

>  <TORSDO>
F 5

$$$$
=
 OpenBabel10262419383D

 31 34  0  0  1  0  0  0  0  0999 V2000
  187.4400  178.2950  139.0640 C   0  0  1  0  0  3  0  0  0  0  0  0
  184.5030  178.7790  141.5320 C   0  0  2  0  0  3  0  0  0  0  0  0
  183.2610  178.0530  141.0610 C   0  0  0  0  0  0  0  0  0  0  0  0
  182.1220  176.5070  139.5740 C   0  0  0  0  0  3  0  0  0  0  0  0
  185.8130  178.2230  140.9640 C   0  0  1  0  0  3  0  0  0  0  0  0
  188.4920  177.9130  140.0820 C   0  0  0  0  0  3  0  0  0  0  0  0
  183.2980  177.1200  140.0140 C   0  0  0  0  0  3  0  0  0  0  0  0
  185.4560  178.1260  143.8870 C   0  0  2  0  0  3  0  0  0  0  0  0
  187.0380  177.1630  138.3810 F   0  0  0  0  0  0  0  0  0  0  0  0
  182.0100  179.4010  142.7510 C   0  0  0  0  0  2  0  0  0  0  0  0
  180.9000  176.8310  140.1680 C   0  0  0  0  0  3  0  0  0  0  0  0
  186.5970  177.5500  143.1530 N   0  0  0  0  0  2  0  0  0  0  0  0
  184.5260  179.0500  143.0670 C   0  0  2  0  0  3  0  0  0  0  0  0
  186.2160  178.9680  139.6960 C   0  0  0  0  0  2  0  0  0  0  0  0
  179.2860  178.1490  141.9150 Cl  0  0  0  0  0  0  0  0  0  0  0  0
  186.9390  178.3440  141.9810 C   0  0  1  0  0  3  0  0  0  0  0  0
  188.2510  177.8890  141.4040 C   0  0  0  0  0  3  0  0  0  0  0  0
  183.1370  179.1000  143.7330 C   0  0  0  0  0  2  0  0  0  0  0  0
  182.0280  178.3830  141.6520 C   0  0  0  0  0  0  0  0  0  0  0  0
  180.8450  177.7690  141.2030 C   0  0  0  0  0  0  0  0  0  0  0  0
  185.9490  178.8570  145.1300 C   0  0  0  0  0  2  0  0  0  0  0  0
  185.3190  177.8780  147.1440 C   0  0  0  0  0  1  0  0  0  0  0  0
  186.3820  177.9030  146.1450 N   0  0  0  0  0  0  0  0  0  0  0  0
  187.4020  178.5970  148.1560 O   0  0  0  0  0  1  0  0  0  0  0  0
  187.5960  178.4300  146.7810 C   0  0  1  0  0  3  0  0  0  0  0  0
  189.1560  176.7270  147.5630 C   0  0  0  0  0  2  0  0  0  0  0  0
  188.7760  177.5190  146.5610 C   0  0  0  0  0  0  0  0  0  0  0  0
  189.4890  177.4320  145.2350 C   0  0  0  0  0  0  0  0  0  0  0  0
  188.9690  176.3850  144.4960 F   0  0  0  0  0  0  0  0  0  0  0  0
  189.3400  178.6030  144.5120 F   0  0  0  0  0  0  0  0  0  0  0  0
  190.8380  177.2090  145.4450 F   0  0  0  0  0  0  0  0  0  0  0  0
  1  9  1  1  0  0  0
  1 14  1  0  0  0  0
  1  6  1  0  0  0  0
  2  3  1  1  0  0  0
  2 13  1  0  0  0  0
  3 19  1  0  0  0  0
  4  7  1  0  0  0  0
  4 11  2  0  0  0  0
  5 14  1  6  0  0  0
  5  2  1  0  0  0  0
  5 16  1  0  0  0  0
  6 17  2  0  0  0  0
  7  3  2  0  0  0  0
  8 21  1  1  0  0  0
 10 18  1  0  0  0  0
 11 20  1  0  0  0  0
 12  8  1  0  0  0  0
 13 18  1  1  0  0  0
 13  8  1  0  0  0  0
 16 17  1  6  0  0  0
 16 12  1  0  0  0  0
 19 10  1  0  0  0  0
 20 19  2  0  0  0  0
 20 15  1  0  0  0  0
 21 23  1  0  0  0  0
 23 25  1  0  0  0  0
 23 22  1  0  0  0  0
 25 24  1  1  0  0  0
 27 25  1  0  0  0  0
 27 26  2  0  0  0  0
 28 31  1  0  0  0  0
 28 27  1  0  0  0  0
 29 28  1  0  0  0  0
 30 28  1  0  0  0  0
M  END
>  <MODEL>
5

>  <REMARK>
 VINA RESULT:      -7.8      1.778      2.362
  Name = 
  5 active torsions:
  status: ('A' for Active; 'I' for Inactive)
    1  A    between atoms: C_1  and  C_19
    2  A    between atoms: N_9  and  C_22
    3  A    between atoms: N_9  and  C_23
    4  A    between atoms: C_15  and  C_23
    5  A    between atoms: C_19  and  C_22
                            x       y       z     vdW  Elec       q    Type
                         _______ _______ _______ _____ _____    ______ ____

>  <TORSDO>
F 5

$$$$
=
 OpenBabel10262419383D

 31 34  0  0  1  0  0  0  0  0999 V2000
  190.2430  177.3530  136.5450 C   0  0  1  0  0  3  0  0  0  0  0  0
  187.4990  178.3070  139.0970 C   0  0  2  0  0  3  0  0  0  0  0  0
  186.1360  177.8260  138.6470 C   0  0  0  0  0  0  0  0  0  0  0  0
  184.7030  176.5410  137.1660 C   0  0  0  0  0  3  0  0  0  0  0  0
  188.6730  177.5370  138.4860 C   0  0  1  0  0  3  0  0  0  0  0  0
  191.2320  176.7680  137.5290 C   0  0  0  0  0  3  0  0  0  0  0  0
  185.9800  176.9230  137.5850 C   0  0  0  0  0  3  0  0  0  0  0  0
  188.3720  177.4450  141.4150 C   0  0  2  0  0  3  0  0  0  0  0  0
  189.6280  176.3260  135.8550 F   0  0  0  0  0  0  0  0  0  0  0  0
  185.1870  179.3420  140.3900 C   0  0  0  0  0  2  0  0  0  0  0  0
  183.5730  177.0670  137.7970 C   0  0  0  0  0  3  0  0  0  0  0  0
  189.3720  176.6880  140.6430 N   0  0  0  0  0  2  0  0  0  0  0  0
  187.6050  178.5380  140.6350 C   0  0  2  0  0  3  0  0  0  0  0  0
  189.1750  178.2220  137.2200 C   0  0  0  0  0  2  0  0  0  0  0  0
  182.2630  178.6180  139.6060 Cl  0  0  0  0  0  0  0  0  0  0  0  0
  189.8260  177.4320  139.4750 C   0  0  1  0  0  3  0  0  0  0  0  0
  191.0210  176.7600  138.8560 C   0  0  0  0  0  3  0  0  0  0  0  0
  186.2630  178.8230  141.3380 C   0  0  0  0  0  2  0  0  0  0  0  0
  184.9950  178.3600  139.2750 C   0  0  0  0  0  0  0  0  0  0  0  0
  183.7120  177.9780  138.8470 C   0  0  0  0  0  0  0  0  0  0  0  0
  189.0170  178.0490  142.6560 C   0  0  0  0  0  2  0  0  0  0  0  0
  187.7290  176.3940  143.6630 C   0  0  0  0  0  1  0  0  0  0  0  0
  189.0070  177.0900  143.7560 N   0  0  0  0  0  0  0  0  0  0  0  0
  187.7450  177.9290  145.5650 O   0  0  0  0  0  1  0  0  0  0  0  0
  189.0290  177.8410  145.0180 C   0  0  1  0  0  3  0  0  0  0  0  0
  189.4310  176.8160  147.1940 C   0  0  0  0  0  2  0  0  0  0  0  0
  189.9470  177.2000  146.0270 C   0  0  0  0  0  0  0  0  0  0  0  0
  191.4010  176.9250  145.7320 C   0  0  0  0  0  0  0  0  0  0  0  0
  192.0820  176.7100  146.9160 F   0  0  0  0  0  0  0  0  0  0  0  0
  191.5420  175.8070  144.9280 F   0  0  0  0  0  0  0  0  0  0  0  0
  191.9580  178.0120  145.0820 F   0  0  0  0  0  0  0  0  0  0  0  0
  1  9  1  1  0  0  0
  1 14  1  0  0  0  0
  1  6  1  0  0  0  0
  2  3  1  1  0  0  0
  2 13  1  0  0  0  0
  3 19  1  0  0  0  0
  4  7  1  0  0  0  0
  4 11  2  0  0  0  0
  5 14  1  6  0  0  0
  5  2  1  0  0  0  0
  5 16  1  0  0  0  0
  6 17  2  0  0  0  0
  7  3  2  0  0  0  0
  8 21  1  1  0  0  0
 10 18  1  0  0  0  0
 11 20  1  0  0  0  0
 12  8  1  0  0  0  0
 13 18  1  1  0  0  0
 13  8  1  0  0  0  0
 16 17  1  6  0  0  0
 16 12  1  0  0  0  0
 19 10  1  0  0  0  0
 20 19  2  0  0  0  0
 20 15  1  0  0  0  0
 21 23  1  0  0  0  0
 22 23  1  0  0  0  0
 23 25  1  0  0  0  0
 25 24  1  1  0  0  0
 25 27  1  0  0  0  0
 27 26  2  0  0  0  0
 28 27  1  0  0  0  0
 28 29  1  0  0  0  0
 30 28  1  0  0  0  0
 31 28  1  0  0  0  0
M  END
>  <MODEL>
6

>  <REMARK>
 VINA RESULT:      -7.8      2.601      3.722
  Name = 
  5 active torsions:
  status: ('A' for Active; 'I' for Inactive)
    1  A    between atoms: C_1  and  C_19
    2  A    between atoms: N_9  and  C_22
    3  A    between atoms: N_9  and  C_23
    4  A    between atoms: C_15  and  C_23
    5  A    between atoms: C_19  and  C_22
                            x       y       z     vdW  Elec       q    Type
                         _______ _______ _______ _____ _____    ______ ____

>  <TORSDO>
F 5

$$$$
=
 OpenBabel10262419383D

 31 34  0  0  1  0  0  0  0  0999 V2000
  183.6860  179.3390  144.6870 C   0  0  1  0  0  3  0  0  0  0  0  0
  186.0590  178.7470  141.6920 C   0  0  2  0  0  3  0  0  0  0  0  0
  187.2230  177.8610  142.0780 C   0  0  0  0  0  0  0  0  0  0  0  0
  188.3620  176.3810  143.6310 C   0  0  0  0  0  3  0  0  0  0  0  0
  184.8250  178.5940  142.5870 C   0  0  1  0  0  3  0  0  0  0  0  0
  182.3880  179.0270  143.9740 C   0  0  0  0  0  3  0  0  0  0  0  0
  187.2480  177.1500  143.2870 C   0  0  0  0  0  3  0  0  0  0  0  0
  184.5200  177.9250  139.7340 C   0  0  2  0  0  3  0  0  0  0  0  0
  184.0170  178.2810  145.5110 F   0  0  0  0  0  0  0  0  0  0  0  0
  188.3000  178.5970  139.9480 C   0  0  0  0  0  2  0  0  0  0  0  0
  189.4650  176.3260  142.7760 C   0  0  0  0  0  3  0  0  0  0  0  0
  183.4800  177.7430  140.7630 N   0  0  0  0  0  2  0  0  0  0  0  0
  185.7540  178.7510  140.1640 C   0  0  2  0  0  3  0  0  0  0  0  0
  184.8440  179.6130  143.7210 C   0  0  0  0  0  2  0  0  0  0  0  0
  190.8730  176.9450  140.5330 Cl  0  0  0  0  0  0  0  0  0  0  0  0
  183.5460  178.7810  141.7830 C   0  0  1  0  0  3  0  0  0  0  0  0
  182.3300  178.7260  142.6660 C   0  0  0  0  0  3  0  0  0  0  0  0
  186.9530  178.3840  139.2670 C   0  0  0  0  0  2  0  0  0  0  0  0
  188.3390  177.8090  141.2220 C   0  0  0  0  0  0  0  0  0  0  0  0
  189.4620  177.0390  141.5740 C   0  0  0  0  0  0  0  0  0  0  0  0
  183.9080  178.5210  138.4730 C   0  0  0  0  0  2  0  0  0  0  0  0
  182.2780  176.9320  137.9940 C   0  0  0  0  0  1  0  0  0  0  0  0
  183.5520  177.4670  137.5290 N   0  0  0  0  0  0  0  0  0  0  0  0
  183.9480  175.1500  137.7290 O   0  0  0  0  0  1  0  0  0  0  0  0
  184.5600  176.4040  137.6300 C   0  0  1  0  0  3  0  0  0  0  0  0
  185.1350  177.1170  135.3700 C   0  0  0  0  0  2  0  0  0  0  0  0
  185.4850  176.4030  136.4400 C   0  0  0  0  0  0  0  0  0  0  0  0
  186.8090  175.6810  136.4500 C   0  0  0  0  0  0  0  0  0  0  0  0
  186.6600  174.4300  135.8820 F   0  0  0  0  0  0  0  0  0  0  0  0
  187.7640  176.3840  135.7340 F   0  0  0  0  0  0  0  0  0  0  0  0
  187.2510  175.5360  137.7530 F   0  0  0  0  0  0  0  0  0  0  0  0
  1  9  1  1  0  0  0
  2  3  1  6  0  0  0
  2  5  1  0  0  0  0
  3  7  1  0  0  0  0
  5 14  1  1  0  0  0
  6  1  1  0  0  0  0
  7  4  2  0  0  0  0
  8 21  1  6  0  0  0
  8 13  1  0  0  0  0
  8 12  1  0  0  0  0
 10 19  1  0  0  0  0
 11  4  1  0  0  0  0
 12 16  1  0  0  0  0
 13 18  1  6  0  0  0
 13  2  1  0  0  0  0
 14  1  1  0  0  0  0
 15 20  1  0  0  0  0
 16  5  1  0  0  0  0
 16 17  1  1  0  0  0
 17  6  2  0  0  0  0
 18 10  1  0  0  0  0
 19 20  1  0  0  0  0
 19  3  2  0  0  0  0
 20 11  2  0  0  0  0
 23 25  1  0  0  0  0
 23 22  1  0  0  0  0
 23 21  1  0  0  0  0
 25 24  1  6  0  0  0
 26 27  2  0  0  0  0
 27 28  1  0  0  0  0
 27 25  1  0  0  0  0
 28 31  1  0  0  0  0
 29 28  1  0  0  0  0
 30 28  1  0  0  0  0
M  END
>  <MODEL>
7

>  <REMARK>
 VINA RESULT:      -7.6      4.723      8.375
  Name = 
  5 active torsions:
  status: ('A' for Active; 'I' for Inactive)
    1  A    between atoms: C_1  and  C_19
    2  A    between atoms: N_9  and  C_22
    3  A    between atoms: N_9  and  C_23
    4  A    between atoms: C_15  and  C_23
    5  A    between atoms: C_19  and  C_22
                            x       y       z     vdW  Elec       q    Type
                         _______ _______ _______ _____ _____    ______ ____

>  <TORSDO>
F 5

$$$$
=
 OpenBabel10262419383D

 31 34  0  0  1  0  0  0  0  0999 V2000
  191.6800  177.1390  143.6270 C   0  0  1  0  0  3  0  0  0  0  0  0
  189.6150  178.0180  140.4790 C   0  0  2  0  0  3  0  0  0  0  0  0
  190.0000  177.1450  139.3050 C   0  0  0  0  0  0  0  0  0  0  0  0
  191.1780  175.2500  138.3440 C   0  0  0  0  0  3  0  0  0  0  0  0
  189.9420  177.4150  141.8490 C   0  0  1  0  0  3  0  0  0  0  0  0
  190.5260  177.0480  144.6010 C   0  0  0  0  0  3  0  0  0  0  0  0
  190.8020  176.0040  139.4590 C   0  0  0  0  0  3  0  0  0  0  0  0
  187.1090  177.9580  141.2500 C   0  0  2  0  0  3  0  0  0  0  0  0
  192.1160  175.8640  143.3200 F   0  0  0  0  0  0  0  0  0  0  0  0
  188.7610  178.7740  137.8740 C   0  0  0  0  0  2  0  0  0  0  0  0
  190.7660  175.6380  137.0670 C   0  0  0  0  0  3  0  0  0  0  0  0
  187.6040  177.2890  142.4660 N   0  0  0  0  0  2  0  0  0  0  0  0
  188.1850  178.6270  140.3640 C   0  0  2  0  0  3  0  0  0  0  0  0
  191.3120  177.8750  142.3340 C   0  0  0  0  0  2  0  0  0  0  0  0
  189.4920  177.2320  135.2700 Cl  0  0  0  0  0  0  0  0  0  0  0  0
  188.8970  177.8170  142.8810 C   0  0  1  0  0  3  0  0  0  0  0  0
  189.2550  177.3090  144.2510 C   0  0  0  0  0  3  0  0  0  0  0  0
  187.6540  178.7560  138.9230 C   0  0  0  0  0  2  0  0  0  0  0  0
  189.5940  177.5370  138.0160 C   0  0  0  0  0  0  0  0  0  0  0  0
  189.9800  176.7800  136.8950 C   0  0  0  0  0  0  0  0  0  0  0  0
  186.0310  178.9720  141.6130 C   0  0  0  0  0  2  0  0  0  0  0  0
  183.8550  178.1670  141.7800 C   0  0  0  0  0  1  0  0  0  0  0  0
  185.0750  178.3890  142.5480 N   0  0  0  0  0  0  0  0  0  0  0  0
  183.6080  180.0800  143.2950 O   0  0  0  0  0  1  0  0  0  0  0  0
  184.7860  179.3850  143.5880 C   0  0  1  0  0  3  0  0  0  0  0  0
  183.4300  178.6280  145.4690 C   0  0  0  0  0  2  0  0  0  0  0  0
  184.6500  178.7440  144.9460 C   0  0  0  0  0  0  0  0  0  0  0  0
  185.8330  178.1770  145.6900 C   0  0  0  0  0  0  0  0  0  0  0  0
  185.5390  178.0990  147.0390 F   0  0  0  0  0  0  0  0  0  0  0  0
  186.1490  176.9090  145.2310 F   0  0  0  0  0  0  0  0  0  0  0  0
  186.9320  178.9990  145.5140 F   0  0  0  0  0  0  0  0  0  0  0  0
  1  9  1  6  0  0  0
  1  6  1  0  0  0  0
  2  3  1  6  0  0  0
  2  5  1  0  0  0  0
  3  7  1  0  0  0  0
  4  7  2  0  0  0  0
  5 14  1  1  0  0  0
  5 16  1  0  0  0  0
  8 21  1  1  0  0  0
  8 12  1  0  0  0  0
 10 19  1  0  0  0  0
 10 18  1  0  0  0  0
 11  4  1  0  0  0  0
 12 16  1  0  0  0  0
 13 18  1  6  0  0  0
 13  2  1  0  0  0  0
 13  8  1  0  0  0  0
 14  1  1  0  0  0  0
 15 20  1  0  0  0  0
 16 17  1  1  0  0  0
 17  6  2  0  0  0  0
 19  3  2  0  0  0  0
 20 11  2  0  0  0  0
 20 19  1  0  0  0  0
 21 23  1  0  0  0  0
 22 23  1  0  0  0  0
 23 25  1  0  0  0  0
 25 24  1  6  0  0  0
 25 27  1  0  0  0  0
 27 26  2  0  0  0  0
 27 28  1  0  0  0  0
 28 29  1  0  0  0  0
 30 28  1  0  0  0  0
 31 28  1  0  0  0  0
M  END
>  <MODEL>
8

>  <REMARK>
 VINA RESULT:      -7.6      3.772      6.595
  Name = 
  5 active torsions:
  status: ('A' for Active; 'I' for Inactive)
    1  A    between atoms: C_1  and  C_19
    2  A    between atoms: N_9  and  C_22
    3  A    between atoms: N_9  and  C_23
    4  A    between atoms: C_15  and  C_23
    5  A    between atoms: C_19  and  C_22
                            x       y       z     vdW  Elec       q    Type
                         _______ _______ _______ _____ _____    ______ ____

>  <TORSDO>
F 5

$$$$
=
 OpenBabel10262419383D

 31 34  0  0  1  0  0  0  0  0999 V2000
  190.5570  176.7420  139.7120 C   0  0  1  0  0  3  0  0  0  0  0  0
  188.1490  177.2410  142.6950 C   0  0  2  0  0  3  0  0  0  0  0  0
  188.9060  177.3900  143.9970 C   0  0  0  0  0  0  0  0  0  0  0  0
  190.9650  177.6760  145.2530 C   0  0  0  0  0  3  0  0  0  0  0  0
  188.9640  177.5900  141.4460 C   0  0  1  0  0  3  0  0  0  0  0  0
  189.9460  177.7740  138.7900 C   0  0  0  0  0  3  0  0  0  0  0  0
  190.2940  177.5920  144.0300 C   0  0  0  0  0  3  0  0  0  0  0  0
  186.5670  179.2120  141.9930 C   0  0  2  0  0  3  0  0  0  0  0  0
  191.7390  177.2390  140.2300 F   0  0  0  0  0  0  0  0  0  0  0  0
  186.7190  177.0120  145.1430 C   0  0  0  0  0  2  0  0  0  0  0  0
  190.2570  177.5460  146.4490 C   0  0  0  0  0  3  0  0  0  0  0  0
  187.5280  179.4610  140.9040 N   0  0  0  0  0  2  0  0  0  0  0  0
  186.7180  177.8610  142.7280 C   0  0  2  0  0  3  0  0  0  0  0  0
  189.6260  176.3460  140.8630 C   0  0  0  0  0  2  0  0  0  0  0  0
  188.0290  177.1670  147.9630 Cl  0  0  0  0  0  0  0  0  0  0  0  0
  188.0800  178.2190  140.3790 C   0  0  1  0  0  3  0  0  0  0  0  0
  188.8490  178.4800  139.1130 C   0  0  0  0  0  3  0  0  0  0  0  0
  186.0960  177.9700  144.1340 C   0  0  0  0  0  2  0  0  0  0  0  0
  188.1970  177.2530  145.2050 C   0  0  0  0  0  0  0  0  0  0  0  0
  188.8760  177.3300  146.4330 C   0  0  0  0  0  0  0  0  0  0  0  0
  185.1410  179.3660  141.4770 C   0  0  0  0  0  2  0  0  0  0  0  0
  184.5340  178.5040  139.4030 C   0  0  0  0  0  1  0  0  0  0  0  0
  184.7050  178.1460  140.8060 N   0  0  0  0  0  0  0  0  0  0  0  0
  182.9950  178.6640  142.3460 O   0  0  0  0  0  1  0  0  0  0  0  0
  183.3930  177.7700  141.3460 C   0  0  1  0  0  3  0  0  0  0  0  0
  181.7420  178.8860  139.9390 C   0  0  0  0  0  2  0  0  0  0  0  0
  182.3390  177.7400  140.2690 C   0  0  0  0  0  0  0  0  0  0  0  0
  181.9910  176.4790  139.5180 C   0  0  0  0  0  0  0  0  0  0  0  0
  180.8660  175.9020  140.0770 F   0  0  0  0  0  0  0  0  0  0  0  0
  181.7360  176.7500  138.1840 F   0  0  0  0  0  0  0  0  0  0  0  0
  183.0430  175.5850  139.5960 F   0  0  0  0  0  0  0  0  0  0  0  0
  1  9  1  1  0  0  0
  1 14  1  0  0  0  0
  2 13  1  0  0  0  0
  2  3  1  1  0  0  0
  3  7  2  0  0  0  0
  3 19  1  0  0  0  0
  4 11  2  0  0  0  0
  5 14  1  6  0  0  0
  5  2  1  0  0  0  0
  6 17  2  0  0  0  0
  6  1  1  0  0  0  0
  7  4  1  0  0  0  0
  8 21  1  6  0  0  0
  8 13  1  0  0  0  0
 10 19  1  0  0  0  0
 12  8  1  0  0  0  0
 13 18  1  1  0  0  0
 16 17  1  6  0  0  0
 16 12  1  0  0  0  0
 16  5  1  0  0  0  0
 18 10  1  0  0  0  0
 19 20  2  0  0  0  0
 20 11  1  0  0  0  0
 20 15  1  0  0  0  0
 22 23  1  0  0  0  0
 23 25  1  0  0  0  0
 23 21  1  0  0  0  0
 25 24  1  1  0  0  0
 26 27  2  0  0  0  0
 27 25  1  0  0  0  0
 28 31  1  0  0  0  0
 28 29  1  0  0  0  0
 28 27  1  0  0  0  0
 30 28  1  0  0  0  0
M  END
>  <MODEL>
9

>  <REMARK>
 VINA RESULT:      -7.5      3.810      7.549
  Name = 
  5 active torsions:
  status: ('A' for Active; 'I' for Inactive)
    1  A    between atoms: C_1  and  C_19
    2  A    between atoms: N_9  and  C_22
    3  A    between atoms: N_9  and  C_23
    4  A    between atoms: C_15  and  C_23
    5  A    between atoms: C_19  and  C_22
                            x       y       z     vdW  Elec       q    Type
                         _______ _______ _______ _____ _____    ______ ____

>  <TORSDO>
F 5

$$$$
