=
 OpenBabel10262420073D

 27 30  0  0  1  0  0  0  0  0999 V2000
  189.1550  178.1320  143.5170 C   0  0  1  0  0  3  0  0  0  0  0  0
  189.6560  177.9250  142.1520 N   0  0  0  0  0  0  0  0  0  0  0  0
  187.7660  178.9340  141.2090 O   0  0  0  0  0  0  0  0  0  0  0  0
  190.7440  176.3950  138.2390 C   0  0  0  0  0  2  0  0  0  0  0  0
  189.7850  176.7790  137.1010 C   0  0  0  0  0  2  0  0  0  0  0  0
  191.0170  177.4320  141.9180 C   0  0  0  0  0  2  0  0  0  0  0  0
  188.5790  178.4940  138.5230 C   0  0  1  0  0  3  0  0  0  0  0  0
  187.2250  178.2880  138.3250 F   0  0  0  0  0  0  0  0  0  0  0  0
  189.0650  177.6100  139.6870 C   0  0  1  0  0  3  0  0  0  0  0  0
  189.3330  178.2360  137.2090 C   0  0  0  0  0  2  0  0  0  0  0  0
  190.5410  177.2310  139.5070 C   0  0  1  0  0  3  0  0  0  0  0  0
  188.8010  178.2340  141.0340 C   0  0  0  0  0  0  0  0  0  0  0  0
  191.0610  176.4880  140.7250 C   0  0  0  0  0  2  0  0  0  0  0  0
  187.8850  177.3300  143.8290 C   0  0  0  0  0  2  0  0  0  0  0  0
  184.1580  178.5270  146.2660 C   0  0  0  0  0  3  0  0  0  0  0  0
  183.7080  178.8460  145.0450 C   0  0  0  0  0  3  0  0  0  0  0  0
  186.7860  178.1680  144.4640 C   0  0  1  0  0  3  0  0  0  0  0  0
  185.6080  178.5740  146.6470 C   0  0  0  0  0  2  0  0  0  0  0  0
  184.6050  179.2860  143.9250 C   0  0  0  0  0  2  0  0  0  0  0  0
  185.5790  178.1820  143.5360 C   0  0  0  0  0  2  0  0  0  0  0  0
  186.4240  177.5830  145.8260 C   0  0  0  0  0  2  0  0  0  0  0  0
  190.2360  178.1100  144.6080 C   0  0  0  0  0  2  0  0  0  0  0  0
  191.0470  176.8770  147.6560 O   0  0  0  0  0  0  0  0  0  0  0  0
  191.5540  176.2710  145.5790 C   0  0  0  0  0  3  0  0  0  0  0  0
  191.9860  176.3000  146.8240 C   0  0  0  0  0  3  0  0  0  0  0  0
  189.8940  177.2740  146.9360 C   0  0  0  0  0  2  0  0  0  0  0  0
  190.1910  176.8710  145.4930 C   0  0  1  0  0  3  0  0  0  0  0  0
  1 14  1  1  0  0  0
  1 22  1  0  0  0  0
  2  1  1  0  0  0  0
  5 10  1  0  0  0  0
  5  4  1  0  0  0  0
  6  2  1  0  0  0  0
  7  8  1  6  0  0  0
  7  9  1  0  0  0  0
  9 12  1  1  0  0  0
 10  7  1  0  0  0  0
 11  4  1  6  0  0  0
 11  9  1  0  0  0  0
 11 13  1  0  0  0  0
 12  3  2  0  0  0  0
 12  2  1  0  0  0  0
 13  6  1  0  0  0  0
 15 18  1  0  0  0  0
 16 15  2  0  0  0  0
 17 14  1  6  0  0  0
 17 21  1  0  0  0  0
 19 16  1  0  0  0  0
 20 19  1  0  0  0  0
 20 17  1  0  0  0  0
 21 18  1  0  0  0  0
 24 25  2  0  0  0  0
 25 23  1  0  0  0  0
 26 23  1  0  0  0  0
 27 22  1  6  0  0  0
 27 24  1  0  0  0  0
 27 26  1  0  0  0  0
M  END
>  <MODEL>
1

>  <REMARK>
 VINA RESULT:      -9.2      0.000      0.000
  Name = 
  5 active torsions:
  status: ('A' for Active; 'I' for Inactive)
    1  A    between atoms: C_1  and  C_15
    2  A    between atoms: C_1  and  C_18
    3  A    between atoms: N_2  and  C_15
    4  A    between atoms: C_9  and  C_15
    5  A    between atoms: C_9  and  C_27
                            x       y       z     vdW  Elec       q    Type
                         _______ _______ _______ _____ _____    ______ ____

>  <TORSDO>
F 5

$$$$
=
 OpenBabel10262420073D

 27 30  0  0  1  0  0  0  0  0999 V2000
  188.7960  178.1220  142.5100 C   0  0  1  0  0  3  0  0  0  0  0  0
  189.2590  177.8560  141.1420 N   0  0  0  0  0  0  0  0  0  0  0  0
  187.3310  178.8020  140.2110 O   0  0  0  0  0  0  0  0  0  0  0  0
  190.2480  176.1560  137.2730 C   0  0  0  0  0  2  0  0  0  0  0  0
  189.2510  176.4770  136.1490 C   0  0  0  0  0  2  0  0  0  0  0  0
  190.6180  177.3660  140.8900 C   0  0  0  0  0  2  0  0  0  0  0  0
  188.0690  178.2440  137.5250 C   0  0  1  0  0  3  0  0  0  0  0  0
  186.7120  178.0170  137.3770 F   0  0  0  0  0  0  0  0  0  0  0  0
  188.5990  177.4210  138.7130 C   0  0  1  0  0  3  0  0  0  0  0  0
  188.7860  177.9330  136.2030 C   0  0  0  0  0  2  0  0  0  0  0  0
  190.0720  177.0480  138.5070 C   0  0  1  0  0  3  0  0  0  0  0  0
  188.3680  178.1050  140.0380 C   0  0  0  0  0  0  0  0  0  0  0  0
  190.6370  176.3680  139.7420 C   0  0  0  0  0  2  0  0  0  0  0  0
  187.5410  177.3270  142.8960 C   0  0  0  0  0  2  0  0  0  0  0  0
  184.0190  178.6160  145.5780 C   0  0  0  0  0  3  0  0  0  0  0  0
  183.4330  178.7840  144.3850 C   0  0  0  0  0  3  0  0  0  0  0  0
  186.4680  178.1810  143.5550 C   0  0  1  0  0  3  0  0  0  0  0  0
  185.4960  178.7660  145.7970 C   0  0  0  0  0  2  0  0  0  0  0  0
  184.1870  179.1400  143.1380 C   0  0  0  0  0  2  0  0  0  0  0  0
  185.1750  178.0430  142.7630 C   0  0  0  0  0  2  0  0  0  0  0  0
  186.2780  177.7300  145.0000 C   0  0  0  0  0  2  0  0  0  0  0  0
  189.9080  178.1560  143.5700 C   0  0  0  0  0  2  0  0  0  0  0  0
  190.8990  177.0210  146.6020 O   0  0  0  0  0  0  0  0  0  0  0  0
  191.2730  176.3400  144.5200 C   0  0  0  0  0  3  0  0  0  0  0  0
  191.7810  176.4080  145.7350 C   0  0  0  0  0  3  0  0  0  0  0  0
  189.7060  177.4020  145.9410 C   0  0  0  0  0  2  0  0  0  0  0  0
  189.9100  176.9480  144.4980 C   0  0  1  0  0  3  0  0  0  0  0  0
  1 14  1  1  0  0  0
  1 22  1  0  0  0  0
  2  1  1  0  0  0  0
  5 10  1  0  0  0  0
  5  4  1  0  0  0  0
  6  2  1  0  0  0  0
  7  8  1  6  0  0  0
  7  9  1  0  0  0  0
  9 12  1  1  0  0  0
 10  7  1  0  0  0  0
 11  4  1  6  0  0  0
 11  9  1  0  0  0  0
 11 13  1  0  0  0  0
 12  3  2  0  0  0  0
 12  2  1  0  0  0  0
 13  6  1  0  0  0  0
 15 18  1  0  0  0  0
 16 15  2  0  0  0  0
 17 14  1  6  0  0  0
 17 21  1  0  0  0  0
 19 16  1  0  0  0  0
 20 19  1  0  0  0  0
 20 17  1  0  0  0  0
 21 18  1  0  0  0  0
 24 25  2  0  0  0  0
 25 23  1  0  0  0  0
 26 23  1  0  0  0  0
 27 22  1  6  0  0  0
 27 24  1  0  0  0  0
 27 26  1  0  0  0  0
M  END
>  <MODEL>
2

>  <REMARK>
 VINA RESULT:      -9.0      0.959      1.036
  Name = 
  5 active torsions:
  status: ('A' for Active; 'I' for Inactive)
    1  A    between atoms: C_1  and  C_15
    2  A    between atoms: C_1  and  C_18
    3  A    between atoms: N_2  and  C_15
    4  A    between atoms: C_9  and  C_15
    5  A    between atoms: C_9  and  C_27
                            x       y       z     vdW  Elec       q    Type
                         _______ _______ _______ _____ _____    ______ ____

>  <TORSDO>
F 5

$$$$
=
 OpenBabel10262420073D

 27 30  0  0  1  0  0  0  0  0999 V2000
  186.7840  178.5810  142.4850 C   0  0  1  0  0  3  0  0  0  0  0  0
  185.4220  178.7170  141.9520 N   0  0  0  0  0  0  0  0  0  0  0  0
  184.5360  179.1300  144.0790 O   0  0  0  0  0  0  0  0  0  0  0  0
  181.4010  178.1170  140.4350 C   0  0  0  0  0  2  0  0  0  0  0  0
  180.2820  178.2840  141.4750 C   0  0  0  0  0  2  0  0  0  0  0  0
  185.1800  178.7440  140.5060 C   0  0  0  0  0  2  0  0  0  0  0  0
  181.8470  179.3090  143.1830 C   0  0  1  0  0  3  0  0  0  0  0  0
  181.5810  178.6830  144.3870 F   0  0  0  0  0  0  0  0  0  0  0  0
  182.9190  178.5130  142.4170 C   0  0  1  0  0  3  0  0  0  0  0  0
  180.5380  179.4780  142.3950 C   0  0  0  0  0  2  0  0  0  0  0  0
  182.7480  178.6790  140.9020 C   0  0  1  0  0  3  0  0  0  0  0  0
  184.3180  178.8480  142.8690 C   0  0  0  0  0  0  0  0  0  0  0  0
  183.8910  178.0180  140.1520 C   0  0  0  0  0  2  0  0  0  0  0  0
  186.9620  177.3630  143.4030 C   0  0  0  0  0  2  0  0  0  0  0  0
  189.4390  176.9390  147.2680 C   0  0  0  0  0  3  0  0  0  0  0  0
  188.2440  177.1830  147.8240 C   0  0  0  0  0  3  0  0  0  0  0  0
  187.6520  177.6970  144.7170 C   0  0  1  0  0  3  0  0  0  0  0  0
  189.8440  177.4660  145.9230 C   0  0  0  0  0  2  0  0  0  0  0  0
  187.1800  178.0090  147.1620 C   0  0  0  0  0  2  0  0  0  0  0  0
  186.7110  177.3620  145.8660 C   0  0  0  0  0  2  0  0  0  0  0  0
  188.9520  176.9060  144.8230 C   0  0  0  0  0  2  0  0  0  0  0  0
  187.9020  178.8000  141.4550 C   0  0  0  0  0  2  0  0  0  0  0  0
  190.7530  177.4880  140.1830 O   0  0  0  0  0  0  0  0  0  0  0  0
  188.6390  177.4960  139.4990 C   0  0  0  0  0  3  0  0  0  0  0  0
  189.8950  177.4810  139.1010 C   0  0  0  0  0  3  0  0  0  0  0  0
  190.0410  177.5120  141.4070 C   0  0  0  0  0  2  0  0  0  0  0  0
  188.5720  177.5130  140.9900 C   0  0  1  0  0  3  0  0  0  0  0  0
  1 22  1  6  0  0  0
  1 14  1  0  0  0  0
  2  1  1  0  0  0  0
  2 12  1  0  0  0  0
  4 11  1  0  0  0  0
  4  5  1  0  0  0  0
  5 10  1  0  0  0  0
  6  2  1  0  0  0  0
  7  8  1  1  0  0  0
  9 12  1  1  0  0  0
  9  7  1  0  0  0  0
 10  7  1  0  0  0  0
 11 13  1  6  0  0  0
 11  9  1  0  0  0  0
 12  3  2  0  0  0  0
 13  6  1  0  0  0  0
 15 16  2  0  0  0  0
 17 14  1  6  0  0  0
 17 21  1  0  0  0  0
 17 20  1  0  0  0  0
 18 15  1  0  0  0  0
 19 16  1  0  0  0  0
 20 19  1  0  0  0  0
 21 18  1  0  0  0  0
 23 26  1  0  0  0  0
 24 27  1  0  0  0  0
 25 24  2  0  0  0  0
 25 23  1  0  0  0  0
 27 26  1  0  0  0  0
 27 22  1  6  0  0  0
M  END
>  <MODEL>
3

>  <REMARK>
 VINA RESULT:      -8.7      3.063      6.314
  Name = 
  5 active torsions:
  status: ('A' for Active; 'I' for Inactive)
    1  A    between atoms: C_1  and  C_15
    2  A    between atoms: C_1  and  C_18
    3  A    between atoms: N_2  and  C_15
    4  A    between atoms: C_9  and  C_15
    5  A    between atoms: C_9  and  C_27
                            x       y       z     vdW  Elec       q    Type
                         _______ _______ _______ _____ _____    ______ ____

>  <TORSDO>
F 5

$$$$
=
 OpenBabel10262420073D

 27 30  0  0  1  0  0  0  0  0999 V2000
  188.7190  178.2970  142.0440 C   0  0  1  0  0  3  0  0  0  0  0  0
  187.3030  178.1690  142.4140 N   0  0  0  0  0  0  0  0  0  0  0  0
  186.5940  178.8090  140.2770 O   0  0  0  0  0  0  0  0  0  0  0  0
  183.2540  178.7130  143.8790 C   0  0  0  0  0  2  0  0  0  0  0  0
  182.2360  179.1650  142.8210 C   0  0  0  0  0  2  0  0  0  0  0  0
  186.9130  177.5880  143.7030 C   0  0  0  0  0  2  0  0  0  0  0  0
  183.8260  178.7000  140.9040 C   0  0  1  0  0  3  0  0  0  0  0  0
  183.7650  179.7990  140.0670 F   0  0  0  0  0  0  0  0  0  0  0  0
  184.9060  178.9340  141.9770 C   0  0  1  0  0  3  0  0  0  0  0  0
  182.4330  178.4290  141.4940 C   0  0  0  0  0  2  0  0  0  0  0  0
  184.5610  178.1890  143.2730 C   0  0  1  0  0  3  0  0  0  0  0  0
  186.2910  178.6000  141.4830 C   0  0  0  0  0  0  0  0  0  0  0  0
  185.6950  178.2960  144.2780 C   0  0  0  0  0  2  0  0  0  0  0  0
  189.6100  178.7760  143.1980 C   0  0  0  0  0  2  0  0  0  0  0  0
  190.8490  176.6450  147.0940 C   0  0  0  0  0  3  0  0  0  0  0  0
  191.8710  176.2550  146.3200 C   0  0  0  0  0  3  0  0  0  0  0  0
  189.9370  177.6790  144.2000 C   0  0  1  0  0  3  0  0  0  0  0  0
  189.4800  176.9450  146.5590 C   0  0  0  0  0  2  0  0  0  0  0  0
  191.7590  176.0750  144.8350 C   0  0  0  0  0  2  0  0  0  0  0  0
  191.4310  177.3930  144.1460 C   0  0  0  0  0  2  0  0  0  0  0  0
  189.5130  178.1250  145.5960 C   0  0  0  0  0  2  0  0  0  0  0  0
  189.2760  177.1260  141.2200 C   0  0  0  0  0  2  0  0  0  0  0  0
  190.0220  176.0200  138.1080 O   0  0  0  0  0  0  0  0  0  0  0  0
  191.2120  177.0100  139.7020 C   0  0  0  0  0  3  0  0  0  0  0  0
  191.2630  176.1600  138.6970 C   0  0  0  0  0  3  0  0  0  0  0  0
  189.0520  176.8260  138.7520 C   0  0  0  0  0  2  0  0  0  0  0  0
  189.8250  177.5380  139.8590 C   0  0  1  0  0  3  0  0  0  0  0  0
  1 22  1  1  0  0  0
  1  2  1  0  0  0  0
  1 14  1  0  0  0  0
  2  6  1  0  0  0  0
  3 12  2  0  0  0  0
  5  4  1  0  0  0  0
  6 13  1  0  0  0  0
  7  8  1  6  0  0  0
  7 10  1  0  0  0  0
  7  9  1  0  0  0  0
  9 12  1  6  0  0  0
  9 11  1  0  0  0  0
 10  5  1  0  0  0  0
 11  4  1  1  0  0  0
 11 13  1  0  0  0  0
 12  2  1  0  0  0  0
 16 15  2  0  0  0  0
 17 14  1  6  0  0  0
 17 21  1  0  0  0  0
 18 15  1  0  0  0  0
 19 16  1  0  0  0  0
 20 17  1  0  0  0  0
 20 19  1  0  0  0  0
 21 18  1  0  0  0  0
 23 25  1  0  0  0  0
 23 26  1  0  0  0  0
 24 27  1  0  0  0  0
 25 24  2  0  0  0  0
 26 27  1  0  0  0  0
 27 22  1  1  0  0  0
M  END
>  <MODEL>
4

>  <REMARK>
 VINA RESULT:      -8.5      2.334      6.177
  Name = 
  5 active torsions:
  status: ('A' for Active; 'I' for Inactive)
    1  A    between atoms: C_1  and  C_15
    2  A    between atoms: C_1  and  C_18
    3  A    between atoms: N_2  and  C_15
    4  A    between atoms: C_9  and  C_15
    5  A    between atoms: C_9  and  C_27
                            x       y       z     vdW  Elec       q    Type
                         _______ _______ _______ _____ _____    ______ ____

>  <TORSDO>
F 5

$$$$
=
 OpenBabel10262420073D

 27 30  0  0  1  0  0  0  0  0999 V2000
  188.5540  177.9160  142.1420 C   0  0  1  0  0  3  0  0  0  0  0  0
  189.1100  177.7440  140.7940 N   0  0  0  0  0  0  0  0  0  0  0  0
  187.1690  178.5840  139.7900 O   0  0  0  0  0  0  0  0  0  0  0  0
  190.4350  176.2890  136.9250 C   0  0  0  0  0  2  0  0  0  0  0  0
  189.4800  176.5830  135.7590 C   0  0  0  0  0  2  0  0  0  0  0  0
  190.5140  177.3660  140.6020 C   0  0  0  0  0  2  0  0  0  0  0  0
  188.0920  178.1980  137.1320 C   0  0  1  0  0  3  0  0  0  0  0  0
  186.7680  177.8770  136.8970 F   0  0  0  0  0  0  0  0  0  0  0  0
  188.6190  177.3660  138.3160 C   0  0  1  0  0  3  0  0  0  0  0  0
  188.9030  177.9970  135.8420 C   0  0  0  0  0  2  0  0  0  0  0  0
  190.1250  177.1120  138.1810 C   0  0  1  0  0  3  0  0  0  0  0  0
  188.2640  177.9730  139.6500 C   0  0  0  0  0  0  0  0  0  0  0  0
  190.6720  176.4230  139.4180 C   0  0  0  0  0  2  0  0  0  0  0  0
  189.5720  178.4560  143.1570 C   0  0  0  0  0  2  0  0  0  0  0  0
  190.7220  176.7410  147.2800 C   0  0  0  0  0  3  0  0  0  0  0  0
  191.7820  176.3100  146.5820 C   0  0  0  0  0  3  0  0  0  0  0  0
  189.8900  177.4690  144.2700 C   0  0  1  0  0  3  0  0  0  0  0  0
  189.3660  176.9480  146.6730 C   0  0  0  0  0  2  0  0  0  0  0  0
  191.7290  175.9870  145.1180 C   0  0  0  0  0  2  0  0  0  0  0  0
  191.3930  177.2240  144.2950 C   0  0  0  0  0  2  0  0  0  0  0  0
  189.4030  178.0320  145.6020 C   0  0  0  0  0  2  0  0  0  0  0  0
  187.1660  178.5730  142.1860 C   0  0  0  0  0  2  0  0  0  0  0  0
  184.0410  178.6300  143.4880 O   0  0  0  0  0  0  0  0  0  0  0  0
  186.0460  178.2080  144.3480 C   0  0  0  0  0  3  0  0  0  0  0  0
  184.8480  178.6930  144.6070 C   0  0  0  0  0  3  0  0  0  0  0  0
  184.7290  178.0670  142.3860 C   0  0  0  0  0  2  0  0  0  0  0  0
  186.1200  177.7510  142.9300 C   0  0  1  0  0  3  0  0  0  0  0  0
  1 22  1  6  0  0  0
  1 14  1  0  0  0  0
  2  1  1  0  0  0  0
  5 10  1  0  0  0  0
  5  4  1  0  0  0  0
  6  2  1  0  0  0  0
  7  8  1  6  0  0  0
  7  9  1  0  0  0  0
  9 12  1  1  0  0  0
 10  7  1  0  0  0  0
 11  4  1  6  0  0  0
 11  9  1  0  0  0  0
 11 13  1  0  0  0  0
 12  3  2  0  0  0  0
 12  2  1  0  0  0  0
 13  6  1  0  0  0  0
 16 15  2  0  0  0  0
 17 14  1  6  0  0  0
 17 20  1  0  0  0  0
 17 21  1  0  0  0  0
 18 15  1  0  0  0  0
 19 16  1  0  0  0  0
 20 19  1  0  0  0  0
 21 18  1  0  0  0  0
 23 25  1  0  0  0  0
 24 25  2  0  0  0  0
 26 27  1  0  0  0  0
 26 23  1  0  0  0  0
 27 22  1  6  0  0  0
 27 24  1  0  0  0  0
M  END
>  <MODEL>
5

>  <REMARK>
 VINA RESULT:      -7.8      2.010      4.481
  Name = 
  5 active torsions:
  status: ('A' for Active; 'I' for Inactive)
    1  A    between atoms: C_1  and  C_15
    2  A    between atoms: C_1  and  C_18
    3  A    between atoms: N_2  and  C_15
    4  A    between atoms: C_9  and  C_15
    5  A    between atoms: C_9  and  C_27
                            x       y       z     vdW  Elec       q    Type
                         _______ _______ _______ _____ _____    ______ ____

>  <TORSDO>
F 5

$$$$
=
 OpenBabel10262420073D

 27 30  0  0  1  0  0  0  0  0999 V2000
  186.8510  178.0200  142.5500 C   0  0  1  0  0  3  0  0  0  0  0  0
  187.8190  178.0050  141.4450 N   0  0  0  0  0  0  0  0  0  0  0  0
  186.1860  178.6290  139.8880 O   0  0  0  0  0  0  0  0  0  0  0  0
  190.4850  176.9750  138.1790 C   0  0  0  0  0  2  0  0  0  0  0  0
  189.9090  177.2040  136.7740 C   0  0  0  0  0  2  0  0  0  0  0  0
  189.2520  177.8350  141.7040 C   0  0  0  0  0  2  0  0  0  0  0  0
  187.9390  178.5300  137.6560 C   0  0  1  0  0  3  0  0  0  0  0  0
  186.8170  178.0460  137.0090 F   0  0  0  0  0  0  0  0  0  0  0  0
  188.1860  177.7100  138.9350 C   0  0  1  0  0  3  0  0  0  0  0  0
  189.1320  178.5180  136.6870 C   0  0  0  0  0  2  0  0  0  0  0  0
  189.6800  177.6720  139.2820 C   0  0  1  0  0  3  0  0  0  0  0  0
  187.3470  178.1840  140.0950 C   0  0  0  0  0  0  0  0  0  0  0  0
  189.9090  176.9930  140.6200 C   0  0  0  0  0  2  0  0  0  0  0  0
  187.1640  176.9980  143.6500 C   0  0  0  0  0  2  0  0  0  0  0  0
  189.0220  177.5540  147.8340 C   0  0  0  0  0  3  0  0  0  0  0  0
  187.7400  177.7750  148.1540 C   0  0  0  0  0  3  0  0  0  0  0  0
  187.6120  177.6390  144.9560 C   0  0  1  0  0  3  0  0  0  0  0  0
  189.5960  177.8590  146.4820 C   0  0  0  0  0  2  0  0  0  0  0  0
  186.7380  178.3510  147.1980 C   0  0  0  0  0  2  0  0  0  0  0  0
  186.5270  177.4300  146.0040 C   0  0  0  0  0  2  0  0  0  0  0  0
  188.9320  177.0170  145.4000 C   0  0  0  0  0  2  0  0  0  0  0  0
  186.4600  179.4230  143.0420 C   0  0  0  0  0  2  0  0  0  0  0  0
  183.6520  179.4010  144.9340 O   0  0  0  0  0  0  0  0  0  0  0  0
  184.2280  178.3800  143.0470 C   0  0  0  0  0  3  0  0  0  0  0  0
  183.5060  178.2780  144.1440 C   0  0  0  0  0  3  0  0  0  0  0  0
  184.5340  180.3370  144.3430 C   0  0  0  0  0  2  0  0  0  0  0  0
  184.9580  179.6820  143.0300 C   0  0  1  0  0  3  0  0  0  0  0  0
  1 22  1  1  0  0  0
  1 14  1  0  0  0  0
  2  6  1  0  0  0  0
  2  1  1  0  0  0  0
  3 12  2  0  0  0  0
  5  4  1  0  0  0  0
  7  8  1  6  0  0  0
  7  9  1  0  0  0  0
  9 11  1  0  0  0  0
  9 12  1  1  0  0  0
 10  5  1  0  0  0  0
 10  7  1  0  0  0  0
 11  4  1  6  0  0  0
 11 13  1  0  0  0  0
 12  2  1  0  0  0  0
 13  6  1  0  0  0  0
 15 16  2  0  0  0  0
 17 14  1  6  0  0  0
 17 21  1  0  0  0  0
 17 20  1  0  0  0  0
 18 15  1  0  0  0  0
 19 16  1  0  0  0  0
 20 19  1  0  0  0  0
 21 18  1  0  0  0  0
 24 25  2  0  0  0  0
 25 23  1  0  0  0  0
 26 23  1  0  0  0  0
 27 22  1  1  0  0  0
 27 24  1  0  0  0  0
 27 26  1  0  0  0  0
M  END
>  <MODEL>
6

>  <REMARK>
 VINA RESULT:      -7.8      2.154      4.094
  Name = 
  5 active torsions:
  status: ('A' for Active; 'I' for Inactive)
    1  A    between atoms: C_1  and  C_15
    2  A    between atoms: C_1  and  C_18
    3  A    between atoms: N_2  and  C_15
    4  A    between atoms: C_9  and  C_15
    5  A    between atoms: C_9  and  C_27
                            x       y       z     vdW  Elec       q    Type
                         _______ _______ _______ _____ _____    ______ ____

>  <TORSDO>
F 5

$$$$
=
 OpenBabel10262420073D

 27 30  0  0  1  0  0  0  0  0999 V2000
  188.7050  177.8610  142.1300 C   0  0  1  0  0  3  0  0  0  0  0  0
  188.7360  177.6190  140.6820 N   0  0  0  0  0  0  0  0  0  0  0  0
  190.4160  176.0030  140.8990 O   0  0  0  0  0  0  0  0  0  0  0  0
  189.4300  177.7100  136.3990 C   0  0  0  0  0  2  0  0  0  0  0  0
  190.5240  176.7550  135.8970 C   0  0  0  0  0  2  0  0  0  0  0  0
  187.7360  178.2230  139.7970 C   0  0  0  0  0  2  0  0  0  0  0  0
  190.6440  175.5240  138.1080 C   0  0  1  0  0  3  0  0  0  0  0  0
  191.9870  175.3900  138.4120 F   0  0  0  0  0  0  0  0  0  0  0  0
  190.1220  176.8570  138.6760 C   0  0  1  0  0  3  0  0  0  0  0  0
  190.4480  175.3940  136.5900 C   0  0  0  0  0  2  0  0  0  0  0  0
  188.9660  177.3990  137.8260 C   0  0  1  0  0  3  0  0  0  0  0  0
  189.7540  176.7570  140.1350 C   0  0  0  0  0  0  0  0  0  0  0  0
  188.3540  178.6320  138.4680 C   0  0  0  0  0  2  0  0  0  0  0  0
  187.5570  177.1350  142.8450 C   0  0  0  0  0  2  0  0  0  0  0  0
  184.5560  178.6280  146.0110 C   0  0  0  0  0  3  0  0  0  0  0  0
  183.8880  179.0030  144.9120 C   0  0  0  0  0  3  0  0  0  0  0  0
  186.6980  178.0600  143.6950 C   0  0  1  0  0  3  0  0  0  0  0  0
  186.0520  178.5400  146.0750 C   0  0  0  0  0  2  0  0  0  0  0  0
  184.5620  179.3760  143.6240 C   0  0  0  0  0  2  0  0  0  0  0  0
  185.3280  178.1940  143.0440 C   0  0  0  0  0  2  0  0  0  0  0  0
  186.5830  177.4910  145.1060 C   0  0  0  0  0  2  0  0  0  0  0  0
  190.0730  177.7800  142.8250 C   0  0  0  0  0  2  0  0  0  0  0  0
  191.5410  177.4940  145.8630 O   0  0  0  0  0  0  0  0  0  0  0  0
  191.1980  176.0680  144.1930 C   0  0  0  0  0  3  0  0  0  0  0  0
  192.0070  176.3850  145.1840 C   0  0  0  0  0  3  0  0  0  0  0  0
  190.3330  177.9730  145.3010 C   0  0  0  0  0  2  0  0  0  0  0  0
  190.0480  177.0170  144.1450 C   0  0  1  0  0  3  0  0  0  0  0  0
  1 22  1  1  0  0  0
  1 14  1  0  0  0  0
  2  1  1  0  0  0  0
  5  4  1  0  0  0  0
  5 10  1  0  0  0  0
  6  2  1  0  0  0  0
  7  8  1  6  0  0  0
  7  9  1  0  0  0  0
  9 12  1  1  0  0  0
 10  7  1  0  0  0  0
 11  4  1  6  0  0  0
 11 13  1  0  0  0  0
 11  9  1  0  0  0  0
 12  2  1  0  0  0  0
 12  3  2  0  0  0  0
 13  6  1  0  0  0  0
 15 18  1  0  0  0  0
 16 15  2  0  0  0  0
 17 14  1  6  0  0  0
 17 21  1  0  0  0  0
 19 16  1  0  0  0  0
 20 19  1  0  0  0  0
 20 17  1  0  0  0  0
 21 18  1  0  0  0  0
 24 25  2  0  0  0  0
 25 23  1  0  0  0  0
 26 23  1  0  0  0  0
 27 22  1  6  0  0  0
 27 24  1  0  0  0  0
 27 26  1  0  0  0  0
M  END
>  <MODEL>
7

>  <REMARK>
 VINA RESULT:      -7.7      1.699      2.352
  Name = 
  5 active torsions:
  status: ('A' for Active; 'I' for Inactive)
    1  A    between atoms: C_1  and  C_15
    2  A    between atoms: C_1  and  C_18
    3  A    between atoms: N_2  and  C_15
    4  A    between atoms: C_9  and  C_15
    5  A    between atoms: C_9  and  C_27
                            x       y       z     vdW  Elec       q    Type
                         _______ _______ _______ _____ _____    ______ ____

>  <TORSDO>
F 5

$$$$
=
 OpenBabel10262420073D

 27 30  0  0  1  0  0  0  0  0999 V2000
  188.4240  178.2020  140.4540 C   0  0  1  0  0  3  0  0  0  0  0  0
  187.2640  178.2510  139.5550 N   0  0  0  0  0  0  0  0  0  0  0  0
  185.9390  179.2980  141.1760 O   0  0  0  0  0  0  0  0  0  0  0  0
  183.6980  177.4530  137.2130 C   0  0  0  0  0  2  0  0  0  0  0  0
  182.3870  177.9670  137.8290 C   0  0  0  0  0  2  0  0  0  0  0  0
  187.3910  177.8780  138.1420 C   0  0  0  0  0  2  0  0  0  0  0  0
  183.5980  179.3540  139.5690 C   0  0  1  0  0  3  0  0  0  0  0  0
  182.9670  179.1110  140.7750 F   0  0  0  0  0  0  0  0  0  0  0  0
  184.7180  178.3180  139.3590 C   0  0  1  0  0  3  0  0  0  0  0  0
  182.5570  179.3590  138.4390 C   0  0  0  0  0  2  0  0  0  0  0  0
  184.9480  178.0550  137.8650 C   0  0  1  0  0  3  0  0  0  0  0  0
  185.9930  178.6950  140.0700 C   0  0  0  0  0  0  0  0  0  0  0  0
  186.1480  177.1490  137.6530 C   0  0  0  0  0  2  0  0  0  0  0  0
  188.3030  177.1330  141.5480 C   0  0  0  0  0  2  0  0  0  0  0  0
  189.2570  177.6300  146.0320 C   0  0  0  0  0  3  0  0  0  0  0  0
  187.9270  177.4960  146.1250 C   0  0  0  0  0  3  0  0  0  0  0  0
  188.3540  177.7060  142.9570 C   0  0  1  0  0  3  0  0  0  0  0  0
  189.9430  178.2190  144.8350 C   0  0  0  0  0  2  0  0  0  0  0  0
  186.9780  177.9210  145.0440 C   0  0  0  0  0  2  0  0  0  0  0  0
  187.2060  177.1210  143.7680 C   0  0  0  0  0  2  0  0  0  0  0  0
  189.7010  177.3740  143.5910 C   0  0  0  0  0  2  0  0  0  0  0  0
  189.7870  178.2750  139.7490 C   0  0  0  0  0  2  0  0  0  0  0  0
  192.9680  177.1220  139.6250 O   0  0  0  0  0  0  0  0  0  0  0  0
  191.0660  176.4560  138.6900 C   0  0  0  0  0  3  0  0  0  0  0  0
  192.3730  176.5170  138.5360 C   0  0  0  0  0  3  0  0  0  0  0  0
  192.0070  177.5040  140.5920 C   0  0  0  0  0  2  0  0  0  0  0  0
  190.6730  177.0600  139.9970 C   0  0  1  0  0  3  0  0  0  0  0  0
  1 22  1  6  0  0  0
  1 14  1  0  0  0  0
  2 12  1  0  0  0  0
  2  1  1  0  0  0  0
  4  5  1  0  0  0  0
  5 10  1  0  0  0  0
  6  2  1  0  0  0  0
  7  8  1  1  0  0  0
  9  7  1  0  0  0  0
  9 12  1  6  0  0  0
 10  7  1  0  0  0  0
 11  4  1  1  0  0  0
 11  9  1  0  0  0  0
 12  3  2  0  0  0  0
 13 11  1  0  0  0  0
 13  6  1  0  0  0  0
 15 16  2  0  0  0  0
 17 14  1  6  0  0  0
 17 21  1  0  0  0  0
 17 20  1  0  0  0  0
 18 15  1  0  0  0  0
 19 16  1  0  0  0  0
 20 19  1  0  0  0  0
 21 18  1  0  0  0  0
 23 26  1  0  0  0  0
 24 27  1  0  0  0  0
 25 24  2  0  0  0  0
 25 23  1  0  0  0  0
 27 22  1  6  0  0  0
 27 26  1  0  0  0  0
M  END
>  <MODEL>
8

>  <REMARK>
 VINA RESULT:      -7.6      3.090      5.277
  Name = 
  5 active torsions:
  status: ('A' for Active; 'I' for Inactive)
    1  A    between atoms: C_1  and  C_15
    2  A    between atoms: C_1  and  C_18
    3  A    between atoms: N_2  and  C_15
    4  A    between atoms: C_9  and  C_15
    5  A    between atoms: C_9  and  C_27
                            x       y       z     vdW  Elec       q    Type
                         _______ _______ _______ _____ _____    ______ ____

>  <TORSDO>
F 5

$$$$
=
 OpenBabel10262420073D

 27 30  0  0  1  0  0  0  0  0999 V2000
  188.2790  177.8440  141.9570 C   0  0  1  0  0  3  0  0  0  0  0  0
  188.4940  177.5690  140.5300 N   0  0  0  0  0  0  0  0  0  0  0  0
  190.2770  176.1220  140.9860 O   0  0  0  0  0  0  0  0  0  0  0  0
  189.6500  177.6140  136.3470 C   0  0  0  0  0  2  0  0  0  0  0  0
  190.8740  176.7520  136.0020 C   0  0  0  0  0  2  0  0  0  0  0  0
  187.5480  178.0540  139.5210 C   0  0  0  0  0  2  0  0  0  0  0  0
  190.8570  175.5960  138.2560 C   0  0  1  0  0  3  0  0  0  0  0  0
  192.1640  175.5950  138.7080 F   0  0  0  0  0  0  0  0  0  0  0  0
  190.1570  176.8880  138.7160 C   0  0  1  0  0  3  0  0  0  0  0  0
  190.8440  175.4080  136.7310 C   0  0  0  0  0  2  0  0  0  0  0  0
  189.0590  177.2980  137.7260 C   0  0  1  0  0  3  0  0  0  0  0  0
  189.6390  176.7920  140.1290 C   0  0  0  0  0  0  0  0  0  0  0  0
  188.2710  178.4840  138.2530 C   0  0  0  0  0  2  0  0  0  0  0  0
  189.5570  178.2650  142.6960 C   0  0  0  0  0  2  0  0  0  0  0  0
  190.3520  177.1270  147.0930 C   0  0  0  0  0  3  0  0  0  0  0  0
  191.5230  176.7370  146.5720 C   0  0  0  0  0  3  0  0  0  0  0  0
  189.8270  177.4400  143.9460 C   0  0  1  0  0  3  0  0  0  0  0  0
  189.0660  177.1260  146.3210 C   0  0  0  0  0  2  0  0  0  0  0  0
  191.6770  176.2560  145.1590 C   0  0  0  0  0  2  0  0  0  0  0  0
  191.3310  177.3570  144.1640 C   0  0  0  0  0  2  0  0  0  0  0  0
  189.1330  178.0880  145.1410 C   0  0  0  0  0  2  0  0  0  0  0  0
  187.0290  178.6800  142.2690 C   0  0  0  0  0  2  0  0  0  0  0  0
  183.7770  178.8030  143.2060 O   0  0  0  0  0  0  0  0  0  0  0  0
  185.6540  178.2820  144.2740 C   0  0  0  0  0  3  0  0  0  0  0  0
  184.4500  178.8000  144.4110 C   0  0  0  0  0  3  0  0  0  0  0  0
  184.5700  178.2530  142.1700 C   0  0  0  0  0  2  0  0  0  0  0  0
  185.8790  177.8700  142.8580 C   0  0  1  0  0  3  0  0  0  0  0  0
  1 22  1  6  0  0  0
  1 14  1  0  0  0  0
  2  1  1  0  0  0  0
  5  4  1  0  0  0  0
  5 10  1  0  0  0  0
  6  2  1  0  0  0  0
  7  8  1  6  0  0  0
  7  9  1  0  0  0  0
  9 12  1  1  0  0  0
 10  7  1  0  0  0  0
 11  4  1  6  0  0  0
 11 13  1  0  0  0  0
 11  9  1  0  0  0  0
 12  2  1  0  0  0  0
 12  3  2  0  0  0  0
 13  6  1  0  0  0  0
 16 15  2  0  0  0  0
 17 14  1  6  0  0  0
 17 20  1  0  0  0  0
 17 21  1  0  0  0  0
 18 15  1  0  0  0  0
 19 16  1  0  0  0  0
 20 19  1  0  0  0  0
 21 18  1  0  0  0  0
 23 25  1  0  0  0  0
 24 25  2  0  0  0  0
 26 27  1  0  0  0  0
 26 23  1  0  0  0  0
 27 22  1  6  0  0  0
 27 24  1  0  0  0  0
M  END
>  <MODEL>
9

>  <REMARK>
 VINA RESULT:      -7.6      2.220      4.927
  Name = 
  5 active torsions:
  status: ('A' for Active; 'I' for Inactive)
    1  A    between atoms: C_1  and  C_15
    2  A    between atoms: C_1  and  C_18
    3  A    between atoms: N_2  and  C_15
    4  A    between atoms: C_9  and  C_15
    5  A    between atoms: C_9  and  C_27
                            x       y       z     vdW  Elec       q    Type
                         _______ _______ _______ _____ _____    ______ ____

>  <TORSDO>
F 5

$$$$
