=
 OpenBabel10262421013D

 32 37  0  0  1  0  0  0  0  0999 V2000
  185.9280  178.3570  139.0270 C   0  0  0  0  0  0  0  0  0  0  0  0
  186.7210  178.2510  141.3210 C   0  0  0  0  0  0  0  0  0  0  0  0
  186.2140  178.2730  137.6550 C   0  0  0  0  0  3  0  0  0  0  0  0
  186.9800  178.2250  139.9510 C   0  0  0  0  0  0  0  0  0  0  0  0
  187.7690  178.1260  142.2460 C   0  0  0  0  0  0  0  0  0  0  0  0
  183.6930  179.1230  145.0870 C   0  0  0  0  0  2  0  0  0  0  0  0
  185.4070  178.4150  141.7730 C   0  0  0  0  0  0  0  0  0  0  0  0
  186.0280  178.3960  145.5440 C   0  0  0  0  0  2  0  0  0  0  0  0
  186.2280  178.2720  144.0550 C   0  0  0  0  0  0  0  0  0  0  0  0
  188.3020  178.0340  139.5150 C   0  0  0  0  0  0  0  0  0  0  0  0
  187.5000  178.1550  143.5780 N   0  0  0  0  0  0  0  0  0  0  0  0
  189.3020  177.9110  140.4290 N   0  0  0  0  0  0  0  0  0  0  0  0
  188.5700  177.9380  138.1490 C   0  0  0  0  0  3  0  0  0  0  0  0
  184.4000  178.5510  140.8670 N   0  0  0  0  0  0  0  0  0  0  0  0
  184.6180  178.5190  139.5200 C   0  0  0  0  0  0  0  0  0  0  0  0
  185.1490  178.4480  143.1490 C   0  0  0  0  0  0  0  0  0  0  0  0
  189.0740  177.9730  141.7730 C   0  0  0  0  0  0  0  0  0  0  0  0
  187.5270  178.0560  137.2210 C   0  0  0  0  0  3  0  0  0  0  0  0
  184.5680  178.2400  145.9610 C   0  0  0  0  0  2  0  0  0  0  0  0
  183.7350  178.6090  143.6510 C   0  0  0  0  0  2  0  0  0  0  0  0
  181.5960  180.3570  138.1690 N   0  0  0  0  0  0  0  0  0  0  0  0
  181.4000  178.0850  136.4810 C   0  0  0  0  0  1  0  0  0  0  0  0
  180.9670  181.5490  138.7190 C   0  0  0  0  0  1  0  0  0  0  0  0
  182.9850  176.3120  138.1770 C   0  0  0  0  0  1  0  0  0  0  0  0
  183.4650  178.7770  138.5830 C   0  0  1  0  0  3  0  0  0  0  0  0
  180.6540  179.2630  138.4200 C   0  0  0  0  0  2  0  0  0  0  0  0
  182.4190  177.6490  138.6420 C   0  0  1  0  0  3  0  0  0  0  0  0
  182.8120  180.1200  138.9540 C   0  0  1  0  0  3  0  0  0  0  0  0
  183.7230  181.1440  138.7280 F   0  0  0  0  0  0  0  0  0  0  0  0
  181.1750  177.9870  137.9230 N   0  0  0  0  0  0  0  0  0  0  0  0
  190.1300  177.8740  142.6820 O   0  0  0  0  0  0  0  0  0  0  0  0
  191.4410  177.5260  142.2660 C   0  0  0  0  0  1  0  0  0  0  0  0
  1 15  2  0  0  0  0
  1  4  1  0  0  0  0
  2  7  1  0  0  0  0
  2  5  1  0  0  0  0
  3  1  1  0  0  0  0
  4  2  2  0  0  0  0
  5 11  2  0  0  0  0
  6 19  1  0  0  0  0
  7 16  1  0  0  0  0
  8 19  1  0  0  0  0
  9  8  1  0  0  0  0
 10  4  1  0  0  0  0
 10 12  1  0  0  0  0
 11  9  1  0  0  0  0
 12 17  2  0  0  0  0
 13 10  2  0  0  0  0
 14  7  2  0  0  0  0
 15 14  1  0  0  0  0
 16 20  1  0  0  0  0
 16  9  2  0  0  0  0
 17  5  1  0  0  0  0
 17 31  1  0  0  0  0
 18  3  2  0  0  0  0
 18 13  1  0  0  0  0
 20  6  1  0  0  0  0
 21 26  1  0  0  0  0
 21 23  1  0  0  0  0
 21 28  1  0  0  0  0
 22 30  1  0  0  0  0
 25 27  1  0  0  0  0
 25 28  1  0  0  0  0
 25 15  1  1  0  0  0
 27 24  1  6  0  0  0
 28 29  1  6  0  0  0
 30 26  1  0  0  0  0
 30 27  1  0  0  0  0
 32 31  1  0  0  0  0
M  END
>  <MODEL>
1

>  <REMARK>
 VINA RESULT:      -8.6      0.000      0.000
  Name = 
  2 active torsions:
  status: ('A' for Active; 'I' for Inactive)
    1  A    between atoms: O_13  and  C_29
    2  A    between atoms: C_16  and  C_27
                            x       y       z     vdW  Elec       q    Type
                         _______ _______ _______ _____ _____    ______ ____

>  <TORSDO>
F 2

$$$$
=
 OpenBabel10262421013D

 32 37  0  0  1  0  0  0  0  0999 V2000
  183.1040  178.7020  141.6890 C   0  0  0  0  0  0  0  0  0  0  0  0
  185.5170  178.4330  141.5990 C   0  0  0  0  0  0  0  0  0  0  0  0
  181.9440  178.8630  142.4620 C   0  0  0  0  0  3  0  0  0  0  0  0
  184.3400  178.5420  142.3390 C   0  0  0  0  0  0  0  0  0  0  0  0
  186.7520  178.2680  142.2440 C   0  0  0  0  0  0  0  0  0  0  0  0
  187.8330  177.7880  137.3170 C   0  0  0  0  0  2  0  0  0  0  0  0
  185.4600  178.4770  140.2010 C   0  0  0  0  0  0  0  0  0  0  0  0
  189.1690  178.0130  139.4030 C   0  0  0  0  0  2  0  0  0  0  0  0
  187.8770  178.2410  140.1470 C   0  0  0  0  0  0  0  0  0  0  0  0
  184.4180  178.5220  143.7420 C   0  0  0  0  0  0  0  0  0  0  0  0
  187.8890  178.1620  141.5080 N   0  0  0  0  0  0  0  0  0  0  0  0
  185.6270  178.3650  144.3470 N   0  0  0  0  0  0  0  0  0  0  0  0
  183.2590  178.6980  144.4990 C   0  0  0  0  0  3  0  0  0  0  0  0
  184.2550  178.6220  139.5850 N   0  0  0  0  0  0  0  0  0  0  0  0
  183.0870  178.7430  140.2800 C   0  0  0  0  0  0  0  0  0  0  0  0
  186.6420  178.3610  139.4580 C   0  0  0  0  0  0  0  0  0  0  0  0
  186.7840  178.2180  143.6390 C   0  0  0  0  0  0  0  0  0  0  0  0
  182.0250  178.8690  143.8600 C   0  0  0  0  0  3  0  0  0  0  0  0
  189.0810  178.4010  137.9290 C   0  0  0  0  0  2  0  0  0  0  0  0
  186.5980  178.4210  137.9510 C   0  0  0  0  0  2  0  0  0  0  0  0
  180.2340  177.3920  138.1900 N   0  0  0  0  0  0  0  0  0  0  0  0
  179.4800  180.1250  138.0750 C   0  0  0  0  0  1  0  0  0  0  0  0
  180.0840  176.0440  137.6630 C   0  0  0  0  0  1  0  0  0  0  0  0
  182.1200  181.1920  138.7280 C   0  0  0  0  0  1  0  0  0  0  0  0
  181.7840  178.7990  139.5230 C   0  0  1  0  0  3  0  0  0  0  0  0
  180.5090  178.2400  137.0280 C   0  0  0  0  0  2  0  0  0  0  0  0
  181.8680  179.7470  138.3130 C   0  0  1  0  0  3  0  0  0  0  0  0
  181.4180  177.3800  139.0550 C   0  0  1  0  0  3  0  0  0  0  0  0
  181.1780  176.5840  140.1670 F   0  0  0  0  0  0  0  0  0  0  0  0
  180.6960  179.6390  137.4220 N   0  0  0  0  0  0  0  0  0  0  0  0
  188.0020  178.0260  144.2950 O   0  0  0  0  0  0  0  0  0  0  0  0
  188.0690  177.4580  145.5930 C   0  0  0  0  0  1  0  0  0  0  0  0
  1  4  1  0  0  0  0
  1  3  2  0  0  0  0
  2  5  1  0  0  0  0
  2  4  1  0  0  0  0
  3 18  1  0  0  0  0
  4 10  2  0  0  0  0
  5 17  1  0  0  0  0
  6 19  1  0  0  0  0
  6 20  1  0  0  0  0
  7  2  2  0  0  0  0
  8  9  1  0  0  0  0
  9 11  1  0  0  0  0
 10 12  1  0  0  0  0
 10 13  1  0  0  0  0
 11  5  2  0  0  0  0
 14  7  1  0  0  0  0
 14 15  2  0  0  0  0
 15  1  1  0  0  0  0
 16  9  2  0  0  0  0
 16  7  1  0  0  0  0
 17 31  1  0  0  0  0
 17 12  2  0  0  0  0
 18 13  2  0  0  0  0
 19  8  1  0  0  0  0
 20 16  1  0  0  0  0
 21 28  1  0  0  0  0
 23 21  1  0  0  0  0
 25 15  1  6  0  0  0
 26 30  1  0  0  0  0
 26 21  1  0  0  0  0
 27 24  1  1  0  0  0
 27 25  1  0  0  0  0
 28 25  1  0  0  0  0
 28 29  1  1  0  0  0
 30 22  1  0  0  0  0
 30 27  1  0  0  0  0
 31 32  1  0  0  0  0
M  END
>  <MODEL>
2

>  <REMARK>
 VINA RESULT:      -8.0      1.745      4.830
  Name = 
  2 active torsions:
  status: ('A' for Active; 'I' for Inactive)
    1  A    between atoms: O_13  and  C_29
    2  A    between atoms: C_16  and  C_27
                            x       y       z     vdW  Elec       q    Type
                         _______ _______ _______ _____ _____    ______ ____

>  <TORSDO>
F 2

$$$$
=
 OpenBabel10262421013D

 32 37  0  0  1  0  0  0  0  0999 V2000
  184.1090  178.6240  141.8400 C   0  0  0  0  0  0  0  0  0  0  0  0
  186.4040  178.1780  142.5030 C   0  0  0  0  0  0  0  0  0  0  0  0
  182.7890  178.9200  142.2150 C   0  0  0  0  0  3  0  0  0  0  0  0
  185.0730  178.4220  142.8430 C   0  0  0  0  0  0  0  0  0  0  0  0
  187.3670  177.9700  143.5010 C   0  0  0  0  0  0  0  0  0  0  0  0
  189.8320  177.0750  139.1650 C   0  0  0  0  0  2  0  0  0  0  0  0
  186.7740  178.1290  141.1540 C   0  0  0  0  0  0  0  0  0  0  0  0
  190.4940  177.3480  141.5460 C   0  0  0  0  0  2  0  0  0  0  0  0
  189.0640  177.7190  141.8500 C   0  0  0  0  0  0  0  0  0  0  0  0
  184.7250  178.4930  144.2020 C   0  0  0  0  0  0  0  0  0  0  0  0
  188.6600  177.7330  143.1520 N   0  0  0  0  0  0  0  0  0  0  0  0
  185.6760  178.2920  145.1540 N   0  0  0  0  0  0  0  0  0  0  0  0
  183.4120  178.8030  144.5620 C   0  0  0  0  0  3  0  0  0  0  0  0
  185.8270  178.3170  140.1930 N   0  0  0  0  0  0  0  0  0  0  0  0
  184.5190  178.5680  140.4930 C   0  0  0  0  0  0  0  0  0  0  0  0
  188.1090  177.8780  140.8130 C   0  0  0  0  0  0  0  0  0  0  0  0
  186.9750  178.0140  144.8400 C   0  0  0  0  0  0  0  0  0  0  0  0
  182.4470  179.0170  143.5690 C   0  0  0  0  0  3  0  0  0  0  0  0
  190.8870  177.6390  140.1000 C   0  0  0  0  0  2  0  0  0  0  0  0
  188.5250  177.8370  139.3630 C   0  0  0  0  0  2  0  0  0  0  0  0
  181.9720  180.2610  138.2610 N   0  0  0  0  0  0  0  0  0  0  0  0
  181.5670  177.6200  137.3060 C   0  0  0  0  0  1  0  0  0  0  0  0
  181.4970  181.6340  138.3430 C   0  0  0  0  0  1  0  0  0  0  0  0
  182.6800  176.2780  139.6490 C   0  0  0  0  0  1  0  0  0  0  0  0
  183.5150  178.6650  139.3730 C   0  0  1  0  0  3  0  0  0  0  0  0
  180.8470  179.4280  138.6910 C   0  0  0  0  0  2  0  0  0  0  0  0
  182.2990  177.7540  139.6170 C   0  0  1  0  0  3  0  0  0  0  0  0
  183.0570  180.1280  139.2390 C   0  0  1  0  0  3  0  0  0  0  0  0
  184.1390  180.9070  138.8480 F   0  0  0  0  0  0  0  0  0  0  0  0
  181.1970  178.0050  138.6680 N   0  0  0  0  0  0  0  0  0  0  0  0
  187.9180  177.7830  145.8440 O   0  0  0  0  0  0  0  0  0  0  0  0
  187.5730  177.8450  147.2190 C   0  0  0  0  0  1  0  0  0  0  0  0
  1  3  2  0  0  0  0
  1  4  1  0  0  0  0
  2  4  1  0  0  0  0
  2  5  1  0  0  0  0
  3 18  1  0  0  0  0
  4 10  2  0  0  0  0
  5 17  1  0  0  0  0
  6 20  1  0  0  0  0
  6 19  1  0  0  0  0
  7  2  2  0  0  0  0
  8  9  1  0  0  0  0
  9 11  1  0  0  0  0
 10 13  1  0  0  0  0
 10 12  1  0  0  0  0
 11  5  2  0  0  0  0
 14 15  2  0  0  0  0
 14  7  1  0  0  0  0
 15  1  1  0  0  0  0
 16  7  1  0  0  0  0
 16  9  2  0  0  0  0
 17 12  2  0  0  0  0
 17 31  1  0  0  0  0
 18 13  2  0  0  0  0
 19  8  1  0  0  0  0
 20 16  1  0  0  0  0
 21 23  1  0  0  0  0
 21 26  1  0  0  0  0
 21 28  1  0  0  0  0
 22 30  1  0  0  0  0
 25 27  1  0  0  0  0
 25 15  1  1  0  0  0
 27 24  1  6  0  0  0
 28 29  1  6  0  0  0
 28 25  1  0  0  0  0
 30 26  1  0  0  0  0
 30 27  1  0  0  0  0
 31 32  1  0  0  0  0
M  END
>  <MODEL>
3

>  <REMARK>
 VINA RESULT:      -7.9      1.456      4.353
  Name = 
  2 active torsions:
  status: ('A' for Active; 'I' for Inactive)
    1  A    between atoms: O_13  and  C_29
    2  A    between atoms: C_16  and  C_27
                            x       y       z     vdW  Elec       q    Type
                         _______ _______ _______ _____ _____    ______ ____

>  <TORSDO>
F 2

$$$$
=
 OpenBabel10262421013D

 32 37  0  0  1  0  0  0  0  0999 V2000
  186.3250  178.1360  139.3340 C   0  0  0  0  0  0  0  0  0  0  0  0
  186.9040  178.0930  141.6930 C   0  0  0  0  0  0  0  0  0  0  0  0
  185.4010  178.4760  138.3320 C   0  0  0  0  0  3  0  0  0  0  0  0
  185.9880  178.3700  140.6780 C   0  0  0  0  0  0  0  0  0  0  0  0
  186.5690  178.3200  143.0360 C   0  0  0  0  0  0  0  0  0  0  0  0
  191.0860  176.0320  143.2330 C   0  0  0  0  0  2  0  0  0  0  0  0
  188.1610  177.5730  141.3650 C   0  0  0  0  0  0  0  0  0  0  0  0
  189.6260  177.1970  144.8750 C   0  0  0  0  0  2  0  0  0  0  0  0
  188.7210  177.5740  143.7280 C   0  0  0  0  0  0  0  0  0  0  0  0
  184.7400  178.9170  141.0240 C   0  0  0  0  0  0  0  0  0  0  0  0
  187.4730  178.0420  144.0130 N   0  0  0  0  0  0  0  0  0  0  0  0
  184.4380  179.1320  142.3330 N   0  0  0  0  0  0  0  0  0  0  0  0
  183.8370  179.2630  140.0180 C   0  0  0  0  0  3  0  0  0  0  0  0
  188.4690  177.3420  140.0590 N   0  0  0  0  0  0  0  0  0  0  0  0
  187.6000  177.6130  139.0420 C   0  0  0  0  0  0  0  0  0  0  0  0
  189.0780  177.2880  142.3850 C   0  0  0  0  0  0  0  0  0  0  0  0
  185.3060  178.8300  143.3410 C   0  0  0  0  0  0  0  0  0  0  0  0
  184.1690  179.0440  138.6740 C   0  0  0  0  0  3  0  0  0  0  0  0
  191.0680  176.9580  144.4380 C   0  0  0  0  0  2  0  0  0  0  0  0
  190.4420  176.7410  142.0450 C   0  0  0  0  0  2  0  0  0  0  0  0
  188.6180  175.2880  136.2330 N   0  0  0  0  0  0  0  0  0  0  0  0
  188.9360  177.7170  134.8010 C   0  0  0  0  0  1  0  0  0  0  0  0
  188.8760  173.8580  136.3170 C   0  0  0  0  0  1  0  0  0  0  0  0
  189.1850  179.4250  137.1590 C   0  0  0  0  0  1  0  0  0  0  0  0
  187.9790  177.2360  137.6320 C   0  0  1  0  0  3  0  0  0  0  0  0
  189.9250  175.9120  136.0130 C   0  0  0  0  0  2  0  0  0  0  0  0
  189.2940  177.9040  137.1960 C   0  0  1  0  0  3  0  0  0  0  0  0
  188.1120  175.7050  137.5440 C   0  0  1  0  0  3  0  0  0  0  0  0
  186.8690  175.1290  137.7730 F   0  0  0  0  0  0  0  0  0  0  0  0
  189.8110  177.3690  135.9210 N   0  0  0  0  0  0  0  0  0  0  0  0
  184.9490  179.0360  144.6760 O   0  0  0  0  0  0  0  0  0  0  0  0
  183.5980  178.9660  145.1050 C   0  0  0  0  0  1  0  0  0  0  0  0
  1  4  1  0  0  0  0
  2  5  1  0  0  0  0
  3 18  2  0  0  0  0
  3  1  1  0  0  0  0
  4 10  1  0  0  0  0
  4  2  2  0  0  0  0
  5 17  1  0  0  0  0
  5 11  2  0  0  0  0
  6 19  1  0  0  0  0
  7  2  1  0  0  0  0
  7 16  1  0  0  0  0
  9 11  1  0  0  0  0
  9  8  1  0  0  0  0
 10 12  1  0  0  0  0
 12 17  2  0  0  0  0
 13 10  2  0  0  0  0
 14  7  2  0  0  0  0
 15  1  2  0  0  0  0
 15 14  1  0  0  0  0
 16  9  2  0  0  0  0
 17 31  1  0  0  0  0
 18 13  1  0  0  0  0
 19  8  1  0  0  0  0
 20 16  1  0  0  0  0
 20  6  1  0  0  0  0
 21 23  1  0  0  0  0
 21 28  1  0  0  0  0
 22 30  1  0  0  0  0
 25 15  1  1  0  0  0
 26 21  1  0  0  0  0
 27 24  1  6  0  0  0
 27 25  1  0  0  0  0
 28 25  1  0  0  0  0
 28 29  1  6  0  0  0
 30 26  1  0  0  0  0
 30 27  1  0  0  0  0
 31 32  1  0  0  0  0
M  END
>  <MODEL>
4

>  <REMARK>
 VINA RESULT:      -7.6      2.639      5.919
  Name = 
  2 active torsions:
  status: ('A' for Active; 'I' for Inactive)
    1  A    between atoms: O_13  and  C_29
    2  A    between atoms: C_16  and  C_27
                            x       y       z     vdW  Elec       q    Type
                         _______ _______ _______ _____ _____    ______ ____

>  <TORSDO>
F 2

$$$$
=
 OpenBabel10262421013D

 32 37  0  0  1  0  0  0  0  0999 V2000
  189.5100  176.7980  138.0670 C   0  0  0  0  0  0  0  0  0  0  0  0
  188.8030  177.5350  140.2720 C   0  0  0  0  0  0  0  0  0  0  0  0
  189.2770  176.7630  136.6830 C   0  0  0  0  0  3  0  0  0  0  0  0
  188.5740  177.4370  138.8990 C   0  0  0  0  0  0  0  0  0  0  0  0
  187.8690  178.1670  141.1060 C   0  0  0  0  0  0  0  0  0  0  0  0
  191.3060  176.2410  144.2930 C   0  0  0  0  0  2  0  0  0  0  0  0
  189.9690  176.9870  140.8180 C   0  0  0  0  0  0  0  0  0  0  0  0
  189.3890  177.8130  144.5040 C   0  0  0  0  0  2  0  0  0  0  0  0
  189.2500  177.7670  143.0030 C   0  0  0  0  0  0  0  0  0  0  0  0
  187.4110  178.0160  138.3640 C   0  0  0  0  0  0  0  0  0  0  0  0
  188.1070  178.2530  142.4420 N   0  0  0  0  0  0  0  0  0  0  0  0
  186.5210  178.6280  139.1910 N   0  0  0  0  0  0  0  0  0  0  0  0
  187.1980  177.9870  136.9850 C   0  0  0  0  0  3  0  0  0  0  0  0
  190.8610  176.3620  140.0010 N   0  0  0  0  0  0  0  0  0  0  0  0
  190.6730  176.2590  138.6530 C   0  0  0  0  0  0  0  0  0  0  0  0
  190.1950  177.0800  142.1970 C   0  0  0  0  0  0  0  0  0  0  0  0
  186.7080  178.6990  140.5410 C   0  0  0  0  0  0  0  0  0  0  0  0
  188.1310  177.3620  136.1470 C   0  0  0  0  0  3  0  0  0  0  0  0
  190.8070  177.5020  144.9780 C   0  0  0  0  0  2  0  0  0  0  0  0
  191.4550  176.5060  142.7980 C   0  0  0  0  0  2  0  0  0  0  0  0
  193.6110  175.7320  136.3250 N   0  0  0  0  0  0  0  0  0  0  0  0
  192.7070  173.0430  136.3520 C   0  0  0  0  0  1  0  0  0  0  0  0
  194.4410  176.7530  135.7020 C   0  0  0  0  0  1  0  0  0  0  0  0
  189.9840  173.6500  137.2180 C   0  0  0  0  0  1  0  0  0  0  0  0
  191.6570  175.4650  137.8320 C   0  0  1  0  0  3  0  0  0  0  0  0
  192.8170  175.1540  135.2390 C   0  0  0  0  0  2  0  0  0  0  0  0
  190.9620  174.6960  136.6940 C   0  0  1  0  0  3  0  0  0  0  0  0
  192.7100  176.4250  137.2500 C   0  0  1  0  0  3  0  0  0  0  0  0
  193.4420  176.9790  138.2930 F   0  0  0  0  0  0  0  0  0  0  0  0
  191.9170  174.1090  135.7360 N   0  0  0  0  0  0  0  0  0  0  0  0
  185.7570  179.3070  141.3630 O   0  0  0  0  0  0  0  0  0  0  0  0
  184.5490  178.6520  141.7160 C   0  0  0  0  0  1  0  0  0  0  0  0
  1 15  2  0  0  0  0
  1  4  1  0  0  0  0
  2  7  1  0  0  0  0
  2  5  1  0  0  0  0
  3  1  1  0  0  0  0
  4  2  2  0  0  0  0
  5 11  2  0  0  0  0
  6 19  1  0  0  0  0
  7 16  1  0  0  0  0
  8 19  1  0  0  0  0
  9  8  1  0  0  0  0
 10  4  1  0  0  0  0
 10 12  1  0  0  0  0
 11  9  1  0  0  0  0
 12 17  2  0  0  0  0
 13 10  2  0  0  0  0
 14  7  2  0  0  0  0
 15 14  1  0  0  0  0
 16 20  1  0  0  0  0
 16  9  2  0  0  0  0
 17  5  1  0  0  0  0
 17 31  1  0  0  0  0
 18  3  2  0  0  0  0
 18 13  1  0  0  0  0
 20  6  1  0  0  0  0
 21 28  1  0  0  0  0
 23 21  1  0  0  0  0
 25 15  1  6  0  0  0
 26 30  1  0  0  0  0
 26 21  1  0  0  0  0
 27 24  1  1  0  0  0
 27 25  1  0  0  0  0
 28 25  1  0  0  0  0
 28 29  1  1  0  0  0
 30 22  1  0  0  0  0
 30 27  1  0  0  0  0
 31 32  1  0  0  0  0
M  END
>  <MODEL>
5

>  <REMARK>
 VINA RESULT:      -7.5      3.868      7.437
  Name = 
  2 active torsions:
  status: ('A' for Active; 'I' for Inactive)
    1  A    between atoms: O_13  and  C_29
    2  A    between atoms: C_16  and  C_27
                            x       y       z     vdW  Elec       q    Type
                         _______ _______ _______ _____ _____    ______ ____

>  <TORSDO>
F 2

$$$$
=
 OpenBabel10262421013D

 32 37  0  0  1  0  0  0  0  0999 V2000
  186.8720  178.0510  144.2100 C   0  0  0  0  0  0  0  0  0  0  0  0
  187.0560  178.2370  141.7940 C   0  0  0  0  0  0  0  0  0  0  0  0
  186.0990  178.2190  145.3700 C   0  0  0  0  0  3  0  0  0  0  0  0
  186.3340  178.4390  142.9700 C   0  0  0  0  0  0  0  0  0  0  0  0
  186.5240  178.6280  140.5570 C   0  0  0  0  0  0  0  0  0  0  0  0
  191.2440  177.1280  139.4830 C   0  0  0  0  0  2  0  0  0  0  0  0
  188.3240  177.6490  141.8550 C   0  0  0  0  0  0  0  0  0  0  0  0
  189.2340  177.7230  138.1440 C   0  0  0  0  0  2  0  0  0  0  0  0
  188.4620  177.8190  139.4360 C   0  0  0  0  0  0  0  0  0  0  0  0
  185.0510  179.0060  142.8880 C   0  0  0  0  0  0  0  0  0  0  0  0
  187.2410  178.4240  139.4190 N   0  0  0  0  0  0  0  0  0  0  0  0
  184.5530  179.3740  141.6770 N   0  0  0  0  0  0  0  0  0  0  0  0
  184.2870  179.1540  144.0470 C   0  0  0  0  0  3  0  0  0  0  0  0
  188.8370  177.2880  143.0640 N   0  0  0  0  0  0  0  0  0  0  0  0
  188.1530  177.4620  144.2310 C   0  0  0  0  0  0  0  0  0  0  0  0
  189.0520  177.4530  140.6740 C   0  0  0  0  0  0  0  0  0  0  0  0
  185.2600  179.2200  140.5200 C   0  0  0  0  0  0  0  0  0  0  0  0
  184.8110  178.7600  145.2850 C   0  0  0  0  0  3  0  0  0  0  0  0
  190.4380  176.7900  138.2400 C   0  0  0  0  0  2  0  0  0  0  0  0
  190.4150  176.8070  140.7230 C   0  0  0  0  0  2  0  0  0  0  0  0
  188.5460  177.3290  147.9940 N   0  0  0  0  0  0  0  0  0  0  0  0
  191.1380  176.3780  147.3440 C   0  0  0  0  0  1  0  0  0  0  0  0
  187.6420  177.8710  148.9980 C   0  0  0  0  0  1  0  0  0  0  0  0
  191.1830  177.4580  144.6300 C   0  0  0  0  0  1  0  0  0  0  0  0
  188.8290  177.1280  145.5370 C   0  0  1  0  0  3  0  0  0  0  0  0
  189.7350  178.1840  148.0320 C   0  0  0  0  0  2  0  0  0  0  0  0
  190.1690  177.8700  145.6910 C   0  0  1  0  0  3  0  0  0  0  0  0
  187.8870  177.4970  146.6960 C   0  0  1  0  0  3  0  0  0  0  0  0
  186.7570  176.6920  146.6350 F   0  0  0  0  0  0  0  0  0  0  0  0
  190.7330  177.7520  147.0500 N   0  0  0  0  0  0  0  0  0  0  0  0
  184.7290  179.6390  139.2980 O   0  0  0  0  0  0  0  0  0  0  0  0
  183.3310  179.7550  139.0940 C   0  0  0  0  0  1  0  0  0  0  0  0
  1 15  1  0  0  0  0
  1  3  2  0  0  0  0
  2  7  1  0  0  0  0
  2  4  1  0  0  0  0
  4  1  1  0  0  0  0
  5  2  2  0  0  0  0
  6 20  1  0  0  0  0
  7 14  1  0  0  0  0
  8 19  1  0  0  0  0
  8  9  1  0  0  0  0
  9 16  1  0  0  0  0
 10  4  2  0  0  0  0
 10 13  1  0  0  0  0
 11  9  2  0  0  0  0
 11  5  1  0  0  0  0
 12 10  1  0  0  0  0
 13 18  2  0  0  0  0
 14 15  2  0  0  0  0
 16 20  1  0  0  0  0
 16  7  2  0  0  0  0
 17  5  1  0  0  0  0
 17 12  2  0  0  0  0
 18  3  1  0  0  0  0
 19  6  1  0  0  0  0
 21 26  1  0  0  0  0
 21 23  1  0  0  0  0
 25 15  1  6  0  0  0
 25 27  1  0  0  0  0
 25 28  1  0  0  0  0
 27 24  1  6  0  0  0
 27 30  1  0  0  0  0
 28 29  1  1  0  0  0
 28 21  1  0  0  0  0
 30 22  1  0  0  0  0
 30 26  1  0  0  0  0
 31 17  1  0  0  0  0
 32 31  1  0  0  0  0
M  END
>  <MODEL>
6

>  <REMARK>
 VINA RESULT:      -7.4      3.142      8.361
  Name = 
  2 active torsions:
  status: ('A' for Active; 'I' for Inactive)
    1  A    between atoms: O_13  and  C_29
    2  A    between atoms: C_16  and  C_27
                            x       y       z     vdW  Elec       q    Type
                         _______ _______ _______ _____ _____    ______ ____

>  <TORSDO>
F 2

$$$$
=
 OpenBabel10262421013D

 32 37  0  0  1  0  0  0  0  0999 V2000
  186.9730  177.9220  144.8760 C   0  0  0  0  0  0  0  0  0  0  0  0
  185.2610  178.4230  143.2260 C   0  0  0  0  0  0  0  0  0  0  0  0
  187.3280  177.7640  146.2250 C   0  0  0  0  0  3  0  0  0  0  0  0
  185.6590  178.3090  144.5580 C   0  0  0  0  0  0  0  0  0  0  0  0
  183.9530  178.8140  142.9050 C   0  0  0  0  0  0  0  0  0  0  0  0
  186.3440  178.6290  138.4410 C   0  0  0  0  0  2  0  0  0  0  0  0
  186.1800  178.1560  142.2060 C   0  0  0  0  0  0  0  0  0  0  0  0
  183.9770  178.8720  139.1660 C   0  0  0  0  0  2  0  0  0  0  0  0
  184.4370  178.6300  140.5820 C   0  0  0  0  0  0  0  0  0  0  0  0
  184.7160  178.5550  145.5700 C   0  0  0  0  0  0  0  0  0  0  0  0
  183.5810  178.9220  141.6020 N   0  0  0  0  0  0  0  0  0  0  0  0
  183.4510  178.9300  145.2360 N   0  0  0  0  0  0  0  0  0  0  0  0
  185.0780  178.3810  146.9070 C   0  0  0  0  0  3  0  0  0  0  0  0
  187.4520  177.7920  142.5290 N   0  0  0  0  0  0  0  0  0  0  0  0
  187.8700  177.6600  143.8210 C   0  0  0  0  0  0  0  0  0  0  0  0
  185.7820  178.2770  140.8680 C   0  0  0  0  0  0  0  0  0  0  0  0
  183.0550  179.0850  143.9390 C   0  0  0  0  0  0  0  0  0  0  0  0
  186.3810  177.9850  147.2320 C   0  0  0  0  0  3  0  0  0  0  0  0
  184.9060  178.2520  138.1260 C   0  0  0  0  0  2  0  0  0  0  0  0
  186.7580  177.9780  139.7570 C   0  0  0  0  0  2  0  0  0  0  0  0
  191.5320  178.4410  144.3820 N   0  0  0  0  0  0  0  0  0  0  0  0
  191.7950  175.6180  144.2730 C   0  0  0  0  0  1  0  0  0  0  0  0
  192.1750  179.7460  144.3430 C   0  0  0  0  0  1  0  0  0  0  0  0
  189.2930  175.1380  142.8430 C   0  0  0  0  0  1  0  0  0  0  0  0
  189.3200  177.3520  144.0970 C   0  0  1  0  0  3  0  0  0  0  0  0
  192.0010  177.7360  143.1870 C   0  0  0  0  0  2  0  0  0  0  0  0
  189.9480  176.5090  142.9720 C   0  0  1  0  0  3  0  0  0  0  0  0
  190.0900  178.6740  144.2550 C   0  0  1  0  0  3  0  0  0  0  0  0
  189.6210  179.3390  145.3810 F   0  0  0  0  0  0  0  0  0  0  0  0
  191.4140  176.3970  143.0940 N   0  0  0  0  0  0  0  0  0  0  0  0
  181.7570  179.5010  143.6350 O   0  0  0  0  0  0  0  0  0  0  0  0
  180.6250  178.7120  143.9640 C   0  0  0  0  0  1  0  0  0  0  0  0
  1  3  2  0  0  0  0
  2  4  1  0  0  0  0
  3 18  1  0  0  0  0
  4  1  1  0  0  0  0
  4 10  2  0  0  0  0
  5  2  1  0  0  0  0
  5 17  1  0  0  0  0
  6 20  1  0  0  0  0
  7 14  1  0  0  0  0
  7  2  2  0  0  0  0
  8  9  1  0  0  0  0
  9 16  2  0  0  0  0
  9 11  1  0  0  0  0
 10 13  1  0  0  0  0
 11  5  2  0  0  0  0
 12 10  1  0  0  0  0
 13 18  2  0  0  0  0
 14 15  2  0  0  0  0
 15  1  1  0  0  0  0
 16  7  1  0  0  0  0
 17 12  2  0  0  0  0
 19  6  1  0  0  0  0
 19  8  1  0  0  0  0
 20 16  1  0  0  0  0
 23 21  1  0  0  0  0
 25 15  1  6  0  0  0
 25 28  1  0  0  0  0
 26 21  1  0  0  0  0
 27 24  1  1  0  0  0
 27 30  1  0  0  0  0
 27 25  1  0  0  0  0
 28 21  1  0  0  0  0
 28 29  1  1  0  0  0
 30 26  1  0  0  0  0
 30 22  1  0  0  0  0
 31 17  1  0  0  0  0
 31 32  1  0  0  0  0
M  END
>  <MODEL>
7

>  <REMARK>
 VINA RESULT:      -7.3      3.010      8.089
  Name = 
  2 active torsions:
  status: ('A' for Active; 'I' for Inactive)
    1  A    between atoms: O_13  and  C_29
    2  A    between atoms: C_16  and  C_27
                            x       y       z     vdW  Elec       q    Type
                         _______ _______ _______ _____ _____    ______ ____

>  <TORSDO>
F 2

$$$$
=
 OpenBabel10262421013D

 32 37  0  0  1  0  0  0  0  0999 V2000
  189.3550  177.3960  138.6260 C   0  0  0  0  0  0  0  0  0  0  0  0
  188.7460  177.6420  140.9650 C   0  0  0  0  0  0  0  0  0  0  0  0
  189.0210  177.5780  137.2740 C   0  0  0  0  0  3  0  0  0  0  0  0
  188.4240  177.7620  139.6130 C   0  0  0  0  0  0  0  0  0  0  0  0
  187.8170  178.0010  141.9530 C   0  0  0  0  0  0  0  0  0  0  0  0
  191.6770  175.9680  144.5310 C   0  0  0  0  0  2  0  0  0  0  0  0
  190.0030  177.1500  141.3340 C   0  0  0  0  0  0  0  0  0  0  0  0
  189.6250  177.2370  145.1360 C   0  0  0  0  0  2  0  0  0  0  0  0
  189.3760  177.4410  143.6620 C   0  0  0  0  0  0  0  0  0  0  0  0
  187.1680  178.2830  139.2610 C   0  0  0  0  0  0  0  0  0  0  0  0
  188.1470  177.8780  143.2660 N   0  0  0  0  0  0  0  0  0  0  0  0
  186.2830  178.6280  140.2350 N   0  0  0  0  0  0  0  0  0  0  0  0
  186.8530  178.4720  137.9140 C   0  0  0  0  0  3  0  0  0  0  0  0
  190.8910  176.7900  140.3660 N   0  0  0  0  0  0  0  0  0  0  0  0
  190.6110  176.9050  139.0360 C   0  0  0  0  0  0  0  0  0  0  0  0
  190.3240  177.0240  142.6920 C   0  0  0  0  0  0  0  0  0  0  0  0
  186.5660  178.4820  141.5620 C   0  0  0  0  0  0  0  0  0  0  0  0
  187.7790  178.1210  136.9230 C   0  0  0  0  0  3  0  0  0  0  0  0
  191.1000  177.0200  145.4640 C   0  0  0  0  0  2  0  0  0  0  0  0
  191.6800  176.5090  143.1040 C   0  0  0  0  0  2  0  0  0  0  0  0
  192.1830  174.3780  136.6950 N   0  0  0  0  0  0  0  0  0  0  0  0
  194.2140  176.3490  136.4890 C   0  0  0  0  0  1  0  0  0  0  0  0
  191.7650  173.0030  136.4680 C   0  0  0  0  0  1  0  0  0  0  0  0
  193.5560  177.7210  138.9820 C   0  0  0  0  0  1  0  0  0  0  0  0
  191.6080  176.3920  138.0280 C   0  0  1  0  0  3  0  0  0  0  0  0
  193.4480  174.2900  137.4280 C   0  0  0  0  0  2  0  0  0  0  0  0
  193.0320  176.3380  138.6100 C   0  0  1  0  0  3  0  0  0  0  0  0
  191.1750  174.9890  137.5680 C   0  0  1  0  0  3  0  0  0  0  0  0
  189.9660  175.0870  136.8920 F   0  0  0  0  0  0  0  0  0  0  0  0
  193.9790  175.6200  137.7360 N   0  0  0  0  0  0  0  0  0  0  0  0
  185.6210  178.8170  142.5340 O   0  0  0  0  0  0  0  0  0  0  0  0
  184.3190  178.2540  142.5340 C   0  0  0  0  0  1  0  0  0  0  0  0
  1 15  2  0  0  0  0
  1  4  1  0  0  0  0
  2  7  1  0  0  0  0
  2  5  1  0  0  0  0
  3  1  1  0  0  0  0
  4  2  2  0  0  0  0
  5 11  2  0  0  0  0
  6 19  1  0  0  0  0
  7 16  1  0  0  0  0
  8 19  1  0  0  0  0
  9  8  1  0  0  0  0
 10  4  1  0  0  0  0
 10 12  1  0  0  0  0
 11  9  1  0  0  0  0
 12 17  2  0  0  0  0
 13 10  2  0  0  0  0
 14  7  2  0  0  0  0
 15 14  1  0  0  0  0
 16 20  1  0  0  0  0
 16  9  2  0  0  0  0
 17  5  1  0  0  0  0
 17 31  1  0  0  0  0
 18  3  2  0  0  0  0
 18 13  1  0  0  0  0
 20  6  1  0  0  0  0
 21 26  1  0  0  0  0
 21 28  1  0  0  0  0
 22 30  1  0  0  0  0
 23 21  1  0  0  0  0
 25 27  1  0  0  0  0
 25 15  1  1  0  0  0
 26 30  1  0  0  0  0
 27 24  1  6  0  0  0
 28 29  1  6  0  0  0
 28 25  1  0  0  0  0
 30 27  1  0  0  0  0
 31 32  1  0  0  0  0
M  END
>  <MODEL>
8

>  <REMARK>
 VINA RESULT:      -7.2      3.538      7.540
  Name = 
  2 active torsions:
  status: ('A' for Active; 'I' for Inactive)
    1  A    between atoms: O_13  and  C_29
    2  A    between atoms: C_16  and  C_27
                            x       y       z     vdW  Elec       q    Type
                         _______ _______ _______ _____ _____    ______ ____

>  <TORSDO>
F 2

$$$$
=
 OpenBabel10262421013D

 32 37  0  0  1  0  0  0  0  0999 V2000
  183.8710  178.6260  141.4080 C   0  0  0  0  0  0  0  0  0  0  0  0
  186.2580  178.3200  141.0740 C   0  0  0  0  0  0  0  0  0  0  0  0
  182.7970  178.8040  142.2950 C   0  0  0  0  0  3  0  0  0  0  0  0
  185.1640  178.4460  141.9300 C   0  0  0  0  0  0  0  0  0  0  0  0
  187.5480  178.1350  141.5920 C   0  0  0  0  0  0  0  0  0  0  0  0
  188.1180  177.6470  136.5800 C   0  0  0  0  0  2  0  0  0  0  0  0
  186.0610  178.3670  139.6900 C   0  0  0  0  0  0  0  0  0  0  0  0
  189.6620  177.8470  138.5200 C   0  0  0  0  0  2  0  0  0  0  0  0
  188.4560  178.0940  139.3910 C   0  0  0  0  0  0  0  0  0  0  0  0
  185.3830  178.4220  143.3170 C   0  0  0  0  0  0  0  0  0  0  0  0
  188.6040  178.0120  140.7440 N   0  0  0  0  0  0  0  0  0  0  0  0
  186.6440  178.2450  143.7980 N   0  0  0  0  0  0  0  0  0  0  0  0
  184.3090  178.6140  144.1890 C   0  0  0  0  0  3  0  0  0  0  0  0
  184.8010  178.5320  139.1980 N   0  0  0  0  0  0  0  0  0  0  0  0
  183.7110  178.6700  140.0080 C   0  0  0  0  0  0  0  0  0  0  0  0
  187.1590  178.2340  138.8310 C   0  0  0  0  0  0  0  0  0  0  0  0
  187.7210  178.0810  142.9760 C   0  0  0  0  0  0  0  0  0  0  0  0
  183.0200  178.8060  143.6770 C   0  0  0  0  0  3  0  0  0  0  0  0
  189.4310  178.2390  137.0630 C   0  0  0  0  0  2  0  0  0  0  0  0
  186.9640  178.2980  137.3360 C   0  0  0  0  0  2  0  0  0  0  0  0
  180.4180  180.2870  139.0760 N   0  0  0  0  0  0  0  0  0  0  0  0
  179.7730  177.6650  138.2040 C   0  0  0  0  0  1  0  0  0  0  0  0
  179.9590  181.6240  139.4220 C   0  0  0  0  0  1  0  0  0  0  0  0
  181.7840  176.3050  139.8290 C   0  0  0  0  0  1  0  0  0  0  0  0
  182.3400  178.7480  139.3870 C   0  0  1  0  0  3  0  0  0  0  0  0
  179.5930  179.3710  139.8670 C   0  0  0  0  0  2  0  0  0  0  0  0
  181.3610  177.7550  140.0390 C   0  0  1  0  0  3  0  0  0  0  0  0
  181.8070  180.1840  139.5330 C   0  0  1  0  0  3  0  0  0  0  0  0
  182.6100  181.0420  138.7930 F   0  0  0  0  0  0  0  0  0  0  0  0
  179.9630  177.9750  139.6220 N   0  0  0  0  0  0  0  0  0  0  0  0
  188.9960  177.8700  143.5050 O   0  0  0  0  0  0  0  0  0  0  0  0
  189.2450  177.9360  144.9000 C   0  0  0  0  0  1  0  0  0  0  0  0
  1  4  1  0  0  0  0
  1  3  2  0  0  0  0
  2  5  1  0  0  0  0
  2  4  1  0  0  0  0
  3 18  1  0  0  0  0
  4 10  2  0  0  0  0
  5 17  1  0  0  0  0
  6 19  1  0  0  0  0
  6 20  1  0  0  0  0
  7  2  2  0  0  0  0
  8  9  1  0  0  0  0
  9 11  1  0  0  0  0
 10 12  1  0  0  0  0
 10 13  1  0  0  0  0
 11  5  2  0  0  0  0
 14  7  1  0  0  0  0
 14 15  2  0  0  0  0
 15  1  1  0  0  0  0
 16  9  2  0  0  0  0
 16  7  1  0  0  0  0
 17 31  1  0  0  0  0
 17 12  2  0  0  0  0
 18 13  2  0  0  0  0
 19  8  1  0  0  0  0
 20 16  1  0  0  0  0
 21 23  1  0  0  0  0
 21 28  1  0  0  0  0
 21 26  1  0  0  0  0
 22 30  1  0  0  0  0
 25 28  1  0  0  0  0
 25 15  1  1  0  0  0
 25 27  1  0  0  0  0
 27 24  1  6  0  0  0
 28 29  1  6  0  0  0
 30 26  1  0  0  0  0
 30 27  1  0  0  0  0
 31 32  1  0  0  0  0
M  END
>  <MODEL>
9

>  <REMARK>
 VINA RESULT:      -7.0      1.430      4.453
  Name = 
  2 active torsions:
  status: ('A' for Active; 'I' for Inactive)
    1  A    between atoms: O_13  and  C_29
    2  A    between atoms: C_16  and  C_27
                            x       y       z     vdW  Elec       q    Type
                         _______ _______ _______ _____ _____    ______ ____

>  <TORSDO>
F 2

$$$$
