=
 OpenBabel10262423323D

 34 39  0  0  1  0  0  0  0  0999 V2000
  190.6850  176.9920  137.4560 C   0  0  2  0  0  3  0  0  0  0  0  0
  192.0330  173.6490  136.3100 C   0  0  0  0  0  3  0  0  0  0  0  0
  189.7270  174.3960  136.9220 C   0  0  0  0  0  2  0  0  0  0  0  0
  188.2070  177.3920  138.7040 C   0  0  2  0  0  3  0  0  0  0  0  0
  189.9010  176.8290  139.1200 S   0  0  0  0  0  0  0  0  0  0  0  0
  188.5140  177.8090  136.2290 C   0  0  1  0  0  3  0  0  0  0  0  0
  187.3660  176.9730  135.6840 C   0  0  0  0  0  2  0  0  0  0  0  0
  188.1430  178.4240  137.5780 C   0  0  2  0  0  3  0  0  0  0  0  0
  188.9870  179.6580  137.8560 C   0  0  0  0  0  1  0  0  0  0  0  0
  189.2510  175.4570  135.9210 C   0  0  2  0  0  3  0  0  0  0  0  0
  189.7250  176.8770  136.2570 C   0  0  2  0  0  3  0  0  0  0  0  0
  187.7360  175.5160  135.9070 C   0  0  0  0  0  2  0  0  0  0  0  0
  193.3330  173.3910  136.5180 C   0  0  0  0  0  3  0  0  0  0  0  0
  194.0950  173.9060  137.7110 C   0  0  2  0  0  3  0  0  0  0  0  0
  194.1990  175.4320  137.7000 C   0  0  0  0  0  2  0  0  0  0  0  0
  191.2280  174.4950  137.2460 C   0  0  2  0  0  3  0  0  0  0  0  0
  192.9320  176.0920  138.2390 C   0  0  0  0  0  2  0  0  0  0  0  0
  191.7760  175.9380  137.2580 C   0  0  2  0  0  3  0  0  0  0  0  0
  185.5110  178.8830  140.9440 C   0  0  0  0  0  3  0  0  0  0  0  0
  187.9350  177.4920  141.1850 C   0  0  0  0  0  3  0  0  0  0  0  0
  185.7930  178.6030  144.6290 C   0  0  0  0  0  0  0  0  0  0  0  0
  185.3000  178.9320  143.3570 C   0  0  0  0  0  3  0  0  0  0  0  0
  186.0070  178.5620  142.2110 C   0  0  0  0  0  0  0  0  0  0  0  0
  187.7160  177.5290  143.5990 C   0  0  0  0  0  3  0  0  0  0  0  0
  187.2260  177.8580  142.3330 C   0  0  0  0  0  0  0  0  0  0  0  0
  187.0020  177.8990  144.7430 C   0  0  0  0  0  3  0  0  0  0  0  0
  187.4440  177.8230  139.9180 C   0  0  0  0  0  0  0  0  0  0  0  0
  186.2240  178.5110  139.8020 C   0  0  0  0  0  3  0  0  0  0  0  0
  185.0380  178.9930  145.8320 C   0  0  0  0  0  0  0  0  0  0  0  0
  183.7780  178.9620  145.8320 O   0  0  0  0  0  0  0  0  0  0  0  0
  185.7100  179.3980  146.9790 O   0  0  0  0  0  1  0  0  0  0  0  0
  195.4630  173.3130  137.7340 C   0  0  0  0  0  0  0  0  0  0  0  0
  195.8570  172.6930  138.7570 O   0  0  0  0  0  1  0  0  0  0  0  0
  196.3180  173.4650  136.6490 O   0  0  0  0  0  0  0  0  0  0  0  0
  1  5  1  1  0  0  0
  2 13  2  0  0  0  0
  2 16  1  0  0  0  0
  3 16  1  0  0  0  0
  4  5  1  0  0  0  0
  4 27  1  1  0  0  0
  6  7  1  1  0  0  0
  6 11  1  0  0  0  0
  6  8  1  0  0  0  0
  7 12  1  0  0  0  0
  8  9  1  1  0  0  0
  8  4  1  0  0  0  0
 10 12  1  1  0  0  0
 10 11  1  0  0  0  0
 10  3  1  0  0  0  0
 11  1  1  0  0  0  0
 13 14  1  0  0  0  0
 14 32  1  0  0  0  0
 15 14  1  0  0  0  0
 15 17  1  0  0  0  0
 16 18  1  0  0  0  0
 18  1  1  0  0  0  0
 18 17  1  0  0  0  0
 19 23  1  0  0  0  0
 20 25  1  0  0  0  0
 21 26  1  0  0  0  0
 21 29  1  0  0  0  0
 22 21  2  0  0  0  0
 23 25  2  0  0  0  0
 23 22  1  0  0  0  0
 24 26  2  0  0  0  0
 25 24  1  0  0  0  0
 27 20  2  0  0  0  0
 28 27  1  0  0  0  0
 28 19  2  0  0  0  0
 29 30  2  0  0  0  0
 29 31  1  0  0  0  0
 32 33  1  0  0  0  0
 34 32  2  0  0  0  0
M  END
>  <MODEL>
1

>  <REMARK>
 VINA RESULT:      -8.6      0.000      0.000
  Name = 
  3 active torsions:
  status: ('A' for Active; 'I' for Inactive)
    1  A    between atoms: C_3  and  C_25
    2  A    between atoms: C_7  and  C_11
    3  A    between atoms: C_8  and  C_30
                            x       y       z     vdW  Elec       q    Type
                         _______ _______ _______ _____ _____    ______ ____

>  <TORSDO>
F 3

$$$$
=
 OpenBabel10262423323D

 34 39  0  0  1  0  0  0  0  0999 V2000
  180.1510  179.9400  139.5020 C   0  0  2  0  0  3  0  0  0  0  0  0
  180.6540  180.5020  135.7960 C   0  0  0  0  0  3  0  0  0  0  0  0
  181.7150  178.9040  137.3990 C   0  0  0  0  0  2  0  0  0  0  0  0
  181.9200  178.5580  141.1810 C   0  0  2  0  0  3  0  0  0  0  0  0
  181.7350  180.2110  140.4110 S   0  0  0  0  0  0  0  0  0  0  0  0
  179.8630  177.4350  140.2310 C   0  0  1  0  0  3  0  0  0  0  0  0
  180.5040  176.1960  139.6260 C   0  0  0  0  0  2  0  0  0  0  0  0
  180.5990  177.8590  141.5020 C   0  0  2  0  0  3  0  0  0  0  0  0
  179.6910  178.6890  142.3960 C   0  0  0  0  0  1  0  0  0  0  0  0
  180.6530  177.9310  137.9290 C   0  0  2  0  0  3  0  0  0  0  0  0
  179.8510  178.4800  139.1150 C   0  0  2  0  0  3  0  0  0  0  0  0
  181.3140  176.6600  138.4250 C   0  0  0  0  0  2  0  0  0  0  0  0
  180.3380  181.7050  135.2940 C   0  0  0  0  0  3  0  0  0  0  0  0
  180.4980  182.9880  136.0660 C   0  0  2  0  0  3  0  0  0  0  0  0
  179.5730  183.0360  137.2830 C   0  0  0  0  0  2  0  0  0  0  0  0
  181.1800  180.3300  137.1870 C   0  0  2  0  0  3  0  0  0  0  0  0
  180.1490  182.2640  138.4680 C   0  0  0  0  0  2  0  0  0  0  0  0
  180.1110  180.7620  138.2120 C   0  0  2  0  0  3  0  0  0  0  0  0
  183.2860  179.0050  144.7090 C   0  0  0  0  0  3  0  0  0  0  0  0
  184.1650  178.1330  142.1920 C   0  0  0  0  0  3  0  0  0  0  0  0
  186.8000  178.1070  145.4690 C   0  0  0  0  0  0  0  0  0  0  0  0
  185.4810  178.5570  145.6300 C   0  0  0  0  0  3  0  0  0  0  0  0
  184.6020  178.5640  144.5450 C   0  0  0  0  0  0  0  0  0  0  0  0
  186.3570  177.6720  143.1170 C   0  0  0  0  0  3  0  0  0  0  0  0
  185.0440  178.1210  143.2780 C   0  0  0  0  0  0  0  0  0  0  0  0
  187.2320  177.6630  144.2080 C   0  0  0  0  0  3  0  0  0  0  0  0
  182.8510  178.5850  142.3540 C   0  0  0  0  0  0  0  0  0  0  0  0
  182.4120  179.0110  143.6180 C   0  0  0  0  0  3  0  0  0  0  0  0
  187.7190  178.0980  146.6190 C   0  0  0  0  0  0  0  0  0  0  0  0
  188.9400  177.8310  146.4580 O   0  0  0  0  0  0  0  0  0  0  0  0
  187.2460  178.3830  147.8950 O   0  0  0  0  0  1  0  0  0  0  0  0
  180.2160  184.1540  135.1790 C   0  0  0  0  0  0  0  0  0  0  0  0
  181.1160  185.0090  134.9670 O   0  0  0  0  0  1  0  0  0  0  0  0
  178.9590  184.3210  134.6100 O   0  0  0  0  0  0  0  0  0  0  0  0
  1  5  1  6  0  0  0
  2 16  1  0  0  0  0
  4  8  1  0  0  0  0
  4 27  1  1  0  0  0
  5  4  1  0  0  0  0
  6  7  1  6  0  0  0
  6  8  1  0  0  0  0
  8  9  1  6  0  0  0
 10  3  1  1  0  0  0
 10 12  1  0  0  0  0
 10 11  1  0  0  0  0
 11  1  1  0  0  0  0
 11  6  1  0  0  0  0
 12  7  1  0  0  0  0
 13  2  2  0  0  0  0
 13 14  1  0  0  0  0
 14 15  1  0  0  0  0
 15 17  1  0  0  0  0
 16  3  1  0  0  0  0
 16 18  1  0  0  0  0
 18 17  1  0  0  0  0
 18  1  1  0  0  0  0
 20 27  2  0  0  0  0
 20 25  1  0  0  0  0
 21 22  1  0  0  0  0
 21 29  1  0  0  0  0
 23 19  1  0  0  0  0
 23 22  2  0  0  0  0
 24 25  2  0  0  0  0
 24 26  1  0  0  0  0
 25 23  1  0  0  0  0
 26 21  2  0  0  0  0
 27 28  1  0  0  0  0
 28 19  2  0  0  0  0
 29 31  1  0  0  0  0
 30 29  2  0  0  0  0
 32 14  1  0  0  0  0
 33 32  1  0  0  0  0
 34 32  2  0  0  0  0
M  END
>  <MODEL>
2

>  <REMARK>
 VINA RESULT:      -8.6      6.961     10.411
  Name = 
  3 active torsions:
  status: ('A' for Active; 'I' for Inactive)
    1  A    between atoms: C_3  and  C_25
    2  A    between atoms: C_7  and  C_11
    3  A    between atoms: C_8  and  C_30
                            x       y       z     vdW  Elec       q    Type
                         _______ _______ _______ _____ _____    ______ ____

>  <TORSDO>
F 3

$$$$
=
 OpenBabel10262423323D

 34 39  0  0  1  0  0  0  0  0999 V2000
  182.3820  177.2120  138.3340 C   0  0  2  0  0  3  0  0  0  0  0  0
  178.9910  175.9520  137.2300 C   0  0  0  0  0  3  0  0  0  0  0  0
  179.6680  177.5890  138.9930 C   0  0  0  0  0  2  0  0  0  0  0  0
  182.9070  178.5300  140.7520 C   0  0  2  0  0  3  0  0  0  0  0  0
  182.6570  176.8280  140.1190 S   0  0  0  0  0  0  0  0  0  0  0  0
  182.5820  179.8150  138.5990 C   0  0  1  0  0  3  0  0  0  0  0  0
  181.5180  180.8040  139.0480 C   0  0  0  0  0  2  0  0  0  0  0  0
  183.5390  179.4920  139.7460 C   0  0  2  0  0  3  0  0  0  0  0  0
  184.8730  178.9960  139.2090 C   0  0  0  0  0  1  0  0  0  0  0  0
  180.3280  178.8080  138.3330 C   0  0  2  0  0  3  0  0  0  0  0  0
  181.8200  178.6150  138.0370 C   0  0  2  0  0  3  0  0  0  0  0  0
  180.2370  180.0100  139.2520 C   0  0  0  0  0  2  0  0  0  0  0  0
  178.9310  174.7550  136.6280 C   0  0  0  0  0  3  0  0  0  0  0  0
  179.8520  173.6130  136.9700 C   0  0  2  0  0  3  0  0  0  0  0  0
  181.3050  173.9340  136.6210 C   0  0  0  0  0  2  0  0  0  0  0  0
  180.0010  176.2630  138.2900 C   0  0  2  0  0  3  0  0  0  0  0  0
  181.9760  174.7820  137.6980 C   0  0  0  0  0  2  0  0  0  0  0  0
  181.4240  176.2040  137.6970 C   0  0  2  0  0  3  0  0  0  0  0  0
  183.6350  178.9940  144.4620 C   0  0  0  0  0  3  0  0  0  0  0  0
  184.9080  178.0240  142.1590 C   0  0  0  0  0  3  0  0  0  0  0  0
  186.9050  177.9490  145.8580 C   0  0  0  0  0  0  0  0  0  0  0  0
  185.6030  178.4640  145.7720 C   0  0  0  0  0  3  0  0  0  0  0  0
  184.9350  178.4880  144.5450 C   0  0  0  0  0  0  0  0  0  0  0  0
  186.8720  177.4810  143.4720 C   0  0  0  0  0  3  0  0  0  0  0  0
  185.5750  177.9960  143.3860 C   0  0  0  0  0  0  0  0  0  0  0  0
  187.5340  177.4570  144.7030 C   0  0  0  0  0  3  0  0  0  0  0  0
  183.6110  178.5410  142.0730 C   0  0  0  0  0  0  0  0  0  0  0  0
  182.9740  179.0160  143.2310 C   0  0  0  0  0  3  0  0  0  0  0  0
  187.6000  177.9230  147.1560 C   0  0  0  0  0  0  0  0  0  0  0  0
  187.2260  178.6780  148.0950 O   0  0  0  0  0  1  0  0  0  0  0  0
  188.6740  177.0660  147.3580 O   0  0  0  0  0  0  0  0  0  0  0  0
  179.4240  172.3810  136.2460 C   0  0  0  0  0  0  0  0  0  0  0  0
  178.9620  172.4730  135.0780 O   0  0  0  0  0  0  0  0  0  0  0  0
  179.5030  171.1370  136.8600 O   0  0  0  0  0  1  0  0  0  0  0  0
  1  5  1  1  0  0  0
  2 16  1  0  0  0  0
  4 27  1  1  0  0  0
  5  4  1  0  0  0  0
  6  7  1  1  0  0  0
  6  8  1  0  0  0  0
  7 12  1  0  0  0  0
  8  9  1  6  0  0  0
  8  4  1  0  0  0  0
 10  3  1  1  0  0  0
 10 12  1  0  0  0  0
 11 10  1  0  0  0  0
 11  1  1  0  0  0  0
 11  6  1  0  0  0  0
 13 14  1  0  0  0  0
 13  2  2  0  0  0  0
 15 14  1  0  0  0  0
 15 17  1  0  0  0  0
 16  3  1  0  0  0  0
 18 17  1  0  0  0  0
 18 16  1  0  0  0  0
 18  1  1  0  0  0  0
 19 23  1  0  0  0  0
 20 25  1  0  0  0  0
 21 29  1  0  0  0  0
 22 21  1  0  0  0  0
 23 22  2  0  0  0  0
 24 26  1  0  0  0  0
 25 24  2  0  0  0  0
 25 23  1  0  0  0  0
 26 21  2  0  0  0  0
 27 20  2  0  0  0  0
 27 28  1  0  0  0  0
 28 19  2  0  0  0  0
 29 31  2  0  0  0  0
 29 30  1  0  0  0  0
 32 34  1  0  0  0  0
 32 14  1  0  0  0  0
 33 32  2  0  0  0  0
M  END
>  <MODEL>
3

>  <REMARK>
 VINA RESULT:      -8.5      6.477      9.032
  Name = 
  3 active torsions:
  status: ('A' for Active; 'I' for Inactive)
    1  A    between atoms: C_3  and  C_25
    2  A    between atoms: C_7  and  C_11
    3  A    between atoms: C_8  and  C_30
                            x       y       z     vdW  Elec       q    Type
                         _______ _______ _______ _____ _____    ______ ____

>  <TORSDO>
F 3

$$$$
=
 OpenBabel10262423323D

 34 39  0  0  1  0  0  0  0  0999 V2000
  190.8930  176.8230  137.4580 C   0  0  2  0  0  3  0  0  0  0  0  0
  192.2350  173.7610  135.6870 C   0  0  0  0  0  3  0  0  0  0  0  0
  190.2870  174.0810  137.2200 C   0  0  0  0  0  2  0  0  0  0  0  0
  189.1120  176.7860  139.6220 C   0  0  2  0  0  3  0  0  0  0  0  0
  190.8990  176.5590  139.2850 S   0  0  0  0  0  0  0  0  0  0  0  0
  188.3020  177.1900  137.2610 C   0  0  1  0  0  3  0  0  0  0  0  0
  187.2030  176.1420  137.1840 C   0  0  0  0  0  2  0  0  0  0  0  0
  188.4090  177.7590  138.6750 C   0  0  2  0  0  3  0  0  0  0  0  0
  189.0550  179.1350  138.6520 C   0  0  0  0  0  1  0  0  0  0  0  0
  189.2610  175.0090  136.5560 C   0  0  2  0  0  3  0  0  0  0  0  0
  189.5660  176.5010  136.7460 C   0  0  2  0  0  3  0  0  0  0  0  0
  187.8880  174.7850  137.1600 C   0  0  0  0  0  2  0  0  0  0  0  0
  193.5300  173.7550  135.3370 C   0  0  0  0  0  3  0  0  0  0  0  0
  194.6050  174.4330  136.1450 C   0  0  2  0  0  3  0  0  0  0  0  0
  194.4200  175.9510  136.1740 C   0  0  0  0  0  2  0  0  0  0  0  0
  191.7440  174.4660  136.9130 C   0  0  2  0  0  3  0  0  0  0  0  0
  193.3860  176.3780  137.2140 C   0  0  0  0  0  2  0  0  0  0  0  0
  191.9790  175.9850  136.7790 C   0  0  2  0  0  3  0  0  0  0  0  0
  187.3660  177.8790  142.8270 C   0  0  0  0  0  3  0  0  0  0  0  0
  189.8340  176.8230  142.0130 C   0  0  0  0  0  3  0  0  0  0  0  0
  189.1140  177.6000  146.0820 C   0  0  0  0  0  0  0  0  0  0  0  0
  188.1230  177.8730  145.1280 C   0  0  0  0  0  3  0  0  0  0  0  0
  188.3570  177.6130  143.7750 C   0  0  0  0  0  0  0  0  0  0  0  0
  190.5860  176.8050  144.3170 C   0  0  0  0  0  3  0  0  0  0  0  0
  189.5990  177.0780  143.3670 C   0  0  0  0  0  0  0  0  0  0  0  0
  190.3450  177.0630  145.6700 C   0  0  0  0  0  3  0  0  0  0  0  0
  188.8460  177.0980  141.0620 C   0  0  0  0  0  0  0  0  0  0  0  0
  187.6080  177.6170  141.4750 C   0  0  0  0  0  3  0  0  0  0  0  0
  188.8570  177.8720  147.5060 C   0  0  0  0  0  0  0  0  0  0  0  0
  189.8060  177.8790  148.3360 O   0  0  0  0  0  1  0  0  0  0  0  0
  187.5640  178.1240  147.9490 O   0  0  0  0  0  0  0  0  0  0  0  0
  195.9470  174.1060  135.5800 C   0  0  0  0  0  0  0  0  0  0  0  0
  196.1130  173.0290  134.9490 O   0  0  0  0  0  0  0  0  0  0  0  0
  197.0230  174.9650  135.7710 O   0  0  0  0  0  1  0  0  0  0  0  0
  1  5  1  1  0  0  0
  2 16  1  0  0  0  0
  4 27  1  1  0  0  0
  5  4  1  0  0  0  0
  6  7  1  1  0  0  0
  6  8  1  0  0  0  0
  8  9  1  6  0  0  0
  8  4  1  0  0  0  0
 10 11  1  0  0  0  0
 10 12  1  1  0  0  0
 10  3  1  0  0  0  0
 11  6  1  0  0  0  0
 11  1  1  0  0  0  0
 12  7  1  0  0  0  0
 13  2  2  0  0  0  0
 13 14  1  0  0  0  0
 14 15  1  0  0  0  0
 15 17  1  0  0  0  0
 16  3  1  0  0  0  0
 18 16  1  0  0  0  0
 18 17  1  0  0  0  0
 18  1  1  0  0  0  0
 19 23  1  0  0  0  0
 20 25  1  0  0  0  0
 21 29  1  0  0  0  0
 22 21  2  0  0  0  0
 23 22  1  0  0  0  0
 24 26  2  0  0  0  0
 25 23  2  0  0  0  0
 25 24  1  0  0  0  0
 26 21  1  0  0  0  0
 27 28  1  0  0  0  0
 27 20  2  0  0  0  0
 28 19  2  0  0  0  0
 29 31  2  0  0  0  0
 29 30  1  0  0  0  0
 32 34  1  0  0  0  0
 32 14  1  0  0  0  0
 33 32  2  0  0  0  0
M  END
>  <MODEL>
4

>  <REMARK>
 VINA RESULT:      -8.5      1.807      2.439
  Name = 
  3 active torsions:
  status: ('A' for Active; 'I' for Inactive)
    1  A    between atoms: C_3  and  C_25
    2  A    between atoms: C_7  and  C_11
    3  A    between atoms: C_8  and  C_30
                            x       y       z     vdW  Elec       q    Type
                         _______ _______ _______ _____ _____    ______ ____

>  <TORSDO>
F 3

$$$$
=
 OpenBabel10262423323D

 34 39  0  0  1  0  0  0  0  0999 V2000
  181.7170  179.8200  139.6870 C   0  0  2  0  0  3  0  0  0  0  0  0
  180.4230  180.3860  136.1780 C   0  0  0  0  0  3  0  0  0  0  0  0
  182.0190  178.7060  137.1170 C   0  0  0  0  0  2  0  0  0  0  0  0
  183.9830  178.3080  140.3490 C   0  0  2  0  0  3  0  0  0  0  0  0
  183.5560  179.9780  139.7230 S   0  0  0  0  0  0  0  0  0  0  0  0
  181.6570  177.3320  140.5200 C   0  0  1  0  0  3  0  0  0  0  0  0
  181.8530  176.0600  139.7100 C   0  0  0  0  0  2  0  0  0  0  0  0
  182.9350  177.6940  141.2760 C   0  0  2  0  0  3  0  0  0  0  0  0
  182.6180  178.5720  142.4770 C   0  0  0  0  0  1  0  0  0  0  0  0
  181.2810  177.7990  138.1100 C   0  0  2  0  0  3  0  0  0  0  0  0
  181.1780  178.3870  139.5220 C   0  0  2  0  0  3  0  0  0  0  0  0
  182.0180  176.4820  138.2590 C   0  0  0  0  0  2  0  0  0  0  0  0
  179.9820  181.6120  135.8610 C   0  0  0  0  0  3  0  0  0  0  0  0
  180.5700  182.8740  136.4350 C   0  0  2  0  0  3  0  0  0  0  0  0
  180.3430  182.9700  137.9440 C   0  0  0  0  0  2  0  0  0  0  0  0
  181.5380  180.1660  137.1530 C   0  0  2  0  0  3  0  0  0  0  0  0
  181.3660  182.1500  138.7270 C   0  0  0  0  0  2  0  0  0  0  0  0
  181.1170  180.6560  138.5550 C   0  0  2  0  0  3  0  0  0  0  0  0
  187.7600  178.6100  140.7440 C   0  0  0  0  0  3  0  0  0  0  0  0
  185.5210  177.8910  142.2730 C   0  0  0  0  0  3  0  0  0  0  0  0
  189.3570  177.8260  143.9940 C   0  0  0  0  0  0  0  0  0  0  0  0
  189.1940  178.2020  142.6530 C   0  0  0  0  0  3  0  0  0  0  0  0
  187.9210  178.2280  142.0780 C   0  0  0  0  0  0  0  0  0  0  0  0
  186.9550  177.4960  144.1870 C   0  0  0  0  0  3  0  0  0  0  0  0
  186.7940  177.8690  142.8500 C   0  0  0  0  0  0  0  0  0  0  0  0
  188.2310  177.4750  144.7570 C   0  0  0  0  0  3  0  0  0  0  0  0
  185.3610  178.2630  140.9340 C   0  0  0  0  0  0  0  0  0  0  0  0
  186.4830  178.6320  140.1750 C   0  0  0  0  0  3  0  0  0  0  0  0
  190.7020  177.8070  144.5940 C   0  0  0  0  0  0  0  0  0  0  0  0
  190.8600  177.4570  145.7940 O   0  0  0  0  0  1  0  0  0  0  0  0
  191.8100  178.1750  143.8390 O   0  0  0  0  0  0  0  0  0  0  0  0
  179.9720  184.0650  135.7640 C   0  0  0  0  0  0  0  0  0  0  0  0
  179.3970  183.9310  134.6520 O   0  0  0  0  0  0  0  0  0  0  0  0
  180.0710  185.3250  136.3410 O   0  0  0  0  0  1  0  0  0  0  0  0
  1  5  1  6  0  0  0
  2 16  1  0  0  0  0
  3 16  1  0  0  0  0
  4 27  1  1  0  0  0
  4  8  1  0  0  0  0
  5  4  1  0  0  0  0
  6  7  1  6  0  0  0
  6  8  1  0  0  0  0
  8  9  1  1  0  0  0
 10  3  1  6  0  0  0
 10 12  1  0  0  0  0
 10 11  1  0  0  0  0
 11  1  1  0  0  0  0
 11  6  1  0  0  0  0
 12  7  1  0  0  0  0
 13  2  2  0  0  0  0
 13 14  1  0  0  0  0
 14 15  1  0  0  0  0
 15 17  1  0  0  0  0
 16 18  1  0  0  0  0
 18 17  1  0  0  0  0
 18  1  1  0  0  0  0
 19 23  1  0  0  0  0
 20 25  1  0  0  0  0
 21 29  1  0  0  0  0
 21 26  1  0  0  0  0
 22 21  2  0  0  0  0
 23 22  1  0  0  0  0
 23 25  2  0  0  0  0
 24 26  2  0  0  0  0
 25 24  1  0  0  0  0
 27 20  2  0  0  0  0
 28 19  2  0  0  0  0
 28 27  1  0  0  0  0
 29 30  1  0  0  0  0
 31 29  2  0  0  0  0
 32 34  1  0  0  0  0
 32 14  1  0  0  0  0
 33 32  2  0  0  0  0
M  END
>  <MODEL>
5

>  <REMARK>
 VINA RESULT:      -6.6      5.542     10.005
  Name = 
  3 active torsions:
  status: ('A' for Active; 'I' for Inactive)
    1  A    between atoms: C_3  and  C_25
    2  A    between atoms: C_7  and  C_11
    3  A    between atoms: C_8  and  C_30
                            x       y       z     vdW  Elec       q    Type
                         _______ _______ _______ _____ _____    ______ ____

>  <TORSDO>
F 3

$$$$
=
 OpenBabel10262423323D

 34 39  0  0  1  0  0  0  0  0999 V2000
  190.7580  176.9040  136.9950 C   0  0  2  0  0  3  0  0  0  0  0  0
  192.1000  173.5590  135.8480 C   0  0  0  0  0  3  0  0  0  0  0  0
  189.7740  174.3580  136.2950 C   0  0  0  0  0  2  0  0  0  0  0  0
  188.1970  177.3420  138.0490 C   0  0  2  0  0  3  0  0  0  0  0  0
  189.8340  176.7120  138.5820 S   0  0  0  0  0  0  0  0  0  0  0  0
  188.7210  177.8280  135.6230 C   0  0  1  0  0  3  0  0  0  0  0  0
  187.5980  177.0470  134.9580 C   0  0  0  0  0  2  0  0  0  0  0  0
  188.2570  178.4110  136.9580 C   0  0  2  0  0  3  0  0  0  0  0  0
  189.1100  179.6080  137.3470 C   0  0  0  0  0  1  0  0  0  0  0  0
  189.4130  175.4650  135.2960 C   0  0  2  0  0  3  0  0  0  0  0  0
  189.8980  176.8580  135.7180 C   0  0  2  0  0  3  0  0  0  0  0  0
  187.9070  175.5720  135.1590 C   0  0  0  0  0  2  0  0  0  0  0  0
  193.3700  173.2530  136.1540 C   0  0  0  0  0  3  0  0  0  0  0  0
  194.0450  173.7060  137.4220 C   0  0  2  0  0  3  0  0  0  0  0  0
  194.1940  175.2270  137.4730 C   0  0  0  0  0  2  0  0  0  0  0  0
  191.2450  174.4000  136.7440 C   0  0  2  0  0  3  0  0  0  0  0  0
  192.9060  175.9100  137.9280 C   0  0  0  0  0  2  0  0  0  0  0  0
  191.8310  175.8230  136.8510 C   0  0  2  0  0  3  0  0  0  0  0  0
  187.1260  178.5820  141.4880 C   0  0  0  0  0  3  0  0  0  0  0  0
  185.9580  177.7780  139.0670 C   0  0  0  0  0  3  0  0  0  0  0  0
  183.5300  179.0180  142.2680 C   0  0  0  0  0  0  0  0  0  0  0  0
  184.9250  179.0000  142.4100 C   0  0  0  0  0  3  0  0  0  0  0  0
  185.7360  178.5920  141.3480 C   0  0  0  0  0  0  0  0  0  0  0  0
  183.7570  178.2100  139.9860 C   0  0  0  0  0  3  0  0  0  0  0  0
  185.1470  178.1910  140.1280 C   0  0  0  0  0  0  0  0  0  0  0  0
  182.9510  178.6230  141.0510 C   0  0  0  0  0  3  0  0  0  0  0  0
  187.3490  177.7580  139.2110 C   0  0  0  0  0  0  0  0  0  0  0  0
  187.9300  178.1710  140.4210 C   0  0  0  0  0  3  0  0  0  0  0  0
  182.6830  179.4550  143.3910 C   0  0  0  0  0  0  0  0  0  0  0  0
  183.1480  179.4960  144.5620 O   0  0  0  0  0  1  0  0  0  0  0  0
  181.3620  179.8260  143.1700 O   0  0  0  0  0  0  0  0  0  0  0  0
  195.3900  173.0700  137.5370 C   0  0  0  0  0  0  0  0  0  0  0  0
  196.3380  173.4810  136.8180 O   0  0  0  0  0  0  0  0  0  0  0  0
  195.5960  172.0060  138.4070 O   0  0  0  0  0  1  0  0  0  0  0  0
  1  5  1  1  0  0  0
  2 13  2  0  0  0  0
  2 16  1  0  0  0  0
  3 16  1  0  0  0  0
  4  5  1  0  0  0  0
  4 27  1  1  0  0  0
  6  7  1  1  0  0  0
  6 11  1  0  0  0  0
  6  8  1  0  0  0  0
  7 12  1  0  0  0  0
  8  9  1  1  0  0  0
  8  4  1  0  0  0  0
 10 12  1  1  0  0  0
 10 11  1  0  0  0  0
 10  3  1  0  0  0  0
 11  1  1  0  0  0  0
 13 14  1  0  0  0  0
 14 15  1  0  0  0  0
 14 32  1  0  0  0  0
 15 17  1  0  0  0  0
 16 18  1  0  0  0  0
 18  1  1  0  0  0  0
 18 17  1  0  0  0  0
 20 27  2  0  0  0  0
 20 25  1  0  0  0  0
 21 22  1  0  0  0  0
 21 29  1  0  0  0  0
 23 19  1  0  0  0  0
 23 22  2  0  0  0  0
 24 25  2  0  0  0  0
 24 26  1  0  0  0  0
 25 23  1  0  0  0  0
 26 21  2  0  0  0  0
 27 28  1  0  0  0  0
 28 19  2  0  0  0  0
 29 30  1  0  0  0  0
 31 29  2  0  0  0  0
 32 34  1  0  0  0  0
 33 32  2  0  0  0  0
M  END
>  <MODEL>
6

>  <REMARK>
 VINA RESULT:      -6.4      1.346      2.174
  Name = 
  3 active torsions:
  status: ('A' for Active; 'I' for Inactive)
    1  A    between atoms: C_3  and  C_25
    2  A    between atoms: C_7  and  C_11
    3  A    between atoms: C_8  and  C_30
                            x       y       z     vdW  Elec       q    Type
                         _______ _______ _______ _____ _____    ______ ____

>  <TORSDO>
F 3

$$$$
=
 OpenBabel10262423323D

 34 39  0  0  1  0  0  0  0  0999 V2000
  188.4940  175.6930  136.8130 C   0  0  2  0  0  3  0  0  0  0  0  0
  185.0470  175.5860  135.2590 C   0  0  0  0  0  3  0  0  0  0  0  0
  186.0980  177.1750  136.8760 C   0  0  0  0  0  2  0  0  0  0  0  0
  189.1980  177.1830  139.0800 C   0  0  2  0  0  3  0  0  0  0  0  0
  188.3690  175.6050  138.6520 S   0  0  0  0  0  0  0  0  0  0  0  0
  189.6840  178.0310  136.7480 C   0  0  1  0  0  3  0  0  0  0  0  0
  189.0560  179.4130  136.8420 C   0  0  0  0  0  2  0  0  0  0  0  0
  190.2810  177.6160  138.0920 C   0  0  2  0  0  3  0  0  0  0  0  0
  191.3610  176.5630  137.8970 C   0  0  0  0  0  1  0  0  0  0  0  0
  187.2660  177.9010  136.1940 C   0  0  2  0  0  3  0  0  0  0  0  0
  188.5810  177.1130  136.2210 C   0  0  2  0  0  3  0  0  0  0  0  0
  187.5500  179.2110  136.9030 C   0  0  0  0  0  2  0  0  0  0  0  0
  184.5880  174.4010  134.8290 C   0  0  0  0  0  3  0  0  0  0  0  0
  184.9260  173.0940  135.4970 C   0  0  2  0  0  3  0  0  0  0  0  0
  186.4180  172.7740  135.3940 C   0  0  0  0  0  2  0  0  0  0  0  0
  185.9570  175.7070  136.4410 C   0  0  2  0  0  3  0  0  0  0  0  0
  187.2330  173.5130  136.4530 C   0  0  0  0  0  2  0  0  0  0  0  0
  187.3000  175.0050  136.1480 C   0  0  2  0  0  3  0  0  0  0  0  0
  191.4750  177.3770  142.1280 C   0  0  0  0  0  3  0  0  0  0  0  0
  188.7450  177.1220  141.5360 C   0  0  0  0  0  3  0  0  0  0  0  0
  190.0300  177.2470  145.5380 C   0  0  0  0  0  0  0  0  0  0  0  0
  190.9660  177.3280  144.4960 C   0  0  0  0  0  3  0  0  0  0  0  0
  190.5430  177.2900  143.1650 C   0  0  0  0  0  0  0  0  0  0  0  0
  188.2350  177.0860  143.9050 C   0  0  0  0  0  3  0  0  0  0  0  0
  189.1670  177.1650  142.8680 C   0  0  0  0  0  0  0  0  0  0  0  0
  188.6640  177.1280  145.2350 C   0  0  0  0  0  3  0  0  0  0  0  0
  189.6790  177.1990  140.4980 C   0  0  0  0  0  0  0  0  0  0  0  0
  191.0440  177.3370  140.7990 C   0  0  0  0  0  3  0  0  0  0  0  0
  190.4850  177.2940  146.9380 C   0  0  0  0  0  0  0  0  0  0  0  0
  191.6730  176.9930  147.2330 O   0  0  0  0  0  0  0  0  0  0  0  0
  189.6060  177.6690  147.9470 O   0  0  0  0  0  1  0  0  0  0  0  0
  184.1350  171.9890  134.8810 C   0  0  0  0  0  0  0  0  0  0  0  0
  182.9090  172.1550  134.6460 O   0  0  0  0  0  1  0  0  0  0  0  0
  184.7320  170.7670  134.5940 O   0  0  0  0  0  0  0  0  0  0  0  0
  1  5  1  1  0  0  0
  2 16  1  0  0  0  0
  4 27  1  1  0  0  0
  5  4  1  0  0  0  0
  6  7  1  1  0  0  0
  6  8  1  0  0  0  0
  7 12  1  0  0  0  0
  8  9  1  6  0  0  0
  8  4  1  0  0  0  0
 10 11  1  0  0  0  0
 10  3  1  1  0  0  0
 10 12  1  0  0  0  0
 11  6  1  0  0  0  0
 11  1  1  0  0  0  0
 13  2  2  0  0  0  0
 13 14  1  0  0  0  0
 15 14  1  0  0  0  0
 15 17  1  0  0  0  0
 16  3  1  0  0  0  0
 18 16  1  0  0  0  0
 18 17  1  0  0  0  0
 18  1  1  0  0  0  0
 19 23  1  0  0  0  0
 20 25  1  0  0  0  0
 21 29  1  0  0  0  0
 22 21  2  0  0  0  0
 23 22  1  0  0  0  0
 24 26  2  0  0  0  0
 25 23  2  0  0  0  0
 25 24  1  0  0  0  0
 26 21  1  0  0  0  0
 27 28  1  0  0  0  0
 27 20  2  0  0  0  0
 28 19  2  0  0  0  0
 29 30  2  0  0  0  0
 29 31  1  0  0  0  0
 32 14  1  0  0  0  0
 33 32  1  0  0  0  0
 34 32  2  0  0  0  0
M  END
>  <MODEL>
7

>  <REMARK>
 VINA RESULT:      -6.2      4.036      6.020
  Name = 
  3 active torsions:
  status: ('A' for Active; 'I' for Inactive)
    1  A    between atoms: C_3  and  C_25
    2  A    between atoms: C_7  and  C_11
    3  A    between atoms: C_8  and  C_30
                            x       y       z     vdW  Elec       q    Type
                         _______ _______ _______ _____ _____    ______ ____

>  <TORSDO>
F 3

$$$$
=
 OpenBabel10262423323D

 34 39  0  0  1  0  0  0  0  0999 V2000
  188.5910  177.8840  138.3580 C   0  0  2  0  0  3  0  0  0  0  0  0
  191.5080  177.1280  140.6440 C   0  0  0  0  0  3  0  0  0  0  0  0
  190.6360  175.9620  138.6120 C   0  0  0  0  0  2  0  0  0  0  0  0
  187.4350  176.0690  136.5600 C   0  0  2  0  0  3  0  0  0  0  0  0
  187.4030  176.4700  138.3490 S   0  0  0  0  0  0  0  0  0  0  0  0
  189.1210  177.7890  135.7890 C   0  0  1  0  0  3  0  0  0  0  0  0
  190.0980  176.8810  135.0600 C   0  0  0  0  0  2  0  0  0  0  0  0
  187.6910  177.2690  135.6490 C   0  0  2  0  0  3  0  0  0  0  0  0
  186.6880  178.3940  135.8540 C   0  0  0  0  0  1  0  0  0  0  0  0
  190.7870  176.8790  137.3910 C   0  0  2  0  0  3  0  0  0  0  0  0
  189.6350  177.8790  137.2260 C   0  0  2  0  0  3  0  0  0  0  0  0
  190.8080  176.0540  136.1200 C   0  0  0  0  0  2  0  0  0  0  0  0
  191.4640  177.6030  141.8970 C   0  0  0  0  0  3  0  0  0  0  0  0
  190.1840  177.7520  142.6770 C   0  0  2  0  0  3  0  0  0  0  0  0
  189.2520  178.7860  142.0450 C   0  0  0  0  0  2  0  0  0  0  0  0
  190.2740  176.7190  139.9010 C   0  0  2  0  0  3  0  0  0  0  0  0
  188.4590  178.1990  140.8790 C   0  0  0  0  0  2  0  0  0  0  0  0
  189.3620  177.9440  139.6780 C   0  0  2  0  0  3  0  0  0  0  0  0
  184.4070  174.8560  134.5940 C   0  0  0  0  0  3  0  0  0  0  0  0
  185.8670  174.1520  136.8830 C   0  0  0  0  0  3  0  0  0  0  0  0
  182.5590  171.8410  135.7020 C   0  0  0  0  0  0  0  0  0  0  0  0
  182.9320  172.9690  134.9550 C   0  0  0  0  0  3  0  0  0  0  0  0
  184.0320  173.7370  135.3430 C   0  0  0  0  0  0  0  0  0  0  0  0
  184.3990  172.2560  137.2370 C   0  0  0  0  0  3  0  0  0  0  0  0
  184.7690  173.3800  136.4940 C   0  0  0  0  0  0  0  0  0  0  0  0
  183.2990  171.4880  136.8420 C   0  0  0  0  0  3  0  0  0  0  0  0
  186.2360  175.2780  136.1400 C   0  0  0  0  0  0  0  0  0  0  0  0
  185.5080  175.6200  134.9880 C   0  0  0  0  0  3  0  0  0  0  0  0
  181.4010  171.0340  135.2830 C   0  0  0  0  0  0  0  0  0  0  0  0
  181.4570  169.7750  135.3110 O   0  0  0  0  0  1  0  0  0  0  0  0
  180.2340  171.6540  134.8530 O   0  0  0  0  0  0  0  0  0  0  0  0
  190.4890  178.1500  144.0830 C   0  0  0  0  0  0  0  0  0  0  0  0
  191.6810  178.3660  144.4250 O   0  0  0  0  0  0  0  0  0  0  0  0
  189.4720  178.2530  145.0250 O   0  0  0  0  0  1  0  0  0  0  0  0
  1  5  1  1  0  0  0
  1 18  1  0  0  0  0
  2 13  2  0  0  0  0
  3 16  1  0  0  0  0
  4 27  1  6  0  0  0
  4  5  1  0  0  0  0
  6  7  1  6  0  0  0
  6 11  1  0  0  0  0
  7 12  1  0  0  0  0
  8  6  1  0  0  0  0
  8  9  1  1  0  0  0
  8  4  1  0  0  0  0
 10 12  1  6  0  0  0
 10  3  1  0  0  0  0
 11 10  1  0  0  0  0
 11  1  1  0  0  0  0
 13 14  1  0  0  0  0
 14 32  1  0  0  0  0
 15 14  1  0  0  0  0
 16  2  1  0  0  0  0
 17 15  1  0  0  0  0
 18 16  1  0  0  0  0
 18 17  1  0  0  0  0
 19 28  2  0  0  0  0
 19 23  1  0  0  0  0
 21 26  1  0  0  0  0
 22 23  1  0  0  0  0
 22 21  2  0  0  0  0
 23 25  2  0  0  0  0
 25 20  1  0  0  0  0
 25 24  1  0  0  0  0
 26 24  2  0  0  0  0
 27 20  2  0  0  0  0
 28 27  1  0  0  0  0
 29 30  1  0  0  0  0
 29 21  1  0  0  0  0
 31 29  2  0  0  0  0
 32 33  2  0  0  0  0
 32 34  1  0  0  0  0
M  END
>  <MODEL>
8

>  <REMARK>
 VINA RESULT:      -6.1      4.759      7.631
  Name = 
  3 active torsions:
  status: ('A' for Active; 'I' for Inactive)
    1  A    between atoms: C_3  and  C_25
    2  A    between atoms: C_7  and  C_11
    3  A    between atoms: C_8  and  C_30
                            x       y       z     vdW  Elec       q    Type
                         _______ _______ _______ _____ _____    ______ ____

>  <TORSDO>
F 3

$$$$
=
 OpenBabel10262423323D

 34 39  0  0  1  0  0  0  0  0999 V2000
  181.7810  179.7710  141.1500 C   0  0  2  0  0  3  0  0  0  0  0  0
  179.6240  178.2980  138.4140 C   0  0  0  0  0  3  0  0  0  0  0  0
  180.7890  177.2540  140.3640 C   0  0  0  0  0  2  0  0  0  0  0  0
  183.4940  178.3090  142.8200 C   0  0  2  0  0  3  0  0  0  0  0  0
  183.4600  179.0040  141.1230 S   0  0  0  0  0  0  0  0  0  0  0  0
  181.1870  179.0020  143.5880 C   0  0  1  0  0  3  0  0  0  0  0  0
  180.6550  177.6540  144.0490 C   0  0  0  0  0  2  0  0  0  0  0  0
  182.6890  179.1080  143.8450 C   0  0  2  0  0  3  0  0  0  0  0  0
  183.1180  180.5640  143.9320 C   0  0  0  0  0  1  0  0  0  0  0  0
  180.1810  177.7870  141.6680 C   0  0  2  0  0  3  0  0  0  0  0  0
  180.7740  179.1270  142.1210 C   0  0  2  0  0  3  0  0  0  0  0  0
  180.4400  176.8130  142.8010 C   0  0  0  0  0  2  0  0  0  0  0  0
  179.5360  178.9670  137.2550 C   0  0  0  0  0  3  0  0  0  0  0  0
  180.6710  179.7730  136.6800 C   0  0  2  0  0  3  0  0  0  0  0  0
  181.0240  180.9670  137.5670 C   0  0  0  0  0  2  0  0  0  0  0  0
  180.8650  178.3120  139.2510 C   0  0  2  0  0  3  0  0  0  0  0  0
  181.9190  180.5630  138.7360 C   0  0  0  0  0  2  0  0  0  0  0  0
  181.1430  179.7420  139.7600 C   0  0  2  0  0  3  0  0  0  0  0  0
  187.2360  177.5940  142.8120 C   0  0  0  0  0  3  0  0  0  0  0  0
  185.1610  178.0050  144.6550 C   0  0  0  0  0  3  0  0  0  0  0  0
  189.0780  177.3000  146.0140 C   0  0  0  0  0  0  0  0  0  0  0  0
  188.8040  177.3250  144.6390 C   0  0  0  0  0  3  0  0  0  0  0  0
  187.5050  177.5620  144.1830 C   0  0  0  0  0  0  0  0  0  0  0  0
  186.7340  177.7490  146.4820 C   0  0  0  0  0  3  0  0  0  0  0  0
  186.4620  177.7720  145.1120 C   0  0  0  0  0  0  0  0  0  0  0  0
  188.0370  177.5150  146.9320 C   0  0  0  0  0  3  0  0  0  0  0  0
  184.8900  178.0260  143.2840 C   0  0  0  0  0  0  0  0  0  0  0  0
  185.9330  177.8300  142.3640 C   0  0  0  0  0  3  0  0  0  0  0  0
  190.4510  177.0540  146.4860 C   0  0  0  0  0  0  0  0  0  0  0  0
  190.7130  177.0620  147.7180 O   0  0  0  0  0  1  0  0  0  0  0  0
  191.4710  176.8130  145.5740 O   0  0  0  0  0  0  0  0  0  0  0  0
  180.3120  180.2540  135.3150 C   0  0  0  0  0  0  0  0  0  0  0  0
  179.5380  179.5700  134.5950 O   0  0  0  0  0  0  0  0  0  0  0  0
  180.8480  181.4360  134.8180 O   0  0  0  0  0  1  0  0  0  0  0  0
  1  5  1  6  0  0  0
  1 11  1  0  0  0  0
  2 16  1  0  0  0  0
  4 27  1  1  0  0  0
  4  8  1  0  0  0  0
  5  4  1  0  0  0  0
  6  8  1  0  0  0  0
  6  7  1  6  0  0  0
  8  9  1  6  0  0  0
 10  3  1  6  0  0  0
 10 11  1  0  0  0  0
 10 12  1  0  0  0  0
 11  6  1  0  0  0  0
 12  7  1  0  0  0  0
 13  2  2  0  0  0  0
 14 13  1  0  0  0  0
 14 15  1  0  0  0  0
 15 17  1  0  0  0  0
 16 18  1  0  0  0  0
 16  3  1  0  0  0  0
 17 18  1  0  0  0  0
 18  1  1  0  0  0  0
 19 23  1  0  0  0  0
 20 25  1  0  0  0  0
 21 29  1  0  0  0  0
 21 26  1  0  0  0  0
 22 21  2  0  0  0  0
 23 22  1  0  0  0  0
 23 25  2  0  0  0  0
 24 26  2  0  0  0  0
 25 24  1  0  0  0  0
 27 20  2  0  0  0  0
 28 19  2  0  0  0  0
 28 27  1  0  0  0  0
 29 30  1  0  0  0  0
 31 29  2  0  0  0  0
 32 14  1  0  0  0  0
 33 32  2  0  0  0  0
 34 32  1  0  0  0  0
M  END
>  <MODEL>
9

>  <REMARK>
 VINA RESULT:      -5.9      6.405      9.984
  Name = 
  3 active torsions:
  status: ('A' for Active; 'I' for Inactive)
    1  A    between atoms: C_3  and  C_25
    2  A    between atoms: C_7  and  C_11
    3  A    between atoms: C_8  and  C_30
                            x       y       z     vdW  Elec       q    Type
                         _______ _______ _______ _____ _____    ______ ____

>  <TORSDO>
F 3

$$$$
