=
 OpenBabel10262423263D

 34 40  0  0  0  0  0  0  0  0999 V2000
  189.0270  177.9450  143.4510 C   0  0  0  0  0  0  0  0  0  0  0  0
  192.2620  177.3280  141.5700 C   0  0  0  0  0  3  0  0  0  0  0  0
  192.0770  178.0780  144.2030 S   0  0  0  0  0  0  0  0  0  0  0  0
  187.0540  177.6920  145.3570 N   0  0  0  0  0  0  0  0  0  0  0  0
  187.7180  178.1700  143.1530 N   0  0  0  0  0  0  0  0  0  0  0  0
  188.3390  177.4470  145.7140 C   0  0  0  0  0  0  0  0  0  0  0  0
  189.9510  176.7330  147.3710 C   0  0  0  0  0  3  0  0  0  0  0  0
  188.6290  176.9860  147.0000 C   0  0  0  0  0  3  0  0  0  0  0  0
  186.7380  178.0820  144.0920 C   0  0  0  0  0  0  0  0  0  0  0  0
  190.7140  177.4390  145.1800 C   0  0  0  0  0  0  0  0  0  0  0  0
  189.3790  177.6340  144.7780 C   0  0  0  0  0  0  0  0  0  0  0  0
  190.9910  176.9750  146.4690 C   0  0  0  0  0  3  0  0  0  0  0  0
  191.7910  177.1500  140.2670 C   0  0  0  0  0  0  0  0  0  0  0  0
  190.4250  177.3190  140.0010 C   0  0  0  0  0  3  0  0  0  0  0  0
  191.3830  177.6580  142.6070 C   0  0  0  0  0  0  0  0  0  0  0  0
  189.5420  177.6360  141.0350 C   0  0  0  0  0  3  0  0  0  0  0  0
  190.0070  177.8040  142.3470 C   0  0  0  0  0  0  0  0  0  0  0  0
  183.0560  178.9030  144.3800 C   0  0  0  0  0  3  0  0  0  0  0  0
  184.9320  178.3150  142.3830 C   0  0  0  0  0  3  0  0  0  0  0  0
  180.9270  179.0850  141.3520 C   0  0  0  0  0  0  0  0  0  0  0  0
  181.3290  179.1210  142.6950 C   0  0  0  0  0  3  0  0  0  0  0  0
  182.6580  178.8660  143.0430 C   0  0  0  0  0  0  0  0  0  0  0  0
  183.2060  178.5340  140.6980 C   0  0  0  0  0  3  0  0  0  0  0  0
  183.6030  178.5700  142.0360 C   0  0  0  0  0  0  0  0  0  0  0  0
  181.8750  178.7890  140.3580 C   0  0  0  0  0  3  0  0  0  0  0  0
  185.3350  178.3520  143.7270 C   0  0  0  0  0  0  0  0  0  0  0  0
  184.3880  178.6470  144.7200 C   0  0  0  0  0  3  0  0  0  0  0  0
  179.5620  179.3480  141.0010 N   0  0  0  0  0  0  0  0  0  0  0  0
  178.9310  178.5550  140.2720 O   0  0  0  0  0  0  0  0  0  0  0  0
  178.9310  180.4790  141.4670 O   0  0  0  0  0  0  0  0  0  0  0  0
  192.7000  176.8190  139.2580 O   0  0  0  0  0  0  0  0  0  0  0  0
  192.3050  176.5900  137.9120 C   0  0  0  0  0  3  0  0  0  0  0  0
  193.5120  176.1600  137.1030 C   0  0  0  0  0  2  0  0  0  0  0  0
  192.5090  175.1290  137.5760 C   0  0  0  0  0  2  0  0  0  0  0  0
  1 11  1  0  0  0  0
  2 15  1  0  0  0  0
  3 10  1  0  0  0  0
  4  6  1  0  0  0  0
  5  1  2  0  0  0  0
  5  9  1  0  0  0  0
  6  8  1  0  0  0  0
  8  7  2  0  0  0  0
  9  4  2  0  0  0  0
 10 12  2  0  0  0  0
 11 10  1  0  0  0  0
 11  6  2  0  0  0  0
 12  7  1  0  0  0  0
 13  2  2  0  0  0  0
 14 13  1  0  0  0  0
 14 16  2  0  0  0  0
 15  3  1  0  0  0  0
 16 17  1  0  0  0  0
 17 15  2  0  0  0  0
 17  1  1  0  0  0  0
 18 27  1  0  0  0  0
 19 26  1  0  0  0  0
 20 21  2  0  0  0  0
 21 22  1  0  0  0  0
 22 18  2  0  0  0  0
 23 24  1  0  0  0  0
 24 19  2  0  0  0  0
 24 22  1  0  0  0  0
 25 23  2  0  0  0  0
 25 20  1  0  0  0  0
 26  9  1  0  0  0  0
 26 27  2  0  0  0  0
 28 20  1  0  0  0  0
 28 30  2  0  0  0  0
 29 28  2  0  0  0  0
 31 13  1  0  0  0  0
 32 31  1  0  0  0  0
 33 34  1  0  0  0  0
 33 32  1  0  0  0  0
 34 32  1  0  0  0  0
M  END
>  <MODEL>
1

>  <REMARK>
 VINA RESULT:     -10.2      0.000      0.000
  Name = 
  4 active torsions:
  status: ('A' for Active; 'I' for Inactive)
    1  A    between atoms: C_3  and  O_25
    2  A    between atoms: C_7  and  N_11
    3  A    between atoms: C_18  and  C_30
    4  A    between atoms: C_23  and  O_25
                            x       y       z     vdW  Elec       q    Type
                         _______ _______ _______ _____ _____    ______ ____

>  <TORSDO>
F 4

$$$$
=
 OpenBabel10262423263D

 34 40  0  0  0  0  0  0  0  0999 V2000
  187.2100  177.8290  144.3340 C   0  0  0  0  0  0  0  0  0  0  0  0
  183.6150  178.8510  144.9760 C   0  0  0  0  0  3  0  0  0  0  0  0
  185.2400  177.5560  146.7680 S   0  0  0  0  0  0  0  0  0  0  0  0
  189.9440  177.6600  144.6310 N   0  0  0  0  0  0  0  0  0  0  0  0
  188.0330  177.6660  143.2620 N   0  0  0  0  0  0  0  0  0  0  0  0
  189.1790  177.8300  145.7370 C   0  0  0  0  0  0  0  0  0  0  0  0
  189.0000  178.1840  148.1240 C   0  0  0  0  0  3  0  0  0  0  0  0
  189.7850  178.0080  146.9830 C   0  0  0  0  0  3  0  0  0  0  0  0
  189.3820  177.5470  143.3970 C   0  0  0  0  0  0  0  0  0  0  0  0
  186.9870  177.9650  146.7880 C   0  0  0  0  0  0  0  0  0  0  0  0
  187.7720  177.8530  145.6260 C   0  0  0  0  0  0  0  0  0  0  0  0
  187.6060  178.1450  148.0290 C   0  0  0  0  0  3  0  0  0  0  0  0
  183.2290  179.3000  143.7120 C   0  0  0  0  0  0  0  0  0  0  0  0
  184.1230  179.1840  142.6370 C   0  0  0  0  0  3  0  0  0  0  0  0
  184.8860  178.3030  145.1810 C   0  0  0  0  0  0  0  0  0  0  0  0
  185.3970  178.6500  142.8390 C   0  0  0  0  0  3  0  0  0  0  0  0
  185.7950  178.2080  144.1090 C   0  0  0  0  0  0  0  0  0  0  0  0
  192.4310  177.3670  141.1650 C   0  0  0  0  0  3  0  0  0  0  0  0
  189.6620  176.9740  140.9830 C   0  0  0  0  0  3  0  0  0  0  0  0
  192.0960  176.4250  137.5960 C   0  0  0  0  0  0  0  0  0  0  0  0
  192.6660  176.8060  138.8200 C   0  0  0  0  0  3  0  0  0  0  0  0
  191.8610  176.9890  139.9480 C   0  0  0  0  0  0  0  0  0  0  0  0
  189.8960  176.4130  138.6390 C   0  0  0  0  0  3  0  0  0  0  0  0
  190.4660  176.7910  139.8560 C   0  0  0  0  0  0  0  0  0  0  0  0
  190.7070  176.2310  137.5150 C   0  0  0  0  0  3  0  0  0  0  0  0
  190.2320  177.3530  142.2080 C   0  0  0  0  0  0  0  0  0  0  0  0
  191.6200  177.5480  142.2890 C   0  0  0  0  0  3  0  0  0  0  0  0
  192.9260  176.2390  136.4420 N   0  0  0  0  0  0  0  0  0  0  0  0
  192.4880  175.6430  135.4360 O   0  0  0  0  0  0  0  0  0  0  0  0
  194.2170  176.7160  136.4310 O   0  0  0  0  0  0  0  0  0  0  0  0
  181.9510  179.8440  143.5470 O   0  0  0  0  0  0  0  0  0  0  0  0
  180.8780  179.1230  142.9570 C   0  0  0  0  0  3  0  0  0  0  0  0
  179.8770  178.7490  144.0310 C   0  0  0  0  0  2  0  0  0  0  0  0
  179.6010  179.9200  143.1120 C   0  0  0  0  0  2  0  0  0  0  0  0
  1 11  1  0  0  0  0
  2 15  1  0  0  0  0
  3 10  1  0  0  0  0
  4  6  1  0  0  0  0
  5  9  1  0  0  0  0
  5  1  2  0  0  0  0
  6  8  1  0  0  0  0
  8  7  2  0  0  0  0
  9  4  2  0  0  0  0
 10 12  2  0  0  0  0
 11  6  2  0  0  0  0
 11 10  1  0  0  0  0
 12  7  1  0  0  0  0
 13  2  2  0  0  0  0
 14 16  2  0  0  0  0
 14 13  1  0  0  0  0
 15  3  1  0  0  0  0
 16 17  1  0  0  0  0
 17  1  1  0  0  0  0
 17 15  2  0  0  0  0
 18 27  1  0  0  0  0
 19 26  1  0  0  0  0
 20 21  2  0  0  0  0
 21 22  1  0  0  0  0
 22 18  2  0  0  0  0
 23 24  1  0  0  0  0
 24 22  1  0  0  0  0
 24 19  2  0  0  0  0
 25 20  1  0  0  0  0
 25 23  2  0  0  0  0
 26 27  2  0  0  0  0
 26  9  1  0  0  0  0
 28 20  1  0  0  0  0
 29 28  2  0  0  0  0
 30 28  2  0  0  0  0
 31 13  1  0  0  0  0
 32 34  1  0  0  0  0
 32 31  1  0  0  0  0
 32 33  1  0  0  0  0
 34 33  1  0  0  0  0
M  END
>  <MODEL>
2

>  <REMARK>
 VINA RESULT:      -9.6      2.557      8.926
  Name = 
  4 active torsions:
  status: ('A' for Active; 'I' for Inactive)
    1  A    between atoms: C_3  and  O_25
    2  A    between atoms: C_7  and  N_11
    3  A    between atoms: C_18  and  C_30
    4  A    between atoms: C_23  and  O_25
                            x       y       z     vdW  Elec       q    Type
                         _______ _______ _______ _____ _____    ______ ____

>  <TORSDO>
F 4

$$$$
=
 OpenBabel10262423263D

 34 40  0  0  0  0  0  0  0  0999 V2000
  189.2710  177.6920  142.8270 C   0  0  0  0  0  0  0  0  0  0  0  0
  191.8570  176.9180  140.1640 C   0  0  0  0  0  3  0  0  0  0  0  0
  192.4130  177.6820  142.7400 S   0  0  0  0  0  0  0  0  0  0  0  0
  187.8660  177.5380  145.1920 N   0  0  0  0  0  0  0  0  0  0  0  0
  187.9410  177.9790  142.8830 N   0  0  0  0  0  0  0  0  0  0  0  0
  189.1870  177.2330  145.1980 C   0  0  0  0  0  0  0  0  0  0  0  0
  191.1480  176.4460  146.3780 C   0  0  0  0  0  3  0  0  0  0  0  0
  189.7880  176.7620  146.3680 C   0  0  0  0  0  3  0  0  0  0  0  0
  187.2430  177.9390  144.0510 C   0  0  0  0  0  0  0  0  0  0  0  0
  191.3320  177.1110  144.0530 C   0  0  0  0  0  0  0  0  0  0  0  0
  189.9490  177.3670  144.0180 C   0  0  0  0  0  0  0  0  0  0  0  0
  191.9200  176.6370  145.2290 C   0  0  0  0  0  3  0  0  0  0  0  0
  191.0490  176.7590  139.0360 C   0  0  0  0  0  0  0  0  0  0  0  0
  189.6700  176.9930  139.1390 C   0  0  0  0  0  3  0  0  0  0  0  0
  191.3020  177.2910  141.3920 C   0  0  0  0  0  0  0  0  0  0  0  0
  189.1100  177.3530  140.3660 C   0  0  0  0  0  3  0  0  0  0  0  0
  189.9140  177.5020  141.5050 C   0  0  0  0  0  0  0  0  0  0  0  0
  183.8040  178.9020  145.2990 C   0  0  0  0  0  3  0  0  0  0  0  0
  185.0680  178.2870  142.8750 C   0  0  0  0  0  3  0  0  0  0  0  0
  180.9720  179.2440  142.9330 C   0  0  0  0  0  0  0  0  0  0  0  0
  181.7100  179.2310  144.1250 C   0  0  0  0  0  3  0  0  0  0  0  0
  183.0710  178.9140  144.1110 C   0  0  0  0  0  0  0  0  0  0  0  0
  182.9750  178.6160  141.7010 C   0  0  0  0  0  3  0  0  0  0  0  0
  183.7080  178.6040  142.8890 C   0  0  0  0  0  0  0  0  0  0  0  0
  181.6140  178.9330  141.7220 C   0  0  0  0  0  3  0  0  0  0  0  0
  185.8070  178.2750  144.0680 C   0  0  0  0  0  0  0  0  0  0  0  0
  185.1650  178.5840  145.2770 C   0  0  0  0  0  3  0  0  0  0  0  0
  179.5760  179.5700  142.9530 N   0  0  0  0  0  0  0  0  0  0  0  0
  178.9310  179.6610  141.8890 O   0  0  0  0  0  0  0  0  0  0  0  0
  178.9310  179.7870  144.1500 O   0  0  0  0  0  0  0  0  0  0  0  0
  191.6410  176.3820  137.8260 O   0  0  0  0  0  0  0  0  0  0  0  0
  192.3020  175.1370  137.6490 C   0  0  0  0  0  3  0  0  0  0  0  0
  192.8570  175.0620  136.2410 C   0  0  0  0  0  2  0  0  0  0  0  0
  193.7740  175.3880  137.4010 C   0  0  0  0  0  2  0  0  0  0  0  0
  1  5  2  0  0  0  0
  1 11  1  0  0  0  0
  2 15  1  0  0  0  0
  3 10  1  0  0  0  0
  4  6  1  0  0  0  0
  5  9  1  0  0  0  0
  6  8  1  0  0  0  0
  8  7  2  0  0  0  0
  9 26  1  0  0  0  0
  9  4  2  0  0  0  0
 10 12  2  0  0  0  0
 11 10  1  0  0  0  0
 11  6  2  0  0  0  0
 12  7  1  0  0  0  0
 13 14  1  0  0  0  0
 13  2  2  0  0  0  0
 14 16  2  0  0  0  0
 15 17  2  0  0  0  0
 15  3  1  0  0  0  0
 16 17  1  0  0  0  0
 17  1  1  0  0  0  0
 19 24  2  0  0  0  0
 19 26  1  0  0  0  0
 20 28  1  0  0  0  0
 20 21  2  0  0  0  0
 22 21  1  0  0  0  0
 22 18  2  0  0  0  0
 23 25  2  0  0  0  0
 23 24  1  0  0  0  0
 24 22  1  0  0  0  0
 25 20  1  0  0  0  0
 26 27  2  0  0  0  0
 27 18  1  0  0  0  0
 28 30  2  0  0  0  0
 29 28  2  0  0  0  0
 31 13  1  0  0  0  0
 32 31  1  0  0  0  0
 33 34  1  0  0  0  0
 33 32  1  0  0  0  0
 34 32  1  0  0  0  0
M  END
>  <MODEL>
3

>  <REMARK>
 VINA RESULT:      -9.4      1.093      1.344
  Name = 
  4 active torsions:
  status: ('A' for Active; 'I' for Inactive)
    1  A    between atoms: C_3  and  O_25
    2  A    between atoms: C_7  and  N_11
    3  A    between atoms: C_18  and  C_30
    4  A    between atoms: C_23  and  O_25
                            x       y       z     vdW  Elec       q    Type
                         _______ _______ _______ _____ _____    ______ ____

>  <TORSDO>
F 4

$$$$
=
 OpenBabel10262423263D

 34 40  0  0  0  0  0  0  0  0999 V2000
  190.2890  176.4220  138.2220 C   0  0  0  0  0  0  0  0  0  0  0  0
  192.6670  175.4290  135.4400 C   0  0  0  0  0  3  0  0  0  0  0  0
  189.9310  175.4610  135.2510 S   0  0  0  0  0  0  0  0  0  0  0  0
  188.3150  177.7880  139.5730 N   0  0  0  0  0  0  0  0  0  0  0  0
  190.3350  176.5850  139.5730 N   0  0  0  0  0  0  0  0  0  0  0  0
  188.2170  177.6670  138.2260 C   0  0  0  0  0  0  0  0  0  0  0  0
  187.0770  178.1830  136.1550 C   0  0  0  0  0  3  0  0  0  0  0  0
  187.1800  178.3060  137.5420 C   0  0  0  0  0  3  0  0  0  0  0  0
  189.3490  177.2280  140.2570 C   0  0  0  0  0  0  0  0  0  0  0  0
  189.0280  176.7420  136.1250 C   0  0  0  0  0  0  0  0  0  0  0  0
  189.1760  176.9160  137.5140 C   0  0  0  0  0  0  0  0  0  0  0  0
  187.9880  177.3900  135.4520 C   0  0  0  0  0  3  0  0  0  0  0  0
  193.8910  175.4270  136.1140 C   0  0  0  0  0  0  0  0  0  0  0  0
  193.9160  175.6670  137.4960 C   0  0  0  0  0  3  0  0  0  0  0  0
  191.4760  175.6820  136.1270 C   0  0  0  0  0  0  0  0  0  0  0  0
  192.7300  175.9330  138.1830 C   0  0  0  0  0  3  0  0  0  0  0  0
  191.5000  175.9480  137.5100 C   0  0  0  0  0  0  0  0  0  0  0  0
  190.7590  177.6610  143.7400 C   0  0  0  0  0  3  0  0  0  0  0  0
  188.2660  177.3280  142.5040 C   0  0  0  0  0  3  0  0  0  0  0  0
  188.5110  177.7170  146.6860 C   0  0  0  0  0  0  0  0  0  0  0  0
  189.6750  177.7530  145.9050 C   0  0  0  0  0  3  0  0  0  0  0  0
  189.5990  177.6250  144.5160 C   0  0  0  0  0  0  0  0  0  0  0  0
  187.1820  177.4200  144.6680 C   0  0  0  0  0  3  0  0  0  0  0  0
  188.3430  177.4560  143.8930 C   0  0  0  0  0  0  0  0  0  0  0  0
  187.2660  177.5490  146.0580 C   0  0  0  0  0  3  0  0  0  0  0  0
  189.4310  177.3650  141.7230 C   0  0  0  0  0  0  0  0  0  0  0  0
  190.6750  177.5320  142.3510 C   0  0  0  0  0  3  0  0  0  0  0  0
  188.5950  177.8500  148.1110 N   0  0  0  0  0  0  0  0  0  0  0  0
  187.6470  177.4900  148.8380 O   0  0  0  0  0  0  0  0  0  0  0  0
  189.7260  178.3760  148.6930 O   0  0  0  0  0  0  0  0  0  0  0  0
  195.0610  175.1730  135.3930 O   0  0  0  0  0  0  0  0  0  0  0  0
  196.3470  175.1470  135.9970 C   0  0  0  0  0  3  0  0  0  0  0  0
  197.3570  174.6180  134.9990 C   0  0  0  0  0  2  0  0  0  0  0  0
  197.2590  176.1060  135.2620 C   0  0  0  0  0  2  0  0  0  0  0  0
  1  5  2  0  0  0  0
  2 13  2  0  0  0  0
  2 15  1  0  0  0  0
  3 10  1  0  0  0  0
  3 15  1  0  0  0  0
  4  9  2  0  0  0  0
  5  9  1  0  0  0  0
  6  4  1  0  0  0  0
  7  8  2  0  0  0  0
  8  6  1  0  0  0  0
  9 26  1  0  0  0  0
 10 11  1  0  0  0  0
 11  1  1  0  0  0  0
 11  6  2  0  0  0  0
 12 10  2  0  0  0  0
 12  7  1  0  0  0  0
 13 14  1  0  0  0  0
 14 16  2  0  0  0  0
 15 17  2  0  0  0  0
 17 16  1  0  0  0  0
 17  1  1  0  0  0  0
 18 22  1  0  0  0  0
 19 24  1  0  0  0  0
 20 28  1  0  0  0  0
 21 20  2  0  0  0  0
 22 21  1  0  0  0  0
 23 25  2  0  0  0  0
 24 22  2  0  0  0  0
 24 23  1  0  0  0  0
 25 20  1  0  0  0  0
 26 27  1  0  0  0  0
 26 19  2  0  0  0  0
 27 18  2  0  0  0  0
 28 30  2  0  0  0  0
 28 29  2  0  0  0  0
 31 32  1  0  0  0  0
 31 13  1  0  0  0  0
 33 34  1  0  0  0  0
 33 32  1  0  0  0  0
 34 32  1  0  0  0  0
M  END
>  <MODEL>
4

>  <REMARK>
 VINA RESULT:      -9.4      4.794      7.632
  Name = 
  4 active torsions:
  status: ('A' for Active; 'I' for Inactive)
    1  A    between atoms: C_3  and  O_25
    2  A    between atoms: C_7  and  N_11
    3  A    between atoms: C_18  and  C_30
    4  A    between atoms: C_23  and  O_25
                            x       y       z     vdW  Elec       q    Type
                         _______ _______ _______ _____ _____    ______ ____

>  <TORSDO>
F 4

$$$$
=
 OpenBabel10262423263D

 34 40  0  0  0  0  0  0  0  0999 V2000
  182.3980  178.2300  140.9360 C   0  0  0  0  0  0  0  0  0  0  0  0
  182.0970  177.7440  137.1870 C   0  0  0  0  0  3  0  0  0  0  0  0
  179.9940  177.8700  138.9440 S   0  0  0  0  0  0  0  0  0  0  0  0
  182.0830  179.3500  143.4330 N   0  0  0  0  0  0  0  0  0  0  0  0
  183.3660  178.1270  141.8880 N   0  0  0  0  0  0  0  0  0  0  0  0
  181.0860  179.4930  142.5250 C   0  0  0  0  0  0  0  0  0  0  0  0
  178.9420  180.4240  141.9000 C   0  0  0  0  0  3  0  0  0  0  0  0
  179.9700  180.2740  142.8330 C   0  0  0  0  0  3  0  0  0  0  0  0
  183.2090  178.6460  143.1370 C   0  0  0  0  0  0  0  0  0  0  0  0
  180.1200  178.9750  140.3510 C   0  0  0  0  0  0  0  0  0  0  0  0
  181.1890  178.8740  141.2610 C   0  0  0  0  0  0  0  0  0  0  0  0
  179.0090  179.7630  140.6710 C   0  0  0  0  0  3  0  0  0  0  0  0
  183.4360  177.5860  136.8230 C   0  0  0  0  0  0  0  0  0  0  0  0
  184.4210  177.5540  137.8210 C   0  0  0  0  0  3  0  0  0  0  0  0
  181.7350  177.8840  138.5310 C   0  0  0  0  0  0  0  0  0  0  0  0
  184.0660  177.7070  139.1630 C   0  0  0  0  0  3  0  0  0  0  0  0
  182.7240  177.8770  139.5330 C   0  0  0  0  0  0  0  0  0  0  0  0
  185.0460  178.6820  146.4440 C   0  0  0  0  0  3  0  0  0  0  0  0
  185.5430  178.0230  143.7650 C   0  0  0  0  0  3  0  0  0  0  0  0
  188.5840  177.5960  146.6410 C   0  0  0  0  0  0  0  0  0  0  0  0
  187.3180  178.0690  147.0180 C   0  0  0  0  0  3  0  0  0  0  0  0
  186.3050  178.2120  146.0660 C   0  0  0  0  0  0  0  0  0  0  0  0
  187.8150  177.4100  144.3390 C   0  0  0  0  0  3  0  0  0  0  0  0
  186.5560  177.8800  144.7170 C   0  0  0  0  0  0  0  0  0  0  0  0
  188.8240  177.2690  145.2960 C   0  0  0  0  0  3  0  0  0  0  0  0
  184.2760  178.4950  144.1420 C   0  0  0  0  0  0  0  0  0  0  0  0
  184.0370  178.8220  145.4860 C   0  0  0  0  0  3  0  0  0  0  0  0
  189.6200  177.4510  147.6220 N   0  0  0  0  0  0  0  0  0  0  0  0
  189.6490  178.1910  148.6270 O   0  0  0  0  0  0  0  0  0  0  0  0
  190.5950  176.4930  147.4650 O   0  0  0  0  0  0  0  0  0  0  0  0
  183.7590  177.4520  135.4700 O   0  0  0  0  0  0  0  0  0  0  0  0
  183.5670  176.2420  134.7490 C   0  0  0  0  0  3  0  0  0  0  0  0
  184.8900  175.5120  134.6380 C   0  0  0  0  0  2  0  0  0  0  0  0
  183.8650  175.0700  135.6600 C   0  0  0  0  0  2  0  0  0  0  0  0
  1 11  1  0  0  0  0
  1  5  2  0  0  0  0
  2 15  1  0  0  0  0
  3 10  1  0  0  0  0
  5  9  1  0  0  0  0
  6  8  1  0  0  0  0
  6  4  1  0  0  0  0
  7  8  2  0  0  0  0
  9  4  2  0  0  0  0
  9 26  1  0  0  0  0
 10 12  2  0  0  0  0
 10 11  1  0  0  0  0
 11  6  2  0  0  0  0
 12  7  1  0  0  0  0
 13  2  2  0  0  0  0
 13 14  1  0  0  0  0
 14 16  2  0  0  0  0
 15  3  1  0  0  0  0
 15 17  2  0  0  0  0
 16 17  1  0  0  0  0
 17  1  1  0  0  0  0
 19 26  2  0  0  0  0
 19 24  1  0  0  0  0
 20 21  1  0  0  0  0
 20 28  1  0  0  0  0
 22 18  1  0  0  0  0
 22 21  2  0  0  0  0
 23 24  2  0  0  0  0
 23 25  1  0  0  0  0
 24 22  1  0  0  0  0
 25 20  2  0  0  0  0
 26 27  1  0  0  0  0
 27 18  2  0  0  0  0
 28 29  2  0  0  0  0
 30 28  2  0  0  0  0
 31 13  1  0  0  0  0
 32 31  1  0  0  0  0
 32 34  1  0  0  0  0
 33 32  1  0  0  0  0
 33 34  1  0  0  0  0
M  END
>  <MODEL>
5

>  <REMARK>
 VINA RESULT:      -9.2      4.736      8.823
  Name = 
  4 active torsions:
  status: ('A' for Active; 'I' for Inactive)
    1  A    between atoms: C_3  and  O_25
    2  A    between atoms: C_7  and  N_11
    3  A    between atoms: C_18  and  C_30
    4  A    between atoms: C_23  and  O_25
                            x       y       z     vdW  Elec       q    Type
                         _______ _______ _______ _____ _____    ______ ____

>  <TORSDO>
F 4

$$$$
=
 OpenBabel10262423263D

 34 40  0  0  0  0  0  0  0  0999 V2000
  185.5280  177.9940  141.4630 C   0  0  0  0  0  0  0  0  0  0  0  0
  185.4670  178.4420  137.6980 C   0  0  0  0  0  3  0  0  0  0  0  0
  183.3110  177.7530  139.2480 S   0  0  0  0  0  0  0  0  0  0  0  0
  184.9130  178.3650  144.1230 N   0  0  0  0  0  0  0  0  0  0  0  0
  186.4600  177.8160  142.4390 N   0  0  0  0  0  0  0  0  0  0  0  0
  183.9430  178.5640  143.1970 C   0  0  0  0  0  0  0  0  0  0  0  0
  181.6890  179.2450  142.6400 C   0  0  0  0  0  3  0  0  0  0  0  0
  182.6900  179.0380  143.5920 C   0  0  0  0  0  3  0  0  0  0  0  0
  186.1610  177.9630  143.7590 C   0  0  0  0  0  0  0  0  0  0  0  0
  183.1740  178.4650  140.8890 C   0  0  0  0  0  0  0  0  0  0  0  0
  184.2080  178.3170  141.8330 C   0  0  0  0  0  0  0  0  0  0  0  0
  181.9260  178.9430  141.2970 C   0  0  0  0  0  3  0  0  0  0  0  0
  186.8250  178.6130  137.4210 C   0  0  0  0  0  0  0  0  0  0  0  0
  187.7590  178.4940  138.4600 C   0  0  0  0  0  3  0  0  0  0  0  0
  185.0330  178.1690  138.9990 C   0  0  0  0  0  0  0  0  0  0  0  0
  187.3300  178.2350  139.7630 C   0  0  0  0  0  3  0  0  0  0  0  0
  185.9670  178.0740  140.0490 C   0  0  0  0  0  0  0  0  0  0  0  0
  187.8890  177.7400  147.1170 C   0  0  0  0  0  3  0  0  0  0  0  0
  188.4870  177.3300  144.4090 C   0  0  0  0  0  3  0  0  0  0  0  0
  191.4410  176.7060  147.3380 C   0  0  0  0  0  0  0  0  0  0  0  0
  190.1540  177.1200  147.7120 C   0  0  0  0  0  3  0  0  0  0  0  0
  189.1700  177.3280  146.7430 C   0  0  0  0  0  0  0  0  0  0  0  0
  190.7520  176.7100  145.0040 C   0  0  0  0  0  3  0  0  0  0  0  0
  189.4710  177.1220  145.3790 C   0  0  0  0  0  0  0  0  0  0  0  0
  191.7320  176.5040  145.9790 C   0  0  0  0  0  3  0  0  0  0  0  0
  187.1990  177.7430  144.7830 C   0  0  0  0  0  0  0  0  0  0  0  0
  186.9090  177.9450  146.1410 C   0  0  0  0  0  3  0  0  0  0  0  0
  192.4480  176.4940  148.3370 N   0  0  0  0  0  0  0  0  0  0  0  0
  193.0460  175.4010  148.4120 O   0  0  0  0  0  0  0  0  0  0  0  0
  192.7660  177.4950  149.2260 O   0  0  0  0  0  0  0  0  0  0  0  0
  187.2190  178.8880  136.1080 O   0  0  0  0  0  0  0  0  0  0  0  0
  187.2580  177.8940  135.0930 C   0  0  0  0  0  3  0  0  0  0  0  0
  188.6990  177.5030  134.8320 C   0  0  0  0  0  2  0  0  0  0  0  0
  187.8130  176.6120  135.6760 C   0  0  0  0  0  2  0  0  0  0  0  0
  1 11  1  0  0  0  0
  1  5  2  0  0  0  0
  2 15  1  0  0  0  0
  3 10  1  0  0  0  0
  5  9  1  0  0  0  0
  6  8  1  0  0  0  0
  6  4  1  0  0  0  0
  7  8  2  0  0  0  0
  9  4  2  0  0  0  0
  9 26  1  0  0  0  0
 10 12  2  0  0  0  0
 10 11  1  0  0  0  0
 11  6  2  0  0  0  0
 12  7  1  0  0  0  0
 13  2  2  0  0  0  0
 13 14  1  0  0  0  0
 14 16  2  0  0  0  0
 15  3  1  0  0  0  0
 15 17  2  0  0  0  0
 16 17  1  0  0  0  0
 17  1  1  0  0  0  0
 19 26  2  0  0  0  0
 19 24  1  0  0  0  0
 20 21  1  0  0  0  0
 20 28  1  0  0  0  0
 22 18  1  0  0  0  0
 22 21  2  0  0  0  0
 23 24  2  0  0  0  0
 23 25  1  0  0  0  0
 24 22  1  0  0  0  0
 25 20  2  0  0  0  0
 26 27  1  0  0  0  0
 27 18  2  0  0  0  0
 28 29  2  0  0  0  0
 28 30  2  0  0  0  0
 31 13  1  0  0  0  0
 32 34  1  0  0  0  0
 32 31  1  0  0  0  0
 33 32  1  0  0  0  0
 33 34  1  0  0  0  0
M  END
>  <MODEL>
6

>  <REMARK>
 VINA RESULT:      -9.1      3.996      8.153
  Name = 
  4 active torsions:
  status: ('A' for Active; 'I' for Inactive)
    1  A    between atoms: C_3  and  O_25
    2  A    between atoms: C_7  and  N_11
    3  A    between atoms: C_18  and  C_30
    4  A    between atoms: C_23  and  O_25
                            x       y       z     vdW  Elec       q    Type
                         _______ _______ _______ _____ _____    ______ ____

>  <TORSDO>
F 4

$$$$
=
 OpenBabel10262423263D

 34 40  0  0  0  0  0  0  0  0999 V2000
  188.7740  177.1900  138.2140 C   0  0  0  0  0  0  0  0  0  0  0  0
  186.2570  177.3010  135.3800 C   0  0  0  0  0  3  0  0  0  0  0  0
  188.9790  177.4850  135.0910 S   0  0  0  0  0  0  0  0  0  0  0  0
  190.9000  176.3560  139.7540 N   0  0  0  0  0  0  0  0  0  0  0  0
  188.7700  177.3330  139.5680 N   0  0  0  0  0  0  0  0  0  0  0  0
  190.9600  176.1790  138.4110 C   0  0  0  0  0  0  0  0  0  0  0  0
  192.1080  175.3180  136.4630 C   0  0  0  0  0  3  0  0  0  0  0  0
  192.0430  175.5030  137.8460 C   0  0  0  0  0  3  0  0  0  0  0  0
  189.8280  176.9570  140.3370 C   0  0  0  0  0  0  0  0  0  0  0  0
  190.0220  176.5250  136.1910 C   0  0  0  0  0  0  0  0  0  0  0  0
  189.9170  176.6570  137.5890 C   0  0  0  0  0  0  0  0  0  0  0  0
  191.1090  175.8430  135.6380 C   0  0  0  0  0  3  0  0  0  0  0  0
  185.0520  177.3400  136.0850 C   0  0  0  0  0  0  0  0  0  0  0  0
  185.0770  177.4170  137.4850 C   0  0  0  0  0  3  0  0  0  0  0  0
  187.4800  177.3230  136.0560 C   0  0  0  0  0  0  0  0  0  0  0  0
  186.2960  177.4260  138.1660 C   0  0  0  0  0  3  0  0  0  0  0  0
  187.5090  177.3750  137.4630 C   0  0  0  0  0  0  0  0  0  0  0  0
  190.9410  177.5160  143.9090 C   0  0  0  0  0  3  0  0  0  0  0  0
  188.5590  177.1420  142.4800 C   0  0  0  0  0  3  0  0  0  0  0  0
  188.4520  177.6860  146.6500 C   0  0  0  0  0  0  0  0  0  0  0  0
  189.6790  177.6910  145.9690 C   0  0  0  0  0  3  0  0  0  0  0  0
  189.7190  177.5110  144.5840 C   0  0  0  0  0  0  0  0  0  0  0  0
  187.2970  177.3160  144.5400 C   0  0  0  0  0  3  0  0  0  0  0  0
  188.5190  177.3220  143.8650 C   0  0  0  0  0  0  0  0  0  0  0  0
  187.2640  177.4970  145.9250 C   0  0  0  0  0  3  0  0  0  0  0  0
  189.7870  177.1480  141.7990 C   0  0  0  0  0  0  0  0  0  0  0  0
  190.9740  177.3360  142.5230 C   0  0  0  0  0  3  0  0  0  0  0  0
  188.4170  177.8710  148.0710 N   0  0  0  0  0  0  0  0  0  0  0  0
  187.4350  177.4810  148.7370 O   0  0  0  0  0  0  0  0  0  0  0  0
  189.4670  178.4810  148.7180 O   0  0  0  0  0  0  0  0  0  0  0  0
  183.8490  177.3140  135.3730 O   0  0  0  0  0  0  0  0  0  0  0  0
  182.5780  177.3730  136.0070 C   0  0  0  0  0  3  0  0  0  0  0  0
  181.6240  178.1690  135.1410 C   0  0  0  0  0  2  0  0  0  0  0  0
  181.5610  176.6570  135.1450 C   0  0  0  0  0  2  0  0  0  0  0  0
  1  5  2  0  0  0  0
  2 15  2  0  0  0  0
  2 13  1  0  0  0  0
  3 15  1  0  0  0  0
  3 10  1  0  0  0  0
  4  9  2  0  0  0  0
  5  9  1  0  0  0  0
  6  4  1  0  0  0  0
  7  8  2  0  0  0  0
  8  6  1  0  0  0  0
  9 26  1  0  0  0  0
 10 11  1  0  0  0  0
 11  1  1  0  0  0  0
 11  6  2  0  0  0  0
 12 10  2  0  0  0  0
 12  7  1  0  0  0  0
 13 14  2  0  0  0  0
 14 16  1  0  0  0  0
 15 17  1  0  0  0  0
 17 16  2  0  0  0  0
 17  1  1  0  0  0  0
 18 22  1  0  0  0  0
 19 24  1  0  0  0  0
 20 28  1  0  0  0  0
 21 20  1  0  0  0  0
 22 21  2  0  0  0  0
 23 25  1  0  0  0  0
 24 23  2  0  0  0  0
 24 22  1  0  0  0  0
 25 20  2  0  0  0  0
 26 19  2  0  0  0  0
 26 27  1  0  0  0  0
 27 18  2  0  0  0  0
 28 30  2  0  0  0  0
 28 29  2  0  0  0  0
 31 32  1  0  0  0  0
 31 13  1  0  0  0  0
 33 34  1  0  0  0  0
 33 32  1  0  0  0  0
 34 32  1  0  0  0  0
M  END
>  <MODEL>
7

>  <REMARK>
 VINA RESULT:      -8.9      4.440      8.473
  Name = 
  4 active torsions:
  status: ('A' for Active; 'I' for Inactive)
    1  A    between atoms: C_3  and  O_25
    2  A    between atoms: C_7  and  N_11
    3  A    between atoms: C_18  and  C_30
    4  A    between atoms: C_23  and  O_25
                            x       y       z     vdW  Elec       q    Type
                         _______ _______ _______ _____ _____    ______ ____

>  <TORSDO>
F 4

$$$$
=
 OpenBabel10262423263D

 34 40  0  0  0  0  0  0  0  0999 V2000
  186.5270  178.3340  140.9150 C   0  0  0  0  0  0  0  0  0  0  0  0
  182.8450  179.1350  140.4870 C   0  0  0  0  0  3  0  0  0  0  0  0
  184.8090  179.6700  138.6470 S   0  0  0  0  0  0  0  0  0  0  0  0
  189.0120  177.2490  140.4290 N   0  0  0  0  0  0  0  0  0  0  0  0
  187.3750  178.0180  141.9310 N   0  0  0  0  0  0  0  0  0  0  0  0
  188.2090  177.5360  139.3740 C   0  0  0  0  0  0  0  0  0  0  0  0
  187.7870  177.4900  136.9920 C   0  0  0  0  0  3  0  0  0  0  0  0
  188.6110  177.1960  138.0800 C   0  0  0  0  0  3  0  0  0  0  0  0
  188.6190  177.5130  141.7040 C   0  0  0  0  0  0  0  0  0  0  0  0
  186.1630  178.5070  138.4800 C   0  0  0  0  0  0  0  0  0  0  0  0
  186.9590  178.1550  139.5860 C   0  0  0  0  0  0  0  0  0  0  0  0
  186.5760  178.1580  137.1900 C   0  0  0  0  0  3  0  0  0  0  0  0
  182.3480  178.8190  141.7530 C   0  0  0  0  0  0  0  0  0  0  0  0
  183.2370  178.4270  142.7640 C   0  0  0  0  0  3  0  0  0  0  0  0
  184.2150  179.0510  140.2180 C   0  0  0  0  0  0  0  0  0  0  0  0
  184.6040  178.3290  142.4960 C   0  0  0  0  0  3  0  0  0  0  0  0
  185.1080  178.6340  141.2230 C   0  0  0  0  0  0  0  0  0  0  0  0
  191.6200  176.3270  143.6780 C   0  0  0  0  0  3  0  0  0  0  0  0
  189.1080  177.4760  144.1520 C   0  0  0  0  0  3  0  0  0  0  0  0
  191.6590  176.5820  147.3750 C   0  0  0  0  0  0  0  0  0  0  0  0
  192.0610  176.3060  146.0600 C   0  0  0  0  0  3  0  0  0  0  0  0
  191.2170  176.6020  144.9870 C   0  0  0  0  0  0  0  0  0  0  0  0
  189.5490  177.4550  146.5340 C   0  0  0  0  0  3  0  0  0  0  0  0
  189.9510  177.1800  145.2260 C   0  0  0  0  0  0  0  0  0  0  0  0
  190.3980  177.1570  147.6030 C   0  0  0  0  0  3  0  0  0  0  0  0
  189.5110  177.2010  142.8360 C   0  0  0  0  0  0  0  0  0  0  0  0
  190.7700  176.6260  142.6090 C   0  0  0  0  0  3  0  0  0  0  0  0
  192.5290  176.2760  148.4730 N   0  0  0  0  0  0  0  0  0  0  0  0
  192.8060  175.0910  148.7520 O   0  0  0  0  0  0  0  0  0  0  0  0
  193.0700  177.2890  149.2330 O   0  0  0  0  0  0  0  0  0  0  0  0
  180.9720  178.9130  141.9830 O   0  0  0  0  0  0  0  0  0  0  0  0
  180.4270  179.4710  143.1710 C   0  0  0  0  0  3  0  0  0  0  0  0
  178.9350  179.2090  143.2070 C   0  0  0  0  0  2  0  0  0  0  0  0
  179.8740  178.3570  144.0340 C   0  0  0  0  0  2  0  0  0  0  0  0
  1 17  1  0  0  0  0
  1  5  2  0  0  0  0
  2 13  1  0  0  0  0
  3 15  1  0  0  0  0
  4  9  2  0  0  0  0
  6 11  1  0  0  0  0
  6  4  1  0  0  0  0
  7 12  2  0  0  0  0
  7  8  1  0  0  0  0
  8  6  2  0  0  0  0
  9  5  1  0  0  0  0
  9 26  1  0  0  0  0
 10  3  1  0  0  0  0
 10 11  2  0  0  0  0
 11  1  1  0  0  0  0
 12 10  1  0  0  0  0
 13 31  1  0  0  0  0
 13 14  2  0  0  0  0
 15  2  2  0  0  0  0
 15 17  1  0  0  0  0
 16 14  1  0  0  0  0
 17 16  2  0  0  0  0
 18 22  1  0  0  0  0
 19 24  1  0  0  0  0
 20 25  1  0  0  0  0
 20 28  1  0  0  0  0
 21 20  2  0  0  0  0
 22 24  2  0  0  0  0
 22 21  1  0  0  0  0
 23 25  2  0  0  0  0
 24 23  1  0  0  0  0
 26 19  2  0  0  0  0
 27 26  1  0  0  0  0
 27 18  2  0  0  0  0
 28 29  2  0  0  0  0
 28 30  2  0  0  0  0
 31 32  1  0  0  0  0
 32 33  1  0  0  0  0
 32 34  1  0  0  0  0
 33 34  1  0  0  0  0
M  END
>  <MODEL>
8

>  <REMARK>
 VINA RESULT:      -8.8      3.634      9.876
  Name = 
  4 active torsions:
  status: ('A' for Active; 'I' for Inactive)
    1  A    between atoms: C_3  and  O_25
    2  A    between atoms: C_7  and  N_11
    3  A    between atoms: C_18  and  C_30
    4  A    between atoms: C_23  and  O_25
                            x       y       z     vdW  Elec       q    Type
                         _______ _______ _______ _____ _____    ______ ____

>  <TORSDO>
F 4

$$$$
=
 OpenBabel10262423263D

 34 40  0  0  0  0  0  0  0  0999 V2000
  182.2280  178.7440  141.3430 C   0  0  0  0  0  0  0  0  0  0  0  0
  180.3520  179.8290  138.2310 C   0  0  0  0  0  3  0  0  0  0  0  0
  179.2430  178.5320  140.3800 S   0  0  0  0  0  0  0  0  0  0  0  0
  182.9340  178.5360  143.9980 N   0  0  0  0  0  0  0  0  0  0  0  0
  183.5220  178.5540  141.7220 N   0  0  0  0  0  0  0  0  0  0  0  0
  181.6290  178.7320  143.6840 C   0  0  0  0  0  0  0  0  0  0  0  0
  179.3440  179.1180  144.3820 C   0  0  0  0  0  3  0  0  0  0  0  0
  180.6890  178.9150  144.7010 C   0  0  0  0  0  3  0  0  0  0  0  0
  183.8800  178.4160  143.0270 C   0  0  0  0  0  0  0  0  0  0  0  0
  179.8610  178.9130  142.0200 C   0  0  0  0  0  0  0  0  0  0  0  0
  181.2270  178.7750  142.3320 C   0  0  0  0  0  0  0  0  0  0  0  0
  178.9310  179.0990  143.0470 C   0  0  0  0  0  3  0  0  0  0  0  0
  181.3990  180.2680  137.4190 C   0  0  0  0  0  0  0  0  0  0  0  0
  182.7210  180.1250  137.8640 C   0  0  0  0  0  3  0  0  0  0  0  0
  180.6090  179.2640  139.4840 C   0  0  0  0  0  0  0  0  0  0  0  0
  182.9830  179.5730  139.1200 C   0  0  0  0  0  3  0  0  0  0  0  0
  181.9340  179.1410  139.9450 C   0  0  0  0  0  0  0  0  0  0  0  0
  187.6260  177.9720  142.7360 C   0  0  0  0  0  3  0  0  0  0  0  0
  185.6560  177.9910  144.7300 C   0  0  0  0  0  3  0  0  0  0  0  0
  189.6870  177.3570  145.7540 C   0  0  0  0  0  0  0  0  0  0  0  0
  189.3230  177.5600  144.4140 C   0  0  0  0  0  3  0  0  0  0  0  0
  187.9850  177.7710  144.0700 C   0  0  0  0  0  0  0  0  0  0  0  0
  187.3530  177.5780  146.4080 C   0  0  0  0  0  3  0  0  0  0  0  0
  186.9930  177.7790  145.0740 C   0  0  0  0  0  0  0  0  0  0  0  0
  188.6930  177.3680  146.7460 C   0  0  0  0  0  3  0  0  0  0  0  0
  185.2920  178.1940  143.3900 C   0  0  0  0  0  0  0  0  0  0  0  0
  186.2850  178.1830  142.3990 C   0  0  0  0  0  3  0  0  0  0  0  0
  191.0610  177.1420  146.1020 N   0  0  0  0  0  0  0  0  0  0  0  0
  191.9630  177.3120  145.2560 O   0  0  0  0  0  0  0  0  0  0  0  0
  191.4000  176.7440  147.3750 O   0  0  0  0  0  0  0  0  0  0  0  0
  181.1020  180.8300  136.1740 O   0  0  0  0  0  0  0  0  0  0  0  0
  180.1460  181.8680  136.0080 C   0  0  0  0  0  3  0  0  0  0  0  0
  180.7800  183.1940  136.3730 C   0  0  0  0  0  2  0  0  0  0  0  0
  180.6180  182.8070  134.9190 C   0  0  0  0  0  2  0  0  0  0  0  0
  1  5  2  0  0  0  0
  1 11  1  0  0  0  0
  2 15  1  0  0  0  0
  3 10  1  0  0  0  0
  5  9  1  0  0  0  0
  6  4  1  0  0  0  0
  6  8  1  0  0  0  0
  7  8  2  0  0  0  0
  9 26  1  0  0  0  0
  9  4  2  0  0  0  0
 10 11  1  0  0  0  0
 10 12  2  0  0  0  0
 11  6  2  0  0  0  0
 12  7  1  0  0  0  0
 13 14  1  0  0  0  0
 13  2  2  0  0  0  0
 14 16  2  0  0  0  0
 15 17  2  0  0  0  0
 15  3  1  0  0  0  0
 16 17  1  0  0  0  0
 17  1  1  0  0  0  0
 18 22  1  0  0  0  0
 19 24  1  0  0  0  0
 20 28  1  0  0  0  0
 20 25  1  0  0  0  0
 21 20  2  0  0  0  0
 22 21  1  0  0  0  0
 22 24  2  0  0  0  0
 23 25  2  0  0  0  0
 24 23  1  0  0  0  0
 26 19  2  0  0  0  0
 27 18  2  0  0  0  0
 27 26  1  0  0  0  0
 28 30  2  0  0  0  0
 29 28  2  0  0  0  0
 31 13  1  0  0  0  0
 32 31  1  0  0  0  0
 32 33  1  0  0  0  0
 34 32  1  0  0  0  0
 34 33  1  0  0  0  0
M  END
>  <MODEL>
9

>  <REMARK>
 VINA RESULT:      -8.5      4.205      9.741
  Name = 
  4 active torsions:
  status: ('A' for Active; 'I' for Inactive)
    1  A    between atoms: C_3  and  O_25
    2  A    between atoms: C_7  and  N_11
    3  A    between atoms: C_18  and  C_30
    4  A    between atoms: C_23  and  O_25
                            x       y       z     vdW  Elec       q    Type
                         _______ _______ _______ _____ _____    ______ ____

>  <TORSDO>
F 4

$$$$
