=
 OpenBabel10262421293D

 32 36  0  0  1  0  0  0  0  0999 V2000
  191.6370  177.5720  143.9730 C   0  0  1  0  0  3  0  0  0  0  0  0
  188.5380  177.9410  139.8820 C   0  0  0  0  0  0  0  0  0  0  0  0
  190.8210  175.6790  136.2550 C   0  0  0  0  0  3  0  0  0  0  0  0
  189.7350  175.9000  135.4680 N   0  0  0  0  0  0  0  0  0  0  0  0
  189.5650  178.2350  142.0600 C   0  0  0  0  0  0  0  0  0  0  0  0
  190.7690  177.0760  140.2970 C   0  0  0  0  0  3  0  0  0  0  0  0
  191.9250  177.3750  142.4850 C   0  0  0  0  0  2  0  0  0  0  0  0
  190.8320  176.1230  137.5770 C   0  0  0  0  0  3  0  0  0  0  0  0
  189.6880  177.2630  139.4210 C   0  0  0  0  0  0  0  0  0  0  0  0
  189.7160  176.7990  138.0930 C   0  0  0  0  0  0  0  0  0  0  0  0
  187.4740  177.6920  137.7680 C   0  0  0  0  0  0  0  0  0  0  0  0
  190.7750  178.8190  144.1890 C   0  0  0  0  0  2  0  0  0  0  0  0
  190.7100  177.5410  141.6140 C   0  0  0  0  0  0  0  0  0  0  0  0
  189.4250  178.6920  143.4830 C   0  0  0  0  0  2  0  0  0  0  0  0
  188.6370  176.5510  135.9350 C   0  0  0  0  0  3  0  0  0  0  0  0
  188.5960  177.0150  137.2580 C   0  0  0  0  0  0  0  0  0  0  0  0
  188.4820  178.4140  141.1950 C   0  0  0  0  0  3  0  0  0  0  0  0
  187.4780  178.1310  139.0550 N   0  0  0  0  0  0  0  0  0  0  0  0
  191.0050  176.3200  144.5710 C   0  0  0  0  0  2  0  0  0  0  0  0
  191.7680  175.8780  145.8080 C   0  0  0  0  0  2  0  0  0  0  0  0
  191.2340  176.5680  147.0190 C   0  0  0  0  0  0  0  0  0  0  0  0
  189.7720  176.8210  147.1430 C   0  0  0  0  0  1  0  0  0  0  0  0
  191.9930  176.9430  147.8980 O   0  0  0  0  0  0  0  0  0  0  0  0
  186.2540  177.9260  136.9300 C   0  0  0  0  0  2  0  0  0  0  0  0
  184.2280  179.0490  138.8060 C   0  0  0  0  0  0  0  0  0  0  0  0
  184.2010  177.8080  138.3950 C   0  0  0  0  0  0  0  0  0  0  0  0
  184.7000  175.9960  137.3970 C   0  0  0  0  0  0  0  0  0  0  0  0
  183.5780  175.7680  138.1660 C   0  0  0  0  0  3  0  0  0  0  0  0
  183.2650  176.9230  138.7980 N   0  0  0  0  0  0  0  0  0  0  0  0
  184.2550  180.2230  139.1970 O   0  0  0  0  0  0  0  0  0  0  0  0
  185.3010  175.0900  136.6350 C   0  0  0  0  0  2  0  0  0  0  0  0
  185.0910  177.2760  137.5330 N   0  0  0  0  0  0  0  0  0  0  0  0
  1 12  1  0  0  0  0
  1 19  1  6  0  0  0
  2 17  1  0  0  0  0
  3  8  1  0  0  0  0
  4 15  1  0  0  0  0
  4  3  2  0  0  0  0
  5 14  1  0  0  0  0
  6 13  2  0  0  0  0
  7  1  1  0  0  0  0
  8 10  2  0  0  0  0
  9  2  2  0  0  0  0
  9  6  1  0  0  0  0
 10  9  1  0  0  0  0
 11 18  2  0  0  0  0
 13  5  1  0  0  0  0
 13  7  1  0  0  0  0
 14 12  1  0  0  0  0
 15 16  2  0  0  0  0
 16 11  1  0  0  0  0
 16 10  1  0  0  0  0
 17  5  2  0  0  0  0
 18  2  1  0  0  0  0
 19 20  1  0  0  0  0
 20 21  1  0  0  0  0
 21 22  1  0  0  0  0
 21 23  2  0  0  0  0
 24 32  1  0  0  0  0
 24 11  1  0  0  0  0
 25 30  2  0  0  0  0
 26 29  1  0  0  0  0
 26 25  2  0  0  0  0
 27 32  1  0  0  0  0
 27 28  1  0  0  0  0
 28 29  2  0  0  0  0
 31 27  2  0  0  0  0
 32 26  1  0  0  0  0
M  END
>  <MODEL>
1

>  <REMARK>
 VINA RESULT:      -8.5      0.000      0.000
  Name = 
  5 active torsions:
  status: ('A' for Active; 'I' for Inactive)
    1  A    between atoms: C_1  and  C_10
    2  A    between atoms: C_2  and  C_24
    3  A    between atoms: C_10  and  C_24
    4  A    between atoms: C_16  and  C_27
    5  A    between atoms: C_27  and  N_32
                            x       y       z     vdW  Elec       q    Type
                         _______ _______ _______ _____ _____    ______ ____

>  <TORSDO>
F 5

$$$$
=
 OpenBabel10262421293D

 32 36  0  0  1  0  0  0  0  0999 V2000
  180.7360  179.4220  142.2880 C   0  0  1  0  0  3  0  0  0  0  0  0
  185.5290  177.8040  143.2270 C   0  0  0  0  0  0  0  0  0  0  0  0
  186.3310  178.6290  147.9360 C   0  0  0  0  0  3  0  0  0  0  0  0
  187.5460  178.0330  147.8060 N   0  0  0  0  0  0  0  0  0  0  0  0
  183.4750  178.4920  142.1360 C   0  0  0  0  0  0  0  0  0  0  0  0
  183.7960  178.9290  144.5040 C   0  0  0  0  0  3  0  0  0  0  0  0
  181.6750  179.7170  143.4580 C   0  0  0  0  0  2  0  0  0  0  0  0
  185.4830  178.7400  146.8330 C   0  0  0  0  0  3  0  0  0  0  0  0
  185.0640  178.3280  144.4530 C   0  0  0  0  0  0  0  0  0  0  0  0
  185.8890  178.2340  145.5890 C   0  0  0  0  0  0  0  0  0  0  0  0
  187.5690  177.1070  144.2350 C   0  0  0  0  0  0  0  0  0  0  0  0
  181.4940  179.5080  140.9610 C   0  0  0  0  0  2  0  0  0  0  0  0
  182.9940  178.9990  143.3620 C   0  0  0  0  0  0  0  0  0  0  0  0
  182.6250  178.4820  140.8980 C   0  0  0  0  0  2  0  0  0  0  0  0
  187.9710  177.5330  146.6170 C   0  0  0  0  0  3  0  0  0  0  0  0
  187.1550  177.6160  145.4790 C   0  0  0  0  0  0  0  0  0  0  0  0
  184.7320  177.8830  142.0830 C   0  0  0  0  0  3  0  0  0  0  0  0
  186.7500  177.2150  143.1550 N   0  0  0  0  0  0  0  0  0  0  0  0
  180.0460  178.0760  142.4760 C   0  0  0  0  0  2  0  0  0  0  0  0
  179.0660  177.8180  141.3450 C   0  0  0  0  0  2  0  0  0  0  0  0
  179.3100  176.4750  140.7440 C   0  0  0  0  0  0  0  0  0  0  0  0
  179.9250  176.3690  139.3910 C   0  0  0  0  0  1  0  0  0  0  0  0
  178.9910  175.4630  141.3470 O   0  0  0  0  0  0  0  0  0  0  0  0
  188.8930  176.4240  144.0710 C   0  0  0  0  0  2  0  0  0  0  0  0
  189.4090  178.2490  141.7710 C   0  0  0  0  0  0  0  0  0  0  0  0
  190.1720  178.2130  142.8310 C   0  0  0  0  0  0  0  0  0  0  0  0
  190.9710  177.6900  144.7340 C   0  0  0  0  0  0  0  0  0  0  0  0
  191.7830  178.6560  144.1770 C   0  0  0  0  0  3  0  0  0  0  0  0
  191.2710  178.9850  142.9690 N   0  0  0  0  0  2  0  0  0  0  0  0
  188.6860  178.2820  140.7660 O   0  0  0  0  0  0  0  0  0  0  0  0
  191.1600  177.1220  145.9190 C   0  0  0  0  0  1  0  0  0  0  0  0
  189.9560  177.4130  143.8950 N   0  0  0  0  0  0  0  0  0  0  0  0
  1 19  1  1  0  0  0
  1  7  1  0  0  0  0
  2  9  1  0  0  0  0
  4  3  1  0  0  0  0
  5 13  1  0  0  0  0
  8  3  2  0  0  0  0
  9  6  1  0  0  0  0
  9 10  2  0  0  0  0
 10  8  1  0  0  0  0
 11 16  2  0  0  0  0
 12  1  1  0  0  0  0
 13  7  1  0  0  0  0
 13  6  2  0  0  0  0
 14 12  1  0  0  0  0
 14  5  1  0  0  0  0
 15  4  2  0  0  0  0
 16 10  1  0  0  0  0
 16 15  1  0  0  0  0
 17  5  2  0  0  0  0
 17  2  1  0  0  0  0
 18  2  2  0  0  0  0
 18 11  1  0  0  0  0
 20 19  1  0  0  0  0
 21 20  1  0  0  0  0
 21 23  2  0  0  0  0
 22 21  1  0  0  0  0
 24 11  1  0  0  0  0
 25 26  2  0  0  0  0
 26 29  1  0  0  0  0
 26 32  1  0  0  0  0
 27 31  1  0  0  0  0
 28 27  2  0  0  0  0
 29 28  1  0  0  0  0
 30 25  2  0  0  0  0
 32 24  1  0  0  0  0
 32 27  1  0  0  0  0
M  END
>  <MODEL>
2

>  <REMARK>
 VINA RESULT:      -8.2      4.379      9.575
  Name = 
  5 active torsions:
  status: ('A' for Active; 'I' for Inactive)
    1  A    between atoms: C_1  and  C_10
    2  A    between atoms: C_2  and  C_24
    3  A    between atoms: C_10  and  C_24
    4  A    between atoms: C_16  and  C_27
    5  A    between atoms: C_27  and  N_32
                            x       y       z     vdW  Elec       q    Type
                         _______ _______ _______ _____ _____    ______ ____

>  <TORSDO>
F 5

$$$$
=
 OpenBabel10262421293D

 32 36  0  0  1  0  0  0  0  0999 V2000
  191.6520  177.5850  143.9750 C   0  0  1  0  0  3  0  0  0  0  0  0
  188.3730  177.9990  140.0310 C   0  0  0  0  0  0  0  0  0  0  0  0
  190.3740  175.5550  136.3540 C   0  0  0  0  0  3  0  0  0  0  0  0
  189.2610  175.8060  135.6160 N   0  0  0  0  0  0  0  0  0  0  0  0
  189.5190  178.2960  142.1480 C   0  0  0  0  0  0  0  0  0  0  0  0
  190.5830  177.0450  140.3580 C   0  0  0  0  0  3  0  0  0  0  0  0
  191.8580  177.3410  142.4800 C   0  0  0  0  0  2  0  0  0  0  0  0
  190.4690  176.0280  137.6640 C   0  0  0  0  0  3  0  0  0  0  0  0
  189.4680  177.2600  139.5320 C   0  0  0  0  0  0  0  0  0  0  0  0
  189.4110  176.7650  138.2160 C   0  0  0  0  0  0  0  0  0  0  0  0
  187.1960  177.7480  137.9780 C   0  0  0  0  0  0  0  0  0  0  0  0
  190.8570  178.8730  144.2020 C   0  0  0  0  0  2  0  0  0  0  0  0
  190.6090  177.5410  141.6650 C   0  0  0  0  0  0  0  0  0  0  0  0
  189.4700  178.7910  143.5650 C   0  0  0  0  0  2  0  0  0  0  0  0
  188.2170  176.5160  136.1200 C   0  0  0  0  0  3  0  0  0  0  0  0
  188.2610  177.0110  137.4310 C   0  0  0  0  0  0  0  0  0  0  0  0
  188.4030  178.5030  141.3330 C   0  0  0  0  0  3  0  0  0  0  0  0
  187.2830  178.2160  139.2520 N   0  0  0  0  0  0  0  0  0  0  0  0
  190.9970  176.3760  144.6340 C   0  0  0  0  0  2  0  0  0  0  0  0
  191.7810  175.9500  145.8630 C   0  0  0  0  0  2  0  0  0  0  0  0
  191.2610  176.6460  147.0750 C   0  0  0  0  0  0  0  0  0  0  0  0
  189.8020  176.9140  147.2070 C   0  0  0  0  0  1  0  0  0  0  0  0
  192.0280  177.0160  147.9500 O   0  0  0  0  0  0  0  0  0  0  0  0
  185.9480  178.0170  137.1940 C   0  0  0  0  0  2  0  0  0  0  0  0
  184.8820  175.2360  137.0710 C   0  0  0  0  0  0  0  0  0  0  0  0
  184.3200  176.1780  137.7820 C   0  0  0  0  0  0  0  0  0  0  0  0
  183.9140  178.0620  138.6850 C   0  0  0  0  0  0  0  0  0  0  0  0
  182.9360  177.1750  139.0830 C   0  0  0  0  0  3  0  0  0  0  0  0
  183.1990  175.9790  138.5060 N   0  0  0  0  0  0  0  0  0  0  0  0
  185.4130  174.3440  136.3960 O   0  0  0  0  0  0  0  0  0  0  0  0
  183.9840  179.3370  139.0510 C   0  0  0  0  0  2  0  0  0  0  0  0
  184.7880  177.4400  137.8730 N   0  0  0  0  0  0  0  0  0  0  0  0
  1 12  1  0  0  0  0
  1 19  1  6  0  0  0
  2 17  1  0  0  0  0
  3  8  1  0  0  0  0
  4 15  1  0  0  0  0
  4  3  2  0  0  0  0
  5 14  1  0  0  0  0
  6 13  2  0  0  0  0
  7  1  1  0  0  0  0
  8 10  2  0  0  0  0
  9  2  2  0  0  0  0
  9  6  1  0  0  0  0
 10  9  1  0  0  0  0
 11 18  2  0  0  0  0
 13  5  1  0  0  0  0
 13  7  1  0  0  0  0
 14 12  1  0  0  0  0
 15 16  2  0  0  0  0
 16 11  1  0  0  0  0
 16 10  1  0  0  0  0
 17  5  2  0  0  0  0
 18  2  1  0  0  0  0
 19 20  1  0  0  0  0
 20 21  1  0  0  0  0
 21 22  1  0  0  0  0
 21 23  2  0  0  0  0
 24 32  1  0  0  0  0
 24 11  1  0  0  0  0
 25 26  2  0  0  0  0
 26 32  1  0  0  0  0
 26 29  1  0  0  0  0
 27 31  2  0  0  0  0
 27 28  1  0  0  0  0
 29 28  2  0  0  0  0
 30 25  2  0  0  0  0
 32 27  1  0  0  0  0
M  END
>  <MODEL>
3

>  <REMARK>
 VINA RESULT:      -8.2      1.254      1.795
  Name = 
  5 active torsions:
  status: ('A' for Active; 'I' for Inactive)
    1  A    between atoms: C_1  and  C_10
    2  A    between atoms: C_2  and  C_24
    3  A    between atoms: C_10  and  C_24
    4  A    between atoms: C_16  and  C_27
    5  A    between atoms: C_27  and  N_32
                            x       y       z     vdW  Elec       q    Type
                         _______ _______ _______ _____ _____    ______ ____

>  <TORSDO>
F 5

$$$$
=
 OpenBabel10262421293D

 32 36  0  0  1  0  0  0  0  0999 V2000
  191.3500  177.7970  144.3420 C   0  0  1  0  0  3  0  0  0  0  0  0
  189.2700  177.2120  139.6720 C   0  0  0  0  0  0  0  0  0  0  0  0
  192.9270  176.0770  136.7020 C   0  0  0  0  0  3  0  0  0  0  0  0
  192.0280  175.9290  135.6930 N   0  0  0  0  0  0  0  0  0  0  0  0
  189.6360  177.7590  142.0070 C   0  0  0  0  0  0  0  0  0  0  0  0
  191.5200  177.1860  140.5860 C   0  0  0  0  0  3  0  0  0  0  0  0
  191.9990  177.7820  142.9580 C   0  0  0  0  0  2  0  0  0  0  0  0
  192.4970  176.4380  137.9790 C   0  0  0  0  0  3  0  0  0  0  0  0
  190.6560  177.0120  139.4930 C   0  0  0  0  0  0  0  0  0  0  0  0
  191.1310  176.6460  138.2200 C   0  0  0  0  0  0  0  0  0  0  0  0
  188.8410  176.6910  137.3900 C   0  0  0  0  0  0  0  0  0  0  0  0
  190.0730  178.6430  144.3240 C   0  0  0  0  0  2  0  0  0  0  0  0
  191.0200  177.5400  141.8420 C   0  0  0  0  0  0  0  0  0  0  0  0
  189.0420  178.0730  143.3500 C   0  0  0  0  0  2  0  0  0  0  0  0
  190.6980  176.1230  135.8910 C   0  0  0  0  0  3  0  0  0  0  0  0
  190.2130  176.4840  137.1570 C   0  0  0  0  0  0  0  0  0  0  0  0
  188.7700  177.5760  140.9250 C   0  0  0  0  0  3  0  0  0  0  0  0
  188.4140  177.0460  138.6310 N   0  0  0  0  0  0  0  0  0  0  0  0
  191.0970  176.3780  144.8360 C   0  0  0  0  0  2  0  0  0  0  0  0
  191.9350  176.0860  146.0690 C   0  0  0  0  0  2  0  0  0  0  0  0
  191.2980  176.6810  147.2800 C   0  0  0  0  0  0  0  0  0  0  0  0
  189.8140  176.7300  147.3880 C   0  0  0  0  0  1  0  0  0  0  0  0
  191.9880  177.1460  148.1730 O   0  0  0  0  0  0  0  0  0  0  0  0
  187.8270  176.5100  136.3020 C   0  0  0  0  0  2  0  0  0  0  0  0
  187.9480  173.5640  136.7410 C   0  0  0  0  0  0  0  0  0  0  0  0
  186.8560  174.2600  136.9110 C   0  0  0  0  0  0  0  0  0  0  0  0
  185.4860  175.8870  137.0050 C   0  0  0  0  0  0  0  0  0  0  0  0
  184.8080  174.7350  137.3420 C   0  0  0  0  0  3  0  0  0  0  0  0
  185.6830  173.7040  137.2810 N   0  0  0  0  0  0  0  0  0  0  0  0
  188.9830  172.9040  136.5770 O   0  0  0  0  0  0  0  0  0  0  0  0
  184.9520  177.1020  136.9540 C   0  0  0  0  0  2  0  0  0  0  0  0
  186.7730  175.5960  136.7390 N   0  0  0  0  0  0  0  0  0  0  0  0
  1 19  1  6  0  0  0
  2 17  1  0  0  0  0
  3  8  1  0  0  0  0
  4 15  1  0  0  0  0
  4  3  2  0  0  0  0
  5 14  1  0  0  0  0
  6 13  2  0  0  0  0
  7  1  1  0  0  0  0
  8 10  2  0  0  0  0
  9  2  2  0  0  0  0
  9  6  1  0  0  0  0
 10  9  1  0  0  0  0
 11 18  2  0  0  0  0
 12  1  1  0  0  0  0
 13  5  1  0  0  0  0
 13  7  1  0  0  0  0
 14 12  1  0  0  0  0
 15 16  2  0  0  0  0
 16 11  1  0  0  0  0
 16 10  1  0  0  0  0
 17  5  2  0  0  0  0
 18  2  1  0  0  0  0
 19 20  1  0  0  0  0
 20 21  1  0  0  0  0
 21 22  1  0  0  0  0
 21 23  2  0  0  0  0
 24 32  1  0  0  0  0
 24 11  1  0  0  0  0
 25 26  2  0  0  0  0
 26 29  1  0  0  0  0
 27 28  1  0  0  0  0
 29 28  2  0  0  0  0
 30 25  2  0  0  0  0
 31 27  2  0  0  0  0
 32 26  1  0  0  0  0
 32 27  1  0  0  0  0
M  END
>  <MODEL>
4

>  <REMARK>
 VINA RESULT:      -8.1      2.127      2.651
  Name = 
  5 active torsions:
  status: ('A' for Active; 'I' for Inactive)
    1  A    between atoms: C_1  and  C_10
    2  A    between atoms: C_2  and  C_24
    3  A    between atoms: C_10  and  C_24
    4  A    between atoms: C_16  and  C_27
    5  A    between atoms: C_27  and  N_32
                            x       y       z     vdW  Elec       q    Type
                         _______ _______ _______ _____ _____    ______ ____

>  <TORSDO>
F 5

$$$$
=
 OpenBabel10262421293D

 32 36  0  0  1  0  0  0  0  0999 V2000
  191.3550  177.7890  144.3060 C   0  0  1  0  0  3  0  0  0  0  0  0
  189.4070  177.1320  139.5890 C   0  0  0  0  0  0  0  0  0  0  0  0
  193.1540  176.0060  136.7290 C   0  0  0  0  0  3  0  0  0  0  0  0
  192.2840  175.8370  135.6990 N   0  0  0  0  0  0  0  0  0  0  0  0
  189.7040  177.7060  141.9260 C   0  0  0  0  0  0  0  0  0  0  0  0
  191.6320  177.1390  140.5620 C   0  0  0  0  0  3  0  0  0  0  0  0
  192.0410  177.7660  142.9400 C   0  0  0  0  0  2  0  0  0  0  0  0
  192.6860  176.3750  137.9900 C   0  0  0  0  0  3  0  0  0  0  0  0
  190.7990  176.9440  139.4480 C   0  0  0  0  0  0  0  0  0  0  0  0
  191.3120  176.5710  138.1920 C   0  0  0  0  0  0  0  0  0  0  0  0
  189.0450  176.5820  137.3020 C   0  0  0  0  0  0  0  0  0  0  0  0
  190.0700  178.6200  144.2440 C   0  0  0  0  0  2  0  0  0  0  0  0
  191.0950  177.5010  141.8000 C   0  0  0  0  0  0  0  0  0  0  0  0
  189.0710  178.0280  143.2490 C   0  0  0  0  0  2  0  0  0  0  0  0
  190.9470  176.0190  135.8590 C   0  0  0  0  0  3  0  0  0  0  0  0
  190.4250  176.3870  137.1070 C   0  0  0  0  0  0  0  0  0  0  0  0
  188.8700  177.5030  140.8230 C   0  0  0  0  0  3  0  0  0  0  0  0
  188.5810  176.9450  138.5270 N   0  0  0  0  0  0  0  0  0  0  0  0
  191.1040  176.3710  144.8080 C   0  0  0  0  0  2  0  0  0  0  0  0
  191.9490  176.0850  146.0370 C   0  0  0  0  0  2  0  0  0  0  0  0
  191.3150  176.6780  147.2500 C   0  0  0  0  0  0  0  0  0  0  0  0
  189.8300  176.7510  147.3500 C   0  0  0  0  0  1  0  0  0  0  0  0
  192.0060  177.1220  148.1530 O   0  0  0  0  0  0  0  0  0  0  0  0
  188.0620  176.3780  136.1890 C   0  0  0  0  0  2  0  0  0  0  0  0
  185.2560  176.7480  137.1240 C   0  0  0  0  0  0  0  0  0  0  0  0
  185.8120  175.5720  137.0020 C   0  0  0  0  0  0  0  0  0  0  0  0
  187.2300  174.0350  136.6070 C   0  0  0  0  0  0  0  0  0  0  0  0
  186.0690  173.4430  137.0570 C   0  0  0  0  0  3  0  0  0  0  0  0
  185.1710  174.4240  137.3070 N   0  0  0  0  0  0  0  0  0  0  0  0
  184.7300  177.8630  137.2420 O   0  0  0  0  0  0  0  0  0  0  0  0
  188.3360  173.3850  136.2620 C   0  0  0  0  0  2  0  0  0  0  0  0
  187.0720  175.3700  136.5650 N   0  0  0  0  0  0  0  0  0  0  0  0
  1 19  1  6  0  0  0
  2 17  1  0  0  0  0
  3  8  1  0  0  0  0
  4 15  1  0  0  0  0
  4  3  2  0  0  0  0
  5 14  1  0  0  0  0
  6 13  2  0  0  0  0
  7  1  1  0  0  0  0
  8 10  2  0  0  0  0
  9  2  2  0  0  0  0
  9  6  1  0  0  0  0
 10  9  1  0  0  0  0
 11 18  2  0  0  0  0
 12  1  1  0  0  0  0
 13  5  1  0  0  0  0
 13  7  1  0  0  0  0
 14 12  1  0  0  0  0
 15 16  2  0  0  0  0
 16 11  1  0  0  0  0
 16 10  1  0  0  0  0
 17  5  2  0  0  0  0
 18  2  1  0  0  0  0
 19 20  1  0  0  0  0
 20 21  1  0  0  0  0
 21 22  1  0  0  0  0
 21 23  2  0  0  0  0
 24 32  1  0  0  0  0
 24 11  1  0  0  0  0
 25 30  2  0  0  0  0
 26 25  2  0  0  0  0
 26 29  1  0  0  0  0
 27 28  1  0  0  0  0
 28 29  2  0  0  0  0
 31 27  2  0  0  0  0
 32 27  1  0  0  0  0
 32 26  1  0  0  0  0
M  END
>  <MODEL>
5

>  <REMARK>
 VINA RESULT:      -8.0      1.518      2.042
  Name = 
  5 active torsions:
  status: ('A' for Active; 'I' for Inactive)
    1  A    between atoms: C_1  and  C_10
    2  A    between atoms: C_2  and  C_24
    3  A    between atoms: C_10  and  C_24
    4  A    between atoms: C_16  and  C_27
    5  A    between atoms: C_27  and  N_32
                            x       y       z     vdW  Elec       q    Type
                         _______ _______ _______ _____ _____    ______ ____

>  <TORSDO>
F 5

$$$$
=
 OpenBabel10262421293D

 32 36  0  0  1  0  0  0  0  0999 V2000
  182.8590  178.3040  140.3420 C   0  0  1  0  0  3  0  0  0  0  0  0
  187.3810  178.4300  142.7960 C   0  0  0  0  0  0  0  0  0  0  0  0
  186.3890  177.7080  147.4840 C   0  0  0  0  0  3  0  0  0  0  0  0
  187.7230  177.7180  147.7420 N   0  0  0  0  0  0  0  0  0  0  0  0
  185.6290  178.6240  141.1290 C   0  0  0  0  0  0  0  0  0  0  0  0
  185.0510  178.2480  143.4580 C   0  0  0  0  0  3  0  0  0  0  0  0
  183.1820  178.4850  141.8260 C   0  0  0  0  0  2  0  0  0  0  0  0
  185.9240  177.8810  146.1800 C   0  0  0  0  0  3  0  0  0  0  0  0
  186.4110  178.2440  143.8060 C   0  0  0  0  0  0  0  0  0  0  0  0
  186.8390  178.0650  145.1340 C   0  0  0  0  0  0  0  0  0  0  0  0
  189.1470  178.2530  144.3800 C   0  0  0  0  0  0  0  0  0  0  0  0
  183.7990  179.1550  139.4840 C   0  0  0  0  0  2  0  0  0  0  0  0
  184.6540  178.4190  142.1290 C   0  0  0  0  0  0  0  0  0  0  0  0
  185.2580  178.7440  139.6790 C   0  0  0  0  0  2  0  0  0  0  0  0
  188.6380  177.8930  146.7520 C   0  0  0  0  0  3  0  0  0  0  0  0
  188.2230  178.0690  145.4240 C   0  0  0  0  0  0  0  0  0  0  0  0
  186.9850  178.6110  141.4690 C   0  0  0  0  0  3  0  0  0  0  0  0
  188.7020  178.4260  143.1070 N   0  0  0  0  0  0  0  0  0  0  0  0
  182.8990  176.8300  139.9570 C   0  0  0  0  0  2  0  0  0  0  0  0
  182.1090  176.5910  138.6820 C   0  0  0  0  0  2  0  0  0  0  0  0
  182.9930  176.0230  137.6240 C   0  0  0  0  0  0  0  0  0  0  0  0
  183.4610  176.8890  136.5060 C   0  0  0  0  0  1  0  0  0  0  0  0
  183.3190  174.8470  137.6590 O   0  0  0  0  0  0  0  0  0  0  0  0
  190.6240  178.2430  144.6330 C   0  0  0  0  0  2  0  0  0  0  0  0
  191.7520  176.6300  146.8720 C   0  0  0  0  0  0  0  0  0  0  0  0
  191.6530  176.1740  145.6510 C   0  0  0  0  0  0  0  0  0  0  0  0
  191.2360  176.0410  143.5680 C   0  0  0  0  0  0  0  0  0  0  0  0
  191.8080  174.8520  143.9690 C   0  0  0  0  0  3  0  0  0  0  0  0
  192.0710  174.9420  145.2930 N   0  0  0  0  0  0  0  0  0  0  0  0
  191.8460  177.0630  148.0280 O   0  0  0  0  0  0  0  0  0  0  0  0
  190.8440  176.3210  142.3310 C   0  0  0  0  0  2  0  0  0  0  0  0
  191.1320  176.8720  144.6210 N   0  0  0  0  0  0  0  0  0  0  0  0
  1 19  1  6  0  0  0
  1  7  1  0  0  0  0
  2 18  2  0  0  0  0
  2  9  1  0  0  0  0
  3  4  1  0  0  0  0
  5 17  2  0  0  0  0
  5 13  1  0  0  0  0
  6  9  1  0  0  0  0
  7 13  1  0  0  0  0
  8  3  2  0  0  0  0
  9 10  2  0  0  0  0
 10 16  1  0  0  0  0
 10  8  1  0  0  0  0
 11 24  1  0  0  0  0
 11 16  2  0  0  0  0
 12 14  1  0  0  0  0
 12  1  1  0  0  0  0
 13  6  2  0  0  0  0
 14  5  1  0  0  0  0
 15  4  2  0  0  0  0
 16 15  1  0  0  0  0
 17  2  1  0  0  0  0
 18 11  1  0  0  0  0
 20 19  1  0  0  0  0
 21 23  2  0  0  0  0
 21 20  1  0  0  0  0
 22 21  1  0  0  0  0
 25 30  2  0  0  0  0
 26 25  2  0  0  0  0
 27 28  1  0  0  0  0
 27 32  1  0  0  0  0
 28 29  2  0  0  0  0
 29 26  1  0  0  0  0
 31 27  2  0  0  0  0
 32 24  1  0  0  0  0
 32 26  1  0  0  0  0
M  END
>  <MODEL>
6

>  <REMARK>
 VINA RESULT:      -7.5      3.588      9.321
  Name = 
  5 active torsions:
  status: ('A' for Active; 'I' for Inactive)
    1  A    between atoms: C_1  and  C_10
    2  A    between atoms: C_2  and  C_24
    3  A    between atoms: C_10  and  C_24
    4  A    between atoms: C_16  and  C_27
    5  A    between atoms: C_27  and  N_32
                            x       y       z     vdW  Elec       q    Type
                         _______ _______ _______ _____ _____    ______ ____

>  <TORSDO>
F 5

$$$$
=
 OpenBabel10262421293D

 32 36  0  0  1  0  0  0  0  0999 V2000
  187.3310  178.3270  146.3460 C   0  0  1  0  0  3  0  0  0  0  0  0
  183.3580  178.6290  143.0910 C   0  0  0  0  0  0  0  0  0  0  0  0
  185.2560  178.5110  138.6330 C   0  0  0  0  0  3  0  0  0  0  0  0
  183.9960  178.5160  138.1250 N   0  0  0  0  0  0  0  0  0  0  0  0
  184.7490  178.6660  145.0780 C   0  0  0  0  0  0  0  0  0  0  0  0
  185.7770  178.5930  142.8780 C   0  0  0  0  0  3  0  0  0  0  0  0
  187.2870  178.6790  144.8590 C   0  0  0  0  0  2  0  0  0  0  0  0
  185.4560  178.5370  140.0140 C   0  0  0  0  0  3  0  0  0  0  0  0
  184.5090  178.5950  142.2740 C   0  0  0  0  0  0  0  0  0  0  0  0
  184.3500  178.5670  140.8760 C   0  0  0  0  0  0  0  0  0  0  0  0
  181.9350  178.5990  141.1840 C   0  0  0  0  0  0  0  0  0  0  0  0
  186.2050  179.0420  147.0970 C   0  0  0  0  0  2  0  0  0  0  0  0
  185.9050  178.6110  144.2700 C   0  0  0  0  0  0  0  0  0  0  0  0
  184.8320  178.6180  146.5760 C   0  0  0  0  0  2  0  0  0  0  0  0
  182.9030  178.5450  138.9310 C   0  0  0  0  0  3  0  0  0  0  0  0
  183.0490  178.5690  140.3250 C   0  0  0  0  0  0  0  0  0  0  0  0
  183.4850  178.6580  144.4810 C   0  0  0  0  0  3  0  0  0  0  0  0
  182.1210  178.6280  142.5300 N   0  0  0  0  0  0  0  0  0  0  0  0
  187.2930  176.8170  146.5450 C   0  0  0  0  0  2  0  0  0  0  0  0
  188.2930  176.3940  147.6070 C   0  0  0  0  0  2  0  0  0  0  0  0
  189.5790  177.1300  147.4290 C   0  0  0  0  0  0  0  0  0  0  0  0
  190.3850  176.9210  146.1940 C   0  0  0  0  0  1  0  0  0  0  0  0
  189.9820  177.8850  148.2980 O   0  0  0  0  0  0  0  0  0  0  0  0
  180.5350  178.5800  140.6490 C   0  0  0  0  0  2  0  0  0  0  0  0
  179.1450  180.1210  142.7890 C   0  0  0  0  0  0  0  0  0  0  0  0
  179.3490  180.6010  141.5910 C   0  0  0  0  0  0  0  0  0  0  0  0
  179.9640  180.7830  139.5610 C   0  0  0  0  0  0  0  0  0  0  0  0
  179.3200  181.9470  139.9210 C   0  0  0  0  0  3  0  0  0  0  0  0
  178.9310  181.8270  141.2110 N   0  0  0  0  0  0  0  0  0  0  0  0
  178.9500  179.6660  143.9240 O   0  0  0  0  0  0  0  0  0  0  0  0
  180.4840  180.5350  138.3650 C   0  0  0  0  0  2  0  0  0  0  0  0
  179.9900  179.9370  140.6070 N   0  0  0  0  0  0  0  0  0  0  0  0
  1 19  1  6  0  0  0
  1 12  1  0  0  0  0
  2 17  1  0  0  0  0
  3  8  1  0  0  0  0
  4  3  2  0  0  0  0
  4 15  1  0  0  0  0
  5 14  1  0  0  0  0
  6 13  2  0  0  0  0
  7  1  1  0  0  0  0
  8 10  2  0  0  0  0
  9  6  1  0  0  0  0
  9  2  2  0  0  0  0
 10  9  1  0  0  0  0
 11 18  2  0  0  0  0
 13  7  1  0  0  0  0
 13  5  1  0  0  0  0
 14 12  1  0  0  0  0
 15 16  2  0  0  0  0
 16 10  1  0  0  0  0
 16 11  1  0  0  0  0
 17  5  2  0  0  0  0
 18  2  1  0  0  0  0
 19 20  1  0  0  0  0
 21 20  1  0  0  0  0
 21 23  2  0  0  0  0
 22 21  1  0  0  0  0
 24 11  1  0  0  0  0
 25 30  2  0  0  0  0
 26 25  2  0  0  0  0
 27 28  1  0  0  0  0
 27 32  1  0  0  0  0
 28 29  2  0  0  0  0
 29 26  1  0  0  0  0
 31 27  2  0  0  0  0
 32 24  1  0  0  0  0
 32 26  1  0  0  0  0
M  END
>  <MODEL>
7

>  <REMARK>
 VINA RESULT:      -7.1      4.049      5.989
  Name = 
  5 active torsions:
  status: ('A' for Active; 'I' for Inactive)
    1  A    between atoms: C_1  and  C_10
    2  A    between atoms: C_2  and  C_24
    3  A    between atoms: C_10  and  C_24
    4  A    between atoms: C_16  and  C_27
    5  A    between atoms: C_27  and  N_32
                            x       y       z     vdW  Elec       q    Type
                         _______ _______ _______ _____ _____    ______ ____

>  <TORSDO>
F 5

$$$$
=
 OpenBabel10262421293D

 32 36  0  0  1  0  0  0  0  0999 V2000
  184.9950  179.4040  144.2680 C   0  0  1  0  0  3  0  0  0  0  0  0
  182.9090  177.8560  139.8260 C   0  0  0  0  0  0  0  0  0  0  0  0
  186.4930  177.9060  136.5650 C   0  0  0  0  0  3  0  0  0  0  0  0
  185.6310  177.3940  135.6480 N   0  0  0  0  0  0  0  0  0  0  0  0
  183.2340  178.6300  142.1020 C   0  0  0  0  0  0  0  0  0  0  0  0
  185.0850  178.6740  140.5300 C   0  0  0  0  0  3  0  0  0  0  0  0
  185.5000  179.5370  142.8310 C   0  0  0  0  0  2  0  0  0  0  0  0
  186.0620  178.1660  137.8660 C   0  0  0  0  0  3  0  0  0  0  0  0
  184.2580  178.1440  139.5260 C   0  0  0  0  0  0  0  0  0  0  0  0
  184.7330  177.8960  138.2250 C   0  0  0  0  0  0  0  0  0  0  0  0
  182.5210  177.0860  137.6080 C   0  0  0  0  0  0  0  0  0  0  0  0
  183.5040  179.7450  144.3430 C   0  0  0  0  0  2  0  0  0  0  0  0
  184.5890  178.9020  141.8160 C   0  0  0  0  0  0  0  0  0  0  0  0
  182.6710  178.7930  143.4850 C   0  0  0  0  0  2  0  0  0  0  0  0
  184.3380  177.1200  135.9620 C   0  0  0  0  0  3  0  0  0  0  0  0
  183.8550  177.3600  137.2560 C   0  0  0  0  0  0  0  0  0  0  0  0
  182.4100  178.0930  141.1090 C   0  0  0  0  0  3  0  0  0  0  0  0
  182.0910  177.3390  138.8730 N   0  0  0  0  0  0  0  0  0  0  0  0
  185.3010  178.0160  144.8220 C   0  0  0  0  0  2  0  0  0  0  0  0
  186.4600  178.0780  145.8020 C   0  0  0  0  0  2  0  0  0  0  0  0
  187.7110  177.5880  145.1540 C   0  0  0  0  0  0  0  0  0  0  0  0
  187.6300  176.7630  143.9170 C   0  0  0  0  0  1  0  0  0  0  0  0
  188.7990  177.8430  145.6440 O   0  0  0  0  0  0  0  0  0  0  0  0
  181.5570  176.4970  136.6240 C   0  0  0  0  0  2  0  0  0  0  0  0
  182.7790  173.7790  136.5410 C   0  0  0  0  0  0  0  0  0  0  0  0
  181.6000  174.0100  137.0570 C   0  0  0  0  0  0  0  0  0  0  0  0
  179.8380  175.0070  137.7110 C   0  0  0  0  0  0  0  0  0  0  0  0
  179.7030  173.6650  137.9970 C   0  0  0  0  0  3  0  0  0  0  0  0
  180.8260  173.0360  137.5800 N   0  0  0  0  0  0  0  0  0  0  0  0
  183.8940  173.5610  136.0500 O   0  0  0  0  0  0  0  0  0  0  0  0
  178.9310  175.9400  137.9770 C   0  0  0  0  0  2  0  0  0  0  0  0
  181.0280  175.2300  137.1260 N   0  0  0  0  0  0  0  0  0  0  0  0
  1 12  1  0  0  0  0
  1 19  1  6  0  0  0
  2 17  1  0  0  0  0
  3  8  1  0  0  0  0
  4 15  1  0  0  0  0
  4  3  2  0  0  0  0
  5 14  1  0  0  0  0
  6 13  2  0  0  0  0
  7  1  1  0  0  0  0
  8 10  2  0  0  0  0
  9  2  2  0  0  0  0
  9  6  1  0  0  0  0
 10  9  1  0  0  0  0
 11 18  2  0  0  0  0
 13  5  1  0  0  0  0
 13  7  1  0  0  0  0
 14 12  1  0  0  0  0
 15 16  2  0  0  0  0
 16 11  1  0  0  0  0
 16 10  1  0  0  0  0
 17  5  2  0  0  0  0
 18  2  1  0  0  0  0
 19 20  1  0  0  0  0
 21 23  2  0  0  0  0
 21 20  1  0  0  0  0
 22 21  1  0  0  0  0
 24 32  1  0  0  0  0
 24 11  1  0  0  0  0
 25 26  2  0  0  0  0
 26 32  1  0  0  0  0
 26 29  1  0  0  0  0
 27 31  2  0  0  0  0
 27 28  1  0  0  0  0
 29 28  2  0  0  0  0
 30 25  2  0  0  0  0
 32 27  1  0  0  0  0
M  END
>  <MODEL>
8

>  <REMARK>
 VINA RESULT:      -7.1      3.529      5.540
  Name = 
  5 active torsions:
  status: ('A' for Active; 'I' for Inactive)
    1  A    between atoms: C_1  and  C_10
    2  A    between atoms: C_2  and  C_24
    3  A    between atoms: C_10  and  C_24
    4  A    between atoms: C_16  and  C_27
    5  A    between atoms: C_27  and  N_32
                            x       y       z     vdW  Elec       q    Type
                         _______ _______ _______ _____ _____    ______ ____

>  <TORSDO>
F 5

$$$$
=
 OpenBabel10262421293D

 32 36  0  0  1  0  0  0  0  0999 V2000
  189.5100  176.8440  144.0850 C   0  0  1  0  0  3  0  0  0  0  0  0
  185.8060  178.5870  140.9670 C   0  0  0  0  0  0  0  0  0  0  0  0
  181.7690  178.7680  143.6420 C   0  0  0  0  0  3  0  0  0  0  0  0
  181.1200  179.3130  142.5790 N   0  0  0  0  0  0  0  0  0  0  0  0
  187.8870  177.7000  141.8430 C   0  0  0  0  0  0  0  0  0  0  0  0
  185.9100  177.7700  143.2520 C   0  0  0  0  0  3  0  0  0  0  0  0
  187.9880  176.7950  144.2230 C   0  0  0  0  0  2  0  0  0  0  0  0
  183.1200  178.4330  143.5440 C   0  0  0  0  0  3  0  0  0  0  0  0
  185.1700  178.3370  142.2020 C   0  0  0  0  0  0  0  0  0  0  0  0
  183.8070  178.6620  142.3430 C   0  0  0  0  0  0  0  0  0  0  0  0
  183.7970  179.4650  140.0440 C   0  0  0  0  0  0  0  0  0  0  0  0
  189.9290  176.4740  142.6600 C   0  0  0  0  0  2  0  0  0  0  0  0
  187.2640  177.4660  143.0880 C   0  0  0  0  0  0  0  0  0  0  0  0
  189.3540  177.4550  141.6380 C   0  0  0  0  0  2  0  0  0  0  0  0
  181.7560  179.5480  141.4010 C   0  0  0  0  0  3  0  0  0  0  0  0
  183.1140  179.2330  141.2510 C   0  0  0  0  0  0  0  0  0  0  0  0
  187.1570  178.2740  140.7990 C   0  0  0  0  0  3  0  0  0  0  0  0
  185.1120  179.1380  139.9390 N   0  0  0  0  0  0  0  0  0  0  0  0
  190.0480  178.2050  144.5120 C   0  0  0  0  0  2  0  0  0  0  0  0
  191.3890  178.0530  145.2070 C   0  0  0  0  0  2  0  0  0  0  0  0
  191.3350  176.9400  146.1980 C   0  0  0  0  0  0  0  0  0  0  0  0
  190.3760  177.0070  147.3360 C   0  0  0  0  0  1  0  0  0  0  0  0
  192.0860  175.9830  146.0940 O   0  0  0  0  0  0  0  0  0  0  0  0
  183.1120  180.0880  138.8660 C   0  0  0  0  0  2  0  0  0  0  0  0
  183.9630  177.6160  137.4330 C   0  0  0  0  0  0  0  0  0  0  0  0
  182.7140  177.9920  137.5140 C   0  0  0  0  0  0  0  0  0  0  0  0
  180.9610  179.1020  137.9910 C   0  0  0  0  0  0  0  0  0  0  0  0
  180.5860  178.0070  137.2410 C   0  0  0  0  0  3  0  0  0  0  0  0
  181.7030  177.3050  136.9410 N   0  0  0  0  0  2  0  0  0  0  0  0
  185.1470  177.2610  137.3540 O   0  0  0  0  0  0  0  0  0  0  0  0
  180.1320  180.0230  138.4680 C   0  0  0  0  0  1  0  0  0  0  0  0
  182.2950  179.0940  138.1700 N   0  0  0  0  0  0  0  0  0  0  0  0
  1  7  1  0  0  0  0
  1 19  1  6  0  0  0
  2  9  1  0  0  0  0
  4  3  2  0  0  0  0
  5 13  2  0  0  0  0
  8  3  1  0  0  0  0
  9 10  1  0  0  0  0
  9  6  2  0  0  0  0
 10  8  2  0  0  0  0
 11 16  1  0  0  0  0
 12  1  1  0  0  0  0
 13  6  1  0  0  0  0
 13  7  1  0  0  0  0
 14  5  1  0  0  0  0
 14 12  1  0  0  0  0
 15  4  1  0  0  0  0
 16 15  2  0  0  0  0
 16 10  1  0  0  0  0
 17  2  2  0  0  0  0
 17  5  1  0  0  0  0
 18 11  2  0  0  0  0
 18  2  1  0  0  0  0
 19 20  1  0  0  0  0
 20 21  1  0  0  0  0
 21 22  1  0  0  0  0
 23 21  2  0  0  0  0
 24 11  1  0  0  0  0
 25 26  2  0  0  0  0
 26 32  1  0  0  0  0
 27 32  1  0  0  0  0
 27 31  1  0  0  0  0
 28 27  2  0  0  0  0
 29 28  1  0  0  0  0
 29 26  1  0  0  0  0
 30 25  2  0  0  0  0
 32 24  1  0  0  0  0
M  END
>  <MODEL>
9

>  <REMARK>
 VINA RESULT:      -7.1      2.882      5.296
  Name = 
  5 active torsions:
  status: ('A' for Active; 'I' for Inactive)
    1  A    between atoms: C_1  and  C_10
    2  A    between atoms: C_2  and  C_24
    3  A    between atoms: C_10  and  C_24
    4  A    between atoms: C_16  and  C_27
    5  A    between atoms: C_27  and  N_32
                            x       y       z     vdW  Elec       q    Type
                         _______ _______ _______ _____ _____    ______ ____

>  <TORSDO>
F 5

$$$$
