=
 OpenBabel10262419443D

 25 28  0  0  1  0  0  0  0  0999 V2000
  186.7050  177.9490  144.9560 C   0  0  0  0  0  0  0  0  0  0  0  0
  187.9380  177.4950  144.4840 C   0  0  0  0  0  0  0  0  0  0  0  0
  187.4480  177.9260  147.2590 C   0  0  0  0  0  3  0  0  0  0  0  0
  185.5130  178.2700  144.3490 C   0  0  0  0  0  0  0  0  0  0  0  0
  182.9440  179.0350  143.7070 C   0  0  0  0  0  3  0  0  0  0  0  0
  188.7000  177.4630  146.8150 C   0  0  0  0  0  3  0  0  0  0  0  0
  184.6460  178.6520  145.3080 N   0  0  0  0  0  0  0  0  0  0  0  0
  183.3720  179.0370  145.0430 C   0  0  0  0  0  3  0  0  0  0  0  0
  190.2770  176.7030  144.9530 C   0  0  2  0  0  3  0  0  0  0  0  0
  191.4440  177.1260  145.8310 C   0  0  0  0  0  1  0  0  0  0  0  0
  188.1690  177.1860  143.0330 C   0  0  0  0  0  2  0  0  0  0  0  0
  183.8370  178.6400  142.6910 C   0  0  0  0  0  3  0  0  0  0  0  0
  186.4700  178.1640  146.2980 C   0  0  0  0  0  0  0  0  0  0  0  0
  185.2070  178.5940  146.5090 N   0  0  0  0  0  0  0  0  0  0  0  0
  190.5510  177.1040  143.5700 N   0  0  0  0  0  0  0  0  0  0  0  0
  185.1470  178.2480  143.0050 C   0  0  0  0  0  3  0  0  0  0  0  0
  189.6230  177.3130  142.6790 C   0  0  0  0  0  0  0  0  0  0  0  0
  188.9600  177.2630  145.4350 C   0  0  0  0  0  0  0  0  0  0  0  0
  189.9660  177.6570  141.3730 O   0  0  0  0  0  0  0  0  0  0  0  0
  189.1940  177.2540  140.3000 N   0  0  0  0  0  2  0  0  0  0  0  0
  188.6820  178.4410  139.6190 C   0  0  2  0  0  3  0  0  0  0  0  0
  187.2280  178.4670  139.6480 N   0  0  0  0  0  1  0  0  0  0  0  0
  189.1940  178.5300  138.2160 C   0  0  0  0  0  0  0  0  0  0  0  0
  188.9590  179.6770  137.4720 O   0  0  0  0  0  0  0  0  0  0  0  0
  189.8630  177.5870  137.7150 O   0  0  0  0  0  1  0  0  0  0  0  0
  1 13  1  0  0  0  0
  2  1  1  0  0  0  0
  2 18  2  0  0  0  0
  4  1  2  0  0  0  0
  4  7  1  0  0  0  0
  5  8  2  0  0  0  0
  6  3  2  0  0  0  0
  7 14  1  0  0  0  0
  8  7  1  0  0  0  0
  9 18  1  0  0  0  0
  9 10  1  1  0  0  0
 11  2  1  0  0  0  0
 12 16  2  0  0  0  0
 12  5  1  0  0  0  0
 13 14  2  0  0  0  0
 13  3  1  0  0  0  0
 15  9  1  0  0  0  0
 16  4  1  0  0  0  0
 17 11  1  0  0  0  0
 17 15  2  0  0  0  0
 18  6  1  0  0  0  0
 19 17  1  0  0  0  0
 20 19  1  0  0  0  0
 21 22  1  6  0  0  0
 21 20  1  0  0  0  0
 23 21  1  0  0  0  0
 24 23  2  0  0  0  0
 25 23  1  0  0  0  0
M  END
>  <MODEL>
1

>  <REMARK>
 VINA RESULT:     -10.1      0.000      0.000
  Name = 
  4 active torsions:
  status: ('A' for Active; 'I' for Inactive)
    1  A    between atoms: C_2  and  C_21
    2  A    between atoms: O_6  and  N_15
    3  A    between atoms: O_6  and  C_23
    4  A    between atoms: N_15  and  C_21
                            x       y       z     vdW  Elec       q    Type
                         _______ _______ _______ _____ _____    ______ ____

>  <TORSDO>
F 4

$$$$
=
 OpenBabel10262419443D

 25 28  0  0  1  0  0  0  0  0999 V2000
  186.9860  177.8950  145.7410 C   0  0  0  0  0  0  0  0  0  0  0  0
  188.2410  177.3140  145.5550 C   0  0  0  0  0  0  0  0  0  0  0  0
  187.3570  178.2150  148.1110 C   0  0  0  0  0  3  0  0  0  0  0  0
  185.9290  178.1670  144.9030 C   0  0  0  0  0  0  0  0  0  0  0  0
  183.5530  178.9330  143.7350 C   0  0  0  0  0  3  0  0  0  0  0  0
  188.6270  177.6290  147.9560 C   0  0  0  0  0  3  0  0  0  0  0  0
  184.9520  178.7390  145.6350 N   0  0  0  0  0  0  0  0  0  0  0  0
  183.7660  179.1330  145.1070 C   0  0  0  0  0  3  0  0  0  0  0  0
  190.4160  176.5030  146.5200 C   0  0  2  0  0  3  0  0  0  0  0  0
  191.4590  177.0110  147.5030 C   0  0  0  0  0  1  0  0  0  0  0  0
  188.6730  176.7620  144.2270 C   0  0  0  0  0  2  0  0  0  0  0  0
  184.5620  178.3360  142.9540 C   0  0  0  0  0  3  0  0  0  0  0  0
  186.5610  178.3370  146.9770 C   0  0  0  0  0  0  0  0  0  0  0  0
  185.3140  178.8530  146.9070 N   0  0  0  0  0  0  0  0  0  0  0  0
  190.9300  176.6600  145.1560 N   0  0  0  0  0  0  0  0  0  0  0  0
  185.7760  177.9420  143.5370 C   0  0  0  0  0  3  0  0  0  0  0  0
  190.1700  176.7630  144.1030 C   0  0  0  0  0  0  0  0  0  0  0  0
  189.0830  177.1950  146.6860 C   0  0  0  0  0  0  0  0  0  0  0  0
  190.7350  176.8720  142.8350 O   0  0  0  0  0  0  0  0  0  0  0  0
  190.2610  176.1270  141.7720 N   0  0  0  0  0  2  0  0  0  0  0  0
  190.5630  176.8360  140.5310 C   0  0  2  0  0  3  0  0  0  0  0  0
  191.7970  177.5970  140.6560 N   0  0  0  0  0  1  0  0  0  0  0  0
  189.4280  177.7180  140.1140 C   0  0  0  0  0  0  0  0  0  0  0  0
  188.2820  177.7730  140.8940 O   0  0  0  0  0  1  0  0  0  0  0  0
  189.5160  178.4340  139.0820 O   0  0  0  0  0  0  0  0  0  0  0  0
  1 13  1  0  0  0  0
  2  1  1  0  0  0  0
  2 18  2  0  0  0  0
  4  7  1  0  0  0  0
  4  1  2  0  0  0  0
  5  8  2  0  0  0  0
  6  3  2  0  0  0  0
  7 14  1  0  0  0  0
  8  7  1  0  0  0  0
  9 18  1  0  0  0  0
  9 10  1  1  0  0  0
 11  2  1  0  0  0  0
 12 16  2  0  0  0  0
 12  5  1  0  0  0  0
 13  3  1  0  0  0  0
 14 13  2  0  0  0  0
 15  9  1  0  0  0  0
 16  4  1  0  0  0  0
 17 11  1  0  0  0  0
 17 15  2  0  0  0  0
 18  6  1  0  0  0  0
 19 17  1  0  0  0  0
 20 19  1  0  0  0  0
 21 22  1  1  0  0  0
 21 20  1  0  0  0  0
 23 21  1  0  0  0  0
 23 24  1  0  0  0  0
 25 23  2  0  0  0  0
M  END
>  <MODEL>
2

>  <REMARK>
 VINA RESULT:     -10.0      1.497      1.813
  Name = 
  4 active torsions:
  status: ('A' for Active; 'I' for Inactive)
    1  A    between atoms: C_2  and  C_21
    2  A    between atoms: O_6  and  N_15
    3  A    between atoms: O_6  and  C_23
    4  A    between atoms: N_15  and  C_21
                            x       y       z     vdW  Elec       q    Type
                         _______ _______ _______ _____ _____    ______ ____

>  <TORSDO>
F 4

$$$$
=
 OpenBabel10262419443D

 25 28  0  0  1  0  0  0  0  0999 V2000
  189.3300  177.3730  144.6930 C   0  0  0  0  0  0  0  0  0  0  0  0
  189.2180  177.3580  143.3020 C   0  0  0  0  0  0  0  0  0  0  0  0
  191.6420  176.6610  144.6310 C   0  0  0  0  0  3  0  0  0  0  0  0
  188.4570  177.6640  145.7160 C   0  0  0  0  0  0  0  0  0  0  0  0
  187.1890  178.1170  148.1210 C   0  0  0  0  0  3  0  0  0  0  0  0
  191.5590  176.6300  143.2270 C   0  0  0  0  0  3  0  0  0  0  0  0
  189.1130  177.5060  146.8830 N   0  0  0  0  0  0  0  0  0  0  0  0
  188.5330  177.7170  148.0920 C   0  0  0  0  0  3  0  0  0  0  0  0
  190.2410  176.8990  141.0530 C   0  0  2  0  0  3  0  0  0  0  0  0
  191.5570  177.1870  140.3450 C   0  0  0  0  0  1  0  0  0  0  0  0
  187.9180  177.6410  142.6060 C   0  0  0  0  0  2  0  0  0  0  0  0
  186.4880  178.2880  146.9120 C   0  0  0  0  0  3  0  0  0  0  0  0
  190.5050  177.0430  145.3360 C   0  0  0  0  0  0  0  0  0  0  0  0
  190.3670  177.1250  146.6770 N   0  0  0  0  0  0  0  0  0  0  0  0
  189.2160  177.8150  140.5440 N   0  0  0  0  0  0  0  0  0  0  0  0
  187.1210  178.0610  145.6810 C   0  0  0  0  0  3  0  0  0  0  0  0
  188.1520  178.1550  141.2150 C   0  0  0  0  0  0  0  0  0  0  0  0
  190.3630  176.9930  142.5550 C   0  0  0  0  0  0  0  0  0  0  0  0
  187.2040  179.0030  140.6470 O   0  0  0  0  0  0  0  0  0  0  0  0
  186.0550  179.3530  141.3300 N   0  0  0  0  0  2  0  0  0  0  0  0
  184.8990  178.8530  140.5890 C   0  0  2  0  0  3  0  0  0  0  0  0
  184.5540  179.7540  139.4990 N   0  0  0  0  0  1  0  0  0  0  0  0
  183.7270  178.6270  141.4920 C   0  0  0  0  0  0  0  0  0  0  0  0
  183.8330  178.9300  142.8420 O   0  0  0  0  0  1  0  0  0  0  0  0
  182.6360  178.1950  141.0330 O   0  0  0  0  0  0  0  0  0  0  0  0
  1 13  1  0  0  0  0
  1  4  2  0  0  0  0
  2  1  1  0  0  0  0
  3 13  1  0  0  0  0
  4  7  1  0  0  0  0
  6  3  2  0  0  0  0
  7  8  1  0  0  0  0
  8  5  2  0  0  0  0
  9 10  1  6  0  0  0
  9 18  1  0  0  0  0
 11  2  1  0  0  0  0
 12  5  1  0  0  0  0
 13 14  2  0  0  0  0
 14  7  1  0  0  0  0
 15  9  1  0  0  0  0
 15 17  2  0  0  0  0
 16  4  1  0  0  0  0
 16 12  2  0  0  0  0
 17 11  1  0  0  0  0
 18  6  1  0  0  0  0
 18  2  2  0  0  0  0
 19 17  1  0  0  0  0
 19 20  1  0  0  0  0
 21 22  1  6  0  0  0
 21 20  1  0  0  0  0
 21 23  1  0  0  0  0
 23 24  1  0  0  0  0
 25 23  2  0  0  0  0
M  END
>  <MODEL>
3

>  <REMARK>
 VINA RESULT:      -9.2      2.668      4.623
  Name = 
  4 active torsions:
  status: ('A' for Active; 'I' for Inactive)
    1  A    between atoms: C_2  and  C_21
    2  A    between atoms: O_6  and  N_15
    3  A    between atoms: O_6  and  C_23
    4  A    between atoms: N_15  and  C_21
                            x       y       z     vdW  Elec       q    Type
                         _______ _______ _______ _____ _____    ______ ____

>  <TORSDO>
F 4

$$$$
=
 OpenBabel10262419443D

 25 28  0  0  1  0  0  0  0  0999 V2000
  189.3820  177.4820  143.9820 C   0  0  0  0  0  0  0  0  0  0  0  0
  188.6590  177.6700  142.8030 C   0  0  0  0  0  0  0  0  0  0  0  0
  191.4560  177.1200  142.7890 C   0  0  0  0  0  3  0  0  0  0  0  0
  189.0450  177.4830  145.3160 C   0  0  0  0  0  0  0  0  0  0  0  0
  188.9670  177.3680  148.0680 C   0  0  0  0  0  3  0  0  0  0  0  0
  190.7540  177.3000  141.5830 C   0  0  0  0  0  3  0  0  0  0  0  0
  190.1620  177.2370  146.0290 N   0  0  0  0  0  0  0  0  0  0  0  0
  190.1750  177.1710  147.3840 C   0  0  0  0  0  3  0  0  0  0  0  0
  188.5890  177.7200  140.2910 C   0  0  2  0  0  3  0  0  0  0  0  0
  189.4290  178.2970  139.1620 C   0  0  0  0  0  1  0  0  0  0  0  0
  187.1710  177.8740  142.8060 C   0  0  0  0  0  2  0  0  0  0  0  0
  187.7890  177.6270  147.3400 C   0  0  0  0  0  3  0  0  0  0  0  0
  190.7370  177.2230  143.9750 C   0  0  0  0  0  0  0  0  0  0  0  0
  191.2100  177.0730  145.2310 N   0  0  0  0  0  0  0  0  0  0  0  0
  187.3950  178.5510  140.4700 N   0  0  0  0  0  0  0  0  0  0  0  0
  187.8150  177.6880  145.9390 C   0  0  0  0  0  3  0  0  0  0  0  0
  186.7270  178.6280  141.5860 C   0  0  0  0  0  0  0  0  0  0  0  0
  189.3660  177.5920  141.5800 C   0  0  0  0  0  0  0  0  0  0  0  0
  185.5790  179.4130  141.6660 O   0  0  0  0  0  0  0  0  0  0  0  0
  184.9420  179.6310  142.8730 N   0  0  0  0  0  2  0  0  0  0  0  0
  183.8790  178.6410  143.0280 C   0  0  2  0  0  3  0  0  0  0  0  0
  182.9940  178.6480  141.8720 N   0  0  0  0  0  1  0  0  0  0  0  0
  183.1110  178.8560  144.2940 C   0  0  0  0  0  0  0  0  0  0  0  0
  183.7640  179.3470  145.4160 O   0  0  0  0  0  1  0  0  0  0  0  0
  181.8730  178.6270  144.3420 O   0  0  0  0  0  0  0  0  0  0  0  0
  1  4  2  0  0  0  0
  2 11  1  0  0  0  0
  2  1  1  0  0  0  0
  3 13  1  0  0  0  0
  4 16  1  0  0  0  0
  4  7  1  0  0  0  0
  6  3  2  0  0  0  0
  7  8  1  0  0  0  0
  8  5  2  0  0  0  0
  9 10  1  6  0  0  0
  9 15  1  0  0  0  0
  9 18  1  0  0  0  0
 12  5  1  0  0  0  0
 13  1  1  0  0  0  0
 13 14  2  0  0  0  0
 14  7  1  0  0  0  0
 15 17  2  0  0  0  0
 16 12  2  0  0  0  0
 17 19  1  0  0  0  0
 17 11  1  0  0  0  0
 18  6  1  0  0  0  0
 18  2  2  0  0  0  0
 19 20  1  0  0  0  0
 20 21  1  0  0  0  0
 21 22  1  6  0  0  0
 21 23  1  0  0  0  0
 23 25  2  0  0  0  0
 23 24  1  0  0  0  0
M  END
>  <MODEL>
4

>  <REMARK>
 VINA RESULT:      -9.2      2.916      5.891
  Name = 
  4 active torsions:
  status: ('A' for Active; 'I' for Inactive)
    1  A    between atoms: C_2  and  C_21
    2  A    between atoms: O_6  and  N_15
    3  A    between atoms: O_6  and  C_23
    4  A    between atoms: N_15  and  C_21
                            x       y       z     vdW  Elec       q    Type
                         _______ _______ _______ _____ _____    ______ ____

>  <TORSDO>
F 4

$$$$
=
 OpenBabel10262419443D

 25 28  0  0  1  0  0  0  0  0999 V2000
  187.4760  178.0290  142.1830 C   0  0  0  0  0  0  0  0  0  0  0  0
  187.2080  177.8480  143.5410 C   0  0  0  0  0  0  0  0  0  0  0  0
  185.2700  178.9240  141.7490 C   0  0  0  0  0  3  0  0  0  0  0  0
  188.5690  177.7780  141.3870 C   0  0  0  0  0  0  0  0  0  0  0  0
  190.4030  177.5030  139.3480 C   0  0  0  0  0  3  0  0  0  0  0  0
  184.9680  178.7490  143.1110 C   0  0  0  0  0  3  0  0  0  0  0  0
  188.2630  178.1500  140.1280 N   0  0  0  0  0  0  0  0  0  0  0  0
  189.1310  178.0350  139.0910 C   0  0  0  0  0  3  0  0  0  0  0  0
  185.5970  177.9770  145.4660 C   0  0  2  0  0  3  0  0  0  0  0  0
  184.5880  178.9760  146.0130 C   0  0  0  0  0  1  0  0  0  0  0  0
  188.1970  177.2030  144.4680 C   0  0  0  0  0  2  0  0  0  0  0  0
  190.7410  177.1100  140.6570 C   0  0  0  0  0  3  0  0  0  0  0  0
  186.5400  178.5560  141.3170 C   0  0  0  0  0  0  0  0  0  0  0  0
  187.0270  178.6280  140.0590 N   0  0  0  0  0  0  0  0  0  0  0  0
  186.8000  178.0070  146.3020 N   0  0  0  0  0  0  0  0  0  0  0  0
  189.8170  177.2440  141.7040 C   0  0  0  0  0  3  0  0  0  0  0  0
  187.9810  177.6500  145.8850 C   0  0  0  0  0  0  0  0  0  0  0  0
  185.9310  178.2320  144.0150 C   0  0  0  0  0  0  0  0  0  0  0  0
  189.0700  177.6720  146.7530 O   0  0  0  0  0  0  0  0  0  0  0  0
  189.8940  176.5720  146.8980 N   0  0  0  0  0  2  0  0  0  0  0  0
  191.2840  177.0140  146.8180 C   0  0  2  0  0  3  0  0  0  0  0  0
  191.5980  177.4960  145.4820 N   0  0  0  0  0  1  0  0  0  0  0  0
  192.2280  175.9290  147.2340 C   0  0  0  0  0  0  0  0  0  0  0  0
  192.8570  176.0050  148.4680 O   0  0  0  0  0  1  0  0  0  0  0  0
  192.4310  174.9330  146.4900 O   0  0  0  0  0  0  0  0  0  0  0  0
  1  2  1  0  0  0  0
  2 18  2  0  0  0  0
  2 11  1  0  0  0  0
  3  6  2  0  0  0  0
  4 16  1  0  0  0  0
  4  1  2  0  0  0  0
  5 12  1  0  0  0  0
  6 18  1  0  0  0  0
  7  4  1  0  0  0  0
  8  5  2  0  0  0  0
  8  7  1  0  0  0  0
  9 10  1  1  0  0  0
  9 15  1  0  0  0  0
 11 17  1  0  0  0  0
 12 16  2  0  0  0  0
 13  3  1  0  0  0  0
 13  1  1  0  0  0  0
 14  7  1  0  0  0  0
 14 13  2  0  0  0  0
 17 15  2  0  0  0  0
 17 19  1  0  0  0  0
 18  9  1  0  0  0  0
 19 20  1  0  0  0  0
 21 22  1  6  0  0  0
 21 20  1  0  0  0  0
 21 23  1  0  0  0  0
 23 24  1  0  0  0  0
 25 23  2  0  0  0  0
M  END
>  <MODEL>
5

>  <REMARK>
 VINA RESULT:      -9.1      3.131      6.570
  Name = 
  4 active torsions:
  status: ('A' for Active; 'I' for Inactive)
    1  A    between atoms: C_2  and  C_21
    2  A    between atoms: O_6  and  N_15
    3  A    between atoms: O_6  and  C_23
    4  A    between atoms: N_15  and  C_21
                            x       y       z     vdW  Elec       q    Type
                         _______ _______ _______ _____ _____    ______ ____

>  <TORSDO>
F 4

$$$$
=
 OpenBabel10262419443D

 25 28  0  0  1  0  0  0  0  0999 V2000
  188.0750  177.6780  145.0540 C   0  0  0  0  0  0  0  0  0  0  0  0
  187.4870  178.1220  143.8680 C   0  0  0  0  0  0  0  0  0  0  0  0
  186.0030  177.8720  146.2890 C   0  0  0  0  0  3  0  0  0  0  0  0
  189.3500  177.2930  145.3990 C   0  0  0  0  0  0  0  0  0  0  0  0
  191.6550  176.4380  146.6430 C   0  0  0  0  0  3  0  0  0  0  0  0
  185.3830  178.3270  145.1120 C   0  0  0  0  0  3  0  0  0  0  0  0
  189.3470  176.9610  146.7050 N   0  0  0  0  0  0  0  0  0  0  0  0
  190.4550  176.5350  147.3620 C   0  0  0  0  0  3  0  0  0  0  0  0
  185.4700  178.9890  142.6440 C   0  0  2  0  0  3  0  0  0  0  0  0
  183.9910  178.6500  142.5480 C   0  0  0  0  0  1  0  0  0  0  0  0
  188.2860  178.3360  142.6160 C   0  0  0  0  0  2  0  0  0  0  0  0
  191.6770  176.7790  145.2770 C   0  0  0  0  0  3  0  0  0  0  0  0
  187.3550  177.5500  146.2240 C   0  0  0  0  0  0  0  0  0  0  0  0
  188.1380  177.1120  147.2330 N   0  0  0  0  0  0  0  0  0  0  0  0
  186.1510  178.5000  141.4420 N   0  0  0  0  0  0  0  0  0  0  0  0
  190.5110  177.2170  144.6320 C   0  0  0  0  0  3  0  0  0  0  0  0
  187.4210  178.2130  141.3950 C   0  0  0  0  0  0  0  0  0  0  0  0
  186.1080  178.4380  143.8980 C   0  0  0  0  0  0  0  0  0  0  0  0
  188.0030  177.7880  140.2030 O   0  0  0  0  0  0  0  0  0  0  0  0
  188.7310  178.6550  139.4110 N   0  0  0  0  0  2  0  0  0  0  0  0
  189.6260  177.8750  138.5610 C   0  0  2  0  0  3  0  0  0  0  0  0
  188.8700  177.0890  137.5970 N   0  0  0  0  0  1  0  0  0  0  0  0
  190.5310  177.0030  139.3740 C   0  0  0  0  0  0  0  0  0  0  0  0
  191.2060  177.5410  140.4610 O   0  0  0  0  0  1  0  0  0  0  0  0
  190.6610  175.7800  139.1010 O   0  0  0  0  0  0  0  0  0  0  0  0
  1  4  2  0  0  0  0
  1 13  1  0  0  0  0
  2 18  2  0  0  0  0
  2  1  1  0  0  0  0
  4  7  1  0  0  0  0
  5  8  2  0  0  0  0
  6  3  2  0  0  0  0
  7 14  1  0  0  0  0
  7  8  1  0  0  0  0
  9 10  1  6  0  0  0
  9 18  1  0  0  0  0
 11  2  1  0  0  0  0
 12  5  1  0  0  0  0
 13  3  1  0  0  0  0
 13 14  2  0  0  0  0
 15  9  1  0  0  0  0
 16 12  2  0  0  0  0
 16  4  1  0  0  0  0
 17 15  2  0  0  0  0
 17 11  1  0  0  0  0
 18  6  1  0  0  0  0
 19 17  1  0  0  0  0
 20 19  1  0  0  0  0
 21 22  1  6  0  0  0
 21 23  1  0  0  0  0
 21 20  1  0  0  0  0
 23 24  1  0  0  0  0
 25 23  2  0  0  0  0
M  END
>  <MODEL>
6

>  <REMARK>
 VINA RESULT:      -8.9      1.877      4.613
  Name = 
  4 active torsions:
  status: ('A' for Active; 'I' for Inactive)
    1  A    between atoms: C_2  and  C_21
    2  A    between atoms: O_6  and  N_15
    3  A    between atoms: O_6  and  C_23
    4  A    between atoms: N_15  and  C_21
                            x       y       z     vdW  Elec       q    Type
                         _______ _______ _______ _____ _____    ______ ____

>  <TORSDO>
F 4

$$$$
=
 OpenBabel10262419443D

 25 28  0  0  1  0  0  0  0  0999 V2000
  188.0100  177.7190  145.1390 C   0  0  0  0  0  0  0  0  0  0  0  0
  187.4120  178.1620  143.9580 C   0  0  0  0  0  0  0  0  0  0  0  0
  185.9480  177.9090  146.3910 C   0  0  0  0  0  3  0  0  0  0  0  0
  189.2890  177.3370  145.4740 C   0  0  0  0  0  0  0  0  0  0  0  0
  191.6060  176.4870  146.7000 C   0  0  0  0  0  3  0  0  0  0  0  0
  185.3180  178.3630  145.2180 C   0  0  0  0  0  3  0  0  0  0  0  0
  189.2970  177.0060  146.7800 N   0  0  0  0  0  0  0  0  0  0  0  0
  190.4110  176.5820  147.4290 C   0  0  0  0  0  3  0  0  0  0  0  0
  185.3840  179.0240  142.7500 C   0  0  2  0  0  3  0  0  0  0  0  0
  183.9040  178.6810  142.6660 C   0  0  0  0  0  1  0  0  0  0  0  0
  188.2010  178.3770  142.6990 C   0  0  0  0  0  2  0  0  0  0  0  0
  191.6170  176.8290  145.3340 C   0  0  0  0  0  3  0  0  0  0  0  0
  187.3000  177.5900  146.3150 C   0  0  0  0  0  0  0  0  0  0  0  0
  188.0930  177.1540  147.3180 N   0  0  0  0  0  0  0  0  0  0  0  0
  186.0560  178.5360  141.5420 N   0  0  0  0  0  0  0  0  0  0  0  0
  190.4440  177.2630  144.6970 C   0  0  0  0  0  3  0  0  0  0  0  0
  187.3260  178.2520  141.4850 C   0  0  0  0  0  0  0  0  0  0  0  0
  186.0330  178.4740  143.9980 C   0  0  0  0  0  0  0  0  0  0  0  0
  187.8990  177.8280  140.2890 O   0  0  0  0  0  0  0  0  0  0  0  0
  188.6930  178.6710  139.5350 N   0  0  0  0  0  2  0  0  0  0  0  0
  188.5070  178.3510  138.1220 C   0  0  2  0  0  3  0  0  0  0  0  0
  188.9520  179.4510  137.2800 N   0  0  0  0  0  1  0  0  0  0  0  0
  187.0850  177.9880  137.8250 C   0  0  0  0  0  0  0  0  0  0  0  0
  186.7730  176.6850  137.4640 O   0  0  0  0  0  0  0  0  0  0  0  0
  186.1680  178.8440  137.9320 O   0  0  0  0  0  1  0  0  0  0  0  0
  1  4  2  0  0  0  0
  1 13  1  0  0  0  0
  2 18  2  0  0  0  0
  2  1  1  0  0  0  0
  4  7  1  0  0  0  0
  5  8  2  0  0  0  0
  6  3  2  0  0  0  0
  7 14  1  0  0  0  0
  7  8  1  0  0  0  0
  9 10  1  6  0  0  0
  9 18  1  0  0  0  0
 11  2  1  0  0  0  0
 12  5  1  0  0  0  0
 13  3  1  0  0  0  0
 13 14  2  0  0  0  0
 15  9  1  0  0  0  0
 16 12  2  0  0  0  0
 16  4  1  0  0  0  0
 17 15  2  0  0  0  0
 17 11  1  0  0  0  0
 18  6  1  0  0  0  0
 19 17  1  0  0  0  0
 20 19  1  0  0  0  0
 21 22  1  6  0  0  0
 21 20  1  0  0  0  0
 23 25  1  0  0  0  0
 23 21  1  0  0  0  0
 24 23  2  0  0  0  0
M  END
>  <MODEL>
7

>  <REMARK>
 VINA RESULT:      -8.9      1.900      4.626
  Name = 
  4 active torsions:
  status: ('A' for Active; 'I' for Inactive)
    1  A    between atoms: C_2  and  C_21
    2  A    between atoms: O_6  and  N_15
    3  A    between atoms: O_6  and  C_23
    4  A    between atoms: N_15  and  C_21
                            x       y       z     vdW  Elec       q    Type
                         _______ _______ _______ _____ _____    ______ ____

>  <TORSDO>
F 4

$$$$
=
 OpenBabel10262419443D

 25 28  0  0  1  0  0  0  0  0999 V2000
  187.7060  177.7760  144.4640 C   0  0  0  0  0  0  0  0  0  0  0  0
  188.3940  177.5880  143.2640 C   0  0  0  0  0  0  0  0  0  0  0  0
  189.6500  177.2300  145.7980 C   0  0  0  0  0  3  0  0  0  0  0  0
  186.4110  178.1220  144.7750 C   0  0  0  0  0  0  0  0  0  0  0  0
  184.0150  178.7620  145.9760 C   0  0  0  0  0  3  0  0  0  0  0  0
  190.3690  177.0280  144.6060 C   0  0  0  0  0  3  0  0  0  0  0  0
  186.2980  178.1500  146.1180 N   0  0  0  0  0  0  0  0  0  0  0  0
  185.1420  178.4600  146.7560 C   0  0  0  0  0  3  0  0  0  0  0  0
  190.5010  176.9420  142.0550 C   0  0  2  0  0  3  0  0  0  0  0  0
  191.9890  177.2380  142.1680 C   0  0  0  0  0  1  0  0  0  0  0  0
  187.7120  177.6930  141.9310 C   0  0  0  0  0  2  0  0  0  0  0  0
  184.1150  178.7380  144.5720 C   0  0  0  0  0  3  0  0  0  0  0  0
  188.3160  177.6090  145.6900 C   0  0  0  0  0  0  0  0  0  0  0  0
  187.4490  177.8390  146.7000 N   0  0  0  0  0  0  0  0  0  0  0  0
  189.9440  177.7150  140.9410 N   0  0  0  0  0  0  0  0  0  0  0  0
  185.3290  178.4130  143.9470 C   0  0  0  0  0  3  0  0  0  0  0  0
  188.6890  178.0540  140.8500 C   0  0  0  0  0  0  0  0  0  0  0  0
  189.7590  177.2220  143.3400 C   0  0  0  0  0  0  0  0  0  0  0  0
  188.2290  178.7590  139.7400 O   0  0  0  0  0  0  0  0  0  0  0  0
  187.0930  178.3630  139.0600 N   0  0  0  0  0  2  0  0  0  0  0  0
  187.4690  177.9830  137.7010 C   0  0  2  0  0  3  0  0  0  0  0  0
  187.5820  179.1570  136.8480 N   0  0  0  0  0  1  0  0  0  0  0  0
  186.5100  176.9890  137.1250 C   0  0  0  0  0  0  0  0  0  0  0  0
  186.8140  175.6370  137.1720 O   0  0  0  0  0  1  0  0  0  0  0  0
  185.4160  177.3670  136.6270 O   0  0  0  0  0  0  0  0  0  0  0  0
  1  4  2  0  0  0  0
  1 13  1  0  0  0  0
  2 18  2  0  0  0  0
  2  1  1  0  0  0  0
  4  7  1  0  0  0  0
  5  8  2  0  0  0  0
  6  3  2  0  0  0  0
  7 14  1  0  0  0  0
  7  8  1  0  0  0  0
  9 10  1  1  0  0  0
  9 18  1  0  0  0  0
 11  2  1  0  0  0  0
 12  5  1  0  0  0  0
 13  3  1  0  0  0  0
 13 14  2  0  0  0  0
 15  9  1  0  0  0  0
 16 12  2  0  0  0  0
 16  4  1  0  0  0  0
 17 15  2  0  0  0  0
 17 11  1  0  0  0  0
 18  6  1  0  0  0  0
 19 17  1  0  0  0  0
 20 19  1  0  0  0  0
 21 22  1  6  0  0  0
 21 20  1  0  0  0  0
 23 24  1  0  0  0  0
 23 21  1  0  0  0  0
 25 23  2  0  0  0  0
M  END
>  <MODEL>
8

>  <REMARK>
 VINA RESULT:      -8.7      1.871      2.623
  Name = 
  4 active torsions:
  status: ('A' for Active; 'I' for Inactive)
    1  A    between atoms: C_2  and  C_21
    2  A    between atoms: O_6  and  N_15
    3  A    between atoms: O_6  and  C_23
    4  A    between atoms: N_15  and  C_21
                            x       y       z     vdW  Elec       q    Type
                         _______ _______ _______ _____ _____    ______ ____

>  <TORSDO>
F 4

$$$$
=
 OpenBabel10262419443D

 25 28  0  0  1  0  0  0  0  0999 V2000
  186.5820  178.0950  144.6510 C   0  0  0  0  0  0  0  0  0  0  0  0
  185.5550  178.5100  143.8020 C   0  0  0  0  0  0  0  0  0  0  0  0
  185.1560  178.1730  146.6050 C   0  0  0  0  0  3  0  0  0  0  0  0
  187.9070  177.7780  144.4580 C   0  0  0  0  0  0  0  0  0  0  0  0
  190.5540  177.0430  144.6770 C   0  0  0  0  0  3  0  0  0  0  0  0
  184.1020  178.5990  145.7760 C   0  0  0  0  0  3  0  0  0  0  0  0
  188.4340  177.4420  145.6530 N   0  0  0  0  0  0  0  0  0  0  0  0
  189.7300  177.0740  145.8120 C   0  0  0  0  0  3  0  0  0  0  0  0
  183.1800  179.2720  143.4890 C   0  0  2  0  0  3  0  0  0  0  0  0
  181.8000  178.8530  143.9740 C   0  0  0  0  0  1  0  0  0  0  0  0
  185.7860  178.7700  142.3420 C   0  0  0  0  0  2  0  0  0  0  0  0
  190.0210  177.3900  143.4200 C   0  0  0  0  0  3  0  0  0  0  0  0
  186.3870  177.9250  146.0060 C   0  0  0  0  0  0  0  0  0  0  0  0
  187.5250  177.5260  146.6160 N   0  0  0  0  0  0  0  0  0  0  0  0
  183.3550  178.8240  142.1050 N   0  0  0  0  0  0  0  0  0  0  0  0
  188.6750  177.7660  143.2950 C   0  0  0  0  0  3  0  0  0  0  0  0
  184.5170  178.6050  141.5560 C   0  0  0  0  0  0  0  0  0  0  0  0
  184.2850  178.7510  144.3780 C   0  0  0  0  0  0  0  0  0  0  0  0
  184.6030  178.2150  140.2220 O   0  0  0  0  0  0  0  0  0  0  0  0
  185.0830  179.0760  139.2530 N   0  0  0  0  0  2  0  0  0  0  0  0
  185.5450  178.2880  138.1130 C   0  0  2  0  0  3  0  0  0  0  0  0
  184.6990  177.1210  137.9140 N   0  0  0  0  0  1  0  0  0  0  0  0
  186.9800  177.8920  138.2670 C   0  0  0  0  0  0  0  0  0  0  0  0
  187.7670  178.5260  139.2180 O   0  0  0  0  0  1  0  0  0  0  0  0
  187.4700  176.9680  137.5660 O   0  0  0  0  0  0  0  0  0  0  0  0
  1 13  1  0  0  0  0
  2 18  2  0  0  0  0
  2  1  1  0  0  0  0
  4  1  2  0  0  0  0
  4  7  1  0  0  0  0
  5  8  2  0  0  0  0
  6  3  2  0  0  0  0
  7  8  1  0  0  0  0
  7 14  1  0  0  0  0
  9 10  1  1  0  0  0
  9 18  1  0  0  0  0
 11  2  1  0  0  0  0
 12  5  1  0  0  0  0
 13  3  1  0  0  0  0
 13 14  2  0  0  0  0
 15  9  1  0  0  0  0
 16 12  2  0  0  0  0
 16  4  1  0  0  0  0
 17 15  2  0  0  0  0
 17 11  1  0  0  0  0
 18  6  1  0  0  0  0
 19 17  1  0  0  0  0
 20 19  1  0  0  0  0
 21 22  1  1  0  0  0
 21 23  1  0  0  0  0
 21 20  1  0  0  0  0
 23 24  1  0  0  0  0
 25 23  2  0  0  0  0
M  END
>  <MODEL>
9

>  <REMARK>
 VINA RESULT:      -8.7      2.131      4.885
  Name = 
  4 active torsions:
  status: ('A' for Active; 'I' for Inactive)
    1  A    between atoms: C_2  and  C_21
    2  A    between atoms: O_6  and  N_15
    3  A    between atoms: O_6  and  C_23
    4  A    between atoms: N_15  and  C_21
                            x       y       z     vdW  Elec       q    Type
                         _______ _______ _______ _____ _____    ______ ____

>  <TORSDO>
F 4

$$$$
