=
 OpenBabel10262420133D

 27 31  0  0  0  0  0  0  0  0999 V2000
  190.4230  177.9800  141.6770 C   0  0  0  0  0  2  0  0  0  0  0  0
  188.0170  178.0910  141.1410 C   0  0  0  0  0  0  0  0  0  0  0  0
  187.8700  176.8710  143.2580 C   0  0  0  0  0  2  0  0  0  0  0  0
  187.2220  178.9460  140.2160 C   0  0  0  0  0  3  0  0  0  0  0  0
  190.6410  176.7530  147.3440 C   0  0  0  0  0  1  0  0  0  0  0  0
  190.5470  177.0340  145.8880 C   0  0  0  0  0  0  0  0  0  0  0  0
  189.3020  177.5330  140.8570 N   0  0  0  0  0  0  0  0  0  0  0  0
  186.1300  178.5340  142.2930 N   0  0  0  0  0  0  0  0  0  0  0  0
  190.3760  177.5510  143.1250 C   0  0  0  0  0  0  0  0  0  0  0  0
  187.4020  177.8960  142.2780 C   0  0  0  0  0  0  0  0  0  0  0  0
  189.3260  176.9000  145.2280 C   0  0  0  0  0  3  0  0  0  0  0  0
  185.9440  179.2220  141.0190 C   0  0  0  0  0  3  0  0  0  0  0  0
  191.6810  177.4230  145.1780 C   0  0  0  0  0  3  0  0  0  0  0  0
  191.5900  177.6830  143.8110 C   0  0  0  0  0  3  0  0  0  0  0  0
  189.2140  177.1670  143.8580 C   0  0  0  0  0  0  0  0  0  0  0  0
  183.8060  178.6270  143.1010 C   0  0  0  0  0  3  0  0  0  0  0  0
  183.3090  178.6760  145.4690 C   0  0  0  0  0  3  0  0  0  0  0  0
  184.6750  178.6270  145.7550 C   0  0  0  0  0  3  0  0  0  0  0  0
  185.6060  178.5780  144.7130 C   0  0  0  0  0  3  0  0  0  0  0  0
  185.1820  178.5730  143.3750 C   0  0  0  0  0  0  0  0  0  0  0  0
  182.8740  178.6770  144.1420 C   0  0  0  0  0  3  0  0  0  0  0  0
  190.0190  175.2880  137.3850 C   0  0  0  0  0  3  0  0  0  0  0  0
  189.5460  176.7520  139.6750 C   0  0  0  0  0  0  0  0  0  0  0  0
  190.7760  176.1070  139.4730 C   0  0  0  0  0  3  0  0  0  0  0  0
  190.9820  175.3900  138.3370 N   0  0  0  0  0  0  0  0  0  0  0  0
  188.7970  175.9310  137.5740 C   0  0  0  0  0  3  0  0  0  0  0  0
  188.5890  176.6490  138.7100 N   0  0  0  0  0  0  0  0  0  0  0  0
  1  9  1  0  0  0  0
  2 10  2  0  0  0  0
  3 15  1  0  0  0  0
  4 12  2  0  0  0  0
  4  2  1  0  0  0  0
  6  5  1  0  0  0  0
  7  2  1  0  0  0  0
  7  1  1  0  0  0  0
  8 20  1  0  0  0  0
  9 14  2  0  0  0  0
  9 15  1  0  0  0  0
 10  8  1  0  0  0  0
 10  3  1  0  0  0  0
 11  6  1  0  0  0  0
 12  8  1  0  0  0  0
 13  6  2  0  0  0  0
 14 13  1  0  0  0  0
 15 11  2  0  0  0  0
 16 20  2  0  0  0  0
 16 21  1  0  0  0  0
 17 18  1  0  0  0  0
 19 18  2  0  0  0  0
 20 19  1  0  0  0  0
 21 17  2  0  0  0  0
 22 26  2  0  0  0  0
 22 25  1  0  0  0  0
 23  7  1  0  0  0  0
 24 23  1  0  0  0  0
 25 24  2  0  0  0  0
 26 27  1  0  0  0  0
 27 23  2  0  0  0  0
M  END
>  <MODEL>
1

>  <REMARK>
 VINA RESULT:      -8.9      0.000      0.000
  Name = 
  2 active torsions:
  status: ('A' for Active; 'I' for Inactive)
    1  A    between atoms: C_9  and  N_15
    2  A    between atoms: C_14  and  N_17
                            x       y       z     vdW  Elec       q    Type
                         _______ _______ _______ _____ _____    ______ ____

>  <TORSDO>
F 2

$$$$
=
 OpenBabel10262420133D

 27 31  0  0  0  0  0  0  0  0999 V2000
  185.8340  179.1390  140.8980 C   0  0  0  0  0  2  0  0  0  0  0  0
  185.1530  178.7880  143.2440 C   0  0  0  0  0  0  0  0  0  0  0  0
  186.9500  177.1300  143.1280 C   0  0  0  0  0  2  0  0  0  0  0  0
  184.3710  179.6120  144.2080 C   0  0  0  0  0  3  0  0  0  0  0  0
  191.1160  176.7710  140.5020 C   0  0  0  0  0  1  0  0  0  0  0  0
  189.7490  177.3380  140.6320 C   0  0  0  0  0  0  0  0  0  0  0  0
  184.8560  178.6300  141.8550 N   0  0  0  0  0  0  0  0  0  0  0  0
  186.2270  178.5010  145.2060 N   0  0  0  0  0  0  0  0  0  0  0  0
  187.1520  178.4000  140.8680 C   0  0  0  0  0  0  0  0  0  0  0  0
  186.1750  178.2040  143.8160 C   0  0  0  0  0  0  0  0  0  0  0  0
  188.9860  177.0670  141.7670 C   0  0  0  0  0  3  0  0  0  0  0  0
  185.1160  179.3910  145.5310 C   0  0  0  0  0  3  0  0  0  0  0  0
  189.2240  178.1340  139.6160 C   0  0  0  0  0  3  0  0  0  0  0  0
  187.9390  178.6620  139.7400 C   0  0  0  0  0  3  0  0  0  0  0  0
  187.6980  177.5960  141.9130 C   0  0  0  0  0  0  0  0  0  0  0  0
  186.9890  178.2330  147.5320 C   0  0  0  0  0  3  0  0  0  0  0  0
  189.1480  177.2650  148.0340 C   0  0  0  0  0  3  0  0  0  0  0  0
  189.3920  177.1030  146.6690 C   0  0  0  0  0  3  0  0  0  0  0  0
  188.4320  177.5060  145.7350 C   0  0  0  0  0  3  0  0  0  0  0  0
  187.2190  178.0710  146.1570 C   0  0  0  0  0  0  0  0  0  0  0  0
  187.9480  177.8310  148.4670 C   0  0  0  0  0  3  0  0  0  0  0  0
  181.0630  177.4480  140.5060 C   0  0  0  0  0  3  0  0  0  0  0  0
  183.5580  178.2130  141.3990 C   0  0  0  0  0  0  0  0  0  0  0  0
  183.4200  177.3080  140.3350 C   0  0  0  0  0  3  0  0  0  0  0  0
  182.1780  176.9470  139.9170 N   0  0  0  0  0  0  0  0  0  0  0  0
  181.1910  178.3530  141.5590 C   0  0  0  0  0  3  0  0  0  0  0  0
  182.4320  178.7160  141.9790 N   0  0  0  0  0  0  0  0  0  0  0  0
  1  7  1  0  0  0  0
  2 10  2  0  0  0  0
  2  4  1  0  0  0  0
  3 10  1  0  0  0  0
  4 12  2  0  0  0  0
  5  6  1  0  0  0  0
  6 11  1  0  0  0  0
  7  2  1  0  0  0  0
  8 12  1  0  0  0  0
  8 20  1  0  0  0  0
  9  1  1  0  0  0  0
  9 15  1  0  0  0  0
 10  8  1  0  0  0  0
 11 15  2  0  0  0  0
 13 14  1  0  0  0  0
 13  6  2  0  0  0  0
 14  9  2  0  0  0  0
 15  3  1  0  0  0  0
 16 21  1  0  0  0  0
 17 21  2  0  0  0  0
 18 17  1  0  0  0  0
 19 20  1  0  0  0  0
 19 18  2  0  0  0  0
 20 16  2  0  0  0  0
 22 26  1  0  0  0  0
 23  7  1  0  0  0  0
 23 27  1  0  0  0  0
 24 23  2  0  0  0  0
 25 24  1  0  0  0  0
 25 22  2  0  0  0  0
 26 27  2  0  0  0  0
M  END
>  <MODEL>
2

>  <REMARK>
 VINA RESULT:      -8.7      2.621      5.669
  Name = 
  2 active torsions:
  status: ('A' for Active; 'I' for Inactive)
    1  A    between atoms: C_9  and  N_15
    2  A    between atoms: C_14  and  N_17
                            x       y       z     vdW  Elec       q    Type
                         _______ _______ _______ _____ _____    ______ ____

>  <TORSDO>
F 2

$$$$
=
 OpenBabel10262420133D

 27 31  0  0  0  0  0  0  0  0999 V2000
  191.7340  177.7970  140.9300 C   0  0  0  0  0  2  0  0  0  0  0  0
  189.8130  177.7830  139.3810 C   0  0  0  0  0  0  0  0  0  0  0  0
  188.7120  176.8260  141.3460 C   0  0  0  0  0  2  0  0  0  0  0  0
  189.5330  178.5000  138.1050 C   0  0  0  0  0  3  0  0  0  0  0  0
  189.3990  177.2710  146.2150 C   0  0  0  0  0  1  0  0  0  0  0  0
  189.9640  177.3720  144.8450 C   0  0  0  0  0  0  0  0  0  0  0  0
  191.0740  177.2270  139.7600 N   0  0  0  0  0  0  0  0  0  0  0  0
  187.6270  178.3160  139.5220 N   0  0  0  0  0  0  0  0  0  0  0  0
  191.0410  177.5450  142.2490 C   0  0  0  0  0  0  0  0  0  0  0  0
  188.7550  177.7120  140.1450 C   0  0  0  0  0  0  0  0  0  0  0  0
  189.1530  177.1290  143.7360 C   0  0  0  0  0  3  0  0  0  0  0  0
  188.0420  178.8410  138.2240 C   0  0  0  0  0  3  0  0  0  0  0  0
  191.3060  177.7000  144.6650 C   0  0  0  0  0  3  0  0  0  0  0  0
  191.8330  177.7890  143.3780 C   0  0  0  0  0  3  0  0  0  0  0  0
  189.6630  177.2250  142.4360 C   0  0  0  0  0  0  0  0  0  0  0  0
  185.1830  178.3520  139.2210 C   0  0  0  0  0  3  0  0  0  0  0  0
  183.7020  178.7700  141.0880 C   0  0  0  0  0  3  0  0  0  0  0  0
  184.8060  178.8870  141.9360 C   0  0  0  0  0  3  0  0  0  0  0  0
  186.0980  178.7360  141.4250 C   0  0  0  0  0  3  0  0  0  0  0  0
  186.3010  178.4630  140.0630 C   0  0  0  0  0  0  0  0  0  0  0  0
  183.8900  178.5040  139.7300 C   0  0  0  0  0  3  0  0  0  0  0  0
  193.1400  174.5800  137.2430 C   0  0  0  0  0  3  0  0  0  0  0  0
  191.7880  176.3140  138.9080 C   0  0  0  0  0  0  0  0  0  0  0  0
  193.1470  176.5100  138.6150 C   0  0  0  0  0  3  0  0  0  0  0  0
  193.7890  175.6390  137.7930 N   0  0  0  0  0  0  0  0  0  0  0  0
  191.7890  174.3830  137.5240 C   0  0  0  0  0  3  0  0  0  0  0  0
  191.1440  175.2530  138.3460 N   0  0  0  0  0  0  0  0  0  0  0  0
  1  9  1  0  0  0  0
  2  7  1  0  0  0  0
  2 10  2  0  0  0  0
  3 15  1  0  0  0  0
  4 12  2  0  0  0  0
  4  2  1  0  0  0  0
  6  5  1  0  0  0  0
  7  1  1  0  0  0  0
  8 20  1  0  0  0  0
  8 10  1  0  0  0  0
  9 15  2  0  0  0  0
  9 14  1  0  0  0  0
 10  3  1  0  0  0  0
 11  6  2  0  0  0  0
 12  8  1  0  0  0  0
 13  6  1  0  0  0  0
 14 13  2  0  0  0  0
 15 11  1  0  0  0  0
 16 21  2  0  0  0  0
 16 20  1  0  0  0  0
 17 18  2  0  0  0  0
 19 18  1  0  0  0  0
 20 19  2  0  0  0  0
 21 17  1  0  0  0  0
 22 26  2  0  0  0  0
 22 25  1  0  0  0  0
 23  7  1  0  0  0  0
 24 23  1  0  0  0  0
 25 24  2  0  0  0  0
 26 27  1  0  0  0  0
 27 23  2  0  0  0  0
M  END
>  <MODEL>
3

>  <REMARK>
 VINA RESULT:      -8.2      1.929      2.809
  Name = 
  2 active torsions:
  status: ('A' for Active; 'I' for Inactive)
    1  A    between atoms: C_9  and  N_15
    2  A    between atoms: C_14  and  N_17
                            x       y       z     vdW  Elec       q    Type
                         _______ _______ _______ _____ _____    ______ ____

>  <TORSDO>
F 2

$$$$
=
 OpenBabel10262420133D

 27 31  0  0  0  0  0  0  0  0999 V2000
  189.8730  178.3280  142.2140 C   0  0  0  0  0  2  0  0  0  0  0  0
  187.6280  178.3350  141.1890 C   0  0  0  0  0  0  0  0  0  0  0  0
  187.0960  177.1080  143.2380 C   0  0  0  0  0  2  0  0  0  0  0  0
  187.0070  179.1570  140.1120 C   0  0  0  0  0  3  0  0  0  0  0  0
  188.9600  177.1030  147.8110 C   0  0  0  0  0  1  0  0  0  0  0  0
  189.1590  177.3830  146.3650 C   0  0  0  0  0  0  0  0  0  0  0  0
  188.9660  177.8340  141.1820 N   0  0  0  0  0  0  0  0  0  0  0  0
  185.5260  178.6950  141.9200 N   0  0  0  0  0  0  0  0  0  0  0  0
  189.5440  177.8950  143.6230 C   0  0  0  0  0  0  0  0  0  0  0  0
  186.7990  178.1130  142.1750 C   0  0  0  0  0  0  0  0  0  0  0  0
  188.1090  177.1970  145.4670 C   0  0  0  0  0  3  0  0  0  0  0  0
  185.5790  179.3770  140.6300 C   0  0  0  0  0  3  0  0  0  0  0  0
  190.3980  177.8210  145.9030 C   0  0  0  0  0  3  0  0  0  0  0  0
  190.5820  178.0790  144.5450 C   0  0  0  0  0  3  0  0  0  0  0  0
  188.2720  177.4600  144.1020 C   0  0  0  0  0  0  0  0  0  0  0  0
  184.5370  178.7250  144.1750 C   0  0  0  0  0  3  0  0  0  0  0  0
  182.1380  178.6590  144.4870 C   0  0  0  0  0  3  0  0  0  0  0  0
  181.9610  178.6200  143.1020 C   0  0  0  0  0  3  0  0  0  0  0  0
  183.0730  178.6340  142.2540 C   0  0  0  0  0  3  0  0  0  0  0  0
  184.3720  178.6910  142.7810 C   0  0  0  0  0  0  0  0  0  0  0  0
  183.4260  178.7110  145.0240 C   0  0  0  0  0  3  0  0  0  0  0  0
  190.4780  175.6270  137.9490 C   0  0  0  0  0  3  0  0  0  0  0  0
  189.4840  177.0660  140.0820 C   0  0  0  0  0  0  0  0  0  0  0  0
  190.8240  176.6510  140.0550 C   0  0  0  0  0  3  0  0  0  0  0  0
  191.2870  175.9410  138.9930 N   0  0  0  0  0  0  0  0  0  0  0  0
  189.1470  176.0410  137.9650 C   0  0  0  0  0  3  0  0  0  0  0  0
  188.6810  176.7520  139.0270 N   0  0  0  0  0  0  0  0  0  0  0  0
  1  9  1  0  0  0  0
  2 10  2  0  0  0  0
  3 15  1  0  0  0  0
  4 12  2  0  0  0  0
  4  2  1  0  0  0  0
  6  5  1  0  0  0  0
  7  2  1  0  0  0  0
  7  1  1  0  0  0  0
  8 10  1  0  0  0  0
  8 20  1  0  0  0  0
  9 15  2  0  0  0  0
  9 14  1  0  0  0  0
 10  3  1  0  0  0  0
 11  6  2  0  0  0  0
 12  8  1  0  0  0  0
 13  6  1  0  0  0  0
 14 13  2  0  0  0  0
 15 11  1  0  0  0  0
 16 21  1  0  0  0  0
 17 21  2  0  0  0  0
 18 17  1  0  0  0  0
 19 20  1  0  0  0  0
 19 18  2  0  0  0  0
 20 16  2  0  0  0  0
 22 26  2  0  0  0  0
 22 25  1  0  0  0  0
 23  7  1  0  0  0  0
 24 23  1  0  0  0  0
 25 24  2  0  0  0  0
 26 27  1  0  0  0  0
 27 23  2  0  0  0  0
M  END
>  <MODEL>
4

>  <REMARK>
 VINA RESULT:      -8.0      0.918      1.391
  Name = 
  2 active torsions:
  status: ('A' for Active; 'I' for Inactive)
    1  A    between atoms: C_9  and  N_15
    2  A    between atoms: C_14  and  N_17
                            x       y       z     vdW  Elec       q    Type
                         _______ _______ _______ _____ _____    ______ ____

>  <TORSDO>
F 2

$$$$
=
 OpenBabel10262420133D

 27 31  0  0  0  0  0  0  0  0999 V2000
  189.1190  178.4910  145.5140 C   0  0  0  0  0  2  0  0  0  0  0  0
  190.4010  177.6240  143.5910 C   0  0  0  0  0  0  0  0  0  0  0  0
  188.1940  176.7530  142.9890 C   0  0  0  0  0  2  0  0  0  0  0  0
  191.7250  177.9830  143.0100 C   0  0  0  0  0  3  0  0  0  0  0  0
  183.5680  178.2530  143.8440 C   0  0  0  0  0  1  0  0  0  0  0  0
  184.9970  178.2690  144.2490 C   0  0  0  0  0  0  0  0  0  0  0  0
  190.1000  177.5480  144.9860 N   0  0  0  0  0  0  0  0  0  0  0  0
  190.0730  177.4970  141.3640 N   0  0  0  0  0  0  0  0  0  0  0  0
  187.7020  178.2860  145.0310 C   0  0  0  0  0  0  0  0  0  0  0  0
  189.5100  177.3800  142.6650 C   0  0  0  0  0  0  0  0  0  0  0  0
  185.9480  177.6000  143.4810 C   0  0  0  0  0  3  0  0  0  0  0  0
  191.4750  177.8780  141.4990 C   0  0  0  0  0  3  0  0  0  0  0  0
  185.3870  178.9450  145.4030 C   0  0  0  0  0  3  0  0  0  0  0  0
  186.7290  178.9540  145.7830 C   0  0  0  0  0  3  0  0  0  0  0  0
  187.3020  177.6070  143.8410 C   0  0  0  0  0  0  0  0  0  0  0  0
  189.9310  176.4730  139.1290 C   0  0  0  0  0  3  0  0  0  0  0  0
  188.1230  177.0210  137.6170 C   0  0  0  0  0  3  0  0  0  0  0  0
  187.5870  177.8860  138.5740 C   0  0  0  0  0  3  0  0  0  0  0  0
  188.2240  178.0430  139.8090 C   0  0  0  0  0  3  0  0  0  0  0  0
  189.4000  177.3350  140.1010 C   0  0  0  0  0  0  0  0  0  0  0  0
  189.2950  176.3150  137.8930 C   0  0  0  0  0  3  0  0  0  0  0  0
  192.4310  175.2470  147.6100 C   0  0  0  0  0  3  0  0  0  0  0  0
  190.8870  176.7530  145.8900 C   0  0  0  0  0  0  0  0  0  0  0  0
  190.8990  177.0190  147.2680 C   0  0  0  0  0  3  0  0  0  0  0  0
  191.6660  176.2600  148.0930 N   0  0  0  0  0  0  0  0  0  0  0  0
  192.4310  174.9800  146.2420 C   0  0  0  0  0  3  0  0  0  0  0  0
  191.6630  175.7390  145.4140 N   0  0  0  0  0  0  0  0  0  0  0  0
  2  7  1  0  0  0  0
  3 15  1  0  0  0  0
  4  2  1  0  0  0  0
  5  6  1  0  0  0  0
  6 13  1  0  0  0  0
  7  1  1  0  0  0  0
  7 23  1  0  0  0  0
  8 12  1  0  0  0  0
  8 10  1  0  0  0  0
  9  1  1  0  0  0  0
  9 14  1  0  0  0  0
 10  3  1  0  0  0  0
 10  2  2  0  0  0  0
 11 15  1  0  0  0  0
 11  6  2  0  0  0  0
 12  4  2  0  0  0  0
 13 14  2  0  0  0  0
 15  9  2  0  0  0  0
 16 20  1  0  0  0  0
 17 21  1  0  0  0  0
 17 18  2  0  0  0  0
 18 19  1  0  0  0  0
 19 20  2  0  0  0  0
 20  8  1  0  0  0  0
 21 16  2  0  0  0  0
 22 25  1  0  0  0  0
 23 24  1  0  0  0  0
 24 25  2  0  0  0  0
 26 22  2  0  0  0  0
 27 23  2  0  0  0  0
 27 26  1  0  0  0  0
M  END
>  <MODEL>
5

>  <REMARK>
 VINA RESULT:      -7.7      2.341      6.491
  Name = 
  2 active torsions:
  status: ('A' for Active; 'I' for Inactive)
    1  A    between atoms: C_9  and  N_15
    2  A    between atoms: C_14  and  N_17
                            x       y       z     vdW  Elec       q    Type
                         _______ _______ _______ _____ _____    ______ ____

>  <TORSDO>
F 2

$$$$
=
 OpenBabel10262420133D

 27 31  0  0  0  0  0  0  0  0999 V2000
  182.2470  178.5710  141.1040 C   0  0  0  0  0  2  0  0  0  0  0  0
  183.8460  178.5830  139.2250 C   0  0  0  0  0  0  0  0  0  0  0  0
  185.3060  179.5060  140.9590 C   0  0  0  0  0  2  0  0  0  0  0  0
  183.8750  177.8770  137.9130 C   0  0  0  0  0  3  0  0  0  0  0  0
  185.5310  179.0140  145.8670 C   0  0  0  0  0  1  0  0  0  0  0  0
  184.7200  178.9340  144.6250 C   0  0  0  0  0  0  0  0  0  0  0  0
  182.6850  179.1470  139.8370 N   0  0  0  0  0  0  0  0  0  0  0  0
  186.0130  178.0250  138.9510 N   0  0  0  0  0  0  0  0  0  0  0  0
  183.1760  178.8010  142.2740 C   0  0  0  0  0  0  0  0  0  0  0  0
  185.0290  178.6340  139.7790 C   0  0  0  0  0  0  0  0  0  0  0  0
  185.3130  179.1810  143.3870 C   0  0  0  0  0  3  0  0  0  0  0  0
  185.3580  177.5200  137.7490 C   0  0  0  0  0  3  0  0  0  0  0  0
  183.3640  178.6220  144.6950 C   0  0  0  0  0  3  0  0  0  0  0  0
  182.6050  178.5520  143.5270 C   0  0  0  0  0  3  0  0  0  0  0  0
  184.5690  179.1050  142.2030 C   0  0  0  0  0  0  0  0  0  0  0  0
  188.2980  177.4850  138.2100 C   0  0  0  0  0  3  0  0  0  0  0  0
  190.1520  177.5030  139.7650 C   0  0  0  0  0  3  0  0  0  0  0  0
  189.2830  177.8700  140.7950 C   0  0  0  0  0  3  0  0  0  0  0  0
  187.9210  178.0460  140.5300 C   0  0  0  0  0  3  0  0  0  0  0  0
  187.4150  177.8590  139.2350 C   0  0  0  0  0  0  0  0  0  0  0  0
  189.6600  177.3090  138.4730 C   0  0  0  0  0  3  0  0  0  0  0  0
  180.2250  181.8500  137.7740 C   0  0  0  0  0  3  0  0  0  0  0  0
  181.8350  180.0770  139.1420 C   0  0  0  0  0  0  0  0  0  0  0  0
  180.4970  179.7630  138.8590 C   0  0  0  0  0  3  0  0  0  0  0  0
  179.7250  180.6560  138.1850 N   0  0  0  0  0  0  0  0  0  0  0  0
  181.5560  182.1660  138.0450 C   0  0  0  0  0  3  0  0  0  0  0  0
  182.3300  181.2740  138.7190 N   0  0  0  0  0  0  0  0  0  0  0  0
  1  9  1  0  0  0  0
  2 10  2  0  0  0  0
  2  7  1  0  0  0  0
  3 15  1  0  0  0  0
  4  2  1  0  0  0  0
  6 13  1  0  0  0  0
  6  5  1  0  0  0  0
  7  1  1  0  0  0  0
  8 20  1  0  0  0  0
  8 10  1  0  0  0  0
  9 14  1  0  0  0  0
 10  3  1  0  0  0  0
 11  6  2  0  0  0  0
 12  4  2  0  0  0  0
 12  8  1  0  0  0  0
 14 13  2  0  0  0  0
 15  9  2  0  0  0  0
 15 11  1  0  0  0  0
 16 21  2  0  0  0  0
 16 20  1  0  0  0  0
 17 18  2  0  0  0  0
 19 18  1  0  0  0  0
 20 19  2  0  0  0  0
 21 17  1  0  0  0  0
 22 26  2  0  0  0  0
 22 25  1  0  0  0  0
 23  7  1  0  0  0  0
 24 23  1  0  0  0  0
 25 24  2  0  0  0  0
 26 27  1  0  0  0  0
 27 23  2  0  0  0  0
M  END
>  <MODEL>
6

>  <REMARK>
 VINA RESULT:      -7.2      3.460      7.395
  Name = 
  2 active torsions:
  status: ('A' for Active; 'I' for Inactive)
    1  A    between atoms: C_9  and  N_15
    2  A    between atoms: C_14  and  N_17
                            x       y       z     vdW  Elec       q    Type
                         _______ _______ _______ _____ _____    ______ ____

>  <TORSDO>
F 2

$$$$
=
 OpenBabel10262420133D

 27 31  0  0  0  0  0  0  0  0999 V2000
  181.5060  179.1350  140.8800 C   0  0  0  0  0  2  0  0  0  0  0  0
  182.3960  178.8360  138.5980 C   0  0  0  0  0  0  0  0  0  0  0  0
  184.5130  179.1670  139.7810 C   0  0  0  0  0  2  0  0  0  0  0  0
  181.8210  178.2550  137.3530 C   0  0  0  0  0  3  0  0  0  0  0  0
  186.0450  178.2530  144.3860 C   0  0  0  0  0  1  0  0  0  0  0  0
  184.9130  178.5040  143.4570 C   0  0  0  0  0  0  0  0  0  0  0  0
  181.6940  179.6590  139.5310 N   0  0  0  0  0  0  0  0  0  0  0  0
  184.1160  177.7060  137.6760 N   0  0  0  0  0  0  0  0  0  0  0  0
  182.7680  178.9990  141.7010 C   0  0  0  0  0  0  0  0  0  0  0  0
  183.6510  178.5040  138.7590 C   0  0  0  0  0  0  0  0  0  0  0  0
  185.1520  178.6670  142.0930 C   0  0  0  0  0  3  0  0  0  0  0  0
  183.0120  177.5030  136.7430 C   0  0  0  0  0  3  0  0  0  0  0  0
  183.6120  178.5880  143.9480 C   0  0  0  0  0  3  0  0  0  0  0  0
  182.5520  178.8280  143.0740 C   0  0  0  0  0  3  0  0  0  0  0  0
  184.0990  178.8980  141.1980 C   0  0  0  0  0  0  0  0  0  0  0  0
  185.5530  175.7590  137.2180 C   0  0  0  0  0  3  0  0  0  0  0  0
  187.9640  175.9600  137.2190 C   0  0  0  0  0  3  0  0  0  0  0  0
  187.8490  177.3190  137.5190 C   0  0  0  0  0  3  0  0  0  0  0  0
  186.5850  177.8980  137.6680 C   0  0  0  0  0  3  0  0  0  0  0  0
  185.4240  177.1250  137.5150 C   0  0  0  0  0  0  0  0  0  0  0  0
  186.8170  175.1800  137.0690 C   0  0  0  0  0  3  0  0  0  0  0  0
  179.6260  183.0950  138.2920 C   0  0  0  0  0  3  0  0  0  0  0  0
  180.9890  180.8430  139.1180 C   0  0  0  0  0  0  0  0  0  0  0  0
  179.7530  181.1860  139.6870 C   0  0  0  0  0  3  0  0  0  0  0  0
  179.1040  182.3020  139.2630 N   0  0  0  0  0  0  0  0  0  0  0  0
  180.8510  182.7580  137.7170 C   0  0  0  0  0  3  0  0  0  0  0  0
  181.5020  181.6410  138.1400 N   0  0  0  0  0  0  0  0  0  0  0  0
  1  9  1  0  0  0  0
  2 10  2  0  0  0  0
  2  7  1  0  0  0  0
  3 15  1  0  0  0  0
  4  2  1  0  0  0  0
  6 13  1  0  0  0  0
  6  5  1  0  0  0  0
  7  1  1  0  0  0  0
  8 10  1  0  0  0  0
  9 14  1  0  0  0  0
 10  3  1  0  0  0  0
 11  6  2  0  0  0  0
 12  4  2  0  0  0  0
 12  8  1  0  0  0  0
 14 13  2  0  0  0  0
 15  9  2  0  0  0  0
 15 11  1  0  0  0  0
 16 20  1  0  0  0  0
 17 18  2  0  0  0  0
 18 19  1  0  0  0  0
 20 19  2  0  0  0  0
 20  8  1  0  0  0  0
 21 16  2  0  0  0  0
 21 17  1  0  0  0  0
 22 25  1  0  0  0  0
 23  7  1  0  0  0  0
 23 24  1  0  0  0  0
 25 24  2  0  0  0  0
 26 27  1  0  0  0  0
 26 22  2  0  0  0  0
 27 23  2  0  0  0  0
M  END
>  <MODEL>
7

>  <REMARK>
 VINA RESULT:      -7.1      4.305      8.291
  Name = 
  2 active torsions:
  status: ('A' for Active; 'I' for Inactive)
    1  A    between atoms: C_9  and  N_15
    2  A    between atoms: C_14  and  N_17
                            x       y       z     vdW  Elec       q    Type
                         _______ _______ _______ _____ _____    ______ ____

>  <TORSDO>
F 2

$$$$
=
 OpenBabel10262420133D

 27 31  0  0  0  0  0  0  0  0999 V2000
  189.3950  178.1710  145.3470 C   0  0  0  0  0  2  0  0  0  0  0  0
  189.8710  177.6120  142.9920 C   0  0  0  0  0  0  0  0  0  0  0  0
  187.4990  177.0090  143.0430 C   0  0  0  0  0  2  0  0  0  0  0  0
  190.9710  177.9920  142.0600 C   0  0  0  0  0  3  0  0  0  0  0  0
  183.6160  178.6010  145.6450 C   0  0  0  0  0  1  0  0  0  0  0  0
  185.0910  178.4510  145.5390 C   0  0  0  0  0  0  0  0  0  0  0  0
  190.0300  177.2880  144.3740 N   0  0  0  0  0  0  0  0  0  0  0  0
  188.8290  177.9330  141.0180 N   0  0  0  0  0  0  0  0  0  0  0  0
  187.8840  178.1500  145.3480 C   0  0  0  0  0  0  0  0  0  0  0  0
  188.7070  177.6040  142.3970 C   0  0  0  0  0  0  0  0  0  0  0  0
  185.6540  177.8840  144.3970 C   0  0  0  0  0  3  0  0  0  0  0  0
  190.2360  178.1940  140.7280 C   0  0  0  0  0  3  0  0  0  0  0  0
  185.9120  178.8680  146.5840 C   0  0  0  0  0  3  0  0  0  0  0  0
  187.2950  178.7210  146.4820 C   0  0  0  0  0  3  0  0  0  0  0  0
  187.0410  177.7380  144.2730 C   0  0  0  0  0  0  0  0  0  0  0  0
  186.5160  178.5510  140.4410 C   0  0  0  0  0  3  0  0  0  0  0  0
  185.6800  178.2900  138.1860 C   0  0  0  0  0  3  0  0  0  0  0  0
  186.9230  177.7930  137.7840 C   0  0  0  0  0  3  0  0  0  0  0  0
  187.9620  177.6770  138.7120 C   0  0  0  0  0  3  0  0  0  0  0  0
  187.7710  178.0590  140.0500 C   0  0  0  0  0  0  0  0  0  0  0  0
  185.4760  178.6680  139.5140 C   0  0  0  0  0  3  0  0  0  0  0  0
  192.7230  174.3500  145.6880 C   0  0  0  0  0  3  0  0  0  0  0  0
  190.9630  176.2880  144.8180 C   0  0  0  0  0  0  0  0  0  0  0  0
  191.4080  175.2770  143.9520 C   0  0  0  0  0  3  0  0  0  0  0  0
  192.2760  174.3360  144.4060 N   0  0  0  0  0  0  0  0  0  0  0  0
  192.2810  175.3470  146.5570 C   0  0  0  0  0  3  0  0  0  0  0  0
  191.4110  176.2890  146.1050 N   0  0  0  0  0  0  0  0  0  0  0  0
  1  9  1  0  0  0  0
  2  7  1  0  0  0  0
  3 15  1  0  0  0  0
  4  2  1  0  0  0  0
  6  5  1  0  0  0  0
  6 13  1  0  0  0  0
  7 23  1  0  0  0  0
  7  1  1  0  0  0  0
  8 10  1  0  0  0  0
  9 14  1  0  0  0  0
 10  2  2  0  0  0  0
 10  3  1  0  0  0  0
 11  6  2  0  0  0  0
 12  8  1  0  0  0  0
 12  4  2  0  0  0  0
 14 13  2  0  0  0  0
 15 11  1  0  0  0  0
 15  9  2  0  0  0  0
 17 21  1  0  0  0  0
 18 17  2  0  0  0  0
 18 19  1  0  0  0  0
 19 20  2  0  0  0  0
 20 16  1  0  0  0  0
 20  8  1  0  0  0  0
 21 16  2  0  0  0  0
 22 26  1  0  0  0  0
 23 27  1  0  0  0  0
 24 25  1  0  0  0  0
 24 23  2  0  0  0  0
 25 22  2  0  0  0  0
 27 26  2  0  0  0  0
M  END
>  <MODEL>
8

>  <REMARK>
 VINA RESULT:      -6.9      2.325      5.514
  Name = 
  2 active torsions:
  status: ('A' for Active; 'I' for Inactive)
    1  A    between atoms: C_9  and  N_15
    2  A    between atoms: C_14  and  N_17
                            x       y       z     vdW  Elec       q    Type
                         _______ _______ _______ _____ _____    ______ ____

>  <TORSDO>
F 2

$$$$
=
 OpenBabel10262420133D

 27 31  0  0  0  0  0  0  0  0999 V2000
  188.8300  178.2660  139.4340 C   0  0  0  0  0  2  0  0  0  0  0  0
  190.9960  177.1020  139.6340 C   0  0  0  0  0  0  0  0  0  0  0  0
  189.9010  175.5790  138.0620 C   0  0  0  0  0  2  0  0  0  0  0  0
  192.3390  177.5320  140.1160 C   0  0  0  0  0  3  0  0  0  0  0  0
  186.4320  176.1470  134.5940 C   0  0  0  0  0  1  0  0  0  0  0  0
  187.0610  176.6430  135.8450 C   0  0  0  0  0  0  0  0  0  0  0  0
  189.7470  177.4580  140.2300 N   0  0  0  0  0  0  0  0  0  0  0  0
  192.4330  176.1180  138.2020 N   0  0  0  0  0  0  0  0  0  0  0  0
  188.2420  177.5750  138.2260 C   0  0  0  0  0  0  0  0  0  0  0  0
  191.0780  176.3420  138.5730 C   0  0  0  0  0  0  0  0  0  0  0  0
  188.1740  175.9900  136.3730 C   0  0  0  0  0  3  0  0  0  0  0  0
  193.2930  176.8420  139.1330 C   0  0  0  0  0  3  0  0  0  0  0  0
  186.5360  177.7570  136.4970 C   0  0  0  0  0  3  0  0  0  0  0  0
  187.1270  178.2170  137.6730 C   0  0  0  0  0  3  0  0  0  0  0  0
  188.7870  176.4440  137.5470 C   0  0  0  0  0  0  0  0  0  0  0  0
  192.9390  175.9460  135.7980 C   0  0  0  0  0  3  0  0  0  0  0  0
  193.8410  173.9080  134.8550 C   0  0  0  0  0  3  0  0  0  0  0  0
  193.8230  173.3170  136.1200 C   0  0  0  0  0  3  0  0  0  0  0  0
  193.3630  174.0410  137.2240 C   0  0  0  0  0  3  0  0  0  0  0  0
  192.9200  175.3650  137.0750 C   0  0  0  0  0  0  0  0  0  0  0  0
  193.3990  175.2230  134.6930 C   0  0  0  0  0  3  0  0  0  0  0  0
  189.0190  176.8560  144.3190 C   0  0  0  0  0  3  0  0  0  0  0  0
  189.4860  177.2450  141.6280 C   0  0  0  0  0  0  0  0  0  0  0  0
  188.5490  178.0310  142.3180 C   0  0  0  0  0  3  0  0  0  0  0  0
  188.3370  177.8160  143.6430 N   0  0  0  0  0  0  0  0  0  0  0  0
  189.9560  176.0750  143.6430 C   0  0  0  0  0  3  0  0  0  0  0  0
  190.1700  176.2890  142.3170 N   0  0  0  0  0  0  0  0  0  0  0  0
  1  7  1  0  0  0  0
  2  4  1  0  0  0  0
  2  7  1  0  0  0  0
  3 10  1  0  0  0  0
  5  6  1  0  0  0  0
  6 11  2  0  0  0  0
  6 13  1  0  0  0  0
  7 23  1  0  0  0  0
  8 10  1  0  0  0  0
  8 12  1  0  0  0  0
  9  1  1  0  0  0  0
 10  2  2  0  0  0  0
 11 15  1  0  0  0  0
 12  4  2  0  0  0  0
 13 14  2  0  0  0  0
 14  9  1  0  0  0  0
 15  3  1  0  0  0  0
 15  9  2  0  0  0  0
 16 20  1  0  0  0  0
 17 18  2  0  0  0  0
 18 19  1  0  0  0  0
 20 19  2  0  0  0  0
 20  8  1  0  0  0  0
 21 17  1  0  0  0  0
 21 16  2  0  0  0  0
 23 27  1  0  0  0  0
 23 24  2  0  0  0  0
 24 25  1  0  0  0  0
 25 22  2  0  0  0  0
 26 22  1  0  0  0  0
 27 26  2  0  0  0  0
M  END
>  <MODEL>
9

>  <REMARK>
 VINA RESULT:      -6.9      2.857      8.736
  Name = 
  2 active torsions:
  status: ('A' for Active; 'I' for Inactive)
    1  A    between atoms: C_9  and  N_15
    2  A    between atoms: C_14  and  N_17
                            x       y       z     vdW  Elec       q    Type
                         _______ _______ _______ _____ _____    ______ ____

>  <TORSDO>
F 2

$$$$
