=
 OpenBabel10262420333D

 55 60  0  0  1  0  0  0  0  0999 V2000
  185.7500  177.4580  137.6830 C   0  0  0  0  0  3  0  0  0  0  0  0
  185.4790  176.0850  134.5950 S   0  0  0  0  0  0  0  0  0  0  0  0
  182.1840  177.0310  134.8710 C   0  0  0  0  0  1  0  0  0  0  0  0
  180.6260  179.0640  136.8260 C   0  0  0  0  0  2  0  0  0  0  0  0
  179.2820  179.6370  137.2820 C   0  0  0  0  0  2  0  0  0  0  0  0
  181.4870  179.8450  139.0340 C   0  0  2  0  0  3  0  0  0  0  0  0
  180.0620  180.3240  139.2930 C   0  0  0  0  0  2  0  0  0  0  0  0
  182.7010  177.0040  137.2090 O   0  0  0  0  0  0  0  0  0  0  0  0
  179.4940  180.7790  138.0850 O   0  0  0  0  0  0  0  0  0  0  0  0
  187.9650  178.6020  137.5820 C   0  0  0  0  0  3  0  0  0  0  0  0
  181.4500  178.6770  138.0600 C   0  0  2  0  0  3  0  0  0  0  0  0
  188.9470  176.6270  135.8370 C   0  0  0  0  0  0  0  0  0  0  0  0
  185.1390  178.4020  138.3850 C   0  0  0  0  0  3  0  0  0  0  0  0
  187.5930  176.5970  136.2550 C   0  0  0  0  0  0  0  0  0  0  0  0
  183.4370  179.2610  139.9490 C   0  0  2  0  0  3  0  0  0  0  0  0
  186.7100  175.6360  135.7470 O   0  0  0  0  0  0  0  0  0  0  0  0
  182.0660  179.3890  140.2150 O   0  0  0  0  0  0  0  0  0  0  0  0
  184.1160  175.7470  135.7540 C   0  0  0  0  0  2  0  0  0  0  0  0
  183.2730  177.0040  135.9310 C   0  0  1  0  0  3  0  0  0  0  0  0
  189.2750  178.6710  137.1110 C   0  0  0  0  0  3  0  0  0  0  0  0
  187.1140  177.5730  137.1510 C   0  0  0  0  0  0  0  0  0  0  0  0
  182.8130  178.2740  137.6780 N   0  0  1  0  0  0  0  0  0  0  0  0
  183.7290  178.2030  138.8520 C   0  0  1  0  0  3  0  0  0  0  0  0
  189.7570  177.6900  136.2410 C   0  0  0  0  0  3  0  0  0  0  0  0
  183.4290  178.8010  142.4230 C   0  0  0  0  0  3  0  0  0  0  0  0
  185.4770  178.2460  143.6100 C   0  0  0  0  0  0  0  0  0  0  0  0
  185.5310  178.6720  141.2200 C   0  0  0  0  0  3  0  0  0  0  0  0
  186.1940  178.3470  142.4040 C   0  0  0  0  0  3  0  0  0  0  0  0
  184.0960  178.4820  143.6120 C   0  0  0  0  0  3  0  0  0  0  0  0
  184.1440  178.8920  141.2200 C   0  0  0  0  0  0  0  0  0  0  0  0
  186.1150  177.9250  144.8130 O   0  0  0  0  0  0  0  0  0  0  0  0
  187.4320  177.4630  144.8680 C   0  0  0  0  0  3  0  0  0  0  0  0
  188.1260  177.5650  145.9850 C   0  0  0  0  0  2  0  0  0  0  0  0
  189.5420  175.6370  135.0460 O   0  0  0  0  0  0  0  0  0  0  0  0
  190.9240  175.2950  135.0680 C   0  0  0  0  0  2  0  0  0  0  0  0
  191.1250  173.8450  135.5050 C   0  0  2  0  0  3  0  0  0  0  0  0
  189.9870  173.5690  137.5700 O   0  0  0  0  0  0  0  0  0  0  0  0
  189.9930  173.3650  136.3680 C   0  0  0  0  0  3  0  0  0  0  0  0
  192.5070  173.5500  136.1140 C   0  0  0  0  0  2  0  0  0  0  0  0
  193.2140  174.8060  136.6200 C   0  0  1  0  0  3  0  0  0  0  0  0
  192.3470  175.5870  137.3910 O   0  0  0  0  0  1  0  0  0  0  0  0
  195.9570  170.3410  137.7610 C   0  0  0  0  0  2  0  0  0  0  0  0
  197.7910  175.7830  136.8810 O   0  0  0  0  0  1  0  0  0  0  0  0
  194.5300  174.4990  137.3680 C   0  0  1  0  0  0  0  0  0  0  0  0
  195.6600  174.5580  135.2500 O   0  0  0  0  0  0  0  0  0  0  0  0
  195.7560  174.5640  136.4720 C   0  0  0  0  0  0  0  0  0  0  0  0
  195.6370  172.5630  138.4300 O   0  0  0  0  0  0  0  0  0  0  0  0
  198.0000  173.3450  136.8460 C   0  0  1  0  0  3  0  0  0  0  0  0
  196.2850  171.6190  137.6430 C   0  0  0  0  0  0  0  0  0  0  0  0
  197.1130  174.5810  137.1210 C   0  0  1  0  0  3  0  0  0  0  0  0
  194.6820  175.4410  138.3890 O   0  0  0  0  0  1  0  0  0  0  0  0
  197.2320  172.0390  136.5570 C   0  0  0  0  0  2  0  0  0  0  0  0
  194.3810  173.1130  138.0160 C   0  0  0  0  0  2  0  0  0  0  0  0
  198.9030  173.6030  135.8080 O   0  0  0  0  0  0  0  0  0  0  0  0
  198.6820  172.5690  134.8980 C   0  0  0  0  0  1  0  0  0  0  0  0
  1 13  2  0  0  0  0
  2 16  1  0  0  0  0
  2 18  1  0  0  0  0
  4  5  1  0  0  0  0
  5  9  1  0  0  0  0
  6  7  1  1  0  0  0
  6 17  1  0  0  0  0
  9  7  1  0  0  0  0
 11  4  1  6  0  0  0
 11  6  1  0  0  0  0
 12 24  2  0  0  0  0
 12 14  1  0  0  0  0
 14 21  2  0  0  0  0
 15 17  1  0  0  0  0
 15 30  1  1  0  0  0
 16 14  1  0  0  0  0
 18 19  1  0  0  0  0
 19  3  1  6  0  0  0
 19  8  1  0  0  0  0
 20 10  2  0  0  0  0
 21 10  1  0  0  0  0
 21  1  1  0  0  0  0
 22  8  1  1  0  0  0
 22 11  1  0  0  0  0
 22 23  1  0  0  0  0
 23 13  1  6  0  0  0
 23 15  1  0  0  0  0
 24 20  1  0  0  0  0
 25 29  1  0  0  0  0
 26 29  2  0  0  0  0
 26 31  1  0  0  0  0
 27 30  1  0  0  0  0
 27 28  2  0  0  0  0
 28 26  1  0  0  0  0
 30 25  2  0  0  0  0
 31 32  1  0  0  0  0
 32 33  2  0  0  0  0
 34 35  1  0  0  0  0
 34 12  1  0  0  0  0
 36 35  1  1  0  0  0
 36 39  1  0  0  0  0
 36 38  1  0  0  0  0
 38 37  2  0  0  0  0
 39 40  1  0  0  0  0
 40 44  1  0  0  0  0
 40 41  1  1  0  0  0
 44 53  1  0  0  0  0
 44 51  1  1  0  0  0
 45 46  2  0  0  0  0
 46 50  1  0  0  0  0
 46 44  1  0  0  0  0
 48 54  1  6  0  0  0
 48 50  1  0  0  0  0
 49 42  2  0  0  0  0
 49 47  1  0  0  0  0
 50 43  1  6  0  0  0
 52 48  1  0  0  0  0
 52 49  1  0  0  0  0
 53 47  1  0  0  0  0
 55 54  1  0  0  0  0
M  END
>  <MODEL>
1

>  <REMARK>
 VINA RESULT:      -8.1      0.000      0.000
  Name = 
  11 active torsions:
  status: ('A' for Active; 'I' for Inactive)
    1  A    between atoms: C_6  and  C_20
    2  A    between atoms: C_8  and  C_43
    3  A    between atoms: O_10  and  C_18
    4  A    between atoms: O_10  and  C_32
    5  A    between atoms: O_11  and  C_29
    6  A    between atoms: C_20  and  C_22
    7  A    between atoms: C_22  and  C_43
    8  A    between atoms: C_27  and  O_54
    9  A    between atoms: C_33  and  C_52
   10  A    between atoms: C_43  and  C_51
   11  A    between atoms: C_51  and  O_54
                            x       y       z     vdW  Elec       q    Type
                         _______ _______ _______ _____ _____    ______ ____

>  <TORSDO>
F 11

$$$$
=
 OpenBabel10262420333D

 55 60  0  0  1  0  0  0  0  0999 V2000
  184.4320  175.1550  136.8630 C   0  0  0  0  0  3  0  0  0  0  0  0
  187.2550  173.4370  136.1060 S   0  0  0  0  0  0  0  0  0  0  0  0
  185.1020  170.7730  135.7890 C   0  0  0  0  0  1  0  0  0  0  0  0
  181.9030  170.5430  135.4840 C   0  0  0  0  0  2  0  0  0  0  0  0
  180.6780  169.6280  135.4150 C   0  0  0  0  0  2  0  0  0  0  0  0
  180.2870  172.3310  136.1320 C   0  0  2  0  0  3  0  0  0  0  0  0
  179.2190  171.2470  136.0230 C   0  0  0  0  0  2  0  0  0  0  0  0
  183.7130  172.1380  137.1820 O   0  0  0  0  0  0  0  0  0  0  0  0
  179.5530  170.3620  134.9780 O   0  0  0  0  0  0  0  0  0  0  0  0
  184.7960  177.3410  135.7170 C   0  0  0  0  0  3  0  0  0  0  0  0
  181.6210  171.6820  136.4710 C   0  0  2  0  0  3  0  0  0  0  0  0
  187.5690  177.1470  136.1480 C   0  0  0  0  0  0  0  0  0  0  0  0
  183.1380  175.0700  136.5890 C   0  0  0  0  0  3  0  0  0  0  0  0
  186.7140  176.0850  136.5340 C   0  0  0  0  0  0  0  0  0  0  0  0
  180.8240  174.3190  136.9910 C   0  0  2  0  0  3  0  0  0  0  0  0
  187.2410  174.8980  137.0590 O   0  0  0  0  0  0  0  0  0  0  0  0
  179.9750  173.2150  137.1600 O   0  0  0  0  0  0  0  0  0  0  0  0
  186.0560  172.5900  137.1840 C   0  0  0  0  0  2  0  0  0  0  0  0
  184.8480  172.1570  136.3630 C   0  0  1  0  0  3  0  0  0  0  0  0
  185.6480  178.3510  135.2720 C   0  0  0  0  0  3  0  0  0  0  0  0
  185.3220  176.1990  136.3400 C   0  0  0  0  0  0  0  0  0  0  0  0
  182.7040  172.6780  136.4500 N   0  0  1  0  0  0  0  0  0  0  0  0
  182.3220  173.9420  137.1420 C   0  0  1  0  0  3  0  0  0  0  0  0
  187.0250  178.2480  135.4850 C   0  0  0  0  0  3  0  0  0  0  0  0
  180.4630  175.0720  139.3650 C   0  0  0  0  0  3  0  0  0  0  0  0
  179.7200  177.3310  139.8730 C   0  0  0  0  0  0  0  0  0  0  0  0
  180.0650  176.6520  137.5670 C   0  0  0  0  0  3  0  0  0  0  0  0
  179.7040  177.6260  138.4980 C   0  0  0  0  0  3  0  0  0  0  0  0
  180.0940  176.0490  140.2980 C   0  0  0  0  0  3  0  0  0  0  0  0
  180.4550  175.3720  137.9940 C   0  0  0  0  0  0  0  0  0  0  0  0
  179.3620  178.2880  140.8290 O   0  0  0  0  0  0  0  0  0  0  0  0
  180.0040  178.3960  142.0640 C   0  0  0  0  0  3  0  0  0  0  0  0
  181.2170  178.9090  142.1400 C   0  0  0  0  0  2  0  0  0  0  0  0
  188.9450  177.1740  136.4060 O   0  0  0  0  0  0  0  0  0  0  0  0
  189.8760  176.1830  135.9810 C   0  0  0  0  0  2  0  0  0  0  0  0
  190.7080  175.6710  137.1560 C   0  0  2  0  0  3  0  0  0  0  0  0
  190.2750  173.3570  137.4620 O   0  0  0  0  0  0  0  0  0  0  0  0
  191.0250  174.2090  137.0160 C   0  0  0  0  0  3  0  0  0  0  0  0
  190.1410  176.0290  138.5400 C   0  0  0  0  0  2  0  0  0  0  0  0
  191.2290  176.2850  139.5820 C   0  0  1  0  0  3  0  0  0  0  0  0
  192.4390  176.6150  138.9650 O   0  0  0  0  0  1  0  0  0  0  0  0
  186.6000  178.5620  141.0470 C   0  0  0  0  0  2  0  0  0  0  0  0
  191.3780  177.3880  144.1350 O   0  0  0  0  0  1  0  0  0  0  0  0
  190.8190  177.3300  140.6420 C   0  0  1  0  0  0  0  0  0  0  0  0
  190.3030  175.5140  142.1260 O   0  0  0  0  0  0  0  0  0  0  0  0
  190.5020  176.7170  141.9960 C   0  0  0  0  0  0  0  0  0  0  0  0
  188.9240  178.8490  141.0940 O   0  0  0  0  0  0  0  0  0  0  0  0
  188.9740  177.7190  143.8190 C   0  0  1  0  0  3  0  0  0  0  0  0
  187.7570  178.3510  141.6570 C   0  0  0  0  0  0  0  0  0  0  0  0
  190.3800  177.6330  143.1830 C   0  0  1  0  0  3  0  0  0  0  0  0
  191.8780  178.2270  140.8030 O   0  0  0  0  0  1  0  0  0  0  0  0
  187.8010  177.4460  142.8540 C   0  0  0  0  0  2  0  0  0  0  0  0
  189.6160  178.1080  140.0830 C   0  0  0  0  0  2  0  0  0  0  0  0
  188.8800  176.8740  144.9300 O   0  0  0  0  0  0  0  0  0  0  0  0
  187.9050  177.4690  145.7320 C   0  0  0  0  0  1  0  0  0  0  0  0
  2 16  1  0  0  0  0
  2 18  1  0  0  0  0
  5  4  1  0  0  0  0
  6  7  1  1  0  0  0
  6 11  1  0  0  0  0
  6 17  1  0  0  0  0
  9  5  1  0  0  0  0
  9  7  1  0  0  0  0
 10 21  1  0  0  0  0
 11  4  1  6  0  0  0
 12 34  1  0  0  0  0
 12 14  1  0  0  0  0
 13  1  2  0  0  0  0
 14 16  1  0  0  0  0
 15 23  1  0  0  0  0
 15 17  1  0  0  0  0
 15 30  1  1  0  0  0
 19  3  1  1  0  0  0
 19  8  1  0  0  0  0
 19 18  1  0  0  0  0
 20 24  1  0  0  0  0
 20 10  2  0  0  0  0
 21 14  2  0  0  0  0
 21  1  1  0  0  0  0
 22 11  1  0  0  0  0
 22 23  1  0  0  0  0
 22  8  1  1  0  0  0
 23 13  1  6  0  0  0
 24 12  2  0  0  0  0
 25 29  1  0  0  0  0
 26 29  2  0  0  0  0
 26 31  1  0  0  0  0
 27 30  1  0  0  0  0
 27 28  2  0  0  0  0
 28 26  1  0  0  0  0
 30 25  2  0  0  0  0
 31 32  1  0  0  0  0
 32 33  2  0  0  0  0
 35 34  1  0  0  0  0
 36 35  1  6  0  0  0
 36 39  1  0  0  0  0
 38 36  1  0  0  0  0
 38 37  2  0  0  0  0
 39 40  1  0  0  0  0
 40 41  1  6  0  0  0
 40 44  1  0  0  0  0
 42 49  2  0  0  0  0
 44 51  1  1  0  0  0
 44 46  1  0  0  0  0
 46 45  2  0  0  0  0
 46 50  1  0  0  0  0
 47 49  1  0  0  0  0
 48 54  1  1  0  0  0
 49 52  1  0  0  0  0
 50 48  1  0  0  0  0
 50 43  1  1  0  0  0
 52 48  1  0  0  0  0
 53 44  1  0  0  0  0
 53 47  1  0  0  0  0
 54 55  1  0  0  0  0
M  END
>  <MODEL>
2

>  <REMARK>
 VINA RESULT:      -7.5      3.636      7.317
  Name = 
  11 active torsions:
  status: ('A' for Active; 'I' for Inactive)
    1  A    between atoms: C_6  and  C_20
    2  A    between atoms: C_8  and  C_43
    3  A    between atoms: O_10  and  C_18
    4  A    between atoms: O_10  and  C_32
    5  A    between atoms: O_11  and  C_29
    6  A    between atoms: C_20  and  C_22
    7  A    between atoms: C_22  and  C_43
    8  A    between atoms: C_27  and  O_54
    9  A    between atoms: C_33  and  C_52
   10  A    between atoms: C_43  and  C_51
   11  A    between atoms: C_51  and  O_54
                            x       y       z     vdW  Elec       q    Type
                         _______ _______ _______ _____ _____    ______ ____

>  <TORSDO>
F 11

$$$$
=
 OpenBabel10262420333D

 55 60  0  0  1  0  0  0  0  0999 V2000
  187.9550  176.6260  138.4350 C   0  0  0  0  0  3  0  0  0  0  0  0
  189.1040  178.3120  141.1420 S   0  0  0  0  0  0  0  0  0  0  0  0
  192.1950  177.5100  139.8650 C   0  0  0  0  0  1  0  0  0  0  0  0
  193.1920  176.4780  136.9810 C   0  0  0  0  0  2  0  0  0  0  0  0
  194.3560  175.9700  136.1260 C   0  0  0  0  0  2  0  0  0  0  0  0
  191.7260  175.3850  135.2830 C   0  0  2  0  0  3  0  0  0  0  0  0
  193.0230  174.9630  134.6000 C   0  0  0  0  0  2  0  0  0  0  0  0
  190.9420  175.7930  138.7610 O   0  0  0  0  0  0  0  0  0  0  0  0
  193.9900  175.9760  134.7620 O   0  0  0  0  0  0  0  0  0  0  0  0
  185.9980  178.0010  137.7230 C   0  0  0  0  0  3  0  0  0  0  0  0
  191.9820  175.5600  136.7730 C   0  0  2  0  0  3  0  0  0  0  0  0
  185.4780  178.7100  140.3950 C   0  0  0  0  0  0  0  0  0  0  0  0
  188.3800  176.3470  137.2100 C   0  0  0  0  0  3  0  0  0  0  0  0
  186.6140  177.9240  140.0760 C   0  0  0  0  0  0  0  0  0  0  0  0
  189.5430  174.9840  135.5160 C   0  0  2  0  0  3  0  0  0  0  0  0
  187.5310  177.5590  141.0690 O   0  0  0  0  0  0  0  0  0  0  0  0
  190.7580  174.3960  135.1350 O   0  0  0  0  0  0  0  0  0  0  0  0
  189.9810  176.7750  140.7130 C   0  0  0  0  0  2  0  0  0  0  0  0
  190.8210  176.9990  139.4620 C   0  0  1  0  0  3  0  0  0  0  0  0
  184.9230  178.8340  138.0320 C   0  0  0  0  0  3  0  0  0  0  0  0
  186.8540  177.5490  138.7390 C   0  0  0  0  0  0  0  0  0  0  0  0
  190.7900  176.0990  137.4450 N   0  0  1  0  0  0  0  0  0  0  0  0
  189.5380  175.4200  137.0060 C   0  0  1  0  0  3  0  0  0  0  0  0
  184.6710  179.1870  139.3600 C   0  0  0  0  0  3  0  0  0  0  0  0
  187.1680  174.4710  134.8620 C   0  0  0  0  0  3  0  0  0  0  0  0
  186.3350  172.1870  134.8270 C   0  0  0  0  0  0  0  0  0  0  0  0
  188.6370  172.6340  135.4550 C   0  0  0  0  0  3  0  0  0  0  0  0
  187.5990  171.7280  135.2360 C   0  0  0  0  0  3  0  0  0  0  0  0
  186.1250  173.5610  134.6490 C   0  0  0  0  0  3  0  0  0  0  0  0
  188.4320  174.0100  135.2610 C   0  0  0  0  0  0  0  0  0  0  0  0
  185.2750  171.3020  134.6030 O   0  0  0  0  0  0  0  0  0  0  0  0
  184.0730  171.3720  135.3100 C   0  0  0  0  0  3  0  0  0  0  0  0
  183.6180  170.3140  135.9550 C   0  0  0  0  0  2  0  0  0  0  0  0
  185.0940  179.0320  141.7030 O   0  0  0  0  0  0  0  0  0  0  0  0
  184.4830  178.1290  142.6190 C   0  0  0  0  0  2  0  0  0  0  0  0
  184.1590  178.8240  143.9410 C   0  0  2  0  0  3  0  0  0  0  0  0
  181.8850  179.1520  143.3440 O   0  0  0  0  0  0  0  0  0  0  0  0
  182.8890  179.6220  143.8510 C   0  0  0  0  0  3  0  0  0  0  0  0
  185.3270  179.6270  144.5400 C   0  0  0  0  0  2  0  0  0  0  0  0
  185.7970  179.0800  145.8870 C   0  0  1  0  0  3  0  0  0  0  0  0
  184.7090  178.6580  146.6570 O   0  0  0  0  0  1  0  0  0  0  0  0
  190.6960  178.8230  143.7210 C   0  0  0  0  0  2  0  0  0  0  0  0
  188.3980  175.9570  148.2220 O   0  0  0  0  0  1  0  0  0  0  0  0
  186.8690  177.9780  145.7510 C   0  0  1  0  0  0  0  0  0  0  0  0
  187.8860  178.8250  147.7550 O   0  0  0  0  0  0  0  0  0  0  0  0
  187.8120  177.9100  146.9430 C   0  0  0  0  0  0  0  0  0  0  0  0
  188.8700  177.5120  144.3790 O   0  0  0  0  0  0  0  0  0  0  0  0
  190.2190  176.9810  146.9480 C   0  0  1  0  0  3  0  0  0  0  0  0
  190.0720  178.1430  144.6710 C   0  0  0  0  0  0  0  0  0  0  0  0
  188.7030  176.7070  147.0780 C   0  0  1  0  0  3  0  0  0  0  0  0
  186.2180  176.7470  145.6360 O   0  0  0  0  0  1  0  0  0  0  0  0
  190.5920  178.2000  146.0780 C   0  0  0  0  0  2  0  0  0  0  0  0
  187.6360  178.2360  144.4440 C   0  0  0  0  0  2  0  0  0  0  0  0
  190.8120  177.1010  148.2100 O   0  0  0  0  0  0  0  0  0  0  0  0
  192.0440  176.4620  148.0720 C   0  0  0  0  0  1  0  0  0  0  0  0
  1 21  1  0  0  0  0
  5  4  1  0  0  0  0
  6  7  1  6  0  0  0
  6 11  1  0  0  0  0
  7  9  1  0  0  0  0
  8 19  1  0  0  0  0
  9  5  1  0  0  0  0
 10 20  2  0  0  0  0
 10 21  1  0  0  0  0
 11  4  1  6  0  0  0
 11 22  1  0  0  0  0
 12 34  1  0  0  0  0
 13  1  2  0  0  0  0
 14 12  1  0  0  0  0
 14 16  1  0  0  0  0
 15 30  1  1  0  0  0
 15 23  1  0  0  0  0
 16  2  1  0  0  0  0
 17  6  1  0  0  0  0
 17 15  1  0  0  0  0
 18  2  1  0  0  0  0
 19  3  1  1  0  0  0
 19 18  1  0  0  0  0
 20 24  1  0  0  0  0
 21 14  2  0  0  0  0
 22  8  1  1  0  0  0
 23 13  1  6  0  0  0
 23 22  1  0  0  0  0
 24 12  2  0  0  0  0
 25 30  1  0  0  0  0
 26 28  2  0  0  0  0
 28 27  1  0  0  0  0
 29 26  1  0  0  0  0
 29 25  2  0  0  0  0
 30 27  2  0  0  0  0
 31 26  1  0  0  0  0
 31 32  1  0  0  0  0
 32 33  2  0  0  0  0
 34 35  1  0  0  0  0
 36 35  1  6  0  0  0
 36 39  1  0  0  0  0
 37 38  2  0  0  0  0
 38 36  1  0  0  0  0
 39 40  1  0  0  0  0
 40 41  1  6  0  0  0
 42 49  2  0  0  0  0
 44 51  1  6  0  0  0
 44 40  1  0  0  0  0
 44 46  1  0  0  0  0
 46 50  1  0  0  0  0
 46 45  2  0  0  0  0
 47 53  1  0  0  0  0
 47 49  1  0  0  0  0
 48 50  1  0  0  0  0
 48 54  1  1  0  0  0
 49 52  1  0  0  0  0
 50 43  1  1  0  0  0
 52 48  1  0  0  0  0
 53 44  1  0  0  0  0
 55 54  1  0  0  0  0
M  END
>  <MODEL>
3

>  <REMARK>
 VINA RESULT:      -7.3      3.553     10.859
  Name = 
  11 active torsions:
  status: ('A' for Active; 'I' for Inactive)
    1  A    between atoms: C_6  and  C_20
    2  A    between atoms: C_8  and  C_43
    3  A    between atoms: O_10  and  C_18
    4  A    between atoms: O_10  and  C_32
    5  A    between atoms: O_11  and  C_29
    6  A    between atoms: C_20  and  C_22
    7  A    between atoms: C_22  and  C_43
    8  A    between atoms: C_27  and  O_54
    9  A    between atoms: C_33  and  C_52
   10  A    between atoms: C_43  and  C_51
   11  A    between atoms: C_51  and  O_54
                            x       y       z     vdW  Elec       q    Type
                         _______ _______ _______ _____ _____    ______ ____

>  <TORSDO>
F 11

$$$$
=
 OpenBabel10262420333D

 55 60  0  0  1  0  0  0  0  0999 V2000
  186.0030  177.5300  139.3900 C   0  0  0  0  0  3  0  0  0  0  0  0
  184.6650  176.5400  136.4360 S   0  0  0  0  0  0  0  0  0  0  0  0
  181.6700  177.1350  138.0200 C   0  0  0  0  0  1  0  0  0  0  0  0
  180.8650  178.7530  140.6870 C   0  0  0  0  0  2  0  0  0  0  0  0
  179.7640  179.1370  141.6780 C   0  0  0  0  0  2  0  0  0  0  0  0
  182.4500  179.3230  142.5290 C   0  0  2  0  0  3  0  0  0  0  0  0
  181.2030  179.6330  143.3520 C   0  0  0  0  0  2  0  0  0  0  0  0
  183.0150  176.8600  139.9820 O   0  0  0  0  0  0  0  0  0  0  0  0
  180.2120  180.1830  142.5150 O   0  0  0  0  0  0  0  0  0  0  0  0
  187.9760  178.8770  138.6730 C   0  0  0  0  0  3  0  0  0  0  0  0
  182.1010  178.2890  141.4680 C   0  0  2  0  0  3  0  0  0  0  0  0
  188.3220  177.2380  136.4140 C   0  0  0  0  0  0  0  0  0  0  0  0
  185.6570  178.3170  140.3990 C   0  0  0  0  0  3  0  0  0  0  0  0
  187.2200  177.0300  137.2820 C   0  0  0  0  0  0  0  0  0  0  0  0
  184.6210  178.8100  142.5820 C   0  0  2  0  0  3  0  0  0  0  0  0
  186.2510  176.0640  136.9860 O   0  0  0  0  0  0  0  0  0  0  0  0
  183.4410  178.7780  143.3390 O   0  0  0  0  0  0  0  0  0  0  0  0
  183.8400  175.9330  137.9430 C   0  0  0  0  0  2  0  0  0  0  0  0
  183.0730  177.0740  138.6000 C   0  0  1  0  0  3  0  0  0  0  0  0
  189.0160  179.1250  137.7780 C   0  0  0  0  0  3  0  0  0  0  0  0
  187.0680  177.8370  138.4270 C   0  0  0  0  0  0  0  0  0  0  0  0
  183.2420  178.0660  140.5660 N   0  0  1  0  0  0  0  0  0  0  0  0
  184.5290  177.9310  141.3060 C   0  0  1  0  0  3  0  0  0  0  0  0
  189.1820  178.3110  136.6560 C   0  0  0  0  0  3  0  0  0  0  0  0
  186.8430  177.6660  142.8680 C   0  0  0  0  0  3  0  0  0  0  0  0
  187.8780  177.4500  145.0580 C   0  0  0  0  0  0  0  0  0  0  0  0
  185.7370  178.5720  144.8280 C   0  0  0  0  0  3  0  0  0  0  0  0
  186.7890  178.1290  145.6310 C   0  0  0  0  0  3  0  0  0  0  0  0
  187.8950  177.2160  143.6760 C   0  0  0  0  0  3  0  0  0  0  0  0
  185.7610  178.3510  143.4410 C   0  0  0  0  0  0  0  0  0  0  0  0
  188.9460  176.9930  145.8380 O   0  0  0  0  0  0  0  0  0  0  0  0
  188.8180  176.7160  147.2000 C   0  0  0  0  0  3  0  0  0  0  0  0
  189.0520  177.6580  148.0950 C   0  0  0  0  0  2  0  0  0  0  0  0
  188.6210  176.4140  135.3210 O   0  0  0  0  0  0  0  0  0  0  0  0
  189.9100  175.8870  135.0260 C   0  0  0  0  0  2  0  0  0  0  0  0
  189.8830  174.3600  134.9860 C   0  0  2  0  0  3  0  0  0  0  0  0
  188.4250  173.6310  136.7120 O   0  0  0  0  0  0  0  0  0  0  0  0
  188.5880  173.8140  135.5180 C   0  0  0  0  0  3  0  0  0  0  0  0
  191.1170  173.6860  135.6110 C   0  0  0  0  0  2  0  0  0  0  0  0
  191.8680  174.5990  136.5790 C   0  0  1  0  0  3  0  0  0  0  0  0
  191.5290  174.3030  137.9030 O   0  0  0  0  0  1  0  0  0  0  0  0
  196.1480  174.7670  139.8050 C   0  0  0  0  0  2  0  0  0  0  0  0
  195.4370  172.2990  134.5940 O   0  0  0  0  0  1  0  0  0  0  0  0
  193.3960  174.5880  136.3590 C   0  0  1  0  0  0  0  0  0  0  0  0
  193.3490  172.2080  136.6760 O   0  0  0  0  0  0  0  0  0  0  0  0
  193.9800  173.1860  136.2920 C   0  0  0  0  0  0  0  0  0  0  0  0
  195.4410  175.1810  137.6100 O   0  0  0  0  0  0  0  0  0  0  0  0
  196.4120  172.5070  136.8280 C   0  0  1  0  0  3  0  0  0  0  0  0
  195.9360  174.3160  138.5770 C   0  0  0  0  0  0  0  0  0  0  0  0
  195.3890  173.0240  135.7910 C   0  0  1  0  0  3  0  0  0  0  0  0
  193.6680  175.2350  135.1510 O   0  0  0  0  0  1  0  0  0  0  0  0
  196.0850  172.8490  138.2970 C   0  0  0  0  0  2  0  0  0  0  0  0
  194.0320  175.4080  137.4930 C   0  0  0  0  0  2  0  0  0  0  0  0
  196.6000  171.1270  136.6940 O   0  0  0  0  0  0  0  0  0  0  0  0
  197.9530  170.9360  136.9760 C   0  0  0  0  0  1  0  0  0  0  0  0
  1 13  2  0  0  0  0
  2 16  1  0  0  0  0
  2 18  1  0  0  0  0
  4  5  1  0  0  0  0
  5  9  1  0  0  0  0
  6 17  1  0  0  0  0
  6  7  1  1  0  0  0
  9  7  1  0  0  0  0
 11  4  1  6  0  0  0
 11  6  1  0  0  0  0
 12 24  2  0  0  0  0
 12 14  1  0  0  0  0
 14 21  2  0  0  0  0
 15 17  1  0  0  0  0
 15 30  1  1  0  0  0
 16 14  1  0  0  0  0
 18 19  1  0  0  0  0
 19  3  1  6  0  0  0
 19  8  1  0  0  0  0
 20 10  2  0  0  0  0
 21 10  1  0  0  0  0
 21  1  1  0  0  0  0
 22  8  1  1  0  0  0
 22 23  1  0  0  0  0
 22 11  1  0  0  0  0
 23 13  1  6  0  0  0
 23 15  1  0  0  0  0
 24 20  1  0  0  0  0
 25 30  2  0  0  0  0
 25 29  1  0  0  0  0
 26 28  1  0  0  0  0
 26 31  1  0  0  0  0
 27 28  2  0  0  0  0
 29 26  2  0  0  0  0
 30 27  1  0  0  0  0
 31 32  1  0  0  0  0
 32 33  2  0  0  0  0
 34 12  1  0  0  0  0
 35 34  1  0  0  0  0
 36 35  1  1  0  0  0
 36 38  1  0  0  0  0
 36 39  1  0  0  0  0
 38 37  2  0  0  0  0
 39 40  1  0  0  0  0
 40 41  1  1  0  0  0
 44 51  1  6  0  0  0
 44 40  1  0  0  0  0
 44 53  1  0  0  0  0
 46 44  1  0  0  0  0
 46 45  2  0  0  0  0
 47 49  1  0  0  0  0
 48 54  1  1  0  0  0
 48 52  1  0  0  0  0
 49 42  2  0  0  0  0
 50 43  1  6  0  0  0
 50 46  1  0  0  0  0
 50 48  1  0  0  0  0
 52 49  1  0  0  0  0
 53 47  1  0  0  0  0
 54 55  1  0  0  0  0
M  END
>  <MODEL>
4

>  <REMARK>
 VINA RESULT:      -7.2      1.937      2.800
  Name = 
  11 active torsions:
  status: ('A' for Active; 'I' for Inactive)
    1  A    between atoms: C_6  and  C_20
    2  A    between atoms: C_8  and  C_43
    3  A    between atoms: O_10  and  C_18
    4  A    between atoms: O_10  and  C_32
    5  A    between atoms: O_11  and  C_29
    6  A    between atoms: C_20  and  C_22
    7  A    between atoms: C_22  and  C_43
    8  A    between atoms: C_27  and  O_54
    9  A    between atoms: C_33  and  C_52
   10  A    between atoms: C_43  and  C_51
   11  A    between atoms: C_51  and  O_54
                            x       y       z     vdW  Elec       q    Type
                         _______ _______ _______ _____ _____    ______ ____

>  <TORSDO>
F 11

$$$$
=
 OpenBabel10262420333D

 55 60  0  0  1  0  0  0  0  0999 V2000
  188.0620  176.7170  138.6840 C   0  0  0  0  0  3  0  0  0  0  0  0
  189.1950  178.4080  141.3950 S   0  0  0  0  0  0  0  0  0  0  0  0
  192.2910  177.4960  140.2070 C   0  0  0  0  0  1  0  0  0  0  0  0
  193.3270  176.3920  137.3630 C   0  0  0  0  0  2  0  0  0  0  0  0
  194.4960  175.8380  136.5440 C   0  0  0  0  0  2  0  0  0  0  0  0
  191.8700  175.3180  135.6450 C   0  0  2  0  0  3  0  0  0  0  0  0
  193.1710  174.8480  135.0000 C   0  0  0  0  0  2  0  0  0  0  0  0
  191.0150  175.8010  139.0960 O   0  0  0  0  0  0  0  0  0  0  0  0
  194.1630  175.8340  135.1720 O   0  0  0  0  0  0  0  0  0  0  0  0
  186.1650  178.1380  137.9050 C   0  0  0  0  0  3  0  0  0  0  0  0
  192.0950  175.5070  137.1380 C   0  0  2  0  0  3  0  0  0  0  0  0
  185.6020  178.9020  140.5530 C   0  0  0  0  0  0  0  0  0  0  0  0
  188.5080  176.4080  137.4740 C   0  0  0  0  0  3  0  0  0  0  0  0
  186.7210  178.0780  140.2730 C   0  0  0  0  0  0  0  0  0  0  0  0
  189.6710  174.9860  135.8290 C   0  0  2  0  0  3  0  0  0  0  0  0
  187.6030  177.7010  141.2940 O   0  0  0  0  0  0  0  0  0  0  0  0
  190.8770  174.3560  135.4870 O   0  0  0  0  0  0  0  0  0  0  0  0
  190.0360  176.8390  141.0090 C   0  0  0  0  0  2  0  0  0  0  0  0
  190.9130  177.0200  139.7770 C   0  0  1  0  0  3  0  0  0  0  0  0
  185.1090  179.0070  138.1750 C   0  0  0  0  0  3  0  0  0  0  0  0
  186.9830  177.6760  138.9480 C   0  0  0  0  0  0  0  0  0  0  0  0
  190.9030  176.0920  137.7730 N   0  0  1  0  0  0  0  0  0  0  0  0
  189.6430  175.4430  137.3120 C   0  0  1  0  0  3  0  0  0  0  0  0
  184.8360  179.3870  139.4920 C   0  0  0  0  0  3  0  0  0  0  0  0
  188.6230  172.7030  135.9740 C   0  0  0  0  0  3  0  0  0  0  0  0
  186.4330  172.2580  135.0180 C   0  0  0  0  0  0  0  0  0  0  0  0
  187.4000  174.4790  134.8630 C   0  0  0  0  0  3  0  0  0  0  0  0
  186.3530  173.5960  134.5960 C   0  0  0  0  0  3  0  0  0  0  0  0
  187.5750  171.8160  135.7000 C   0  0  0  0  0  3  0  0  0  0  0  0
  188.5380  174.0410  135.5600 C   0  0  0  0  0  0  0  0  0  0  0  0
  185.3990  171.3490  134.7630 O   0  0  0  0  0  0  0  0  0  0  0  0
  184.1180  171.4970  135.2970 C   0  0  0  0  0  3  0  0  0  0  0  0
  183.9440  171.5530  136.6040 C   0  0  0  0  0  2  0  0  0  0  0  0
  185.1960  179.2540  141.8460 O   0  0  0  0  0  0  0  0  0  0  0  0
  184.4150  178.4330  142.7080 C   0  0  0  0  0  2  0  0  0  0  0  0
  183.1430  179.1550  143.1510 C   0  0  2  0  0  3  0  0  0  0  0  0
  184.0390  179.3720  145.3390 O   0  0  0  0  0  0  0  0  0  0  0  0
  183.0440  179.2350  144.6480 C   0  0  0  0  0  3  0  0  0  0  0  0
  181.8540  178.6330  142.4940 C   0  0  0  0  0  2  0  0  0  0  0  0
  182.0000  178.4120  140.9890 C   0  0  1  0  0  3  0  0  0  0  0  0
  182.4590  177.1190  140.7200 O   0  0  0  0  0  1  0  0  0  0  0  0
  180.1960  182.7040  138.3270 C   0  0  0  0  0  2  0  0  0  0  0  0
  179.1860  177.0420  137.5000 O   0  0  0  0  0  1  0  0  0  0  0  0
  180.7130  178.7420  140.2020 C   0  0  1  0  0  0  0  0  0  0  0  0
  181.8590  178.0780  138.1980 O   0  0  0  0  0  0  0  0  0  0  0  0
  180.7900  178.3430  138.7370 C   0  0  0  0  0  0  0  0  0  0  0  0
  179.5030  180.7410  139.4030 O   0  0  0  0  0  0  0  0  0  0  0  0
  179.4410  179.3700  136.7910 C   0  0  1  0  0  3  0  0  0  0  0  0
  179.9400  181.4050  138.2640 C   0  0  0  0  0  0  0  0  0  0  0  0
  179.5180  178.3320  137.9340 C   0  0  1  0  0  3  0  0  0  0  0  0
  179.6510  178.0490  140.7910 O   0  0  0  0  0  1  0  0  0  0  0  0
  180.2760  180.6490  137.0110 C   0  0  0  0  0  2  0  0  0  0  0  0
  180.4460  180.2470  140.3610 C   0  0  0  0  0  2  0  0  0  0  0  0
  179.7830  178.7870  135.5670 O   0  0  0  0  0  0  0  0  0  0  0  0
  180.6510  179.7080  134.9790 C   0  0  0  0  0  1  0  0  0  0  0  0
  1 21  1  0  0  0  0
  5  4  1  0  0  0  0
  6  7  1  6  0  0  0
  6 11  1  0  0  0  0
  7  9  1  0  0  0  0
  8 19  1  0  0  0  0
  9  5  1  0  0  0  0
 10 20  2  0  0  0  0
 10 21  1  0  0  0  0
 11  4  1  6  0  0  0
 11 22  1  0  0  0  0
 12 34  1  0  0  0  0
 13  1  2  0  0  0  0
 14 12  1  0  0  0  0
 14 16  1  0  0  0  0
 15 30  1  1  0  0  0
 15 23  1  0  0  0  0
 16  2  1  0  0  0  0
 17  6  1  0  0  0  0
 17 15  1  0  0  0  0
 18  2  1  0  0  0  0
 19  3  1  1  0  0  0
 19 18  1  0  0  0  0
 20 24  1  0  0  0  0
 21 14  2  0  0  0  0
 22  8  1  1  0  0  0
 23 13  1  6  0  0  0
 23 22  1  0  0  0  0
 24 12  2  0  0  0  0
 26 29  2  0  0  0  0
 27 30  1  0  0  0  0
 28 27  2  0  0  0  0
 28 26  1  0  0  0  0
 29 25  1  0  0  0  0
 30 25  2  0  0  0  0
 31 26  1  0  0  0  0
 31 32  1  0  0  0  0
 32 33  2  0  0  0  0
 34 35  1  0  0  0  0
 35 36  1  0  0  0  0
 36 39  1  1  0  0  0
 36 38  1  0  0  0  0
 38 37  2  0  0  0  0
 40 41  1  1  0  0  0
 40 39  1  0  0  0  0
 44 53  1  0  0  0  0
 44 51  1  1  0  0  0
 44 40  1  0  0  0  0
 45 46  2  0  0  0  0
 46 44  1  0  0  0  0
 47 53  1  0  0  0  0
 48 54  1  6  0  0  0
 48 52  1  0  0  0  0
 48 50  1  0  0  0  0
 49 42  2  0  0  0  0
 49 47  1  0  0  0  0
 50 43  1  6  0  0  0
 50 46  1  0  0  0  0
 52 49  1  0  0  0  0
 55 54  1  0  0  0  0
M  END
>  <MODEL>
5

>  <REMARK>
 VINA RESULT:      -6.6      3.157     12.458
  Name = 
  11 active torsions:
  status: ('A' for Active; 'I' for Inactive)
    1  A    between atoms: C_6  and  C_20
    2  A    between atoms: C_8  and  C_43
    3  A    between atoms: O_10  and  C_18
    4  A    between atoms: O_10  and  C_32
    5  A    between atoms: O_11  and  C_29
    6  A    between atoms: C_20  and  C_22
    7  A    between atoms: C_22  and  C_43
    8  A    between atoms: C_27  and  O_54
    9  A    between atoms: C_33  and  C_52
   10  A    between atoms: C_43  and  C_51
   11  A    between atoms: C_51  and  O_54
                            x       y       z     vdW  Elec       q    Type
                         _______ _______ _______ _____ _____    ______ ____

>  <TORSDO>
F 11

$$$$
=
 OpenBabel10262420333D

 55 60  0  0  1  0  0  0  0  0999 V2000
  186.7220  177.0170  138.3270 C   0  0  0  0  0  3  0  0  0  0  0  0
  187.0410  175.2110  135.4760 S   0  0  0  0  0  0  0  0  0  0  0  0
  183.8100  176.2430  134.9020 C   0  0  0  0  0  1  0  0  0  0  0  0
  181.9760  178.5680  136.1720 C   0  0  0  0  0  2  0  0  0  0  0  0
  180.5950  179.2240  136.2450 C   0  0  0  0  0  2  0  0  0  0  0  0
  182.3900  179.6480  138.3830 C   0  0  2  0  0  3  0  0  0  0  0  0
  180.9660  180.1850  138.2590 C   0  0  0  0  0  2  0  0  0  0  0  0
  183.8230  176.5500  137.2770 O   0  0  0  0  0  0  0  0  0  0  0  0
  180.6880  180.4680  136.9070 O   0  0  0  0  0  0  0  0  0  0  0  0
  188.9600  178.0960  138.5460 C   0  0  0  0  0  3  0  0  0  0  0  0
  182.5020  178.3510  137.5960 C   0  0  2  0  0  3  0  0  0  0  0  0
  190.1920  175.8700  137.3460 C   0  0  0  0  0  0  0  0  0  0  0  0
  186.0220  178.0640  138.7430 C   0  0  0  0  0  3  0  0  0  0  0  0
  188.7800  175.9240  137.4640 C   0  0  0  0  0  0  0  0  0  0  0  0
  184.0730  179.1710  139.7690 C   0  0  2  0  0  3  0  0  0  0  0  0
  187.9790  174.9140  136.9160 O   0  0  0  0  0  0  0  0  0  0  0  0
  182.6840  179.3610  139.7130 O   0  0  0  0  0  0  0  0  0  0  0  0
  185.4490  175.0700  136.3500 C   0  0  0  0  0  2  0  0  0  0  0  0
  184.6490  176.3530  136.1640 C   0  0  1  0  0  3  0  0  0  0  0  0
  190.3420  178.0720  138.3630 C   0  0  0  0  0  3  0  0  0  0  0  0
  188.1700  177.0300  138.0900 C   0  0  0  0  0  0  0  0  0  0  0  0
  183.8940  177.8740  137.5770 N   0  0  1  0  0  0  0  0  0  0  0  0
  184.5380  177.9590  138.9180 C   0  0  1  0  0  3  0  0  0  0  0  0
  190.9490  176.9660  137.7630 C   0  0  0  0  0  3  0  0  0  0  0  0
  185.8350  178.8610  141.5370 C   0  0  0  0  0  3  0  0  0  0  0  0
  185.2380  178.5800  143.8780 C   0  0  0  0  0  0  0  0  0  0  0  0
  183.5040  178.8860  142.2070 C   0  0  0  0  0  3  0  0  0  0  0  0
  183.8790  178.6910  143.5360 C   0  0  0  0  0  3  0  0  0  0  0  0
  186.2100  178.6590  142.8710 C   0  0  0  0  0  3  0  0  0  0  0  0
  184.4790  178.9810  141.2000 C   0  0  0  0  0  0  0  0  0  0  0  0
  185.6440  178.3810  145.2020 O   0  0  0  0  0  0  0  0  0  0  0  0
  186.5480  177.3840  145.5710 C   0  0  0  0  0  3  0  0  0  0  0  0
  187.8100  177.6860  145.8110 C   0  0  0  0  0  2  0  0  0  0  0  0
  190.8920  174.7640  136.8470 O   0  0  0  0  0  0  0  0  0  0  0  0
  191.7120  174.7740  135.6840 C   0  0  0  0  0  2  0  0  0  0  0  0
  191.5320  173.4910  134.8730 C   0  0  2  0  0  3  0  0  0  0  0  0
  189.4870  172.2970  134.6990 O   0  0  0  0  0  0  0  0  0  0  0  0
  190.4120  172.6480  135.4130 C   0  0  0  0  0  3  0  0  0  0  0  0
  192.8280  172.6920  134.6520 C   0  0  0  0  0  2  0  0  0  0  0  0
  193.7540  172.7110  135.8670 C   0  0  1  0  0  3  0  0  0  0  0  0
  193.6160  171.5360  136.6140 O   0  0  0  0  0  1  0  0  0  0  0  0
  196.7170  177.1370  135.2460 C   0  0  0  0  0  2  0  0  0  0  0  0
  198.2160  171.7960  136.9710 O   0  0  0  0  0  1  0  0  0  0  0  0
  195.2280  172.9900  135.5010 C   0  0  1  0  0  0  0  0  0  0  0  0
  195.7150  173.0890  137.8510 O   0  0  0  0  0  0  0  0  0  0  0  0
  196.1510  173.0050  136.7080 C   0  0  0  0  0  0  0  0  0  0  0  0
  196.5930  174.8710  134.6660 O   0  0  0  0  0  0  0  0  0  0  0  0
  198.4130  174.2340  136.9000 C   0  0  1  0  0  3  0  0  0  0  0  0
  196.9950  175.8750  135.5370 C   0  0  0  0  0  0  0  0  0  0  0  0
  197.6360  172.9690  136.4700 C   0  0  1  0  0  3  0  0  0  0  0  0
  195.6590  171.9870  134.6300 O   0  0  0  0  0  1  0  0  0  0  0  0
  197.5970  175.5440  136.8720 C   0  0  0  0  0  2  0  0  0  0  0  0
  195.2710  174.3280  134.7450 C   0  0  0  0  0  2  0  0  0  0  0  0
  198.9850  174.0600  138.1640 O   0  0  0  0  0  0  0  0  0  0  0  0
  198.6610  175.2310  138.8510 C   0  0  0  0  0  1  0  0  0  0  0  0
  1 13  2  0  0  0  0
  2 18  1  0  0  0  0
  2 16  1  0  0  0  0
  4  5  1  0  0  0  0
  5  9  1  0  0  0  0
  6  7  1  1  0  0  0
  6 17  1  0  0  0  0
  9  7  1  0  0  0  0
 11  4  1  6  0  0  0
 11  6  1  0  0  0  0
 12 14  2  0  0  0  0
 12 24  1  0  0  0  0
 14 21  1  0  0  0  0
 15 30  1  1  0  0  0
 16 14  1  0  0  0  0
 17 15  1  0  0  0  0
 19  3  1  6  0  0  0
 19 18  1  0  0  0  0
 19  8  1  0  0  0  0
 20 10  1  0  0  0  0
 21  1  1  0  0  0  0
 21 10  2  0  0  0  0
 22  8  1  1  0  0  0
 22 11  1  0  0  0  0
 22 23  1  0  0  0  0
 23 13  1  6  0  0  0
 23 15  1  0  0  0  0
 24 20  2  0  0  0  0
 25 29  1  0  0  0  0
 26 31  1  0  0  0  0
 27 28  2  0  0  0  0
 28 26  1  0  0  0  0
 29 26  2  0  0  0  0
 30 25  2  0  0  0  0
 30 27  1  0  0  0  0
 31 32  1  0  0  0  0
 32 33  2  0  0  0  0
 34 12  1  0  0  0  0
 35 34  1  0  0  0  0
 36 39  1  1  0  0  0
 36 38  1  0  0  0  0
 36 35  1  0  0  0  0
 37 38  2  0  0  0  0
 39 40  1  0  0  0  0
 40 41  1  6  0  0  0
 42 49  2  0  0  0  0
 44 51  1  6  0  0  0
 44 40  1  0  0  0  0
 44 46  1  0  0  0  0
 46 45  2  0  0  0  0
 47 53  1  0  0  0  0
 47 49  1  0  0  0  0
 48 54  1  1  0  0  0
 49 52  1  0  0  0  0
 50 46  1  0  0  0  0
 50 48  1  0  0  0  0
 50 43  1  1  0  0  0
 52 48  1  0  0  0  0
 53 44  1  0  0  0  0
 54 55  1  0  0  0  0
M  END
>  <MODEL>
6

>  <REMARK>
 VINA RESULT:      -6.4      1.547      2.498
  Name = 
  11 active torsions:
  status: ('A' for Active; 'I' for Inactive)
    1  A    between atoms: C_6  and  C_20
    2  A    between atoms: C_8  and  C_43
    3  A    between atoms: O_10  and  C_18
    4  A    between atoms: O_10  and  C_32
    5  A    between atoms: O_11  and  C_29
    6  A    between atoms: C_20  and  C_22
    7  A    between atoms: C_22  and  C_43
    8  A    between atoms: C_27  and  O_54
    9  A    between atoms: C_33  and  C_52
   10  A    between atoms: C_43  and  C_51
   11  A    between atoms: C_51  and  O_54
                            x       y       z     vdW  Elec       q    Type
                         _______ _______ _______ _____ _____    ______ ____

>  <TORSDO>
F 11

$$$$
=
 OpenBabel10262420333D

 55 60  0  0  1  0  0  0  0  0999 V2000
  186.3710  175.2870  136.4010 C   0  0  0  0  0  3  0  0  0  0  0  0
  188.3950  173.0000  134.9300 S   0  0  0  0  0  0  0  0  0  0  0  0
  185.5650  171.0460  134.9290 C   0  0  0  0  0  1  0  0  0  0  0  0
  182.4340  171.6930  135.3260 C   0  0  0  0  0  2  0  0  0  0  0  0
  181.0130  171.1430  135.4710 C   0  0  0  0  0  2  0  0  0  0  0  0
  181.5420  173.7470  136.4280 C   0  0  2  0  0  3  0  0  0  0  0  0
  180.2130  172.9980  136.4890 C   0  0  0  0  0  2  0  0  0  0  0  0
  184.9130  172.5440  136.6790 O   0  0  0  0  0  0  0  0  0  0  0  0
  180.0760  172.1910  135.3420 O   0  0  0  0  0  0  0  0  0  0  0  0
  187.1000  177.4260  135.3430 C   0  0  0  0  0  3  0  0  0  0  0  0
  182.6800  172.7370  136.4210 C   0  0  2  0  0  3  0  0  0  0  0  0
  189.7360  176.4670  135.1360 C   0  0  0  0  0  0  0  0  0  0  0  0
  185.0760  175.5750  136.4150 C   0  0  0  0  0  3  0  0  0  0  0  0
  188.7110  175.6250  135.6340 C   0  0  0  0  0  0  0  0  0  0  0  0
  182.7700  175.4080  137.2710 C   0  0  2  0  0  3  0  0  0  0  0  0
  188.9770  174.2880  135.9530 O   0  0  0  0  0  0  0  0  0  0  0  0
  181.6970  174.5500  137.5530 O   0  0  0  0  0  0  0  0  0  0  0  0
  187.2430  172.3690  136.1910 C   0  0  0  0  0  2  0  0  0  0  0  0
  185.8260  172.3680  135.6320 C   0  0  1  0  0  3  0  0  0  0  0  0
  188.0960  178.2260  134.7860 C   0  0  0  0  0  3  0  0  0  0  0  0
  187.3970  176.1200  135.7610 C   0  0  0  0  0  0  0  0  0  0  0  0
  183.9730  173.4130  136.2240 N   0  0  1  0  0  0  0  0  0  0  0  0
  184.1020  174.6390  137.0620 C   0  0  1  0  0  3  0  0  0  0  0  0
  189.4030  177.7450  134.6820 C   0  0  0  0  0  3  0  0  0  0  0  0
  182.6020  176.0070  139.7090 C   0  0  0  0  0  3  0  0  0  0  0  0
  183.1400  178.2440  140.4980 C   0  0  0  0  0  0  0  0  0  0  0  0
  183.3260  177.7080  138.1370 C   0  0  0  0  0  3  0  0  0  0  0  0
  183.4430  178.6270  139.1790 C   0  0  0  0  0  3  0  0  0  0  0  0
  182.7130  176.9330  140.7540 C   0  0  0  0  0  3  0  0  0  0  0  0
  182.9140  176.3900  138.3960 C   0  0  0  0  0  0  0  0  0  0  0  0
  183.2460  179.1450  141.5630 O   0  0  0  0  0  0  0  0  0  0  0  0
  183.6950  178.7650  142.8290 C   0  0  0  0  0  3  0  0  0  0  0  0
  183.1350  179.2700  143.9120 C   0  0  0  0  0  2  0  0  0  0  0  0
  191.0880  176.1050  135.0850 O   0  0  0  0  0  0  0  0  0  0  0  0
  191.6460  174.9460  135.6970 C   0  0  0  0  0  2  0  0  0  0  0  0
  192.2930  175.2910  137.0380 C   0  0  2  0  0  3  0  0  0  0  0  0
  193.9570  173.5980  137.0300 O   0  0  0  0  0  0  0  0  0  0  0  0
  193.0230  174.1140  137.6200 C   0  0  0  0  0  3  0  0  0  0  0  0
  191.3460  175.9640  138.0460 C   0  0  0  0  0  2  0  0  0  0  0  0
  192.0440  176.3600  139.3460 C   0  0  1  0  0  3  0  0  0  0  0  0
  193.3700  176.7320  139.1040 O   0  0  0  0  0  1  0  0  0  0  0  0
  187.0050  178.1940  139.3340 C   0  0  0  0  0  2  0  0  0  0  0  0
  190.9050  177.8860  143.6290 O   0  0  0  0  0  1  0  0  0  0  0  0
  191.2790  177.4420  140.1390 C   0  0  1  0  0  0  0  0  0  0  0  0
  190.5650  175.7210  141.6540 O   0  0  0  0  0  0  0  0  0  0  0  0
  190.6790  176.9220  141.4350 C   0  0  0  0  0  0  0  0  0  0  0  0
  189.2000  178.7590  139.9230 O   0  0  0  0  0  0  0  0  0  0  0  0
  188.6450  177.8980  142.6890 C   0  0  1  0  0  3  0  0  0  0  0  0
  187.9780  178.1790  140.2330 C   0  0  0  0  0  0  0  0  0  0  0  0
  190.1700  177.9220  142.4370 C   0  0  1  0  0  3  0  0  0  0  0  0
  192.1730  178.4700  140.4500 O   0  0  0  0  0  1  0  0  0  0  0  0
  187.7930  177.4000  141.5030 C   0  0  0  0  0  2  0  0  0  0  0  0
  190.1960  178.0160  139.2100 C   0  0  0  0  0  2  0  0  0  0  0  0
  188.3440  177.1520  143.8340 O   0  0  0  0  0  0  0  0  0  0  0  0
  186.9980  177.4300  144.0790 C   0  0  0  0  0  1  0  0  0  0  0  0
  1 13  2  0  0  0  0
  2 16  1  0  0  0  0
  2 18  1  0  0  0  0
  4  5  1  0  0  0  0
  6  7  1  1  0  0  0
  6 17  1  0  0  0  0
  9  5  1  0  0  0  0
  9  7  1  0  0  0  0
 10 21  1  0  0  0  0
 11  4  1  6  0  0  0
 11  6  1  0  0  0  0
 12 14  1  0  0  0  0
 14 21  2  0  0  0  0
 14 16  1  0  0  0  0
 15 17  1  0  0  0  0
 15 30  1  1  0  0  0
 19  3  1  1  0  0  0
 19 18  1  0  0  0  0
 19  8  1  0  0  0  0
 20 10  2  0  0  0  0
 21  1  1  0  0  0  0
 22 11  1  0  0  0  0
 22  8  1  1  0  0  0
 22 23  1  0  0  0  0
 23 13  1  6  0  0  0
 23 15  1  0  0  0  0
 24 20  1  0  0  0  0
 24 12  2  0  0  0  0
 25 29  1  0  0  0  0
 26 29  2  0  0  0  0
 26 31  1  0  0  0  0
 27 30  1  0  0  0  0
 27 28  2  0  0  0  0
 28 26  1  0  0  0  0
 30 25  2  0  0  0  0
 31 32  1  0  0  0  0
 32 33  2  0  0  0  0
 34 12  1  0  0  0  0
 34 35  1  0  0  0  0
 36 35  1  6  0  0  0
 36 38  1  0  0  0  0
 36 39  1  0  0  0  0
 37 38  2  0  0  0  0
 39 40  1  0  0  0  0
 40 41  1  6  0  0  0
 40 44  1  0  0  0  0
 42 49  2  0  0  0  0
 44 51  1  1  0  0  0
 44 46  1  0  0  0  0
 46 45  2  0  0  0  0
 46 50  1  0  0  0  0
 47 49  1  0  0  0  0
 48 54  1  1  0  0  0
 49 52  1  0  0  0  0
 50 48  1  0  0  0  0
 50 43  1  1  0  0  0
 52 48  1  0  0  0  0
 53 47  1  0  0  0  0
 53 44  1  0  0  0  0
 54 55  1  0  0  0  0
M  END
>  <MODEL>
7

>  <REMARK>
 VINA RESULT:      -6.3      3.028      6.525
  Name = 
  11 active torsions:
  status: ('A' for Active; 'I' for Inactive)
    1  A    between atoms: C_6  and  C_20
    2  A    between atoms: C_8  and  C_43
    3  A    between atoms: O_10  and  C_18
    4  A    between atoms: O_10  and  C_32
    5  A    between atoms: O_11  and  C_29
    6  A    between atoms: C_20  and  C_22
    7  A    between atoms: C_22  and  C_43
    8  A    between atoms: C_27  and  O_54
    9  A    between atoms: C_33  and  C_52
   10  A    between atoms: C_43  and  C_51
   11  A    between atoms: C_51  and  O_54
                            x       y       z     vdW  Elec       q    Type
                         _______ _______ _______ _____ _____    ______ ____

>  <TORSDO>
F 11

$$$$
=
 OpenBabel10262420333D

 55 60  0  0  1  0  0  0  0  0999 V2000
  185.7690  178.1650  140.9350 C   0  0  0  0  0  3  0  0  0  0  0  0
  183.7120  178.6550  143.5850 S   0  0  0  0  0  0  0  0  0  0  0  0
  186.6060  178.3330  145.4160 C   0  0  0  0  0  1  0  0  0  0  0  0
  189.7320  178.4650  144.6480 C   0  0  0  0  0  2  0  0  0  0  0  0
  191.1810  178.2980  145.1120 C   0  0  0  0  0  2  0  0  0  0  0  0
  190.6380  178.1410  142.3450 C   0  0  2  0  0  3  0  0  0  0  0  0
  191.9960  177.9840  143.0250 C   0  0  0  0  0  2  0  0  0  0  0  0
  187.3540  177.2020  143.4430 O   0  0  0  0  0  0  0  0  0  0  0  0
  192.0610  178.8350  144.1460 O   0  0  0  0  0  0  0  0  0  0  0  0
  184.8630  179.7520  139.2370 C   0  0  0  0  0  3  0  0  0  0  0  0
  189.5450  177.7250  143.3180 C   0  0  2  0  0  3  0  0  0  0  0  0
  182.2590  179.3930  140.2380 C   0  0  0  0  0  0  0  0  0  0  0  0
  187.0470  178.3670  140.6450 C   0  0  0  0  0  3  0  0  0  0  0  0
  183.3580  178.7640  140.8740 C   0  0  0  0  0  0  0  0  0  0  0  0
  189.4270  177.7330  140.5160 C   0  0  2  0  0  3  0  0  0  0  0  0
  183.1750  178.0250  142.0490 O   0  0  0  0  0  0  0  0  0  0  0  0
  190.5540  177.3070  141.2340 O   0  0  0  0  0  0  0  0  0  0  0  0
  184.9980  177.3810  143.7830 C   0  0  0  0  0  2  0  0  0  0  0  0
  186.3580  178.0480  143.9440 C   0  0  1  0  0  3  0  0  0  0  0  0
  183.7900  180.4270  138.6580 C   0  0  0  0  0  3  0  0  0  0  0  0
  184.6580  178.9250  140.3520 C   0  0  0  0  0  0  0  0  0  0  0  0
  188.2140  177.9920  142.7490 N   0  0  1  0  0  0  0  0  0  0  0  0
  188.1130  177.5630  141.3250 C   0  0  1  0  0  3  0  0  0  0  0  0
  182.4980  180.2490  139.1610 C   0  0  0  0  0  3  0  0  0  0  0  0
  188.2180  177.0750  138.4100 C   0  0  0  0  0  3  0  0  0  0  0  0
  189.1750  175.4670  136.8560 C   0  0  0  0  0  0  0  0  0  0  0  0
  190.3820  176.0800  138.8720 C   0  0  0  0  0  3  0  0  0  0  0  0
  190.3000  175.3430  137.6900 C   0  0  0  0  0  3  0  0  0  0  0  0
  188.1340  176.3300  137.2270 C   0  0  0  0  0  3  0  0  0  0  0  0
  189.3460  176.9560  139.2350 C   0  0  0  0  0  0  0  0  0  0  0  0
  189.0640  174.7400  135.6670 O   0  0  0  0  0  0  0  0  0  0  0  0
  189.2970  173.3650  135.6000 C   0  0  0  0  0  3  0  0  0  0  0  0
  188.5290  172.5270  136.2700 C   0  0  0  0  0  2  0  0  0  0  0  0
  180.9240  179.1970  140.6120 O   0  0  0  0  0  0  0  0  0  0  0  0
  180.3620  177.9500  141.0080 C   0  0  0  0  0  2  0  0  0  0  0  0
  179.7230  177.2330  139.8190 C   0  0  2  0  0  3  0  0  0  0  0  0
  179.0800  175.5800  141.3980 O   0  0  0  0  0  0  0  0  0  0  0  0
  179.0590  175.9510  140.2370 C   0  0  0  0  0  3  0  0  0  0  0  0
  180.6560  177.0550  138.6090 C   0  0  0  0  0  2  0  0  0  0  0  0
  179.9880  176.3280  137.4430 C   0  0  1  0  0  3  0  0  0  0  0  0
  178.9460  177.0960  136.9120 O   0  0  0  0  0  1  0  0  0  0  0  0
  185.0990  177.4870  136.3070 C   0  0  0  0  0  2  0  0  0  0  0  0
  182.0280  172.6400  135.3930 O   0  0  0  0  0  1  0  0  0  0  0  0
  180.9870  175.8820  136.3540 C   0  0  1  0  0  0  0  0  0  0  0  0
  181.7880  174.2090  137.8800 O   0  0  0  0  0  0  0  0  0  0  0  0
  181.7560  174.6250  136.7270 C   0  0  0  0  0  0  0  0  0  0  0  0
  183.1130  176.6690  135.3720 O   0  0  0  0  0  0  0  0  0  0  0  0
  184.0700  173.9160  135.8300 C   0  0  1  0  0  3  0  0  0  0  0  0
  184.3070  176.4560  136.0470 C   0  0  0  0  0  0  0  0  0  0  0  0
  182.5350  173.9210  135.6500 C   0  0  1  0  0  3  0  0  0  0  0  0
  180.2710  175.6280  135.1820 O   0  0  0  0  0  1  0  0  0  0  0  0
  184.6400  175.1100  136.6230 C   0  0  0  0  0  2  0  0  0  0  0  0
  181.9360  177.0620  136.0870 C   0  0  0  0  0  2  0  0  0  0  0  0
  184.4980  172.7160  136.4090 O   0  0  0  0  0  0  0  0  0  0  0  0
  185.1210  173.1110  137.5940 C   0  0  0  0  0  1  0  0  0  0  0  0
  2 18  1  0  0  0  0
  4  5  1  0  0  0  0
  6  7  1  1  0  0  0
  6 11  1  0  0  0  0
  7  9  1  0  0  0  0
  8 19  1  0  0  0  0
  9  5  1  0  0  0  0
 10 21  1  0  0  0  0
 11  4  1  1  0  0  0
 12 34  1  0  0  0  0
 12 14  1  0  0  0  0
 13  1  2  0  0  0  0
 14 16  1  0  0  0  0
 15 30  1  6  0  0  0
 15 17  1  0  0  0  0
 15 23  1  0  0  0  0
 16  2  1  0  0  0  0
 17  6  1  0  0  0  0
 18 19  1  0  0  0  0
 19  3  1  1  0  0  0
 20 24  1  0  0  0  0
 20 10  2  0  0  0  0
 21 14  2  0  0  0  0
 21  1  1  0  0  0  0
 22 11  1  0  0  0  0
 22  8  1  1  0  0  0
 23 13  1  6  0  0  0
 23 22  1  0  0  0  0
 24 12  2  0  0  0  0
 25 30  1  0  0  0  0
 26 29  1  0  0  0  0
 26 28  2  0  0  0  0
 27 30  2  0  0  0  0
 28 27  1  0  0  0  0
 29 25  2  0  0  0  0
 31 26  1  0  0  0  0
 32 31  1  0  0  0  0
 32 33  2  0  0  0  0
 34 35  1  0  0  0  0
 36 39  1  6  0  0  0
 36 38  1  0  0  0  0
 36 35  1  0  0  0  0
 38 37  2  0  0  0  0
 40 41  1  6  0  0  0
 40 39  1  0  0  0  0
 44 51  1  6  0  0  0
 44 46  1  0  0  0  0
 44 40  1  0  0  0  0
 46 45  2  0  0  0  0
 47 49  1  0  0  0  0
 47 53  1  0  0  0  0
 48 54  1  1  0  0  0
 48 52  1  0  0  0  0
 49 42  2  0  0  0  0
 49 52  1  0  0  0  0
 50 43  1  1  0  0  0
 50 48  1  0  0  0  0
 50 46  1  0  0  0  0
 53 44  1  0  0  0  0
 54 55  1  0  0  0  0
M  END
>  <MODEL>
8

>  <REMARK>
 VINA RESULT:      -6.2      4.339     10.818
  Name = 
  11 active torsions:
  status: ('A' for Active; 'I' for Inactive)
    1  A    between atoms: C_6  and  C_20
    2  A    between atoms: C_8  and  C_43
    3  A    between atoms: O_10  and  C_18
    4  A    between atoms: O_10  and  C_32
    5  A    between atoms: O_11  and  C_29
    6  A    between atoms: C_20  and  C_22
    7  A    between atoms: C_22  and  C_43
    8  A    between atoms: C_27  and  O_54
    9  A    between atoms: C_33  and  C_52
   10  A    between atoms: C_43  and  C_51
   11  A    between atoms: C_51  and  O_54
                            x       y       z     vdW  Elec       q    Type
                         _______ _______ _______ _____ _____    ______ ____

>  <TORSDO>
F 11

$$$$
