=
 OpenBabel10262420493D

 28 31  0  0  1  0  0  0  0  0999 V2000
  187.1800  177.5650  145.0640 C   0  0  1  0  0  3  0  0  0  0  0  0
  183.3700  179.0680  145.6930 O   0  0  0  0  0  0  0  0  0  0  0  0
  186.2810  178.7900  141.5090 C   0  0  2  0  0  3  0  0  0  0  0  0
  185.1010  178.6200  144.1130 C   0  0  0  0  0  0  0  0  0  0  0  0
  186.9830  177.9430  142.5640 C   0  0  0  0  0  2  0  0  0  0  0  0
  185.4530  178.4510  146.6220 C   0  0  0  0  0  3  0  0  0  0  0  0
  184.2920  178.7770  143.0540 C   0  0  0  0  0  3  0  0  0  0  0  0
  184.5660  178.7310  145.4840 C   0  0  0  0  0  0  0  0  0  0  0  0
  184.7650  178.6300  141.6340 C   0  0  0  0  0  2  0  0  0  0  0  0
  186.6740  177.9450  146.4350 C   0  0  0  0  0  3  0  0  0  0  0  0
  186.6010  178.4580  143.9530 C   0  0  2  0  0  3  0  0  0  0  0  0
  185.8720  178.3770  139.1260 C   0  0  0  0  0  3  0  0  0  0  0  0
  188.7710  177.3820  139.0940 C   0  0  0  0  0  3  0  0  0  0  0  0
  186.9040  176.8030  137.5420 C   0  0  0  0  0  0  0  0  0  0  0  0
  186.7600  178.4550  140.1270 C   0  0  0  0  0  0  0  0  0  0  0  0
  189.0570  178.9250  140.7770 F   0  0  0  0  0  0  0  0  0  0  0  0
  188.0670  176.5180  138.1260 C   0  0  0  0  0  3  0  0  0  0  0  0
  188.2200  178.2670  139.9370 C   0  0  0  0  0  0  0  0  0  0  0  0
  186.3100  175.8190  136.6000 C   0  0  0  0  0  1  0  0  0  0  0  0
  186.2450  178.1320  137.7030 C   0  0  0  0  0  2  0  0  0  0  0  0
  188.6830  177.5240  145.0470 C   0  0  0  0  0  0  0  0  0  0  0  0
  189.3430  178.0220  143.9190 C   0  0  0  0  0  3  0  0  0  0  0  0
  190.8360  177.0050  146.0550 C   0  0  0  0  0  0  0  0  0  0  0  0
  190.7380  178.0130  143.8560 C   0  0  0  0  0  3  0  0  0  0  0  0
  188.7960  176.5090  147.2540 O   0  0  0  0  0  1  0  0  0  0  0  0
  189.4350  177.0100  146.1240 C   0  0  0  0  0  0  0  0  0  0  0  0
  191.8000  176.3750  147.3780 Cl  0  0  0  0  0  0  0  0  0  0  0  0
  191.4830  177.5060  144.9220 C   0  0  0  0  0  3  0  0  0  0  0  0
  1 21  1  1  0  0  0
  1 10  1  0  0  0  0
  3 15  1  6  0  0  0
  3  9  1  0  0  0  0
  3  5  1  0  0  0  0
  4  8  1  0  0  0  0
  7  4  2  0  0  0  0
  8  2  2  0  0  0  0
  8  6  1  0  0  0  0
  9  7  1  0  0  0  0
 10  6  2  0  0  0  0
 11  5  1  6  0  0  0
 11  4  1  0  0  0  0
 11  1  1  0  0  0  0
 12 15  2  0  0  0  0
 13 18  2  0  0  0  0
 14 20  1  0  0  0  0
 14 17  2  0  0  0  0
 17 13  1  0  0  0  0
 18 15  1  0  0  0  0
 18 16  1  0  0  0  0
 19 14  1  0  0  0  0
 20 12  1  0  0  0  0
 21 26  1  0  0  0  0
 22 21  2  0  0  0  0
 23 26  2  0  0  0  0
 23 27  1  0  0  0  0
 24 22  1  0  0  0  0
 24 28  2  0  0  0  0
 26 25  1  0  0  0  0
 28 23  1  0  0  0  0
M  END
>  <MODEL>
1

>  <REMARK>
 VINA RESULT:     -11.0      0.000      0.000
  Name = 
  2 active torsions:
  status: ('A' for Active; 'I' for Inactive)
    1  A    between atoms: C_1  and  C_2
    2  A    between atoms: C_10  and  C_13
                            x       y       z     vdW  Elec       q    Type
                         _______ _______ _______ _____ _____    ______ ____

>  <TORSDO>
F 2

$$$$
=
 OpenBabel10262420493D

 28 31  0  0  1  0  0  0  0  0999 V2000
  188.7620  177.1950  145.4250 C   0  0  1  0  0  3  0  0  0  0  0  0
  187.1240  177.7560  149.1890 O   0  0  0  0  0  0  0  0  0  0  0  0
  185.4470  178.9660  144.5220 C   0  0  2  0  0  3  0  0  0  0  0  0
  186.8400  178.0070  146.8340 C   0  0  0  0  0  0  0  0  0  0  0  0
  186.6550  178.0620  144.3120 C   0  0  0  0  0  2  0  0  0  0  0  0
  189.0590  177.3670  147.8900 C   0  0  0  0  0  3  0  0  0  0  0  0
  185.5210  178.2320  146.9310 C   0  0  0  0  0  3  0  0  0  0  0  0
  187.6380  177.7110  148.0400 C   0  0  0  0  0  0  0  0  0  0  0  0
  184.6450  178.4920  145.7360 C   0  0  0  0  0  2  0  0  0  0  0  0
  189.5940  177.1610  146.6840 C   0  0  0  0  0  3  0  0  0  0  0  0
  187.5830  178.1790  145.5220 C   0  0  2  0  0  3  0  0  0  0  0  0
  183.2620  178.9220  143.4070 C   0  0  0  0  0  3  0  0  0  0  0  0
  184.9050  178.7550  140.8250 C   0  0  0  0  0  3  0  0  0  0  0  0
  182.5590  178.0090  141.2340 C   0  0  0  0  0  0  0  0  0  0  0  0
  184.5930  179.0390  143.2910 C   0  0  0  0  0  0  0  0  0  0  0  0
  186.4510  179.9680  142.0230 F   0  0  0  0  0  0  0  0  0  0  0  0
  183.7060  177.9360  140.5600 C   0  0  0  0  0  3  0  0  0  0  0  0
  185.2790  179.2850  141.9980 C   0  0  0  0  0  0  0  0  0  0  0  0
  181.4440  177.1010  140.8580 C   0  0  0  0  0  1  0  0  0  0  0  0
  182.3150  179.0600  142.2640 C   0  0  0  0  0  2  0  0  0  0  0  0
  189.6290  177.4490  144.2240 C   0  0  0  0  0  0  0  0  0  0  0  0
  190.6900  178.3510  144.3560 C   0  0  0  0  0  3  0  0  0  0  0  0
  190.2600  177.0790  141.9020 C   0  0  0  0  0  0  0  0  0  0  0  0
  191.5310  178.6180  143.2730 C   0  0  0  0  0  3  0  0  0  0  0  0
  188.3610  175.9080  142.8350 O   0  0  0  0  0  1  0  0  0  0  0  0
  189.4120  176.8070  142.9870 C   0  0  0  0  0  0  0  0  0  0  0  0
  190.0170  176.2950  140.3520 Cl  0  0  0  0  0  0  0  0  0  0  0  0
  191.3160  177.9830  142.0490 C   0  0  0  0  0  3  0  0  0  0  0  0
  1 21  1  6  0  0  0
  1 11  1  0  0  0  0
  1 10  1  0  0  0  0
  3 15  1  6  0  0  0
  3  9  1  0  0  0  0
  4  7  2  0  0  0  0
  4  8  1  0  0  0  0
  5  3  1  0  0  0  0
  6  8  1  0  0  0  0
  8  2  2  0  0  0  0
  9  7  1  0  0  0  0
 10  6  2  0  0  0  0
 11  5  1  6  0  0  0
 11  4  1  0  0  0  0
 13 18  2  0  0  0  0
 14 20  1  0  0  0  0
 15 12  2  0  0  0  0
 17 13  1  0  0  0  0
 17 14  2  0  0  0  0
 18 16  1  0  0  0  0
 18 15  1  0  0  0  0
 19 14  1  0  0  0  0
 20 12  1  0  0  0  0
 21 22  1  0  0  0  0
 23 28  2  0  0  0  0
 23 26  1  0  0  0  0
 24 22  2  0  0  0  0
 25 26  1  0  0  0  0
 26 21  2  0  0  0  0
 27 23  1  0  0  0  0
 28 24  1  0  0  0  0
M  END
>  <MODEL>
2

>  <REMARK>
 VINA RESULT:     -10.9      2.772      4.108
  Name = 
  2 active torsions:
  status: ('A' for Active; 'I' for Inactive)
    1  A    between atoms: C_1  and  C_2
    2  A    between atoms: C_10  and  C_13
                            x       y       z     vdW  Elec       q    Type
                         _______ _______ _______ _____ _____    ______ ____

>  <TORSDO>
F 2

$$$$
=
 OpenBabel10262420493D

 28 31  0  0  1  0  0  0  0  0999 V2000
  186.0080  177.7550  145.4550 C   0  0  1  0  0  3  0  0  0  0  0  0
  182.4930  179.1590  143.7700 O   0  0  0  0  0  0  0  0  0  0  0  0
  187.2520  178.8230  141.9540 C   0  0  2  0  0  3  0  0  0  0  0  0
  184.8140  178.7090  143.4540 C   0  0  0  0  0  0  0  0  0  0  0  0
  187.2450  178.0370  143.2590 C   0  0  0  0  0  2  0  0  0  0  0  0
  183.6990  178.6410  145.7350 C   0  0  0  0  0  3  0  0  0  0  0  0
  184.7380  178.8040  142.1180 C   0  0  0  0  0  3  0  0  0  0  0  0
  183.6020  178.8520  144.2830 C   0  0  0  0  0  0  0  0  0  0  0  0
  185.9270  178.6210  141.2150 C   0  0  0  0  0  2  0  0  0  0  0  0
  184.8180  178.1670  146.2880 C   0  0  0  0  0  3  0  0  0  0  0  0
  186.1470  178.5890  144.1700 C   0  0  2  0  0  3  0  0  0  0  0  0
  188.2780  178.4180  139.7630 C   0  0  0  0  0  3  0  0  0  0  0  0
  190.6090  177.2690  141.3870 C   0  0  0  0  0  3  0  0  0  0  0  0
  189.9600  176.7820  139.0280 C   0  0  0  0  0  0  0  0  0  0  0  0
  188.4250  178.4540  141.0950 C   0  0  0  0  0  0  0  0  0  0  0  0
  189.9420  178.8050  142.9660 F   0  0  0  0  0  0  0  0  0  0  0  0
  190.5560  176.4380  140.1690 C   0  0  0  0  0  3  0  0  0  0  0  0
  189.7150  178.1880  141.7790 C   0  0  0  0  0  0  0  0  0  0  0  0
  189.9760  175.8250  137.8910 C   0  0  0  0  0  1  0  0  0  0  0  0
  189.3930  178.1440  138.8120 C   0  0  0  0  0  2  0  0  0  0  0  0
  187.2620  177.7600  146.2850 C   0  0  0  0  0  0  0  0  0  0  0  0
  187.2200  178.3740  147.5410 C   0  0  0  0  0  3  0  0  0  0  0  0
  189.5980  177.1910  146.6630 C   0  0  0  0  0  0  0  0  0  0  0  0
  188.3550  178.3990  148.3540 C   0  0  0  0  0  3  0  0  0  0  0  0
  188.5230  176.5480  144.5950 O   0  0  0  0  0  1  0  0  0  0  0  0
  188.4610  177.1630  145.8420 C   0  0  0  0  0  0  0  0  0  0  0  0
  191.1040  176.4560  146.1430 Cl  0  0  0  0  0  0  0  0  0  0  0  0
  189.5410  177.8090  147.9160 C   0  0  0  0  0  3  0  0  0  0  0  0
  1 21  1  1  0  0  0
  1 10  1  0  0  0  0
  2  8  2  0  0  0  0
  3 15  1  6  0  0  0
  3  5  1  0  0  0  0
  4 11  1  0  0  0  0
  4  8  1  0  0  0  0
  6 10  2  0  0  0  0
  7  4  2  0  0  0  0
  8  6  1  0  0  0  0
  9  3  1  0  0  0  0
  9  7  1  0  0  0  0
 11  5  1  6  0  0  0
 11  1  1  0  0  0  0
 12 15  2  0  0  0  0
 13 18  2  0  0  0  0
 14 17  2  0  0  0  0
 15 18  1  0  0  0  0
 17 13  1  0  0  0  0
 18 16  1  0  0  0  0
 19 14  1  0  0  0  0
 20 14  1  0  0  0  0
 20 12  1  0  0  0  0
 21 22  1  0  0  0  0
 22 24  2  0  0  0  0
 23 28  2  0  0  0  0
 25 26  1  0  0  0  0
 26 21  2  0  0  0  0
 26 23  1  0  0  0  0
 27 23  1  0  0  0  0
 28 24  1  0  0  0  0
M  END
>  <MODEL>
3

>  <REMARK>
 VINA RESULT:     -10.5      1.787      2.473
  Name = 
  2 active torsions:
  status: ('A' for Active; 'I' for Inactive)
    1  A    between atoms: C_1  and  C_2
    2  A    between atoms: C_10  and  C_13
                            x       y       z     vdW  Elec       q    Type
                         _______ _______ _______ _____ _____    ______ ____

>  <TORSDO>
F 2

$$$$
=
 OpenBabel10262420493D

 28 31  0  0  1  0  0  0  0  0999 V2000
  188.0330  177.1640  143.6700 C   0  0  1  0  0  3  0  0  0  0  0  0
  187.5090  177.7470  147.7390 O   0  0  0  0  0  0  0  0  0  0  0  0
  184.5870  178.9150  143.7200 C   0  0  2  0  0  3  0  0  0  0  0  0
  186.5770  177.9790  145.5550 C   0  0  0  0  0  0  0  0  0  0  0  0
  185.6940  178.0150  143.1850 C   0  0  0  0  0  2  0  0  0  0  0  0
  189.0060  177.3560  145.9530 C   0  0  0  0  0  3  0  0  0  0  0  0
  185.3360  178.1990  146.0160 C   0  0  0  0  0  3  0  0  0  0  0  0
  187.6810  177.6950  146.4910 C   0  0  0  0  0  0  0  0  0  0  0  0
  184.1590  178.4470  145.1130 C   0  0  0  0  0  2  0  0  0  0  0  0
  189.1840  177.1430  144.6460 C   0  0  0  0  0  3  0  0  0  0  0  0
  186.9220  178.1440  144.0870 C   0  0  2  0  0  3  0  0  0  0  0  0
  182.1770  179.0180  143.2720 C   0  0  0  0  0  3  0  0  0  0  0  0
  182.9840  178.4450  140.3700 C   0  0  0  0  0  3  0  0  0  0  0  0
  180.8030  178.0040  141.5010 C   0  0  0  0  0  0  0  0  0  0  0  0
  183.4220  178.9760  142.7760 C   0  0  0  0  0  0  0  0  0  0  0  0
  184.9040  179.5780  140.9410 F   0  0  0  0  0  0  0  0  0  0  0  0
  181.6960  177.7460  140.5470 C   0  0  0  0  0  3  0  0  0  0  0  0
  183.7230  179.0300  141.3240 C   0  0  0  0  0  0  0  0  0  0  0  0
  179.5560  177.1970  141.5590 C   0  0  0  0  0  1  0  0  0  0  0  0
  180.9540  179.1610  142.4310 C   0  0  0  0  0  2  0  0  0  0  0  0
  188.5280  177.4140  142.2730 C   0  0  0  0  0  0  0  0  0  0  0  0
  187.9010  178.4120  141.5190 C   0  0  0  0  0  3  0  0  0  0  0  0
  190.0240  176.9700  140.4040 C   0  0  0  0  0  0  0  0  0  0  0  0
  188.3280  178.6890  140.2190 C   0  0  0  0  0  3  0  0  0  0  0  0
  190.2350  175.6900  142.4450 O   0  0  0  0  0  1  0  0  0  0  0  0
  189.5990  176.6870  141.7110 C   0  0  0  0  0  0  0  0  0  0  0  0
  191.3530  176.0860  139.6780 Cl  0  0  0  0  0  0  0  0  0  0  0  0
  189.3870  177.9700  139.6620 C   0  0  0  0  0  3  0  0  0  0  0  0
  1 21  1  6  0  0  0
  1 11  1  0  0  0  0
  1 10  1  0  0  0  0
  3 15  1  6  0  0  0
  3  9  1  0  0  0  0
  4  7  2  0  0  0  0
  4  8  1  0  0  0  0
  5  3  1  0  0  0  0
  6  8  1  0  0  0  0
  8  2  2  0  0  0  0
  9  7  1  0  0  0  0
 10  6  2  0  0  0  0
 11  5  1  6  0  0  0
 11  4  1  0  0  0  0
 13 17  1  0  0  0  0
 13 18  2  0  0  0  0
 14 19  1  0  0  0  0
 14 20  1  0  0  0  0
 15 12  2  0  0  0  0
 16 18  1  0  0  0  0
 17 14  2  0  0  0  0
 18 15  1  0  0  0  0
 20 12  1  0  0  0  0
 22 21  2  0  0  0  0
 23 26  2  0  0  0  0
 24 22  1  0  0  0  0
 26 21  1  0  0  0  0
 26 25  1  0  0  0  0
 27 23  1  0  0  0  0
 28 24  2  0  0  0  0
 28 23  1  0  0  0  0
M  END
>  <MODEL>
4

>  <REMARK>
 VINA RESULT:     -10.4      2.728      4.843
  Name = 
  2 active torsions:
  status: ('A' for Active; 'I' for Inactive)
    1  A    between atoms: C_1  and  C_2
    2  A    between atoms: C_10  and  C_13
                            x       y       z     vdW  Elec       q    Type
                         _______ _______ _______ _____ _____    ______ ____

>  <TORSDO>
F 2

$$$$
=
 OpenBabel10262420493D

 28 31  0  0  1  0  0  0  0  0999 V2000
  182.6840  178.7100  140.6740 C   0  0  1  0  0  3  0  0  0  0  0  0
  180.0810  179.5620  143.7830 O   0  0  0  0  0  0  0  0  0  0  0  0
  184.9680  178.0880  143.7320 C   0  0  2  0  0  3  0  0  0  0  0  0
  182.2970  178.9460  143.1510 C   0  0  0  0  0  0  0  0  0  0  0  0
  184.6210  178.4380  142.2890 C   0  0  0  0  0  2  0  0  0  0  0  0
  180.3550  178.9590  141.5150 C   0  0  0  0  0  3  0  0  0  0  0  0
  182.8110  179.2300  144.3570 C   0  0  0  0  0  3  0  0  0  0  0  0
  180.8670  179.1820  142.8750 C   0  0  0  0  0  0  0  0  0  0  0  0
  184.2690  179.0570  144.6880 C   0  0  0  0  0  2  0  0  0  0  0  0
  181.1850  178.7060  140.5000 C   0  0  0  0  0  3  0  0  0  0  0  0
  183.1170  178.2530  142.0790 C   0  0  2  0  0  3  0  0  0  0  0  0
  187.2700  177.9790  142.8930 C   0  0  0  0  0  3  0  0  0  0  0  0
  188.0180  177.5750  145.8390 C   0  0  0  0  0  3  0  0  0  0  0  0
  189.2850  176.8970  143.7990 C   0  0  0  0  0  0  0  0  0  0  0  0
  186.4510  178.0690  143.9510 C   0  0  0  0  0  0  0  0  0  0  0  0
  186.1530  178.8640  146.2320 F   0  0  0  0  0  0  0  0  0  0  0  0
  188.9880  176.7530  145.0890 C   0  0  0  0  0  3  0  0  0  0  0  0
  186.9360  178.1970  145.3480 C   0  0  0  0  0  0  0  0  0  0  0  0
  190.2740  175.9760  143.1790 C   0  0  0  0  0  1  0  0  0  0  0  0
  188.7570  178.0330  142.9890 C   0  0  0  0  0  2  0  0  0  0  0  0
  183.3470  177.9200  139.5810 C   0  0  0  0  0  0  0  0  0  0  0  0
  182.8570  176.6390  139.3030 C   0  0  0  0  0  3  0  0  0  0  0  0
  185.0010  177.6480  137.8160 C   0  0  0  0  0  0  0  0  0  0  0  0
  183.4320  175.8670  138.2910 C   0  0  0  0  0  3  0  0  0  0  0  0
  184.9300  179.7000  139.0940 O   0  0  0  0  0  1  0  0  0  0  0  0
  184.4280  178.4290  138.8310 C   0  0  0  0  0  0  0  0  0  0  0  0
  186.3460  178.2540  136.8650 Cl  0  0  0  0  0  0  0  0  0  0  0  0
  184.5020  176.3700  137.5490 C   0  0  0  0  0  3  0  0  0  0  0  0
  1 21  1  6  0  0  0
  1 11  1  0  0  0  0
  3 15  1  6  0  0  0
  3  9  1  0  0  0  0
  4  7  2  0  0  0  0
  5  3  1  0  0  0  0
  6  8  1  0  0  0  0
  7  9  1  0  0  0  0
  8  4  1  0  0  0  0
  8  2  2  0  0  0  0
 10  1  1  0  0  0  0
 10  6  2  0  0  0  0
 11  5  1  1  0  0  0
 11  4  1  0  0  0  0
 12 20  1  0  0  0  0
 12 15  2  0  0  0  0
 14 17  2  0  0  0  0
 15 18  1  0  0  0  0
 17 13  1  0  0  0  0
 18 13  2  0  0  0  0
 18 16  1  0  0  0  0
 19 14  1  0  0  0  0
 20 14  1  0  0  0  0
 22 21  1  0  0  0  0
 23 26  1  0  0  0  0
 24 22  2  0  0  0  0
 26 25  1  0  0  0  0
 26 21  2  0  0  0  0
 27 23  1  0  0  0  0
 28 23  2  0  0  0  0
 28 24  1  0  0  0  0
M  END
>  <MODEL>
5

>  <REMARK>
 VINA RESULT:     -10.3      3.655      6.853
  Name = 
  2 active torsions:
  status: ('A' for Active; 'I' for Inactive)
    1  A    between atoms: C_1  and  C_2
    2  A    between atoms: C_10  and  C_13
                            x       y       z     vdW  Elec       q    Type
                         _______ _______ _______ _____ _____    ______ ____

>  <TORSDO>
F 2

$$$$
=
 OpenBabel10262420493D

 28 31  0  0  1  0  0  0  0  0999 V2000
  186.4890  178.4770  144.8080 C   0  0  1  0  0  3  0  0  0  0  0  0
  189.2870  177.0270  147.4980 O   0  0  0  0  0  0  0  0  0  0  0  0
  189.2460  177.2370  142.3980 C   0  0  2  0  0  3  0  0  0  0  0  0
  188.7480  177.4420  145.2120 C   0  0  0  0  0  0  0  0  0  0  0  0
  188.0660  178.0830  142.8610 C   0  0  0  0  0  2  0  0  0  0  0  0
  187.0390  177.6240  147.0810 C   0  0  0  0  0  3  0  0  0  0  0  0
  190.0140  177.2860  144.7970 C   0  0  0  0  0  3  0  0  0  0  0  0
  188.4150  177.3470  146.6460 C   0  0  0  0  0  0  0  0  0  0  0  0
  190.4260  177.4170  143.3560 C   0  0  0  0  0  2  0  0  0  0  0  0
  186.1340  178.1140  146.2300 C   0  0  0  0  0  3  0  0  0  0  0  0
  187.6000  177.5830  144.2300 C   0  0  2  0  0  3  0  0  0  0  0  0
  188.7520  178.1910  140.1930 C   0  0  0  0  0  3  0  0  0  0  0  0
  191.3130  176.7530  139.3150 C   0  0  0  0  0  3  0  0  0  0  0  0
  189.3640  177.4590  137.9260 C   0  0  0  0  0  0  0  0  0  0  0  0
  189.6290  177.5560  140.9830 C   0  0  0  0  0  0  0  0  0  0  0  0
  191.9700  177.1240  141.4890 F   0  0  0  0  0  0  0  0  0  0  0  0
  190.4190  176.6740  138.1440 C   0  0  0  0  0  3  0  0  0  0  0  0
  190.9970  177.1820  140.5460 C   0  0  0  0  0  0  0  0  0  0  0  0
  188.5460  177.2440  136.7030 C   0  0  0  0  0  1  0  0  0  0  0  0
  189.0550  178.6280  138.8000 C   0  0  0  0  0  2  0  0  0  0  0  0
  185.2580  178.5000  143.9440 C   0  0  0  0  0  0  0  0  0  0  0  0
  185.4080  178.2510  142.5760 C   0  0  0  0  0  3  0  0  0  0  0  0
  182.8600  178.7530  143.6160 C   0  0  0  0  0  0  0  0  0  0  0  0
  184.2970  178.2540  141.7310 C   0  0  0  0  0  3  0  0  0  0  0  0
  183.8040  179.0020  145.8280 O   0  0  0  0  0  1  0  0  0  0  0  0
  183.9740  178.7520  144.4690 C   0  0  0  0  0  0  0  0  0  0  0  0
  181.2490  179.0610  144.2380 Cl  0  0  0  0  0  0  0  0  0  0  0  0
  183.0250  178.5040  142.2500 C   0  0  0  0  0  3  0  0  0  0  0  0
  1 21  1  6  0  0  0
  1 10  1  0  0  0  0
  3 15  1  6  0  0  0
  3  5  1  0  0  0  0
  3  9  1  0  0  0  0
  4  8  1  0  0  0  0
  7  4  2  0  0  0  0
  8  6  1  0  0  0  0
  8  2  2  0  0  0  0
  9  7  1  0  0  0  0
 10  6  2  0  0  0  0
 11  5  1  6  0  0  0
 11  1  1  0  0  0  0
 11  4  1  0  0  0  0
 12 15  2  0  0  0  0
 13 18  2  0  0  0  0
 14 17  2  0  0  0  0
 14 20  1  0  0  0  0
 17 13  1  0  0  0  0
 18 15  1  0  0  0  0
 18 16  1  0  0  0  0
 19 14  1  0  0  0  0
 20 12  1  0  0  0  0
 21 26  1  0  0  0  0
 22 21  2  0  0  0  0
 23 27  1  0  0  0  0
 23 26  2  0  0  0  0
 24 28  2  0  0  0  0
 24 22  1  0  0  0  0
 26 25  1  0  0  0  0
 28 23  1  0  0  0  0
M  END
>  <MODEL>
6

>  <REMARK>
 VINA RESULT:     -10.2      2.642      4.907
  Name = 
  2 active torsions:
  status: ('A' for Active; 'I' for Inactive)
    1  A    between atoms: C_1  and  C_2
    2  A    between atoms: C_10  and  C_13
                            x       y       z     vdW  Elec       q    Type
                         _______ _______ _______ _____ _____    ______ ____

>  <TORSDO>
F 2

$$$$
=
 OpenBabel10262420493D

 28 31  0  0  1  0  0  0  0  0999 V2000
  187.7830  177.4980  144.7220 C   0  0  1  0  0  3  0  0  0  0  0  0
  184.5640  178.2940  147.2070 O   0  0  0  0  0  0  0  0  0  0  0  0
  185.2920  179.0620  142.2130 C   0  0  2  0  0  3  0  0  0  0  0  0
  185.4260  178.3450  144.9840 C   0  0  0  0  0  0  0  0  0  0  0  0
  186.4540  178.1920  142.6770 C   0  0  0  0  0  2  0  0  0  0  0  0
  186.8820  177.8780  147.0110 C   0  0  0  0  0  3  0  0  0  0  0  0
  184.2190  178.5250  144.4280 C   0  0  0  0  0  3  0  0  0  0  0  0
  185.5600  178.1770  146.4430 C   0  0  0  0  0  0  0  0  0  0  0  0
  184.0100  178.6550  142.9440 C   0  0  0  0  0  2  0  0  0  0  0  0
  187.9220  177.5970  146.2220 C   0  0  0  0  0  3  0  0  0  0  0  0
  186.7010  178.4400  144.1660 C   0  0  2  0  0  3  0  0  0  0  0  0
  183.9350  179.3250  140.1870 C   0  0  0  0  0  3  0  0  0  0  0  0
  186.2620  177.9000  138.7900 C   0  0  0  0  0  3  0  0  0  0  0  0
  183.8710  178.0410  138.0900 C   0  0  0  0  0  0  0  0  0  0  0  0
  185.1210  179.0030  140.7240 C   0  0  0  0  0  0  0  0  0  0  0  0
  187.5340  178.9090  140.4210 F   0  0  0  0  0  0  0  0  0  0  0  0
  185.0560  177.4310  138.0810 C   0  0  0  0  0  3  0  0  0  0  0  0
  186.3070  178.6280  139.9150 C   0  0  0  0  0  0  0  0  0  0  0  0
  182.7420  177.4330  137.3380 C   0  0  0  0  0  1  0  0  0  0  0  0
  183.6770  179.3790  138.7190 C   0  0  0  0  0  2  0  0  0  0  0  0
  189.1150  177.6900  144.0530 C   0  0  0  0  0  0  0  0  0  0  0  0
  190.0420  178.5440  144.6610 C   0  0  0  0  0  3  0  0  0  0  0  0
  190.7190  177.2470  142.2770 C   0  0  0  0  0  0  0  0  0  0  0  0
  191.2970  178.7510  144.0840 C   0  0  0  0  0  3  0  0  0  0  0  0
  188.5480  176.1830  142.2310 O   0  0  0  0  0  1  0  0  0  0  0  0
  189.4570  177.0350  142.8510 C   0  0  0  0  0  0  0  0  0  0  0  0
  191.1740  176.4460  140.7840 Cl  0  0  0  0  0  0  0  0  0  0  0  0
  191.6350  178.1040  142.8950 C   0  0  0  0  0  3  0  0  0  0  0  0
  1 21  1  6  0  0  0
  1 10  1  0  0  0  0
  3 15  1  6  0  0  0
  3  5  1  0  0  0  0
  3  9  1  0  0  0  0
  4  8  1  0  0  0  0
  7  4  2  0  0  0  0
  8  6  1  0  0  0  0
  8  2  2  0  0  0  0
  9  7  1  0  0  0  0
 10  6  2  0  0  0  0
 11  5  1  6  0  0  0
 11  1  1  0  0  0  0
 11  4  1  0  0  0  0
 12 15  2  0  0  0  0
 13 18  2  0  0  0  0
 14 20  1  0  0  0  0
 17 14  2  0  0  0  0
 17 13  1  0  0  0  0
 18 16  1  0  0  0  0
 18 15  1  0  0  0  0
 19 14  1  0  0  0  0
 20 12  1  0  0  0  0
 21 22  1  0  0  0  0
 23 26  1  0  0  0  0
 23 28  2  0  0  0  0
 24 22  2  0  0  0  0
 25 26  1  0  0  0  0
 26 21  2  0  0  0  0
 27 23  1  0  0  0  0
 28 24  1  0  0  0  0
M  END
>  <MODEL>
7

>  <REMARK>
 VINA RESULT:     -10.0      2.092      2.596
  Name = 
  2 active torsions:
  status: ('A' for Active; 'I' for Inactive)
    1  A    between atoms: C_1  and  C_2
    2  A    between atoms: C_10  and  C_13
                            x       y       z     vdW  Elec       q    Type
                         _______ _______ _______ _____ _____    ______ ____

>  <TORSDO>
F 2

$$$$
=
 OpenBabel10262420493D

 28 31  0  0  1  0  0  0  0  0999 V2000
  190.7470  176.1650  138.2440 C   0  0  1  0  0  3  0  0  0  0  0  0
  194.1820  177.3730  140.2200 O   0  0  0  0  0  0  0  0  0  0  0  0
  189.2360  177.7840  141.4120 C   0  0  2  0  0  3  0  0  0  0  0  0
  191.8020  177.2210  140.2710 C   0  0  0  0  0  0  0  0  0  0  0  0
  189.3010  176.8480  140.2120 C   0  0  0  0  0  2  0  0  0  0  0  0
  193.1640  176.7520  138.1800 C   0  0  0  0  0  3  0  0  0  0  0  0
  191.7290  177.4700  141.5870 C   0  0  0  0  0  3  0  0  0  0  0  0
  193.1130  177.1280  139.6000 C   0  0  0  0  0  0  0  0  0  0  0  0
  190.4280  177.5310  142.3380 C   0  0  0  0  0  2  0  0  0  0  0  0
  192.0690  176.3390  137.5370 C   0  0  0  0  0  3  0  0  0  0  0  0
  190.5600  177.1610  139.4020 C   0  0  2  0  0  3  0  0  0  0  0  0
  186.8780  178.3790  141.7370 C   0  0  0  0  0  3  0  0  0  0  0  0
  187.1580  176.8580  144.3840 C   0  0  0  0  0  3  0  0  0  0  0  0
  185.5320  178.6520  143.7780 C   0  0  0  0  0  0  0  0  0  0  0  0
  187.9320  177.6540  142.1420 C   0  0  0  0  0  0  0  0  0  0  0  0
  188.7050  175.6150  143.2210 F   0  0  0  0  0  0  0  0  0  0  0  0
  186.2260  177.9630  144.6830 C   0  0  0  0  0  3  0  0  0  0  0  0
  187.8700  176.6830  143.2620 C   0  0  0  0  0  0  0  0  0  0  0  0
  184.6450  179.7530  144.2350 C   0  0  0  0  0  1  0  0  0  0  0  0
  185.5170  178.2690  142.3360 C   0  0  0  0  0  2  0  0  0  0  0  0
  189.6110  176.2040  137.2590 C   0  0  0  0  0  0  0  0  0  0  0  0
  189.2020  177.4510  136.7750 C   0  0  0  0  0  3  0  0  0  0  0  0
  187.9130  175.1340  135.8840 C   0  0  0  0  0  0  0  0  0  0  0  0
  188.1570  177.5430  135.8530 C   0  0  0  0  0  3  0  0  0  0  0  0
  189.3540  173.7860  137.2820 O   0  0  0  0  0  1  0  0  0  0  0  0
  188.9620  175.0350  136.8100 C   0  0  0  0  0  0  0  0  0  0  0  0
  187.0860  173.6990  135.3040 Cl  0  0  0  0  0  0  0  0  0  0  0  0
  187.5140  176.3860  135.4080 C   0  0  0  0  0  3  0  0  0  0  0  0
  1 21  1  6  0  0  0
  1 11  1  0  0  0  0
  3 15  1  1  0  0  0
  3  9  1  0  0  0  0
  4  7  2  0  0  0  0
  5  3  1  0  0  0  0
  6  8  1  0  0  0  0
  7  9  1  0  0  0  0
  8  2  2  0  0  0  0
  8  4  1  0  0  0  0
 10  6  2  0  0  0  0
 10  1  1  0  0  0  0
 11  5  1  1  0  0  0
 11  4  1  0  0  0  0
 12 15  2  0  0  0  0
 12 20  1  0  0  0  0
 13 17  1  0  0  0  0
 14 19  1  0  0  0  0
 14 17  2  0  0  0  0
 15 18  1  0  0  0  0
 16 18  1  0  0  0  0
 18 13  2  0  0  0  0
 20 14  1  0  0  0  0
 22 21  2  0  0  0  0
 23 26  2  0  0  0  0
 24 22  1  0  0  0  0
 26 21  1  0  0  0  0
 26 25  1  0  0  0  0
 27 23  1  0  0  0  0
 28 24  2  0  0  0  0
 28 23  1  0  0  0  0
M  END
>  <MODEL>
8

>  <REMARK>
 VINA RESULT:      -9.9      4.227      8.081
  Name = 
  2 active torsions:
  status: ('A' for Active; 'I' for Inactive)
    1  A    between atoms: C_1  and  C_2
    2  A    between atoms: C_10  and  C_13
                            x       y       z     vdW  Elec       q    Type
                         _______ _______ _______ _____ _____    ______ ____

>  <TORSDO>
F 2

$$$$
=
 OpenBabel10262420493D

 28 31  0  0  1  0  0  0  0  0999 V2000
  187.2180  177.5090  144.2980 C   0  0  1  0  0  3  0  0  0  0  0  0
  185.3080  178.8630  147.7170 O   0  0  0  0  0  0  0  0  0  0  0  0
  183.9510  178.9290  142.7970 C   0  0  2  0  0  3  0  0  0  0  0  0
  185.1890  178.5630  145.3540 C   0  0  0  0  0  0  0  0  0  0  0  0
  185.1840  178.0380  142.8790 C   0  0  0  0  0  2  0  0  0  0  0  0
  187.3360  178.2460  146.6730 C   0  0  0  0  0  3  0  0  0  0  0  0
  183.8640  178.7640  145.3090 C   0  0  0  0  0  3  0  0  0  0  0  0
  185.9030  178.5730  146.6450 C   0  0  0  0  0  0  0  0  0  0  0  0
  183.0710  178.7200  144.0310 C   0  0  0  0  0  2  0  0  0  0  0  0
  187.9580  177.7870  145.5840 C   0  0  0  0  0  3  0  0  0  0  0  0
  186.0210  178.4540  144.0890 C   0  0  2  0  0  3  0  0  0  0  0  0
  181.8530  178.5620  141.5800 C   0  0  0  0  0  3  0  0  0  0  0  0
  183.6790  177.8740  139.2160 C   0  0  0  0  0  3  0  0  0  0  0  0
  181.3240  177.1610  139.6280 C   0  0  0  0  0  0  0  0  0  0  0  0
  183.1860  178.6950  141.5270 C   0  0  0  0  0  0  0  0  0  0  0  0
  185.1130  179.3770  140.2070 F   0  0  0  0  0  0  0  0  0  0  0  0
  182.5170  176.9770  139.0650 C   0  0  0  0  0  3  0  0  0  0  0  0
  183.9580  178.6660  140.2610 C   0  0  0  0  0  0  0  0  0  0  0  0
  180.2540  176.1550  139.3960 C   0  0  0  0  0  1  0  0  0  0  0  0
  180.9870  178.4080  140.3760 C   0  0  0  0  0  2  0  0  0  0  0  0
  188.1650  177.5100  143.1310 C   0  0  0  0  0  0  0  0  0  0  0  0
  187.6690  177.8890  141.8800 C   0  0  0  0  0  3  0  0  0  0  0  0
  190.3630  177.1800  142.1380 C   0  0  0  0  0  0  0  0  0  0  0  0
  188.5090  177.9140  140.7640 C   0  0  0  0  0  3  0  0  0  0  0  0
  190.0360  176.7720  144.4990 O   0  0  0  0  0  1  0  0  0  0  0  0
  189.5240  177.1530  143.2620 C   0  0  0  0  0  0  0  0  0  0  0  0
  192.0570  176.7440  142.2680 Cl  0  0  0  0  0  0  0  0  0  0  0  0
  189.8530  177.5610  140.8930 C   0  0  0  0  0  3  0  0  0  0  0  0
  1 21  1  6  0  0  0
  1 10  1  0  0  0  0
  3 15  1  6  0  0  0
  3  5  1  0  0  0  0
  3  9  1  0  0  0  0
  4  8  1  0  0  0  0
  7  4  2  0  0  0  0
  8  6  1  0  0  0  0
  8  2  2  0  0  0  0
  9  7  1  0  0  0  0
 10  6  2  0  0  0  0
 11  5  1  6  0  0  0
 11  1  1  0  0  0  0
 11  4  1  0  0  0  0
 13 18  2  0  0  0  0
 14 20  1  0  0  0  0
 15 12  2  0  0  0  0
 16 18  1  0  0  0  0
 17 13  1  0  0  0  0
 17 14  2  0  0  0  0
 18 15  1  0  0  0  0
 19 14  1  0  0  0  0
 20 12  1  0  0  0  0
 21 26  1  0  0  0  0
 22 21  2  0  0  0  0
 23 27  1  0  0  0  0
 23 26  2  0  0  0  0
 24 28  2  0  0  0  0
 24 22  1  0  0  0  0
 26 25  1  0  0  0  0
 28 23  1  0  0  0  0
M  END
>  <MODEL>
9

>  <REMARK>
 VINA RESULT:      -9.7      2.513      3.743
  Name = 
  2 active torsions:
  status: ('A' for Active; 'I' for Inactive)
    1  A    between atoms: C_1  and  C_2
    2  A    between atoms: C_10  and  C_13
                            x       y       z     vdW  Elec       q    Type
                         _______ _______ _______ _____ _____    ______ ____

>  <TORSDO>
F 2

$$$$
