=
 OpenBabel10262421133D

 32 36  0  0  0  0  0  0  0  0999 V2000
  188.7160  177.7880  142.8900 C   0  0  0  0  0  0  0  0  0  0  0  0
  185.9710  178.2780  142.9410 C   0  0  0  0  0  0  0  0  0  0  0  0
  190.1050  177.5890  142.8920 C   0  0  0  0  0  3  0  0  0  0  0  0
  188.0370  178.0200  141.6590 C   0  0  0  0  0  0  0  0  0  0  0  0
  185.9240  178.4940  140.5570 N   0  0  0  0  0  0  0  0  0  0  0  0
  182.5080  178.8090  144.2050 C   0  0  0  0  0  3  0  0  0  0  0  0
  186.6400  178.2630  141.6960 C   0  0  0  0  0  0  0  0  0  0  0  0
  182.5190  179.0150  141.7910 C   0  0  0  0  0  3  0  0  0  0  0  0
  183.8940  178.7620  141.7750 C   0  0  0  0  0  0  0  0  0  0  0  0
  188.7920  178.0110  140.4490 C   0  0  0  0  0  0  0  0  0  0  0  0
  184.5880  178.7380  140.5690 C   0  0  0  0  0  3  0  0  0  0  0  0
  190.1760  177.7960  140.4970 C   0  0  0  0  0  3  0  0  0  0  0  0
  186.6610  178.0470  144.0870 N   0  0  0  0  0  0  0  0  0  0  0  0
  187.9940  177.7890  144.1030 C   0  0  0  0  0  0  0  0  0  0  0  0
  184.5890  178.5300  142.9810 C   0  0  0  0  0  0  0  0  0  0  0  0
  190.8300  177.5910  141.7060 C   0  0  0  0  0  3  0  0  0  0  0  0
  181.8280  179.0370  143.0060 C   0  0  0  0  0  3  0  0  0  0  0  0
  183.8840  178.5550  144.1940 C   0  0  0  0  0  3  0  0  0  0  0  0
  188.5860  177.5200  147.8430 C   0  0  0  0  0  0  0  0  0  0  0  0
  187.9210  177.7020  149.0100 F   0  0  0  0  0  0  0  0  0  0  0  0
  188.6350  177.5470  145.4130 C   0  0  0  0  0  0  0  0  0  0  0  0
  189.9250  177.1230  147.8650 C   0  0  0  0  0  3  0  0  0  0  0  0
  189.9820  177.1650  145.4480 C   0  0  0  0  0  3  0  0  0  0  0  0
  187.9390  177.7410  146.6220 C   0  0  0  0  0  0  0  0  0  0  0  0
  186.6530  178.1770  146.6200 F   0  0  0  0  0  0  0  0  0  0  0  0
  190.6320  176.9460  146.6660 C   0  0  0  0  0  0  0  0  0  0  0  0
  192.5350  175.7130  147.6510 C   0  0  0  0  0  1  0  0  0  0  0  0
  191.9740  176.5580  146.6560 O   0  0  0  0  0  0  0  0  0  0  0  0
  188.1650  178.2220  139.1780 N   0  0  0  0  0  2  0  0  0  0  0  0
  188.8790  178.6830  137.9970 C   0  0  0  0  0  2  0  0  0  0  0  0
  187.9870  179.3100  137.1290 O   0  0  0  0  0  0  0  0  0  0  0  0
  186.9400  178.4000  136.9860 C   0  0  0  0  0  1  0  0  0  0  0  0
  1  3  1  0  0  0  0
  1 14  1  0  0  0  0
  2 15  1  0  0  0  0
  2 13  1  0  0  0  0
  4  7  1  0  0  0  0
  4  1  2  0  0  0  0
  5 11  2  0  0  0  0
  5  7  1  0  0  0  0
  7  2  2  0  0  0  0
  8 17  1  0  0  0  0
  9  8  2  0  0  0  0
  9 15  1  0  0  0  0
 10 12  2  0  0  0  0
 10  4  1  0  0  0  0
 11  9  1  0  0  0  0
 12 16  1  0  0  0  0
 13 14  2  0  0  0  0
 14 21  1  0  0  0  0
 15 18  2  0  0  0  0
 16  3  2  0  0  0  0
 17  6  2  0  0  0  0
 18  6  1  0  0  0  0
 19 22  1  0  0  0  0
 19 20  1  0  0  0  0
 21 23  2  0  0  0  0
 21 24  1  0  0  0  0
 23 26  1  0  0  0  0
 24 19  2  0  0  0  0
 25 24  1  0  0  0  0
 26 22  2  0  0  0  0
 28 26  1  0  0  0  0
 28 27  1  0  0  0  0
 29 10  1  0  0  0  0
 30 29  1  0  0  0  0
 31 30  1  0  0  0  0
 32 31  1  0  0  0  0
M  END
>  <MODEL>
1

>  <REMARK>
 VINA RESULT:     -10.6      0.000      0.000
  Name = 
  5 active torsions:
  status: ('A' for Active; 'I' for Inactive)
    1  A    between atoms: O_13  and  C_18
    2  A    between atoms: C_14  and  N_29
    3  A    between atoms: O_15  and  C_26
    4  A    between atoms: C_16  and  C_27
    5  A    between atoms: C_18  and  N_29
                            x       y       z     vdW  Elec       q    Type
                         _______ _______ _______ _____ _____    ______ ____

>  <TORSDO>
F 5

$$$$
=
 OpenBabel10262421133D

 32 36  0  0  0  0  0  0  0  0999 V2000
  189.5480  177.3930  142.5980 C   0  0  0  0  0  0  0  0  0  0  0  0
  186.9370  178.0130  143.3580 C   0  0  0  0  0  0  0  0  0  0  0  0
  190.8420  177.0330  142.1930 C   0  0  0  0  0  3  0  0  0  0  0  0
  189.2400  177.4780  143.9860 C   0  0  0  0  0  0  0  0  0  0  0  0
  187.5410  177.8980  145.6720 N   0  0  0  0  0  0  0  0  0  0  0  0
  183.3120  178.8440  143.1630 C   0  0  0  0  0  3  0  0  0  0  0  0
  187.9100  177.8000  144.3620 C   0  0  0  0  0  0  0  0  0  0  0  0
  183.9790  178.7160  145.4890 C   0  0  0  0  0  3  0  0  0  0  0  0
  185.2860  178.4110  145.0980 C   0  0  0  0  0  0  0  0  0  0  0  0
  190.2740  177.2250  144.9330 C   0  0  0  0  0  0  0  0  0  0  0  0
  186.2730  178.1950  146.0560 C   0  0  0  0  0  3  0  0  0  0  0  0
  191.5560  176.8800  144.4840 C   0  0  0  0  0  3  0  0  0  0  0  0
  187.2810  177.9250  142.0490 N   0  0  0  0  0  0  0  0  0  0  0  0
  188.5430  177.6410  141.6370 C   0  0  0  0  0  0  0  0  0  0  0  0
  185.6170  178.3200  143.7290 C   0  0  0  0  0  0  0  0  0  0  0  0
  191.8400  176.7810  143.1280 C   0  0  0  0  0  3  0  0  0  0  0  0
  182.9940  178.9330  144.5220 C   0  0  0  0  0  3  0  0  0  0  0  0
  184.6190  178.5400  142.7670 C   0  0  0  0  0  3  0  0  0  0  0  0
  188.1300  177.9660  137.8770 C   0  0  0  0  0  0  0  0  0  0  0  0
  187.2350  178.4320  136.9730 F   0  0  0  0  0  0  0  0  0  0  0  0
  188.7980  177.5780  140.1820 C   0  0  0  0  0  0  0  0  0  0  0  0
  189.3170  177.3780  137.4350 C   0  0  0  0  0  3  0  0  0  0  0  0
  189.9760  176.9750  139.7260 C   0  0  0  0  0  3  0  0  0  0  0  0
  187.8620  178.0610  139.2480 C   0  0  0  0  0  0  0  0  0  0  0  0
  186.6800  178.5880  139.6590 F   0  0  0  0  0  0  0  0  0  0  0  0
  190.2460  176.8760  138.3580 C   0  0  0  0  0  0  0  0  0  0  0  0
  192.6970  176.5910  138.5270 C   0  0  0  0  0  1  0  0  0  0  0  0
  191.4390  176.2750  137.9470 O   0  0  0  0  0  0  0  0  0  0  0  0
  190.0310  177.3100  146.3430 N   0  0  0  0  0  2  0  0  0  0  0  0
  190.6160  176.3990  147.3160 C   0  0  0  0  0  2  0  0  0  0  0  0
  191.8260  176.9200  147.7710 O   0  0  0  0  0  0  0  0  0  0  0  0
  192.6170  175.8000  148.0200 C   0  0  0  0  0  1  0  0  0  0  0  0
  1  4  1  0  0  0  0
  2 15  2  0  0  0  0
  2  7  1  0  0  0  0
  3  1  2  0  0  0  0
  3 16  1  0  0  0  0
  4  7  1  0  0  0  0
  4 10  2  0  0  0  0
  5 11  1  0  0  0  0
  6 17  1  0  0  0  0
  7  5  2  0  0  0  0
  9  8  1  0  0  0  0
  9 11  2  0  0  0  0
 10 29  1  0  0  0  0
 12 10  1  0  0  0  0
 13  2  1  0  0  0  0
 14 13  2  0  0  0  0
 14  1  1  0  0  0  0
 15  9  1  0  0  0  0
 16 12  2  0  0  0  0
 17  8  2  0  0  0  0
 18  6  2  0  0  0  0
 18 15  1  0  0  0  0
 19 24  1  0  0  0  0
 20 19  1  0  0  0  0
 21 14  1  0  0  0  0
 22 19  2  0  0  0  0
 22 26  1  0  0  0  0
 23 21  1  0  0  0  0
 24 25  1  0  0  0  0
 24 21  2  0  0  0  0
 26 23  2  0  0  0  0
 28 26  1  0  0  0  0
 28 27  1  0  0  0  0
 29 30  1  0  0  0  0
 30 31  1  0  0  0  0
 31 32  1  0  0  0  0
M  END
>  <MODEL>
2

>  <REMARK>
 VINA RESULT:     -10.5      2.722      6.542
  Name = 
  5 active torsions:
  status: ('A' for Active; 'I' for Inactive)
    1  A    between atoms: O_13  and  C_18
    2  A    between atoms: C_14  and  N_29
    3  A    between atoms: O_15  and  C_26
    4  A    between atoms: C_16  and  C_27
    5  A    between atoms: C_18  and  N_29
                            x       y       z     vdW  Elec       q    Type
                         _______ _______ _______ _____ _____    ______ ____

>  <TORSDO>
F 5

$$$$
=
 OpenBabel10262421133D

 32 36  0  0  0  0  0  0  0  0999 V2000
  187.5150  178.0310  141.4540 C   0  0  0  0  0  0  0  0  0  0  0  0
  188.9470  177.4280  143.7690 C   0  0  0  0  0  0  0  0  0  0  0  0
  186.7640  178.2880  140.2970 C   0  0  0  0  0  3  0  0  0  0  0  0
  188.9020  177.7270  141.3430 C   0  0  0  0  0  0  0  0  0  0  0  0
  190.9530  177.1250  142.4980 N   0  0  0  0  0  0  0  0  0  0  0  0
  189.7570  176.7990  147.3500 C   0  0  0  0  0  3  0  0  0  0  0  0
  189.6230  177.4270  142.5280 C   0  0  0  0  0  0  0  0  0  0  0  0
  191.7580  176.5070  146.0140 C   0  0  0  0  0  3  0  0  0  0  0  0
  191.0320  176.8160  144.8590 C   0  0  0  0  0  0  0  0  0  0  0  0
  189.5010  177.7240  140.0490 C   0  0  0  0  0  0  0  0  0  0  0  0
  191.6610  176.8260  143.6180 C   0  0  0  0  0  3  0  0  0  0  0  0
  188.7150  177.9980  138.9210 C   0  0  0  0  0  3  0  0  0  0  0  0
  187.6250  177.7290  143.8250 N   0  0  0  0  0  0  0  0  0  0  0  0
  186.8970  178.0440  142.7230 C   0  0  0  0  0  0  0  0  0  0  0  0
  189.6570  177.1200  144.9430 C   0  0  0  0  0  0  0  0  0  0  0  0
  187.3580  178.2740  139.0400 C   0  0  0  0  0  3  0  0  0  0  0  0
  191.1200  176.4990  147.2580 C   0  0  0  0  0  3  0  0  0  0  0  0
  189.0280  177.1090  146.1970 C   0  0  0  0  0  3  0  0  0  0  0  0
  183.5670  178.9260  144.3190 C   0  0  0  0  0  0  0  0  0  0  0  0
  183.0500  179.2110  145.5390 F   0  0  0  0  0  0  0  0  0  0  0  0
  185.4640  178.3590  142.9090 C   0  0  0  0  0  0  0  0  0  0  0  0
  182.7290  178.8960  143.2020 C   0  0  0  0  0  3  0  0  0  0  0  0
  184.6110  178.3160  141.8000 C   0  0  0  0  0  3  0  0  0  0  0  0
  184.9320  178.6510  144.1800 C   0  0  0  0  0  0  0  0  0  0  0  0
  185.7230  178.6330  145.2830 F   0  0  0  0  0  0  0  0  0  0  0  0
  183.2470  178.5870  141.9360 C   0  0  0  0  0  0  0  0  0  0  0  0
  181.0150  178.6340  140.8700 C   0  0  0  0  0  1  0  0  0  0  0  0
  182.4320  178.5410  140.8010 O   0  0  0  0  0  0  0  0  0  0  0  0
  190.8940  177.4410  139.8730 N   0  0  0  0  0  2  0  0  0  0  0  0
  191.4300  176.7240  138.7250 C   0  0  0  0  0  2  0  0  0  0  0  0
  190.9700  175.4100  138.7420 O   0  0  0  0  0  0  0  0  0  0  0  0
  191.5490  174.8220  137.6190 C   0  0  0  0  0  1  0  0  0  0  0  0
  1 14  1  0  0  0  0
  2 13  1  0  0  0  0
  2 15  1  0  0  0  0
  3  1  1  0  0  0  0
  4  1  2  0  0  0  0
  4  7  1  0  0  0  0
  5  7  1  0  0  0  0
  5 11  2  0  0  0  0
  7  2  2  0  0  0  0
  8 17  2  0  0  0  0
  9 15  2  0  0  0  0
  9  8  1  0  0  0  0
 10  4  1  0  0  0  0
 11  9  1  0  0  0  0
 12 16  1  0  0  0  0
 12 10  2  0  0  0  0
 14 21  1  0  0  0  0
 14 13  2  0  0  0  0
 15 18  1  0  0  0  0
 16  3  2  0  0  0  0
 17  6  1  0  0  0  0
 18  6  2  0  0  0  0
 19 20  1  0  0  0  0
 21 24  2  0  0  0  0
 22 19  2  0  0  0  0
 23 26  2  0  0  0  0
 23 21  1  0  0  0  0
 24 19  1  0  0  0  0
 24 25  1  0  0  0  0
 26 22  1  0  0  0  0
 28 27  1  0  0  0  0
 28 26  1  0  0  0  0
 29 10  1  0  0  0  0
 30 31  1  0  0  0  0
 30 29  1  0  0  0  0
 32 31  1  0  0  0  0
M  END
>  <MODEL>
3

>  <REMARK>
 VINA RESULT:     -10.3      2.317      6.354
  Name = 
  5 active torsions:
  status: ('A' for Active; 'I' for Inactive)
    1  A    between atoms: O_13  and  C_18
    2  A    between atoms: C_14  and  N_29
    3  A    between atoms: O_15  and  C_26
    4  A    between atoms: C_16  and  C_27
    5  A    between atoms: C_18  and  N_29
                            x       y       z     vdW  Elec       q    Type
                         _______ _______ _______ _____ _____    ______ ____

>  <TORSDO>
F 5

$$$$
=
 OpenBabel10262421133D

 32 36  0  0  0  0  0  0  0  0999 V2000
  186.8090  177.9150  144.1670 C   0  0  0  0  0  0  0  0  0  0  0  0
  188.5940  177.6440  142.0410 C   0  0  0  0  0  0  0  0  0  0  0  0
  185.9040  178.1060  145.2210 C   0  0  0  0  0  3  0  0  0  0  0  0
  188.1750  177.6290  144.4510 C   0  0  0  0  0  0  0  0  0  0  0  0
  190.3970  177.2150  143.5580 N   0  0  0  0  0  0  0  0  0  0  0  0
  189.9620  177.5310  138.5790 C   0  0  0  0  0  3  0  0  0  0  0  0
  189.0740  177.4870  143.3620 C   0  0  0  0  0  0  0  0  0  0  0  0
  191.7480  177.1000  140.1590 C   0  0  0  0  0  3  0  0  0  0  0  0
  190.8440  177.2320  141.2170 C   0  0  0  0  0  0  0  0  0  0  0  0
  188.5810  177.5110  145.8120 C   0  0  0  0  0  0  0  0  0  0  0  0
  191.2770  177.0840  142.5320 C   0  0  0  0  0  3  0  0  0  0  0  0
  187.6400  177.6970  146.8340 C   0  0  0  0  0  3  0  0  0  0  0  0
  187.2820  177.9130  141.8210 N   0  0  0  0  0  0  0  0  0  0  0  0
  186.3790  178.0360  142.8270 C   0  0  0  0  0  0  0  0  0  0  0  0
  189.4860  177.5160  140.9620 C   0  0  0  0  0  0  0  0  0  0  0  0
  186.3140  177.9950  146.5450 C   0  0  0  0  0  3  0  0  0  0  0  0
  191.3060  177.2490  138.8410 C   0  0  0  0  0  3  0  0  0  0  0  0
  189.0540  177.6640  139.6350 C   0  0  0  0  0  3  0  0  0  0  0  0
  183.2570  178.8540  140.8260 C   0  0  0  0  0  0  0  0  0  0  0  0
  182.8840  179.0850  139.5450 F   0  0  0  0  0  0  0  0  0  0  0  0
  184.9750  178.3240  142.4630 C   0  0  0  0  0  0  0  0  0  0  0  0
  182.3060  178.9170  141.8460 C   0  0  0  0  0  3  0  0  0  0  0  0
  184.0150  178.4060  143.4790 C   0  0  0  0  0  3  0  0  0  0  0  0
  184.5940  178.5660  141.1300 C   0  0  0  0  0  0  0  0  0  0  0  0
  185.5150  178.5600  140.1330 F   0  0  0  0  0  0  0  0  0  0  0  0
  182.6800  178.6960  143.1800 C   0  0  0  0  0  0  0  0  0  0  0  0
  180.3510  178.6640  144.0100 C   0  0  0  0  0  1  0  0  0  0  0  0
  181.7530  178.7610  144.2240 O   0  0  0  0  0  0  0  0  0  0  0  0
  189.9370  177.2080  146.1620 N   0  0  0  0  0  2  0  0  0  0  0  0
  190.4050  177.0880  147.5350 C   0  0  0  0  0  2  0  0  0  0  0  0
  191.7890  176.9330  147.5430 O   0  0  0  0  0  0  0  0  0  0  0  0
  192.0340  175.9390  146.5980 C   0  0  0  0  0  1  0  0  0  0  0  0
  1  4  1  0  0  0  0
  1  3  2  0  0  0  0
  2  7  1  0  0  0  0
  3 16  1  0  0  0  0
  4 10  2  0  0  0  0
  6 17  1  0  0  0  0
  6 18  2  0  0  0  0
  7  5  2  0  0  0  0
  7  4  1  0  0  0  0
  8  9  1  0  0  0  0
  9 11  2  0  0  0  0
 10 29  1  0  0  0  0
 10 12  1  0  0  0  0
 11  5  1  0  0  0  0
 13  2  1  0  0  0  0
 13 14  2  0  0  0  0
 14  1  1  0  0  0  0
 15  9  1  0  0  0  0
 15  2  2  0  0  0  0
 16 12  2  0  0  0  0
 17  8  2  0  0  0  0
 18 15  1  0  0  0  0
 19 24  2  0  0  0  0
 19 22  1  0  0  0  0
 20 19  1  0  0  0  0
 21 14  1  0  0  0  0
 21 23  2  0  0  0  0
 22 26  2  0  0  0  0
 24 21  1  0  0  0  0
 25 24  1  0  0  0  0
 26 23  1  0  0  0  0
 26 28  1  0  0  0  0
 27 28  1  0  0  0  0
 29 30  1  0  0  0  0
 30 31  1  0  0  0  0
 32 31  1  0  0  0  0
M  END
>  <MODEL>
4

>  <REMARK>
 VINA RESULT:     -10.0      2.899      7.692
  Name = 
  5 active torsions:
  status: ('A' for Active; 'I' for Inactive)
    1  A    between atoms: O_13  and  C_18
    2  A    between atoms: C_14  and  N_29
    3  A    between atoms: O_15  and  C_26
    4  A    between atoms: C_16  and  C_27
    5  A    between atoms: C_18  and  N_29
                            x       y       z     vdW  Elec       q    Type
                         _______ _______ _______ _____ _____    ______ ____

>  <TORSDO>
F 5

$$$$
=
 OpenBabel10262421133D

 32 36  0  0  0  0  0  0  0  0999 V2000
  187.5340  177.9570  143.6660 C   0  0  0  0  0  0  0  0  0  0  0  0
  188.9240  177.5870  141.2770 C   0  0  0  0  0  0  0  0  0  0  0  0
  186.8380  178.0870  144.8770 C   0  0  0  0  0  3  0  0  0  0  0  0
  186.8700  178.2340  142.4360 C   0  0  0  0  0  0  0  0  0  0  0  0
  187.0170  178.2920  140.0110 N   0  0  0  0  0  0  0  0  0  0  0  0
  191.6430  176.7480  138.8740 C   0  0  0  0  0  3  0  0  0  0  0  0
  187.5880  178.0480  141.2260 C   0  0  0  0  0  0  0  0  0  0  0  0
  189.6840  177.4710  137.6440 C   0  0  0  0  0  3  0  0  0  0  0  0
  188.9980  177.6590  138.8470 C   0  0  0  0  0  0  0  0  0  0  0  0
  185.5140  178.6710  142.4740 C   0  0  0  0  0  0  0  0  0  0  0  0
  187.6810  178.1120  138.8410 C   0  0  0  0  0  3  0  0  0  0  0  0
  184.8610  178.8000  143.7070 C   0  0  0  0  0  3  0  0  0  0  0  0
  189.5140  177.3410  142.4730 N   0  0  0  0  0  0  0  0  0  0  0  0
  188.8780  177.5240  143.6580 C   0  0  0  0  0  0  0  0  0  0  0  0
  189.6320  177.3910  140.0790 C   0  0  0  0  0  0  0  0  0  0  0  0
  185.5130  178.5080  144.8990 C   0  0  0  0  0  3  0  0  0  0  0  0
  191.0060  177.0170  137.6590 C   0  0  0  0  0  3  0  0  0  0  0  0
  190.9600  176.9350  140.0800 C   0  0  0  0  0  3  0  0  0  0  0  0
  191.4430  176.1340  146.0870 C   0  0  0  0  0  0  0  0  0  0  0  0
  192.5470  175.3480  146.0850 F   0  0  0  0  0  0  0  0  0  0  0  0
  189.6270  177.2280  144.8980 C   0  0  0  0  0  0  0  0  0  0  0  0
  190.9710  176.6610  147.2910 C   0  0  0  0  0  3  0  0  0  0  0  0
  189.1540  177.7360  146.1140 C   0  0  0  0  0  3  0  0  0  0  0  0
  190.7710  176.4070  144.8900 C   0  0  0  0  0  0  0  0  0  0  0  0
  191.2130  175.8450  143.7360 F   0  0  0  0  0  0  0  0  0  0  0  0
  189.8200  177.4630  147.3110 C   0  0  0  0  0  0  0  0  0  0  0  0
  187.9300  178.0290  148.8030 C   0  0  0  0  0  1  0  0  0  0  0  0
  189.3190  177.9980  148.5020 O   0  0  0  0  0  0  0  0  0  0  0  0
  184.7970  178.9810  141.2730 N   0  0  0  0  0  2  0  0  0  0  0  0
  183.4950  178.4180  140.9460 C   0  0  0  0  0  2  0  0  0  0  0  0
  183.3640  178.3200  139.5620 O   0  0  0  0  0  0  0  0  0  0  0  0
  183.7250  179.5800  139.0880 C   0  0  0  0  0  1  0  0  0  0  0  0
  1  3  2  0  0  0  0
  2 13  1  0  0  0  0
  3 16  1  0  0  0  0
  4 10  2  0  0  0  0
  4  1  1  0  0  0  0
  5  7  2  0  0  0  0
  6 18  2  0  0  0  0
  7  2  1  0  0  0  0
  7  4  1  0  0  0  0
  8 17  2  0  0  0  0
  8  9  1  0  0  0  0
  9 15  1  0  0  0  0
 10 12  1  0  0  0  0
 11  9  2  0  0  0  0
 11  5  1  0  0  0  0
 12 16  2  0  0  0  0
 13 14  2  0  0  0  0
 14  1  1  0  0  0  0
 14 21  1  0  0  0  0
 15 18  1  0  0  0  0
 15  2  2  0  0  0  0
 17  6  1  0  0  0  0
 19 22  1  0  0  0  0
 20 19  1  0  0  0  0
 21 23  2  0  0  0  0
 22 26  2  0  0  0  0
 23 26  1  0  0  0  0
 24 21  1  0  0  0  0
 24 19  2  0  0  0  0
 25 24  1  0  0  0  0
 26 28  1  0  0  0  0
 28 27  1  0  0  0  0
 29 10  1  0  0  0  0
 30 29  1  0  0  0  0
 31 30  1  0  0  0  0
 32 31  1  0  0  0  0
M  END
>  <MODEL>
5

>  <REMARK>
 VINA RESULT:     -10.0      2.301      5.118
  Name = 
  5 active torsions:
  status: ('A' for Active; 'I' for Inactive)
    1  A    between atoms: O_13  and  C_18
    2  A    between atoms: C_14  and  N_29
    3  A    between atoms: O_15  and  C_26
    4  A    between atoms: C_16  and  C_27
    5  A    between atoms: C_18  and  N_29
                            x       y       z     vdW  Elec       q    Type
                         _______ _______ _______ _____ _____    ______ ____

>  <TORSDO>
F 5

$$$$
=
 OpenBabel10262421133D

 32 36  0  0  0  0  0  0  0  0999 V2000
  189.4590  177.6730  142.9060 C   0  0  0  0  0  0  0  0  0  0  0  0
  186.7260  178.1540  143.1820 C   0  0  0  0  0  0  0  0  0  0  0  0
  190.8220  177.3800  142.7460 C   0  0  0  0  0  3  0  0  0  0  0  0
  188.9190  177.8310  144.2150 C   0  0  0  0  0  0  0  0  0  0  0  0
  186.9410  178.2420  145.5650 N   0  0  0  0  0  0  0  0  0  0  0  0
  183.1410  178.7050  142.3370 C   0  0  0  0  0  3  0  0  0  0  0  0
  187.5280  178.0810  144.3440 C   0  0  0  0  0  0  0  0  0  0  0  0
  183.4170  178.7860  144.7420 C   0  0  0  0  0  3  0  0  0  0  0  0
  184.7870  178.5500  144.5940 C   0  0  0  0  0  0  0  0  0  0  0  0
  189.7940  177.7190  145.3340 C   0  0  0  0  0  0  0  0  0  0  0  0
  185.6110  178.4730  145.7130 C   0  0  0  0  0  3  0  0  0  0  0  0
  191.1510  177.4370  145.1280 C   0  0  0  0  0  3  0  0  0  0  0  0
  187.2880  178.0000  141.9560 N   0  0  0  0  0  0  0  0  0  0  0  0
  188.6160  177.7810  141.7790 C   0  0  0  0  0  0  0  0  0  0  0  0
  185.3460  178.3890  143.3080 C   0  0  0  0  0  0  0  0  0  0  0  0
  191.6630  177.2650  143.8480 C   0  0  0  0  0  3  0  0  0  0  0  0
  182.5960  178.8640  143.6140 C   0  0  0  0  0  3  0  0  0  0  0  0
  184.5110  178.4690  142.1830 C   0  0  0  0  0  3  0  0  0  0  0  0
  190.5170  176.5540  138.7300 C   0  0  0  0  0  0  0  0  0  0  0  0
  191.4210  175.6030  138.3910 F   0  0  0  0  0  0  0  0  0  0  0  0
  189.1130  177.6360  140.3940 C   0  0  0  0  0  0  0  0  0  0  0  0
  190.0570  177.4480  137.7610 C   0  0  0  0  0  3  0  0  0  0  0  0
  188.6720  178.5370  139.4180 C   0  0  0  0  0  3  0  0  0  0  0  0
  190.0550  176.6480  140.0490 C   0  0  0  0  0  0  0  0  0  0  0  0
  190.5520  175.8040  140.9890 F   0  0  0  0  0  0  0  0  0  0  0  0
  189.1330  178.4480  138.1010 C   0  0  0  0  0  0  0  0  0  0  0  0
  187.4880  179.1340  136.3880 C   0  0  0  0  0  1  0  0  0  0  0  0
  188.6610  179.3630  137.1560 O   0  0  0  0  0  0  0  0  0  0  0  0
  189.3150  177.8830  146.6750 N   0  0  0  0  0  2  0  0  0  0  0  0
  189.3370  176.8240  147.6730 C   0  0  0  0  0  2  0  0  0  0  0  0
  188.1700  176.8740  148.4310 O   0  0  0  0  0  0  0  0  0  0  0  0
  188.0850  178.1990  148.8540 C   0  0  0  0  0  1  0  0  0  0  0  0
  1  4  1  0  0  0  0
  2 15  2  0  0  0  0
  2  7  1  0  0  0  0
  3  1  2  0  0  0  0
  3 16  1  0  0  0  0
  4  7  1  0  0  0  0
  4 10  2  0  0  0  0
  5 11  1  0  0  0  0
  6 17  1  0  0  0  0
  7  5  2  0  0  0  0
  9  8  1  0  0  0  0
  9 11  2  0  0  0  0
 10 29  1  0  0  0  0
 12 10  1  0  0  0  0
 13  2  1  0  0  0  0
 14 13  2  0  0  0  0
 14  1  1  0  0  0  0
 15  9  1  0  0  0  0
 16 12  2  0  0  0  0
 17  8  2  0  0  0  0
 18  6  2  0  0  0  0
 18 15  1  0  0  0  0
 19 24  1  0  0  0  0
 20 19  1  0  0  0  0
 21 14  1  0  0  0  0
 22 26  1  0  0  0  0
 22 19  2  0  0  0  0
 23 21  1  0  0  0  0
 24 21  2  0  0  0  0
 24 25  1  0  0  0  0
 26 23  2  0  0  0  0
 27 28  1  0  0  0  0
 28 26  1  0  0  0  0
 29 30  1  0  0  0  0
 30 31  1  0  0  0  0
 31 32  1  0  0  0  0
M  END
>  <MODEL>
6

>  <REMARK>
 VINA RESULT:      -9.9      2.623      6.686
  Name = 
  5 active torsions:
  status: ('A' for Active; 'I' for Inactive)
    1  A    between atoms: O_13  and  C_18
    2  A    between atoms: C_14  and  N_29
    3  A    between atoms: O_15  and  C_26
    4  A    between atoms: C_16  and  C_27
    5  A    between atoms: C_18  and  N_29
                            x       y       z     vdW  Elec       q    Type
                         _______ _______ _______ _____ _____    ______ ____

>  <TORSDO>
F 5

$$$$
=
 OpenBabel10262421133D

 32 36  0  0  0  0  0  0  0  0999 V2000
  185.3280  178.3630  143.8990 C   0  0  0  0  0  0  0  0  0  0  0  0
  187.6320  177.9120  142.3940 C   0  0  0  0  0  0  0  0  0  0  0  0
  184.1680  178.6430  144.6370 C   0  0  0  0  0  3  0  0  0  0  0  0
  186.5510  178.0960  144.5800 C   0  0  0  0  0  0  0  0  0  0  0  0
  188.9220  177.6000  144.3870 N   0  0  0  0  0  0  0  0  0  0  0  0
  189.9160  177.5100  139.4800 C   0  0  0  0  0  3  0  0  0  0  0  0
  187.7160  177.8610  143.8040 C   0  0  0  0  0  0  0  0  0  0  0  0
  191.1720  177.2020  141.5290 C   0  0  0  0  0  3  0  0  0  0  0  0
  190.0110  177.4240  142.2750 C   0  0  0  0  0  0  0  0  0  0  0  0
  186.5530  178.0870  146.0050 C   0  0  0  0  0  0  0  0  0  0  0  0
  190.0520  177.3820  143.6650 C   0  0  0  0  0  3  0  0  0  0  0  0
  185.3680  178.3600  146.7020 C   0  0  0  0  0  3  0  0  0  0  0  0
  186.4430  178.1670  141.7920 N   0  0  0  0  0  0  0  0  0  0  0  0
  185.2970  178.3760  142.4880 C   0  0  0  0  0  0  0  0  0  0  0  0
  188.7870  177.6920  141.6250 C   0  0  0  0  0  0  0  0  0  0  0  0
  184.1860  178.6390  146.0270 C   0  0  0  0  0  3  0  0  0  0  0  0
  191.1230  177.2450  140.1330 C   0  0  0  0  0  3  0  0  0  0  0  0
  188.7510  177.7330  140.2220 C   0  0  0  0  0  3  0  0  0  0  0  0
  182.9090  179.2650  139.6730 C   0  0  0  0  0  0  0  0  0  0  0  0
  182.9400  179.6160  138.3650 F   0  0  0  0  0  0  0  0  0  0  0  0
  184.0600  178.6390  141.7200 C   0  0  0  0  0  0  0  0  0  0  0  0
  181.6830  179.1760  140.3360 C   0  0  0  0  0  3  0  0  0  0  0  0
  182.8260  178.5690  142.3780 C   0  0  0  0  0  3  0  0  0  0  0  0
  184.1000  179.0060  140.3620 C   0  0  0  0  0  0  0  0  0  0  0  0
  185.2850  179.1480  139.7160 F   0  0  0  0  0  0  0  0  0  0  0  0
  181.6350  178.8300  141.6950 C   0  0  0  0  0  0  0  0  0  0  0  0
  180.3580  178.4980  143.7870 C   0  0  0  0  0  1  0  0  0  0  0  0
  180.4250  178.7410  142.3880 O   0  0  0  0  0  0  0  0  0  0  0  0
  187.7470  177.8080  146.7470 N   0  0  0  0  0  2  0  0  0  0  0  0
  187.8660  178.0130  148.1830 C   0  0  0  0  0  2  0  0  0  0  0  0
  189.1960  178.2770  148.5060 O   0  0  0  0  0  0  0  0  0  0  0  0
  189.9270  177.3640  147.7500 C   0  0  0  0  0  1  0  0  0  0  0  0
  1  4  1  0  0  0  0
  1  3  2  0  0  0  0
  2  7  1  0  0  0  0
  3 16  1  0  0  0  0
  4 10  2  0  0  0  0
  6 17  1  0  0  0  0
  6 18  2  0  0  0  0
  7  5  2  0  0  0  0
  7  4  1  0  0  0  0
  8  9  1  0  0  0  0
  9 11  2  0  0  0  0
 10 12  1  0  0  0  0
 10 29  1  0  0  0  0
 11  5  1  0  0  0  0
 13  2  1  0  0  0  0
 13 14  2  0  0  0  0
 14  1  1  0  0  0  0
 15  9  1  0  0  0  0
 15  2  2  0  0  0  0
 16 12  2  0  0  0  0
 17  8  2  0  0  0  0
 18 15  1  0  0  0  0
 19 22  2  0  0  0  0
 19 24  1  0  0  0  0
 20 19  1  0  0  0  0
 21 23  1  0  0  0  0
 21 14  1  0  0  0  0
 22 26  1  0  0  0  0
 24 21  2  0  0  0  0
 25 24  1  0  0  0  0
 26 23  2  0  0  0  0
 26 28  1  0  0  0  0
 28 27  1  0  0  0  0
 29 30  1  0  0  0  0
 30 31  1  0  0  0  0
 32 31  1  0  0  0  0
M  END
>  <MODEL>
7

>  <REMARK>
 VINA RESULT:      -9.9      3.141      8.109
  Name = 
  5 active torsions:
  status: ('A' for Active; 'I' for Inactive)
    1  A    between atoms: O_13  and  C_18
    2  A    between atoms: C_14  and  N_29
    3  A    between atoms: O_15  and  C_26
    4  A    between atoms: C_16  and  C_27
    5  A    between atoms: C_18  and  N_29
                            x       y       z     vdW  Elec       q    Type
                         _______ _______ _______ _____ _____    ______ ____

>  <TORSDO>
F 5

$$$$
=
 OpenBabel10262421133D

 32 36  0  0  0  0  0  0  0  0999 V2000
  186.3660  178.1580  144.2600 C   0  0  0  0  0  0  0  0  0  0  0  0
  186.7930  178.2280  141.5050 C   0  0  0  0  0  0  0  0  0  0  0  0
  186.1610  178.0670  145.6450 C   0  0  0  0  0  3  0  0  0  0  0  0
  185.2840  178.5210  143.4070 C   0  0  0  0  0  0  0  0  0  0  0  0
  184.5250  178.8970  141.1300 N   0  0  0  0  0  0  0  0  0  0  0  0
  188.4700  177.9650  138.1900 C   0  0  0  0  0  3  0  0  0  0  0  0
  185.5140  178.5600  142.0070 C   0  0  0  0  0  0  0  0  0  0  0  0
  186.1670  178.6430  137.8690 C   0  0  0  0  0  3  0  0  0  0  0  0
  185.9640  178.6110  139.2520 C   0  0  0  0  0  0  0  0  0  0  0  0
  184.0200  178.8170  143.9940 C   0  0  0  0  0  0  0  0  0  0  0  0
  184.7190  178.9310  139.7860 C   0  0  0  0  0  3  0  0  0  0  0  0
  183.8620  178.7260  145.3840 C   0  0  0  0  0  3  0  0  0  0  0  0
  187.7930  177.8920  142.3580 N   0  0  0  0  0  0  0  0  0  0  0  0
  187.6300  177.8620  143.7060 C   0  0  0  0  0  0  0  0  0  0  0  0
  187.0190  178.2530  140.1180 C   0  0  0  0  0  0  0  0  0  0  0  0
  184.9200  178.3510  146.2040 C   0  0  0  0  0  3  0  0  0  0  0  0
  187.4190  178.3210  137.3400 C   0  0  0  0  0  3  0  0  0  0  0  0
  188.2720  177.9310  139.5740 C   0  0  0  0  0  3  0  0  0  0  0  0
  190.9830  176.4600  144.8050 C   0  0  0  0  0  0  0  0  0  0  0  0
  192.0560  175.8180  144.2820 F   0  0  0  0  0  0  0  0  0  0  0  0
  188.7960  177.4860  144.5340 C   0  0  0  0  0  0  0  0  0  0  0  0
  190.9510  176.7530  146.1700 C   0  0  0  0  0  3  0  0  0  0  0  0
  188.7680  177.7590  145.9070 C   0  0  0  0  0  3  0  0  0  0  0  0
  189.9060  176.8160  143.9850 C   0  0  0  0  0  0  0  0  0  0  0  0
  189.9310  176.4770  142.6710 F   0  0  0  0  0  0  0  0  0  0  0  0
  189.8400  177.4020  146.7300 C   0  0  0  0  0  0  0  0  0  0  0  0
  188.6150  178.2520  148.7030 C   0  0  0  0  0  1  0  0  0  0  0  0
  189.7750  177.7020  148.0940 O   0  0  0  0  0  0  0  0  0  0  0  0
  182.8980  179.2050  143.1920 N   0  0  0  0  0  2  0  0  0  0  0  0
  181.5140  179.0030  143.5950 C   0  0  0  0  0  2  0  0  0  0  0  0
  180.6940  179.8950  142.9070 O   0  0  0  0  0  0  0  0  0  0  0  0
  180.6220  179.3780  141.6150 C   0  0  0  0  0  1  0  0  0  0  0  0
  1  3  2  0  0  0  0
  2  7  1  0  0  0  0
  2 13  1  0  0  0  0
  3 16  1  0  0  0  0
  4 10  2  0  0  0  0
  4  1  1  0  0  0  0
  5  7  2  0  0  0  0
  6 18  2  0  0  0  0
  7  4  1  0  0  0  0
  8  9  1  0  0  0  0
  9 11  2  0  0  0  0
  9 15  1  0  0  0  0
 10 12  1  0  0  0  0
 11  5  1  0  0  0  0
 12 16  2  0  0  0  0
 13 14  2  0  0  0  0
 14  1  1  0  0  0  0
 14 21  1  0  0  0  0
 15  2  2  0  0  0  0
 17  8  2  0  0  0  0
 17  6  1  0  0  0  0
 18 15  1  0  0  0  0
 19 22  1  0  0  0  0
 20 19  1  0  0  0  0
 21 23  2  0  0  0  0
 22 26  2  0  0  0  0
 23 26  1  0  0  0  0
 24 21  1  0  0  0  0
 24 19  2  0  0  0  0
 25 24  1  0  0  0  0
 26 28  1  0  0  0  0
 28 27  1  0  0  0  0
 29 30  1  0  0  0  0
 29 10  1  0  0  0  0
 31 30  1  0  0  0  0
 32 31  1  0  0  0  0
M  END
>  <MODEL>
8

>  <REMARK>
 VINA RESULT:      -9.9      2.657      5.183
  Name = 
  5 active torsions:
  status: ('A' for Active; 'I' for Inactive)
    1  A    between atoms: O_13  and  C_18
    2  A    between atoms: C_14  and  N_29
    3  A    between atoms: O_15  and  C_26
    4  A    between atoms: C_16  and  C_27
    5  A    between atoms: C_18  and  N_29
                            x       y       z     vdW  Elec       q    Type
                         _______ _______ _______ _____ _____    ______ ____

>  <TORSDO>
F 5

$$$$
=
 OpenBabel10262421133D

 32 36  0  0  0  0  0  0  0  0999 V2000
  187.0240  178.1920  141.9870 C   0  0  0  0  0  0  0  0  0  0  0  0
  188.6330  177.6110  144.1890 C   0  0  0  0  0  0  0  0  0  0  0  0
  186.2470  178.5290  140.8680 C   0  0  0  0  0  3  0  0  0  0  0  0
  186.4590  178.2820  143.2920 C   0  0  0  0  0  0  0  0  0  0  0  0
  186.8140  178.0440  145.6840 N   0  0  0  0  0  0  0  0  0  0  0  0
  191.5970  176.6690  146.2390 C   0  0  0  0  0  3  0  0  0  0  0  0
  187.2850  177.9790  144.4060 C   0  0  0  0  0  0  0  0  0  0  0  0
  189.7210  177.1190  147.7050 C   0  0  0  0  0  3  0  0  0  0  0  0
  188.9200  177.4030  146.5950 C   0  0  0  0  0  0  0  0  0  0  0  0
  185.0980  178.6840  143.4230 C   0  0  0  0  0  0  0  0  0  0  0  0
  187.5880  177.7680  146.7650 C   0  0  0  0  0  3  0  0  0  0  0  0
  184.3550  179.0000  142.2770 C   0  0  0  0  0  3  0  0  0  0  0  0
  189.1240  177.5350  142.9270 N   0  0  0  0  0  0  0  0  0  0  0  0
  188.3690  177.7940  141.8280 C   0  0  0  0  0  0  0  0  0  0  0  0
  189.4560  177.3220  145.2920 C   0  0  0  0  0  0  0  0  0  0  0  0
  184.9230  178.9270  141.0100 C   0  0  0  0  0  3  0  0  0  0  0  0
  191.0580  176.7520  147.5260 C   0  0  0  0  0  3  0  0  0  0  0  0
  190.8000  176.9520  145.1250 C   0  0  0  0  0  3  0  0  0  0  0  0
  190.6730  176.7030  139.0140 C   0  0  0  0  0  0  0  0  0  0  0  0
  191.6940  175.8400  138.7920 F   0  0  0  0  0  0  0  0  0  0  0  0
  189.0130  177.6730  140.5030 C   0  0  0  0  0  0  0  0  0  0  0  0
  190.2280  177.5290  137.9800 C   0  0  0  0  0  3  0  0  0  0  0  0
  188.5870  178.5080  139.4630 C   0  0  0  0  0  3  0  0  0  0  0  0
  190.0760  176.7760  140.2790 C   0  0  0  0  0  0  0  0  0  0  0  0
  190.5550  176.0030  141.2860 F   0  0  0  0  0  0  0  0  0  0  0  0
  189.1830  178.4400  138.2010 C   0  0  0  0  0  0  0  0  0  0  0  0
  187.5560  179.0030  136.4260 C   0  0  0  0  0  1  0  0  0  0  0  0
  188.7210  179.2860  137.1880 O   0  0  0  0  0  0  0  0  0  0  0  0
  184.4690  178.7780  144.7060 N   0  0  0  0  0  2  0  0  0  0  0  0
  183.0880  179.1980  144.8950 C   0  0  0  0  0  2  0  0  0  0  0  0
  182.2330  178.2530  144.3330 O   0  0  0  0  0  0  0  0  0  0  0  0
  181.1000  178.9780  143.9690 C   0  0  0  0  0  1  0  0  0  0  0  0
  1  4  1  0  0  0  0
  2  7  1  0  0  0  0
  2 15  1  0  0  0  0
  3 16  2  0  0  0  0
  3  1  1  0  0  0  0
  4 10  1  0  0  0  0
  4  7  2  0  0  0  0
  5 11  2  0  0  0  0
  6 17  1  0  0  0  0
  7  5  1  0  0  0  0
  9 11  1  0  0  0  0
  9  8  1  0  0  0  0
 10 29  1  0  0  0  0
 12 10  2  0  0  0  0
 13  2  2  0  0  0  0
 14  1  2  0  0  0  0
 14 13  1  0  0  0  0
 15  9  2  0  0  0  0
 16 12  1  0  0  0  0
 17  8  2  0  0  0  0
 18 15  1  0  0  0  0
 18  6  2  0  0  0  0
 19 24  1  0  0  0  0
 20 19  1  0  0  0  0
 21 14  1  0  0  0  0
 22 26  1  0  0  0  0
 22 19  2  0  0  0  0
 23 21  1  0  0  0  0
 24 21  2  0  0  0  0
 24 25  1  0  0  0  0
 26 23  2  0  0  0  0
 27 28  1  0  0  0  0
 28 26  1  0  0  0  0
 29 30  1  0  0  0  0
 31 30  1  0  0  0  0
 32 31  1  0  0  0  0
M  END
>  <MODEL>
9

>  <REMARK>
 VINA RESULT:      -9.9      2.981      7.415
  Name = 
  5 active torsions:
  status: ('A' for Active; 'I' for Inactive)
    1  A    between atoms: O_13  and  C_18
    2  A    between atoms: C_14  and  N_29
    3  A    between atoms: O_15  and  C_26
    4  A    between atoms: C_16  and  C_27
    5  A    between atoms: C_18  and  N_29
                            x       y       z     vdW  Elec       q    Type
                         _______ _______ _______ _____ _____    ______ ____

>  <TORSDO>
F 5

$$$$
