=
 OpenBabel10262421573D

 30 32  0  0  1  0  0  0  0  0999 V2000
  184.8220  178.8710  140.1270 O   0  0  0  0  0  0  0  0  0  0  0  0
  183.7150  178.5720  140.9210 C   0  0  0  0  0  2  0  0  0  0  0  0
  184.1290  178.5380  142.3760 C   0  0  0  0  0  2  0  0  0  0  0  0
  182.9670  178.9410  143.2690 C   0  0  0  0  0  2  0  0  0  0  0  0
  183.4440  179.1420  144.6970 C   0  0  0  0  0  2  0  0  0  0  0  0
  184.8860  178.7750  147.1360 O   0  0  0  0  0  0  0  0  0  0  0  0
  185.5230  178.6460  146.0550 C   0  0  0  0  0  0  0  0  0  0  0  0
  184.8560  178.8070  144.7990 N   0  0  0  0  0  2  0  0  0  0  0  0
  188.7400  177.1700  144.6190 C   0  0  0  0  0  2  0  0  0  0  0  0
  191.1530  177.7690  144.8550 C   0  0  0  0  0  1  0  0  0  0  0  0
  187.2720  177.0190  146.7270 C   0  0  1  0  0  3  0  0  0  0  0  0
  189.7510  178.0570  145.3570 C   0  0  2  0  0  3  0  0  0  0  0  0
  187.3130  177.1670  145.2060 C   0  0  1  0  0  3  0  0  0  0  0  0
  189.7090  177.9140  146.8810 C   0  0  0  0  0  2  0  0  0  0  0  0
  188.6660  176.9080  147.3800 C   0  0  0  0  0  2  0  0  0  0  0  0
  186.9920  178.3770  146.0810 C   0  0  1  0  0  3  0  0  0  0  0  0
  184.3550  178.7720  138.8190 C   0  0  0  0  0  2  0  0  0  0  0  0
  185.3280  177.9620  137.9830 C   0  0  0  0  0  2  0  0  0  0  0  0
  186.5740  178.5950  137.9560 O   0  0  0  0  0  0  0  0  0  0  0  0
  187.7750  178.0100  135.8510 C   0  0  0  0  0  2  0  0  0  0  0  0
  186.7300  176.9680  136.2060 C   0  0  0  0  0  2  0  0  0  0  0  0
  187.4510  177.7160  137.3070 C   0  0  0  0  0  0  0  0  0  0  0  0
  188.2900  176.7670  138.1720 C   0  0  0  0  0  2  0  0  0  0  0  0
  189.3400  177.4960  139.0090 C   0  0  1  0  0  3  0  0  0  0  0  0
  189.0810  177.3790  140.5180 C   0  0  2  0  0  3  0  0  0  0  0  0
  188.2440  178.5190  141.0900 C   0  0  0  0  0  1  0  0  0  0  0  0
  190.3620  177.1590  141.3170 C   0  0  0  0  0  2  0  0  0  0  0  0
  190.3720  175.8970  141.9160 O   0  0  0  0  0  1  0  0  0  0  0  0
  190.7270  176.9850  138.6560 C   0  0  0  0  0  2  0  0  0  0  0  0
  190.6210  175.7210  137.3610 S   0  0  0  0  0  1  0  0  0  0  0  0
  1  2  1  0  0  0  0
  2  3  1  0  0  0  0
  3  4  1  0  0  0  0
  4  5  1  0  0  0  0
  5  8  1  0  0  0  0
  7  6  2  0  0  0  0
  8  7  1  0  0  0  0
  9 12  1  0  0  0  0
 11 15  1  1  0  0  0
 12 10  1  6  0  0  0
 12 14  1  0  0  0  0
 13  9  1  1  0  0  0
 13 16  1  0  0  0  0
 13 11  1  0  0  0  0
 14 15  1  0  0  0  0
 16  7  1  6  0  0  0
 16 11  1  0  0  0  0
 17  1  1  0  0  0  0
 18 17  1  0  0  0  0
 19 18  1  0  0  0  0
 20 21  1  0  0  0  0
 20 22  1  0  0  0  0
 21 22  1  0  0  0  0
 22 19  1  0  0  0  0
 22 23  1  0  0  0  0
 24 23  1  6  0  0  0
 24 25  1  0  0  0  0
 25 26  1  1  0  0  0
 25 27  1  0  0  0  0
 27 28  1  0  0  0  0
 29 24  1  0  0  0  0
 30 29  1  0  0  0  0
M  END
>  <MODEL>
1

>  <REMARK>
 VINA RESULT:      -6.7      0.000      0.000
  Name = 
  15 active torsions:
  status: ('A' for Active; 'I' for Inactive)
    1  A    between atoms: C_2  and  C_18
    2  A    between atoms: C_2  and  C_22
    3  A    between atoms: C_4  and  C_23
    4  A    between atoms: C_7  and  C_16
    5  A    between atoms: C_7  and  C_30
    6  A    between atoms: O_10  and  C_19
    7  A    between atoms: O_10  and  C_25
    8  A    between atoms: N_13  and  C_27
    9  A    between atoms: O_15  and  C_16
   10  A    between atoms: O_15  and  C_26
   11  A    between atoms: C_18  and  C_20
   12  A    between atoms: C_18  and  C_28
   13  A    between atoms: C_19  and  C_28
   14  A    between atoms: C_25  and  C_26
   15  A    between atoms: C_27  and  C_30
                            x       y       z     vdW  Elec       q    Type
                         _______ _______ _______ _____ _____    ______ ____

>  <TORSDO>
F 15

$$$$
=
 OpenBabel10262421573D

 30 32  0  0  1  0  0  0  0  0999 V2000
  184.3580  179.5030  145.4070 O   0  0  0  0  0  0  0  0  0  0  0  0
  184.4300  178.5190  144.4210 C   0  0  0  0  0  2  0  0  0  0  0  0
  183.7760  179.0240  143.1540 C   0  0  0  0  0  2  0  0  0  0  0  0
  184.4270  178.3940  141.9320 C   0  0  0  0  0  2  0  0  0  0  0  0
  185.6880  179.1520  141.5570 C   0  0  0  0  0  2  0  0  0  0  0  0
  188.5060  178.8310  141.2180 O   0  0  0  0  0  0  0  0  0  0  0  0
  187.7540  178.3900  140.3080 C   0  0  0  0  0  0  0  0  0  0  0  0
  186.3320  178.5100  140.4220 N   0  0  0  0  0  2  0  0  0  0  0  0
  190.6330  176.8770  138.3030 C   0  0  0  0  0  2  0  0  0  0  0  0
  190.7300  175.2950  136.3740 C   0  0  0  0  0  1  0  0  0  0  0  0
  189.0020  178.8660  138.2160 C   0  0  1  0  0  3  0  0  0  0  0  0
  189.8110  176.1250  137.2490 C   0  0  2  0  0  3  0  0  0  0  0  0
  189.8640  177.9580  139.0920 C   0  0  1  0  0  3  0  0  0  0  0  0
  188.9420  177.0320  136.3720 C   0  0  0  0  0  2  0  0  0  0  0  0
  189.0630  178.5210  136.7120 C   0  0  0  0  0  2  0  0  0  0  0  0
  188.3470  177.7850  139.0770 C   0  0  1  0  0  3  0  0  0  0  0  0
  185.2420  179.0770  146.3960 C   0  0  0  0  0  2  0  0  0  0  0  0
  186.3920  178.3130  145.7670 C   0  0  0  0  0  2  0  0  0  0  0  0
  186.7780  177.2610  146.6030 O   0  0  0  0  0  0  0  0  0  0  0  0
  188.5080  177.0130  148.3820 C   0  0  0  0  0  2  0  0  0  0  0  0
  188.0610  178.4550  148.2370 C   0  0  0  0  0  2  0  0  0  0  0  0
  188.0830  177.5480  147.0240 C   0  0  0  0  0  0  0  0  0  0  0  0
  189.0850  178.0430  145.9740 C   0  0  0  0  0  2  0  0  0  0  0  0
  189.8790  176.9090  145.3280 C   0  0  1  0  0  3  0  0  0  0  0  0
  189.6100  176.7800  143.8210 C   0  0  2  0  0  3  0  0  0  0  0  0
  188.2230  176.2400  143.4870 C   0  0  0  0  0  1  0  0  0  0  0  0
  190.7090  176.0120  143.0940 C   0  0  0  0  0  2  0  0  0  0  0  0
  190.4430  175.9270  141.7250 O   0  0  0  0  0  1  0  0  0  0  0  0
  191.3630  177.0980  145.5980 C   0  0  0  0  0  2  0  0  0  0  0  0
  191.8950  176.0290  146.9620 S   0  0  0  0  0  1  0  0  0  0  0  0
  1 17  1  0  0  0  0
  2  1  1  0  0  0  0
  3  2  1  0  0  0  0
  4  3  1  0  0  0  0
  5  4  1  0  0  0  0
  7  8  1  0  0  0  0
  7  6  2  0  0  0  0
  8  5  1  0  0  0  0
 11 15  1  6  0  0  0
 11 16  1  0  0  0  0
 11 13  1  0  0  0  0
 12 10  1  6  0  0  0
 12  9  1  0  0  0  0
 13  9  1  6  0  0  0
 14 15  1  0  0  0  0
 14 12  1  0  0  0  0
 16 13  1  0  0  0  0
 16  7  1  1  0  0  0
 18 17  1  0  0  0  0
 18 19  1  0  0  0  0
 19 22  1  0  0  0  0
 21 20  1  0  0  0  0
 22 21  1  0  0  0  0
 22 20  1  0  0  0  0
 23 22  1  0  0  0  0
 24 29  1  6  0  0  0
 24 23  1  0  0  0  0
 25 26  1  1  0  0  0
 25 24  1  0  0  0  0
 27 25  1  0  0  0  0
 28 27  1  0  0  0  0
 29 30  1  0  0  0  0
M  END
>  <MODEL>
2

>  <REMARK>
 VINA RESULT:      -6.7      2.606      7.383
  Name = 
  15 active torsions:
  status: ('A' for Active; 'I' for Inactive)
    1  A    between atoms: C_2  and  C_18
    2  A    between atoms: C_2  and  C_22
    3  A    between atoms: C_4  and  C_23
    4  A    between atoms: C_7  and  C_16
    5  A    between atoms: C_7  and  C_30
    6  A    between atoms: O_10  and  C_19
    7  A    between atoms: O_10  and  C_25
    8  A    between atoms: N_13  and  C_27
    9  A    between atoms: O_15  and  C_16
   10  A    between atoms: O_15  and  C_26
   11  A    between atoms: C_18  and  C_20
   12  A    between atoms: C_18  and  C_28
   13  A    between atoms: C_19  and  C_28
   14  A    between atoms: C_25  and  C_26
   15  A    between atoms: C_27  and  C_30
                            x       y       z     vdW  Elec       q    Type
                         _______ _______ _______ _____ _____    ______ ____

>  <TORSDO>
F 15

$$$$
=
 OpenBabel10262421573D

 30 32  0  0  1  0  0  0  0  0999 V2000
  184.1820  178.4280  144.5630 O   0  0  0  0  0  0  0  0  0  0  0  0
  183.8490  179.1080  143.3910 C   0  0  0  0  0  2  0  0  0  0  0  0
  184.7270  178.6220  142.2580 C   0  0  0  0  0  2  0  0  0  0  0  0
  183.8910  178.3590  141.0150 C   0  0  0  0  0  2  0  0  0  0  0  0
  184.3860  179.2080  139.8580 C   0  0  0  0  0  2  0  0  0  0  0  0
  184.9560  177.6410  137.5390 O   0  0  0  0  0  0  0  0  0  0  0  0
  185.9250  177.9690  138.2750 C   0  0  0  0  0  0  0  0  0  0  0  0
  185.7080  178.7630  139.4460 N   0  0  0  0  0  2  0  0  0  0  0  0
  189.6550  177.5880  139.0080 C   0  0  0  0  0  2  0  0  0  0  0  0
  191.3680  175.9000  138.3380 C   0  0  0  0  0  1  0  0  0  0  0  0
  188.0880  178.5680  137.2170 C   0  0  1  0  0  3  0  0  0  0  0  0
  189.9410  176.3670  138.1250 C   0  0  2  0  0  3  0  0  0  0  0  0
  188.3340  178.3270  138.7060 C   0  0  1  0  0  3  0  0  0  0  0  0
  189.6910  176.6040  136.6330 C   0  0  0  0  0  2  0  0  0  0  0  0
  189.2070  178.0200  136.3050 C   0  0  0  0  0  2  0  0  0  0  0  0
  187.3020  177.4850  137.9570 C   0  0  1  0  0  3  0  0  0  0  0  0
  185.5740  178.4530  144.6030 C   0  0  0  0  0  2  0  0  0  0  0  0
  186.0720  177.6140  145.7650 C   0  0  0  0  0  2  0  0  0  0  0  0
  186.8380  178.4040  146.6280 O   0  0  0  0  0  0  0  0  0  0  0  0
  188.1280  177.2140  148.3990 C   0  0  0  0  0  2  0  0  0  0  0  0
  188.8780  178.4280  147.8840 C   0  0  0  0  0  2  0  0  0  0  0  0
  187.9740  177.6500  146.9510 C   0  0  0  0  0  0  0  0  0  0  0  0
  188.7690  177.0170  145.8020 C   0  0  0  0  0  2  0  0  0  0  0  0
  189.5340  178.0460  144.9710 C   0  0  1  0  0  3  0  0  0  0  0  0
  191.0570  177.8690  145.0640 C   0  0  2  0  0  3  0  0  0  0  0  0
  191.7780  178.0220  143.7280 C   0  0  0  0  0  1  0  0  0  0  0  0
  191.4540  176.5810  145.7790 C   0  0  0  0  0  2  0  0  0  0  0  0
  191.9340  176.8460  147.0640 O   0  0  0  0  0  1  0  0  0  0  0  0
  189.0700  177.9910  143.5250 C   0  0  0  0  0  2  0  0  0  0  0  0
  188.4810  176.3260  143.1170 S   0  0  0  0  0  1  0  0  0  0  0  0
  1 17  1  0  0  0  0
  2  1  1  0  0  0  0
  3  2  1  0  0  0  0
  4  3  1  0  0  0  0
  5  4  1  0  0  0  0
  6  7  2  0  0  0  0
  7  8  1  0  0  0  0
  8  5  1  0  0  0  0
 11 15  1  6  0  0  0
 11 16  1  0  0  0  0
 11 13  1  0  0  0  0
 12 10  1  6  0  0  0
 12  9  1  0  0  0  0
 13  9  1  6  0  0  0
 14 12  1  0  0  0  0
 15 14  1  0  0  0  0
 16  7  1  1  0  0  0
 16 13  1  0  0  0  0
 17 18  1  0  0  0  0
 18 19  1  0  0  0  0
 19 22  1  0  0  0  0
 21 20  1  0  0  0  0
 22 21  1  0  0  0  0
 22 20  1  0  0  0  0
 23 22  1  0  0  0  0
 24 29  1  6  0  0  0
 24 25  1  0  0  0  0
 24 23  1  0  0  0  0
 25 26  1  6  0  0  0
 25 27  1  0  0  0  0
 27 28  1  0  0  0  0
 30 29  1  0  0  0  0
M  END
>  <MODEL>
3

>  <REMARK>
 VINA RESULT:      -6.6      2.257      7.378
  Name = 
  15 active torsions:
  status: ('A' for Active; 'I' for Inactive)
    1  A    between atoms: C_2  and  C_18
    2  A    between atoms: C_2  and  C_22
    3  A    between atoms: C_4  and  C_23
    4  A    between atoms: C_7  and  C_16
    5  A    between atoms: C_7  and  C_30
    6  A    between atoms: O_10  and  C_19
    7  A    between atoms: O_10  and  C_25
    8  A    between atoms: N_13  and  C_27
    9  A    between atoms: O_15  and  C_16
   10  A    between atoms: O_15  and  C_26
   11  A    between atoms: C_18  and  C_20
   12  A    between atoms: C_18  and  C_28
   13  A    between atoms: C_19  and  C_28
   14  A    between atoms: C_25  and  C_26
   15  A    between atoms: C_27  and  C_30
                            x       y       z     vdW  Elec       q    Type
                         _______ _______ _______ _____ _____    ______ ____

>  <TORSDO>
F 15

$$$$
=
 OpenBabel10262421573D

 30 32  0  0  1  0  0  0  0  0999 V2000
  183.8390  178.3080  144.4050 O   0  0  0  0  0  0  0  0  0  0  0  0
  183.5070  179.3900  143.5900 C   0  0  0  0  0  2  0  0  0  0  0  0
  183.0590  178.8850  142.2360 C   0  0  0  0  0  2  0  0  0  0  0  0
  184.2290  178.2680  141.4850 C   0  0  0  0  0  2  0  0  0  0  0  0
  184.6180  179.1430  140.3060 C   0  0  0  0  0  2  0  0  0  0  0  0
  185.0060  177.8410  137.7930 O   0  0  0  0  0  0  0  0  0  0  0  0
  186.0240  178.0520  138.5050 C   0  0  0  0  0  0  0  0  0  0  0  0
  185.8990  178.7090  139.7710 N   0  0  0  0  0  2  0  0  0  0  0  0
  189.7920  177.5790  138.9250 C   0  0  0  0  0  2  0  0  0  0  0  0
  191.4170  175.9070  138.0300 C   0  0  0  0  0  1  0  0  0  0  0  0
  188.1110  178.6800  137.3170 C   0  0  1  0  0  3  0  0  0  0  0  0
  189.9870  176.4060  137.9550 C   0  0  2  0  0  3  0  0  0  0  0  0
  188.4650  178.3510  138.7680 C   0  0  1  0  0  3  0  0  0  0  0  0
  189.6280  176.7310  136.5020 C   0  0  0  0  0  2  0  0  0  0  0  0
  189.1460  178.1700  136.2920 C   0  0  0  0  0  2  0  0  0  0  0  0
  187.3640  177.5680  138.0550 C   0  0  1  0  0  3  0  0  0  0  0  0
  184.5330  178.8700  145.4740 C   0  0  0  0  0  2  0  0  0  0  0  0
  186.0190  178.6050  145.3210 C   0  0  0  0  0  2  0  0  0  0  0  0
  186.2210  177.4880  144.5050 O   0  0  0  0  0  0  0  0  0  0  0  0
  187.7700  177.5110  142.5510 C   0  0  0  0  0  2  0  0  0  0  0  0
  187.9520  176.2610  143.3910 C   0  0  0  0  0  2  0  0  0  0  0  0
  187.5460  177.5610  144.0540 C   0  0  0  0  0  0  0  0  0  0  0  0
  188.6160  178.0450  145.0400 C   0  0  0  0  0  2  0  0  0  0  0  0
  189.6370  176.9620  145.3870 C   0  0  1  0  0  3  0  0  0  0  0  0
  191.0100  177.2150  144.7480 C   0  0  2  0  0  3  0  0  0  0  0  0
  191.1960  178.6380  144.2310 C   0  0  0  0  0  1  0  0  0  0  0  0
  191.3650  176.1750  143.6910 C   0  0  0  0  0  2  0  0  0  0  0  0
  192.1870  175.1770  144.2200 O   0  0  0  0  0  1  0  0  0  0  0  0
  189.7580  176.8310  146.8970 C   0  0  0  0  0  2  0  0  0  0  0  0
  191.4810  176.5230  147.3650 S   0  0  0  0  0  1  0  0  0  0  0  0
  1 17  1  0  0  0  0
  2  1  1  0  0  0  0
  3  2  1  0  0  0  0
  4  3  1  0  0  0  0
  5  4  1  0  0  0  0
  6  7  2  0  0  0  0
  7  8  1  0  0  0  0
  8  5  1  0  0  0  0
 11 15  1  6  0  0  0
 11 16  1  0  0  0  0
 11 13  1  0  0  0  0
 12 10  1  6  0  0  0
 12  9  1  0  0  0  0
 13  9  1  6  0  0  0
 14 12  1  0  0  0  0
 15 14  1  0  0  0  0
 16  7  1  1  0  0  0
 16 13  1  0  0  0  0
 18 17  1  0  0  0  0
 19 18  1  0  0  0  0
 20 21  1  0  0  0  0
 20 22  1  0  0  0  0
 21 22  1  0  0  0  0
 22 19  1  0  0  0  0
 22 23  1  0  0  0  0
 24 23  1  1  0  0  0
 24 29  1  0  0  0  0
 25 26  1  6  0  0  0
 25 24  1  0  0  0  0
 27 28  1  0  0  0  0
 27 25  1  0  0  0  0
 29 30  1  0  0  0  0
M  END
>  <MODEL>
4

>  <REMARK>
 VINA RESULT:      -6.5      2.577      6.851
  Name = 
  15 active torsions:
  status: ('A' for Active; 'I' for Inactive)
    1  A    between atoms: C_2  and  C_18
    2  A    between atoms: C_2  and  C_22
    3  A    between atoms: C_4  and  C_23
    4  A    between atoms: C_7  and  C_16
    5  A    between atoms: C_7  and  C_30
    6  A    between atoms: O_10  and  C_19
    7  A    between atoms: O_10  and  C_25
    8  A    between atoms: N_13  and  C_27
    9  A    between atoms: O_15  and  C_16
   10  A    between atoms: O_15  and  C_26
   11  A    between atoms: C_18  and  C_20
   12  A    between atoms: C_18  and  C_28
   13  A    between atoms: C_19  and  C_28
   14  A    between atoms: C_25  and  C_26
   15  A    between atoms: C_27  and  C_30
                            x       y       z     vdW  Elec       q    Type
                         _______ _______ _______ _____ _____    ______ ____

>  <TORSDO>
F 15

$$$$
=
 OpenBabel10262421573D

 30 32  0  0  1  0  0  0  0  0999 V2000
  189.0300  178.3760  139.9360 O   0  0  0  0  0  0  0  0  0  0  0  0
  188.9250  178.2090  138.5550 C   0  0  0  0  0  2  0  0  0  0  0  0
  188.4930  176.7920  138.2480 C   0  0  0  0  0  2  0  0  0  0  0  0
  187.1570  176.7900  137.5200 C   0  0  0  0  0  2  0  0  0  0  0  0
  186.6200  178.2050  137.4010 C   0  0  0  0  0  2  0  0  0  0  0  0
  185.8300  178.9430  140.0450 O   0  0  0  0  0  0  0  0  0  0  0  0
  184.9210  178.6260  139.2310 C   0  0  0  0  0  0  0  0  0  0  0  0
  185.2500  178.2570  137.8880 N   0  0  0  0  0  2  0  0  0  0  0  0
  182.1870  178.7100  141.8980 C   0  0  0  0  0  2  0  0  0  0  0  0
  179.7750  179.3560  141.8580 C   0  0  0  0  0  1  0  0  0  0  0  0
  183.1020  177.1560  140.0610 C   0  0  1  0  0  3  0  0  0  0  0  0
  181.0050  179.1090  141.0060 C   0  0  2  0  0  3  0  0  0  0  0  0
  183.4280  178.1780  141.1510 C   0  0  1  0  0  3  0  0  0  0  0  0
  180.6790  178.0900  139.9100 C   0  0  0  0  0  2  0  0  0  0  0  0
  181.5940  176.8610  139.9160 C   0  0  0  0  0  2  0  0  0  0  0  0
  183.4970  178.5840  139.6800 C   0  0  1  0  0  3  0  0  0  0  0  0
  189.5460  177.1680  140.3990 C   0  0  0  0  0  2  0  0  0  0  0  0
  189.1880  176.9810  141.8620 C   0  0  0  0  0  2  0  0  0  0  0  0
  189.4080  178.1710  142.5620 O   0  0  0  0  0  0  0  0  0  0  0  0
  190.7180  178.5730  144.6450 C   0  0  0  0  0  2  0  0  0  0  0  0
  191.0190  177.2090  144.0510 C   0  0  0  0  0  2  0  0  0  0  0  0
  189.6370  177.8100  143.8960 C   0  0  0  0  0  0  0  0  0  0  0  0
  188.5750  176.9600  144.6030 C   0  0  0  0  0  2  0  0  0  0  0  0
  187.7980  177.7390  145.6630 C   0  0  1  0  0  3  0  0  0  0  0  0
  186.3110  177.8950  145.3140 C   0  0  2  0  0  3  0  0  0  0  0  0
  186.0310  177.9340  143.8150 C   0  0  0  0  0  1  0  0  0  0  0  0
  185.6560  179.0630  146.0450 C   0  0  0  0  0  2  0  0  0  0  0  0
  184.8330  178.6130  147.0790 O   0  0  0  0  0  1  0  0  0  0  0  0
  187.9690  177.0770  147.0210 C   0  0  0  0  0  2  0  0  0  0  0  0
  188.7930  178.2080  148.1730 S   0  0  0  0  0  1  0  0  0  0  0  0
  1 17  1  0  0  0  0
  2  1  1  0  0  0  0
  3  2  1  0  0  0  0
  4  3  1  0  0  0  0
  5  4  1  0  0  0  0
  5  8  1  0  0  0  0
  7  6  2  0  0  0  0
  8  7  1  0  0  0  0
 11 15  1  1  0  0  0
 11 13  1  0  0  0  0
 12 10  1  1  0  0  0
 12  9  1  0  0  0  0
 13  9  1  1  0  0  0
 14 15  1  0  0  0  0
 14 12  1  0  0  0  0
 16  7  1  6  0  0  0
 16 11  1  0  0  0  0
 16 13  1  0  0  0  0
 17 18  1  0  0  0  0
 18 19  1  0  0  0  0
 19 22  1  0  0  0  0
 21 20  1  0  0  0  0
 22 21  1  0  0  0  0
 22 23  1  0  0  0  0
 22 20  1  0  0  0  0
 24 23  1  6  0  0  0
 24 29  1  0  0  0  0
 25 26  1  6  0  0  0
 25 24  1  0  0  0  0
 25 27  1  0  0  0  0
 27 28  1  0  0  0  0
 29 30  1  0  0  0  0
M  END
>  <MODEL>
5

>  <REMARK>
 VINA RESULT:      -6.4      2.913      7.713
  Name = 
  15 active torsions:
  status: ('A' for Active; 'I' for Inactive)
    1  A    between atoms: C_2  and  C_18
    2  A    between atoms: C_2  and  C_22
    3  A    between atoms: C_4  and  C_23
    4  A    between atoms: C_7  and  C_16
    5  A    between atoms: C_7  and  C_30
    6  A    between atoms: O_10  and  C_19
    7  A    between atoms: O_10  and  C_25
    8  A    between atoms: N_13  and  C_27
    9  A    between atoms: O_15  and  C_16
   10  A    between atoms: O_15  and  C_26
   11  A    between atoms: C_18  and  C_20
   12  A    between atoms: C_18  and  C_28
   13  A    between atoms: C_19  and  C_28
   14  A    between atoms: C_25  and  C_26
   15  A    between atoms: C_27  and  C_30
                            x       y       z     vdW  Elec       q    Type
                         _______ _______ _______ _____ _____    ______ ____

>  <TORSDO>
F 15

$$$$
=
 OpenBabel10262421573D

 30 32  0  0  1  0  0  0  0  0999 V2000
  188.2040  177.6870  141.5130 O   0  0  0  0  0  0  0  0  0  0  0  0
  188.9830  177.4780  140.3750 C   0  0  0  0  0  2  0  0  0  0  0  0
  190.1640  176.5990  140.7240 C   0  0  0  0  0  2  0  0  0  0  0  0
  191.4520  177.4070  140.7020 C   0  0  0  0  0  2  0  0  0  0  0  0
  192.1170  177.3750  142.0670 C   0  0  0  0  0  2  0  0  0  0  0  0
  191.4230  179.5190  143.8230 O   0  0  0  0  0  0  0  0  0  0  0  0
  190.8110  178.4260  143.9650 C   0  0  0  0  0  0  0  0  0  0  0  0
  191.1040  177.3160  143.1090 N   0  0  0  0  0  2  0  0  0  0  0  0
  189.6130  176.9970  147.2990 C   0  0  0  0  0  2  0  0  0  0  0  0
  187.9800  177.7910  149.0140 C   0  0  0  0  0  1  0  0  0  0  0  0
  188.9410  177.0320  144.8150 C   0  0  1  0  0  3  0  0  0  0  0  0
  188.5420  178.0450  147.6280 C   0  0  2  0  0  3  0  0  0  0  0  0
  190.0830  176.9730  145.8290 C   0  0  1  0  0  3  0  0  0  0  0  0
  187.3990  178.1100  146.6110 C   0  0  0  0  0  2  0  0  0  0  0  0
  187.5400  177.1110  145.4580 C   0  0  0  0  0  2  0  0  0  0  0  0
  189.8100  178.2660  145.0630 C   0  0  1  0  0  3  0  0  0  0  0  0
  187.5970  178.9230  141.3030 C   0  0  0  0  0  2  0  0  0  0  0  0
  186.1320  178.7260  140.9590 C   0  0  0  0  0  2  0  0  0  0  0  0
  185.3510  179.6550  141.6530 O   0  0  0  0  0  0  0  0  0  0  0  0
  184.0090  179.3080  143.7250 C   0  0  0  0  0  2  0  0  0  0  0  0
  184.9140  178.1240  143.4420 C   0  0  0  0  0  2  0  0  0  0  0  0
  184.3410  178.9250  142.2920 C   0  0  0  0  0  0  0  0  0  0  0  0
  183.4120  178.0690  141.4220 C   0  0  0  0  0  2  0  0  0  0  0  0
  182.5130  178.9030  140.5110 C   0  0  1  0  0  3  0  0  0  0  0  0
  182.9520  178.8550  139.0400 C   0  0  2  0  0  3  0  0  0  0  0  0
  181.9650  179.5130  138.0810 C   0  0  0  0  0  1  0  0  0  0  0  0
  183.3320  177.4490  138.5870 C   0  0  0  0  0  2  0  0  0  0  0  0
  184.6200  177.4240  138.0480 O   0  0  0  0  0  1  0  0  0  0  0  0
  181.0680  178.4540  140.6600 C   0  0  0  0  0  2  0  0  0  0  0  0
  180.5200  178.6580  142.3750 S   0  0  0  0  0  1  0  0  0  0  0  0
  2  3  1  0  0  0  0
  2  1  1  0  0  0  0
  4  3  1  0  0  0  0
  4  5  1  0  0  0  0
  5  8  1  0  0  0  0
  6  7  2  0  0  0  0
  8  7  1  0  0  0  0
  9 12  1  0  0  0  0
 11 16  1  0  0  0  0
 11 15  1  1  0  0  0
 11 13  1  0  0  0  0
 12 10  1  1  0  0  0
 13  9  1  1  0  0  0
 14 12  1  0  0  0  0
 15 14  1  0  0  0  0
 16  7  1  6  0  0  0
 16 13  1  0  0  0  0
 17  1  1  0  0  0  0
 18 17  1  0  0  0  0
 18 19  1  0  0  0  0
 19 22  1  0  0  0  0
 21 20  1  0  0  0  0
 22 21  1  0  0  0  0
 22 20  1  0  0  0  0
 23 22  1  0  0  0  0
 24 29  1  6  0  0  0
 24 23  1  0  0  0  0
 25 26  1  6  0  0  0
 25 24  1  0  0  0  0
 27 25  1  0  0  0  0
 28 27  1  0  0  0  0
 29 30  1  0  0  0  0
M  END
>  <MODEL>
6

>  <REMARK>
 VINA RESULT:      -6.4      3.228      6.310
  Name = 
  15 active torsions:
  status: ('A' for Active; 'I' for Inactive)
    1  A    between atoms: C_2  and  C_18
    2  A    between atoms: C_2  and  C_22
    3  A    between atoms: C_4  and  C_23
    4  A    between atoms: C_7  and  C_16
    5  A    between atoms: C_7  and  C_30
    6  A    between atoms: O_10  and  C_19
    7  A    between atoms: O_10  and  C_25
    8  A    between atoms: N_13  and  C_27
    9  A    between atoms: O_15  and  C_16
   10  A    between atoms: O_15  and  C_26
   11  A    between atoms: C_18  and  C_20
   12  A    between atoms: C_18  and  C_28
   13  A    between atoms: C_19  and  C_28
   14  A    between atoms: C_25  and  C_26
   15  A    between atoms: C_27  and  C_30
                            x       y       z     vdW  Elec       q    Type
                         _______ _______ _______ _____ _____    ______ ____

>  <TORSDO>
F 15

$$$$
=
 OpenBabel10262421573D

 30 32  0  0  1  0  0  0  0  0999 V2000
  185.0340  179.2070  140.2630 O   0  0  0  0  0  0  0  0  0  0  0  0
  183.9950  178.7380  141.0670 C   0  0  0  0  0  2  0  0  0  0  0  0
  184.4020  178.8260  142.5220 C   0  0  0  0  0  2  0  0  0  0  0  0
  183.1790  179.0190  143.4050 C   0  0  0  0  0  2  0  0  0  0  0  0
  183.5260  178.7330  144.8550 C   0  0  0  0  0  2  0  0  0  0  0  0
  185.3000  179.5060  146.9560 O   0  0  0  0  0  0  0  0  0  0  0  0
  185.7640  178.7760  146.0390 C   0  0  0  0  0  0  0  0  0  0  0  0
  184.9230  178.3450  144.9630 N   0  0  0  0  0  2  0  0  0  0  0  0
  188.8190  176.9820  144.6090 C   0  0  0  0  0  2  0  0  0  0  0  0
  191.2750  177.4110  144.7450 C   0  0  0  0  0  1  0  0  0  0  0  0
  187.4090  177.0640  146.7610 C   0  0  1  0  0  3  0  0  0  0  0  0
  189.9140  177.8310  145.2660 C   0  0  2  0  0  3  0  0  0  0  0  0
  187.4140  177.1190  145.2330 C   0  0  1  0  0  3  0  0  0  0  0  0
  189.9080  177.7820  146.7960 C   0  0  0  0  0  2  0  0  0  0  0  0
  188.8110  176.8880  147.3820 C   0  0  0  0  0  2  0  0  0  0  0  0
  187.2090  178.3990  146.0420 C   0  0  1  0  0  3  0  0  0  0  0  0
  184.7130  178.7690  138.9800 C   0  0  0  0  0  2  0  0  0  0  0  0
  185.9570  178.2490  138.2850 C   0  0  0  0  0  2  0  0  0  0  0  0
  187.0590  178.3530  139.1400 O   0  0  0  0  0  0  0  0  0  0  0  0
  189.5280  178.3140  138.8020 C   0  0  0  0  0  2  0  0  0  0  0  0
  188.8050  178.8220  137.5690 C   0  0  0  0  0  2  0  0  0  0  0  0
  188.1440  177.7890  138.4580 C   0  0  0  0  0  0  0  0  0  0  0  0
  187.9170  176.4700  137.7090 C   0  0  0  0  0  2  0  0  0  0  0  0
  188.4340  176.5060  136.2710 C   0  0  1  0  0  3  0  0  0  0  0  0
  189.4660  175.4050  135.9850 C   0  0  2  0  0  3  0  0  0  0  0  0
  189.3350  174.7830  134.5980 C   0  0  0  0  0  1  0  0  0  0  0  0
  189.5110  174.3450  137.0810 C   0  0  0  0  0  2  0  0  0  0  0  0
  190.6620  174.4750  137.8610 O   0  0  0  0  0  1  0  0  0  0  0  0
  187.2680  176.4210  135.3000 C   0  0  0  0  0  2  0  0  0  0  0  0
  185.9680  175.3520  135.9720 S   0  0  0  0  0  1  0  0  0  0  0  0
  1  2  1  0  0  0  0
  2  3  1  0  0  0  0
  3  4  1  0  0  0  0
  4  5  1  0  0  0  0
  5  8  1  0  0  0  0
  7  6  2  0  0  0  0
  8  7  1  0  0  0  0
  9 12  1  0  0  0  0
 11 15  1  1  0  0  0
 12 10  1  6  0  0  0
 12 14  1  0  0  0  0
 13  9  1  1  0  0  0
 13 16  1  0  0  0  0
 13 11  1  0  0  0  0
 14 15  1  0  0  0  0
 16  7  1  6  0  0  0
 16 11  1  0  0  0  0
 17  1  1  0  0  0  0
 18 17  1  0  0  0  0
 18 19  1  0  0  0  0
 21 22  1  0  0  0  0
 21 20  1  0  0  0  0
 22 20  1  0  0  0  0
 22 19  1  0  0  0  0
 23 22  1  0  0  0  0
 24 29  1  6  0  0  0
 24 23  1  0  0  0  0
 25 26  1  6  0  0  0
 25 24  1  0  0  0  0
 25 27  1  0  0  0  0
 27 28  1  0  0  0  0
 29 30  1  0  0  0  0
M  END
>  <MODEL>
7

>  <REMARK>
 VINA RESULT:      -6.2      1.707      2.658
  Name = 
  15 active torsions:
  status: ('A' for Active; 'I' for Inactive)
    1  A    between atoms: C_2  and  C_18
    2  A    between atoms: C_2  and  C_22
    3  A    between atoms: C_4  and  C_23
    4  A    between atoms: C_7  and  C_16
    5  A    between atoms: C_7  and  C_30
    6  A    between atoms: O_10  and  C_19
    7  A    between atoms: O_10  and  C_25
    8  A    between atoms: N_13  and  C_27
    9  A    between atoms: O_15  and  C_16
   10  A    between atoms: O_15  and  C_26
   11  A    between atoms: C_18  and  C_20
   12  A    between atoms: C_18  and  C_28
   13  A    between atoms: C_19  and  C_28
   14  A    between atoms: C_25  and  C_26
   15  A    between atoms: C_27  and  C_30
                            x       y       z     vdW  Elec       q    Type
                         _______ _______ _______ _____ _____    ______ ____

>  <TORSDO>
F 15

$$$$
=
 OpenBabel10262421573D

 30 32  0  0  1  0  0  0  0  0999 V2000
  185.2530  179.1350  143.6400 O   0  0  0  0  0  0  0  0  0  0  0  0
  184.3980  178.5970  142.6780 C   0  0  0  0  0  2  0  0  0  0  0  0
  184.9250  178.9180  141.2960 C   0  0  0  0  0  2  0  0  0  0  0  0
  183.8210  178.7750  140.2600 C   0  0  0  0  0  2  0  0  0  0  0  0
  184.2900  179.3010  138.9150 C   0  0  0  0  0  2  0  0  0  0  0  0
  184.9980  177.3550  136.9480 O   0  0  0  0  0  0  0  0  0  0  0  0
  185.9270  177.8440  137.6470 C   0  0  0  0  0  0  0  0  0  0  0  0
  185.6390  178.8310  138.6430 N   0  0  0  0  0  2  0  0  0  0  0  0
  189.6400  177.7680  138.5410 C   0  0  0  0  0  2  0  0  0  0  0  0
  191.4250  176.0400  138.2930 C   0  0  0  0  0  1  0  0  0  0  0  0
  188.1040  178.2830  136.5420 C   0  0  1  0  0  3  0  0  0  0  0  0
  189.9930  176.3980  137.9480 C   0  0  2  0  0  3  0  0  0  0  0  0
  188.3080  178.3750  138.0540 C   0  0  1  0  0  3  0  0  0  0  0  0
  189.7860  176.3020  136.4340 C   0  0  0  0  0  2  0  0  0  0  0  0
  189.2690  177.5960  135.7970 C   0  0  0  0  0  2  0  0  0  0  0  0
  187.3280  177.3550  137.4760 C   0  0  1  0  0  3  0  0  0  0  0  0
  184.9710  178.4200  144.8020 C   0  0  0  0  0  2  0  0  0  0  0  0
  185.8900  178.8720  145.9220 C   0  0  0  0  0  2  0  0  0  0  0  0
  186.2070  177.7870  146.7440 O   0  0  0  0  0  0  0  0  0  0  0  0
  188.2520  176.8770  147.8430 C   0  0  0  0  0  2  0  0  0  0  0  0
  188.2220  178.3930  147.8890 C   0  0  0  0  0  2  0  0  0  0  0  0
  187.6030  177.6630  146.7160 C   0  0  0  0  0  0  0  0  0  0  0  0
  188.3280  177.9940  145.4060 C   0  0  0  0  0  2  0  0  0  0  0  0
  189.2810  176.8870  144.9570 C   0  0  1  0  0  3  0  0  0  0  0  0
  188.9270  176.3240  143.5730 C   0  0  2  0  0  3  0  0  0  0  0  0
  190.1430  175.9880  142.7150 C   0  0  0  0  0  1  0  0  0  0  0  0
  187.9270  177.1990  142.8230 C   0  0  0  0  0  2  0  0  0  0  0  0
  188.5380  177.8640  141.7580 O   0  0  0  0  0  1  0  0  0  0  0  0
  190.7130  177.3950  144.9850 C   0  0  0  0  0  2  0  0  0  0  0  0
  191.6730  176.5010  146.2360 S   0  0  0  0  0  1  0  0  0  0  0  0
  1 17  1  0  0  0  0
  2  1  1  0  0  0  0
  3  2  1  0  0  0  0
  4  3  1  0  0  0  0
  5  4  1  0  0  0  0
  6  7  2  0  0  0  0
  7  8  1  0  0  0  0
  8  5  1  0  0  0  0
 11 15  1  6  0  0  0
 11 16  1  0  0  0  0
 11 13  1  0  0  0  0
 12 10  1  6  0  0  0
 12  9  1  0  0  0  0
 13  9  1  6  0  0  0
 14 12  1  0  0  0  0
 15 14  1  0  0  0  0
 16  7  1  1  0  0  0
 16 13  1  0  0  0  0
 17 18  1  0  0  0  0
 18 19  1  0  0  0  0
 20 21  1  0  0  0  0
 22 19  1  0  0  0  0
 22 20  1  0  0  0  0
 22 21  1  0  0  0  0
 23 22  1  0  0  0  0
 24 29  1  6  0  0  0
 24 23  1  0  0  0  0
 25 26  1  6  0  0  0
 25 24  1  0  0  0  0
 27 25  1  0  0  0  0
 28 27  1  0  0  0  0
 29 30  1  0  0  0  0
M  END
>  <MODEL>
8

>  <REMARK>
 VINA RESULT:      -6.2      2.466      7.535
  Name = 
  15 active torsions:
  status: ('A' for Active; 'I' for Inactive)
    1  A    between atoms: C_2  and  C_18
    2  A    between atoms: C_2  and  C_22
    3  A    between atoms: C_4  and  C_23
    4  A    between atoms: C_7  and  C_16
    5  A    between atoms: C_7  and  C_30
    6  A    between atoms: O_10  and  C_19
    7  A    between atoms: O_10  and  C_25
    8  A    between atoms: N_13  and  C_27
    9  A    between atoms: O_15  and  C_16
   10  A    between atoms: O_15  and  C_26
   11  A    between atoms: C_18  and  C_20
   12  A    between atoms: C_18  and  C_28
   13  A    between atoms: C_19  and  C_28
   14  A    between atoms: C_25  and  C_26
   15  A    between atoms: C_27  and  C_30
                            x       y       z     vdW  Elec       q    Type
                         _______ _______ _______ _____ _____    ______ ____

>  <TORSDO>
F 15

$$$$
=
 OpenBabel10262421573D

 30 32  0  0  1  0  0  0  0  0999 V2000
  184.7310  179.0200  141.1160 O   0  0  0  0  0  0  0  0  0  0  0  0
  185.4610  178.9480  139.9300 C   0  0  0  0  0  2  0  0  0  0  0  0
  184.5430  178.5520  138.7940 C   0  0  0  0  0  2  0  0  0  0  0  0
  185.2130  177.5150  137.9060 C   0  0  0  0  0  2  0  0  0  0  0  0
  186.3110  178.1600  137.0780 C   0  0  0  0  0  2  0  0  0  0  0  0
  188.7390  179.5740  137.5930 O   0  0  0  0  0  0  0  0  0  0  0  0
  188.7770  178.3140  137.6300 C   0  0  0  0  0  0  0  0  0  0  0  0
  187.5920  177.5470  137.3920 N   0  0  0  0  0  2  0  0  0  0  0  0
  190.9550  175.1890  137.9260 C   0  0  0  0  0  2  0  0  0  0  0  0
  193.3980  174.7710  137.6270 C   0  0  0  0  0  1  0  0  0  0  0  0
  190.1890  177.1990  139.3390 C   0  0  1  0  0  3  0  0  0  0  0  0
  192.3260  175.8400  137.7000 C   0  0  2  0  0  3  0  0  0  0  0  0
  189.8120  176.1640  138.2800 C   0  0  1  0  0  3  0  0  0  0  0  0
  192.7040  176.8810  138.7570 C   0  0  0  0  0  2  0  0  0  0  0  0
  191.6420  177.0710  139.8450 C   0  0  0  0  0  2  0  0  0  0  0  0
  190.0740  177.6120  137.8720 C   0  0  1  0  0  3  0  0  0  0  0  0
  185.6820  178.8920  142.1250 C   0  0  0  0  0  2  0  0  0  0  0  0
  185.0330  178.3380  143.3800 C   0  0  0  0  0  2  0  0  0  0  0  0
  185.3030  179.1780  144.4650 O   0  0  0  0  0  0  0  0  0  0  0  0
  184.9270  178.2930  146.7650 C   0  0  0  0  0  2  0  0  0  0  0  0
  186.1540  179.1830  146.7040 C   0  0  0  0  0  2  0  0  0  0  0  0
  185.7650  178.3530  145.4980 C   0  0  0  0  0  0  0  0  0  0  0  0
  186.8420  177.3150  145.1630 C   0  0  0  0  0  2  0  0  0  0  0  0
  188.2610  177.8450  145.3630 C   0  0  1  0  0  3  0  0  0  0  0  0
  189.0960  176.9660  146.3060 C   0  0  2  0  0  3  0  0  0  0  0  0
  188.4640  176.7630  147.6800 C   0  0  0  0  0  1  0  0  0  0  0  0
  190.5450  177.4310  146.4110 C   0  0  0  0  0  2  0  0  0  0  0  0
  191.3890  176.6280  145.6410 O   0  0  0  0  0  1  0  0  0  0  0  0
  188.9500  177.9990  144.0160 C   0  0  0  0  0  2  0  0  0  0  0  0
  188.9390  176.4220  143.1210 S   0  0  0  0  0  1  0  0  0  0  0  0
  1 17  1  0  0  0  0
  2  1  1  0  0  0  0
  3  2  1  0  0  0  0
  4  3  1  0  0  0  0
  5  8  1  0  0  0  0
  5  4  1  0  0  0  0
  6  7  2  0  0  0  0
  8  7  1  0  0  0  0
 11 15  1  6  0  0  0
 12 10  1  1  0  0  0
 12  9  1  0  0  0  0
 12 14  1  0  0  0  0
 13  9  1  6  0  0  0
 13 11  1  0  0  0  0
 14 15  1  0  0  0  0
 16  7  1  1  0  0  0
 16 13  1  0  0  0  0
 16 11  1  0  0  0  0
 17 18  1  0  0  0  0
 18 19  1  0  0  0  0
 19 22  1  0  0  0  0
 21 20  1  0  0  0  0
 22 21  1  0  0  0  0
 22 20  1  0  0  0  0
 23 24  1  0  0  0  0
 23 22  1  0  0  0  0
 24 29  1  6  0  0  0
 24 25  1  0  0  0  0
 25 27  1  0  0  0  0
 25 26  1  1  0  0  0
 28 27  1  0  0  0  0
 30 29  1  0  0  0  0
M  END
>  <MODEL>
9

>  <REMARK>
 VINA RESULT:      -6.0      2.480      7.268
  Name = 
  15 active torsions:
  status: ('A' for Active; 'I' for Inactive)
    1  A    between atoms: C_2  and  C_18
    2  A    between atoms: C_2  and  C_22
    3  A    between atoms: C_4  and  C_23
    4  A    between atoms: C_7  and  C_16
    5  A    between atoms: C_7  and  C_30
    6  A    between atoms: O_10  and  C_19
    7  A    between atoms: O_10  and  C_25
    8  A    between atoms: N_13  and  C_27
    9  A    between atoms: O_15  and  C_16
   10  A    between atoms: O_15  and  C_26
   11  A    between atoms: C_18  and  C_20
   12  A    between atoms: C_18  and  C_28
   13  A    between atoms: C_19  and  C_28
   14  A    between atoms: C_25  and  C_26
   15  A    between atoms: C_27  and  C_30
                            x       y       z     vdW  Elec       q    Type
                         _______ _______ _______ _____ _____    ______ ____

>  <TORSDO>
F 15

$$$$
