=
 OpenBabel10262421393D

 32 37  0  0  1  0  0  0  0  0999 V2000
  183.5070  177.4850  138.7250 C   0  0  2  0  0  3  0  0  0  0  0  0
  180.6490  180.0590  137.9050 C   0  0  0  0  0  2  0  0  0  0  0  0
  179.0180  178.7560  140.2410 C   0  0  0  0  0  1  0  0  0  0  0  0
  183.9460  179.0310  140.7870 C   0  0  1  0  0  3  0  0  0  0  0  0
  183.9680  178.9840  142.2890 C   0  0  0  0  0  0  0  0  0  0  0  0
  182.3320  175.8880  137.5650 C   0  0  2  0  0  3  0  0  0  0  0  0
  180.3500  177.4300  136.6570 C   0  0  0  0  0  1  0  0  0  0  0  0
  183.9490  178.7550  145.0840 C   0  0  0  0  0  3  0  0  0  0  0  0
  182.7360  178.0840  136.5290 O   0  0  0  0  0  0  0  0  0  0  0  0
  181.0740  179.8650  139.3470 C   0  0  2  0  0  3  0  0  0  0  0  0
  182.4670  178.2220  137.9110 C   0  0  2  0  0  0  0  0  0  0  0  0
  182.0900  179.6910  138.2100 C   0  0  1  0  0  3  0  0  0  0  0  0
  182.2810  177.1260  140.8690 O   0  0  0  0  0  0  0  0  0  0  0  0
  185.1630  178.7670  144.3920 C   0  0  0  0  0  3  0  0  0  0  0  0
  181.7880  177.2220  137.0980 C   0  0  2  0  0  0  0  0  0  0  0  0
  185.1730  178.8760  142.9990 C   0  0  0  0  0  3  0  0  0  0  0  0
  180.4830  178.5610  139.8900 C   0  0  1  0  0  3  0  0  0  0  0  0
  181.2440  178.0630  141.1190 C   0  0  2  0  0  3  0  0  0  0  0  0
  181.4440  179.0800  142.2630 C   0  0  0  0  0  2  0  0  0  0  0  0
  183.4330  176.1040  138.4290 O   0  0  0  0  0  0  0  0  0  0  0  0
  185.2140  179.3080  140.2680 O   0  0  0  0  0  1  0  0  0  0  0  0
  182.7440  178.8480  144.3820 C   0  0  0  0  0  3  0  0  0  0  0  0
  183.4250  177.6940  140.2430 C   0  0  1  0  0  3  0  0  0  0  0  0
  182.7480  178.9500  142.9870 C   0  0  0  0  0  0  0  0  0  0  0  0
  182.7750  175.0200  136.3940 C   0  0  0  0  0  2  0  0  0  0  0  0
  185.0260  175.2310  135.6310 C   0  0  0  0  0  3  0  0  0  0  0  0
  184.1940  174.7200  136.4820 N   0  0  0  0  0  0  0  0  0  0  0  0
  187.0910  174.9460  136.8050 C   0  0  0  0  0  3  0  0  0  0  0  0
  186.4260  174.9440  135.6930 N   0  0  0  0  0  0  0  0  0  0  0  0
  188.5230  174.6460  136.8260 C   0  0  0  0  0  0  0  0  0  0  0  0
  188.9830  173.3010  136.9100 N   0  0  0  0  0  1  0  0  0  0  0  0
  189.3770  175.6120  136.7670 N   0  0  0  0  0  2  0  0  0  0  0  0
  1 20  1  1  0  0  0
  1 23  1  0  0  0  0
  4 21  1  6  0  0  0
  4  5  1  0  0  0  0
  5 24  2  0  0  0  0
  5 16  1  0  0  0  0
  6 25  1  6  0  0  0
  6 20  1  0  0  0  0
  9 15  1  0  0  0  0
 10  2  1  6  0  0  0
 10 17  1  0  0  0  0
 11  9  1  6  0  0  0
 11 12  1  0  0  0  0
 11  1  1  0  0  0  0
 12  2  1  6  0  0  0
 12 10  1  0  0  0  0
 13 18  1  0  0  0  0
 14  8  1  0  0  0  0
 15  7  1  6  0  0  0
 15  6  1  0  0  0  0
 15 11  1  0  0  0  0
 16 14  2  0  0  0  0
 17  3  1  1  0  0  0
 17 18  1  0  0  0  0
 18 19  1  6  0  0  0
 19 24  1  0  0  0  0
 22  8  2  0  0  0  0
 23  4  1  0  0  0  0
 23 13  1  6  0  0  0
 24 22  1  0  0  0  0
 25 27  1  0  0  0  0
 26 29  1  0  0  0  0
 26 27  2  0  0  0  0
 28 30  1  0  0  0  0
 29 28  2  0  0  0  0
 30 31  1  0  0  0  0
 32 30  2  0  0  0  0
M  END
>  <MODEL>
1

>  <REMARK>
 VINA RESULT:      -6.4      0.000      0.000
  Name = 
  4 active torsions:
  status: ('A' for Active; 'I' for Inactive)
    1  A    between atoms: C_1  and  C_10
    2  A    between atoms: C_2  and  N_24
    3  A    between atoms: C_8  and  C_23
    4  A    between atoms: N_19  and  C_23
                            x       y       z     vdW  Elec       q    Type
                         _______ _______ _______ _____ _____    ______ ____

>  <TORSDO>
F 4

$$$$
=
 OpenBabel10262421393D

 32 37  0  0  1  0  0  0  0  0999 V2000
  182.9740  179.0280  138.6950 C   0  0  2  0  0  3  0  0  0  0  0  0
  180.1480  177.6860  141.0760 C   0  0  0  0  0  2  0  0  0  0  0  0
  179.5440  180.6760  141.7900 C   0  0  0  0  0  1  0  0  0  0  0  0
  180.9810  179.6950  137.1390 C   0  0  1  0  0  3  0  0  0  0  0  0
  180.3660  180.9060  136.4970 C   0  0  0  0  0  0  0  0  0  0  0  0
  184.3270  179.2930  140.5320 C   0  0  2  0  0  3  0  0  0  0  0  0
  182.7120  178.2280  142.3740 C   0  0  0  0  0  1  0  0  0  0  0  0
  179.3120  183.2530  135.3810 C   0  0  0  0  0  3  0  0  0  0  0  0
  183.1590  177.1540  140.1870 O   0  0  0  0  0  0  0  0  0  0  0  0
  179.8330  178.8280  140.1310 C   0  0  2  0  0  3  0  0  0  0  0  0
  182.3340  178.2420  139.8170 C   0  0  2  0  0  0  0  0  0  0  0  0
  180.8670  177.7630  139.7420 C   0  0  1  0  0  3  0  0  0  0  0  0
  181.8470  181.2400  138.9480 O   0  0  0  0  0  0  0  0  0  0  0  0
  180.0750  182.3880  134.5940 C   0  0  0  0  0  3  0  0  0  0  0  0
  183.2410  178.3240  140.9540 C   0  0  2  0  0  0  0  0  0  0  0  0
  180.6050  181.2210  135.1500 C   0  0  0  0  0  3  0  0  0  0  0  0
  180.4220  180.1300  140.6770 C   0  0  1  0  0  3  0  0  0  0  0  0
  180.5770  181.1850  139.5810 C   0  0  2  0  0  3  0  0  0  0  0  0
  179.3250  181.4780  138.7270 C   0  0  0  0  0  2  0  0  0  0  0  0
  184.1950  179.5760  139.1510 O   0  0  0  0  0  0  0  0  0  0  0  0
  181.4760  178.8060  136.1800 O   0  0  0  0  0  1  0  0  0  0  0  0
  179.0810  182.9540  136.7270 C   0  0  0  0  0  3  0  0  0  0  0  0
  182.1030  180.1370  138.0880 C   0  0  1  0  0  3  0  0  0  0  0  0
  179.6150  181.7910  137.2910 C   0  0  0  0  0  0  0  0  0  0  0  0
  185.7180  178.7310  140.8010 C   0  0  0  0  0  2  0  0  0  0  0  0
  186.2880  177.9640  142.9870 C   0  0  0  0  0  3  0  0  0  0  0  0
  186.1090  178.9620  142.1810 N   0  0  0  0  0  0  0  0  0  0  0  0
  187.5960  177.4760  144.9300 C   0  0  0  0  0  3  0  0  0  0  0  0
  186.6660  178.1670  144.3520 N   0  0  0  0  0  0  0  0  0  0  0  0
  187.9540  177.7160  146.3280 C   0  0  0  0  0  0  0  0  0  0  0  0
  186.9440  177.8540  147.3230 N   0  0  0  0  0  1  0  0  0  0  0  0
  189.1970  177.8010  146.6620 N   0  0  0  0  0  2  0  0  0  0  0  0
  1 20  1  1  0  0  0
  1 11  1  0  0  0  0
  4 21  1  6  0  0  0
  4 23  1  0  0  0  0
  5  4  1  0  0  0  0
  5 24  1  0  0  0  0
  6 25  1  6  0  0  0
  6 15  1  0  0  0  0
  8 22  1  0  0  0  0
  9 15  1  0  0  0  0
 10 17  1  0  0  0  0
 10  2  1  1  0  0  0
 11  9  1  6  0  0  0
 11 15  1  0  0  0  0
 12 11  1  0  0  0  0
 12 10  1  0  0  0  0
 12  2  1  1  0  0  0
 13 18  1  0  0  0  0
 14 16  1  0  0  0  0
 14  8  2  0  0  0  0
 15  7  1  1  0  0  0
 16  5  2  0  0  0  0
 17  3  1  1  0  0  0
 18 19  1  6  0  0  0
 18 17  1  0  0  0  0
 20  6  1  0  0  0  0
 22 24  2  0  0  0  0
 23  1  1  0  0  0  0
 23 13  1  1  0  0  0
 24 19  1  0  0  0  0
 25 27  1  0  0  0  0
 26 29  1  0  0  0  0
 27 26  2  0  0  0  0
 28 30  1  0  0  0  0
 29 28  2  0  0  0  0
 30 32  2  0  0  0  0
 30 31  1  0  0  0  0
M  END
>  <MODEL>
2

>  <REMARK>
 VINA RESULT:      -6.3      3.887      6.790
  Name = 
  4 active torsions:
  status: ('A' for Active; 'I' for Inactive)
    1  A    between atoms: C_1  and  C_10
    2  A    between atoms: C_2  and  N_24
    3  A    between atoms: C_8  and  C_23
    4  A    between atoms: N_19  and  C_23
                            x       y       z     vdW  Elec       q    Type
                         _______ _______ _______ _____ _____    ______ ____

>  <TORSDO>
F 4

$$$$
=
 OpenBabel10262421393D

 32 37  0  0  1  0  0  0  0  0999 V2000
  191.0330  176.1580  138.6160 C   0  0  2  0  0  3  0  0  0  0  0  0
  188.8560  179.0380  137.0560 C   0  0  0  0  0  2  0  0  0  0  0  0
  186.5430  178.1060  138.9520 C   0  0  0  0  0  1  0  0  0  0  0  0
  191.1840  177.7520  140.6840 C   0  0  1  0  0  3  0  0  0  0  0  0
  190.8380  177.7920  142.1460 C   0  0  0  0  0  0  0  0  0  0  0  0
  189.9520  174.6660  137.2450 C   0  0  2  0  0  3  0  0  0  0  0  0
  188.4880  176.4030  135.8390 C   0  0  0  0  0  1  0  0  0  0  0  0
  190.1180  177.7350  144.8550 C   0  0  0  0  0  3  0  0  0  0  0  0
  190.9040  176.7230  136.2840 O   0  0  0  0  0  0  0  0  0  0  0  0
  188.8910  178.8750  138.5620 C   0  0  2  0  0  3  0  0  0  0  0  0
  190.3350  176.9780  137.5540 C   0  0  2  0  0  0  0  0  0  0  0  0
  190.1130  178.4990  137.7140 C   0  0  1  0  0  3  0  0  0  0  0  0
  189.2910  176.0950  140.4030 O   0  0  0  0  0  0  0  0  0  0  0  0
  191.4520  177.5430  144.4830 C   0  0  0  0  0  3  0  0  0  0  0  0
  189.7340  176.0310  136.6250 C   0  0  2  0  0  0  0  0  0  0  0  0
  191.8100  177.5660  143.1330 C   0  0  0  0  0  3  0  0  0  0  0  0
  188.0060  177.6970  138.9760 C   0  0  1  0  0  3  0  0  0  0  0  0
  188.3710  177.1760  140.3670 C   0  0  2  0  0  3  0  0  0  0  0  0
  188.4350  178.2230  141.4980 C   0  0  0  0  0  2  0  0  0  0  0  0
  190.8340  174.7850  138.3460 O   0  0  0  0  0  0  0  0  0  0  0  0
  192.5660  177.8250  140.4840 O   0  0  0  0  0  1  0  0  0  0  0  0
  189.1430  177.9460  143.8770 C   0  0  0  0  0  3  0  0  0  0  0  0
  190.6210  176.4670  140.0620 C   0  0  1  0  0  3  0  0  0  0  0  0
  189.4950  177.9630  142.5240 C   0  0  0  0  0  0  0  0  0  0  0  0
  190.5320  173.6780  136.2400 C   0  0  0  0  0  2  0  0  0  0  0  0
  192.8250  174.0260  135.6750 C   0  0  0  0  0  3  0  0  0  0  0  0
  191.9540  173.4870  136.4680 N   0  0  0  0  0  0  0  0  0  0  0  0
  195.0320  174.8290  136.1250 C   0  0  0  0  0  3  0  0  0  0  0  0
  194.2290  173.8440  135.8750 N   0  0  0  0  0  0  0  0  0  0  0  0
  196.4630  174.6010  136.3250 C   0  0  0  0  0  0  0  0  0  0  0  0
  197.3610  175.6970  136.4710 N   0  0  0  0  0  1  0  0  0  0  0  0
  196.9160  173.3930  136.3700 N   0  0  0  0  0  2  0  0  0  0  0  0
  1 20  1  6  0  0  0
  1 23  1  0  0  0  0
  4 21  1  1  0  0  0
  4  5  1  0  0  0  0
  5 24  2  0  0  0  0
  5 16  1  0  0  0  0
  6 25  1  6  0  0  0
  6 20  1  0  0  0  0
  9 15  1  0  0  0  0
 10  2  1  6  0  0  0
 10 17  1  0  0  0  0
 11  9  1  6  0  0  0
 11 12  1  0  0  0  0
 11  1  1  0  0  0  0
 12  2  1  6  0  0  0
 12 10  1  0  0  0  0
 14  8  1  0  0  0  0
 15  7  1  6  0  0  0
 15  6  1  0  0  0  0
 15 11  1  0  0  0  0
 16 14  2  0  0  0  0
 17  3  1  1  0  0  0
 17 18  1  0  0  0  0
 18 13  1  0  0  0  0
 18 19  1  1  0  0  0
 19 24  1  0  0  0  0
 22  8  2  0  0  0  0
 23 13  1  6  0  0  0
 23  4  1  0  0  0  0
 24 22  1  0  0  0  0
 25 27  1  0  0  0  0
 26 29  1  0  0  0  0
 26 27  2  0  0  0  0
 28 30  1  0  0  0  0
 29 28  2  0  0  0  0
 30 32  2  0  0  0  0
 30 31  1  0  0  0  0
M  END
>  <MODEL>
3

>  <REMARK>
 VINA RESULT:      -6.1      5.310      7.597
  Name = 
  4 active torsions:
  status: ('A' for Active; 'I' for Inactive)
    1  A    between atoms: C_1  and  C_10
    2  A    between atoms: C_2  and  N_24
    3  A    between atoms: C_8  and  C_23
    4  A    between atoms: N_19  and  C_23
                            x       y       z     vdW  Elec       q    Type
                         _______ _______ _______ _____ _____    ______ ____

>  <TORSDO>
F 4

$$$$
=
 OpenBabel10262421393D

 32 37  0  0  1  0  0  0  0  0999 V2000
  184.9920  178.9630  139.0240 C   0  0  2  0  0  3  0  0  0  0  0  0
  184.6420  176.6650  135.8520 C   0  0  0  0  0  2  0  0  0  0  0  0
  183.5710  174.4370  137.7770 C   0  0  0  0  0  1  0  0  0  0  0  0
  182.3880  179.1360  138.8600 C   0  0  1  0  0  3  0  0  0  0  0  0
  181.1530  178.8350  139.6610 C   0  0  0  0  0  0  0  0  0  0  0  0
  186.9530  177.8800  139.5300 C   0  0  2  0  0  3  0  0  0  0  0  0
  187.1240  176.3290  137.3630 C   0  0  0  0  0  1  0  0  0  0  0  0
  178.9350  178.2000  141.2570 C   0  0  0  0  0  3  0  0  0  0  0  0
  186.6020  178.7480  137.2540 O   0  0  0  0  0  0  0  0  0  0  0  0
  183.4880  176.7500  136.8310 C   0  0  2  0  0  3  0  0  0  0  0  0
  185.4030  178.2120  137.7770 C   0  0  2  0  0  0  0  0  0  0  0  0
  184.4130  177.9550  136.6180 C   0  0  1  0  0  3  0  0  0  0  0  0
  183.5310  177.2790  140.1470 O   0  0  0  0  0  0  0  0  0  0  0  0
  179.3660  179.5260  141.1540 C   0  0  0  0  0  3  0  0  0  0  0  0
  186.6970  177.6070  138.0620 C   0  0  2  0  0  0  0  0  0  0  0  0
  180.4740  179.8420  140.3640 C   0  0  0  0  0  3  0  0  0  0  0  0
  183.7970  175.9100  138.0720 C   0  0  1  0  0  3  0  0  0  0  0  0
  182.9440  176.3300  139.2690 C   0  0  2  0  0  3  0  0  0  0  0  0
  181.4200  176.4020  139.0350 C   0  0  0  0  0  2  0  0  0  0  0  0
  185.9850  178.7920  140.0160 O   0  0  0  0  0  0  0  0  0  0  0  0
  182.5270  180.5090  138.6340 O   0  0  0  0  0  1  0  0  0  0  0  0
  179.6150  177.1900  140.5720 C   0  0  0  0  0  3  0  0  0  0  0  0
  183.6180  178.5880  139.5960 C   0  0  1  0  0  3  0  0  0  0  0  0
  180.7290  177.5000  139.7840 C   0  0  0  0  0  0  0  0  0  0  0  0
  188.3460  178.4540  139.7610 C   0  0  0  0  0  2  0  0  0  0  0  0
  188.6740  177.4320  141.8920 C   0  0  0  0  0  3  0  0  0  0  0  0
  188.6500  178.5140  141.1810 N   0  0  0  0  0  0  0  0  0  0  0  0
  188.0380  177.5330  144.1960 C   0  0  0  0  0  3  0  0  0  0  0  0
  188.9640  177.4660  143.2920 N   0  0  0  0  0  0  0  0  0  0  0  0
  188.3760  177.5650  145.6180 C   0  0  0  0  0  0  0  0  0  0  0  0
  189.7350  177.5720  146.0430 N   0  0  0  0  0  2  0  0  0  0  0  0
  187.4310  177.5890  146.4970 N   0  0  0  0  0  1  0  0  0  0  0  0
  1 23  1  0  0  0  0
  1 20  1  1  0  0  0
  4 21  1  1  0  0  0
  4 23  1  0  0  0  0
  4  5  1  0  0  0  0
  5 24  2  0  0  0  0
  5 16  1  0  0  0  0
  6 25  1  6  0  0  0
  6 20  1  0  0  0  0
  9 15  1  0  0  0  0
 10  2  1  6  0  0  0
 10 17  1  0  0  0  0
 11  9  1  6  0  0  0
 11 15  1  0  0  0  0
 11  1  1  0  0  0  0
 12  2  1  6  0  0  0
 12 10  1  0  0  0  0
 12 11  1  0  0  0  0
 14  8  1  0  0  0  0
 15  7  1  6  0  0  0
 15  6  1  0  0  0  0
 16 14  2  0  0  0  0
 17  3  1  6  0  0  0
 17 18  1  0  0  0  0
 18 19  1  6  0  0  0
 18 13  1  0  0  0  0
 19 24  1  0  0  0  0
 22  8  2  0  0  0  0
 23 13  1  6  0  0  0
 24 22  1  0  0  0  0
 25 27  1  0  0  0  0
 26 29  1  0  0  0  0
 27 26  2  0  0  0  0
 28 30  1  0  0  0  0
 29 28  2  0  0  0  0
 30 31  2  0  0  0  0
 30 32  1  0  0  0  0
M  END
>  <MODEL>
4

>  <REMARK>
 VINA RESULT:      -6.1      3.602      5.837
  Name = 
  4 active torsions:
  status: ('A' for Active; 'I' for Inactive)
    1  A    between atoms: C_1  and  C_10
    2  A    between atoms: C_2  and  N_24
    3  A    between atoms: C_8  and  C_23
    4  A    between atoms: N_19  and  C_23
                            x       y       z     vdW  Elec       q    Type
                         _______ _______ _______ _____ _____    ______ ____

>  <TORSDO>
F 4

$$$$
=
 OpenBabel10262421393D

 32 37  0  0  1  0  0  0  0  0999 V2000
  187.3380  177.4650  137.4870 C   0  0  2  0  0  3  0  0  0  0  0  0
  190.7010  176.3530  135.7780 C   0  0  0  0  0  2  0  0  0  0  0  0
  190.0640  173.4500  136.7720 C   0  0  0  0  0  1  0  0  0  0  0  0
  186.2160  176.2910  135.4370 C   0  0  1  0  0  3  0  0  0  0  0  0
  185.2640  175.1730  135.1190 C   0  0  0  0  0  0  0  0  0  0  0  0
  188.4270  177.4750  139.5090 C   0  0  2  0  0  3  0  0  0  0  0  0
  190.8950  176.9440  138.6370 C   0  0  0  0  0  1  0  0  0  0  0  0
  183.4920  173.0460  134.6720 C   0  0  0  0  0  3  0  0  0  0  0  0
  189.4290  178.6450  137.5890 O   0  0  0  0  0  0  0  0  0  0  0  0
  189.4480  175.5360  135.5370 C   0  0  2  0  0  3  0  0  0  0  0  0
  188.8190  177.4360  137.1780 C   0  0  2  0  0  0  0  0  0  0  0  0
  189.3520  177.0480  135.7800 C   0  0  1  0  0  3  0  0  0  0  0  0
  186.8080  175.0280  137.5500 O   0  0  0  0  0  0  0  0  0  0  0  0
  183.0340  174.3640  134.5940 C   0  0  0  0  0  3  0  0  0  0  0  0
  189.5120  177.5450  138.4540 C   0  0  2  0  0  0  0  0  0  0  0  0
  183.9160  175.4240  134.8220 C   0  0  0  0  0  3  0  0  0  0  0  0
  189.1520  174.6650  136.7610 C   0  0  1  0  0  3  0  0  0  0  0  0
  187.6930  174.2120  136.7960 C   0  0  2  0  0  3  0  0  0  0  0  0
  187.1510  173.5410  135.5160 C   0  0  0  0  0  2  0  0  0  0  0  0
  187.1590  177.5610  138.8860 O   0  0  0  0  0  0  0  0  0  0  0  0
  185.6930  177.5300  135.0560 O   0  0  0  0  0  1  0  0  0  0  0  0
  184.8300  172.7870  134.9820 C   0  0  0  0  0  3  0  0  0  0  0  0
  186.5290  176.2820  136.9400 C   0  0  1  0  0  3  0  0  0  0  0  0
  185.7150  173.8450  135.2180 C   0  0  0  0  0  0  0  0  0  0  0  0
  188.5630  178.5970  140.5310 C   0  0  0  0  0  2  0  0  0  0  0  0
  188.4150  177.3190  142.5410 C   0  0  0  0  0  3  0  0  0  0  0  0
  189.1170  178.0950  141.7770 N   0  0  0  0  0  0  0  0  0  0  0  0
  189.4510  177.5900  144.6800 C   0  0  0  0  0  3  0  0  0  0  0  0
  188.9370  176.8190  143.7760 N   0  0  0  0  0  0  0  0  0  0  0  0
  189.9730  177.0380  145.9310 C   0  0  0  0  0  0  0  0  0  0  0  0
  191.3440  176.6740  146.0490 N   0  0  0  0  0  2  0  0  0  0  0  0
  189.1800  176.8810  146.9370 N   0  0  0  0  0  1  0  0  0  0  0  0
  1 20  1  1  0  0  0
  4 21  1  1  0  0  0
  4 23  1  0  0  0  0
  5 24  1  0  0  0  0
  5  4  1  0  0  0  0
  6 25  1  1  0  0  0
  8 22  1  0  0  0  0
  9 15  1  0  0  0  0
 10  2  1  1  0  0  0
 10 12  1  0  0  0  0
 10 17  1  0  0  0  0
 11  1  1  0  0  0  0
 11  9  1  6  0  0  0
 11 15  1  0  0  0  0
 12  2  1  1  0  0  0
 12 11  1  0  0  0  0
 14  8  2  0  0  0  0
 14 16  1  0  0  0  0
 15  7  1  1  0  0  0
 15  6  1  0  0  0  0
 16  5  2  0  0  0  0
 17  3  1  6  0  0  0
 17 18  1  0  0  0  0
 18 19  1  6  0  0  0
 18 13  1  0  0  0  0
 20  6  1  0  0  0  0
 22 24  2  0  0  0  0
 23  1  1  0  0  0  0
 23 13  1  6  0  0  0
 24 19  1  0  0  0  0
 25 27  1  0  0  0  0
 26 29  1  0  0  0  0
 27 26  2  0  0  0  0
 28 30  1  0  0  0  0
 29 28  2  0  0  0  0
 30 31  2  0  0  0  0
 30 32  1  0  0  0  0
M  END
>  <MODEL>
5

>  <REMARK>
 VINA RESULT:      -6.0      5.218      8.796
  Name = 
  4 active torsions:
  status: ('A' for Active; 'I' for Inactive)
    1  A    between atoms: C_1  and  C_10
    2  A    between atoms: C_2  and  N_24
    3  A    between atoms: C_8  and  C_23
    4  A    between atoms: N_19  and  C_23
                            x       y       z     vdW  Elec       q    Type
                         _______ _______ _______ _____ _____    ______ ____

>  <TORSDO>
F 4

$$$$
=
 OpenBabel10262421393D

 32 37  0  0  1  0  0  0  0  0999 V2000
  180.7630  180.3360  139.9050 C   0  0  2  0  0  3  0  0  0  0  0  0
  181.7170  177.2580  137.6520 C   0  0  0  0  0  2  0  0  0  0  0  0
  179.1330  177.8710  135.9900 C   0  0  0  0  0  1  0  0  0  0  0  0
  181.6000  181.7490  137.8700 C   0  0  1  0  0  3  0  0  0  0  0  0
  181.1070  182.7740  136.8880 C   0  0  0  0  0  0  0  0  0  0  0  0
  179.2450  179.0030  140.9970 C   0  0  2  0  0  3  0  0  0  0  0  0
  179.8130  176.6850  139.7980 C   0  0  0  0  0  1  0  0  0  0  0  0
  180.0460  184.6650  135.1100 C   0  0  0  0  0  3  0  0  0  0  0  0
  181.5540  178.2070  140.6880 O   0  0  0  0  0  0  0  0  0  0  0  0
  181.3200  178.5600  136.9880 C   0  0  2  0  0  3  0  0  0  0  0  0
  181.1070  178.9080  139.5440 C   0  0  2  0  0  0  0  0  0  0  0  0
  182.0270  178.5690  138.3500 C   0  0  1  0  0  3  0  0  0  0  0  0
  179.2060  180.9440  138.0510 O   0  0  0  0  0  0  0  0  0  0  0  0
  180.8640  185.0800  136.1640 C   0  0  0  0  0  3  0  0  0  0  0  0
  180.2110  178.0560  140.3150 C   0  0  2  0  0  0  0  0  0  0  0  0
  181.3880  184.1390  137.0540 C   0  0  0  0  0  3  0  0  0  0  0  0
  179.8000  178.7320  137.0490 C   0  0  1  0  0  3  0  0  0  0  0  0
  179.3860  180.1910  136.8600 C   0  0  2  0  0  3  0  0  0  0  0  0
  179.9580  180.9140  135.6220 C   0  0  0  0  0  2  0  0  0  0  0  0
  179.6930  180.3350  140.8290 O   0  0  0  0  0  0  0  0  0  0  0  0
  182.6070  182.2700  138.6890 O   0  0  0  0  0  1  0  0  0  0  0  0
  179.7490  183.3090  134.9470 C   0  0  0  0  0  3  0  0  0  0  0  0
  180.4230  181.2510  138.7200 C   0  0  1  0  0  3  0  0  0  0  0  0
  180.2660  182.3640  135.8390 C   0  0  0  0  0  0  0  0  0  0  0  0
  179.1160  178.6980  142.4850 C   0  0  0  0  0  2  0  0  0  0  0  0
  181.0260  179.0060  143.8820 C   0  0  0  0  0  3  0  0  0  0  0  0
  180.3890  178.2630  143.0340 N   0  0  0  0  0  0  0  0  0  0  0  0
  183.3680  179.2950  144.2770 C   0  0  0  0  0  3  0  0  0  0  0  0
  182.2840  178.6020  144.4300 N   0  0  0  0  0  0  0  0  0  0  0  0
  184.6350  178.8470  144.8540 C   0  0  0  0  0  0  0  0  0  0  0  0
  185.6400  178.2580  144.0350 N   0  0  0  0  0  2  0  0  0  0  0  0
  184.8440  178.9890  146.1200 N   0  0  0  0  0  1  0  0  0  0  0  0
  1 20  1  1  0  0  0
  4 21  1  1  0  0  0
  4 23  1  0  0  0  0
  5 16  1  0  0  0  0
  5  4  1  0  0  0  0
  6 25  1  1  0  0  0
  8 14  1  0  0  0  0
 10 17  1  0  0  0  0
 10  2  1  1  0  0  0
 10 12  1  0  0  0  0
 11  1  1  0  0  0  0
 11 15  1  0  0  0  0
 11  9  1  1  0  0  0
 12  2  1  1  0  0  0
 12 11  1  0  0  0  0
 14 16  2  0  0  0  0
 15  7  1  6  0  0  0
 15  9  1  0  0  0  0
 15  6  1  0  0  0  0
 17  3  1  6  0  0  0
 18 19  1  6  0  0  0
 18 17  1  0  0  0  0
 18 13  1  0  0  0  0
 19 24  1  0  0  0  0
 20  6  1  0  0  0  0
 22  8  2  0  0  0  0
 22 24  1  0  0  0  0
 23 13  1  6  0  0  0
 23  1  1  0  0  0  0
 24  5  2  0  0  0  0
 25 27  1  0  0  0  0
 26 29  1  0  0  0  0
 27 26  2  0  0  0  0
 28 29  2  0  0  0  0
 28 30  1  0  0  0  0
 30 32  1  0  0  0  0
 31 30  2  0  0  0  0
M  END
>  <MODEL>
6

>  <REMARK>
 VINA RESULT:      -6.0      4.132      7.229
  Name = 
  4 active torsions:
  status: ('A' for Active; 'I' for Inactive)
    1  A    between atoms: C_1  and  C_10
    2  A    between atoms: C_2  and  N_24
    3  A    between atoms: C_8  and  C_23
    4  A    between atoms: N_19  and  C_23
                            x       y       z     vdW  Elec       q    Type
                         _______ _______ _______ _____ _____    ______ ____

>  <TORSDO>
F 4

$$$$
=
 OpenBabel10262421393D

 32 37  0  0  1  0  0  0  0  0999 V2000
  183.0430  178.9570  139.0390 C   0  0  2  0  0  3  0  0  0  0  0  0
  180.1350  177.6750  141.3560 C   0  0  0  0  0  2  0  0  0  0  0  0
  179.4110  180.6830  141.8480 C   0  0  0  0  0  1  0  0  0  0  0  0
  181.1150  179.4630  137.3460 C   0  0  1  0  0  3  0  0  0  0  0  0
  180.4990  180.6110  136.5990 C   0  0  0  0  0  0  0  0  0  0  0  0
  184.2890  179.3770  140.9210 C   0  0  2  0  0  3  0  0  0  0  0  0
  182.6130  178.3770  142.7440 C   0  0  0  0  0  1  0  0  0  0  0  0
  179.4380  182.8510  135.2860 C   0  0  0  0  0  3  0  0  0  0  0  0
  183.2030  177.1850  140.6540 O   0  0  0  0  0  0  0  0  0  0  0  0
  179.8380  178.7450  140.3260 C   0  0  2  0  0  3  0  0  0  0  0  0
  182.3680  178.2210  140.1760 C   0  0  2  0  0  0  0  0  0  0  0  0
  180.9200  177.6920  140.0580 C   0  0  1  0  0  3  0  0  0  0  0  0
  181.8410  181.1430  139.0950 O   0  0  0  0  0  0  0  0  0  0  0  0
  180.2650  181.9630  134.5940 C   0  0  0  0  0  3  0  0  0  0  0  0
  183.2120  178.4020  141.3490 C   0  0  2  0  0  0  0  0  0  0  0  0
  180.7990  180.8500  135.2490 C   0  0  0  0  0  3  0  0  0  0  0  0
  180.3600  180.0980  140.8170 C   0  0  1  0  0  3  0  0  0  0  0  0
  180.5420  181.0870  139.6660 C   0  0  2  0  0  3  0  0  0  0  0  0
  179.3280  181.2870  138.7330 C   0  0  0  0  0  2  0  0  0  0  0  0
  184.2220  179.5700  139.5210 O   0  0  0  0  0  0  0  0  0  0  0  0
  181.6830  178.5320  136.4720 O   0  0  0  0  0  1  0  0  0  0  0  0
  179.1460  182.6280  136.6340 C   0  0  0  0  0  3  0  0  0  0  0  0
  182.1730  179.9970  138.3210 C   0  0  1  0  0  3  0  0  0  0  0  0
  179.6830  181.5190  137.2970 C   0  0  0  0  0  0  0  0  0  0  0  0
  185.6800  178.8780  141.2940 C   0  0  0  0  0  2  0  0  0  0  0  0
  187.7110  178.2530  140.2070 C   0  0  0  0  0  3  0  0  0  0  0  0
  186.4860  178.6630  140.1050 N   0  0  0  0  0  0  0  0  0  0  0  0
  188.0720  177.5010  137.9650 C   0  0  0  0  0  3  0  0  0  0  0  0
  188.5260  178.0410  139.0510 N   0  0  0  0  0  0  0  0  0  0  0  0
  188.9380  177.3030  136.8030 C   0  0  0  0  0  0  0  0  0  0  0  0
  190.2860  176.8750  136.9660 N   0  0  0  0  0  1  0  0  0  0  0  0
  188.4730  177.5190  135.6190 N   0  0  0  0  0  2  0  0  0  0  0  0
  1 20  1  1  0  0  0
  1 11  1  0  0  0  0
  4 21  1  6  0  0  0
  4 23  1  0  0  0  0
  5 24  1  0  0  0  0
  5  4  1  0  0  0  0
  6 25  1  6  0  0  0
  6 15  1  0  0  0  0
  8 22  1  0  0  0  0
  9 15  1  0  0  0  0
 10 17  1  0  0  0  0
 10  2  1  1  0  0  0
 11  9  1  6  0  0  0
 11 15  1  0  0  0  0
 12 11  1  0  0  0  0
 12 10  1  0  0  0  0
 12  2  1  1  0  0  0
 13 18  1  0  0  0  0
 14 16  1  0  0  0  0
 14  8  2  0  0  0  0
 15  7  1  1  0  0  0
 16  5  2  0  0  0  0
 17  3  1  1  0  0  0
 18 19  1  6  0  0  0
 18 17  1  0  0  0  0
 20  6  1  0  0  0  0
 22 24  2  0  0  0  0
 23  1  1  0  0  0  0
 23 13  1  1  0  0  0
 24 19  1  0  0  0  0
 27 26  2  0  0  0  0
 27 25  1  0  0  0  0
 28 29  2  0  0  0  0
 29 26  1  0  0  0  0
 30 31  1  0  0  0  0
 30 28  1  0  0  0  0
 32 30  2  0  0  0  0
M  END
>  <MODEL>
7

>  <REMARK>
 VINA RESULT:      -6.0      2.400      5.567
  Name = 
  4 active torsions:
  status: ('A' for Active; 'I' for Inactive)
    1  A    between atoms: C_1  and  C_10
    2  A    between atoms: C_2  and  N_24
    3  A    between atoms: C_8  and  C_23
    4  A    between atoms: N_19  and  C_23
                            x       y       z     vdW  Elec       q    Type
                         _______ _______ _______ _____ _____    ______ ____

>  <TORSDO>
F 4

$$$$
=
 OpenBabel10262421393D

 32 37  0  0  1  0  0  0  0  0999 V2000
  182.7610  178.1210  137.9020 C   0  0  2  0  0  3  0  0  0  0  0  0
  179.8040  180.5260  138.8680 C   0  0  0  0  0  2  0  0  0  0  0  0
  179.2710  178.6360  141.3100 C   0  0  0  0  0  1  0  0  0  0  0  0
  183.9940  179.2600  139.9070 C   0  0  1  0  0  3  0  0  0  0  0  0
  184.6250  178.9180  141.2270 C   0  0  0  0  0  0  0  0  0  0  0  0
  181.2250  176.6830  136.9820 C   0  0  2  0  0  3  0  0  0  0  0  0
  179.0370  178.1810  137.2960 C   0  0  0  0  0  1  0  0  0  0  0  0
  185.7460  178.1360  143.6760 C   0  0  0  0  0  3  0  0  0  0  0  0
  181.1610  179.0700  136.3820 O   0  0  0  0  0  0  0  0  0  0  0  0
  180.7790  180.0890  139.9430 C   0  0  2  0  0  3  0  0  0  0  0  0
  181.4760  178.9040  137.7500 C   0  0  2  0  0  0  0  0  0  0  0  0
  181.2460  180.2420  138.4900 C   0  0  1  0  0  3  0  0  0  0  0  0
  182.5160  177.2290  140.2200 O   0  0  0  0  0  0  0  0  0  0  0  0
  186.5740  178.4000  142.5820 C   0  0  0  0  0  3  0  0  0  0  0  0
  180.5310  178.0270  137.0740 C   0  0  2  0  0  0  0  0  0  0  0  0
  186.0150  178.7840  141.3600 C   0  0  0  0  0  3  0  0  0  0  0  0
  180.4680  178.6540  140.3740 C   0  0  1  0  0  3  0  0  0  0  0  0
  181.6650  177.9960  141.0590 C   0  0  2  0  0  3  0  0  0  0  0  0
  182.3080  178.7790  142.2240 C   0  0  0  0  0  2  0  0  0  0  0  0
  182.5810  176.8260  137.3640 O   0  0  0  0  0  0  0  0  0  0  0  0
  184.9390  179.7530  139.0030 O   0  0  0  0  0  1  0  0  0  0  0  0
  184.3590  178.2530  143.5480 C   0  0  0  0  0  3  0  0  0  0  0  0
  183.3030  178.0150  139.3340 C   0  0  1  0  0  3  0  0  0  0  0  0
  183.7950  178.6300  142.3250 C   0  0  0  0  0  0  0  0  0  0  0  0
  181.1570  176.1110  135.5710 C   0  0  0  0  0  2  0  0  0  0  0  0
  181.4110  173.8020  136.1170 C   0  0  0  0  0  3  0  0  0  0  0  0
  181.8630  174.8430  135.4940 N   0  0  0  0  0  0  0  0  0  0  0  0
  183.3820  172.4540  135.9790 C   0  0  0  0  0  3  0  0  0  0  0  0
  182.0930  172.5460  136.0630 N   0  0  0  0  0  0  0  0  0  0  0  0
  184.0420  171.1490  135.9270 C   0  0  0  0  0  0  0  0  0  0  0  0
  185.3480  171.0160  135.3750 N   0  0  0  0  0  2  0  0  0  0  0  0
  183.4330  170.1090  136.3870 N   0  0  0  0  0  1  0  0  0  0  0  0
  1 20  1  1  0  0  0
  1 23  1  0  0  0  0
  4 21  1  6  0  0  0
  4  5  1  0  0  0  0
  5 16  2  0  0  0  0
  5 24  1  0  0  0  0
  6 25  1  6  0  0  0
  6 15  1  0  0  0  0
  6 20  1  0  0  0  0
  9 15  1  0  0  0  0
 10  2  1  6  0  0  0
 10 17  1  0  0  0  0
 11  9  1  6  0  0  0
 11  1  1  0  0  0  0
 11 12  1  0  0  0  0
 12  2  1  6  0  0  0
 12 10  1  0  0  0  0
 13 18  1  0  0  0  0
 14  8  2  0  0  0  0
 15  7  1  1  0  0  0
 15 11  1  0  0  0  0
 16 14  1  0  0  0  0
 17 18  1  0  0  0  0
 17  3  1  1  0  0  0
 18 19  1  6  0  0  0
 19 24  1  0  0  0  0
 22  8  1  0  0  0  0
 23  4  1  0  0  0  0
 23 13  1  1  0  0  0
 24 22  2  0  0  0  0
 27 25  1  0  0  0  0
 27 26  2  0  0  0  0
 28 29  2  0  0  0  0
 29 26  1  0  0  0  0
 30 28  1  0  0  0  0
 30 32  1  0  0  0  0
 31 30  2  0  0  0  0
M  END
>  <MODEL>
8

>  <REMARK>
 VINA RESULT:      -5.9      2.354      2.731
  Name = 
  4 active torsions:
  status: ('A' for Active; 'I' for Inactive)
    1  A    between atoms: C_1  and  C_10
    2  A    between atoms: C_2  and  N_24
    3  A    between atoms: C_8  and  C_23
    4  A    between atoms: N_19  and  C_23
                            x       y       z     vdW  Elec       q    Type
                         _______ _______ _______ _____ _____    ______ ____

>  <TORSDO>
F 4

$$$$
=
 OpenBabel10262421393D

 32 37  0  0  1  0  0  0  0  0999 V2000
  187.3970  177.1300  137.1600 C   0  0  2  0  0  3  0  0  0  0  0  0
  190.6330  176.2200  135.1200 C   0  0  0  0  0  2  0  0  0  0  0  0
  190.2260  173.2680  136.0900 C   0  0  0  0  0  1  0  0  0  0  0  0
  186.1430  175.9490  135.1930 C   0  0  1  0  0  3  0  0  0  0  0  0
  185.2180  174.7930  134.9340 C   0  0  0  0  0  0  0  0  0  0  0  0
  188.6680  177.1470  139.0730 C   0  0  2  0  0  3  0  0  0  0  0  0
  191.0660  176.7560  137.9630 C   0  0  0  0  0  1  0  0  0  0  0  0
  183.5120  172.5930  134.5960 C   0  0  0  0  0  3  0  0  0  0  0  0
  189.4320  178.4060  137.1000 O   0  0  0  0  0  0  0  0  0  0  0  0
  189.4010  175.3490  134.9740 C   0  0  2  0  0  3  0  0  0  0  0  0
  188.8420  177.1790  136.7160 C   0  0  2  0  0  0  0  0  0  0  0  0
  189.2590  176.8480  135.2650 C   0  0  1  0  0  3  0  0  0  0  0  0
  186.9870  174.6690  137.2070 O   0  0  0  0  0  0  0  0  0  0  0  0
  182.9890  173.8890  134.5950 C   0  0  0  0  0  3  0  0  0  0  0  0
  189.6460  177.2930  137.9250 C   0  0  2  0  0  0  0  0  0  0  0  0
  183.8380  174.9850  134.7690 C   0  0  0  0  0  3  0  0  0  0  0  0
  189.2620  174.4380  136.1960 C   0  0  1  0  0  3  0  0  0  0  0  0
  187.8350  173.9140  136.3530 C   0  0  2  0  0  3  0  0  0  0  0  0
  187.2070  173.2460  135.1110 C   0  0  0  0  0  2  0  0  0  0  0  0
  187.3450  177.1850  138.5720 O   0  0  0  0  0  0  0  0  0  0  0  0
  185.5310  177.1690  134.8950 O   0  0  0  0  0  1  0  0  0  0  0  0
  184.8840  172.3930  134.7740 C   0  0  0  0  0  3  0  0  0  0  0  0
  186.5950  175.9210  136.6590 C   0  0  1  0  0  3  0  0  0  0  0  0
  185.7370  173.4870  134.9550 C   0  0  0  0  0  0  0  0  0  0  0  0
  188.8470  178.2510  140.1080 C   0  0  0  0  0  2  0  0  0  0  0  0
  187.2720  178.2700  141.9000 C   0  0  0  0  0  3  0  0  0  0  0  0
  187.5690  178.6230  140.6900 N   0  0  0  0  0  0  0  0  0  0  0  0
  185.6820  178.2510  143.6870 C   0  0  0  0  0  3  0  0  0  0  0  0
  186.0160  178.6180  142.4910 N   0  0  0  0  0  0  0  0  0  0  0  0
  184.3890  178.6290  144.2560 C   0  0  0  0  0  0  0  0  0  0  0  0
  184.2780  179.0030  145.6260 N   0  0  0  0  0  1  0  0  0  0  0  0
  183.3370  178.6250  143.5080 N   0  0  0  0  0  2  0  0  0  0  0  0
  1 20  1  1  0  0  0
  4 21  1  1  0  0  0
  4 23  1  0  0  0  0
  5 24  1  0  0  0  0
  5  4  1  0  0  0  0
  6 25  1  1  0  0  0
  8 22  1  0  0  0  0
  9 15  1  0  0  0  0
 10  2  1  1  0  0  0
 10 12  1  0  0  0  0
 10 17  1  0  0  0  0
 11  9  1  6  0  0  0
 11  1  1  0  0  0  0
 11 15  1  0  0  0  0
 12  2  1  1  0  0  0
 12 11  1  0  0  0  0
 14  8  2  0  0  0  0
 14 16  1  0  0  0  0
 15  7  1  1  0  0  0
 15  6  1  0  0  0  0
 16  5  2  0  0  0  0
 17  3  1  6  0  0  0
 17 18  1  0  0  0  0
 18 19  1  6  0  0  0
 18 13  1  0  0  0  0
 20  6  1  0  0  0  0
 22 24  2  0  0  0  0
 23  1  1  0  0  0  0
 23 13  1  6  0  0  0
 24 19  1  0  0  0  0
 25 27  1  0  0  0  0
 26 29  1  0  0  0  0
 27 26  2  0  0  0  0
 28 30  1  0  0  0  0
 29 28  2  0  0  0  0
 30 31  1  0  0  0  0
 32 30  2  0  0  0  0
M  END
>  <MODEL>
9

>  <REMARK>
 VINA RESULT:      -5.9      4.304      8.902
  Name = 
  4 active torsions:
  status: ('A' for Active; 'I' for Inactive)
    1  A    between atoms: C_1  and  C_10
    2  A    between atoms: C_2  and  N_24
    3  A    between atoms: C_8  and  C_23
    4  A    between atoms: N_19  and  C_23
                            x       y       z     vdW  Elec       q    Type
                         _______ _______ _______ _____ _____    ______ ____

>  <TORSDO>
F 4

$$$$
