=
 OpenBabel10262419493D

 25 28  0  0  1  0  0  0  0  0999 V2000
  187.2290  177.8380  145.5990 C   0  0  0  0  0  0  0  0  0  0  0  0
  188.5380  177.4150  145.3520 C   0  0  0  0  0  0  0  0  0  0  0  0
  187.6690  177.8450  147.9520 N   0  0  0  0  0  0  0  0  0  0  0  0
  186.1980  178.1080  144.6850 C   0  0  0  0  0  0  0  0  0  0  0  0
  183.9230  178.7340  143.1920 C   0  0  0  0  0  3  0  0  0  0  0  0
  188.9230  177.4390  147.7270 N   0  0  0  0  0  0  0  0  0  0  0  0
  185.0210  178.5160  145.3140 C   0  0  0  0  0  0  0  0  0  0  0  0
  183.8730  178.8330  144.5910 C   0  0  0  0  0  3  0  0  0  0  0  0
  190.7020  176.7940  146.2210 C   0  0  0  0  0  0  0  0  0  0  0  0
  191.6580  176.5680  147.3420 C   0  0  0  0  0  1  0  0  0  0  0  0
  189.0030  177.2000  144.0940 N   0  0  0  0  0  0  0  0  0  0  0  0
  185.1060  178.3240  142.5460 C   0  0  0  0  0  3  0  0  0  0  0  0
  186.8270  178.0410  146.9090 C   0  0  0  0  0  0  0  0  0  0  0  0
  185.2230  178.5520  146.9900 S   0  0  0  0  0  0  0  0  0  0  0  0
  191.1180  176.5910  144.9420 N   0  0  0  0  0  0  0  0  0  0  0  0
  186.2520  178.0070  143.2910 C   0  0  0  0  0  3  0  0  0  0  0  0
  190.2830  176.7930  143.8860 C   0  0  0  0  0  0  0  0  0  0  0  0
  189.3890  177.2160  146.4600 C   0  0  0  0  0  0  0  0  0  0  0  0
  190.8710  176.5250  142.2220 S   0  0  0  0  0  0  0  0  0  0  0  0
  189.5320  177.5400  141.5080 C   0  0  0  0  0  2  0  0  0  0  0  0
  189.3650  177.3170  140.0060 C   0  0  2  0  0  3  0  0  0  0  0  0
  190.7120  177.1030  139.3280 C   0  0  0  0  0  1  0  0  0  0  0  0
  188.5430  178.3990  139.3610 C   0  0  0  0  0  0  0  0  0  0  0  0
  187.1960  178.5210  139.6850 O   0  0  0  0  0  1  0  0  0  0  0  0
  189.0470  179.1710  138.4990 O   0  0  0  0  0  0  0  0  0  0  0  0
  1 13  1  0  0  0  0
  2  1  2  0  0  0  0
  2 18  1  0  0  0  0
  4  7  1  0  0  0  0
  4  1  1  0  0  0  0
  5  8  1  0  0  0  0
  6  3  1  0  0  0  0
  7 14  1  0  0  0  0
  8  7  2  0  0  0  0
  9 18  1  0  0  0  0
  9 10  1  0  0  0  0
 11  2  1  0  0  0  0
 12  5  2  0  0  0  0
 12 16  1  0  0  0  0
 13 14  1  0  0  0  0
 13  3  2  0  0  0  0
 15  9  2  0  0  0  0
 16  4  2  0  0  0  0
 17 11  2  0  0  0  0
 17 15  1  0  0  0  0
 18  6  2  0  0  0  0
 19 17  1  0  0  0  0
 20 19  1  0  0  0  0
 21 22  1  6  0  0  0
 21 20  1  0  0  0  0
 23 24  1  0  0  0  0
 23 21  1  0  0  0  0
 25 23  2  0  0  0  0
M  END
>  <MODEL>
1

>  <REMARK>
 VINA RESULT:      -9.7      0.000      0.000
  Name = 
  4 active torsions:
  status: ('A' for Active; 'I' for Inactive)
    1  A    between atoms: C_2  and  C_21
    2  A    between atoms: S_6  and  C_15
    3  A    between atoms: S_6  and  C_23
    4  A    between atoms: C_15  and  C_21
                            x       y       z     vdW  Elec       q    Type
                         _______ _______ _______ _____ _____    ______ ____

>  <TORSDO>
F 4

$$$$
=
 OpenBabel10262419493D

 25 28  0  0  1  0  0  0  0  0999 V2000
  186.6910  178.2530  142.5730 C   0  0  0  0  0  0  0  0  0  0  0  0
  187.9850  177.8810  142.1950 C   0  0  0  0  0  0  0  0  0  0  0  0
  186.1630  178.7530  140.2920 N   0  0  0  0  0  0  0  0  0  0  0  0
  186.1080  178.2580  143.8490 C   0  0  0  0  0  0  0  0  0  0  0  0
  184.6150  178.4040  146.2040 C   0  0  0  0  0  3  0  0  0  0  0  0
  187.3990  178.4010  139.9200 N   0  0  0  0  0  0  0  0  0  0  0  0
  184.7830  178.6940  143.8290 C   0  0  0  0  0  0  0  0  0  0  0  0
  184.0180  178.7760  144.9900 C   0  0  0  0  0  3  0  0  0  0  0  0
  189.6180  177.5930  140.4420 C   0  0  0  0  0  0  0  0  0  0  0  0
  190.0470  177.6530  139.0150 C   0  0  0  0  0  1  0  0  0  0  0  0
  188.9030  177.4440  143.0960 N   0  0  0  0  0  0  0  0  0  0  0  0
  185.9510  177.9620  146.2380 C   0  0  0  0  0  3  0  0  0  0  0  0
  185.8070  178.6860  141.5980 C   0  0  0  0  0  0  0  0  0  0  0  0
  184.3060  179.0790  142.2550 S   0  0  0  0  0  0  0  0  0  0  0  0
  190.5000  177.1640  141.3840 N   0  0  0  0  0  0  0  0  0  0  0  0
  186.7080  177.8870  145.0580 C   0  0  0  0  0  3  0  0  0  0  0  0
  190.1510  177.0850  142.6970 C   0  0  0  0  0  0  0  0  0  0  0  0
  188.3250  177.9660  140.8280 C   0  0  0  0  0  0  0  0  0  0  0  0
  191.3370  176.5060  143.9000 S   0  0  0  0  0  0  0  0  0  0  0  0
  190.6020  177.5290  145.2220 C   0  0  0  0  0  2  0  0  0  0  0  0
  190.3800  176.7450  146.5140 C   0  0  2  0  0  3  0  0  0  0  0  0
  189.3790  177.4490  147.4210 C   0  0  0  0  0  1  0  0  0  0  0  0
  191.6750  176.4150  147.2050 C   0  0  0  0  0  0  0  0  0  0  0  0
  192.3830  175.2780  146.8280 O   0  0  0  0  0  0  0  0  0  0  0  0
  192.1070  177.1300  148.1510 O   0  0  0  0  0  1  0  0  0  0  0  0
  1  4  1  0  0  0  0
  2  1  1  0  0  0  0
  2 11  1  0  0  0  0
  3 13  1  0  0  0  0
  4 16  1  0  0  0  0
  5 12  1  0  0  0  0
  6  3  2  0  0  0  0
  6 18  1  0  0  0  0
  7  4  2  0  0  0  0
  7  8  1  0  0  0  0
  8  5  2  0  0  0  0
  9 18  1  0  0  0  0
  9 15  2  0  0  0  0
 10  9  1  0  0  0  0
 13 14  1  0  0  0  0
 13  1  2  0  0  0  0
 14  7  1  0  0  0  0
 15 17  1  0  0  0  0
 16 12  2  0  0  0  0
 17 11  2  0  0  0  0
 17 19  1  0  0  0  0
 18  2  2  0  0  0  0
 19 20  1  0  0  0  0
 20 21  1  0  0  0  0
 21 23  1  0  0  0  0
 21 22  1  1  0  0  0
 23 25  1  0  0  0  0
 24 23  2  0  0  0  0
M  END
>  <MODEL>
2

>  <REMARK>
 VINA RESULT:      -9.7      3.388      5.611
  Name = 
  4 active torsions:
  status: ('A' for Active; 'I' for Inactive)
    1  A    between atoms: C_2  and  C_21
    2  A    between atoms: S_6  and  C_15
    3  A    between atoms: S_6  and  C_23
    4  A    between atoms: C_15  and  C_21
                            x       y       z     vdW  Elec       q    Type
                         _______ _______ _______ _____ _____    ______ ____

>  <TORSDO>
F 4

$$$$
=
 OpenBabel10262419493D

 25 28  0  0  1  0  0  0  0  0999 V2000
  189.5250  177.4320  144.0610 C   0  0  0  0  0  0  0  0  0  0  0  0
  188.9610  177.7120  142.8140 C   0  0  0  0  0  0  0  0  0  0  0  0
  191.5890  176.8430  143.0010 N   0  0  0  0  0  0  0  0  0  0  0  0
  188.9460  177.5260  145.3360 C   0  0  0  0  0  0  0  0  0  0  0  0
  188.1520  177.5850  148.0130 C   0  0  0  0  0  3  0  0  0  0  0  0
  191.0590  177.1070  141.8030 N   0  0  0  0  0  0  0  0  0  0  0  0
  189.8320  177.1620  146.3520 C   0  0  0  0  0  0  0  0  0  0  0  0
  189.4590  177.1830  147.6940 C   0  0  0  0  0  3  0  0  0  0  0  0
  189.2090  177.8180  140.4160 C   0  0  0  0  0  0  0  0  0  0  0  0
  190.0030  177.6600  139.1630 C   0  0  0  0  0  1  0  0  0  0  0  0
  187.6800  178.1450  142.6800 N   0  0  0  0  0  0  0  0  0  0  0  0
  187.2510  177.9550  146.9970 C   0  0  0  0  0  3  0  0  0  0  0  0
  190.8390  176.9970  144.1190 C   0  0  0  0  0  0  0  0  0  0  0  0
  191.3290  176.7220  145.7080 S   0  0  0  0  0  0  0  0  0  0  0  0
  187.9220  178.2480  140.3370 N   0  0  0  0  0  0  0  0  0  0  0  0
  187.6430  177.9270  145.6500 C   0  0  0  0  0  3  0  0  0  0  0  0
  187.1620  178.4140  141.4540 C   0  0  0  0  0  0  0  0  0  0  0  0
  189.7670  177.5370  141.6690 C   0  0  0  0  0  0  0  0  0  0  0  0
  185.4780  178.9900  141.3070 S   0  0  0  0  0  0  0  0  0  0  0  0
  185.0090  178.2480  142.9080 C   0  0  0  0  0  2  0  0  0  0  0  0
  184.0030  179.1020  143.6770 C   0  0  2  0  0  3  0  0  0  0  0  0
  184.1820  178.9430  145.1820 C   0  0  0  0  0  1  0  0  0  0  0  0
  182.5900  178.8600  143.2210 C   0  0  0  0  0  0  0  0  0  0  0  0
  181.5880  178.6680  144.1670 O   0  0  0  0  0  1  0  0  0  0  0  0
  182.3060  178.7860  141.9940 O   0  0  0  0  0  0  0  0  0  0  0  0
  1 13  2  0  0  0  0
  1  4  1  0  0  0  0
  2  1  1  0  0  0  0
  3 13  1  0  0  0  0
  4 16  2  0  0  0  0
  4  7  1  0  0  0  0
  6  3  2  0  0  0  0
  7  8  2  0  0  0  0
  8  5  1  0  0  0  0
  9 18  1  0  0  0  0
 10  9  1  0  0  0  0
 11  2  1  0  0  0  0
 12  5  2  0  0  0  0
 13 14  1  0  0  0  0
 14  7  1  0  0  0  0
 15  9  2  0  0  0  0
 15 17  1  0  0  0  0
 16 12  1  0  0  0  0
 17 11  2  0  0  0  0
 18  6  1  0  0  0  0
 18  2  2  0  0  0  0
 19 17  1  0  0  0  0
 19 20  1  0  0  0  0
 20 21  1  0  0  0  0
 21 22  1  1  0  0  0
 23 21  1  0  0  0  0
 23 24  1  0  0  0  0
 25 23  2  0  0  0  0
M  END
>  <MODEL>
3

>  <REMARK>
 VINA RESULT:      -9.4      2.918      5.822
  Name = 
  4 active torsions:
  status: ('A' for Active; 'I' for Inactive)
    1  A    between atoms: C_2  and  C_21
    2  A    between atoms: S_6  and  C_15
    3  A    between atoms: S_6  and  C_23
    4  A    between atoms: C_15  and  C_21
                            x       y       z     vdW  Elec       q    Type
                         _______ _______ _______ _____ _____    ______ ____

>  <TORSDO>
F 4

$$$$
=
 OpenBabel10262419493D

 25 28  0  0  1  0  0  0  0  0999 V2000
  186.0190  178.4580  142.5150 C   0  0  0  0  0  0  0  0  0  0  0  0
  187.1350  178.1870  141.7190 C   0  0  0  0  0  0  0  0  0  0  0  0
  184.7660  179.0580  140.5650 N   0  0  0  0  0  0  0  0  0  0  0  0
  185.8780  178.3530  143.9080 C   0  0  0  0  0  0  0  0  0  0  0  0
  185.2180  178.2720  146.6200 C   0  0  0  0  0  3  0  0  0  0  0  0
  185.8280  178.8020  139.7940 N   0  0  0  0  0  0  0  0  0  0  0  0
  184.6010  178.7100  144.3430 C   0  0  0  0  0  0  0  0  0  0  0  0
  184.2480  178.6780  145.6900 C   0  0  0  0  0  3  0  0  0  0  0  0
  188.1270  178.1000  139.5210 C   0  0  0  0  0  0  0  0  0  0  0  0
  188.0710  178.2690  138.0400 C   0  0  0  0  0  1  0  0  0  0  0  0
  188.3100  177.7530  142.2440 N   0  0  0  0  0  0  0  0  0  0  0  0
  186.5100  177.9090  146.1920 C   0  0  0  0  0  3  0  0  0  0  0  0
  184.8520  178.8930  141.9080 C   0  0  0  0  0  0  0  0  0  0  0  0
  183.6290  179.1560  143.0360 S   0  0  0  0  0  0  0  0  0  0  0  0
  189.2810  177.6700  140.0970 N   0  0  0  0  0  0  0  0  0  0  0  0
  186.8480  177.9480  144.8310 C   0  0  0  0  0  3  0  0  0  0  0  0
  189.3760  177.4940  141.4430 C   0  0  0  0  0  0  0  0  0  0  0  0
  187.0140  178.3720  140.3250 C   0  0  0  0  0  0  0  0  0  0  0  0
  190.9070  176.9170  142.1590 S   0  0  0  0  0  0  0  0  0  0  0  0
  190.1100  176.5740  143.7650 C   0  0  0  0  0  2  0  0  0  0  0  0
  190.4670  177.6100  144.8290 C   0  0  2  0  0  3  0  0  0  0  0  0
  191.5490  178.5620  144.3310 C   0  0  0  0  0  1  0  0  0  0  0  0
  190.8030  176.9730  146.1500 C   0  0  0  0  0  0  0  0  0  0  0  0
  189.7830  176.6850  147.0510 O   0  0  0  0  0  1  0  0  0  0  0  0
  192.0000  176.7340  146.4710 O   0  0  0  0  0  0  0  0  0  0  0  0
  1  4  1  0  0  0  0
  2 11  1  0  0  0  0
  2  1  1  0  0  0  0
  3 13  1  0  0  0  0
  4  7  2  0  0  0  0
  4 16  1  0  0  0  0
  6 18  1  0  0  0  0
  6  3  2  0  0  0  0
  7  8  1  0  0  0  0
  8  5  2  0  0  0  0
  9 15  2  0  0  0  0
  9 18  1  0  0  0  0
 10  9  1  0  0  0  0
 12  5  1  0  0  0  0
 13  1  2  0  0  0  0
 13 14  1  0  0  0  0
 14  7  1  0  0  0  0
 15 17  1  0  0  0  0
 16 12  2  0  0  0  0
 17 19  1  0  0  0  0
 17 11  2  0  0  0  0
 18  2  2  0  0  0  0
 19 20  1  0  0  0  0
 20 21  1  0  0  0  0
 21 22  1  6  0  0  0
 21 23  1  0  0  0  0
 23 25  2  0  0  0  0
 23 24  1  0  0  0  0
M  END
>  <MODEL>
4

>  <REMARK>
 VINA RESULT:      -9.2      3.279      5.454
  Name = 
  4 active torsions:
  status: ('A' for Active; 'I' for Inactive)
    1  A    between atoms: C_2  and  C_21
    2  A    between atoms: S_6  and  C_15
    3  A    between atoms: S_6  and  C_23
    4  A    between atoms: C_15  and  C_21
                            x       y       z     vdW  Elec       q    Type
                         _______ _______ _______ _____ _____    ______ ____

>  <TORSDO>
F 4

$$$$
=
 OpenBabel10262419493D

 25 28  0  0  1  0  0  0  0  0999 V2000
  187.2040  177.9330  145.6880 C   0  0  0  0  0  0  0  0  0  0  0  0
  186.3060  178.2680  144.6690 C   0  0  0  0  0  0  0  0  0  0  0  0
  185.4950  178.3040  147.3230 N   0  0  0  0  0  0  0  0  0  0  0  0
  188.5490  177.5470  145.5900 C   0  0  0  0  0  0  0  0  0  0  0  0
  191.2180  176.7530  145.8000 C   0  0  0  0  0  3  0  0  0  0  0  0
  184.6290  178.6280  146.3570 N   0  0  0  0  0  0  0  0  0  0  0  0
  189.1210  177.2860  146.8360 C   0  0  0  0  0  0  0  0  0  0  0  0
  190.4500  176.8890  146.9670 C   0  0  0  0  0  3  0  0  0  0  0  0
  184.0860  178.9570  144.0230 C   0  0  0  0  0  0  0  0  0  0  0  0
  182.6780  179.3370  144.3370 C   0  0  0  0  0  1  0  0  0  0  0  0
  186.6630  178.2570  143.3590 N   0  0  0  0  0  0  0  0  0  0  0  0
  190.6520  177.0120  144.5370 C   0  0  0  0  0  3  0  0  0  0  0  0
  186.7670  177.9630  147.0020 C   0  0  0  0  0  0  0  0  0  0  0  0
  187.9930  177.5220  148.0710 S   0  0  0  0  0  0  0  0  0  0  0  0
  184.4940  178.9320  142.7270 N   0  0  0  0  0  0  0  0  0  0  0  0
  189.3120  177.4130  144.4250 C   0  0  0  0  0  3  0  0  0  0  0  0
  185.7660  178.5830  142.3920 C   0  0  0  0  0  0  0  0  0  0  0  0
  184.9910  178.6220  145.0370 C   0  0  0  0  0  0  0  0  0  0  0  0
  186.2590  178.5530  140.6760 S   0  0  0  0  0  0  0  0  0  0  0  0
  188.0320  178.5380  141.1110 C   0  0  0  0  0  2  0  0  0  0  0  0
  188.8520  177.6340  140.1930 C   0  0  2  0  0  3  0  0  0  0  0  0
  190.2860  177.4990  140.6900 C   0  0  0  0  0  1  0  0  0  0  0  0
  188.7630  178.0580  138.7530 C   0  0  0  0  0  0  0  0  0  0  0  0
  189.0560  179.3740  138.4070 O   0  0  0  0  0  1  0  0  0  0  0  0
  188.3860  177.2510  137.8590 O   0  0  0  0  0  0  0  0  0  0  0  0
  1 13  2  0  0  0  0
  2 18  2  0  0  0  0
  2  1  1  0  0  0  0
  4  1  1  0  0  0  0
  4  7  1  0  0  0  0
  5  8  1  0  0  0  0
  6  3  2  0  0  0  0
  7  8  2  0  0  0  0
  7 14  1  0  0  0  0
  9 10  1  0  0  0  0
  9 18  1  0  0  0  0
 11  2  1  0  0  0  0
 12  5  2  0  0  0  0
 13  3  1  0  0  0  0
 13 14  1  0  0  0  0
 15  9  2  0  0  0  0
 16 12  1  0  0  0  0
 16  4  2  0  0  0  0
 17 15  1  0  0  0  0
 17 11  2  0  0  0  0
 18  6  1  0  0  0  0
 19 20  1  0  0  0  0
 19 17  1  0  0  0  0
 21 22  1  1  0  0  0
 21 20  1  0  0  0  0
 23 21  1  0  0  0  0
 24 23  1  0  0  0  0
 25 23  2  0  0  0  0
M  END
>  <MODEL>
5

>  <REMARK>
 VINA RESULT:      -9.2      2.044      4.649
  Name = 
  4 active torsions:
  status: ('A' for Active; 'I' for Inactive)
    1  A    between atoms: C_2  and  C_21
    2  A    between atoms: S_6  and  C_15
    3  A    between atoms: S_6  and  C_23
    4  A    between atoms: C_15  and  C_21
                            x       y       z     vdW  Elec       q    Type
                         _______ _______ _______ _____ _____    ______ ____

>  <TORSDO>
F 4

$$$$
=
 OpenBabel10262419493D

 25 28  0  0  1  0  0  0  0  0999 V2000
  187.1880  177.7740  144.8510 C   0  0  0  0  0  0  0  0  0  0  0  0
  188.4770  177.4020  144.4590 C   0  0  0  0  0  0  0  0  0  0  0  0
  187.8340  177.6080  147.1500 N   0  0  0  0  0  0  0  0  0  0  0  0
  186.0770  178.0910  144.0550 C   0  0  0  0  0  0  0  0  0  0  0  0
  183.6690  178.7790  142.8200 C   0  0  0  0  0  3  0  0  0  0  0  0
  189.0700  177.2500  146.7860 N   0  0  0  0  0  0  0  0  0  0  0  0
  184.9530  178.4220  144.8140 C   0  0  0  0  0  0  0  0  0  0  0  0
  183.7410  178.7680  144.2210 C   0  0  0  0  0  3  0  0  0  0  0  0
  190.7180  176.7640  145.0840 C   0  0  0  0  0  0  0  0  0  0  0  0
  191.7730  176.4730  146.0970 C   0  0  0  0  0  1  0  0  0  0  0  0
  188.8320  177.2950  143.1520 N   0  0  0  0  0  0  0  0  0  0  0  0
  184.7960  178.4480  142.0430 C   0  0  0  0  0  3  0  0  0  0  0  0
  186.9000  177.8660  146.2030 C   0  0  0  0  0  0  0  0  0  0  0  0
  185.3020  178.3330  146.4640 S   0  0  0  0  0  0  0  0  0  0  0  0
  191.0220  176.6710  143.7630 N   0  0  0  0  0  0  0  0  0  0  0  0
  186.0080  178.1000  142.6580 C   0  0  0  0  0  3  0  0  0  0  0  0
  190.0940  176.9350  142.8030 C   0  0  0  0  0  0  0  0  0  0  0  0
  189.4250  177.1370  145.4690 C   0  0  0  0  0  0  0  0  0  0  0  0
  190.5370  176.8090  141.0770 S   0  0  0  0  0  0  0  0  0  0  0  0
  188.9770  177.5940  140.5460 C   0  0  0  0  0  2  0  0  0  0  0  0
  188.5910  177.2200  139.1160 C   0  0  2  0  0  3  0  0  0  0  0  0
  189.7090  176.4470  138.4280 C   0  0  0  0  0  1  0  0  0  0  0  0
  188.1230  178.4120  138.3260 C   0  0  0  0  0  0  0  0  0  0  0  0
  189.0170  179.4390  138.0410 O   0  0  0  0  0  1  0  0  0  0  0  0
  186.9210  178.5140  137.9530 O   0  0  0  0  0  0  0  0  0  0  0  0
  1 13  1  0  0  0  0
  2  1  2  0  0  0  0
  2 18  1  0  0  0  0
  4  7  1  0  0  0  0
  4  1  1  0  0  0  0
  5  8  1  0  0  0  0
  6  3  1  0  0  0  0
  7 14  1  0  0  0  0
  8  7  2  0  0  0  0
  9 18  1  0  0  0  0
  9 10  1  0  0  0  0
 11  2  1  0  0  0  0
 12 16  1  0  0  0  0
 12  5  2  0  0  0  0
 13 14  1  0  0  0  0
 13  3  2  0  0  0  0
 15  9  2  0  0  0  0
 16  4  2  0  0  0  0
 17 11  2  0  0  0  0
 17 15  1  0  0  0  0
 18  6  2  0  0  0  0
 19 17  1  0  0  0  0
 20 19  1  0  0  0  0
 21 22  1  6  0  0  0
 21 20  1  0  0  0  0
 23 21  1  0  0  0  0
 24 23  1  0  0  0  0
 25 23  2  0  0  0  0
M  END
>  <MODEL>
6

>  <REMARK>
 VINA RESULT:      -9.1      0.963      1.148
  Name = 
  4 active torsions:
  status: ('A' for Active; 'I' for Inactive)
    1  A    between atoms: C_2  and  C_21
    2  A    between atoms: S_6  and  C_15
    3  A    between atoms: S_6  and  C_23
    4  A    between atoms: C_15  and  C_21
                            x       y       z     vdW  Elec       q    Type
                         _______ _______ _______ _____ _____    ______ ____

>  <TORSDO>
F 4

$$$$
=
 OpenBabel10262419493D

 25 28  0  0  1  0  0  0  0  0999 V2000
  186.0270  178.2980  144.2250 C   0  0  0  0  0  0  0  0  0  0  0  0
  186.1290  178.4070  142.8350 C   0  0  0  0  0  0  0  0  0  0  0  0
  183.7090  178.8840  144.1080 N   0  0  0  0  0  0  0  0  0  0  0  0
  187.0160  177.9590  145.1610 C   0  0  0  0  0  0  0  0  0  0  0  0
  188.6940  177.3280  147.3030 C   0  0  0  0  0  3  0  0  0  0  0  0
  183.7950  178.9920  142.7780 N   0  0  0  0  0  0  0  0  0  0  0  0
  186.5310  177.9500  146.4700 C   0  0  0  0  0  0  0  0  0  0  0  0
  187.3480  177.6390  147.5550 C   0  0  0  0  0  3  0  0  0  0  0  0
  185.0630  178.8750  140.7210 C   0  0  0  0  0  0  0  0  0  0  0  0
  183.8790  179.2450  139.8940 C   0  0  0  0  0  1  0  0  0  0  0  0
  187.2930  178.1760  142.1750 N   0  0  0  0  0  0  0  0  0  0  0  0
  189.1940  177.3330  145.9870 C   0  0  0  0  0  3  0  0  0  0  0  0
  184.8050  178.5450  144.8290 C   0  0  0  0  0  0  0  0  0  0  0  0
  184.8920  178.3560  146.5010 S   0  0  0  0  0  0  0  0  0  0  0  0
  186.2530  178.6340  140.1090 N   0  0  0  0  0  0  0  0  0  0  0  0
  188.3560  177.6500  144.9060 C   0  0  0  0  0  3  0  0  0  0  0  0
  187.3580  178.2860  140.8230 C   0  0  0  0  0  0  0  0  0  0  0  0
  184.9700  178.7650  142.1140 C   0  0  0  0  0  0  0  0  0  0  0  0
  188.9000  177.9690  139.9790 S   0  0  0  0  0  0  0  0  0  0  0  0
  189.6260  177.1750  141.4530 C   0  0  0  0  0  2  0  0  0  0  0  0
  191.0210  177.7080  141.7780 C   0  0  2  0  0  3  0  0  0  0  0  0
  192.0030  177.4040  140.6530 C   0  0  0  0  0  1  0  0  0  0  0  0
  191.5040  177.2460  143.1260 C   0  0  0  0  0  0  0  0  0  0  0  0
  191.9660  178.1820  144.0460 O   0  0  0  0  0  1  0  0  0  0  0  0
  191.5360  176.0190  143.4200 O   0  0  0  0  0  0  0  0  0  0  0  0
  1 13  2  0  0  0  0
  1  4  1  0  0  0  0
  2  1  1  0  0  0  0
  3 13  1  0  0  0  0
  4  7  1  0  0  0  0
  5  8  1  0  0  0  0
  6  3  2  0  0  0  0
  7 14  1  0  0  0  0
  7  8  2  0  0  0  0
  9 18  1  0  0  0  0
 10  9  1  0  0  0  0
 11  2  1  0  0  0  0
 12  5  2  0  0  0  0
 13 14  1  0  0  0  0
 15  9  2  0  0  0  0
 15 17  1  0  0  0  0
 16  4  2  0  0  0  0
 16 12  1  0  0  0  0
 17 11  2  0  0  0  0
 18  6  1  0  0  0  0
 18  2  2  0  0  0  0
 19 17  1  0  0  0  0
 19 20  1  0  0  0  0
 20 21  1  0  0  0  0
 21 22  1  6  0  0  0
 21 23  1  0  0  0  0
 23 25  2  0  0  0  0
 23 24  1  0  0  0  0
M  END
>  <MODEL>
7

>  <REMARK>
 VINA RESULT:      -9.0      2.947      5.108
  Name = 
  4 active torsions:
  status: ('A' for Active; 'I' for Inactive)
    1  A    between atoms: C_2  and  C_21
    2  A    between atoms: S_6  and  C_15
    3  A    between atoms: S_6  and  C_23
    4  A    between atoms: C_15  and  C_21
                            x       y       z     vdW  Elec       q    Type
                         _______ _______ _______ _____ _____    ______ ____

>  <TORSDO>
F 4

$$$$
=
 OpenBabel10262419493D

 25 28  0  0  1  0  0  0  0  0999 V2000
  186.9360  177.8290  144.6410 C   0  0  0  0  0  0  0  0  0  0  0  0
  188.0710  177.4530  143.9170 C   0  0  0  0  0  0  0  0  0  0  0  0
  188.1190  177.4690  146.6910 N   0  0  0  0  0  0  0  0  0  0  0  0
  185.6790  178.2360  144.1690 C   0  0  0  0  0  0  0  0  0  0  0  0
  183.0760  179.0820  143.6180 C   0  0  0  0  0  3  0  0  0  0  0  0
  189.2100  177.1070  146.0080 N   0  0  0  0  0  0  0  0  0  0  0  0
  184.7920  178.5380  145.2030 C   0  0  0  0  0  0  0  0  0  0  0  0
  183.4890  178.9620  144.9540 C   0  0  0  0  0  3  0  0  0  0  0  0
  190.3670  176.7090  143.9220 C   0  0  0  0  0  0  0  0  0  0  0  0
  191.6240  176.3130  144.6190 C   0  0  0  0  0  1  0  0  0  0  0  0
  188.0900  177.4380  142.5590 N   0  0  0  0  0  0  0  0  0  0  0  0
  183.9610  178.7810  142.5660 C   0  0  0  0  0  3  0  0  0  0  0  0
  186.9930  177.8240  146.0250 C   0  0  0  0  0  0  0  0  0  0  0  0
  185.5310  178.3130  146.7050 S   0  0  0  0  0  0  0  0  0  0  0  0
  190.3330  176.7090  142.5630 N   0  0  0  0  0  0  0  0  0  0  0  0
  185.2710  178.3540  142.8360 C   0  0  0  0  0  3  0  0  0  0  0  0
  189.2100  177.0710  141.8830 C   0  0  0  0  0  0  0  0  0  0  0  0
  189.2260  177.0850  144.6400 C   0  0  0  0  0  0  0  0  0  0  0  0
  189.2100  177.0670  140.0970 S   0  0  0  0  0  0  0  0  0  0  0  0
  191.0300  177.2030  140.0260 C   0  0  0  0  0  2  0  0  0  0  0  0
  191.5930  176.8000  138.6650 C   0  0  2  0  0  3  0  0  0  0  0  0
  190.9270  175.5320  138.1450 C   0  0  0  0  0  1  0  0  0  0  0  0
  193.0950  176.7160  138.6760 C   0  0  0  0  0  0  0  0  0  0  0  0
  193.8020  177.2270  139.7600 O   0  0  0  0  0  1  0  0  0  0  0  0
  193.7270  176.2280  137.6990 O   0  0  0  0  0  0  0  0  0  0  0  0
  1 13  2  0  0  0  0
  2 18  2  0  0  0  0
  2  1  1  0  0  0  0
  4  1  1  0  0  0  0
  4  7  1  0  0  0  0
  5  8  1  0  0  0  0
  6  3  2  0  0  0  0
  7 14  1  0  0  0  0
  8  7  2  0  0  0  0
  9 10  1  0  0  0  0
  9 18  1  0  0  0  0
 11  2  1  0  0  0  0
 12 16  1  0  0  0  0
 12  5  2  0  0  0  0
 13  3  1  0  0  0  0
 13 14  1  0  0  0  0
 15  9  2  0  0  0  0
 16  4  2  0  0  0  0
 17 11  2  0  0  0  0
 17 15  1  0  0  0  0
 18  6  1  0  0  0  0
 19 17  1  0  0  0  0
 20 19  1  0  0  0  0
 21 22  1  1  0  0  0
 21 23  1  0  0  0  0
 21 20  1  0  0  0  0
 23 24  1  0  0  0  0
 25 23  2  0  0  0  0
M  END
>  <MODEL>
8

>  <REMARK>
 VINA RESULT:      -8.9      2.229      2.599
  Name = 
  4 active torsions:
  status: ('A' for Active; 'I' for Inactive)
    1  A    between atoms: C_2  and  C_21
    2  A    between atoms: S_6  and  C_15
    3  A    between atoms: S_6  and  C_23
    4  A    between atoms: C_15  and  C_21
                            x       y       z     vdW  Elec       q    Type
                         _______ _______ _______ _____ _____    ______ ____

>  <TORSDO>
F 4

$$$$
=
 OpenBabel10262419493D

 25 28  0  0  1  0  0  0  0  0999 V2000
  185.7980  178.4420  144.5890 C   0  0  0  0  0  0  0  0  0  0  0  0
  186.9670  178.2090  145.3200 C   0  0  0  0  0  0  0  0  0  0  0  0
  184.5420  178.5580  146.6230 N   0  0  0  0  0  0  0  0  0  0  0  0
  185.6290  178.5410  143.1990 C   0  0  0  0  0  0  0  0  0  0  0  0
  184.9000  178.7990  140.5160 C   0  0  0  0  0  3  0  0  0  0  0  0
  185.6530  178.3350  147.3320 N   0  0  0  0  0  0  0  0  0  0  0  0
  184.3020  178.7850  142.8400 C   0  0  0  0  0  0  0  0  0  0  0  0
  183.9140  178.9170  141.5080 C   0  0  0  0  0  3  0  0  0  0  0  0
  188.0330  177.9280  147.4660 C   0  0  0  0  0  0  0  0  0  0  0  0
  188.0040  177.8650  148.9560 C   0  0  0  0  0  1  0  0  0  0  0  0
  188.1740  178.0390  144.7200 N   0  0  0  0  0  0  0  0  0  0  0  0
  186.2410  178.5540  140.8660 C   0  0  0  0  0  3  0  0  0  0  0  0
  184.6040  178.6090  145.2700 C   0  0  0  0  0  0  0  0  0  0  0  0
  183.3220  178.8830  144.2110 S   0  0  0  0  0  0  0  0  0  0  0  0
  189.2160  177.7630  146.8170 N   0  0  0  0  0  0  0  0  0  0  0  0
  186.6140  178.4220  142.2130 C   0  0  0  0  0  3  0  0  0  0  0  0
  189.2920  177.8200  145.4590 C   0  0  0  0  0  0  0  0  0  0  0  0
  186.8670  178.1580  146.7270 C   0  0  0  0  0  0  0  0  0  0  0  0
  190.8680  177.6070  144.6460 S   0  0  0  0  0  0  0  0  0  0  0  0
  190.1700  178.0590  143.0210 C   0  0  0  0  0  2  0  0  0  0  0  0
  189.9860  176.8500  142.1060 C   0  0  2  0  0  3  0  0  0  0  0  0
  190.2710  175.5490  142.8480 C   0  0  0  0  0  1  0  0  0  0  0  0
  190.7650  176.9830  140.8270 C   0  0  0  0  0  0  0  0  0  0  0  0
  192.0070  177.6110  140.8430 O   0  0  0  0  0  1  0  0  0  0  0  0
  190.2920  176.5730  139.7310 O   0  0  0  0  0  0  0  0  0  0  0  0
  1 13  1  0  0  0  0
  1  2  2  0  0  0  0
  2 18  1  0  0  0  0
  3  6  1  0  0  0  0
  4  1  1  0  0  0  0
  5 12  2  0  0  0  0
  5  8  1  0  0  0  0
  7  4  1  0  0  0  0
  7 14  1  0  0  0  0
  8  7  2  0  0  0  0
  9 10  1  0  0  0  0
 11  2  1  0  0  0  0
 11 17  2  0  0  0  0
 12 16  1  0  0  0  0
 13  3  2  0  0  0  0
 14 13  1  0  0  0  0
 15  9  2  0  0  0  0
 16  4  2  0  0  0  0
 17 15  1  0  0  0  0
 18  6  2  0  0  0  0
 18  9  1  0  0  0  0
 19 17  1  0  0  0  0
 20 19  1  0  0  0  0
 21 22  1  1  0  0  0
 21 20  1  0  0  0  0
 23 24  1  0  0  0  0
 23 21  1  0  0  0  0
 25 23  2  0  0  0  0
M  END
>  <MODEL>
9

>  <REMARK>
 VINA RESULT:      -8.7      1.955      2.873
  Name = 
  4 active torsions:
  status: ('A' for Active; 'I' for Inactive)
    1  A    between atoms: C_2  and  C_21
    2  A    between atoms: S_6  and  C_15
    3  A    between atoms: S_6  and  C_23
    4  A    between atoms: C_15  and  C_21
                            x       y       z     vdW  Elec       q    Type
                         _______ _______ _______ _____ _____    ______ ____

>  <TORSDO>
F 4

$$$$
