=
 OpenBabel10262420513D

 28 32  0  0  1  0  0  0  0  0999 V2000
  188.9610  177.3020  138.2170 C   0  0  2  0  0  0  0  0  0  0  0  0
  190.4440  177.5770  137.9290 C   0  0  0  0  0  2  0  0  0  0  0  0
  190.8170  175.2460  137.1240 C   0  0  0  0  0  2  0  0  0  0  0  0
  190.9950  178.4760  143.3080 C   0  0  0  0  0  3  0  0  0  0  0  0
  185.2970  179.3240  141.1350 C   0  0  0  0  0  1  0  0  0  0  0  0
  190.9730  176.7220  136.7830 C   0  0  0  0  0  2  0  0  0  0  0  0
  188.7240  175.7870  138.4330 C   0  0  0  0  0  2  0  0  0  0  0  0
  189.0710  177.2360  144.1230 C   0  0  0  0  0  0  0  0  0  0  0  0
  188.8920  178.4880  141.9350 C   0  0  1  0  0  3  0  0  0  0  0  0
  189.3460  174.8840  137.3530 C   0  0  1  0  0  3  0  0  0  0  0  0
  191.1340  177.2500  145.3930 C   0  0  0  0  0  0  0  0  0  0  0  0
  189.6660  178.0670  143.1520 C   0  0  0  0  0  0  0  0  0  0  0  0
  186.9890  177.0780  142.8000 C   0  0  0  0  0  2  0  0  0  0  0  0
  189.8080  176.8370  145.2420 C   0  0  0  0  0  3  0  0  0  0  0  0
  187.0730  178.2520  139.6950 C   0  0  0  0  0  0  0  0  0  0  0  0
  189.2640  177.5980  140.7510 C   0  0  0  0  0  2  0  0  0  0  0  0
  187.7370  176.8360  143.9920 O   0  0  0  0  0  0  0  0  0  0  0  0
  186.6280  177.6550  137.3050 C   0  0  0  0  0  2  0  0  0  0  0  0
  186.6010  178.6900  140.9850 N   0  0  0  0  0  0  0  0  0  0  0  0
  186.2190  178.1350  138.6670 C   0  0  0  0  0  3  0  0  0  0  0  0
  191.8810  176.8400  146.5320 N   0  0  0  0  0  1  0  0  0  0  0  0
  191.7270  178.0690  144.4280 C   0  0  0  0  0  3  0  0  0  0  0  0
  187.3740  178.4320  142.1990 C   0  0  2  0  0  3  0  0  0  0  0  0
  188.1230  177.8430  137.0500 C   0  0  0  0  0  2  0  0  0  0  0  0
  188.5670  178.0910  139.4840 C   0  0  1  0  0  3  0  0  0  0  0  0
  188.5380  174.8720  136.0510 C   0  0  1  0  0  3  0  0  0  0  0  0
  189.2420  174.1970  135.0520 O   0  0  0  0  0  1  0  0  0  0  0  0
  187.2040  174.1780  136.2610 C   0  0  0  0  0  1  0  0  0  0  0  0
  1 24  1  6  0  0  0
  1  7  1  0  0  0  0
  1 25  1  0  0  0  0
  2  1  1  0  0  0  0
  3 10  1  0  0  0  0
  4 22  1  0  0  0  0
  6  3  1  0  0  0  0
  6  2  1  0  0  0  0
  8 14  2  0  0  0  0
  9 16  1  6  0  0  0
  9 23  1  0  0  0  0
  9 12  1  0  0  0  0
 10 26  1  6  0  0  0
 10  7  1  0  0  0  0
 11 21  1  0  0  0  0
 12  4  2  0  0  0  0
 12  8  1  0  0  0  0
 13 17  1  0  0  0  0
 14 11  1  0  0  0  0
 15 19  1  0  0  0  0
 17  8  1  0  0  0  0
 18 20  1  0  0  0  0
 19  5  1  0  0  0  0
 19 23  1  0  0  0  0
 20 15  2  0  0  0  0
 22 11  2  0  0  0  0
 23 13  1  6  0  0  0
 24 18  1  0  0  0  0
 25 15  1  0  0  0  0
 25 16  1  1  0  0  0
 26 28  1  1  0  0  0
 27 26  1  0  0  0  0
M  END
>  <MODEL>
1

>  <REMARK>
 VINA RESULT:      -7.1      0.000      0.000
  Name = 
  1 active torsions:
  status: ('A' for Active; 'I' for Inactive)
    1  A    between atoms: C_6  and  C_11
                            x       y       z     vdW  Elec       q    Type
                         _______ _______ _______ _____ _____    ______ ____

>  <TORSDO>
F 1

$$$$
=
 OpenBabel10262420513D

 28 32  0  0  1  0  0  0  0  0999 V2000
  184.0150  176.3790  137.1560 C   0  0  2  0  0  0  0  0  0  0  0  0
  185.4890  176.0660  137.4510 C   0  0  0  0  0  2  0  0  0  0  0  0
  185.0360  173.6190  137.6100 C   0  0  0  0  0  2  0  0  0  0  0  0
  184.8710  179.0200  142.0270 C   0  0  0  0  0  3  0  0  0  0  0  0
  180.9210  180.4200  137.5160 C   0  0  0  0  0  1  0  0  0  0  0  0
  185.8950  174.6860  136.9450 C   0  0  0  0  0  2  0  0  0  0  0  0
  183.1040  175.2470  137.6910 C   0  0  0  0  0  2  0  0  0  0  0  0
  182.4600  178.8640  142.2850 C   0  0  0  0  0  0  0  0  0  0  0  0
  183.4410  179.0310  139.9620 C   0  0  1  0  0  3  0  0  0  0  0  0
  183.5510  173.8280  137.2950 C   0  0  1  0  0  3  0  0  0  0  0  0
  183.8930  178.8410  144.2370 C   0  0  0  0  0  0  0  0  0  0  0  0
  183.5940  178.9810  141.4560 C   0  0  0  0  0  0  0  0  0  0  0  0
  180.9620  178.7450  140.3220 C   0  0  0  0  0  2  0  0  0  0  0  0
  182.6160  178.8000  143.6730 C   0  0  0  0  0  3  0  0  0  0  0  0
  182.3890  178.3710  137.3470 C   0  0  0  0  0  0  0  0  0  0  0  0
  183.7070  177.6490  139.3680 C   0  0  0  0  0  2  0  0  0  0  0  0
  181.1750  178.8440  141.7300 O   0  0  0  0  0  0  0  0  0  0  0  0
  182.4070  176.9470  135.2880 C   0  0  0  0  0  2  0  0  0  0  0  0
  181.8150  179.4410  138.1230 N   0  0  0  0  0  0  0  0  0  0  0  0
  181.8860  178.0670  136.1410 C   0  0  0  0  0  3  0  0  0  0  0  0
  184.0500  178.7740  145.6490 N   0  0  0  0  0  1  0  0  0  0  0  0
  185.0200  178.9520  143.4160 C   0  0  0  0  0  3  0  0  0  0  0  0
  182.0370  179.5300  139.5670 C   0  0  2  0  0  3  0  0  0  0  0  0
  183.8450  176.5720  135.6420 C   0  0  0  0  0  2  0  0  0  0  0  0
  183.6650  177.7170  137.8420 C   0  0  1  0  0  3  0  0  0  0  0  0
  183.2070  173.4810  135.8430 C   0  0  1  0  0  3  0  0  0  0  0  0
  183.8040  172.2720  135.4810 O   0  0  0  0  0  1  0  0  0  0  0  0
  181.7050  173.3530  135.6690 C   0  0  0  0  0  1  0  0  0  0  0  0
  1 24  1  6  0  0  0
  1  2  1  0  0  0  0
  1  7  1  0  0  0  0
  1 25  1  0  0  0  0
  4 22  1  0  0  0  0
  5 19  1  0  0  0  0
  6  2  1  0  0  0  0
  6  3  1  0  0  0  0
  8 14  2  0  0  0  0
  9 16  1  1  0  0  0
  9 12  1  0  0  0  0
 10 26  1  6  0  0  0
 10  3  1  0  0  0  0
 10  7  1  0  0  0  0
 11 21  1  0  0  0  0
 12  4  2  0  0  0  0
 12  8  1  0  0  0  0
 13 17  1  0  0  0  0
 14 11  1  0  0  0  0
 15 25  1  0  0  0  0
 15 19  1  0  0  0  0
 17  8  1  0  0  0  0
 18 24  1  0  0  0  0
 18 20  1  0  0  0  0
 19 23  1  0  0  0  0
 20 15  2  0  0  0  0
 22 11  2  0  0  0  0
 23  9  1  0  0  0  0
 23 13  1  1  0  0  0
 25 16  1  1  0  0  0
 26 28  1  1  0  0  0
 27 26  1  0  0  0  0
M  END
>  <MODEL>
2

>  <REMARK>
 VINA RESULT:      -6.4      4.680      6.060
  Name = 
  1 active torsions:
  status: ('A' for Active; 'I' for Inactive)
    1  A    between atoms: C_6  and  C_11
                            x       y       z     vdW  Elec       q    Type
                         _______ _______ _______ _____ _____    ______ ____

>  <TORSDO>
F 1

$$$$
=
 OpenBabel10262420513D

 28 32  0  0  1  0  0  0  0  0999 V2000
  182.8450  178.5330  140.5150 C   0  0  2  0  0  0  0  0  0  0  0  0
  183.0330  179.0870  139.0960 C   0  0  0  0  0  2  0  0  0  0  0  0
  181.9660  177.0800  138.0680 C   0  0  0  0  0  2  0  0  0  0  0  0
  188.4240  178.8280  140.0540 C   0  0  0  0  0  3  0  0  0  0  0  0
  184.9370  179.2690  145.1090 C   0  0  0  0  0  1  0  0  0  0  0  0
  181.9470  178.6020  138.1410 C   0  0  0  0  0  2  0  0  0  0  0  0
  182.7150  176.9900  140.4800 C   0  0  0  0  0  2  0  0  0  0  0  0
  188.4400  177.1600  141.8200 C   0  0  0  0  0  0  0  0  0  0  0  0
  186.5440  178.8290  141.7200 C   0  0  1  0  0  3  0  0  0  0  0  0
  181.7090  176.4580  139.4440 C   0  0  1  0  0  3  0  0  0  0  0  0
  190.2150  177.2010  140.1730 C   0  0  0  0  0  0  0  0  0  0  0  0
  187.8350  178.2680  141.1930 C   0  0  0  0  0  0  0  0  0  0  0  0
  186.5840  176.9890  143.4440 C   0  0  0  0  0  2  0  0  0  0  0  0
  189.6310  176.6360  141.3090 C   0  0  0  0  0  3  0  0  0  0  0  0
  183.8820  178.8290  142.8570 C   0  0  0  0  0  0  0  0  0  0  0  0
  185.3730  178.2950  140.8990 C   0  0  0  0  0  2  0  0  0  0  0  0
  187.8740  176.6020  142.9720 O   0  0  0  0  0  0  0  0  0  0  0  0
  181.3960  178.7240  142.5800 C   0  0  0  0  0  2  0  0  0  0  0  0
  185.0460  178.8900  143.7060 N   0  0  0  0  0  0  0  0  0  0  0  0
  182.6530  178.8180  143.3950 C   0  0  0  0  0  3  0  0  0  0  0  0
  191.4260  176.6640  139.6540 N   0  0  0  0  0  1  0  0  0  0  0  0
  189.6140  178.2960  139.5460 C   0  0  0  0  0  3  0  0  0  0  0  0
  186.3620  178.4860  143.2120 C   0  0  2  0  0  3  0  0  0  0  0  0
  181.6050  179.1890  141.1400 C   0  0  0  0  0  2  0  0  0  0  0  0
  184.0700  178.9480  141.3560 C   0  0  1  0  0  3  0  0  0  0  0  0
  180.2520  176.6160  139.8950 C   0  0  1  0  0  3  0  0  0  0  0  0
  179.3980  176.5650  138.7920 O   0  0  0  0  0  1  0  0  0  0  0  0
  179.8720  175.5060  140.8580 C   0  0  0  0  0  1  0  0  0  0  0  0
  1  2  1  6  0  0  0
  1 24  1  0  0  0  0
  1 25  1  0  0  0  0
  3  6  1  0  0  0  0
  3 10  1  0  0  0  0
  4 12  1  0  0  0  0
  6  2  1  0  0  0  0
  7  1  1  0  0  0  0
  8 17  1  0  0  0  0
  9 16  1  6  0  0  0
  9 23  1  0  0  0  0
 10 26  1  1  0  0  0
 10  7  1  0  0  0  0
 11 14  2  0  0  0  0
 12  9  1  0  0  0  0
 12  8  2  0  0  0  0
 14  8  1  0  0  0  0
 15 20  2  0  0  0  0
 15 19  1  0  0  0  0
 17 13  1  0  0  0  0
 18 20  1  0  0  0  0
 19  5  1  0  0  0  0
 21 11  1  0  0  0  0
 22  4  2  0  0  0  0
 22 11  1  0  0  0  0
 23 13  1  6  0  0  0
 23 19  1  0  0  0  0
 24 18  1  0  0  0  0
 25 16  1  6  0  0  0
 25 15  1  0  0  0  0
 26 28  1  1  0  0  0
 27 26  1  0  0  0  0
M  END
>  <MODEL>
3

>  <REMARK>
 VINA RESULT:      -6.4      3.703      6.145
  Name = 
  1 active torsions:
  status: ('A' for Active; 'I' for Inactive)
    1  A    between atoms: C_6  and  C_11
                            x       y       z     vdW  Elec       q    Type
                         _______ _______ _______ _____ _____    ______ ____

>  <TORSDO>
F 1

$$$$
=
 OpenBabel10262420513D

 28 32  0  0  1  0  0  0  0  0999 V2000
  179.9000  180.9340  138.2150 C   0  0  2  0  0  0  0  0  0  0  0  0
  179.1830  181.8360  139.2290 C   0  0  0  0  0  2  0  0  0  0  0  0
  180.2550  183.8890  138.3040 C   0  0  0  0  0  2  0  0  0  0  0  0
  181.9370  179.1200  143.1130 C   0  0  0  0  0  3  0  0  0  0  0  0
  181.1700  176.0050  137.8570 C   0  0  0  0  0  1  0  0  0  0  0  0
  178.9310  183.2340  138.6760 C   0  0  0  0  0  2  0  0  0  0  0  0
  181.1880  181.6200  137.6960 C   0  0  0  0  0  2  0  0  0  0  0  0
  183.7950  178.2900  141.7850 C   0  0  0  0  0  0  0  0  0  0  0  0
  181.4970  178.4230  140.7400 C   0  0  1  0  0  3  0  0  0  0  0  0
  180.9930  183.0760  137.2360 C   0  0  1  0  0  3  0  0  0  0  0  0
  184.1580  178.9930  144.0740 C   0  0  0  0  0  0  0  0  0  0  0  0
  182.4260  178.6050  141.9070 C   0  0  0  0  0  0  0  0  0  0  0  0
  183.5050  177.6880  139.4050 C   0  0  0  0  0  2  0  0  0  0  0  0
  184.6520  178.4810  142.8720 C   0  0  0  0  0  3  0  0  0  0  0  0
  180.6040  178.4640  137.9870 C   0  0  0  0  0  0  0  0  0  0  0  0
  181.2800  179.7610  140.0370 C   0  0  0  0  0  2  0  0  0  0  0  0
  184.2940  177.7550  140.5920 O   0  0  0  0  0  0  0  0  0  0  0  0
  179.5670  179.6660  136.0510 C   0  0  0  0  0  2  0  0  0  0  0  0
  181.2380  177.2920  138.5380 N   0  0  0  0  0  0  0  0  0  0  0  0
  180.2050  178.4750  136.7060 C   0  0  0  0  0  3  0  0  0  0  0  0
  185.0330  179.1890  145.1780 N   0  0  0  0  0  1  0  0  0  0  0  0
  182.8020  179.3120  144.1950 C   0  0  0  0  0  3  0  0  0  0  0  0
  182.0480  177.3740  139.7540 C   0  0  2  0  0  3  0  0  0  0  0  0
  178.9310  180.6130  137.0680 C   0  0  0  0  0  2  0  0  0  0  0  0
  180.2490  179.6060  138.9200 C   0  0  1  0  0  3  0  0  0  0  0  0
  180.3290  183.1800  135.8590 C   0  0  1  0  0  3  0  0  0  0  0  0
  180.1480  184.5190  135.5100 O   0  0  0  0  0  1  0  0  0  0  0  0
  181.1900  182.5120  134.8020 C   0  0  0  0  0  1  0  0  0  0  0  0
  1 24  1  6  0  0  0
  1 25  1  0  0  0  0
  1  2  1  0  0  0  0
  3  6  1  0  0  0  0
  4 22  1  0  0  0  0
  5 19  1  0  0  0  0
  6  2  1  0  0  0  0
  7  1  1  0  0  0  0
  8 12  1  0  0  0  0
  8 14  2  0  0  0  0
  9 16  1  6  0  0  0
  9 12  1  0  0  0  0
 10 26  1  6  0  0  0
 10  7  1  0  0  0  0
 10  3  1  0  0  0  0
 11 22  2  0  0  0  0
 11 21  1  0  0  0  0
 12  4  2  0  0  0  0
 13 17  1  0  0  0  0
 14 11  1  0  0  0  0
 15 19  1  0  0  0  0
 15 25  1  0  0  0  0
 17  8  1  0  0  0  0
 18 20  1  0  0  0  0
 18 24  1  0  0  0  0
 19 23  1  0  0  0  0
 20 15  2  0  0  0  0
 23 13  1  6  0  0  0
 23  9  1  0  0  0  0
 25 16  1  1  0  0  0
 26 28  1  6  0  0  0
 27 26  1  0  0  0  0
M  END
>  <MODEL>
4

>  <REMARK>
 VINA RESULT:      -5.9      6.103      8.996
  Name = 
  1 active torsions:
  status: ('A' for Active; 'I' for Inactive)
    1  A    between atoms: C_6  and  C_11
                            x       y       z     vdW  Elec       q    Type
                         _______ _______ _______ _____ _____    ______ ____

>  <TORSDO>
F 1

$$$$
=
 OpenBabel10262420513D

 28 32  0  0  1  0  0  0  0  0999 V2000
  187.3350  177.4260  136.5570 C   0  0  2  0  0  0  0  0  0  0  0  0
  187.5870  178.9220  136.7900 C   0  0  0  0  0  2  0  0  0  0  0  0
  189.3510  178.4590  138.4910 C   0  0  0  0  0  2  0  0  0  0  0  0
  182.4110  179.1910  138.5740 C   0  0  0  0  0  3  0  0  0  0  0  0
  183.5610  174.5230  134.7270 C   0  0  0  0  0  1  0  0  0  0  0  0
  189.0270  179.2050  137.2030 C   0  0  0  0  0  2  0  0  0  0  0  0
  187.7830  176.6050  137.7920 C   0  0  0  0  0  2  0  0  0  0  0  0
  182.0730  176.8620  139.1820 C   0  0  0  0  0  0  0  0  0  0  0  0
  183.4790  177.4140  137.1550 C   0  0  1  0  0  3  0  0  0  0  0  0
  189.1920  176.9470  138.3090 C   0  0  1  0  0  3  0  0  0  0  0  0
  181.0830  178.6220  140.5200 C   0  0  0  0  0  0  0  0  0  0  0  0
  182.6280  177.8310  138.3210 C   0  0  0  0  0  0  0  0  0  0  0  0
  183.1720  175.0350  137.9310 C   0  0  0  0  0  2  0  0  0  0  0  0
  181.2990  177.2640  140.2740 C   0  0  0  0  0  3  0  0  0  0  0  0
  185.4540  175.8980  135.6790 C   0  0  0  0  0  0  0  0  0  0  0  0
  184.9560  177.5430  137.5190 C   0  0  0  0  0  2  0  0  0  0  0  0
  182.2640  175.4990  138.9300 O   0  0  0  0  0  0  0  0  0  0  0  0
  187.8250  175.5200  134.9680 C   0  0  0  0  0  2  0  0  0  0  0  0
  184.0700  175.4920  135.6890 N   0  0  0  0  0  0  0  0  0  0  0  0
  186.3630  175.1810  135.0000 C   0  0  0  0  0  3  0  0  0  0  0  0
  180.2970  179.0280  141.6330 N   0  0  0  0  0  1  0  0  0  0  0  0
  181.6380  179.5850  139.6710 C   0  0  0  0  0  3  0  0  0  0  0  0
  183.1510  175.9720  136.7210 C   0  0  2  0  0  3  0  0  0  0  0  0
  188.0840  176.9910  135.2900 C   0  0  0  0  0  2  0  0  0  0  0  0
  185.8260  177.2300  136.3030 C   0  0  1  0  0  3  0  0  0  0  0  0
  190.3040  176.3410  137.4460 C   0  0  1  0  0  3  0  0  0  0  0  0
  191.5530  176.7730  137.8960 O   0  0  0  0  0  1  0  0  0  0  0  0
  190.2600  174.8250  137.5100 C   0  0  0  0  0  1  0  0  0  0  0  0
  1 24  1  6  0  0  0
  1  2  1  0  0  0  0
  1  7  1  0  0  0  0
  2  6  1  0  0  0  0
  4 22  1  0  0  0  0
  5 19  1  0  0  0  0
  6  3  1  0  0  0  0
  7 10  1  0  0  0  0
  8 14  2  0  0  0  0
  9 16  1  1  0  0  0
  9 12  1  0  0  0  0
 10 26  1  6  0  0  0
 10  3  1  0  0  0  0
 11 21  1  0  0  0  0
 12  4  2  0  0  0  0
 12  8  1  0  0  0  0
 13 17  1  0  0  0  0
 14 11  1  0  0  0  0
 15 19  1  0  0  0  0
 15 25  1  0  0  0  0
 17  8  1  0  0  0  0
 18 20  1  0  0  0  0
 18 24  1  0  0  0  0
 19 23  1  0  0  0  0
 20 15  2  0  0  0  0
 22 11  2  0  0  0  0
 23  9  1  0  0  0  0
 23 13  1  1  0  0  0
 25  1  1  0  0  0  0
 25 16  1  1  0  0  0
 26 28  1  1  0  0  0
 26 27  1  0  0  0  0
M  END
>  <MODEL>
5

>  <REMARK>
 VINA RESULT:      -5.8      4.625      6.739
  Name = 
  1 active torsions:
  status: ('A' for Active; 'I' for Inactive)
    1  A    between atoms: C_6  and  C_11
                            x       y       z     vdW  Elec       q    Type
                         _______ _______ _______ _____ _____    ______ ____

>  <TORSDO>
F 1

$$$$
=
 OpenBabel10262420513D

 28 32  0  0  1  0  0  0  0  0999 V2000
  189.3830  177.7190  141.4870 C   0  0  2  0  0  0  0  0  0  0  0  0
  188.0370  178.4580  141.4660 C   0  0  0  0  0  2  0  0  0  0  0  0
  187.1800  177.1500  143.4090 C   0  0  0  0  0  2  0  0  0  0  0  0
  187.2910  176.3010  136.4820 C   0  0  0  0  0  3  0  0  0  0  0  0
  193.1810  176.8030  138.2060 C   0  0  0  0  0  1  0  0  0  0  0  0
  187.4110  178.5490  142.8530 C   0  0  0  0  0  2  0  0  0  0  0  0
  189.2310  176.3400  142.1740 C   0  0  0  0  0  2  0  0  0  0  0  0
  188.7890  174.3950  136.6400 C   0  0  0  0  0  0  0  0  0  0  0  0
  189.4380  176.5670  137.7590 C   0  0  1  0  0  3  0  0  0  0  0  0
  188.4980  176.3780  143.5260 C   0  0  1  0  0  3  0  0  0  0  0  0
  186.6960  174.1980  135.4370 C   0  0  0  0  0  0  0  0  0  0  0  0
  188.4910  175.7410  136.9340 C   0  0  0  0  0  0  0  0  0  0  0  0
  190.8710  174.5030  137.9680 C   0  0  0  0  0  2  0  0  0  0  0  0
  187.8920  173.6320  135.8870 C   0  0  0  0  0  3  0  0  0  0  0  0
  191.3190  177.1880  139.8700 C   0  0  0  0  0  0  0  0  0  0  0  0
  188.9590  176.6120  139.2080 C   0  0  0  0  0  2  0  0  0  0  0  0
  189.9950  173.8270  137.0670 O   0  0  0  0  0  0  0  0  0  0  0  0
  191.7970  177.9420  142.2090 C   0  0  0  0  0  2  0  0  0  0  0  0
  191.7790  176.7010  138.5930 N   0  0  0  0  0  0  0  0  0  0  0  0
  192.1990  177.4620  140.8440 C   0  0  0  0  0  3  0  0  0  0  0  0
  185.7840  173.4180  134.6730 N   0  0  0  0  0  1  0  0  0  0  0  0
  186.3960  175.5310  135.7330 C   0  0  0  0  0  3  0  0  0  0  0  0
  190.8720  176.0060  137.6790 C   0  0  2  0  0  3  0  0  0  0  0  0
  190.4160  178.5970  142.2070 C   0  0  0  0  0  2  0  0  0  0  0  0
  189.8520  177.5420  140.0270 C   0  0  1  0  0  3  0  0  0  0  0  0
  189.3810  176.8990  144.6660 C   0  0  1  0  0  3  0  0  0  0  0  0
  188.6830  176.8590  145.8740 O   0  0  0  0  0  1  0  0  0  0  0  0
  190.6330  176.0500  144.7980 C   0  0  0  0  0  1  0  0  0  0  0  0
  1  2  1  1  0  0  0
  1  7  1  0  0  0  0
  1 24  1  0  0  0  0
  2  6  1  0  0  0  0
  3 10  1  0  0  0  0
  4 12  1  0  0  0  0
  5 19  1  0  0  0  0
  6  3  1  0  0  0  0
  7 10  1  0  0  0  0
  8 12  2  0  0  0  0
  8 17  1  0  0  0  0
  9 16  1  1  0  0  0
 10 26  1  1  0  0  0
 11 22  1  0  0  0  0
 11 14  2  0  0  0  0
 12  9  1  0  0  0  0
 14  8  1  0  0  0  0
 15 25  1  0  0  0  0
 15 20  2  0  0  0  0
 17 13  1  0  0  0  0
 19 15  1  0  0  0  0
 20 18  1  0  0  0  0
 21 11  1  0  0  0  0
 22  4  2  0  0  0  0
 23  9  1  0  0  0  0
 23 13  1  1  0  0  0
 23 19  1  0  0  0  0
 24 18  1  0  0  0  0
 25 16  1  1  0  0  0
 25  1  1  0  0  0  0
 26 28  1  1  0  0  0
 26 27  1  0  0  0  0
M  END
>  <MODEL>
6

>  <REMARK>
 VINA RESULT:      -5.6      2.408      7.608
  Name = 
  1 active torsions:
  status: ('A' for Active; 'I' for Inactive)
    1  A    between atoms: C_6  and  C_11
                            x       y       z     vdW  Elec       q    Type
                         _______ _______ _______ _____ _____    ______ ____

>  <TORSDO>
F 1

$$$$
=
 OpenBabel10262420513D

 28 32  0  0  1  0  0  0  0  0999 V2000
  190.3210  177.5130  141.1320 C   0  0  2  0  0  0  0  0  0  0  0  0
  189.3340  178.5250  141.7300 C   0  0  0  0  0  2  0  0  0  0  0  0
  189.0510  177.1670  143.8030 C   0  0  0  0  0  2  0  0  0  0  0  0
  186.0490  177.3410  137.5050 C   0  0  0  0  0  3  0  0  0  0  0  0
  192.0280  176.2750  136.4870 C   0  0  0  0  0  1  0  0  0  0  0  0
  189.3880  178.5470  143.2540 C   0  0  0  0  0  2  0  0  0  0  0  0
  190.1120  176.1150  141.7650 C   0  0  0  0  0  2  0  0  0  0  0  0
  186.9200  175.1500  136.9190 C   0  0  0  0  0  0  0  0  0  0  0  0
  188.5200  176.9370  137.7180 C   0  0  1  0  0  3  0  0  0  0  0  0
  190.0450  176.1150  143.3030 C   0  0  1  0  0  3  0  0  0  0  0  0
  184.5460  175.5970  136.7500 C   0  0  0  0  0  0  0  0  0  0  0  0
  187.1360  176.4700  137.3640 C   0  0  0  0  0  0  0  0  0  0  0  0
  189.3140  174.6000  137.2030 C   0  0  0  0  0  2  0  0  0  0  0  0
  185.6260  174.7230  136.6100 C   0  0  0  0  0  3  0  0  0  0  0  0
  191.1980  176.8120  138.8110 C   0  0  0  0  0  0  0  0  0  0  0  0
  188.7150  176.8740  139.2310 C   0  0  0  0  0  2  0  0  0  0  0  0
  187.9990  174.2730  136.7530 O   0  0  0  0  0  0  0  0  0  0  0  0
  192.7820  177.0900  140.7290 C   0  0  0  0  0  2  0  0  0  0  0  0
  190.9400  176.4280  137.4450 N   0  0  0  0  0  0  0  0  0  0  0  0
  192.4410  176.7390  139.3100 C   0  0  0  0  0  3  0  0  0  0  0  0
  183.2300  175.1590  136.4370 N   0  0  0  0  0  1  0  0  0  0  0  0
  184.7570  176.9050  137.1970 C   0  0  0  0  0  3  0  0  0  0  0  0
  189.5890  176.0920  136.9970 C   0  0  2  0  0  3  0  0  0  0  0  0
  191.7510  178.0260  141.3570 C   0  0  0  0  0  2  0  0  0  0  0  0
  190.0780  177.4530  139.6090 C   0  0  1  0  0  3  0  0  0  0  0  0
  191.4240  176.2560  143.9570 C   0  0  1  0  0  3  0  0  0  0  0  0
  191.3200  176.9660  145.1550 O   0  0  0  0  0  1  0  0  0  0  0  0
  192.0140  174.8880  144.2510 C   0  0  0  0  0  1  0  0  0  0  0  0
  1 24  1  1  0  0  0
  1  2  1  0  0  0  0
  1  7  1  0  0  0  0
  2  6  1  0  0  0  0
  5 19  1  0  0  0  0
  6  3  1  0  0  0  0
  7 10  1  0  0  0  0
  8 12  2  0  0  0  0
  9 16  1  1  0  0  0
 10  3  1  0  0  0  0
 10 26  1  1  0  0  0
 11 22  1  0  0  0  0
 12  4  1  0  0  0  0
 12  9  1  0  0  0  0
 14 11  2  0  0  0  0
 14  8  1  0  0  0  0
 15 20  2  0  0  0  0
 15 25  1  0  0  0  0
 17  8  1  0  0  0  0
 17 13  1  0  0  0  0
 18 24  1  0  0  0  0
 19 15  1  0  0  0  0
 20 18  1  0  0  0  0
 21 11  1  0  0  0  0
 22  4  2  0  0  0  0
 23 13  1  1  0  0  0
 23 19  1  0  0  0  0
 23  9  1  0  0  0  0
 25 16  1  1  0  0  0
 25  1  1  0  0  0  0
 26 28  1  1  0  0  0
 26 27  1  0  0  0  0
M  END
>  <MODEL>
7

>  <REMARK>
 VINA RESULT:      -5.5      2.681      7.401
  Name = 
  1 active torsions:
  status: ('A' for Active; 'I' for Inactive)
    1  A    between atoms: C_6  and  C_11
                            x       y       z     vdW  Elec       q    Type
                         _______ _______ _______ _____ _____    ______ ____

>  <TORSDO>
F 1

$$$$
=
 OpenBabel10262420513D

 28 32  0  0  1  0  0  0  0  0999 V2000
  188.1440  174.6320  136.1480 C   0  0  2  0  0  0  0  0  0  0  0  0
  189.3900  173.7360  136.1700 C   0  0  0  0  0  2  0  0  0  0  0  0
  188.0690  171.7550  136.9130 C   0  0  0  0  0  2  0  0  0  0  0  0
  191.3220  177.0560  140.0790 C   0  0  0  0  0  3  0  0  0  0  0  0
  187.1480  179.6310  136.3570 C   0  0  0  0  0  1  0  0  0  0  0  0
  189.0530  172.2780  135.8750 C   0  0  0  0  0  2  0  0  0  0  0  0
  187.0520  174.0620  137.0860 C   0  0  0  0  0  2  0  0  0  0  0  0
  189.2290  177.9900  140.8860 C   0  0  0  0  0  0  0  0  0  0  0  0
  189.4920  177.5060  138.4190 C   0  0  1  0  0  3  0  0  0  0  0  0
  186.7670  172.5620  136.8960 C   0  0  1  0  0  3  0  0  0  0  0  0
  191.0270  177.5180  142.4390 C   0  0  0  0  0  0  0  0  0  0  0  0
  190.0300  177.5270  139.8220 C   0  0  0  0  0  0  0  0  0  0  0  0
  187.3170  178.3630  139.3640 C   0  0  0  0  0  2  0  0  0  0  0  0
  189.7350  177.9880  142.1890 C   0  0  0  0  0  3  0  0  0  0  0  0
  187.5690  177.1420  136.2860 C   0  0  0  0  0  0  0  0  0  0  0  0
  189.0070  176.1000  138.0720 C   0  0  0  0  0  2  0  0  0  0  0  0
  187.9430  178.4830  140.6410 O   0  0  0  0  0  0  0  0  0  0  0  0
  186.4350  175.6760  134.6030 C   0  0  0  0  0  2  0  0  0  0  0  0
  187.7130  178.4190  136.9380 N   0  0  0  0  0  0  0  0  0  0  0  0
  186.6660  176.9820  135.3060 C   0  0  0  0  0  3  0  0  0  0  0  0
  191.5370  177.5150  143.7670 N   0  0  0  0  0  1  0  0  0  0  0  0
  191.8200  177.0530  141.3860 C   0  0  0  0  0  3  0  0  0  0  0  0
  188.3530  178.5300  138.2490 C   0  0  2  0  0  3  0  0  0  0  0  0
  187.6420  174.7440  134.7010 C   0  0  0  0  0  2  0  0  0  0  0  0
  188.5640  176.0440  136.6110 C   0  0  1  0  0  3  0  0  0  0  0  0
  185.9160  172.2720  135.6550 C   0  0  1  0  0  3  0  0  0  0  0  0
  185.8530  170.8970  135.4230 O   0  0  0  0  0  1  0  0  0  0  0  0
  184.5050  172.7990  135.8430 C   0  0  0  0  0  1  0  0  0  0  0  0
  1 24  1  6  0  0  0
  1  2  1  0  0  0  0
  1 25  1  0  0  0  0
  1  7  1  0  0  0  0
  4 22  1  0  0  0  0
  5 19  1  0  0  0  0
  6  2  1  0  0  0  0
  6  3  1  0  0  0  0
  8 14  2  0  0  0  0
  9 16  1  1  0  0  0
  9 12  1  0  0  0  0
 10 26  1  6  0  0  0
 10  3  1  0  0  0  0
 10  7  1  0  0  0  0
 11 21  1  0  0  0  0
 12  4  2  0  0  0  0
 12  8  1  0  0  0  0
 13 17  1  0  0  0  0
 14 11  1  0  0  0  0
 15 25  1  0  0  0  0
 15 19  1  0  0  0  0
 17  8  1  0  0  0  0
 18 24  1  0  0  0  0
 18 20  1  0  0  0  0
 19 23  1  0  0  0  0
 20 15  2  0  0  0  0
 22 11  2  0  0  0  0
 23  9  1  0  0  0  0
 23 13  1  1  0  0  0
 25 16  1  1  0  0  0
 26 28  1  1  0  0  0
 27 26  1  0  0  0  0
M  END
>  <MODEL>
8

>  <REMARK>
 VINA RESULT:      -5.0      2.228      3.732
  Name = 
  1 active torsions:
  status: ('A' for Active; 'I' for Inactive)
    1  A    between atoms: C_6  and  C_11
                            x       y       z     vdW  Elec       q    Type
                         _______ _______ _______ _____ _____    ______ ____

>  <TORSDO>
F 1

$$$$
=
 OpenBabel10262420513D

 28 32  0  0  1  0  0  0  0  0999 V2000
  186.9240  176.6040  137.0710 C   0  0  2  0  0  0  0  0  0  0  0  0
  188.4430  176.4980  136.8770 C   0  0  0  0  0  2  0  0  0  0  0  0
  188.3360  174.0160  136.6500 C   0  0  0  0  0  2  0  0  0  0  0  0
  188.9150  178.5200  141.9500 C   0  0  0  0  0  3  0  0  0  0  0  0
  183.6530  179.9570  139.0930 C   0  0  0  0  0  1  0  0  0  0  0  0
  188.8280  175.3070  136.0060 C   0  0  0  0  0  2  0  0  0  0  0  0
  186.3510  175.2640  137.5930 C   0  0  0  0  0  2  0  0  0  0  0  0
  186.7290  177.9230  142.8270 C   0  0  0  0  0  0  0  0  0  0  0  0
  186.9350  178.6280  140.4080 C   0  0  1  0  0  3  0  0  0  0  0  0
  186.8130  174.0240  136.8070 C   0  0  1  0  0  3  0  0  0  0  0  0
  188.6800  177.8230  144.2590 C   0  0  0  0  0  0  0  0  0  0  0  0
  187.5380  178.3620  141.7580 C   0  0  0  0  0  0  0  0  0  0  0  0
  184.7300  177.8780  141.3730 C   0  0  0  0  0  2  0  0  0  0  0  0
  187.3050  177.6610  144.0730 C   0  0  0  0  0  3  0  0  0  0  0  0
  185.2200  178.2380  138.1090 C   0  0  0  0  0  0  0  0  0  0  0  0
  187.1600  177.4270  139.4940 C   0  0  0  0  0  2  0  0  0  0  0  0
  185.3470  177.7800  142.6560 O   0  0  0  0  0  0  0  0  0  0  0  0
  184.7730  177.1920  135.8790 C   0  0  0  0  0  2  0  0  0  0  0  0
  184.7920  179.0560  139.2160 N   0  0  0  0  0  0  0  0  0  0  0  0
  184.4120  178.0550  137.0530 C   0  0  0  0  0  3  0  0  0  0  0  0
  189.2630  177.5530  145.5270 N   0  0  0  0  0  1  0  0  0  0  0  0
  189.4850  178.2520  143.1990 C   0  0  0  0  0  3  0  0  0  0  0  0
  185.4310  178.9440  140.5280 C   0  0  2  0  0  3  0  0  0  0  0  0
  186.2830  177.0100  135.7370 C   0  0  0  0  0  2  0  0  0  0  0  0
  186.6510  177.7340  138.0870 C   0  0  1  0  0  3  0  0  0  0  0  0
  186.0860  173.8650  135.4670 C   0  0  1  0  0  3  0  0  0  0  0  0
  186.6810  172.8530  134.7120 O   0  0  0  0  0  1  0  0  0  0  0  0
  184.6270  173.5110  135.6940 C   0  0  0  0  0  1  0  0  0  0  0  0
  1 24  1  6  0  0  0
  1  7  1  0  0  0  0
  1 25  1  0  0  0  0
  2  1  1  0  0  0  0
  3 10  1  0  0  0  0
  4 22  1  0  0  0  0
  5 19  1  0  0  0  0
  6  3  1  0  0  0  0
  6  2  1  0  0  0  0
  8 14  2  0  0  0  0
  9 16  1  6  0  0  0
  9 23  1  0  0  0  0
  9 12  1  0  0  0  0
 10 26  1  6  0  0  0
 10  7  1  0  0  0  0
 11 21  1  0  0  0  0
 12  4  2  0  0  0  0
 12  8  1  0  0  0  0
 13 17  1  0  0  0  0
 14 11  1  0  0  0  0
 15 19  1  0  0  0  0
 17  8  1  0  0  0  0
 18 20  1  0  0  0  0
 19 23  1  0  0  0  0
 20 15  2  0  0  0  0
 22 11  2  0  0  0  0
 23 13  1  1  0  0  0
 24 18  1  0  0  0  0
 25 15  1  0  0  0  0
 25 16  1  1  0  0  0
 26 28  1  1  0  0  0
 27 26  1  0  0  0  0
M  END
>  <MODEL>
9

>  <REMARK>
 VINA RESULT:      -5.0      1.783      2.632
  Name = 
  1 active torsions:
  status: ('A' for Active; 'I' for Inactive)
    1  A    between atoms: C_6  and  C_11
                            x       y       z     vdW  Elec       q    Type
                         _______ _______ _______ _____ _____    ______ ____

>  <TORSDO>
F 1

$$$$
