=
 OpenBabel10262419343D

 31 35  0  0  1  0  0  0  0  0999 V2000
  188.7660  177.4140  143.9720 C   0  0  0  0  0  0  0  0  0  0  0  0
  189.3280  177.3290  145.2700 C   0  0  2  0  0  3  0  0  0  0  0  0
  189.1460  177.5830  147.6630 C   0  0  0  0  0  0  0  0  0  0  0  0
  187.5030  177.8190  143.7270 C   0  0  0  0  0  0  0  0  0  0  0  0
  185.4700  178.5220  143.9880 C   0  0  0  0  0  0  0  0  0  0  0  0
  188.6310  177.6490  146.3250 N   0  0  0  0  0  0  0  0  0  0  0  0
  189.0340  177.1220  141.4620 C   0  0  0  0  0  0  0  0  0  0  0  0
  191.4030  176.5530  144.2870 C   0  0  0  0  0  3  0  0  0  0  0  0
  188.2770  177.9670  148.8050 C   0  0  0  0  0  1  0  0  0  0  0  0
  187.7710  177.5310  141.2690 C   0  0  0  0  0  3  0  0  0  0  0  0
  189.5720  177.0530  142.8550 C   0  0  0  0  0  0  0  0  0  0  0  0
  186.5290  178.2220  144.6770 N   0  0  0  0  0  0  0  0  0  0  0  0
  190.3960  177.1820  147.8910 C   0  0  0  0  0  3  0  0  0  0  0  0
  186.9970  177.8830  142.4130 N   0  0  0  0  0  0  0  0  0  0  0  0
  185.6290  178.3480  142.4940 C   0  0  0  0  0  2  0  0  0  0  0  0
  190.8520  176.6390  143.0500 N   0  0  0  0  0  0  0  0  0  0  0  0
  190.6610  176.8930  145.4150 C   0  0  0  0  0  0  0  0  0  0  0  0
  191.3100  176.7850  146.7680 C   0  0  0  0  0  3  0  0  0  0  0  0
  189.4990  178.5670  138.9450 O   0  0  0  0  0  0  0  0  0  0  0  0
  190.0930  177.4730  139.1400 C   0  0  0  0  0  0  0  0  0  0  0  0
  189.8810  176.7490  140.3630 N   0  0  0  0  0  2  0  0  0  0  0  0
  192.6370  175.8400  136.0800 C   0  0  0  0  0  0  0  0  0  0  0  0
  190.4640  176.5160  136.8890 C   0  0  0  0  0  3  0  0  0  0  0  0
  193.2460  177.2210  139.7950 Cl  0  0  0  0  0  0  0  0  0  0  0  0
  193.6430  175.1720  134.8140 Cl  0  0  0  0  0  0  0  0  0  0  0  0
  191.2650  175.9830  135.8780 C   0  0  0  0  0  3  0  0  0  0  0  0
  192.4140  176.7660  138.3140 C   0  0  0  0  0  0  0  0  0  0  0  0
  191.0160  176.9160  138.1180 C   0  0  0  0  0  0  0  0  0  0  0  0
  193.2050  176.2300  137.2920 C   0  0  0  0  0  3  0  0  0  0  0  0
  184.2730  178.9760  144.6240 N   0  0  0  0  0  0  0  0  0  0  0  0
  183.1280  178.9580  144.0220 C   0  0  0  0  0  2  0  0  0  0  0  0
  2  1  1  6  0  0  0
  2 17  1  0  0  0  0
  2  6  1  0  0  0  0
  3 13  1  0  0  0  0
  3  9  1  0  0  0  0
  4  1  2  0  0  0  0
  4 12  1  0  0  0  0
  5 30  1  0  0  0  0
  5 12  2  0  0  0  0
  6  3  2  0  0  0  0
  7 11  1  0  0  0  0
  8 17  2  0  0  0  0
 10  7  2  0  0  0  0
 10 14  1  0  0  0  0
 11 16  2  0  0  0  0
 11  1  1  0  0  0  0
 14 15  1  0  0  0  0
 14  4  1  0  0  0  0
 15  5  1  0  0  0  0
 16  8  1  0  0  0  0
 17 18  1  0  0  0  0
 18 13  2  0  0  0  0
 19 20  2  0  0  0  0
 20 21  1  0  0  0  0
 21  7  1  0  0  0  0
 22 29  1  0  0  0  0
 23 28  2  0  0  0  0
 25 22  1  0  0  0  0
 26 22  2  0  0  0  0
 26 23  1  0  0  0  0
 27 24  1  0  0  0  0
 28 27  1  0  0  0  0
 28 20  1  0  0  0  0
 29 27  2  0  0  0  0
 31 30  2  0  0  0  0
M  END
>  <MODEL>
1

>  <REMARK>
 VINA RESULT:      -9.6      0.000      0.000
  Name = 
  3 active torsions:
  status: ('A' for Active; 'I' for Inactive)
    1  A    between atoms: N_2  and  C_13
    2  A    between atoms: C_9  and  C_22
    3  A    between atoms: C_15  and  N_23
                            x       y       z     vdW  Elec       q    Type
                         _______ _______ _______ _____ _____    ______ ____

>  <TORSDO>
F 3

$$$$
=
 OpenBabel10262419343D

 31 35  0  0  1  0  0  0  0  0999 V2000
  186.7170  178.2560  143.0300 C   0  0  0  0  0  0  0  0  0  0  0  0
  186.4500  178.2100  144.4200 C   0  0  1  0  0  3  0  0  0  0  0  0
  187.1410  177.7260  146.6810 C   0  0  0  0  0  0  0  0  0  0  0  0
  187.8920  177.8830  142.4790 C   0  0  0  0  0  0  0  0  0  0  0  0
  189.9220  177.1700  142.2250 C   0  0  0  0  0  0  0  0  0  0  0  0
  187.3540  177.7940  145.2640 N   0  0  0  0  0  0  0  0  0  0  0  0
  185.9180  178.7880  140.6760 C   0  0  0  0  0  0  0  0  0  0  0  0
  184.2230  179.0660  143.9880 C   0  0  0  0  0  3  0  0  0  0  0  0
  188.2300  177.2390  147.5660 C   0  0  0  0  0  1  0  0  0  0  0  0
  187.1030  178.4070  140.1770 C   0  0  0  0  0  3  0  0  0  0  0  0
  185.6950  178.7180  142.1530 C   0  0  0  0  0  0  0  0  0  0  0  0
  189.0410  177.3960  143.1520 N   0  0  0  0  0  0  0  0  0  0  0  0
  185.9760  178.0960  147.2120 C   0  0  0  0  0  3  0  0  0  0  0  0
  188.1000  177.9510  141.0870 N   0  0  0  0  0  0  0  0  0  0  0  0
  189.4460  177.4880  140.8250 C   0  0  0  0  0  2  0  0  0  0  0  0
  184.4940  179.1040  142.6590 N   0  0  0  0  0  0  0  0  0  0  0  0
  185.1860  178.6220  144.8910 C   0  0  0  0  0  0  0  0  0  0  0  0
  184.8470  178.5950  146.3570 C   0  0  0  0  0  3  0  0  0  0  0  0
  183.5010  177.3590  139.8050 O   0  0  0  0  0  0  0  0  0  0  0  0
  183.6850  178.5420  139.4150 C   0  0  0  0  0  0  0  0  0  0  0  0
  184.8590  179.2610  139.8280 N   0  0  0  0  0  2  0  0  0  0  0  0
  180.8450  180.6160  136.9380 C   0  0  0  0  0  0  0  0  0  0  0  0
  182.3480  180.5390  138.8260 C   0  0  0  0  0  3  0  0  0  0  0  0
  182.4390  176.9360  136.9050 Cl  0  0  0  0  0  0  0  0  0  0  0  0
  179.6930  181.4880  135.9510 Cl  0  0  0  0  0  0  0  0  0  0  0  0
  181.4300  181.2370  138.0410 C   0  0  0  0  0  3  0  0  0  0  0  0
  182.0980  178.5880  137.4030 C   0  0  0  0  0  0  0  0  0  0  0  0
  182.7000  179.2120  138.5280 C   0  0  0  0  0  0  0  0  0  0  0  0
  181.1790  179.2990  136.6240 C   0  0  0  0  0  3  0  0  0  0  0  0
  191.2210  176.6640  142.5400 N   0  0  0  0  0  0  0  0  0  0  0  0
  191.4930  176.1410  143.6900 C   0  0  0  0  0  2  0  0  0  0  0  0
  2  1  1  1  0  0  0
  2 17  1  0  0  0  0
  2  6  1  0  0  0  0
  3 13  1  0  0  0  0
  3  9  1  0  0  0  0
  4  1  2  0  0  0  0
  4 12  1  0  0  0  0
  5 30  1  0  0  0  0
  5 12  2  0  0  0  0
  6  3  2  0  0  0  0
  7 11  1  0  0  0  0
  8 17  2  0  0  0  0
 10  7  2  0  0  0  0
 10 14  1  0  0  0  0
 11 16  2  0  0  0  0
 11  1  1  0  0  0  0
 14  4  1  0  0  0  0
 15 14  1  0  0  0  0
 15  5  1  0  0  0  0
 16  8  1  0  0  0  0
 17 18  1  0  0  0  0
 18 13  2  0  0  0  0
 20 19  2  0  0  0  0
 20 21  1  0  0  0  0
 21  7  1  0  0  0  0
 22 26  1  0  0  0  0
 24 27  1  0  0  0  0
 25 22  1  0  0  0  0
 26 23  2  0  0  0  0
 27 28  2  0  0  0  0
 28 23  1  0  0  0  0
 28 20  1  0  0  0  0
 29 22  2  0  0  0  0
 29 27  1  0  0  0  0
 30 31  2  0  0  0  0
M  END
>  <MODEL>
2

>  <REMARK>
 VINA RESULT:      -9.3      4.761      7.288
  Name = 
  3 active torsions:
  status: ('A' for Active; 'I' for Inactive)
    1  A    between atoms: N_2  and  C_13
    2  A    between atoms: C_9  and  C_22
    3  A    between atoms: C_15  and  N_23
                            x       y       z     vdW  Elec       q    Type
                         _______ _______ _______ _____ _____    ______ ____

>  <TORSDO>
F 3

$$$$
=
 OpenBabel10262419343D

 31 35  0  0  0  0  0  0  0  0999 V2000
  187.2050  178.2340  139.4690 C   0  0  0  0  0  0  0  0  0  0  0  0
  187.8090  178.0210  138.2060 C   0  0  0  0  0  0  0  0  0  0  0  0
  187.6910  177.9790  135.7960 C   0  0  0  0  0  0  0  0  0  0  0  0
  185.9180  178.6070  139.6310 C   0  0  0  0  0  0  0  0  0  0  0  0
  183.8670  179.1850  139.2350 C   0  0  0  0  0  0  0  0  0  0  0  0
  187.1330  178.1800  137.1020 N   0  0  0  0  0  0  0  0  0  0  0  0
  187.4070  178.2550  142.0030 C   0  0  0  0  0  0  0  0  0  0  0  0
  189.8830  177.4600  139.3290 C   0  0  0  0  0  3  0  0  0  0  0  0
  186.8420  178.1850  134.5940 C   0  0  0  0  0  1  0  0  0  0  0  0
  186.1230  178.6260  142.1120 C   0  0  0  0  0  3  0  0  0  0  0  0
  187.9890  178.0450  140.6420 C   0  0  0  0  0  0  0  0  0  0  0  0
  184.9590  178.8520  138.6150 N   0  0  0  0  0  0  0  0  0  0  0  0
  188.9620  177.6090  135.6500 C   0  0  0  0  0  3  0  0  0  0  0  0
  185.3710  178.8050  140.9140 N   0  0  0  0  0  0  0  0  0  0  0  0
  183.9880  179.1980  140.7430 C   0  0  0  0  0  2  0  0  0  0  0  0
  189.2910  177.6680  140.5310 N   0  0  0  0  0  0  0  0  0  0  0  0
  189.1630  177.6300  138.1490 C   0  0  0  0  0  0  0  0  0  0  0  0
  189.8580  177.3890  136.8360 C   0  0  0  0  0  2  0  0  0  0  0  0
  188.2630  175.7170  143.2140 O   0  0  0  0  0  0  0  0  0  0  0  0
  188.6400  176.8010  143.7340 C   0  0  0  0  0  0  0  0  0  0  0  0
  188.2340  178.0540  143.1600 N   0  0  0  0  0  2  0  0  0  0  0  0
  191.2700  176.7680  147.1380 C   0  0  0  0  0  0  0  0  0  0  0  0
  190.8650  176.4960  144.7730 C   0  0  0  0  0  3  0  0  0  0  0  0
  187.3620  177.5000  146.6160 Cl  0  0  0  0  0  0  0  0  0  0  0  0
  192.3670  176.7460  148.5010 Cl  0  0  0  0  0  0  0  0  0  0  0  0
  191.7420  176.4780  145.8580 C   0  0  0  0  0  3  0  0  0  0  0  0
  189.0340  177.0970  146.2490 C   0  0  0  0  0  0  0  0  0  0  0  0
  189.5050  176.8040  144.9420 C   0  0  0  0  0  0  0  0  0  0  0  0
  189.9240  177.0760  147.3290 C   0  0  0  0  0  3  0  0  0  0  0  0
  182.6730  179.5050  138.5190 N   0  0  0  0  0  0  0  0  0  0  0  0
  182.0940  180.6560  138.6310 C   0  0  0  0  0  2  0  0  0  0  0  0
  1  4  2  0  0  0  0
  1 11  1  0  0  0  0
  2  1  1  0  0  0  0
  3  6  1  0  0  0  0
  4 14  1  0  0  0  0
  5 15  1  0  0  0  0
  6  2  2  0  0  0  0
  7 10  2  0  0  0  0
  7 21  1  0  0  0  0
  8 16  1  0  0  0  0
  9  3  1  0  0  0  0
 11  7  1  0  0  0  0
 12  5  2  0  0  0  0
 12  4  1  0  0  0  0
 13  3  2  0  0  0  0
 13 18  1  0  0  0  0
 14 10  1  0  0  0  0
 15 14  1  0  0  0  0
 16 11  2  0  0  0  0
 17  2  1  0  0  0  0
 17  8  2  0  0  0  0
 18 17  1  0  0  0  0
 19 20  2  0  0  0  0
 20 28  1  0  0  0  0
 21 20  1  0  0  0  0
 22 29  1  0  0  0  0
 22 25  1  0  0  0  0
 23 28  2  0  0  0  0
 23 26  1  0  0  0  0
 26 22  2  0  0  0  0
 27 24  1  0  0  0  0
 27 29  2  0  0  0  0
 28 27  1  0  0  0  0
 30 31  2  0  0  0  0
 30  5  1  0  0  0  0
M  END
>  <MODEL>
3

>  <REMARK>
 VINA RESULT:      -9.3      3.614      7.838
  Name = 
  3 active torsions:
  status: ('A' for Active; 'I' for Inactive)
    1  A    between atoms: N_2  and  C_13
    2  A    between atoms: C_9  and  C_22
    3  A    between atoms: C_15  and  N_23
                            x       y       z     vdW  Elec       q    Type
                         _______ _______ _______ _____ _____    ______ ____

>  <TORSDO>
F 3

$$$$
=
 OpenBabel10262419343D

 31 35  0  0  1  0  0  0  0  0999 V2000
  186.0330  178.4660  140.3310 C   0  0  0  0  0  0  0  0  0  0  0  0
  184.6340  178.6700  140.4010 C   0  0  2  0  0  3  0  0  0  0  0  0
  182.5050  179.0440  139.3270 C   0  0  0  0  0  0  0  0  0  0  0  0
  186.7280  178.4240  139.1750 C   0  0  0  0  0  0  0  0  0  0  0  0
  187.2440  178.4570  137.0710 C   0  0  0  0  0  0  0  0  0  0  0  0
  183.9240  178.8330  139.3180 N   0  0  0  0  0  0  0  0  0  0  0  0
  188.2380  178.0750  141.5340 C   0  0  0  0  0  0  0  0  0  0  0  0
  184.7640  178.5240  142.8170 C   0  0  0  0  0  3  0  0  0  0  0  0
  181.7790  179.2190  138.0420 C   0  0  0  0  0  1  0  0  0  0  0  0
  188.8840  178.0410  140.3590 C   0  0  0  0  0  3  0  0  0  0  0  0
  186.7590  178.2940  141.5440 C   0  0  0  0  0  0  0  0  0  0  0  0
  186.2190  178.5680  137.8590 N   0  0  0  0  0  0  0  0  0  0  0  0
  181.8310  179.0840  140.4750 C   0  0  0  0  0  3  0  0  0  0  0  0
  188.1220  178.2170  139.1680 N   0  0  0  0  0  0  0  0  0  0  0  0
  188.5560  178.2240  137.7870 C   0  0  0  0  0  2  0  0  0  0  0  0
  186.1040  178.3290  142.7350 N   0  0  0  0  0  0  0  0  0  0  0  0
  184.0050  178.6980  141.6630 C   0  0  0  0  0  0  0  0  0  0  0  0
  182.5210  178.9120  141.7980 C   0  0  0  0  0  3  0  0  0  0  0  0
  188.4220  175.6660  143.2070 O   0  0  0  0  0  0  0  0  0  0  0  0
  189.0080  176.7160  143.5820 C   0  0  0  0  0  0  0  0  0  0  0  0
  188.9320  177.9060  142.7800 N   0  0  0  0  0  2  0  0  0  0  0  0
  191.3780  176.7400  147.1710 C   0  0  0  0  0  0  0  0  0  0  0  0
  191.1230  176.3260  144.8060 C   0  0  0  0  0  3  0  0  0  0  0  0
  187.5860  177.7150  146.3040 Cl  0  0  0  0  0  0  0  0  0  0  0  0
  192.3700  176.7380  148.6130 Cl  0  0  0  0  0  0  0  0  0  0  0  0
  191.9160  176.3240  145.9540 C   0  0  0  0  0  3  0  0  0  0  0  0
  189.2440  177.1660  146.0940 C   0  0  0  0  0  0  0  0  0  0  0  0
  189.7820  176.7440  144.8500 C   0  0  0  0  0  0  0  0  0  0  0  0
  190.0500  177.1580  147.2370 C   0  0  0  0  0  3  0  0  0  0  0  0
  187.1060  178.5520  135.6510 N   0  0  0  0  0  0  0  0  0  0  0  0
  186.6060  177.5920  134.9450 C   0  0  0  0  0  2  0  0  0  0  0  0
  1  2  1  0  0  0  0
  1 11  1  0  0  0  0
  2  6  1  1  0  0  0
  2 17  1  0  0  0  0
  3 13  1  0  0  0  0
  4  1  2  0  0  0  0
  5 15  1  0  0  0  0
  5 12  2  0  0  0  0
  6  3  2  0  0  0  0
  7 11  1  0  0  0  0
  7 21  1  0  0  0  0
  9  3  1  0  0  0  0
 10  7  2  0  0  0  0
 11 16  2  0  0  0  0
 12  4  1  0  0  0  0
 13 18  2  0  0  0  0
 14  4  1  0  0  0  0
 14 10  1  0  0  0  0
 15 14  1  0  0  0  0
 16  8  1  0  0  0  0
 17 18  1  0  0  0  0
 17  8  2  0  0  0  0
 19 20  2  0  0  0  0
 20 28  1  0  0  0  0
 21 20  1  0  0  0  0
 22 29  1  0  0  0  0
 22 25  1  0  0  0  0
 23 28  2  0  0  0  0
 23 26  1  0  0  0  0
 26 22  2  0  0  0  0
 27 24  1  0  0  0  0
 27 29  2  0  0  0  0
 28 27  1  0  0  0  0
 30  5  1  0  0  0  0
 31 30  2  0  0  0  0
M  END
>  <MODEL>
4

>  <REMARK>
 VINA RESULT:      -9.2      3.777      8.032
  Name = 
  3 active torsions:
  status: ('A' for Active; 'I' for Inactive)
    1  A    between atoms: N_2  and  C_13
    2  A    between atoms: C_9  and  C_22
    3  A    between atoms: C_15  and  N_23
                            x       y       z     vdW  Elec       q    Type
                         _______ _______ _______ _____ _____    ______ ____

>  <TORSDO>
F 3

$$$$
=
 OpenBabel10262419343D

 31 35  0  0  1  0  0  0  0  0999 V2000
  189.1430  177.5780  142.6710 C   0  0  0  0  0  0  0  0  0  0  0  0
  189.4560  177.4070  144.0410 C   0  0  2  0  0  3  0  0  0  0  0  0
  188.8370  177.5080  146.3720 C   0  0  0  0  0  0  0  0  0  0  0  0
  187.9440  178.0080  142.2250 C   0  0  0  0  0  0  0  0  0  0  0  0
  185.8940  178.7070  142.1530 C   0  0  0  0  0  0  0  0  0  0  0  0
  188.5760  177.6630  144.9690 N   0  0  0  0  0  0  0  0  0  0  0  0
  189.8690  177.4470  140.2390 C   0  0  0  0  0  0  0  0  0  0  0  0
  191.6810  176.6810  143.4080 C   0  0  0  0  0  3  0  0  0  0  0  0
  187.7710  177.8240  147.3570 C   0  0  0  0  0  1  0  0  0  0  0  0
  188.6610  177.8760  139.8450 C   0  0  0  0  0  3  0  0  0  0  0  0
  190.1410  177.2840  141.7000 C   0  0  0  0  0  0  0  0  0  0  0  0
  186.8100  178.3560  143.0030 N   0  0  0  0  0  0  0  0  0  0  0  0
  190.0250  177.0840  146.8000 C   0  0  0  0  0  3  0  0  0  0  0  0
  187.6880  178.1590  140.8470 N   0  0  0  0  0  0  0  0  0  0  0  0
  186.3270  178.6280  140.7050 C   0  0  0  0  0  2  0  0  0  0  0  0
  191.3660  176.8490  142.0990 N   0  0  0  0  0  0  0  0  0  0  0  0
  190.7430  176.9530  144.4010 C   0  0  0  0  0  0  0  0  0  0  0  0
  191.1330  176.7530  145.8400 C   0  0  0  0  0  3  0  0  0  0  0  0
  189.9980  175.2070  138.3390 O   0  0  0  0  0  0  0  0  0  0  0  0
  190.9460  176.0360  138.3720 C   0  0  0  0  0  0  0  0  0  0  0  0
  190.9050  177.1390  139.2930 N   0  0  0  0  0  2  0  0  0  0  0  0
  194.4240  175.5850  135.8830 C   0  0  0  0  0  0  0  0  0  0  0  0
  193.3620  175.6070  138.0510 C   0  0  0  0  0  3  0  0  0  0  0  0
  190.5550  176.3710  135.1840 Cl  0  0  0  0  0  0  0  0  0  0  0  0
  195.8590  175.3950  134.8990 Cl  0  0  0  0  0  0  0  0  0  0  0  0
  194.5070  175.4550  137.2690 C   0  0  0  0  0  3  0  0  0  0  0  0
  192.0420  176.0200  136.0550 C   0  0  0  0  0  0  0  0  0  0  0  0
  192.1150  175.8900  137.4670 C   0  0  0  0  0  0  0  0  0  0  0  0
  193.1980  175.8660  135.2830 C   0  0  0  0  0  3  0  0  0  0  0  0
  184.5980  179.1280  142.5850 N   0  0  0  0  0  0  0  0  0  0  0  0
  184.0300  178.6280  143.6340 C   0  0  0  0  0  2  0  0  0  0  0  0
  2  1  1  1  0  0  0
  2 17  1  0  0  0  0
  2  6  1  0  0  0  0
  3 13  1  0  0  0  0
  3  9  1  0  0  0  0
  4  1  2  0  0  0  0
  4 12  1  0  0  0  0
  5 30  1  0  0  0  0
  5 12  2  0  0  0  0
  6  3  2  0  0  0  0
  7 11  1  0  0  0  0
  8 17  2  0  0  0  0
 10  7  2  0  0  0  0
 10 14  1  0  0  0  0
 11 16  2  0  0  0  0
 11  1  1  0  0  0  0
 14  4  1  0  0  0  0
 15 14  1  0  0  0  0
 15  5  1  0  0  0  0
 16  8  1  0  0  0  0
 17 18  1  0  0  0  0
 18 13  2  0  0  0  0
 19 20  2  0  0  0  0
 20 21  1  0  0  0  0
 21  7  1  0  0  0  0
 22 26  1  0  0  0  0
 24 27  1  0  0  0  0
 25 22  1  0  0  0  0
 26 23  2  0  0  0  0
 27 28  2  0  0  0  0
 28 23  1  0  0  0  0
 28 20  1  0  0  0  0
 29 22  2  0  0  0  0
 29 27  1  0  0  0  0
 30 31  2  0  0  0  0
M  END
>  <MODEL>
5

>  <REMARK>
 VINA RESULT:      -9.1      1.666      2.078
  Name = 
  3 active torsions:
  status: ('A' for Active; 'I' for Inactive)
    1  A    between atoms: N_2  and  C_13
    2  A    between atoms: C_9  and  C_22
    3  A    between atoms: C_15  and  N_23
                            x       y       z     vdW  Elec       q    Type
                         _______ _______ _______ _____ _____    ______ ____

>  <TORSDO>
F 3

$$$$
=
 OpenBabel10262419343D

 31 35  0  0  1  0  0  0  0  0999 V2000
  189.5580  177.3060  138.6980 C   0  0  0  0  0  0  0  0  0  0  0  0
  190.7570  176.8800  138.0770 C   0  0  2  0  0  3  0  0  0  0  0  0
  192.0150  176.3090  136.0980 C   0  0  0  0  0  0  0  0  0  0  0  0
  188.4250  177.5930  138.0240 C   0  0  0  0  0  0  0  0  0  0  0  0
  186.9860  177.8910  136.4310 C   0  0  0  0  0  0  0  0  0  0  0  0
  190.8290  176.7380  136.7820 N   0  0  0  0  0  0  0  0  0  0  0  0
  188.2980  177.8900  140.8270 C   0  0  0  0  0  0  0  0  0  0  0  0
  191.8060  176.7560  140.2590 C   0  0  0  0  0  3  0  0  0  0  0  0
  192.0030  176.1770  134.6180 C   0  0  0  0  0  1  0  0  0  0  0  0
  187.1970  178.1640  140.1130 C   0  0  0  0  0  3  0  0  0  0  0  0
  189.5340  177.4440  140.1150 C   0  0  0  0  0  0  0  0  0  0  0  0
  188.2180  177.5280  136.6220 N   0  0  0  0  0  0  0  0  0  0  0  0
  193.1270  176.0280  136.7760 C   0  0  0  0  0  3  0  0  0  0  0  0
  187.2600  178.0140  138.6970 N   0  0  0  0  0  0  0  0  0  0  0  0
  186.2370  178.2390  137.6980 C   0  0  0  0  0  2  0  0  0  0  0  0
  190.6510  177.1660  140.8400 N   0  0  0  0  0  0  0  0  0  0  0  0
  191.8860  176.6050  138.8770 C   0  0  0  0  0  0  0  0  0  0  0  0
  193.1860  176.1480  138.2720 C   0  0  0  0  0  3  0  0  0  0  0  0
  188.3030  175.7530  142.8460 O   0  0  0  0  0  0  0  0  0  0  0  0
  188.3210  176.9540  143.2270 C   0  0  0  0  0  0  0  0  0  0  0  0
  188.3180  178.0160  142.2580 N   0  0  0  0  0  2  0  0  0  0  0  0
  188.5420  177.8890  147.4200 C   0  0  0  0  0  0  0  0  0  0  0  0
  189.5480  177.1020  145.3710 C   0  0  0  0  0  3  0  0  0  0  0  0
  185.6500  178.0850  144.6480 Cl  0  0  0  0  0  0  0  0  0  0  0  0
  188.6660  178.2590  149.1260 Cl  0  0  0  0  0  0  0  0  0  0  0  0
  189.6490  177.3960  146.7300 C   0  0  0  0  0  3  0  0  0  0  0  0
  187.2210  177.7940  145.3840 C   0  0  0  0  0  0  0  0  0  0  0  0
  188.3430  177.2930  144.6730 C   0  0  0  0  0  0  0  0  0  0  0  0
  187.3360  178.0850  146.7480 C   0  0  0  0  0  3  0  0  0  0  0  0
  186.4210  177.9440  135.1190 N   0  0  0  0  0  0  0  0  0  0  0  0
  185.4970  177.1240  134.7370 C   0  0  0  0  0  2  0  0  0  0  0  0
  1 11  1  0  0  0  0
  2  6  1  1  0  0  0
  2  1  1  0  0  0  0
  2 17  1  0  0  0  0
  3 13  1  0  0  0  0
  3  6  2  0  0  0  0
  4 14  1  0  0  0  0
  4  1  2  0  0  0  0
  5 12  2  0  0  0  0
  5 15  1  0  0  0  0
  7 21  1  0  0  0  0
  8 16  1  0  0  0  0
  9  3  1  0  0  0  0
 10  7  2  0  0  0  0
 11  7  1  0  0  0  0
 11 16  2  0  0  0  0
 12  4  1  0  0  0  0
 13 18  2  0  0  0  0
 14 10  1  0  0  0  0
 15 14  1  0  0  0  0
 17  8  2  0  0  0  0
 18 17  1  0  0  0  0
 19 20  2  0  0  0  0
 20 28  1  0  0  0  0
 21 20  1  0  0  0  0
 22 25  1  0  0  0  0
 23 26  1  0  0  0  0
 24 27  1  0  0  0  0
 26 22  2  0  0  0  0
 27 29  2  0  0  0  0
 28 23  2  0  0  0  0
 28 27  1  0  0  0  0
 29 22  1  0  0  0  0
 30  5  1  0  0  0  0
 31 30  2  0  0  0  0
M  END
>  <MODEL>
6

>  <REMARK>
 VINA RESULT:      -8.9      3.550      8.407
  Name = 
  3 active torsions:
  status: ('A' for Active; 'I' for Inactive)
    1  A    between atoms: N_2  and  C_13
    2  A    between atoms: C_9  and  C_22
    3  A    between atoms: C_15  and  N_23
                            x       y       z     vdW  Elec       q    Type
                         _______ _______ _______ _____ _____    ______ ____

>  <TORSDO>
F 3

$$$$
=
 OpenBabel10262419343D

 31 35  0  0  1  0  0  0  0  0999 V2000
  188.2040  177.8040  143.0250 C   0  0  0  0  0  0  0  0  0  0  0  0
  188.4110  177.5970  144.4100 C   0  0  2  0  0  3  0  0  0  0  0  0
  189.8620  177.0830  146.2690 C   0  0  0  0  0  0  0  0  0  0  0  0
  189.1830  177.7160  142.1000 C   0  0  0  0  0  0  0  0  0  0  0  0
  191.1110  177.4420  141.1490 C   0  0  0  0  0  0  0  0  0  0  0  0
  189.5930  177.3030  144.8770 N   0  0  0  0  0  0  0  0  0  0  0  0
  186.6130  178.3500  141.1190 C   0  0  0  0  0  0  0  0  0  0  0  0
  186.0550  178.0250  144.7930 C   0  0  0  0  0  3  0  0  0  0  0  0
  191.2430  176.7530  146.7080 C   0  0  0  0  0  1  0  0  0  0  0  0
  187.6190  178.2530  140.2380 C   0  0  0  0  0  3  0  0  0  0  0  0
  186.8930  178.1220  142.5700 C   0  0  0  0  0  0  0  0  0  0  0  0
  190.5510  177.4150  142.3210 N   0  0  0  0  0  0  0  0  0  0  0  0
  188.8870  177.1710  147.1720 C   0  0  0  0  0  3  0  0  0  0  0  0
  188.9170  177.9330  140.7330 N   0  0  0  0  0  0  0  0  0  0  0  0
  190.1630  177.7680  140.0150 C   0  0  0  0  0  2  0  0  0  0  0  0
  185.8730  178.2210  143.4630 N   0  0  0  0  0  0  0  0  0  0  0  0
  187.3170  177.7120  145.2940 C   0  0  0  0  0  0  0  0  0  0  0  0
  187.4770  177.5030  146.7750 C   0  0  0  0  0  3  0  0  0  0  0  0
  185.6150  178.8280  138.3960 O   0  0  0  0  0  0  0  0  0  0  0  0
  184.8110  178.8990  139.3630 C   0  0  0  0  0  0  0  0  0  0  0  0
  185.2760  178.6690  140.7030 N   0  0  0  0  0  2  0  0  0  0  0  0
  180.7050  179.9770  138.6700 C   0  0  0  0  0  0  0  0  0  0  0  0
  183.0560  180.5210  138.7180 C   0  0  0  0  0  3  0  0  0  0  0  0
  182.5670  176.6250  139.8440 Cl  0  0  0  0  0  0  0  0  0  0  0  0
  179.0450  180.4490  138.3790 Cl  0  0  0  0  0  0  0  0  0  0  0  0
  181.7340  180.8990  138.4860 C   0  0  0  0  0  3  0  0  0  0  0  0
  182.3220  178.2870  139.3230 C   0  0  0  0  0  0  0  0  0  0  0  0
  183.3770  179.2190  139.1380 C   0  0  0  0  0  0  0  0  0  0  0  0
  181.0000  178.6800  139.0870 C   0  0  0  0  0  3  0  0  0  0  0  0
  192.5060  177.1810  140.9840 N   0  0  0  0  0  0  0  0  0  0  0  0
  193.0690  177.1730  139.8200 C   0  0  0  0  0  2  0  0  0  0  0  0
  2  1  1  6  0  0  0
  2  6  1  0  0  0  0
  2 17  1  0  0  0  0
  3  9  1  0  0  0  0
  3 13  1  0  0  0  0
  4 12  1  0  0  0  0
  4  1  2  0  0  0  0
  5 12  2  0  0  0  0
  6  3  2  0  0  0  0
  7 11  1  0  0  0  0
  8 17  2  0  0  0  0
 10 14  1  0  0  0  0
 10  7  2  0  0  0  0
 11  1  1  0  0  0  0
 11 16  2  0  0  0  0
 14  4  1  0  0  0  0
 15 14  1  0  0  0  0
 15  5  1  0  0  0  0
 16  8  1  0  0  0  0
 17 18  1  0  0  0  0
 18 13  2  0  0  0  0
 19 20  2  0  0  0  0
 20 21  1  0  0  0  0
 21  7  1  0  0  0  0
 22 29  1  0  0  0  0
 23 28  2  0  0  0  0
 25 22  1  0  0  0  0
 26 22  2  0  0  0  0
 26 23  1  0  0  0  0
 27 24  1  0  0  0  0
 28 27  1  0  0  0  0
 28 20  1  0  0  0  0
 29 27  2  0  0  0  0
 30  5  1  0  0  0  0
 31 30  2  0  0  0  0
M  END
>  <MODEL>
7

>  <REMARK>
 VINA RESULT:      -8.8      4.275      7.104
  Name = 
  3 active torsions:
  status: ('A' for Active; 'I' for Inactive)
    1  A    between atoms: N_2  and  C_13
    2  A    between atoms: C_9  and  C_22
    3  A    between atoms: C_15  and  N_23
                            x       y       z     vdW  Elec       q    Type
                         _______ _______ _______ _____ _____    ______ ____

>  <TORSDO>
F 3

$$$$
=
 OpenBabel10262419343D

 31 35  0  0  1  0  0  0  0  0999 V2000
  188.5710  177.3250  144.6690 C   0  0  0  0  0  0  0  0  0  0  0  0
  187.7340  177.7920  145.7120 C   0  0  1  0  0  3  0  0  0  0  0  0
  187.3420  178.2580  148.0470 C   0  0  0  0  0  0  0  0  0  0  0  0
  189.8220  176.8580  144.8640 C   0  0  0  0  0  0  0  0  0  0  0  0
  191.6800  176.2530  145.7990 C   0  0  0  0  0  0  0  0  0  0  0  0
  188.1430  177.7960  146.9510 N   0  0  0  0  0  0  0  0  0  0  0  0
  188.9100  176.8610  142.1930 C   0  0  0  0  0  0  0  0  0  0  0  0
  186.0060  178.2530  144.0760 C   0  0  0  0  0  3  0  0  0  0  0  0
  187.8930  178.2250  149.4260 C   0  0  0  0  0  1  0  0  0  0  0  0
  190.1480  176.4060  142.4370 C   0  0  0  0  0  3  0  0  0  0  0  0
  188.0740  177.3420  143.3350 C   0  0  0  0  0  0  0  0  0  0  0  0
  190.5170  176.7490  146.0950 N   0  0  0  0  0  0  0  0  0  0  0  0
  186.1070  178.7150  147.8420 C   0  0  0  0  0  3  0  0  0  0  0  0
  190.6090  176.4050  143.7860 N   0  0  0  0  0  0  0  0  0  0  0  0
  191.8820  175.9770  144.3250 C   0  0  0  0  0  2  0  0  0  0  0  0
  186.8180  177.8030  143.0870 N   0  0  0  0  0  0  0  0  0  0  0  0
  186.4400  178.2590  145.3990 C   0  0  0  0  0  0  0  0  0  0  0  0
  185.5080  178.7670  146.4650 C   0  0  0  0  0  3  0  0  0  0  0  0
  188.7100  179.1540  140.3660 O   0  0  0  0  0  0  0  0  0  0  0  0
  188.2830  178.0320  139.9860 C   0  0  0  0  0  0  0  0  0  0  0  0
  188.3690  176.8960  140.8620 N   0  0  0  0  0  2  0  0  0  0  0  0
  186.4040  177.5720  136.1440 C   0  0  0  0  0  0  0  0  0  0  0  0
  186.2940  178.0210  138.5140 C   0  0  0  0  0  3  0  0  0  0  0  0
  190.1810  177.3240  137.4710 Cl  0  0  0  0  0  0  0  0  0  0  0  0
  185.6090  177.3920  134.5960 Cl  0  0  0  0  0  0  0  0  0  0  0  0
  185.6570  177.8780  137.2810 C   0  0  0  0  0  3  0  0  0  0  0  0
  188.4360  177.5510  137.4730 C   0  0  0  0  0  0  0  0  0  0  0  0
  187.6850  177.8620  138.6370 C   0  0  0  0  0  0  0  0  0  0  0  0
  187.7860  177.4100  136.2430 C   0  0  0  0  0  3  0  0  0  0  0  0
  192.6610  176.0010  146.8080 N   0  0  0  0  0  0  0  0  0  0  0  0
  192.3360  175.6450  148.0080 C   0  0  0  0  0  2  0  0  0  0  0  0
  1  4  2  0  0  0  0
  2  1  1  6  0  0  0
  2  6  1  0  0  0  0
  3  9  1  0  0  0  0
  4 12  1  0  0  0  0
  5 12  2  0  0  0  0
  5 30  1  0  0  0  0
  6  3  2  0  0  0  0
  7 10  2  0  0  0  0
  7 11  1  0  0  0  0
  8 17  2  0  0  0  0
 10 14  1  0  0  0  0
 11  1  1  0  0  0  0
 13  3  1  0  0  0  0
 14 15  1  0  0  0  0
 14  4  1  0  0  0  0
 15  5  1  0  0  0  0
 16 11  2  0  0  0  0
 16  8  1  0  0  0  0
 17  2  1  0  0  0  0
 17 18  1  0  0  0  0
 18 13  2  0  0  0  0
 20 19  2  0  0  0  0
 20 21  1  0  0  0  0
 21  7  1  0  0  0  0
 22 29  2  0  0  0  0
 22 26  1  0  0  0  0
 23 28  1  0  0  0  0
 24 27  1  0  0  0  0
 25 22  1  0  0  0  0
 26 23  2  0  0  0  0
 27 28  2  0  0  0  0
 28 20  1  0  0  0  0
 29 27  1  0  0  0  0
 30 31  2  0  0  0  0
M  END
>  <MODEL>
8

>  <REMARK>
 VINA RESULT:      -8.8      2.633      4.886
  Name = 
  3 active torsions:
  status: ('A' for Active; 'I' for Inactive)
    1  A    between atoms: N_2  and  C_13
    2  A    between atoms: C_9  and  C_22
    3  A    between atoms: C_15  and  N_23
                            x       y       z     vdW  Elec       q    Type
                         _______ _______ _______ _____ _____    ______ ____

>  <TORSDO>
F 3

$$$$
=
 OpenBabel10262419343D

 31 35  0  0  0  0  0  0  0  0999 V2000
  187.2840  178.2090  142.1050 C   0  0  0  0  0  0  0  0  0  0  0  0
  188.6140  177.8410  141.7900 C   0  0  0  0  0  0  0  0  0  0  0  0
  190.8050  177.0850  142.4660 C   0  0  0  0  0  0  0  0  0  0  0  0
  186.7810  178.2060  143.3570 C   0  0  0  0  0  0  0  0  0  0  0  0
  186.5820  177.9960  145.5040 C   0  0  0  0  0  0  0  0  0  0  0  0
  189.4470  177.4690  142.7240 N   0  0  0  0  0  0  0  0  0  0  0  0
  185.0030  179.0070  141.3170 C   0  0  0  0  0  0  0  0  0  0  0  0
  188.1500  178.2780  139.4520 C   0  0  0  0  0  3  0  0  0  0  0  0
  191.6800  176.6750  143.5940 C   0  0  0  0  0  1  0  0  0  0  0  0
  184.5490  178.9880  142.5780 C   0  0  0  0  0  3  0  0  0  0  0  0
  186.4180  178.6070  141.0470 C   0  0  0  0  0  0  0  0  0  0  0  0
  187.4530  177.8490  144.5530 N   0  0  0  0  0  0  0  0  0  0  0  0
  191.2900  177.0930  141.2250 C   0  0  0  0  0  3  0  0  0  0  0  0
  185.4460  178.5830  143.6090 N   0  0  0  0  0  0  0  0  0  0  0  0
  185.2240  178.4710  145.0350 C   0  0  0  0  0  2  0  0  0  0  0  0
  186.8780  178.6270  139.7670 N   0  0  0  0  0  0  0  0  0  0  0  0
  189.0400  177.8800  140.4460 C   0  0  0  0  0  0  0  0  0  0  0  0
  190.4420  177.5000  140.0530 C   0  0  0  0  0  2  0  0  0  0  0  0
  182.4150  177.8770  140.5010 O   0  0  0  0  0  0  0  0  0  0  0  0
  182.8990  178.8340  139.8410 C   0  0  0  0  0  0  0  0  0  0  0  0
  184.1630  179.4030  140.2200 N   0  0  0  0  0  2  0  0  0  0  0  0
  180.8050  180.5810  136.5140 C   0  0  0  0  0  0  0  0  0  0  0  0
  181.7900  180.7370  138.7130 C   0  0  0  0  0  3  0  0  0  0  0  0
  182.2840  176.9370  137.3000 Cl  0  0  0  0  0  0  0  0  0  0  0  0
  179.9520  181.3230  135.1780 Cl  0  0  0  0  0  0  0  0  0  0  0  0
  181.1100  181.3310  137.6490 C   0  0  0  0  0  3  0  0  0  0  0  0
  181.8640  178.6330  137.5050 C   0  0  0  0  0  0  0  0  0  0  0  0
  182.1790  179.3880  138.6650 C   0  0  0  0  0  0  0  0  0  0  0  0
  181.1810  179.2400  136.4450 C   0  0  0  0  0  3  0  0  0  0  0  0
  186.9130  177.7240  146.8670 N   0  0  0  0  0  0  0  0  0  0  0  0
  188.1300  177.5030  147.2460 C   0  0  0  0  0  2  0  0  0  0  0  0
  1  4  2  0  0  0  0
  2  1  1  0  0  0  0
  2  6  2  0  0  0  0
  3  6  1  0  0  0  0
  3  9  1  0  0  0  0
  4 14  1  0  0  0  0
  4 12  1  0  0  0  0
  5 30  1  0  0  0  0
  7 10  2  0  0  0  0
  8 16  1  0  0  0  0
  8 17  2  0  0  0  0
 10 14  1  0  0  0  0
 11  7  1  0  0  0  0
 11  1  1  0  0  0  0
 12  5  2  0  0  0  0
 13  3  2  0  0  0  0
 14 15  1  0  0  0  0
 15  5  1  0  0  0  0
 16 11  2  0  0  0  0
 17  2  1  0  0  0  0
 18 17  1  0  0  0  0
 18 13  1  0  0  0  0
 20 21  1  0  0  0  0
 20 19  2  0  0  0  0
 21  7  1  0  0  0  0
 22 26  1  0  0  0  0
 24 27  1  0  0  0  0
 25 22  1  0  0  0  0
 26 23  2  0  0  0  0
 27 28  2  0  0  0  0
 28 23  1  0  0  0  0
 28 20  1  0  0  0  0
 29 22  2  0  0  0  0
 29 27  1  0  0  0  0
 30 31  2  0  0  0  0
M  END
>  <MODEL>
9

>  <REMARK>
 VINA RESULT:      -8.7      4.894      7.307
  Name = 
  3 active torsions:
  status: ('A' for Active; 'I' for Inactive)
    1  A    between atoms: N_2  and  C_13
    2  A    between atoms: C_9  and  C_22
    3  A    between atoms: C_15  and  N_23
                            x       y       z     vdW  Elec       q    Type
                         _______ _______ _______ _____ _____    ______ ____

>  <TORSDO>
F 3

$$$$
