=
 OpenBabel10262419443D

 25 27  0  0  1  0  0  0  0  0999 V2000
  187.3660  176.8710  144.5080 C   0  0  2  0  0  3  0  0  0  0  0  0
  188.3690  176.2640  143.5220 C   0  0  0  0  0  2  0  0  0  0  0  0
  189.0480  178.1140  146.0150 C   0  0  0  0  0  2  0  0  0  0  0  0
  186.7120  178.1960  144.0610 C   0  0  2  0  0  3  0  0  0  0  0  0
  184.7300  179.5160  144.6290 C   0  0  0  0  0  2  0  0  0  0  0  0
  190.3070  177.8030  145.2210 C   0  0  0  0  0  2  0  0  0  0  0  0
  185.6570  178.0070  146.3720 C   0  0  0  0  0  2  0  0  0  0  0  0
  186.0100  178.9400  145.2080 C   0  0  1  0  0  3  0  0  0  0  0  0
  190.7720  177.7300  142.7810 C   0  0  0  0  0  2  0  0  0  0  0  0
  191.2310  179.7990  144.0710 C   0  0  0  0  0  1  0  0  0  0  0  0
  188.0740  176.5880  142.1960 O   0  0  0  0  0  0  0  0  0  0  0  0
  184.6980  179.1340  143.1610 C   0  0  0  0  0  2  0  0  0  0  0  0
  187.9870  177.0090  145.9120 C   0  0  1  0  0  3  0  0  0  0  0  0
  186.8940  177.3030  146.9490 C   0  0  0  0  0  2  0  0  0  0  0  0
  188.9280  178.7960  141.0880 O   0  0  0  0  0  0  0  0  0  0  0  0
  185.6400  177.9630  143.0170 C   0  0  0  0  0  2  0  0  0  0  0  0
  189.4110  177.4550  141.5880 P   0  0  1  0  0  0  0  0  0  0  0  0
  190.3080  178.6070  143.9300 C   0  0  2  0  0  3  0  0  0  0  0  0
  190.0950  176.5340  140.1780 C   0  0  0  0  0  2  0  0  0  0  0  0
  189.3930  176.8960  138.9560 N   0  0  0  0  0  2  0  0  0  0  0  0
  190.0680  177.0830  137.7110 C   0  0  0  0  0  0  0  0  0  0  0  0
  191.2990  176.8370  137.6040 O   0  0  0  0  0  0  0  0  0  0  0  0
  189.3160  177.5990  136.5330 C   0  0  0  0  0  2  0  0  0  0  0  0
  188.9550  179.7860  137.4170 O   0  0  0  0  0  1  0  0  0  0  0  0
  188.3020  178.6410  136.9640 C   0  0  0  0  0  2  0  0  0  0  0  0
  1  2  1  6  0  0  0
  1 13  1  0  0  0  0
  4 16  1  6  0  0  0
  4  1  1  0  0  0  0
  4  8  1  0  0  0  0
  6  3  1  0  0  0  0
  7 14  1  0  0  0  0
  8  5  1  6  0  0  0
  8  7  1  0  0  0  0
  9 18  1  0  0  0  0
 11  2  1  0  0  0  0
 12  5  1  0  0  0  0
 13  3  1  6  0  0  0
 13 14  1  0  0  0  0
 16 12  1  0  0  0  0
 17 15  2  6  0  0  0
 17 11  1  0  0  0  0
 17  9  1  0  0  0  0
 18 10  1  1  0  0  0
 18  6  1  0  0  0  0
 19 17  1  0  0  0  0
 20 19  1  0  0  0  0
 21 20  1  0  0  0  0
 22 21  2  0  0  0  0
 23 25  1  0  0  0  0
 23 21  1  0  0  0  0
 25 24  1  0  0  0  0
M  END
>  <MODEL>
1

>  <REMARK>
 VINA RESULT:      -8.3      0.000      0.000
  Name = 
  4 active torsions:
  status: ('A' for Active; 'I' for Inactive)
    1  A    between atoms: C_2  and  C_12
    2  A    between atoms: C_2  and  C_21
    3  A    between atoms: C_6  and  N_15
    4  A    between atoms: C_6  and  P_23
                            x       y       z     vdW  Elec       q    Type
                         _______ _______ _______ _____ _____    ______ ____

>  <TORSDO>
F 4

$$$$
=
 OpenBabel10262419443D

 25 27  0  0  1  0  0  0  0  0999 V2000
  187.7010  176.8070  144.8870 C   0  0  2  0  0  3  0  0  0  0  0  0
  188.4690  176.2870  143.6680 C   0  0  0  0  0  2  0  0  0  0  0  0
  189.6710  177.9480  146.0960 C   0  0  0  0  0  2  0  0  0  0  0  0
  186.9750  178.1550  144.6920 C   0  0  2  0  0  3  0  0  0  0  0  0
  185.1670  179.4070  145.7650 C   0  0  0  0  0  2  0  0  0  0  0  0
  190.7310  177.7110  145.0330 C   0  0  0  0  0  2  0  0  0  0  0  0
  186.4310  177.7790  147.1520 C   0  0  0  0  0  2  0  0  0  0  0  0
  186.5370  178.8020  146.0150 C   0  0  1  0  0  3  0  0  0  0  0  0
  190.6700  177.8300  142.5510 C   0  0  0  0  0  2  0  0  0  0  0  0
  191.4050  179.7980  143.8700 C   0  0  0  0  0  1  0  0  0  0  0  0
  187.9020  176.7080  142.4630 O   0  0  0  0  0  0  0  0  0  0  0  0
  184.8220  179.1390  144.3130 C   0  0  0  0  0  2  0  0  0  0  0  0
  188.6050  176.8420  146.1350 C   0  0  1  0  0  3  0  0  0  0  0  0
  187.7590  177.0460  147.3990 C   0  0  0  0  0  2  0  0  0  0  0  0
  188.5160  179.0030  141.3730 O   0  0  0  0  0  0  0  0  0  0  0  0
  185.7060  177.9920  143.8830 C   0  0  0  0  0  2  0  0  0  0  0  0
  189.0860  177.6330  141.6550 P   0  0  1  0  0  0  0  0  0  0  0  0
  190.4650  178.6110  143.8360 C   0  0  2  0  0  3  0  0  0  0  0  0
  189.4500  176.8290  140.0660 C   0  0  0  0  0  2  0  0  0  0  0  0
  190.7950  177.1710  139.6290 N   0  0  0  0  0  2  0  0  0  0  0  0
  191.5790  176.3040  138.8070 C   0  0  0  0  0  0  0  0  0  0  0  0
  191.0870  175.2410  138.3430 O   0  0  0  0  0  0  0  0  0  0  0  0
  193.0000  176.6440  138.5200 C   0  0  0  0  0  2  0  0  0  0  0  0
  194.3150  176.8140  136.5360 O   0  0  0  0  0  1  0  0  0  0  0  0
  193.4620  175.9680  137.2440 C   0  0  0  0  0  2  0  0  0  0  0  0
  1  2  1  6  0  0  0
  1 13  1  0  0  0  0
  4 16  1  6  0  0  0
  4  1  1  0  0  0  0
  4  8  1  0  0  0  0
  6  3  1  0  0  0  0
  7 14  1  0  0  0  0
  8  5  1  6  0  0  0
  8  7  1  0  0  0  0
  9 18  1  0  0  0  0
 11  2  1  0  0  0  0
 12  5  1  0  0  0  0
 13  3  1  6  0  0  0
 13 14  1  0  0  0  0
 16 12  1  0  0  0  0
 17 15  2  6  0  0  0
 17 11  1  0  0  0  0
 17  9  1  0  0  0  0
 18 10  1  6  0  0  0
 18  6  1  0  0  0  0
 19 17  1  0  0  0  0
 20 19  1  0  0  0  0
 21 20  1  0  0  0  0
 22 21  2  0  0  0  0
 23 21  1  0  0  0  0
 24 25  1  0  0  0  0
 25 23  1  0  0  0  0
M  END
>  <MODEL>
2

>  <REMARK>
 VINA RESULT:      -8.1      1.556      2.100
  Name = 
  4 active torsions:
  status: ('A' for Active; 'I' for Inactive)
    1  A    between atoms: C_2  and  C_12
    2  A    between atoms: C_2  and  C_21
    3  A    between atoms: C_6  and  N_15
    4  A    between atoms: C_6  and  P_23
                            x       y       z     vdW  Elec       q    Type
                         _______ _______ _______ _____ _____    ______ ____

>  <TORSDO>
F 4

$$$$
=
 OpenBabel10262419443D

 25 27  0  0  1  0  0  0  0  0999 V2000
  189.5900  177.3960  137.6460 C   0  0  2  0  0  3  0  0  0  0  0  0
  190.3980  176.8230  136.4770 C   0  0  0  0  0  2  0  0  0  0  0  0
  187.4840  175.9330  137.3790 C   0  0  0  0  0  2  0  0  0  0  0  0
  189.8980  176.7860  139.0300 C   0  0  2  0  0  3  0  0  0  0  0  0
  189.5810  177.3860  141.3810 C   0  0  0  0  0  2  0  0  0  0  0  0
  187.9840  175.0540  136.2440 C   0  0  0  0  0  2  0  0  0  0  0  0
  188.0180  178.3620  139.7150 C   0  0  0  0  0  2  0  0  0  0  0  0
  188.8330  177.1180  140.0870 C   0  0  1  0  0  3  0  0  0  0  0  0
  190.1890  174.0030  135.7880 C   0  0  0  0  0  2  0  0  0  0  0  0
  188.4210  172.7190  136.9620 C   0  0  0  0  0  1  0  0  0  0  0  0
  191.6570  176.3680  136.8730 O   0  0  0  0  0  0  0  0  0  0  0  0
  191.0560  177.1890  141.0900 C   0  0  0  0  0  2  0  0  0  0  0  0
  188.0790  177.3490  137.3470 C   0  0  1  0  0  3  0  0  0  0  0  0
  187.3100  178.2080  138.3600 C   0  0  0  0  0  2  0  0  0  0  0  0
  192.0270  173.9490  137.7930 O   0  0  0  0  0  0  0  0  0  0  0  0
  191.2020  177.3120  139.5920 C   0  0  0  0  0  2  0  0  0  0  0  0
  191.7150  174.7010  136.5200 P   0  0  1  0  0  0  0  0  0  0  0  0
  189.0350  174.0900  136.7700 C   0  0  2  0  0  3  0  0  0  0  0  0
  193.0700  174.4140  135.3420 C   0  0  0  0  0  2  0  0  0  0  0  0
  194.2330  173.8860  136.0380 N   0  0  0  0  0  2  0  0  0  0  0  0
  195.2650  174.7280  136.5570 C   0  0  0  0  0  0  0  0  0  0  0  0
  195.1510  175.9820  136.5180 O   0  0  0  0  0  0  0  0  0  0  0  0
  196.5000  174.1190  137.1230 C   0  0  0  0  0  2  0  0  0  0  0  0
  195.5120  173.0730  139.0260 O   0  0  0  0  0  1  0  0  0  0  0  0
  196.4190  174.0570  138.6360 C   0  0  0  0  0  2  0  0  0  0  0  0
  1  2  1  6  0  0  0
  1  4  1  0  0  0  0
  2 11  1  0  0  0  0
  4 16  1  1  0  0  0
  4  8  1  0  0  0  0
  6 18  1  0  0  0  0
  6  3  1  0  0  0  0
  8  7  1  6  0  0  0
  8  5  1  0  0  0  0
  9 17  1  0  0  0  0
  9 18  1  0  0  0  0
 12  5  1  0  0  0  0
 13  3  1  1  0  0  0
 13  1  1  0  0  0  0
 13 14  1  0  0  0  0
 14  7  1  0  0  0  0
 16 12  1  0  0  0  0
 17 11  1  0  0  0  0
 17 15  2  1  0  0  0
 18 10  1  6  0  0  0
 19 20  1  0  0  0  0
 19 17  1  0  0  0  0
 20 21  1  0  0  0  0
 21 23  1  0  0  0  0
 22 21  2  0  0  0  0
 23 25  1  0  0  0  0
 25 24  1  0  0  0  0
M  END
>  <MODEL>
3

>  <REMARK>
 VINA RESULT:      -5.5      4.423      7.554
  Name = 
  4 active torsions:
  status: ('A' for Active; 'I' for Inactive)
    1  A    between atoms: C_2  and  C_12
    2  A    between atoms: C_2  and  C_21
    3  A    between atoms: C_6  and  N_15
    4  A    between atoms: C_6  and  P_23
                            x       y       z     vdW  Elec       q    Type
                         _______ _______ _______ _____ _____    ______ ____

>  <TORSDO>
F 4

$$$$
=
 OpenBabel10262419443D

 25 27  0  0  1  0  0  0  0  0999 V2000
  196.3860  173.6860  137.3130 C   0  0  2  0  0  3  0  0  0  0  0  0
  194.9140  173.7300  136.8900 C   0  0  0  0  0  2  0  0  0  0  0  0
  197.3790  174.9410  135.2920 C   0  0  0  0  0  2  0  0  0  0  0  0
  196.8330  174.7980  138.2860 C   0  0  2  0  0  3  0  0  0  0  0  0
  198.6690  175.1990  139.8520 C   0  0  0  0  0  2  0  0  0  0  0  0
  196.0710  175.2830  134.5960 C   0  0  0  0  0  2  0  0  0  0  0  0
  199.0830  173.6530  137.9520 C   0  0  0  0  0  2  0  0  0  0  0  0
  198.3600  174.9310  138.3900 C   0  0  1  0  0  3  0  0  0  0  0  0
  193.8650  176.0360  135.4560 C   0  0  0  0  0  2  0  0  0  0  0  0
  195.5370  177.7040  134.6980 C   0  0  0  0  0  1  0  0  0  0  0  0
  194.0950  174.2920  137.8710 O   0  0  0  0  0  0  0  0  0  0  0  0
  197.3420  175.2460  140.5850 C   0  0  0  0  0  2  0  0  0  0  0  0
  197.3110  173.6260  136.0820 C   0  0  1  0  0  3  0  0  0  0  0  0
  198.7390  173.2560  136.5080 C   0  0  0  0  0  2  0  0  0  0  0  0
  193.7100  176.8720  138.0410 O   0  0  0  0  0  0  0  0  0  0  0  0
  196.3540  174.5280  139.6970 C   0  0  0  0  0  2  0  0  0  0  0  0
  193.3730  175.6750  137.1820 P   0  0  1  0  0  0  0  0  0  0  0  0
  195.3450  176.3660  135.3790 C   0  0  2  0  0  3  0  0  0  0  0  0
  191.5700  175.4480  137.2040 C   0  0  0  0  0  2  0  0  0  0  0  0
  190.9140  176.6860  137.5950 N   0  0  0  0  0  2  0  0  0  0  0  0
  190.3600  176.8830  138.8970 C   0  0  0  0  0  0  0  0  0  0  0  0
  190.5120  176.0150  139.7980 O   0  0  0  0  0  0  0  0  0  0  0  0
  189.5720  178.1130  139.1870 C   0  0  0  0  0  2  0  0  0  0  0  0
  188.6810  179.3610  137.3590 O   0  0  0  0  0  1  0  0  0  0  0  0
  188.4410  178.2670  138.1890 C   0  0  0  0  0  2  0  0  0  0  0  0
  1  2  1  6  0  0  0
  1  4  1  0  0  0  0
  2 11  1  0  0  0  0
  4  8  1  0  0  0  0
  4 16  1  1  0  0  0
  5 12  1  0  0  0  0
  6  3  1  0  0  0  0
  6 18  1  0  0  0  0
  8  7  1  1  0  0  0
  8  5  1  0  0  0  0
  9 17  1  0  0  0  0
 13  3  1  1  0  0  0
 13 14  1  0  0  0  0
 13  1  1  0  0  0  0
 14  7  1  0  0  0  0
 16 12  1  0  0  0  0
 17 19  1  0  0  0  0
 17 11  1  0  0  0  0
 17 15  2  1  0  0  0
 18 10  1  6  0  0  0
 18  9  1  0  0  0  0
 19 20  1  0  0  0  0
 20 21  1  0  0  0  0
 21 23  1  0  0  0  0
 21 22  2  0  0  0  0
 24 25  1  0  0  0  0
 25 23  1  0  0  0  0
M  END
>  <MODEL>
4

>  <REMARK>
 VINA RESULT:      -5.4      6.081     10.353
  Name = 
  4 active torsions:
  status: ('A' for Active; 'I' for Inactive)
    1  A    between atoms: C_2  and  C_12
    2  A    between atoms: C_2  and  C_21
    3  A    between atoms: C_6  and  N_15
    4  A    between atoms: C_6  and  P_23
                            x       y       z     vdW  Elec       q    Type
                         _______ _______ _______ _____ _____    ______ ____

>  <TORSDO>
F 4

$$$$
=
 OpenBabel10262419443D

 25 27  0  0  1  0  0  0  0  0999 V2000
  181.7200  176.2090  138.6830 C   0  0  2  0  0  3  0  0  0  0  0  0
  182.6950  176.5530  139.8130 C   0  0  0  0  0  2  0  0  0  0  0  0
  179.5550  177.0440  139.8070 C   0  0  0  0  0  2  0  0  0  0  0  0
  181.6020  177.2630  137.5610 C   0  0  2  0  0  3  0  0  0  0  0  0
  180.8220  177.3590  135.2440 C   0  0  0  0  0  2  0  0  0  0  0  0
  180.1840  177.6180  141.0670 C   0  0  0  0  0  2  0  0  0  0  0  0
  179.8510  175.6150  136.7230 C   0  0  0  0  0  2  0  0  0  0  0  0
  180.3740  177.0540  136.6620 C   0  0  1  0  0  3  0  0  0  0  0  0
  182.2660  178.9170  141.4560 C   0  0  0  0  0  2  0  0  0  0  0  0
  180.1090  180.0970  141.1300 C   0  0  0  0  0  1  0  0  0  0  0  0
  183.7480  177.3610  139.3810 O   0  0  0  0  0  0  0  0  0  0  0  0
  182.2820  177.7620  135.3180 C   0  0  0  0  0  2  0  0  0  0  0  0
  180.3320  175.8440  139.2440 C   0  0  1  0  0  3  0  0  0  0  0  0
  179.4710  175.1940  138.1510 C   0  0  0  0  0  2  0  0  0  0  0  0
  183.5490  179.9660  139.2980 O   0  0  0  0  0  0  0  0  0  0  0  0
  182.7960  177.2210  136.6300 C   0  0  0  0  0  2  0  0  0  0  0  0
  183.6560  178.8130  140.2690 P   0  0  1  0  0  0  0  0  0  0  0  0
  180.9350  178.8950  140.7260 C   0  0  2  0  0  3  0  0  0  0  0  0
  185.1980  179.0040  141.2120 C   0  0  0  0  0  2  0  0  0  0  0  0
  184.9020  179.3900  142.5830 N   0  0  0  0  0  2  0  0  0  0  0  0
  185.3120  178.6080  143.7070 C   0  0  0  0  0  0  0  0  0  0  0  0
  186.0430  177.5930  143.5510 O   0  0  0  0  0  0  0  0  0  0  0  0
  184.8490  178.9770  145.0730 C   0  0  0  0  0  2  0  0  0  0  0  0
  185.6540  179.3810  147.2820 O   0  0  0  0  0  1  0  0  0  0  0  0
  185.9360  178.7070  146.0950 C   0  0  0  0  0  2  0  0  0  0  0  0
  1 13  1  0  0  0  0
  1  2  1  1  0  0  0
  3  6  1  0  0  0  0
  4 16  1  6  0  0  0
  4  1  1  0  0  0  0
  5 12  1  0  0  0  0
  7 14  1  0  0  0  0
  8  5  1  6  0  0  0
  8  7  1  0  0  0  0
  8  4  1  0  0  0  0
 11  2  1  0  0  0  0
 11 17  1  0  0  0  0
 12 16  1  0  0  0  0
 13 14  1  6  0  0  0
 13  3  1  0  0  0  0
 17 15  2  6  0  0  0
 17 19  1  0  0  0  0
 17  9  1  0  0  0  0
 18  6  1  0  0  0  0
 18 10  1  1  0  0  0
 18  9  1  0  0  0  0
 19 20  1  0  0  0  0
 20 21  1  0  0  0  0
 21 23  1  0  0  0  0
 22 21  2  0  0  0  0
 23 25  1  0  0  0  0
 25 24  1  0  0  0  0
M  END
>  <MODEL>
5

>  <REMARK>
 VINA RESULT:      -5.3      5.672      9.013
  Name = 
  4 active torsions:
  status: ('A' for Active; 'I' for Inactive)
    1  A    between atoms: C_2  and  C_12
    2  A    between atoms: C_2  and  C_21
    3  A    between atoms: C_6  and  N_15
    4  A    between atoms: C_6  and  P_23
                            x       y       z     vdW  Elec       q    Type
                         _______ _______ _______ _____ _____    ______ ____

>  <TORSDO>
F 4

$$$$
