=
 OpenBabel10262422033D

 30 32  0  0  1  0  0  0  0  0999 V2000
  186.5010  178.1790  137.5670 C   0  0  0  0  0  0  0  0  0  0  0  0
  188.7680  177.0180  136.4690 S   0  0  0  0  0  0  0  0  0  0  0  0
  186.4320  173.2520  136.8590 N   0  0  0  0  0  0  0  0  0  0  0  0
  184.7800  175.6170  135.1870 C   0  0  0  0  0  1  0  0  0  0  0  0
  185.7530  177.9820  138.7740 N   0  0  0  0  0  2  0  0  0  0  0  0
  182.7490  178.8400  138.7020 C   0  0  2  0  0  3  0  0  0  0  0  0
  183.9950  179.7190  138.7970 C   0  0  0  0  0  2  0  0  0  0  0  0
  184.7740  178.5980  140.9210 C   0  0  0  0  0  1  0  0  0  0  0  0
  182.6770  174.2330  137.2570 C   0  0  1  0  0  3  0  0  0  0  0  0
  185.0050  173.1370  136.9510 C   0  0  0  0  0  0  0  0  0  0  0  0
  185.1750  179.0780  139.5380 C   0  0  1  0  0  3  0  0  0  0  0  0
  182.8930  177.8270  137.5690 C   0  0  0  0  0  2  0  0  0  0  0  0
  189.1930  175.6330  137.5630 C   0  0  0  0  0  2  0  0  0  0  0  0
  182.6880  175.7470  139.7000 O   0  0  0  0  0  1  0  0  0  0  0  0
  181.5550  179.7420  138.4520 C   0  0  0  0  0  1  0  0  0  0  0  0
  186.7590  179.3450  137.1650 O   0  0  0  0  0  0  0  0  0  0  0  0
  187.0560  174.3960  136.9590 C   0  0  0  0  0  0  0  0  0  0  0  0
  188.5160  174.4070  137.0720 C   0  0  0  0  0  0  0  0  0  0  0  0
  181.6740  177.0440  137.4010 N   0  0  0  0  0  2  0  0  0  0  0  0
  186.9490  177.0010  136.7500 C   0  0  1  0  0  3  0  0  0  0  0  0
  184.8370  175.6090  136.7150 C   0  0  1  0  0  3  0  0  0  0  0  0
  184.4520  172.0160  136.7960 O   0  0  0  0  0  0  0  0  0  0  0  0
  184.2050  174.3560  137.3130 C   0  0  1  0  0  3  0  0  0  0  0  0
  180.4480  175.0160  138.5990 O   0  0  0  0  0  0  0  0  0  0  0  0
  189.1950  173.3820  136.7950 O   0  0  0  0  0  0  0  0  0  0  0  0
  186.2860  175.6850  137.2120 C   0  0  1  0  0  3  0  0  0  0  0  0
  181.8320  175.5160  138.2580 P   0  0  1  0  0  0  0  0  0  0  0  0
  181.9830  174.0090  135.5930 S   0  0  1  0  0  0  0  0  0  0  0  0
  181.1260  172.4280  135.6730 C   0  0  0  0  0  1  0  0  0  0  0  0
  180.8520  175.0210  135.4780 O   0  0  0  0  0  0  0  0  0  0  0  0
  1  5  1  0  0  0  0
  2 13  1  0  0  0  0
  3 10  1  0  0  0  0
  3 17  2  0  0  0  0
  5 11  1  0  0  0  0
  6 15  1  6  0  0  0
  6  7  1  0  0  0  0
  7 11  1  0  0  0  0
  9 28  1  6  0  0  0
  9 23  1  0  0  0  0
  9 27  1  0  0  0  0
 11  8  1  1  0  0  0
 12  6  1  0  0  0  0
 16  1  2  0  0  0  0
 17 18  1  0  0  0  0
 18 13  1  0  0  0  0
 19 12  1  0  0  0  0
 19 27  1  0  0  0  0
 20  2  1  1  0  0  0
 20 26  1  0  0  0  0
 20  1  1  0  0  0  0
 21  4  1  6  0  0  0
 21 26  1  0  0  0  0
 21 23  1  0  0  0  0
 22 10  2  0  0  0  0
 23 10  1  6  0  0  0
 25 18  2  0  0  0  0
 26 17  1  6  0  0  0
 27 24  2  1  0  0  0
 27 14  1  0  0  0  0
 28 29  1  1  0  0  0
 30 28  2  0  0  0  0
M  END
>  <MODEL>
1

>  <REMARK>
 VINA RESULT:      -5.2      0.000      0.000
  Name = 
  1 active torsions:
  status: ('A' for Active; 'I' for Inactive)
    1  A    between atoms: S_7  and  C_10
                            x       y       z     vdW  Elec       q    Type
                         _______ _______ _______ _____ _____    ______ ____

>  <TORSDO>
F 1

$$$$
=
 OpenBabel10262422033D

 30 32  0  0  1  0  0  0  0  0999 V2000
  180.0100  175.4680  139.9410 C   0  0  0  0  0  0  0  0  0  0  0  0
  179.4950  173.3810  138.1880 S   0  0  0  0  0  0  0  0  0  0  0  0
  182.0640  175.7280  135.4150 N   0  0  0  0  0  0  0  0  0  0  0  0
  183.5480  175.1340  138.3410 C   0  0  0  0  0  1  0  0  0  0  0  0
  179.8190  176.8890  139.9000 N   0  0  0  0  0  2  0  0  0  0  0  0
  181.6950  178.5960  141.7250 C   0  0  2  0  0  3  0  0  0  0  0  0
  180.4860  177.7480  142.1180 C   0  0  0  0  0  2  0  0  0  0  0  0
  178.9310  179.0450  140.6110 C   0  0  0  0  0  1  0  0  0  0  0  0
  184.1240  178.2470  137.5670 C   0  0  1  0  0  3  0  0  0  0  0  0
  183.0390  176.7150  135.7810 C   0  0  0  0  0  0  0  0  0  0  0  0
  179.3880  177.6660  141.0520 C   0  0  1  0  0  3  0  0  0  0  0  0
  182.6410  177.7970  140.8310 C   0  0  0  0  0  2  0  0  0  0  0  0
  178.9320  174.1580  136.6470 C   0  0  0  0  0  2  0  0  0  0  0  0
  182.0700  179.8670  138.7580 O   0  0  0  0  0  0  0  0  0  0  0  0
  182.4060  179.0200  142.9970 C   0  0  0  0  0  1  0  0  0  0  0  0
  179.7200  174.8210  140.9830 O   0  0  0  0  0  0  0  0  0  0  0  0
  181.2040  175.2360  136.2660 C   0  0  0  0  0  0  0  0  0  0  0  0
  180.1070  174.3990  135.7720 C   0  0  0  0  0  0  0  0  0  0  0  0
  183.8470  178.5580  140.5260 N   0  0  0  0  0  2  0  0  0  0  0  0
  180.5920  174.7450  138.7610 C   0  0  1  0  0  3  0  0  0  0  0  0
  182.5290  176.2620  138.1740 C   0  0  1  0  0  3  0  0  0  0  0  0
  183.8780  177.1170  134.9320 O   0  0  0  0  0  0  0  0  0  0  0  0
  182.9810  177.3080  137.1600 C   0  0  1  0  0  3  0  0  0  0  0  0
  184.5730  180.5530  138.9310 O   0  0  0  0  0  1  0  0  0  0  0  0
  180.1330  173.9180  134.6070 O   0  0  0  0  0  0  0  0  0  0  0  0
  181.1730  175.7160  137.7100 C   0  0  1  0  0  3  0  0  0  0  0  0
  183.6670  179.3450  138.9620 P   0  0  1  0  0  0  0  0  0  0  0  0
  185.7490  177.4520  137.7430 S   0  0  1  0  0  0  0  0  0  0  0  0
  186.6310  177.8960  136.2390 C   0  0  0  0  0  1  0  0  0  0  0  0
  186.4750  178.2370  138.8270 O   0  0  0  0  0  0  0  0  0  0  0  0
  1 16  2  0  0  0  0
  3 10  1  0  0  0  0
  3 17  2  0  0  0  0
  5  1  1  0  0  0  0
  5 11  1  0  0  0  0
  6  7  1  0  0  0  0
  6 15  1  1  0  0  0
  9 28  1  1  0  0  0
  9 27  1  0  0  0  0
 11  8  1  6  0  0  0
 11  7  1  0  0  0  0
 12  6  1  0  0  0  0
 13  2  1  0  0  0  0
 18 17  1  0  0  0  0
 18 13  1  0  0  0  0
 19 12  1  0  0  0  0
 20  2  1  6  0  0  0
 20  1  1  0  0  0  0
 21  4  1  6  0  0  0
 22 10  2  0  0  0  0
 23 10  1  6  0  0  0
 23  9  1  0  0  0  0
 23 21  1  0  0  0  0
 24 27  1  0  0  0  0
 25 18  2  0  0  0  0
 26 17  1  6  0  0  0
 26 21  1  0  0  0  0
 26 20  1  0  0  0  0
 27 14  2  6  0  0  0
 27 19  1  0  0  0  0
 28 29  1  6  0  0  0
 28 30  2  0  0  0  0
M  END
>  <MODEL>
2

>  <REMARK>
 VINA RESULT:      -4.9      3.034      6.246
  Name = 
  1 active torsions:
  status: ('A' for Active; 'I' for Inactive)
    1  A    between atoms: S_7  and  C_10
                            x       y       z     vdW  Elec       q    Type
                         _______ _______ _______ _____ _____    ______ ____

>  <TORSDO>
F 1

$$$$
=
 OpenBabel10262422033D

 30 32  0  0  1  0  0  0  0  0999 V2000
  185.9430  177.9810  137.6180 C   0  0  0  0  0  0  0  0  0  0  0  0
  187.9150  176.5080  136.3400 S   0  0  0  0  0  0  0  0  0  0  0  0
  184.8970  173.2430  136.5090 N   0  0  0  0  0  0  0  0  0  0  0  0
  183.7020  176.0200  135.1040 C   0  0  0  0  0  1  0  0  0  0  0  0
  185.1980  177.8260  138.8330 N   0  0  0  0  0  2  0  0  0  0  0  0
  182.4190  179.2500  138.9510 C   0  0  2  0  0  3  0  0  0  0  0  0
  183.8150  179.8600  139.0680 C   0  0  0  0  0  2  0  0  0  0  0  0
  184.4080  178.4260  141.0600 C   0  0  0  0  0  1  0  0  0  0  0  0
  181.4160  174.8890  137.1340 C   0  0  1  0  0  3  0  0  0  0  0  0
  183.4770  173.3970  136.6470 C   0  0  0  0  0  0  0  0  0  0  0  0
  184.8630  178.9410  139.7070 C   0  0  1  0  0  3  0  0  0  0  0  0
  182.3370  178.3320  137.7330 C   0  0  0  0  0  2  0  0  0  0  0  0
  188.0860  174.9750  137.2980 C   0  0  0  0  0  2  0  0  0  0  0  0
  181.7780  176.1510  139.6910 O   0  0  0  0  0  1  0  0  0  0  0  0
  181.4190  180.3830  138.8230 C   0  0  0  0  0  1  0  0  0  0  0  0
  186.4150  179.1070  137.3040 O   0  0  0  0  0  0  0  0  0  0  0  0
  185.7340  174.2310  136.6790 C   0  0  0  0  0  0  0  0  0  0  0  0
  187.1710  173.9500  136.7340 C   0  0  0  0  0  0  0  0  0  0  0  0
  180.9850  177.8170  137.5490 N   0  0  0  0  0  2  0  0  0  0  0  0
  186.1340  176.8170  136.6900 C   0  0  1  0  0  3  0  0  0  0  0  0
  183.7910  175.8650  136.6230 C   0  0  1  0  0  3  0  0  0  0  0  0
  182.7130  172.4210  136.4220 O   0  0  0  0  0  0  0  0  0  0  0  0
  182.9400  174.7100  137.1400 C   0  0  1  0  0  3  0  0  0  0  0  0
  179.4140  175.9650  138.6230 O   0  0  0  0  0  0  0  0  0  0  0  0
  187.6300  172.8430  136.3480 O   0  0  0  0  0  0  0  0  0  0  0  0
  185.2380  175.6170  137.0670 C   0  0  1  0  0  3  0  0  0  0  0  0
  180.8610  176.2170  138.2700 P   0  0  1  0  0  0  0  0  0  0  0  0
  180.6540  174.9510  135.4860 S   0  0  1  0  0  0  0  0  0  0  0  0
  179.4800  173.5860  135.4830 C   0  0  0  0  0  1  0  0  0  0  0  0
  179.7640  176.1860  135.4900 O   0  0  0  0  0  0  0  0  0  0  0  0
  1  5  1  0  0  0  0
  2 13  1  0  0  0  0
  3 10  1  0  0  0  0
  3 17  2  0  0  0  0
  5 11  1  0  0  0  0
  6 15  1  6  0  0  0
  6  7  1  0  0  0  0
  7 11  1  0  0  0  0
  9 28  1  6  0  0  0
  9 23  1  0  0  0  0
  9 27  1  0  0  0  0
 11  8  1  1  0  0  0
 12  6  1  0  0  0  0
 16  1  2  0  0  0  0
 17 18  1  0  0  0  0
 18 13  1  0  0  0  0
 19 12  1  0  0  0  0
 19 27  1  0  0  0  0
 20  2  1  1  0  0  0
 20 26  1  0  0  0  0
 20  1  1  0  0  0  0
 21  4  1  6  0  0  0
 21 26  1  0  0  0  0
 21 23  1  0  0  0  0
 22 10  2  0  0  0  0
 23 10  1  6  0  0  0
 25 18  2  0  0  0  0
 26 17  1  6  0  0  0
 27 24  2  1  0  0  0
 27 14  1  0  0  0  0
 28 29  1  1  0  0  0
 28 30  2  0  0  0  0
M  END
>  <MODEL>
3

>  <REMARK>
 VINA RESULT:      -4.8      1.119      1.207
  Name = 
  1 active torsions:
  status: ('A' for Active; 'I' for Inactive)
    1  A    between atoms: S_7  and  C_10
                            x       y       z     vdW  Elec       q    Type
                         _______ _______ _______ _____ _____    ______ ____

>  <TORSDO>
F 1

$$$$
=
 OpenBabel10262422033D

 30 32  0  0  1  0  0  0  0  0999 V2000
  185.1310  178.3160  138.5300 C   0  0  0  0  0  0  0  0  0  0  0  0
  182.8920  179.6300  139.5070 S   0  0  0  0  0  0  0  0  0  0  0  0
  180.6950  176.8610  136.8050 N   0  0  0  0  0  0  0  0  0  0  0  0
  182.7430  175.2580  138.8910 C   0  0  0  0  0  1  0  0  0  0  0  0
  185.6760  178.0900  137.2230 N   0  0  0  0  0  2  0  0  0  0  0  0
  187.5180  175.5860  136.9000 C   0  0  2  0  0  3  0  0  0  0  0  0
  187.8320  176.9300  137.5570 C   0  0  0  0  0  2  0  0  0  0  0  0
  187.3370  178.2190  135.4430 C   0  0  0  0  0  1  0  0  0  0  0  0
  183.0920  173.9060  135.9460 C   0  0  1  0  0  3  0  0  0  0  0  0
  181.1670  175.6040  136.3010 C   0  0  0  0  0  0  0  0  0  0  0  0
  187.1030  178.1300  136.9400 C   0  0  1  0  0  3  0  0  0  0  0  0
  186.1930  175.0320  137.4210 C   0  0  0  0  0  2  0  0  0  0  0  0
  181.9380  180.1330  138.0470 C   0  0  0  0  0  2  0  0  0  0  0  0
  185.2530  175.2340  134.5950 O   0  0  0  0  0  0  0  0  0  0  0  0
  188.6500  174.6290  137.2210 C   0  0  0  0  0  1  0  0  0  0  0  0
  185.8870  178.6480  139.4820 O   0  0  0  0  0  0  0  0  0  0  0  0
  181.4720  177.7130  137.4190 C   0  0  0  0  0  0  0  0  0  0  0  0
  180.9700  179.0580  137.7100 C   0  0  0  0  0  0  0  0  0  0  0  0
  185.9250  173.7060  136.8780 N   0  0  0  0  0  2  0  0  0  0  0  0
  183.6650  178.1220  138.7860 C   0  0  1  0  0  3  0  0  0  0  0  0
  183.2590  175.9180  137.6130 C   0  0  1  0  0  3  0  0  0  0  0  0
  180.3630  174.7980  135.7630 O   0  0  0  0  0  0  0  0  0  0  0  0
  182.6410  175.3140  136.3560 C   0  0  1  0  0  3  0  0  0  0  0  0
  185.0810  172.6390  134.5970 O   0  0  0  0  0  1  0  0  0  0  0  0
  179.7400  179.3190  137.6420 O   0  0  0  0  0  0  0  0  0  0  0  0
  182.9550  177.4220  137.6070 C   0  0  1  0  0  3  0  0  0  0  0  0
  184.8640  173.8450  135.4800 P   0  0  1  0  0  0  0  0  0  0  0  0
  182.5690  172.5730  137.0650 S   0  0  1  0  0  0  0  0  0  0  0  0
  181.4290  171.5850  136.0840 C   0  0  0  0  0  1  0  0  0  0  0  0
  183.7820  171.6660  137.2210 O   0  0  0  0  0  0  0  0  0  0  0  0
  1 16  2  0  0  0  0
  3 17  2  0  0  0  0
  5  1  1  0  0  0  0
  6 15  1  1  0  0  0
  6 12  1  0  0  0  0
  6  7  1  0  0  0  0
  9 23  1  0  0  0  0
  9 28  1  1  0  0  0
 10  3  1  0  0  0  0
 11  8  1  6  0  0  0
 11  5  1  0  0  0  0
 11  7  1  0  0  0  0
 13  2  1  0  0  0  0
 17 18  1  0  0  0  0
 18 13  1  0  0  0  0
 19 12  1  0  0  0  0
 20  1  1  6  0  0  0
 20  2  1  0  0  0  0
 21  4  1  1  0  0  0
 22 10  2  0  0  0  0
 23 10  1  1  0  0  0
 23 21  1  0  0  0  0
 24 27  1  0  0  0  0
 25 18  2  0  0  0  0
 26 17  1  1  0  0  0
 26 21  1  0  0  0  0
 26 20  1  0  0  0  0
 27 14  2  6  0  0  0
 27  9  1  0  0  0  0
 27 19  1  0  0  0  0
 28 29  1  6  0  0  0
 28 30  2  0  0  0  0
M  END
>  <MODEL>
4

>  <REMARK>
 VINA RESULT:      -4.4      2.406      5.453
  Name = 
  1 active torsions:
  status: ('A' for Active; 'I' for Inactive)
    1  A    between atoms: S_7  and  C_10
                            x       y       z     vdW  Elec       q    Type
                         _______ _______ _______ _____ _____    ______ ____

>  <TORSDO>
F 1

$$$$
=
 OpenBabel10262422033D

 30 32  0  0  1  0  0  0  0  0999 V2000
  185.1240  178.5830  139.5510 C   0  0  0  0  0  0  0  0  0  0  0  0
  186.4360  179.5180  141.8080 S   0  0  0  0  0  0  0  0  0  0  0  0
  189.6790  176.7900  140.4530 N   0  0  0  0  0  0  0  0  0  0  0  0
  188.7150  178.9150  138.0720 C   0  0  0  0  0  1  0  0  0  0  0  0
  184.7450  177.2860  139.0710 N   0  0  0  0  0  2  0  0  0  0  0  0
  184.3750  177.0010  135.9810 C   0  0  2  0  0  3  0  0  0  0  0  0
  183.4470  177.6590  137.0020 C   0  0  0  0  0  2  0  0  0  0  0  0
  183.2150  175.5330  138.3440 C   0  0  0  0  0  1  0  0  0  0  0  0
  189.0410  175.9810  136.6910 C   0  0  1  0  0  3  0  0  0  0  0  0
  189.8820  176.2980  139.1210 C   0  0  0  0  0  0  0  0  0  0  0  0
  183.4810  177.0260  138.3980 C   0  0  1  0  0  3  0  0  0  0  0  0
  185.8060  177.5020  136.1580 C   0  0  0  0  0  2  0  0  0  0  0  0
  187.0000  178.0410  142.7000 C   0  0  0  0  0  2  0  0  0  0  0  0
  186.4880  174.6610  136.7660 O   0  0  0  0  0  1  0  0  0  0  0  0
  183.8660  177.3440  134.5940 C   0  0  0  0  0  1  0  0  0  0  0  0
  184.3150  179.5460  139.4770 O   0  0  0  0  0  0  0  0  0  0  0  0
  188.5900  177.4140  140.8180 C   0  0  0  0  0  0  0  0  0  0  0  0
  188.3670  177.6930  142.2390 C   0  0  0  0  0  0  0  0  0  0  0  0
  186.6870  176.9590  135.1310 N   0  0  0  0  0  2  0  0  0  0  0  0
  186.4990  178.8150  140.1080 C   0  0  1  0  0  3  0  0  0  0  0  0
  187.9240  177.6430  138.3780 C   0  0  1  0  0  3  0  0  0  0  0  0
  190.9720  175.7500  138.8110 O   0  0  0  0  0  0  0  0  0  0  0  0
  188.7440  176.3790  138.1430 C   0  0  1  0  0  3  0  0  0  0  0  0
  187.9180  174.6680  134.5940 O   0  0  0  0  0  0  0  0  0  0  0  0
  189.3080  177.6030  143.0720 O   0  0  0  0  0  0  0  0  0  0  0  0
  187.4470  177.6270  139.8360 C   0  0  1  0  0  3  0  0  0  0  0  0
  187.5230  175.5440  135.7590 P   0  0  1  0  0  0  0  0  0  0  0  0
  190.1670  177.0950  135.8010 S   0  0  1  0  0  0  0  0  0  0  0  0
  191.4010  176.0020  135.0790 C   0  0  0  0  0  1  0  0  0  0  0  0
  189.3850  177.5960  134.5960 O   0  0  0  0  0  0  0  0  0  0  0  0
  2 13  1  0  0  0  0
  3 17  2  0  0  0  0
  5  1  1  0  0  0  0
  6 15  1  6  0  0  0
  6 12  1  0  0  0  0
  6  7  1  0  0  0  0
  7 11  1  0  0  0  0
  9 28  1  6  0  0  0
  9 23  1  0  0  0  0
 10  3  1  0  0  0  0
 11  8  1  6  0  0  0
 11  5  1  0  0  0  0
 16  1  2  0  0  0  0
 17 18  1  0  0  0  0
 18 13  1  0  0  0  0
 18 25  2  0  0  0  0
 19 27  1  0  0  0  0
 19 12  1  0  0  0  0
 20  1  1  1  0  0  0
 20  2  1  0  0  0  0
 21  4  1  1  0  0  0
 21 26  1  0  0  0  0
 22 10  2  0  0  0  0
 23 21  1  0  0  0  0
 23 10  1  1  0  0  0
 26 20  1  0  0  0  0
 26 17  1  1  0  0  0
 27 24  2  6  0  0  0
 27  9  1  0  0  0  0
 27 14  1  0  0  0  0
 28 29  1  6  0  0  0
 30 28  2  0  0  0  0
M  END
>  <MODEL>
5

>  <REMARK>
 VINA RESULT:      -4.3      3.414      5.844
  Name = 
  1 active torsions:
  status: ('A' for Active; 'I' for Inactive)
    1  A    between atoms: S_7  and  C_10
                            x       y       z     vdW  Elec       q    Type
                         _______ _______ _______ _____ _____    ______ ____

>  <TORSDO>
F 1

$$$$
=
 OpenBabel10262422033D

 30 32  0  0  1  0  0  0  0  0999 V2000
  184.6370  178.7200  138.6530 C   0  0  0  0  0  0  0  0  0  0  0  0
  186.9910  178.1970  137.2840 S   0  0  0  0  0  0  0  0  0  0  0  0
  185.0390  174.2960  136.4070 N   0  0  0  0  0  0  0  0  0  0  0  0
  183.1420  176.9000  135.5480 C   0  0  0  0  0  1  0  0  0  0  0  0
  183.9280  178.0760  139.7200 N   0  0  0  0  0  2  0  0  0  0  0  0
  180.8540  178.6170  139.8710 C   0  0  2  0  0  3  0  0  0  0  0  0
  182.0090  179.5350  140.2640 C   0  0  0  0  0  2  0  0  0  0  0  0
  182.9240  177.8750  141.9330 C   0  0  0  0  0  1  0  0  0  0  0  0
  181.2120  174.7300  137.0290 C   0  0  1  0  0  3  0  0  0  0  0  0
  183.6320  174.0200  136.4310 C   0  0  0  0  0  0  0  0  0  0  0  0
  183.2560  178.8090  140.7830 C   0  0  1  0  0  3  0  0  0  0  0  0
  181.0800  178.0380  138.4760 C   0  0  0  0  0  2  0  0  0  0  0  0
  187.5650  176.5830  137.8850 C   0  0  0  0  0  2  0  0  0  0  0  0
  181.1090  175.3770  139.8270 O   0  0  0  0  0  1  0  0  0  0  0  0
  179.5740  179.4310  139.9000 C   0  0  0  0  0  1  0  0  0  0  0  0
  184.7740  179.9730  138.6500 O   0  0  0  0  0  0  0  0  0  0  0  0
  185.5500  175.4030  136.8790 C   0  0  0  0  0  0  0  0  0  0  0  0
  187.0040  175.5180  137.0160 C   0  0  0  0  0  0  0  0  0  0  0  0
  179.9420  177.2360  138.0450 N   0  0  0  0  0  2  0  0  0  0  0  0
  185.1860  177.9150  137.5110 C   0  0  1  0  0  3  0  0  0  0  0  0
  183.2210  176.4090  136.9940 C   0  0  1  0  0  3  0  0  0  0  0  0
  183.1890  172.9590  135.9160 O   0  0  0  0  0  0  0  0  0  0  0  0
  182.7220  174.9760  137.1490 C   0  0  1  0  0  3  0  0  0  0  0  0
  178.9360  174.8220  138.5090 O   0  0  0  0  0  0  0  0  0  0  0  0
  187.7760  174.7060  136.4390 O   0  0  0  0  0  0  0  0  0  0  0  0
  184.6620  176.4620  137.5160 C   0  0  1  0  0  3  0  0  0  0  0  0
  180.2600  175.5370  138.3710 P   0  0  1  0  0  0  0  0  0  0  0  0
  180.5200  174.9830  135.3670 S   0  0  1  0  0  0  0  0  0  0  0  0
  179.6000  173.4730  135.0300 C   0  0  0  0  0  1  0  0  0  0  0  0
  179.4320  176.0350  135.5310 O   0  0  0  0  0  0  0  0  0  0  0  0
  1  5  1  0  0  0  0
  2 13  1  0  0  0  0
  3 10  1  0  0  0  0
  3 17  2  0  0  0  0
  5 11  1  0  0  0  0
  6 15  1  6  0  0  0
  6  7  1  0  0  0  0
  7 11  1  0  0  0  0
  9 28  1  6  0  0  0
  9 23  1  0  0  0  0
  9 27  1  0  0  0  0
 11  8  1  1  0  0  0
 12  6  1  0  0  0  0
 16  1  2  0  0  0  0
 17 18  1  0  0  0  0
 18 13  1  0  0  0  0
 19 27  1  0  0  0  0
 19 12  1  0  0  0  0
 20  2  1  1  0  0  0
 20 26  1  0  0  0  0
 20  1  1  0  0  0  0
 21  4  1  6  0  0  0
 21 23  1  0  0  0  0
 21 26  1  0  0  0  0
 22 10  2  0  0  0  0
 23 10  1  6  0  0  0
 25 18  2  0  0  0  0
 26 17  1  6  0  0  0
 27 24  2  1  0  0  0
 27 14  1  0  0  0  0
 28 29  1  1  0  0  0
 28 30  2  0  0  0  0
M  END
>  <MODEL>
6

>  <REMARK>
 VINA RESULT:      -4.2      1.723      1.984
  Name = 
  1 active torsions:
  status: ('A' for Active; 'I' for Inactive)
    1  A    between atoms: S_7  and  C_10
                            x       y       z     vdW  Elec       q    Type
                         _______ _______ _______ _____ _____    ______ ____

>  <TORSDO>
F 1

$$$$
=
 OpenBabel10262422033D

 30 32  0  0  1  0  0  0  0  0999 V2000
  185.1890  178.5860  138.9420 C   0  0  0  0  0  0  0  0  0  0  0  0
  182.5810  179.3570  139.4910 S   0  0  0  0  0  0  0  0  0  0  0  0
  181.5870  176.6440  136.1070 N   0  0  0  0  0  0  0  0  0  0  0  0
  183.4230  175.1460  138.4530 C   0  0  0  0  0  1  0  0  0  0  0  0
  186.0300  178.6330  137.7820 N   0  0  0  0  0  2  0  0  0  0  0  0
  188.3510  176.5440  137.6640 C   0  0  2  0  0  3  0  0  0  0  0  0
  188.2510  177.8210  138.4980 C   0  0  0  0  0  2  0  0  0  0  0  0
  187.9710  179.2800  136.4560 C   0  0  0  0  0  1  0  0  0  0  0  0
  184.6420  174.2810  135.5570 C   0  0  1  0  0  3  0  0  0  0  0  0
  182.3920  175.5650  135.6110 C   0  0  0  0  0  0  0  0  0  0  0  0
  187.4490  178.9510  137.8430 C   0  0  1  0  0  3  0  0  0  0  0  0
  187.0810  175.7090  137.8090 C   0  0  0  0  0  2  0  0  0  0  0  0
  181.8770  179.8820  137.9020 C   0  0  0  0  0  2  0  0  0  0  0  0
  186.7370  176.1270  134.8740 O   0  0  0  0  0  1  0  0  0  0  0  0
  189.5550  175.7580  138.1480 C   0  0  0  0  0  1  0  0  0  0  0  0
  185.6470  178.9090  140.0710 O   0  0  0  0  0  0  0  0  0  0  0  0
  182.0360  177.5260  136.9610 C   0  0  0  0  0  0  0  0  0  0  0  0
  181.2310  178.7150  137.2520 C   0  0  0  0  0  0  0  0  0  0  0  0
  187.1980  174.4420  137.0970 N   0  0  0  0  0  2  0  0  0  0  0  0
  183.7680  178.1130  138.8320 C   0  0  1  0  0  3  0  0  0  0  0  0
  184.0570  176.0500  137.3960 C   0  0  1  0  0  3  0  0  0  0  0  0
  181.8920  174.7150  134.8290 O   0  0  0  0  0  0  0  0  0  0  0  0
  183.8480  175.5240  135.9800 C   0  0  1  0  0  3  0  0  0  0  0  0
  187.0790  173.5640  134.5940 O   0  0  0  0  0  0  0  0  0  0  0  0
  180.0160  178.7700  136.9240 O   0  0  0  0  0  0  0  0  0  0  0  0
  183.4730  177.4670  137.4600 C   0  0  1  0  0  3  0  0  0  0  0  0
  186.4500  174.5850  135.5110 P   0  0  1  0  0  0  0  0  0  0  0  0
  184.1660  172.7400  136.3940 S   0  0  1  0  0  0  0  0  0  0  0  0
  184.5440  171.4460  135.2020 C   0  0  0  0  0  1  0  0  0  0  0  0
  185.2020  172.5300  137.4890 O   0  0  0  0  0  0  0  0  0  0  0  0
  1 16  2  0  0  0  0
  3 17  2  0  0  0  0
  5 11  1  0  0  0  0
  5  1  1  0  0  0  0
  6 12  1  0  0  0  0
  6 15  1  1  0  0  0
  6  7  1  0  0  0  0
  9 23  1  0  0  0  0
  9 28  1  1  0  0  0
 10  3  1  0  0  0  0
 11  8  1  6  0  0  0
 11  7  1  0  0  0  0
 13  2  1  0  0  0  0
 14 27  1  0  0  0  0
 17 18  1  0  0  0  0
 18 13  1  0  0  0  0
 19 12  1  0  0  0  0
 20  1  1  6  0  0  0
 20  2  1  0  0  0  0
 21 26  1  0  0  0  0
 21  4  1  1  0  0  0
 22 10  2  0  0  0  0
 23 10  1  1  0  0  0
 23 21  1  0  0  0  0
 25 18  2  0  0  0  0
 26 17  1  1  0  0  0
 26 20  1  0  0  0  0
 27 24  2  6  0  0  0
 27  9  1  0  0  0  0
 27 19  1  0  0  0  0
 28 29  1  6  0  0  0
 28 30  2  0  0  0  0
M  END
>  <MODEL>
7

>  <REMARK>
 VINA RESULT:      -3.7      2.478      5.467
  Name = 
  1 active torsions:
  status: ('A' for Active; 'I' for Inactive)
    1  A    between atoms: S_7  and  C_10
                            x       y       z     vdW  Elec       q    Type
                         _______ _______ _______ _____ _____    ______ ____

>  <TORSDO>
F 1

$$$$
=
 OpenBabel10262422033D

 30 32  0  0  1  0  0  0  0  0999 V2000
  185.3520  178.9880  140.1770 C   0  0  0  0  0  0  0  0  0  0  0  0
  184.9640  179.5480  142.8660 S   0  0  0  0  0  0  0  0  0  0  0  0
  188.4060  176.7850  143.4330 N   0  0  0  0  0  0  0  0  0  0  0  0
  189.0790  179.2470  141.2870 C   0  0  0  0  0  1  0  0  0  0  0  0
  185.3790  177.7890  139.3920 N   0  0  0  0  0  2  0  0  0  0  0  0
  187.0070  177.9100  136.7270 C   0  0  2  0  0  3  0  0  0  0  0  0
  185.6340  178.5020  137.0390 C   0  0  0  0  0  2  0  0  0  0  0  0
  184.6640  176.2490  137.6420 C   0  0  0  0  0  1  0  0  0  0  0  0
  190.2510  176.4870  140.0090 C   0  0  1  0  0  3  0  0  0  0  0  0
  189.4000  176.4460  142.4560 C   0  0  0  0  0  0  0  0  0  0  0  0
  184.8090  177.7030  138.0560 C   0  0  1  0  0  3  0  0  0  0  0  0
  188.0110  178.2840  137.8160 C   0  0  0  0  0  2  0  0  0  0  0  0
  184.8850  177.9370  143.7000 C   0  0  0  0  0  2  0  0  0  0  0  0
  188.2290  175.3500  138.3120 O   0  0  0  0  0  1  0  0  0  0  0  0
  187.4610  178.4540  135.3860 C   0  0  0  0  0  1  0  0  0  0  0  0
  184.7430  180.0080  139.7560 O   0  0  0  0  0  0  0  0  0  0  0  0
  187.3120  177.4340  143.1320 C   0  0  0  0  0  0  0  0  0  0  0  0
  186.2510  177.5530  144.1350 C   0  0  0  0  0  0  0  0  0  0  0  0
  189.3500  177.8110  137.4860 N   0  0  0  0  0  2  0  0  0  0  0  0
  186.0810  179.0550  141.4880 C   0  0  1  0  0  3  0  0  0  0  0  0
  188.2960  178.0050  140.8610 C   0  0  1  0  0  3  0  0  0  0  0  0
  190.4590  175.8650  142.8110 O   0  0  0  0  0  0  0  0  0  0  0  0
  189.1110  176.7250  141.0080 C   0  0  1  0  0  3  0  0  0  0  0  0
  190.6970  175.5220  137.5090 O   0  0  0  0  0  0  0  0  0  0  0  0
  186.4750  177.2970  145.3490 O   0  0  0  0  0  0  0  0  0  0  0  0
  187.0190  177.8450  141.6960 C   0  0  1  0  0  3  0  0  0  0  0  0
  189.6460  176.2740  138.2920 P   0  0  1  0  0  0  0  0  0  0  0  0
  191.6630  177.6200  140.1680 S   0  0  1  0  0  0  0  0  0  0  0  0
  192.2060  177.4240  141.8730 C   0  0  0  0  0  1  0  0  0  0  0  0
  192.7900  176.9900  139.3600 O   0  0  0  0  0  0  0  0  0  0  0  0
  2 13  1  0  0  0  0
  5  1  1  0  0  0  0
  6 15  1  6  0  0  0
  6  7  1  0  0  0  0
  6 12  1  0  0  0  0
  7 11  1  0  0  0  0
  9 28  1  6  0  0  0
  9 23  1  0  0  0  0
 10 22  2  0  0  0  0
 10  3  1  0  0  0  0
 11  8  1  6  0  0  0
 11  5  1  0  0  0  0
 13 18  1  0  0  0  0
 16  1  2  0  0  0  0
 17  3  2  0  0  0  0
 17 18  1  0  0  0  0
 18 25  2  0  0  0  0
 19 12  1  0  0  0  0
 19 27  1  0  0  0  0
 20  1  1  6  0  0  0
 20 26  1  0  0  0  0
 20  2  1  0  0  0  0
 21 23  1  0  0  0  0
 21  4  1  1  0  0  0
 21 26  1  0  0  0  0
 23 10  1  1  0  0  0
 26 17  1  1  0  0  0
 27 24  2  6  0  0  0
 27 14  1  0  0  0  0
 27  9  1  0  0  0  0
 28 29  1  1  0  0  0
 30 28  2  0  0  0  0
M  END
>  <MODEL>
8

>  <REMARK>
 VINA RESULT:      -3.5      4.178      7.501
  Name = 
  1 active torsions:
  status: ('A' for Active; 'I' for Inactive)
    1  A    between atoms: S_7  and  C_10
                            x       y       z     vdW  Elec       q    Type
                         _______ _______ _______ _____ _____    ______ ____

>  <TORSDO>
F 1

$$$$
=
 OpenBabel10262422033D

 30 32  0  0  1  0  0  0  0  0999 V2000
  186.8660  178.0580  136.9640 C   0  0  0  0  0  0  0  0  0  0  0  0
  189.6370  177.9710  136.8680 S   0  0  0  0  0  0  0  0  0  0  0  0
  189.0250  173.5890  137.3440 N   0  0  0  0  0  0  0  0  0  0  0  0
  187.2970  174.8530  134.7890 C   0  0  0  0  0  1  0  0  0  0  0  0
  185.8770  177.6240  137.9060 N   0  0  0  0  0  2  0  0  0  0  0  0
  183.0290  177.0380  136.7590 C   0  0  2  0  0  3  0  0  0  0  0  0
  183.6960  178.3860  137.0300 C   0  0  0  0  0  2  0  0  0  0  0  0
  184.0300  177.8690  139.4780 C   0  0  0  0  0  1  0  0  0  0  0  0
  185.3260  172.8070  136.3850 C   0  0  1  0  0  3  0  0  0  0  0  0
  187.8350  172.8530  137.0290 C   0  0  0  0  0  0  0  0  0  0  0  0
  184.6770  178.3900  138.2080 C   0  0  1  0  0  3  0  0  0  0  0  0
  183.9640  176.1280  135.9660 C   0  0  0  0  0  2  0  0  0  0  0  0
  190.1500  176.9950  138.3090 C   0  0  0  0  0  2  0  0  0  0  0  0
  183.8480  174.3160  138.3340 O   0  0  0  0  0  1  0  0  0  0  0  0
  181.7550  177.2910  135.9770 C   0  0  0  0  0  1  0  0  0  0  0  0
  186.7650  179.1890  136.4160 O   0  0  0  0  0  0  0  0  0  0  0  0
  189.0600  174.8950  137.3770 C   0  0  0  0  0  0  0  0  0  0  0  0
  190.2460  175.5670  137.9150 C   0  0  0  0  0  0  0  0  0  0  0  0
  183.3090  174.8730  135.6150 N   0  0  0  0  0  2  0  0  0  0  0  0
  188.0080  177.1580  136.5910 C   0  0  1  0  0  3  0  0  0  0  0  0
  186.7960  174.9670  136.2280 C   0  0  1  0  0  3  0  0  0  0  0  0
  187.8720  171.5960  136.9620 O   0  0  0  0  0  0  0  0  0  0  0  0
  186.5450  173.6050  136.8660 C   0  0  1  0  0  3  0  0  0  0  0  0
  182.6500  172.5900  136.8010 O   0  0  0  0  0  0  0  0  0  0  0  0
  191.3260  174.9390  138.0810 O   0  0  0  0  0  0  0  0  0  0  0  0
  187.8060  175.7160  137.1060 C   0  0  1  0  0  3  0  0  0  0  0  0
  183.7410  173.6350  136.7890 P   0  0  1  0  0  0  0  0  0  0  0  0
  185.4320  172.1910  134.6790 S   0  0  1  0  0  0  0  0  0  0  0  0
  187.0350  171.3750  134.5950 C   0  0  0  0  0  1  0  0  0  0  0  0
  184.4410  171.0390  134.5940 O   0  0  0  0  0  0  0  0  0  0  0  0
  1  5  1  0  0  0  0
  2 13  1  0  0  0  0
  3 17  2  0  0  0  0
  5 11  1  0  0  0  0
  6 15  1  6  0  0  0
  6  7  1  0  0  0  0
  7 11  1  0  0  0  0
  9 28  1  6  0  0  0
  9 27  1  0  0  0  0
  9 23  1  0  0  0  0
 10  3  1  0  0  0  0
 11  8  1  1  0  0  0
 12  6  1  0  0  0  0
 16  1  2  0  0  0  0
 17 18  1  0  0  0  0
 18 25  2  0  0  0  0
 18 13  1  0  0  0  0
 19 12  1  0  0  0  0
 19 27  1  0  0  0  0
 20  2  1  1  0  0  0
 20  1  1  0  0  0  0
 20 26  1  0  0  0  0
 21  4  1  6  0  0  0
 21 23  1  0  0  0  0
 21 26  1  0  0  0  0
 22 10  2  0  0  0  0
 23 10  1  6  0  0  0
 26 17  1  6  0  0  0
 27 24  2  1  0  0  0
 27 14  1  0  0  0  0
 28 29  1  1  0  0  0
 30 28  2  0  0  0  0
M  END
>  <MODEL>
9

>  <REMARK>
 VINA RESULT:      -2.7      2.185      2.839
  Name = 
  1 active torsions:
  status: ('A' for Active; 'I' for Inactive)
    1  A    between atoms: S_7  and  C_10
                            x       y       z     vdW  Elec       q    Type
                         _______ _______ _______ _____ _____    ______ ____

>  <TORSDO>
F 1

$$$$
