=
 OpenBabel10262423133D

 34 39  0  0  1  0  0  0  0  0999 V2000
  182.5860  177.4460  138.6160 N   0  0  0  0  0  0  0  0  0  0  0  0
  184.8560  176.2200  135.9850 C   0  0  0  0  0  3  0  0  0  0  0  0
  182.5750  176.7410  135.6910 N   0  0  0  0  0  2  0  0  0  0  0  0
  181.9430  178.2240  140.9150 C   0  0  2  0  0  3  0  0  0  0  0  0
  182.6800  176.7110  140.2040 S   0  0  0  0  0  0  0  0  0  0  0  0
  181.6680  179.4630  137.4290 C   0  0  1  0  0  3  0  0  0  0  0  0
  180.4280  179.4950  136.7580 O   0  0  0  0  0  0  0  0  0  0  0  0
  181.6360  179.2000  139.8650 N   0  0  0  0  0  2  0  0  0  0  0  0
  181.3090  177.3850  136.0110 C   0  0  0  0  0  2  0  0  0  0  0  0
  181.5600  178.4790  138.6040 C   0  0  2  0  0  3  0  0  0  0  0  0
  181.4890  178.8990  136.0540 C   0  0  2  0  0  3  0  0  0  0  0  0
  186.1690  176.1680  136.6880 C   0  0  0  0  0  2  0  0  0  0  0  0
  186.7310  177.5460  136.8530 C   0  0  0  0  0  0  0  0  0  0  0  0
  186.1080  178.4510  137.6120 C   0  0  0  0  0  3  0  0  0  0  0  0
  183.7690  176.8160  136.4830 C   0  0  0  0  0  0  0  0  0  0  0  0
  184.7950  178.2570  138.2570 C   0  0  0  0  0  3  0  0  0  0  0  0
  183.7710  177.5080  137.8090 C   0  0  0  0  0  0  0  0  0  0  0  0
  185.2630  179.2580  142.4290 C   0  0  0  0  0  2  0  0  0  0  0  0
  183.0710  179.3240  144.4720 C   0  0  0  0  0  2  0  0  0  0  0  0
  186.8120  177.4630  145.4960 C   0  0  2  0  0  3  0  0  0  0  0  0
  186.7550  178.1130  144.1040 C   0  0  0  0  0  2  0  0  0  0  0  0
  185.5440  179.0370  143.9190 C   0  0  2  0  0  3  0  0  0  0  0  0
  182.8470  178.8240  141.9910 C   0  0  1  0  0  3  0  0  0  0  0  0
  184.6780  178.6120  146.2590 C   0  0  0  0  0  2  0  0  0  0  0  0
  184.3500  178.5560  144.7620 C   0  0  1  0  0  3  0  0  0  0  0  0
  186.1590  178.3440  146.5680 C   0  0  0  0  0  2  0  0  0  0  0  0
  182.2770  178.5980  143.3960 C   0  0  0  0  0  2  0  0  0  0  0  0
  184.2620  178.2700  141.8440 C   0  0  0  0  0  2  0  0  0  0  0  0
  188.2480  177.0920  145.8540 C   0  0  0  0  0  3  0  0  0  0  0  0
  188.4160  177.0980  147.2380 O   0  0  0  0  0  1  0  0  0  0  0  0
  189.1540  177.9780  145.2660 O   0  0  0  0  0  1  0  0  0  0  0  0
  188.0250  177.8800  136.2350 C   0  0  0  0  0  0  0  0  0  0  0  0
  188.3760  177.3290  135.1590 O   0  0  0  0  0  0  0  0  0  0  0  0
  188.8690  178.8120  136.8300 O   0  0  0  0  0  1  0  0  0  0  0  0
  1  5  1  0  0  0  0
  2 15  2  0  0  0  0
  2 12  1  0  0  0  0
  3  9  1  0  0  0  0
  3 15  1  0  0  0  0
  4  8  1  6  0  0  0
  4 23  1  0  0  0  0
  5  4  1  0  0  0  0
  6  7  1  1  0  0  0
  6 10  1  0  0  0  0
 10  1  1  0  0  0  0
 10  8  1  1  0  0  0
 11  9  1  1  0  0  0
 11  7  1  0  0  0  0
 11  6  1  0  0  0  0
 12 13  1  0  0  0  0
 13 14  2  0  0  0  0
 14 16  1  0  0  0  0
 15 17  1  0  0  0  0
 17 16  2  0  0  0  0
 17  1  1  0  0  0  0
 20 29  1  1  0  0  0
 20 26  1  0  0  0  0
 21 20  1  0  0  0  0
 22 18  1  6  0  0  0
 22 21  1  0  0  0  0
 22 25  1  0  0  0  0
 23 28  1  1  0  0  0
 23 27  1  0  0  0  0
 24 26  1  0  0  0  0
 25 19  1  1  0  0  0
 25 24  1  0  0  0  0
 27 19  1  0  0  0  0
 28 18  1  0  0  0  0
 29 30  1  0  0  0  0
 31 29  1  0  0  0  0
 32 34  1  0  0  0  0
 32 13  1  0  0  0  0
 33 32  2  0  0  0  0
M  END
>  <MODEL>
1

>  <REMARK>
 VINA RESULT:      -8.7      0.000      0.000
  Name = 
  3 active torsions:
  status: ('A' for Active; 'I' for Inactive)
    1  A    between atoms: C_3  and  C_25
    2  A    between atoms: C_7  and  C_11
    3  A    between atoms: C_8  and  C_18
                            x       y       z     vdW  Elec       q    Type
                         _______ _______ _______ _____ _____    ______ ____

>  <TORSDO>
F 3

$$$$
=
 OpenBabel10262423133D

 34 39  0  0  1  0  0  0  0  0999 V2000
  182.1700  176.9130  138.0560 N   0  0  0  0  0  0  0  0  0  0  0  0
  184.4080  175.3040  135.6120 C   0  0  0  0  0  3  0  0  0  0  0  0
  182.1540  175.8800  135.2310 N   0  0  0  0  0  2  0  0  0  0  0  0
  181.5410  177.9740  140.2440 C   0  0  2  0  0  3  0  0  0  0  0  0
  182.2200  176.3610  139.7190 S   0  0  0  0  0  0  0  0  0  0  0  0
  181.3470  178.8170  136.6360 C   0  0  1  0  0  3  0  0  0  0  0  0
  180.1150  178.8220  135.9500 O   0  0  0  0  0  0  0  0  0  0  0  0
  181.2830  178.8350  139.0860 N   0  0  0  0  0  2  0  0  0  0  0  0
  180.9130  176.6070  135.4590 C   0  0  0  0  0  2  0  0  0  0  0  0
  181.1880  177.9790  137.9140 C   0  0  2  0  0  3  0  0  0  0  0  0
  181.1560  178.1080  135.3310 C   0  0  2  0  0  3  0  0  0  0  0  0
  185.7130  175.2790  136.3340 C   0  0  0  0  0  2  0  0  0  0  0  0
  186.3300  176.6430  136.3480 C   0  0  0  0  0  0  0  0  0  0  0  0
  185.7390  177.6530  136.9920 C   0  0  0  0  0  3  0  0  0  0  0  0
  183.3430  175.9970  136.0250 C   0  0  0  0  0  0  0  0  0  0  0  0
  184.4130  177.5880  137.6370 C   0  0  0  0  0  3  0  0  0  0  0  0
  183.3630  176.8350  137.2630 C   0  0  0  0  0  0  0  0  0  0  0  0
  184.8870  179.0580  141.6620 C   0  0  0  0  0  2  0  0  0  0  0  0
  182.6920  179.4080  143.6720 C   0  0  0  0  0  2  0  0  0  0  0  0
  186.3690  177.5490  144.9110 C   0  0  2  0  0  3  0  0  0  0  0  0
  186.3360  178.0510  143.4580 C   0  0  0  0  0  2  0  0  0  0  0  0
  185.1560  178.9860  143.1690 C   0  0  2  0  0  3  0  0  0  0  0  0
  182.4600  178.6560  141.2560 C   0  0  1  0  0  3  0  0  0  0  0  0
  184.2690  178.8380  145.5340 C   0  0  0  0  0  2  0  0  0  0  0  0
  183.9440  178.6360  144.0500 C   0  0  1  0  0  3  0  0  0  0  0  0
  185.7400  178.5590  145.8800 C   0  0  0  0  0  2  0  0  0  0  0  0
  181.8790  178.5970  142.6730 C   0  0  0  0  0  2  0  0  0  0  0  0
  183.8570  178.0450  141.1780 C   0  0  0  0  0  2  0  0  0  0  0  0
  187.7900  177.1730  145.3150 C   0  0  0  0  0  3  0  0  0  0  0  0
  187.9410  177.2750  146.6980 O   0  0  0  0  0  1  0  0  0  0  0  0
  188.7240  177.9940  144.6790 O   0  0  0  0  0  1  0  0  0  0  0  0
  187.6420  176.8520  135.7140 C   0  0  0  0  0  0  0  0  0  0  0  0
  188.1990  177.9800  135.7640 O   0  0  0  0  0  1  0  0  0  0  0  0
  188.2820  175.8050  135.0590 O   0  0  0  0  0  0  0  0  0  0  0  0
  1  5  1  0  0  0  0
  2 15  2  0  0  0  0
  2 12  1  0  0  0  0
  3  9  1  0  0  0  0
  3 15  1  0  0  0  0
  4  8  1  6  0  0  0
  4 23  1  0  0  0  0
  5  4  1  0  0  0  0
  6  7  1  1  0  0  0
  6 10  1  0  0  0  0
 10  1  1  0  0  0  0
 10  8  1  1  0  0  0
 11  9  1  1  0  0  0
 11  7  1  0  0  0  0
 11  6  1  0  0  0  0
 12 13  1  0  0  0  0
 13 14  2  0  0  0  0
 14 16  1  0  0  0  0
 15 17  1  0  0  0  0
 17 16  2  0  0  0  0
 17  1  1  0  0  0  0
 20 29  1  1  0  0  0
 20 26  1  0  0  0  0
 21 20  1  0  0  0  0
 22 18  1  6  0  0  0
 22 21  1  0  0  0  0
 22 25  1  0  0  0  0
 23 28  1  1  0  0  0
 23 27  1  0  0  0  0
 24 26  1  0  0  0  0
 25 19  1  6  0  0  0
 25 24  1  0  0  0  0
 27 19  1  0  0  0  0
 28 18  1  0  0  0  0
 29 30  1  0  0  0  0
 31 29  1  0  0  0  0
 32 33  1  0  0  0  0
 32 13  1  0  0  0  0
 34 32  2  0  0  0  0
M  END
>  <MODEL>
2

>  <REMARK>
 VINA RESULT:      -8.3      0.908      1.101
  Name = 
  3 active torsions:
  status: ('A' for Active; 'I' for Inactive)
    1  A    between atoms: C_3  and  C_25
    2  A    between atoms: C_7  and  C_11
    3  A    between atoms: C_8  and  C_18
                            x       y       z     vdW  Elec       q    Type
                         _______ _______ _______ _____ _____    ______ ____

>  <TORSDO>
F 3

$$$$
=
 OpenBabel10262423133D

 34 39  0  0  1  0  0  0  0  0999 V2000
  189.2470  177.6070  137.7820 N   0  0  0  0  0  0  0  0  0  0  0  0
  186.5400  177.3440  135.2960 C   0  0  0  0  0  3  0  0  0  0  0  0
  188.8330  177.5750  134.8020 N   0  0  0  0  0  2  0  0  0  0  0  0
  190.2590  177.6500  140.0790 C   0  0  2  0  0  3  0  0  0  0  0  0
  188.9860  178.6140  139.1930 S   0  0  0  0  0  0  0  0  0  0  0  0
  190.7620  175.8050  136.9000 C   0  0  1  0  0  3  0  0  0  0  0  0
  191.8890  176.0420  136.0860 O   0  0  0  0  0  0  0  0  0  0  0  0
  190.8370  176.6210  139.2090 N   0  0  0  0  0  2  0  0  0  0  0  0
  190.2640  177.4920  135.0660 C   0  0  0  0  0  2  0  0  0  0  0  0
  190.5750  177.0110  137.8330 C   0  0  2  0  0  3  0  0  0  0  0  0
  190.6450  176.0600  135.4290 C   0  0  2  0  0  3  0  0  0  0  0  0
  185.3390  177.1080  136.1480 C   0  0  0  0  0  2  0  0  0  0  0  0
  185.3240  175.7000  136.6550 C   0  0  0  0  0  0  0  0  0  0  0  0
  186.2750  175.2630  137.4850 C   0  0  0  0  0  3  0  0  0  0  0  0
  187.7960  177.2850  135.7490 C   0  0  0  0  0  0  0  0  0  0  0  0
  187.4640  176.0350  137.8940 C   0  0  0  0  0  3  0  0  0  0  0  0
  188.1200  176.9610  137.1720 C   0  0  0  0  0  0  0  0  0  0  0  0
  187.5080  176.6590  142.4940 C   0  0  0  0  0  2  0  0  0  0  0  0
  190.2030  176.4900  143.7920 C   0  0  0  0  0  2  0  0  0  0  0  0
  186.9920  178.4150  145.9110 C   0  0  2  0  0  3  0  0  0  0  0  0
  186.6150  177.7980  144.5550 C   0  0  0  0  0  2  0  0  0  0  0  0
  187.6880  176.8510  144.0040 C   0  0  2  0  0  3  0  0  0  0  0  0
  189.6970  177.0460  141.3650 C   0  0  1  0  0  3  0  0  0  0  0  0
  189.2210  177.1970  145.9870 C   0  0  0  0  0  2  0  0  0  0  0  0
  189.0930  177.2810  144.4610 C   0  0  1  0  0  3  0  0  0  0  0  0
  187.9070  177.4920  146.7270 C   0  0  0  0  0  2  0  0  0  0  0  0
  190.6640  177.2230  142.5410 C   0  0  0  0  0  2  0  0  0  0  0  0
  188.3200  177.6370  141.6540 C   0  0  0  0  0  2  0  0  0  0  0  0
  185.7390  178.8120  146.6850 C   0  0  0  0  0  3  0  0  0  0  0  0
  184.7060  179.1240  145.8020 O   0  0  0  0  0  1  0  0  0  0  0  0
  185.9910  179.9050  147.5180 O   0  0  0  0  0  1  0  0  0  0  0  0
  184.2050  174.8130  136.2980 C   0  0  0  0  0  0  0  0  0  0  0  0
  183.4840  175.0700  135.2980 O   0  0  0  0  0  0  0  0  0  0  0  0
  183.9360  173.6780  137.0560 O   0  0  0  0  0  1  0  0  0  0  0  0
  1 10  1  0  0  0  0
  1  5  1  0  0  0  0
  2 15  2  0  0  0  0
  2 12  1  0  0  0  0
  3  9  1  0  0  0  0
  3 15  1  0  0  0  0
  4  5  1  6  0  0  0
  4 23  1  0  0  0  0
  6  7  1  6  0  0  0
  6 10  1  0  0  0  0
  8  4  1  0  0  0  0
 10  8  1  1  0  0  0
 11  9  1  1  0  0  0
 11  7  1  0  0  0  0
 11  6  1  0  0  0  0
 12 13  1  0  0  0  0
 13 14  2  0  0  0  0
 14 16  1  0  0  0  0
 15 17  1  0  0  0  0
 17  1  1  0  0  0  0
 17 16  2  0  0  0  0
 20 29  1  1  0  0  0
 20 26  1  0  0  0  0
 21 20  1  0  0  0  0
 22 18  1  6  0  0  0
 22 25  1  0  0  0  0
 22 21  1  0  0  0  0
 23 28  1  1  0  0  0
 23 27  1  0  0  0  0
 24 26  1  0  0  0  0
 25 19  1  6  0  0  0
 25 24  1  0  0  0  0
 27 19  1  0  0  0  0
 28 18  1  0  0  0  0
 29 31  1  0  0  0  0
 30 29  1  0  0  0  0
 32 13  1  0  0  0  0
 32 34  1  0  0  0  0
 33 32  2  0  0  0  0
M  END
>  <MODEL>
3

>  <REMARK>
 VINA RESULT:      -8.1      3.892      6.150
  Name = 
  3 active torsions:
  status: ('A' for Active; 'I' for Inactive)
    1  A    between atoms: C_3  and  C_25
    2  A    between atoms: C_7  and  C_11
    3  A    between atoms: C_8  and  C_18
                            x       y       z     vdW  Elec       q    Type
                         _______ _______ _______ _____ _____    ______ ____

>  <TORSDO>
F 3

$$$$
=
 OpenBabel10262423133D

 34 39  0  0  1  0  0  0  0  0999 V2000
  182.5340  178.8300  140.8880 N   0  0  0  0  0  0  0  0  0  0  0  0
  179.6440  176.8360  139.7730 C   0  0  0  0  0  3  0  0  0  0  0  0
  179.9080  179.1580  139.4580 N   0  0  0  0  0  2  0  0  0  0  0  0
  184.7870  179.2300  141.9240 C   0  0  2  0  0  3  0  0  0  0  0  0
  183.2010  178.5120  142.4780 S   0  0  0  0  0  0  0  0  0  0  0  0
  183.0750  179.9800  138.7190 C   0  0  1  0  0  3  0  0  0  0  0  0
  182.6730  181.2910  138.3920 O   0  0  0  0  0  0  0  0  0  0  0  0
  184.6910  179.7070  140.5410 N   0  0  0  0  0  2  0  0  0  0  0  0
  180.6500  180.4060  139.3440 C   0  0  0  0  0  2  0  0  0  0  0  0
  183.2810  179.8990  140.2390 C   0  0  2  0  0  3  0  0  0  0  0  0
  181.6940  180.2950  138.2370 C   0  0  2  0  0  3  0  0  0  0  0  0
  180.0530  175.4470  140.1270 C   0  0  0  0  0  2  0  0  0  0  0  0
  181.0720  174.9360  139.1580 C   0  0  0  0  0  0  0  0  0  0  0  0
  182.2770  175.5060  139.0710 C   0  0  0  0  0  3  0  0  0  0  0  0
  180.4740  177.8830  139.7920 C   0  0  0  0  0  0  0  0  0  0  0  0
  182.6940  176.7220  139.7960 C   0  0  0  0  0  3  0  0  0  0  0  0
  181.9160  177.7550  140.1670 C   0  0  0  0  0  0  0  0  0  0  0  0
  186.9090  176.7260  143.8240 C   0  0  0  0  0  2  0  0  0  0  0  0
  188.2450  177.5690  141.2780 C   0  0  0  0  0  2  0  0  0  0  0  0
  190.5560  177.4690  144.9060 C   0  0  2  0  0  3  0  0  0  0  0  0
  189.1030  176.9830  145.0320 C   0  0  0  0  0  2  0  0  0  0  0  0
  188.4340  176.7240  143.6760 C   0  0  2  0  0  3  0  0  0  0  0  0
  185.9320  178.2330  142.0950 C   0  0  1  0  0  3  0  0  0  0  0  0
  190.4950  177.3860  142.3660 C   0  0  0  0  0  2  0  0  0  0  0  0
  189.0020  177.6550  142.5920 C   0  0  1  0  0  3  0  0  0  0  0  0
  191.2320  176.9330  143.6370 C   0  0  0  0  0  2  0  0  0  0  0  0
  187.1510  178.6280  141.2540 C   0  0  0  0  0  2  0  0  0  0  0  0
  186.2730  178.0880  143.5760 C   0  0  0  0  0  2  0  0  0  0  0  0
  191.3450  177.1280  146.1650 C   0  0  0  0  0  3  0  0  0  0  0  0
  192.0560  175.9420  145.9820 O   0  0  0  0  0  1  0  0  0  0  0  0
  190.4970  177.0020  147.2680 O   0  0  0  0  0  1  0  0  0  0  0  0
  180.7710  173.7430  138.3500 C   0  0  0  0  0  0  0  0  0  0  0  0
  179.6840  173.1280  138.5060 O   0  0  0  0  0  1  0  0  0  0  0  0
  181.6810  173.2870  137.4020 O   0  0  0  0  0  0  0  0  0  0  0  0
  1  5  1  0  0  0  0
  2 15  2  0  0  0  0
  2 12  1  0  0  0  0
  3 15  1  0  0  0  0
  4  8  1  6  0  0  0
  4 23  1  0  0  0  0
  4  5  1  0  0  0  0
  6  7  1  1  0  0  0
  6 10  1  0  0  0  0
  9  3  1  0  0  0  0
 10  8  1  6  0  0  0
 10  1  1  0  0  0  0
 11  7  1  0  0  0  0
 11  6  1  0  0  0  0
 11  9  1  1  0  0  0
 13 12  1  0  0  0  0
 14 13  2  0  0  0  0
 14 16  1  0  0  0  0
 15 17  1  0  0  0  0
 16 17  2  0  0  0  0
 17  1  1  0  0  0  0
 20 21  1  0  0  0  0
 20 29  1  1  0  0  0
 22 18  1  1  0  0  0
 22 21  1  0  0  0  0
 23 27  1  6  0  0  0
 23 28  1  0  0  0  0
 24 25  1  0  0  0  0
 24 26  1  0  0  0  0
 25 19  1  6  0  0  0
 25 22  1  0  0  0  0
 26 20  1  0  0  0  0
 27 19  1  0  0  0  0
 28 18  1  0  0  0  0
 29 31  1  0  0  0  0
 30 29  1  0  0  0  0
 32 33  1  0  0  0  0
 32 13  1  0  0  0  0
 34 32  2  0  0  0  0
M  END
>  <MODEL>
4

>  <REMARK>
 VINA RESULT:      -7.9      3.310      5.016
  Name = 
  3 active torsions:
  status: ('A' for Active; 'I' for Inactive)
    1  A    between atoms: C_3  and  C_25
    2  A    between atoms: C_7  and  C_11
    3  A    between atoms: C_8  and  C_18
                            x       y       z     vdW  Elec       q    Type
                         _______ _______ _______ _____ _____    ______ ____

>  <TORSDO>
F 3

$$$$
=
 OpenBabel10262423133D

 34 39  0  0  1  0  0  0  0  0999 V2000
  187.1800  177.6560  137.5260 N   0  0  0  0  0  0  0  0  0  0  0  0
  184.8260  175.6620  135.5120 C   0  0  0  0  0  3  0  0  0  0  0  0
  186.2190  177.3760  134.6880 N   0  0  0  0  0  2  0  0  0  0  0  0
  188.4100  178.3520  139.6020 C   0  0  2  0  0  3  0  0  0  0  0  0
  186.6580  178.2180  139.1020 S   0  0  0  0  0  0  0  0  0  0  0  0
  189.2470  177.3430  136.1310 C   0  0  1  0  0  3  0  0  0  0  0  0
  189.7210  178.2800  135.1900 O   0  0  0  0  0  0  0  0  0  0  0  0
  189.2990  177.9830  138.4960 N   0  0  0  0  0  2  0  0  0  0  0  0
  187.3680  178.2720  134.6960 C   0  0  0  0  0  2  0  0  0  0  0  0
  188.5400  178.1050  137.2620 C   0  0  2  0  0  3  0  0  0  0  0  0
  188.6600  177.4640  134.7600 C   0  0  2  0  0  3  0  0  0  0  0  0
  184.3070  174.6760  136.5030 C   0  0  0  0  0  2  0  0  0  0  0  0
  185.3300  173.6180  136.7750 C   0  0  0  0  0  0  0  0  0  0  0  0
  186.4920  173.9260  137.3570 C   0  0  0  0  0  3  0  0  0  0  0  0
  185.8750  176.4580  135.7360 C   0  0  0  0  0  0  0  0  0  0  0  0
  186.9420  175.2940  137.6810 C   0  0  0  0  0  3  0  0  0  0  0  0
  186.6470  176.4260  137.0160 C   0  0  0  0  0  0  0  0  0  0  0  0
  187.5500  176.7440  142.9280 C   0  0  0  0  0  2  0  0  0  0  0  0
  190.5040  176.6880  142.4270 C   0  0  0  0  0  2  0  0  0  0  0  0
  189.0730  177.9420  146.2850 C   0  0  2  0  0  3  0  0  0  0  0  0
  187.9910  177.4820  145.2940 C   0  0  0  0  0  2  0  0  0  0  0  0
  188.5620  176.7420  144.0780 C   0  0  2  0  0  3  0  0  0  0  0  0
  188.6920  177.5170  140.8500 C   0  0  1  0  0  3  0  0  0  0  0  0
  190.9530  176.9730  144.8750 C   0  0  0  0  0  2  0  0  0  0  0  0
  189.9710  177.2540  143.7320 C   0  0  1  0  0  3  0  0  0  0  0  0
  190.2980  177.0190  146.2660 C   0  0  0  0  0  2  0  0  0  0  0  0
  190.1570  177.6330  141.2850 C   0  0  0  0  0  2  0  0  0  0  0  0
  187.7250  177.9110  141.9640 C   0  0  0  0  0  2  0  0  0  0  0  0
  188.4880  178.0900  147.6850 C   0  0  0  0  0  3  0  0  0  0  0  0
  188.3080  176.8350  148.2680 O   0  0  0  0  0  1  0  0  0  0  0  0
  187.2680  178.7700  147.6470 O   0  0  0  0  0  1  0  0  0  0  0  0
  185.0180  172.2120  136.4720 C   0  0  0  0  0  0  0  0  0  0  0  0
  185.7220  171.5680  135.6500 O   0  0  0  0  0  0  0  0  0  0  0  0
  183.9480  171.5770  137.0940 O   0  0  0  0  0  1  0  0  0  0  0  0
  1  5  1  0  0  0  0
  2 15  2  0  0  0  0
  2 12  1  0  0  0  0
  3  9  1  0  0  0  0
  3 15  1  0  0  0  0
  4  8  1  6  0  0  0
  4 23  1  0  0  0  0
  5  4  1  0  0  0  0
  6  7  1  6  0  0  0
  6 10  1  0  0  0  0
 10  1  1  0  0  0  0
 10  8  1  1  0  0  0
 11  9  1  1  0  0  0
 11  7  1  0  0  0  0
 11  6  1  0  0  0  0
 12 13  1  0  0  0  0
 13 14  2  0  0  0  0
 14 16  1  0  0  0  0
 15 17  1  0  0  0  0
 17  1  1  0  0  0  0
 17 16  2  0  0  0  0
 20 29  1  1  0  0  0
 21 20  1  0  0  0  0
 22 18  1  6  0  0  0
 22 21  1  0  0  0  0
 23 27  1  1  0  0  0
 23 28  1  0  0  0  0
 24 26  1  0  0  0  0
 25 19  1  6  0  0  0
 25 22  1  0  0  0  0
 25 24  1  0  0  0  0
 26 20  1  0  0  0  0
 27 19  1  0  0  0  0
 28 18  1  0  0  0  0
 29 30  1  0  0  0  0
 31 29  1  0  0  0  0
 32 13  1  0  0  0  0
 32 34  1  0  0  0  0
 33 32  2  0  0  0  0
M  END
>  <MODEL>
5

>  <REMARK>
 VINA RESULT:      -7.5      3.825      5.488
  Name = 
  3 active torsions:
  status: ('A' for Active; 'I' for Inactive)
    1  A    between atoms: C_3  and  C_25
    2  A    between atoms: C_7  and  C_11
    3  A    between atoms: C_8  and  C_18
                            x       y       z     vdW  Elec       q    Type
                         _______ _______ _______ _____ _____    ______ ____

>  <TORSDO>
F 3

$$$$
=
 OpenBabel10262423133D

 34 39  0  0  1  0  0  0  0  0999 V2000
  183.2720  178.6000  139.9030 N   0  0  0  0  0  0  0  0  0  0  0  0
  182.2390  179.1910  143.3900 C   0  0  0  0  0  3  0  0  0  0  0  0
  180.9060  178.1980  141.7180 N   0  0  0  0  0  2  0  0  0  0  0  0
  184.8400  178.5950  137.9420 C   0  0  2  0  0  3  0  0  0  0  0  0
  184.1690  179.8590  139.0770 S   0  0  0  0  0  0  0  0  0  0  0  0
  182.6840  176.1620  139.7310 C   0  0  1  0  0  3  0  0  0  0  0  0
  181.4970  175.6700  139.1500 O   0  0  0  0  0  0  0  0  0  0  0  0
  184.2970  177.2690  138.2540 N   0  0  0  0  0  2  0  0  0  0  0  0
  180.6490  177.4940  140.4690 C   0  0  0  0  0  2  0  0  0  0  0  0
  183.0720  177.4640  139.0140 C   0  0  2  0  0  3  0  0  0  0  0  0
  181.3790  176.1540  140.4650 C   0  0  2  0  0  3  0  0  0  0  0  0
  183.4840  179.7270  144.0110 C   0  0  0  0  0  2  0  0  0  0  0  0
  184.4690  178.6250  144.2460 C   0  0  0  0  0  0  0  0  0  0  0  0
  185.0020  177.9550  143.2210 C   0  0  0  0  0  3  0  0  0  0  0  0
  182.1950  178.6270  142.1800 C   0  0  0  0  0  0  0  0  0  0  0  0
  184.6210  178.1270  141.8050 C   0  0  0  0  0  3  0  0  0  0  0  0
  183.4110  178.4680  141.3250 C   0  0  0  0  0  0  0  0  0  0  0  0
  188.2940  178.0800  136.4630 C   0  0  0  0  0  2  0  0  0  0  0  0
  188.4250  178.4010  139.4390 C   0  0  0  0  0  2  0  0  0  0  0  0
  190.6470  175.2140  137.5920 C   0  0  2  0  0  3  0  0  0  0  0  0
  189.9020  176.1490  136.6250 C   0  0  0  0  0  2  0  0  0  0  0  0
  189.4110  177.4400  137.2930 C   0  0  2  0  0  3  0  0  0  0  0  0
  186.3680  178.5930  137.9600 C   0  0  1  0  0  3  0  0  0  0  0  0
  190.3490  176.8000  139.5550 C   0  0  0  0  0  2  0  0  0  0  0  0
  189.0900  177.2050  138.7800 C   0  0  1  0  0  3  0  0  0  0  0  0
  191.3480  175.9890  138.7140 C   0  0  0  0  0  2  0  0  0  0  0  0
  186.9130  178.2520  139.3520 C   0  0  0  0  0  2  0  0  0  0  0  0
  186.8960  177.6470  136.8850 C   0  0  0  0  0  2  0  0  0  0  0  0
  191.6100  174.3120  136.8270 C   0  0  0  0  0  3  0  0  0  0  0  0
  192.7850  174.1330  137.5570 O   0  0  0  0  0  1  0  0  0  0  0  0
  191.9120  174.8530  135.5750 O   0  0  0  0  0  1  0  0  0  0  0  0
  184.9140  178.3310  145.6180 C   0  0  0  0  0  0  0  0  0  0  0  0
  184.1830  178.6260  146.6000 O   0  0  0  0  0  1  0  0  0  0  0  0
  186.1420  177.7170  145.8440 O   0  0  0  0  0  0  0  0  0  0  0  0
  1 17  1  0  0  0  0
  2 12  1  0  0  0  0
  3 15  1  0  0  0  0
  4 23  1  0  0  0  0
  4  8  1  1  0  0  0
  4  5  1  0  0  0  0
  5  1  1  0  0  0  0
  6  7  1  6  0  0  0
  6 11  1  0  0  0  0
  7 11  1  0  0  0  0
  9  3  1  0  0  0  0
 10  8  1  1  0  0  0
 10  6  1  0  0  0  0
 10  1  1  0  0  0  0
 11  9  1  6  0  0  0
 12 13  1  0  0  0  0
 13 32  1  0  0  0  0
 14 13  2  0  0  0  0
 15  2  2  0  0  0  0
 16 14  1  0  0  0  0
 17 16  2  0  0  0  0
 17 15  1  0  0  0  0
 18 28  1  0  0  0  0
 20 29  1  6  0  0  0
 20 26  1  0  0  0  0
 21 22  1  0  0  0  0
 21 20  1  0  0  0  0
 22 18  1  6  0  0  0
 22 25  1  0  0  0  0
 23 28  1  6  0  0  0
 23 27  1  0  0  0  0
 25 19  1  1  0  0  0
 25 24  1  0  0  0  0
 26 24  1  0  0  0  0
 27 19  1  0  0  0  0
 29 30  1  0  0  0  0
 31 29  1  0  0  0  0
 32 34  2  0  0  0  0
 32 33  1  0  0  0  0
M  END
>  <MODEL>
6

>  <REMARK>
 VINA RESULT:      -7.4      2.766      7.275
  Name = 
  3 active torsions:
  status: ('A' for Active; 'I' for Inactive)
    1  A    between atoms: C_3  and  C_25
    2  A    between atoms: C_7  and  C_11
    3  A    between atoms: C_8  and  C_18
                            x       y       z     vdW  Elec       q    Type
                         _______ _______ _______ _____ _____    ______ ____

>  <TORSDO>
F 3

$$$$
=
 OpenBabel10262423133D

 34 39  0  0  1  0  0  0  0  0999 V2000
  180.9880  177.6130  139.4650 N   0  0  0  0  0  0  0  0  0  0  0  0
  182.0320  175.5330  136.6090 C   0  0  0  0  0  3  0  0  0  0  0  0
  180.0100  176.7350  136.7580 N   0  0  0  0  0  2  0  0  0  0  0  0
  181.2210  178.7220  141.7050 C   0  0  2  0  0  3  0  0  0  0  0  0
  181.2720  177.0050  141.0840 S   0  0  0  0  0  0  0  0  0  0  0  0
  180.4240  179.7240  138.2230 C   0  0  1  0  0  3  0  0  0  0  0  0
  179.1170  180.1030  137.8510 O   0  0  0  0  0  0  0  0  0  0  0  0
  180.9510  179.6660  140.6150 N   0  0  0  0  0  2  0  0  0  0  0  0
  179.1160  177.7740  137.2530 C   0  0  0  0  0  2  0  0  0  0  0  0
  180.3430  178.9170  139.5270 C   0  0  2  0  0  3  0  0  0  0  0  0
  179.7360  179.1490  137.0240 C   0  0  2  0  0  3  0  0  0  0  0  0
  183.4090  175.1140  136.9990 C   0  0  0  0  0  2  0  0  0  0  0  0
  184.3720  176.2470  136.8230 C   0  0  0  0  0  0  0  0  0  0  0  0
  184.2610  177.3570  137.5580 C   0  0  0  0  0  3  0  0  0  0  0  0
  181.3360  176.4820  137.2410 C   0  0  0  0  0  0  0  0  0  0  0  0
  183.1630  177.6430  138.5020 C   0  0  0  0  0  3  0  0  0  0  0  0
  181.8850  177.2320  138.4130 C   0  0  0  0  0  0  0  0  0  0  0  0
  184.9560  179.3010  142.0250 C   0  0  0  0  0  2  0  0  0  0  0  0
  183.6510  179.1270  144.7170 C   0  0  0  0  0  2  0  0  0  0  0  0
  187.2780  176.9220  144.0180 C   0  0  2  0  0  3  0  0  0  0  0  0
  186.8050  177.8060  142.8530 C   0  0  0  0  0  2  0  0  0  0  0  0
  185.7190  178.8100  143.2600 C   0  0  2  0  0  3  0  0  0  0  0  0
  182.5090  179.0780  142.4470 C   0  0  1  0  0  3  0  0  0  0  0  0
  185.6940  178.0310  145.6670 C   0  0  0  0  0  2  0  0  0  0  0  0
  184.8540  178.2540  144.4040 C   0  0  1  0  0  3  0  0  0  0  0  0
  187.1500  177.6360  145.3690 C   0  0  0  0  0  2  0  0  0  0  0  0
  182.4510  178.6420  143.9160 C   0  0  0  0  0  2  0  0  0  0  0  0
  183.7080  178.4840  141.7140 C   0  0  0  0  0  2  0  0  0  0  0  0
  188.6960  176.4190  143.7660 C   0  0  0  0  0  3  0  0  0  0  0  0
  189.5670  176.9330  144.7270 O   0  0  0  0  0  1  0  0  0  0  0  0
  189.1350  176.7810  142.4910 O   0  0  0  0  0  1  0  0  0  0  0  0
  185.4990  176.1020  135.8890 C   0  0  0  0  0  0  0  0  0  0  0  0
  186.6700  176.3890  136.2550 O   0  0  0  0  0  1  0  0  0  0  0  0
  185.2860  175.6410  134.5940 O   0  0  0  0  0  0  0  0  0  0  0  0
  1 10  1  0  0  0  0
  1  5  1  0  0  0  0
  2 12  1  0  0  0  0
  2 15  2  0  0  0  0
  3 15  1  0  0  0  0
  3  9  1  0  0  0  0
  4  8  1  6  0  0  0
  4 23  1  0  0  0  0
  5  4  1  0  0  0  0
  6  7  1  1  0  0  0
  6 10  1  0  0  0  0
 10  8  1  1  0  0  0
 11  9  1  1  0  0  0
 11  7  1  0  0  0  0
 11  6  1  0  0  0  0
 13 12  1  0  0  0  0
 13 14  2  0  0  0  0
 14 16  1  0  0  0  0
 15 17  1  0  0  0  0
 17 16  2  0  0  0  0
 17  1  1  0  0  0  0
 20 29  1  6  0  0  0
 20 26  1  0  0  0  0
 21 22  1  0  0  0  0
 21 20  1  0  0  0  0
 22 18  1  6  0  0  0
 22 25  1  0  0  0  0
 23 28  1  6  0  0  0
 23 27  1  0  0  0  0
 25 19  1  1  0  0  0
 25 24  1  0  0  0  0
 26 24  1  0  0  0  0
 27 19  1  0  0  0  0
 28 18  1  0  0  0  0
 29 30  1  0  0  0  0
 31 29  1  0  0  0  0
 32 33  1  0  0  0  0
 32 13  1  0  0  0  0
 34 32  2  0  0  0  0
M  END
>  <MODEL>
7

>  <REMARK>
 VINA RESULT:      -7.3      1.625      2.131
  Name = 
  3 active torsions:
  status: ('A' for Active; 'I' for Inactive)
    1  A    between atoms: C_3  and  C_25
    2  A    between atoms: C_7  and  C_11
    3  A    between atoms: C_8  and  C_18
                            x       y       z     vdW  Elec       q    Type
                         _______ _______ _______ _____ _____    ______ ____

>  <TORSDO>
F 3

$$$$
=
 OpenBabel10262423133D

 34 39  0  0  1  0  0  0  0  0999 V2000
  190.8770  176.7790  137.5440 N   0  0  0  0  0  0  0  0  0  0  0  0
  189.1400  175.1660  134.7230 C   0  0  0  0  0  3  0  0  0  0  0  0
  191.2670  176.1780  134.6220 N   0  0  0  0  0  2  0  0  0  0  0  0
  191.1980  177.5230  139.9210 C   0  0  2  0  0  3  0  0  0  0  0  0
  189.9430  177.7980  138.6220 S   0  0  0  0  0  0  0  0  0  0  0  0
  193.0810  175.5830  137.3800 C   0  0  1  0  0  3  0  0  0  0  0  0
  194.2290  176.1120  136.7560 O   0  0  0  0  0  0  0  0  0  0  0  0
  192.2900  176.6790  139.4230 N   0  0  0  0  0  2  0  0  0  0  0  0
  192.5250  176.6810  135.1570 C   0  0  0  0  0  2  0  0  0  0  0  0
  192.2690  176.7440  137.9710 C   0  0  2  0  0  3  0  0  0  0  0  0
  193.2620  175.5670  135.8940 C   0  0  2  0  0  3  0  0  0  0  0  0
  187.9160  174.6130  135.3700 C   0  0  0  0  0  2  0  0  0  0  0  0
  188.2480  173.3900  136.1660 C   0  0  0  0  0  0  0  0  0  0  0  0
  189.0470  173.4670  137.2330 C   0  0  0  0  0  3  0  0  0  0  0  0
  190.1840  175.6510  135.4010 C   0  0  0  0  0  0  0  0  0  0  0  0
  189.7620  174.6810  137.6720 C   0  0  0  0  0  3  0  0  0  0  0  0
  190.2280  175.6760  136.8960 C   0  0  0  0  0  0  0  0  0  0  0  0
  188.3220  176.3640  142.1040 C   0  0  0  0  0  2  0  0  0  0  0  0
  190.8580  176.5940  143.6830 C   0  0  0  0  0  2  0  0  0  0  0  0
  187.2380  178.2530  145.3110 C   0  0  2  0  0  3  0  0  0  0  0  0
  187.0840  177.5130  143.9720 C   0  0  0  0  0  2  0  0  0  0  0  0
  188.3110  176.6670  143.6060 C   0  0  2  0  0  3  0  0  0  0  0  0
  190.5670  176.9360  141.1820 C   0  0  1  0  0  3  0  0  0  0  0  0
  189.5660  177.3130  145.7060 C   0  0  0  0  0  2  0  0  0  0  0  0
  189.5990  177.2880  144.1730 C   0  0  1  0  0  3  0  0  0  0  0  0
  188.1530  177.4960  146.2820 C   0  0  0  0  0  2  0  0  0  0  0  0
  191.3710  177.2980  142.4350 C   0  0  0  0  0  2  0  0  0  0  0  0
  189.1090  177.3780  141.2830 C   0  0  0  0  0  2  0  0  0  0  0  0
  185.8700  178.5450  145.9190 C   0  0  0  0  0  3  0  0  0  0  0  0
  185.2300  179.5570  145.2030 O   0  0  0  0  0  1  0  0  0  0  0  0
  185.9900  178.9220  147.2590 O   0  0  0  0  0  1  0  0  0  0  0  0
  187.6230  172.1050  135.8150 C   0  0  0  0  0  0  0  0  0  0  0  0
  186.4700  171.8230  136.2350 O   0  0  0  0  0  1  0  0  0  0  0  0
  188.2960  171.1910  135.0100 O   0  0  0  0  0  0  0  0  0  0  0  0
  1 10  1  0  0  0  0
  1  5  1  0  0  0  0
  2 12  1  0  0  0  0
  2 15  2  0  0  0  0
  3  9  1  0  0  0  0
  3 15  1  0  0  0  0
  4  5  1  6  0  0  0
  4 23  1  0  0  0  0
  6  7  1  1  0  0  0
  6 10  1  0  0  0  0
  8  4  1  0  0  0  0
 10  8  1  1  0  0  0
 11  9  1  6  0  0  0
 11  7  1  0  0  0  0
 11  6  1  0  0  0  0
 12 13  1  0  0  0  0
 13 14  2  0  0  0  0
 14 16  1  0  0  0  0
 15 17  1  0  0  0  0
 17  1  1  0  0  0  0
 17 16  2  0  0  0  0
 20 29  1  1  0  0  0
 20 26  1  0  0  0  0
 21 20  1  0  0  0  0
 22 18  1  6  0  0  0
 22 21  1  0  0  0  0
 22 25  1  0  0  0  0
 23 28  1  1  0  0  0
 23 27  1  0  0  0  0
 24 26  1  0  0  0  0
 25 19  1  1  0  0  0
 25 24  1  0  0  0  0
 27 19  1  0  0  0  0
 28 18  1  0  0  0  0
 29 31  1  0  0  0  0
 30 29  1  0  0  0  0
 32 13  1  0  0  0  0
 32 33  1  0  0  0  0
 34 32  2  0  0  0  0
M  END
>  <MODEL>
8

>  <REMARK>
 VINA RESULT:      -7.2      5.412      7.418
  Name = 
  3 active torsions:
  status: ('A' for Active; 'I' for Inactive)
    1  A    between atoms: C_3  and  C_25
    2  A    between atoms: C_7  and  C_11
    3  A    between atoms: C_8  and  C_18
                            x       y       z     vdW  Elec       q    Type
                         _______ _______ _______ _____ _____    ______ ____

>  <TORSDO>
F 3

$$$$
=
 OpenBabel10262423133D

 34 39  0  0  1  0  0  0  0  0999 V2000
  189.2870  176.7160  137.1750 N   0  0  0  0  0  0  0  0  0  0  0  0
  186.5910  176.7020  134.6640 C   0  0  0  0  0  3  0  0  0  0  0  0
  188.5330  175.3670  134.5940 N   0  0  0  0  0  2  0  0  0  0  0  0
  190.4460  177.3960  139.2960 C   0  0  2  0  0  3  0  0  0  0  0  0
  189.8220  178.2590  137.8120 S   0  0  0  0  0  0  0  0  0  0  0  0
  189.4050  174.2470  137.6330 C   0  0  1  0  0  3  0  0  0  0  0  0
  190.3510  173.3760  137.0560 O   0  0  0  0  0  0  0  0  0  0  0  0
  190.2300  175.9500  139.1910 N   0  0  0  0  0  2  0  0  0  0  0  0
  189.6930  174.6820  135.1460 C   0  0  0  0  0  2  0  0  0  0  0  0
  190.0490  175.6340  137.7830 C   0  0  2  0  0  3  0  0  0  0  0  0
  189.2560  173.7150  136.2420 C   0  0  2  0  0  3  0  0  0  0  0  0
  185.5890  177.6330  135.2580 C   0  0  0  0  0  2  0  0  0  0  0  0
  184.8590  176.9700  136.3830 C   0  0  0  0  0  0  0  0  0  0  0  0
  185.5050  176.6010  137.4930 C   0  0  0  0  0  3  0  0  0  0  0  0
  187.6470  176.2240  135.3280 C   0  0  0  0  0  0  0  0  0  0  0  0
  186.9640  176.6880  137.6930 C   0  0  0  0  0  3  0  0  0  0  0  0
  187.9220  176.5750  136.7550 C   0  0  0  0  0  0  0  0  0  0  0  0
  190.4960  178.8290  142.8080 C   0  0  0  0  0  2  0  0  0  0  0  0
  187.7240  178.0210  142.0050 C   0  0  0  0  0  2  0  0  0  0  0  0
  189.1840  176.8690  145.8840 C   0  0  2  0  0  3  0  0  0  0  0  0
  190.1350  177.7440  145.0510 C   0  0  0  0  0  2  0  0  0  0  0  0
  189.4520  178.3950  143.8420 C   0  0  2  0  0  3  0  0  0  0  0  0
  189.8200  177.9650  140.5680 C   0  0  1  0  0  3  0  0  0  0  0  0
  187.2060  177.3530  144.3640 C   0  0  0  0  0  2  0  0  0  0  0  0
  188.3090  177.5130  143.3110 C   0  0  1  0  0  3  0  0  0  0  0  0
  187.7340  177.3650  145.8070 C   0  0  0  0  0  2  0  0  0  0  0  0
  188.4390  177.3560  140.8370 C   0  0  0  0  0  2  0  0  0  0  0  0
  190.7750  177.7740  141.7440 C   0  0  0  0  0  2  0  0  0  0  0  0
  189.6790  176.7620  147.3230 C   0  0  0  0  0  3  0  0  0  0  0  0
  189.3630  177.9230  148.0290 O   0  0  0  0  0  1  0  0  0  0  0  0
  191.0590  176.5500  147.3620 O   0  0  0  0  0  1  0  0  0  0  0  0
  183.4000  176.7960  136.2980 C   0  0  0  0  0  0  0  0  0  0  0  0
  182.9070  175.6540  136.0990 O   0  0  0  0  0  0  0  0  0  0  0  0
  182.5500  177.8870  136.4440 O   0  0  0  0  0  1  0  0  0  0  0  0
  1 10  1  0  0  0  0
  1  5  1  0  0  0  0
  2 12  1  0  0  0  0
  2 15  2  0  0  0  0
  3  9  1  0  0  0  0
  3 15  1  0  0  0  0
  4  5  1  6  0  0  0
  4 23  1  0  0  0  0
  6  7  1  1  0  0  0
  6 10  1  0  0  0  0
  8  4  1  0  0  0  0
 10  8  1  1  0  0  0
 11  9  1  6  0  0  0
 11  7  1  0  0  0  0
 11  6  1  0  0  0  0
 12 13  1  0  0  0  0
 13 14  2  0  0  0  0
 14 16  1  0  0  0  0
 15 17  1  0  0  0  0
 17  1  1  0  0  0  0
 17 16  2  0  0  0  0
 20 29  1  1  0  0  0
 21 20  1  0  0  0  0
 22 18  1  6  0  0  0
 22 21  1  0  0  0  0
 23 27  1  1  0  0  0
 23 28  1  0  0  0  0
 24 26  1  0  0  0  0
 25 19  1  6  0  0  0
 25 22  1  0  0  0  0
 25 24  1  0  0  0  0
 26 20  1  0  0  0  0
 27 19  1  0  0  0  0
 28 18  1  0  0  0  0
 29 31  1  0  0  0  0
 29 30  1  0  0  0  0
 32 13  1  0  0  0  0
 32 34  1  0  0  0  0
 33 32  2  0  0  0  0
M  END
>  <MODEL>
9

>  <REMARK>
 VINA RESULT:      -7.2      3.802      5.980
  Name = 
  3 active torsions:
  status: ('A' for Active; 'I' for Inactive)
    1  A    between atoms: C_3  and  C_25
    2  A    between atoms: C_7  and  C_11
    3  A    between atoms: C_8  and  C_18
                            x       y       z     vdW  Elec       q    Type
                         _______ _______ _______ _____ _____    ______ ____

>  <TORSDO>
F 3

$$$$
