=
 OpenBabel10262422283D

 43 47  0  0  1  0  0  0  0  0999 V2000
  186.6310  178.3050  138.6970 N   0  0  0  0  0  2  0  0  0  0  0  0
  187.9000  177.4020  146.4970 C   0  0  0  0  0  0  0  0  0  0  0  0
  184.5560  179.3670  138.6870 O   0  0  0  0  0  0  0  0  0  0  0  0
  184.5980  178.7930  142.9350 C   0  0  0  0  0  0  0  0  0  0  0  0
  185.4610  178.7940  139.3520 C   0  0  0  0  0  0  0  0  0  0  0  0
  185.9890  178.4880  145.3250 C   0  0  0  0  0  0  0  0  0  0  0  0
  188.5270  177.2080  145.3260 C   0  0  0  0  0  3  0  0  0  0  0  0
  188.3720  176.6740  147.7070 C   0  0  0  0  0  1  0  0  0  0  0  0
  186.6560  178.2780  144.0980 C   0  0  0  0  0  0  0  0  0  0  0  0
  186.7430  178.3630  146.6190 C   0  0  0  0  0  2  0  0  0  0  0  0
  188.1210  177.9510  144.0790 C   0  0  0  0  0  2  0  0  0  0  0  0
  186.4070  178.3250  141.5960 N   0  0  0  0  0  2  0  0  0  0  0  0
  185.9280  178.4430  142.9190 C   0  0  0  0  0  0  0  0  0  0  0  0
  183.9190  179.0100  144.1350 C   0  0  0  0  0  3  0  0  0  0  0  0
  184.0930  178.8950  141.5340 C   0  0  1  0  0  3  0  0  0  0  0  0
  185.3160  178.6200  140.7640 N   0  0  0  0  0  0  0  0  0  0  0  0
  184.6300  178.8580  145.3380 C   0  0  0  0  0  3  0  0  0  0  0  0
  183.0700  177.7910  141.3000 C   0  0  0  0  0  2  0  0  0  0  0  0
  181.7130  178.3790  140.9560 C   0  0  0  0  0  2  0  0  0  0  0  0
  181.1170  175.4370  138.7270 O   0  0  0  0  0  0  0  0  0  0  0  0
  179.1220  175.7060  140.0430 C   0  0  0  0  0  2  0  0  0  0  0  0
  180.2040  174.7470  139.5470 C   0  0  1  0  0  3  0  0  0  0  0  0
  181.8450  176.3010  139.5650 C   0  0  0  0  0  2  0  0  0  0  0  0
  180.9390  177.4320  140.0580 C   0  0  1  0  0  3  0  0  0  0  0  0
  179.5610  173.6270  138.7570 C   0  0  0  0  0  1  0  0  0  0  0  0
  179.7790  176.8270  140.8450 C   0  0  0  0  0  2  0  0  0  0  0  0
  186.8030  178.3990  137.2570 C   0  0  0  0  0  2  0  0  0  0  0  0
  187.7780  177.3190  136.7670 C   0  0  2  0  0  3  0  0  0  0  0  0
  187.6660  177.0480  135.3860 O   0  0  0  0  0  0  0  0  0  0  0  0
  188.8290  177.4920  134.7380 C   0  0  0  0  0  1  0  0  0  0  0  0
  187.8790  176.0450  137.6330 C   0  0  1  0  0  3  0  0  0  0  0  0
  187.3910  174.8250  136.8550 C   0  0  0  0  0  2  0  0  0  0  0  0
  185.7590  173.0900  137.5910 C   0  0  0  0  0  1  0  0  0  0  0  0
  185.9290  174.5320  137.1510 C   0  0  0  0  0  2  0  0  0  0  0  0
  189.2960  175.8090  138.1500 C   0  0  0  0  0  2  0  0  0  0  0  0
  190.1280  177.0820  138.0840 C   0  0  2  0  0  3  0  0  0  0  0  0
  191.2660  176.8450  137.3100 O   0  0  0  0  0  1  0  0  0  0  0  0
  190.5330  177.5100  139.4910 C   0  0  2  0  0  3  0  0  0  0  0  0
  190.2640  176.2130  141.5410 O   0  0  0  0  0  0  0  0  0  0  0  0
  192.1940  177.5970  141.0400 C   0  0  0  0  0  2  0  0  0  0  0  0
  191.2060  177.0950  142.1080 C   0  0  0  0  0  2  0  0  0  0  0  0
  191.8550  177.0990  139.7650 O   0  0  0  0  0  0  0  0  0  0  0  0
  189.5660  176.9200  140.5390 C   0  0  0  0  0  2  0  0  0  0  0  0
  1  5  1  0  0  0  0
  2 10  1  0  0  0  0
  2  8  1  0  0  0  0
  3  5  2  0  0  0  0
  4 14  1  0  0  0  0
  5 16  1  0  0  0  0
  6 17  1  0  0  0  0
  6 10  1  0  0  0  0
  7  2  2  0  0  0  0
  9  6  2  0  0  0  0
 11  9  1  0  0  0  0
 11  7  1  0  0  0  0
 12 13  1  0  0  0  0
 13  4  2  0  0  0  0
 13  9  1  0  0  0  0
 14 17  2  0  0  0  0
 15 18  1  1  0  0  0
 15  4  1  0  0  0  0
 16 15  1  0  0  0  0
 16 12  1  0  0  0  0
 19 18  1  0  0  0  0
 20 22  1  0  0  0  0
 20 23  1  0  0  0  0
 21 26  1  0  0  0  0
 22 25  1  6  0  0  0
 22 21  1  0  0  0  0
 23 24  1  0  0  0  0
 24 26  1  0  0  0  0
 24 19  1  1  0  0  0
 27  1  1  0  0  0  0
 28 27  1  1  0  0  0
 28 31  1  0  0  0  0
 29 28  1  0  0  0  0
 30 29  1  0  0  0  0
 31 32  1  6  0  0  0
 31 35  1  0  0  0  0
 32 34  1  0  0  0  0
 34 33  1  0  0  0  0
 36 37  1  6  0  0  0
 36 35  1  0  0  0  0
 38 36  1  6  0  0  0
 38 42  1  0  0  0  0
 38 43  1  0  0  0  0
 39 41  1  0  0  0  0
 40 41  1  0  0  0  0
 42 40  1  0  0  0  0
 43 39  1  0  0  0  0
M  END
>  <MODEL>
1

>  <REMARK>
 VINA RESULT:      -8.4      0.000      0.000
  Name = 
  12 active torsions:
  status: ('A' for Active; 'I' for Inactive)
    1  A    between atoms: C_1  and  C_28
    2  A    between atoms: C_1  and  C_34
    3  A    between atoms: N_2  and  C_6
    4  A    between atoms: C_3  and  C_4
    5  A    between atoms: C_3  and  C_6
    6  A    between atoms: C_3  and  O_12
    7  A    between atoms: C_4  and  C_15
    8  A    between atoms: C_4  and  C_22
    9  A    between atoms: C_11  and  C_14
   10  A    between atoms: C_14  and  C_22
   11  A    between atoms: C_15  and  C_42
   12  A    between atoms: C_28  and  C_35
                            x       y       z     vdW  Elec       q    Type
                         _______ _______ _______ _____ _____    ______ ____

>  <TORSDO>
F 12

$$$$
=
 OpenBabel10262422283D

 43 47  0  0  1  0  0  0  0  0999 V2000
  186.4860  178.2820  139.0030 N   0  0  0  0  0  2  0  0  0  0  0  0
  187.3260  177.7030  146.8910 C   0  0  0  0  0  0  0  0  0  0  0  0
  184.3510  179.2040  138.8320 O   0  0  0  0  0  0  0  0  0  0  0  0
  184.1680  178.7630  143.0930 C   0  0  0  0  0  0  0  0  0  0  0  0
  185.2480  178.7120  139.5690 C   0  0  0  0  0  0  0  0  0  0  0  0
  185.4250  178.6240  145.5710 C   0  0  0  0  0  0  0  0  0  0  0  0
  188.0350  177.5150  145.7670 C   0  0  0  0  0  3  0  0  0  0  0  0
  187.7670  177.0450  148.1510 C   0  0  0  0  0  1  0  0  0  0  0  0
  186.1780  178.4210  144.3930 C   0  0  0  0  0  0  0  0  0  0  0  0
  186.1040  178.5890  146.9100 C   0  0  0  0  0  2  0  0  0  0  0  0
  187.6600  178.1910  144.4730 C   0  0  0  0  0  2  0  0  0  0  0  0
  186.0820  178.3750  141.8800 N   0  0  0  0  0  2  0  0  0  0  0  0
  185.5160  178.5020  143.1680 C   0  0  0  0  0  0  0  0  0  0  0  0
  183.4030  178.9720  144.2410 C   0  0  0  0  0  3  0  0  0  0  0  0
  183.7450  178.7890  141.6610 C   0  0  1  0  0  3  0  0  0  0  0  0
  185.0280  178.5720  140.9750 N   0  0  0  0  0  0  0  0  0  0  0  0
  184.0470  178.9030  145.4900 C   0  0  0  0  0  3  0  0  0  0  0  0
  182.8110  177.6130  141.4040 C   0  0  0  0  0  2  0  0  0  0  0  0
  181.6150  178.0470  140.5750 C   0  0  0  0  0  2  0  0  0  0  0  0
  181.0060  176.8470  137.0870 O   0  0  0  0  0  0  0  0  0  0  0  0
  182.4040  175.1960  138.1360 C   0  0  0  0  0  2  0  0  0  0  0  0
  182.1870  176.1010  136.9230 C   0  0  1  0  0  3  0  0  0  0  0  0
  181.2510  177.7790  138.1120 C   0  0  0  0  0  2  0  0  0  0  0  0
  181.3610  177.0550  139.4560 C   0  0  1  0  0  3  0  0  0  0  0  0
  182.0800  175.2510  135.6740 C   0  0  0  0  0  1  0  0  0  0  0  0
  182.5200  176.0630  139.3880 C   0  0  0  0  0  2  0  0  0  0  0  0
  186.7400  178.3430  137.5730 C   0  0  0  0  0  2  0  0  0  0  0  0
  188.2270  178.0920  137.2870 C   0  0  2  0  0  3  0  0  0  0  0  0
  188.5180  177.9530  135.9130 O   0  0  0  0  0  0  0  0  0  0  0  0
  187.3300  177.6770  135.2200 C   0  0  0  0  0  1  0  0  0  0  0  0
  188.9240  177.0340  138.1700 C   0  0  1  0  0  3  0  0  0  0  0  0
  189.7040  176.0430  137.3080 C   0  0  0  0  0  2  0  0  0  0  0  0
  191.8130  174.7440  137.5880 C   0  0  0  0  0  1  0  0  0  0  0  0
  191.1960  176.1290  137.5840 C   0  0  0  0  0  2  0  0  0  0  0  0
  189.8450  177.6670  139.2110 C   0  0  0  0  0  2  0  0  0  0  0  0
  189.2820  177.5100  140.6160 C   0  0  2  0  0  3  0  0  0  0  0  0
  189.0780  178.7750  141.1710 O   0  0  0  0  0  1  0  0  0  0  0  0
  190.2550  176.7130  141.4780 C   0  0  2  0  0  3  0  0  0  0  0  0
  191.4320  177.5110  143.4620 O   0  0  0  0  0  0  0  0  0  0  0  0
  190.5030  175.2810  143.2260 C   0  0  0  0  0  2  0  0  0  0  0  0
  191.6560  176.1510  143.7580 C   0  0  0  0  0  2  0  0  0  0  0  0
  189.5630  176.0630  142.5230 O   0  0  0  0  0  0  0  0  0  0  0  0
  191.3490  177.6340  142.0590 C   0  0  0  0  0  2  0  0  0  0  0  0
  1  5  1  0  0  0  0
  2 10  1  0  0  0  0
  2  8  1  0  0  0  0
  3  5  2  0  0  0  0
  4 13  2  0  0  0  0
  4 14  1  0  0  0  0
  5 16  1  0  0  0  0
  6 10  1  0  0  0  0
  7  2  2  0  0  0  0
  9 11  1  0  0  0  0
  9  6  2  0  0  0  0
 11  7  1  0  0  0  0
 12 13  1  0  0  0  0
 13  9  1  0  0  0  0
 14 17  2  0  0  0  0
 15 18  1  1  0  0  0
 15  4  1  0  0  0  0
 16 15  1  0  0  0  0
 16 12  1  0  0  0  0
 17  6  1  0  0  0  0
 19 18  1  0  0  0  0
 20 23  1  0  0  0  0
 21 26  1  0  0  0  0
 22 25  1  6  0  0  0
 22 20  1  0  0  0  0
 22 21  1  0  0  0  0
 23 24  1  0  0  0  0
 24 19  1  1  0  0  0
 26 24  1  0  0  0  0
 27  1  1  0  0  0  0
 28 27  1  6  0  0  0
 28 31  1  0  0  0  0
 29 28  1  0  0  0  0
 30 29  1  0  0  0  0
 31 32  1  6  0  0  0
 31 35  1  0  0  0  0
 32 34  1  0  0  0  0
 34 33  1  0  0  0  0
 35 36  1  0  0  0  0
 36 37  1  1  0  0  0
 38 36  1  1  0  0  0
 38 43  1  0  0  0  0
 38 42  1  0  0  0  0
 39 41  1  0  0  0  0
 40 41  1  0  0  0  0
 42 40  1  0  0  0  0
 43 39  1  0  0  0  0
M  END
>  <MODEL>
2

>  <REMARK>
 VINA RESULT:      -8.4      1.641      2.364
  Name = 
  12 active torsions:
  status: ('A' for Active; 'I' for Inactive)
    1  A    between atoms: C_1  and  C_28
    2  A    between atoms: C_1  and  C_34
    3  A    between atoms: N_2  and  C_6
    4  A    between atoms: C_3  and  C_4
    5  A    between atoms: C_3  and  C_6
    6  A    between atoms: C_3  and  O_12
    7  A    between atoms: C_4  and  C_15
    8  A    between atoms: C_4  and  C_22
    9  A    between atoms: C_11  and  C_14
   10  A    between atoms: C_14  and  C_22
   11  A    between atoms: C_15  and  C_42
   12  A    between atoms: C_28  and  C_35
                            x       y       z     vdW  Elec       q    Type
                         _______ _______ _______ _____ _____    ______ ____

>  <TORSDO>
F 12

$$$$
=
 OpenBabel10262422283D

 43 47  0  0  1  0  0  0  0  0999 V2000
  184.2840  179.4230  140.1510 N   0  0  0  0  0  2  0  0  0  0  0  0
  187.6600  177.9300  147.1960 C   0  0  0  0  0  0  0  0  0  0  0  0
  185.7180  178.2910  138.7020 O   0  0  0  0  0  0  0  0  0  0  0  0
  188.1020  177.5170  142.1810 C   0  0  0  0  0  0  0  0  0  0  0  0
  185.4730  178.6830  139.8750 C   0  0  0  0  0  0  0  0  0  0  0  0
  188.3300  177.1480  144.9290 C   0  0  0  0  0  0  0  0  0  0  0  0
  186.5660  178.5170  146.6870 C   0  0  0  0  0  3  0  0  0  0  0  0
  188.0960  178.2730  148.5780 C   0  0  0  0  0  1  0  0  0  0  0  0
  187.1770  177.7700  144.4010 C   0  0  0  0  0  0  0  0  0  0  0  0
  188.4440  176.9110  146.4070 C   0  0  0  0  0  2  0  0  0  0  0  0
  186.0530  178.1760  145.3100 C   0  0  0  0  0  2  0  0  0  0  0  0
  186.0210  178.4890  142.2860 N   0  0  0  0  0  2  0  0  0  0  0  0
  187.0950  177.9350  143.0180 C   0  0  0  0  0  0  0  0  0  0  0  0
  189.2490  176.8960  142.6770 C   0  0  0  0  0  3  0  0  0  0  0  0
  187.7340  177.8250  140.7670 C   0  0  1  0  0  3  0  0  0  0  0  0
  186.3900  178.4000  140.9360 N   0  0  0  0  0  0  0  0  0  0  0  0
  189.3550  176.7100  144.0670 C   0  0  0  0  0  3  0  0  0  0  0  0
  188.6900  178.8820  140.2300 C   0  0  0  0  0  2  0  0  0  0  0  0
  189.1030  178.5600  138.8050 C   0  0  0  0  0  2  0  0  0  0  0  0
  188.9720  175.1460  137.2860 O   0  0  0  0  0  0  0  0  0  0  0  0
  191.1920  175.4080  138.1740 C   0  0  0  0  0  2  0  0  0  0  0  0
  190.3370  175.0170  136.9680 C   0  0  1  0  0  3  0  0  0  0  0  0
  188.7100  176.5230  137.4020 C   0  0  0  0  0  2  0  0  0  0  0  0
  189.3850  177.0760  138.6600 C   0  0  1  0  0  3  0  0  0  0  0  0
  190.6330  173.5820  136.5850 C   0  0  0  0  0  1  0  0  0  0  0  0
  190.8920  176.8580  138.5460 C   0  0  0  0  0  2  0  0  0  0  0  0
  183.3470  179.7920  139.1020 C   0  0  0  0  0  2  0  0  0  0  0  0
  181.9090  179.4830  139.5420 C   0  0  2  0  0  3  0  0  0  0  0  0
  181.0560  180.6070  139.5010 O   0  0  0  0  0  0  0  0  0  0  0  0
  181.4070  181.4070  138.4020 C   0  0  0  0  0  1  0  0  0  0  0  0
  181.7530  178.6440  140.8290 C   0  0  1  0  0  3  0  0  0  0  0  0
  180.9810  179.4250  141.8900 C   0  0  0  0  0  2  0  0  0  0  0  0
  182.7140  179.0630  143.6450 C   0  0  0  0  0  1  0  0  0  0  0  0
  181.2530  178.8790  143.2820 C   0  0  0  0  0  2  0  0  0  0  0  0
  181.0750  177.3020  140.5640 C   0  0  0  0  0  2  0  0  0  0  0  0
  180.9930  177.0080  139.0730 C   0  0  2  0  0  3  0  0  0  0  0  0
  179.6670  176.7250  138.7350 O   0  0  0  0  0  1  0  0  0  0  0  0
  181.8840  175.8190  138.7290 C   0  0  2  0  0  3  0  0  0  0  0  0
  181.7650  174.4450  136.7150 O   0  0  0  0  0  0  0  0  0  0  0  0
  183.8330  175.1210  137.7920 C   0  0  0  0  0  2  0  0  0  0  0  0
  183.0640  174.0120  137.0510 C   0  0  0  0  0  2  0  0  0  0  0  0
  183.0140  176.2500  138.0020 O   0  0  0  0  0  0  0  0  0  0  0  0
  181.0990  174.7670  137.9170 C   0  0  0  0  0  2  0  0  0  0  0  0
  2  8  1  0  0  0  0
  3  5  2  0  0  0  0
  4 14  2  0  0  0  0
  4 13  1  0  0  0  0
  5  1  1  0  0  0  0
  5 16  1  0  0  0  0
  6 10  1  0  0  0  0
  7  2  2  0  0  0  0
  9  6  1  0  0  0  0
  9 11  1  0  0  0  0
 10  2  1  0  0  0  0
 11  7  1  0  0  0  0
 12 13  1  0  0  0  0
 13  9  2  0  0  0  0
 14 17  1  0  0  0  0
 15 18  1  1  0  0  0
 15 16  1  0  0  0  0
 15  4  1  0  0  0  0
 16 12  1  0  0  0  0
 17  6  2  0  0  0  0
 19 18  1  0  0  0  0
 20 23  1  0  0  0  0
 21 26  1  0  0  0  0
 22 25  1  1  0  0  0
 22 20  1  0  0  0  0
 22 21  1  0  0  0  0
 23 24  1  0  0  0  0
 24 19  1  6  0  0  0
 26 24  1  0  0  0  0
 27  1  1  0  0  0  0
 28 27  1  1  0  0  0
 28 31  1  0  0  0  0
 29 28  1  0  0  0  0
 30 29  1  0  0  0  0
 31 35  1  6  0  0  0
 31 32  1  0  0  0  0
 32 34  1  0  0  0  0
 34 33  1  0  0  0  0
 36 37  1  1  0  0  0
 36 35  1  0  0  0  0
 38 36  1  6  0  0  0
 39 41  1  0  0  0  0
 39 43  1  0  0  0  0
 40 42  1  0  0  0  0
 41 40  1  0  0  0  0
 42 38  1  0  0  0  0
 43 38  1  0  0  0  0
M  END
>  <MODEL>
3

>  <REMARK>
 VINA RESULT:      -8.3      1.956      7.291
  Name = 
  12 active torsions:
  status: ('A' for Active; 'I' for Inactive)
    1  A    between atoms: C_1  and  C_28
    2  A    between atoms: C_1  and  C_34
    3  A    between atoms: N_2  and  C_6
    4  A    between atoms: C_3  and  C_4
    5  A    between atoms: C_3  and  C_6
    6  A    between atoms: C_3  and  O_12
    7  A    between atoms: C_4  and  C_15
    8  A    between atoms: C_4  and  C_22
    9  A    between atoms: C_11  and  C_14
   10  A    between atoms: C_14  and  C_22
   11  A    between atoms: C_15  and  C_42
   12  A    between atoms: C_28  and  C_35
                            x       y       z     vdW  Elec       q    Type
                         _______ _______ _______ _____ _____    ______ ____

>  <TORSDO>
F 12

$$$$
=
 OpenBabel10262422283D

 43 47  0  0  1  0  0  0  0  0999 V2000
  186.7690  178.2950  138.9000 N   0  0  0  0  0  2  0  0  0  0  0  0
  187.6370  177.5420  146.7700 C   0  0  0  0  0  0  0  0  0  0  0  0
  184.6580  179.2740  138.7590 O   0  0  0  0  0  0  0  0  0  0  0  0
  184.4870  178.7550  143.0120 C   0  0  0  0  0  0  0  0  0  0  0  0
  185.5470  178.7460  139.4810 C   0  0  0  0  0  0  0  0  0  0  0  0
  185.7530  178.5360  145.4790 C   0  0  0  0  0  0  0  0  0  0  0  0
  188.3350  177.3570  145.6390 C   0  0  0  0  0  3  0  0  0  0  0  0
  188.0680  176.8480  148.0150 C   0  0  0  0  0  1  0  0  0  0  0  0
  186.4950  178.3370  144.2930 C   0  0  0  0  0  0  0  0  0  0  0  0
  186.4380  178.4570  146.8140 C   0  0  0  0  0  2  0  0  0  0  0  0
  187.9710  178.0680  144.3600 C   0  0  0  0  0  2  0  0  0  0  0  0
  186.3840  178.3420  141.7810 N   0  0  0  0  0  2  0  0  0  0  0  0
  185.8280  178.4590  143.0740 C   0  0  0  0  0  0  0  0  0  0  0  0
  183.7340  178.9610  144.1690 C   0  0  0  0  0  3  0  0  0  0  0  0
  184.0570  178.8200  141.5830 C   0  0  1  0  0  3  0  0  0  0  0  0
  185.3300  178.5840  140.8860 N   0  0  0  0  0  0  0  0  0  0  0  0
  184.3820  178.8520  145.4120 C   0  0  0  0  0  3  0  0  0  0  0  0
  183.0920  177.6730  141.3100 C   0  0  0  0  0  2  0  0  0  0  0  0
  181.7050  178.2020  140.9920 C   0  0  0  0  0  2  0  0  0  0  0  0
  180.8830  178.6570  137.3730 O   0  0  0  0  0  0  0  0  0  0  0  0
  182.0570  176.5650  137.5430 C   0  0  0  0  0  2  0  0  0  0  0  0
  181.9480  177.9140  136.8310 C   0  0  1  0  0  3  0  0  0  0  0  0
  181.2690  179.0370  138.6710 C   0  0  0  0  0  2  0  0  0  0  0  0
  181.2990  177.8080  139.5840 C   0  0  1  0  0  3  0  0  0  0  0  0
  181.7050  177.6860  135.3540 C   0  0  0  0  0  1  0  0  0  0  0  0
  182.3090  176.8070  139.0300 C   0  0  0  0  0  2  0  0  0  0  0  0
  187.0180  178.3780  137.4700 C   0  0  0  0  0  2  0  0  0  0  0  0
  187.5170  177.0270  136.9390 C   0  0  2  0  0  3  0  0  0  0  0  0
  186.9060  175.9180  137.5620 O   0  0  0  0  0  0  0  0  0  0  0  0
  185.8260  175.4890  136.7750 C   0  0  0  0  0  1  0  0  0  0  0  0
  189.0470  176.8760  136.7860 C   0  0  1  0  0  3  0  0  0  0  0  0
  189.4790  177.1970  135.3570 C   0  0  0  0  0  2  0  0  0  0  0  0
  189.8270  174.7420  135.0950 C   0  0  0  0  0  1  0  0  0  0  0  0
  190.3950  176.1170  134.8040 C   0  0  0  0  0  2  0  0  0  0  0  0
  189.8150  177.7460  137.7780 C   0  0  0  0  0  2  0  0  0  0  0  0
  190.8320  176.9280  138.5610 C   0  0  2  0  0  3  0  0  0  0  0  0
  190.4980  175.5750  138.4690 O   0  0  0  0  0  1  0  0  0  0  0  0
  190.8370  177.3660  140.0210 C   0  0  2  0  0  3  0  0  0  0  0  0
  190.2300  176.0030  141.9520 O   0  0  0  0  0  0  0  0  0  0  0  0
  192.0560  177.6010  141.9240 C   0  0  0  0  0  2  0  0  0  0  0  0
  190.9030  176.9700  142.7250 C   0  0  0  0  0  2  0  0  0  0  0  0
  192.0920  177.0970  140.6080 O   0  0  0  0  0  0  0  0  0  0  0  0
  189.7180  176.6510  140.8080 C   0  0  0  0  0  2  0  0  0  0  0  0
  1  5  1  0  0  0  0
  2 10  1  0  0  0  0
  2  8  1  0  0  0  0
  3  5  2  0  0  0  0
  4 13  2  0  0  0  0
  4 14  1  0  0  0  0
  5 16  1  0  0  0  0
  6 10  1  0  0  0  0
  7  2  2  0  0  0  0
  9 11  1  0  0  0  0
  9  6  2  0  0  0  0
 11  7  1  0  0  0  0
 12 13  1  0  0  0  0
 13  9  1  0  0  0  0
 14 17  2  0  0  0  0
 15 18  1  1  0  0  0
 15  4  1  0  0  0  0
 16 15  1  0  0  0  0
 16 12  1  0  0  0  0
 17  6  1  0  0  0  0
 19 18  1  0  0  0  0
 20 23  1  0  0  0  0
 21 26  1  0  0  0  0
 22 25  1  6  0  0  0
 22 20  1  0  0  0  0
 22 21  1  0  0  0  0
 23 24  1  0  0  0  0
 24 19  1  1  0  0  0
 26 24  1  0  0  0  0
 27  1  1  0  0  0  0
 28 27  1  1  0  0  0
 28 29  1  0  0  0  0
 30 29  1  0  0  0  0
 31 32  1  6  0  0  0
 31 28  1  0  0  0  0
 31 35  1  0  0  0  0
 34 33  1  0  0  0  0
 34 32  1  0  0  0  0
 35 36  1  0  0  0  0
 36 37  1  1  0  0  0
 38 36  1  6  0  0  0
 38 42  1  0  0  0  0
 38 43  1  0  0  0  0
 39 41  1  0  0  0  0
 40 41  1  0  0  0  0
 42 40  1  0  0  0  0
 43 39  1  0  0  0  0
M  END
>  <MODEL>
4

>  <REMARK>
 VINA RESULT:      -8.2      1.405      2.183
  Name = 
  12 active torsions:
  status: ('A' for Active; 'I' for Inactive)
    1  A    between atoms: C_1  and  C_28
    2  A    between atoms: C_1  and  C_34
    3  A    between atoms: N_2  and  C_6
    4  A    between atoms: C_3  and  C_4
    5  A    between atoms: C_3  and  C_6
    6  A    between atoms: C_3  and  O_12
    7  A    between atoms: C_4  and  C_15
    8  A    between atoms: C_4  and  C_22
    9  A    between atoms: C_11  and  C_14
   10  A    between atoms: C_14  and  C_22
   11  A    between atoms: C_15  and  C_42
   12  A    between atoms: C_28  and  C_35
                            x       y       z     vdW  Elec       q    Type
                         _______ _______ _______ _____ _____    ______ ____

>  <TORSDO>
F 12

$$$$
=
 OpenBabel10262422283D

 43 47  0  0  1  0  0  0  0  0999 V2000
  184.5090  179.3590  140.2260 N   0  0  0  0  0  2  0  0  0  0  0  0
  187.8600  177.8780  147.2860 C   0  0  0  0  0  0  0  0  0  0  0  0
  185.9760  178.2660  138.7800 O   0  0  0  0  0  0  0  0  0  0  0  0
  188.3480  177.5110  142.2710 C   0  0  0  0  0  0  0  0  0  0  0  0
  185.7140  178.6440  139.9540 C   0  0  0  0  0  0  0  0  0  0  0  0
  188.5630  177.1260  145.0180 C   0  0  0  0  0  0  0  0  0  0  0  0
  186.7590  178.4470  146.7720 C   0  0  0  0  0  3  0  0  0  0  0  0
  188.2780  178.2180  148.6730 C   0  0  0  0  0  1  0  0  0  0  0  0
  187.4010  177.7290  144.4860 C   0  0  0  0  0  0  0  0  0  0  0  0
  188.6690  176.8790  146.4960 C   0  0  0  0  0  2  0  0  0  0  0  0
  186.2630  178.1070  145.3900 C   0  0  0  0  0  2  0  0  0  0  0  0
  186.2480  178.4420  142.3680 N   0  0  0  0  0  2  0  0  0  0  0  0
  187.3260  177.9030  143.1040 C   0  0  0  0  0  0  0  0  0  0  0  0
  189.5030  176.9080  142.7720 C   0  0  0  0  0  3  0  0  0  0  0  0
  187.9850  177.8230  140.8570 C   0  0  1  0  0  3  0  0  0  0  0  0
  186.6290  178.3710  141.0190 N   0  0  0  0  0  0  0  0  0  0  0  0
  189.6020  176.7140  144.1610 C   0  0  0  0  0  3  0  0  0  0  0  0
  188.9240  178.9020  140.3360 C   0  0  0  0  0  2  0  0  0  0  0  0
  189.3230  178.6200  138.8980 C   0  0  0  0  0  2  0  0  0  0  0  0
  188.8840  175.3220  137.1910 O   0  0  0  0  0  0  0  0  0  0  0  0
  191.1080  175.3210  138.1060 C   0  0  0  0  0  2  0  0  0  0  0  0
  190.2330  175.0800  136.8750 C   0  0  1  0  0  3  0  0  0  0  0  0
  188.7520  176.7090  137.3820 C   0  0  0  0  0  2  0  0  0  0  0  0
  189.4640  177.1260  138.6720 C   0  0  1  0  0  3  0  0  0  0  0  0
  190.3960  173.6460  136.4160 C   0  0  0  0  0  1  0  0  0  0  0  0
  190.9440  176.7710  138.5560 C   0  0  0  0  0  2  0  0  0  0  0  0
  183.5740  179.7180  139.1730 C   0  0  0  0  0  2  0  0  0  0  0  0
  182.2590  178.9430  139.3440 C   0  0  2  0  0  3  0  0  0  0  0  0
  182.1980  177.7640  138.5710 O   0  0  0  0  0  0  0  0  0  0  0  0
  182.5460  176.6700  139.3780 C   0  0  0  0  0  1  0  0  0  0  0  0
  180.9610  179.7790  139.2870 C   0  0  1  0  0  3  0  0  0  0  0  0
  180.4470  180.0710  140.6950 C   0  0  0  0  0  2  0  0  0  0  0  0
  180.2100  179.1300  142.9910 C   0  0  0  0  0  1  0  0  0  0  0  0
  181.0070  179.0800  141.7020 C   0  0  0  0  0  2  0  0  0  0  0  0
  181.1470  181.0810  138.5120 C   0  0  0  0  0  2  0  0  0  0  0  0
  180.3920  181.0510  137.1910 C   0  0  2  0  0  3  0  0  0  0  0  0
  181.1600  180.3720  136.2410 O   0  0  0  0  0  1  0  0  0  0  0  0
  180.1170  182.4750  136.7180 C   0  0  2  0  0  3  0  0  0  0  0  0
  181.6460  184.3730  136.8480 O   0  0  0  0  0  0  0  0  0  0  0  0
  180.1630  183.9350  134.9780 C   0  0  0  0  0  2  0  0  0  0  0  0
  180.8100  184.9880  135.8950 C   0  0  0  0  0  2  0  0  0  0  0  0
  180.5210  182.6300  135.3750 O   0  0  0  0  0  0  0  0  0  0  0  0
  180.8480  183.4970  137.6150 C   0  0  0  0  0  2  0  0  0  0  0  0
  2  8  1  0  0  0  0
  3  5  2  0  0  0  0
  4 14  2  0  0  0  0
  4 13  1  0  0  0  0
  5  1  1  0  0  0  0
  5 16  1  0  0  0  0
  6 10  1  0  0  0  0
  7  2  2  0  0  0  0
  9  6  1  0  0  0  0
  9 11  1  0  0  0  0
 10  2  1  0  0  0  0
 11  7  1  0  0  0  0
 12 13  1  0  0  0  0
 13  9  2  0  0  0  0
 14 17  1  0  0  0  0
 15 18  1  1  0  0  0
 15 16  1  0  0  0  0
 15  4  1  0  0  0  0
 16 12  1  0  0  0  0
 17  6  2  0  0  0  0
 19 18  1  0  0  0  0
 20 23  1  0  0  0  0
 21 26  1  0  0  0  0
 22 25  1  1  0  0  0
 22 20  1  0  0  0  0
 22 21  1  0  0  0  0
 23 24  1  0  0  0  0
 24 19  1  6  0  0  0
 26 24  1  0  0  0  0
 27  1  1  0  0  0  0
 28 27  1  6  0  0  0
 29 28  1  0  0  0  0
 29 30  1  0  0  0  0
 31 35  1  1  0  0  0
 31 28  1  0  0  0  0
 31 32  1  0  0  0  0
 32 34  1  0  0  0  0
 34 33  1  0  0  0  0
 36 37  1  6  0  0  0
 36 35  1  0  0  0  0
 38 36  1  1  0  0  0
 38 43  1  0  0  0  0
 39 43  1  0  0  0  0
 40 42  1  0  0  0  0
 40 41  1  0  0  0  0
 41 39  1  0  0  0  0
 42 38  1  0  0  0  0
M  END
>  <MODEL>
5

>  <REMARK>
 VINA RESULT:      -8.1      3.186      8.044
  Name = 
  12 active torsions:
  status: ('A' for Active; 'I' for Inactive)
    1  A    between atoms: C_1  and  C_28
    2  A    between atoms: C_1  and  C_34
    3  A    between atoms: N_2  and  C_6
    4  A    between atoms: C_3  and  C_4
    5  A    between atoms: C_3  and  C_6
    6  A    between atoms: C_3  and  O_12
    7  A    between atoms: C_4  and  C_15
    8  A    between atoms: C_4  and  C_22
    9  A    between atoms: C_11  and  C_14
   10  A    between atoms: C_14  and  C_22
   11  A    between atoms: C_15  and  C_42
   12  A    between atoms: C_28  and  C_35
                            x       y       z     vdW  Elec       q    Type
                         _______ _______ _______ _____ _____    ______ ____

>  <TORSDO>
F 12

$$$$
=
 OpenBabel10262422283D

 43 47  0  0  1  0  0  0  0  0999 V2000
  184.8990  179.1030  139.3050 N   0  0  0  0  0  2  0  0  0  0  0  0
  192.2960  176.3760  138.2570 C   0  0  0  0  0  0  0  0  0  0  0  0
  184.9550  179.7420  141.5470 O   0  0  0  0  0  0  0  0  0  0  0  0
  188.8990  178.0620  141.5950 C   0  0  0  0  0  0  0  0  0  0  0  0
  185.5370  179.1820  140.5790 C   0  0  0  0  0  0  0  0  0  0  0  0
  191.2580  177.3790  140.2870 C   0  0  0  0  0  0  0  0  0  0  0  0
  191.1820  176.6180  137.5490 C   0  0  0  0  0  3  0  0  0  0  0  0
  193.3210  175.4450  137.7100 C   0  0  0  0  0  1  0  0  0  0  0  0
  190.0890  177.6290  139.5340 C   0  0  0  0  0  0  0  0  0  0  0  0
  192.5440  177.0470  139.5860 C   0  0  0  0  0  2  0  0  0  0  0  0
  190.1310  177.5850  138.0340 C   0  0  0  0  0  2  0  0  0  0  0  0
  187.6690  178.3020  139.6680 N   0  0  0  0  0  2  0  0  0  0  0  0
  188.9250  177.9730  140.2230 C   0  0  0  0  0  0  0  0  0  0  0  0
  190.0420  177.8250  142.3600 C   0  0  0  0  0  3  0  0  0  0  0  0
  187.5280  178.4470  142.0430 C   0  0  1  0  0  3  0  0  0  0  0  0
  186.8370  178.6110  140.7540 N   0  0  0  0  0  0  0  0  0  0  0  0
  191.2300  177.4830  141.6920 C   0  0  0  0  0  3  0  0  0  0  0  0
  186.9200  177.2830  142.8140 C   0  0  0  0  0  2  0  0  0  0  0  0
  186.0300  177.7880  143.9360 C   0  0  0  0  0  2  0  0  0  0  0  0
  186.8090  178.7780  147.4570 O   0  0  0  0  0  0  0  0  0  0  0  0
  188.7190  177.5550  146.6590 C   0  0  0  0  0  2  0  0  0  0  0  0
  187.6850  177.7230  147.7720 C   0  0  1  0  0  3  0  0  0  0  0  0
  186.0170  178.3430  146.3790 C   0  0  0  0  0  2  0  0  0  0  0  0
  186.8720  178.2470  145.1120 C   0  0  1  0  0  3  0  0  0  0  0  0
  188.3930  178.0260  149.0760 C   0  0  0  0  0  1  0  0  0  0  0  0
  187.9960  177.2420  145.3510 C   0  0  0  0  0  2  0  0  0  0  0  0
  183.5540  179.6100  139.0860 C   0  0  0  0  0  2  0  0  0  0  0  0
  182.6260  178.4760  138.6290 C   0  0  2  0  0  3  0  0  0  0  0  0
  183.3120  177.3960  138.0320 O   0  0  0  0  0  0  0  0  0  0  0  0
  182.9840  176.2140  138.7140 C   0  0  0  0  0  1  0  0  0  0  0  0
  181.3600  178.9000  137.8520 C   0  0  1  0  0  3  0  0  0  0  0  0
  180.1120  178.2860  138.4810 C   0  0  0  0  0  2  0  0  0  0  0  0
  179.9320  178.0410  140.9560 C   0  0  0  0  0  1  0  0  0  0  0  0
  179.7500  178.9840  139.7820 C   0  0  0  0  0  2  0  0  0  0  0  0
  181.2160  180.4180  137.7670 C   0  0  0  0  0  2  0  0  0  0  0  0
  180.4190  180.8300  136.5380 C   0  0  2  0  0  3  0  0  0  0  0  0
  181.0790  180.3820  135.3930 O   0  0  0  0  0  1  0  0  0  0  0  0
  180.2750  182.3480  136.4980 C   0  0  2  0  0  3  0  0  0  0  0  0
  181.7950  183.9800  137.4900 O   0  0  0  0  0  0  0  0  0  0  0  0
  180.6950  184.2600  135.3450 C   0  0  0  0  0  2  0  0  0  0  0  0
  181.1760  184.9250  136.6480 C   0  0  0  0  0  2  0  0  0  0  0  0
  180.9380  182.8710  135.3670 O   0  0  0  0  0  0  0  0  0  0  0  0
  180.8420  182.9820  137.7870 C   0  0  0  0  0  2  0  0  0  0  0  0
  1  5  1  0  0  0  0
  2 10  1  0  0  0  0
  4 15  1  0  0  0  0
  4 14  1  0  0  0  0
  5 16  1  0  0  0  0
  5  3  2  0  0  0  0
  6 17  1  0  0  0  0
  7 11  1  0  0  0  0
  7  2  2  0  0  0  0
  8  2  1  0  0  0  0
  9 13  1  0  0  0  0
  9  6  2  0  0  0  0
 10  6  1  0  0  0  0
 11  9  1  0  0  0  0
 12 13  1  0  0  0  0
 12 16  1  0  0  0  0
 13  4  2  0  0  0  0
 15 18  1  1  0  0  0
 16 15  1  0  0  0  0
 17 14  2  0  0  0  0
 18 19  1  0  0  0  0
 20 22  1  0  0  0  0
 21 22  1  0  0  0  0
 22 25  1  1  0  0  0
 23 20  1  0  0  0  0
 24 19  1  6  0  0  0
 24 26  1  0  0  0  0
 24 23  1  0  0  0  0
 26 21  1  0  0  0  0
 27  1  1  0  0  0  0
 28 27  1  6  0  0  0
 29 28  1  0  0  0  0
 29 30  1  0  0  0  0
 31 35  1  1  0  0  0
 31 32  1  0  0  0  0
 31 28  1  0  0  0  0
 32 34  1  0  0  0  0
 34 33  1  0  0  0  0
 36 37  1  6  0  0  0
 36 35  1  0  0  0  0
 38 36  1  1  0  0  0
 38 43  1  0  0  0  0
 39 43  1  0  0  0  0
 40 42  1  0  0  0  0
 40 41  1  0  0  0  0
 41 39  1  0  0  0  0
 42 38  1  0  0  0  0
M  END
>  <MODEL>
6

>  <REMARK>
 VINA RESULT:      -8.1      3.327      8.625
  Name = 
  12 active torsions:
  status: ('A' for Active; 'I' for Inactive)
    1  A    between atoms: C_1  and  C_28
    2  A    between atoms: C_1  and  C_34
    3  A    between atoms: N_2  and  C_6
    4  A    between atoms: C_3  and  C_4
    5  A    between atoms: C_3  and  C_6
    6  A    between atoms: C_3  and  O_12
    7  A    between atoms: C_4  and  C_15
    8  A    between atoms: C_4  and  C_22
    9  A    between atoms: C_11  and  C_14
   10  A    between atoms: C_14  and  C_22
   11  A    between atoms: C_15  and  C_42
   12  A    between atoms: C_28  and  C_35
                            x       y       z     vdW  Elec       q    Type
                         _______ _______ _______ _____ _____    ______ ____

>  <TORSDO>
F 12

$$$$
=
 OpenBabel10262422283D

 43 47  0  0  1  0  0  0  0  0999 V2000
  186.8810  178.2550  139.0530 N   0  0  0  0  0  2  0  0  0  0  0  0
  187.5290  177.5920  146.9530 C   0  0  0  0  0  0  0  0  0  0  0  0
  184.7780  179.2400  138.8430 O   0  0  0  0  0  0  0  0  0  0  0  0
  184.4880  178.7720  143.0950 C   0  0  0  0  0  0  0  0  0  0  0  0
  185.6440  178.7170  139.5950 C   0  0  0  0  0  0  0  0  0  0  0  0
  185.6850  178.5770  145.5990 C   0  0  0  0  0  0  0  0  0  0  0  0
  188.2570  177.3910  145.8430 C   0  0  0  0  0  3  0  0  0  0  0  0
  187.9230  176.9110  148.2170 C   0  0  0  0  0  1  0  0  0  0  0  0
  186.4580  178.3620  144.4360 C   0  0  0  0  0  0  0  0  0  0  0  0
  186.3330  178.5120  146.9520 C   0  0  0  0  0  2  0  0  0  0  0  0
  187.9310  178.0880  144.5460 C   0  0  0  0  0  2  0  0  0  0  0  0
  186.4160  178.3380  141.9220 N   0  0  0  0  0  2  0  0  0  0  0  0
  185.8260  178.4710  143.1980 C   0  0  0  0  0  0  0  0  0  0  0  0
  183.7040  178.9940  144.2280 C   0  0  0  0  0  3  0  0  0  0  0  0
  184.0980  178.8220  141.6550 C   0  0  1  0  0  3  0  0  0  0  0  0
  185.3890  178.5730  140.9960 N   0  0  0  0  0  0  0  0  0  0  0  0
  184.3180  178.8970  145.4900 C   0  0  0  0  0  3  0  0  0  0  0  0
  183.1370  177.6750  141.3680 C   0  0  0  0  0  2  0  0  0  0  0  0
  181.9530  178.1580  140.5480 C   0  0  0  0  0  2  0  0  0  0  0  0
  181.3850  177.0450  137.0240 O   0  0  0  0  0  0  0  0  0  0  0  0
  182.6450  175.2970  138.0910 C   0  0  0  0  0  2  0  0  0  0  0  0
  182.5230  176.2300  136.8860 C   0  0  1  0  0  3  0  0  0  0  0  0
  181.6530  177.9460  138.0700 C   0  0  0  0  0  2  0  0  0  0  0  0
  181.6750  177.1980  139.4060 C   0  0  1  0  0  3  0  0  0  0  0  0
  182.4050  175.4050  135.6210 C   0  0  0  0  0  1  0  0  0  0  0  0
  182.7720  176.1380  139.3600 C   0  0  0  0  0  2  0  0  0  0  0  0
  187.1690  178.3210  137.6300 C   0  0  0  0  0  2  0  0  0  0  0  0
  188.0950  177.1660  137.2220 C   0  0  2  0  0  3  0  0  0  0  0  0
  187.5970  175.8950  137.5790 O   0  0  0  0  0  0  0  0  0  0  0  0
  186.5620  175.5460  136.6980 C   0  0  0  0  0  1  0  0  0  0  0  0
  189.5950  177.3470  137.5420 C   0  0  1  0  0  3  0  0  0  0  0  0
  189.7770  178.0530  138.8840 C   0  0  0  0  0  2  0  0  0  0  0  0
  189.8350  177.0360  141.1590 C   0  0  0  0  0  1  0  0  0  0  0  0
  190.5820  177.1990  139.8500 C   0  0  0  0  0  2  0  0  0  0  0  0
  190.3500  176.0200  137.5370 C   0  0  0  0  0  2  0  0  0  0  0  0
  191.0740  175.8010  136.2160 C   0  0  2  0  0  3  0  0  0  0  0  0
  190.3710  174.8590  135.4610 O   0  0  0  0  0  1  0  0  0  0  0  0
  192.4920  175.3060  136.4780 C   0  0  2  0  0  3  0  0  0  0  0  0
  193.9240  175.9200  138.3580 O   0  0  0  0  0  0  0  0  0  0  0  0
  193.7950  173.6910  137.4050 C   0  0  0  0  0  2  0  0  0  0  0  0
  194.6870  174.7830  138.0220 C   0  0  0  0  0  2  0  0  0  0  0  0
  192.4640  174.1400  137.2730 O   0  0  0  0  0  0  0  0  0  0  0  0
  193.3310  176.4020  137.1710 C   0  0  0  0  0  2  0  0  0  0  0  0
  1  5  1  0  0  0  0
  2  8  1  0  0  0  0
  3  5  2  0  0  0  0
  4 13  2  0  0  0  0
  4 14  1  0  0  0  0
  5 16  1  0  0  0  0
  6 10  1  0  0  0  0
  7  2  2  0  0  0  0
  9 11  1  0  0  0  0
  9  6  2  0  0  0  0
 10  2  1  0  0  0  0
 11  7  1  0  0  0  0
 12 13  1  0  0  0  0
 13  9  1  0  0  0  0
 14 17  2  0  0  0  0
 15 18  1  1  0  0  0
 15  4  1  0  0  0  0
 16 15  1  0  0  0  0
 16 12  1  0  0  0  0
 17  6  1  0  0  0  0
 19 18  1  0  0  0  0
 20 23  1  0  0  0  0
 21 26  1  0  0  0  0
 22 25  1  6  0  0  0
 22 20  1  0  0  0  0
 22 21  1  0  0  0  0
 23 24  1  0  0  0  0
 24 19  1  1  0  0  0
 26 24  1  0  0  0  0
 27  1  1  0  0  0  0
 28 31  1  0  0  0  0
 28 29  1  0  0  0  0
 28 27  1  1  0  0  0
 30 29  1  0  0  0  0
 31 35  1  1  0  0  0
 31 32  1  0  0  0  0
 32 34  1  0  0  0  0
 34 33  1  0  0  0  0
 36 37  1  6  0  0  0
 36 35  1  0  0  0  0
 38 36  1  1  0  0  0
 38 43  1  0  0  0  0
 38 42  1  0  0  0  0
 40 41  1  0  0  0  0
 41 39  1  0  0  0  0
 42 40  1  0  0  0  0
 43 39  1  0  0  0  0
M  END
>  <MODEL>
7

>  <REMARK>
 VINA RESULT:      -8.0      1.907      2.923
  Name = 
  12 active torsions:
  status: ('A' for Active; 'I' for Inactive)
    1  A    between atoms: C_1  and  C_28
    2  A    between atoms: C_1  and  C_34
    3  A    between atoms: N_2  and  C_6
    4  A    between atoms: C_3  and  C_4
    5  A    between atoms: C_3  and  C_6
    6  A    between atoms: C_3  and  O_12
    7  A    between atoms: C_4  and  C_15
    8  A    between atoms: C_4  and  C_22
    9  A    between atoms: C_11  and  C_14
   10  A    between atoms: C_14  and  C_22
   11  A    between atoms: C_15  and  C_42
   12  A    between atoms: C_28  and  C_35
                            x       y       z     vdW  Elec       q    Type
                         _______ _______ _______ _____ _____    ______ ____

>  <TORSDO>
F 12

$$$$
=
 OpenBabel10262422283D

 43 47  0  0  1  0  0  0  0  0999 V2000
  184.9710  179.0620  139.3460 N   0  0  0  0  0  2  0  0  0  0  0  0
  192.2720  176.1580  138.1110 C   0  0  0  0  0  0  0  0  0  0  0  0
  185.1190  179.7540  141.5680 O   0  0  0  0  0  0  0  0  0  0  0  0
  189.0290  177.9950  141.5210 C   0  0  0  0  0  0  0  0  0  0  0  0
  185.6560  179.1590  140.5950 C   0  0  0  0  0  0  0  0  0  0  0  0
  191.3260  177.2310  140.1500 C   0  0  0  0  0  0  0  0  0  0  0  0
  191.1390  176.4060  137.4360 C   0  0  0  0  0  3  0  0  0  0  0  0
  193.2580  175.1940  137.5520 C   0  0  0  0  0  1  0  0  0  0  0  0
  190.1360  177.4870  139.4320 C   0  0  0  0  0  0  0  0  0  0  0  0
  192.5800  176.8560  139.4140 C   0  0  0  0  0  2  0  0  0  0  0  0
  190.1250  177.4060  137.9330 C   0  0  0  0  0  2  0  0  0  0  0  0
  187.7370  178.2130  139.6320 N   0  0  0  0  0  2  0  0  0  0  0  0
  189.0050  177.8720  140.1520 C   0  0  0  0  0  0  0  0  0  0  0  0
  190.1920  177.7530  142.2520 C   0  0  0  0  0  3  0  0  0  0  0  0
  187.6810  178.4190  142.0060 C   0  0  1  0  0  3  0  0  0  0  0  0
  186.9500  178.5660  140.7390 N   0  0  0  0  0  0  0  0  0  0  0  0
  191.3500  177.3710  141.5520 C   0  0  0  0  0  3  0  0  0  0  0  0
  187.0790  177.2860  142.8280 C   0  0  0  0  0  2  0  0  0  0  0  0
  186.1560  177.8340  143.9030 C   0  0  0  0  0  2  0  0  0  0  0  0
  188.6740  177.1540  146.5820 O   0  0  0  0  0  0  0  0  0  0  0  0
  186.8310  178.2680  147.6520 C   0  0  0  0  0  2  0  0  0  0  0  0
  188.3440  178.2190  147.4410 C   0  0  1  0  0  3  0  0  0  0  0  0
  188.2080  177.5030  145.3020 C   0  0  0  0  0  2  0  0  0  0  0  0
  186.6770  177.4690  145.2810 C   0  0  1  0  0  3  0  0  0  0  0  0
  189.0330  178.0240  148.7760 C   0  0  0  0  0  1  0  0  0  0  0  0
  186.1470  178.4730  146.3010 C   0  0  0  0  0  2  0  0  0  0  0  0
  183.6300  179.5920  139.1620 C   0  0  0  0  0  2  0  0  0  0  0  0
  182.6530  178.4570  138.8240 C   0  0  2  0  0  3  0  0  0  0  0  0
  181.4520  178.9080  138.2340 O   0  0  0  0  0  0  0  0  0  0  0  0
  181.5980  178.9020  136.8390 C   0  0  0  0  0  1  0  0  0  0  0  0
  182.4320  177.3960  139.9240 C   0  0  1  0  0  3  0  0  0  0  0  0
  180.9730  177.3810  140.3730 C   0  0  0  0  0  2  0  0  0  0  0  0
  181.7310  178.6280  142.3940 C   0  0  0  0  0  1  0  0  0  0  0  0
  180.6740  178.5390  141.3110 C   0  0  0  0  0  2  0  0  0  0  0  0
  182.8600  176.0010  139.4730 C   0  0  0  0  0  2  0  0  0  0  0  0
  182.4270  175.7250  138.0410 C   0  0  2  0  0  3  0  0  0  0  0  0
  181.3610  174.8220  138.0510 O   0  0  0  0  0  1  0  0  0  0  0  0
  183.5940  175.1450  137.2490 C   0  0  2  0  0  3  0  0  0  0  0  0
  185.9280  175.8500  137.3710 O   0  0  0  0  0  0  0  0  0  0  0  0
  185.2030  173.5440  137.1440 C   0  0  0  0  0  2  0  0  0  0  0  0
  186.2310  174.6210  136.7500 C   0  0  0  0  0  2  0  0  0  0  0  0
  184.1930  174.0870  137.9650 O   0  0  0  0  0  0  0  0  0  0  0  0
  184.6410  176.2390  136.9440 C   0  0  0  0  0  2  0  0  0  0  0  0
  1  5  1  0  0  0  0
  2 10  1  0  0  0  0
  4 15  1  0  0  0  0
  4 14  1  0  0  0  0
  5 16  1  0  0  0  0
  5  3  2  0  0  0  0
  6 17  1  0  0  0  0
  7 11  1  0  0  0  0
  7  2  2  0  0  0  0
  8  2  1  0  0  0  0
  9  6  2  0  0  0  0
  9 13  1  0  0  0  0
 10  6  1  0  0  0  0
 11  9  1  0  0  0  0
 12 13  1  0  0  0  0
 12 16  1  0  0  0  0
 13  4  2  0  0  0  0
 15 18  1  1  0  0  0
 16 15  1  0  0  0  0
 17 14  2  0  0  0  0
 18 19  1  0  0  0  0
 20 22  1  0  0  0  0
 22 21  1  0  0  0  0
 22 25  1  1  0  0  0
 23 20  1  0  0  0  0
 24 19  1  6  0  0  0
 24 23  1  0  0  0  0
 24 26  1  0  0  0  0
 26 21  1  0  0  0  0
 27  1  1  0  0  0  0
 28 27  1  1  0  0  0
 28 31  1  0  0  0  0
 29 28  1  0  0  0  0
 30 29  1  0  0  0  0
 31 35  1  6  0  0  0
 31 32  1  0  0  0  0
 32 34  1  0  0  0  0
 34 33  1  0  0  0  0
 36 37  1  1  0  0  0
 36 35  1  0  0  0  0
 38 42  1  0  0  0  0
 38 36  1  1  0  0  0
 40 42  1  0  0  0  0
 41 40  1  0  0  0  0
 41 39  1  0  0  0  0
 43 38  1  0  0  0  0
 43 39  1  0  0  0  0
M  END
>  <MODEL>
8

>  <REMARK>
 VINA RESULT:      -7.9      2.311      7.593
  Name = 
  12 active torsions:
  status: ('A' for Active; 'I' for Inactive)
    1  A    between atoms: C_1  and  C_28
    2  A    between atoms: C_1  and  C_34
    3  A    between atoms: N_2  and  C_6
    4  A    between atoms: C_3  and  C_4
    5  A    between atoms: C_3  and  C_6
    6  A    between atoms: C_3  and  O_12
    7  A    between atoms: C_4  and  C_15
    8  A    between atoms: C_4  and  C_22
    9  A    between atoms: C_11  and  C_14
   10  A    between atoms: C_14  and  C_22
   11  A    between atoms: C_15  and  C_42
   12  A    between atoms: C_28  and  C_35
                            x       y       z     vdW  Elec       q    Type
                         _______ _______ _______ _____ _____    ______ ____

>  <TORSDO>
F 12

$$$$
=
 OpenBabel10262422283D

 43 47  0  0  1  0  0  0  0  0999 V2000
  186.8200  178.2390  139.0360 N   0  0  0  0  0  2  0  0  0  0  0  0
  187.8960  177.3760  146.8690 C   0  0  0  0  0  0  0  0  0  0  0  0
  184.7820  179.3710  138.9720 O   0  0  0  0  0  0  0  0  0  0  0  0
  184.7180  178.8390  143.2260 C   0  0  0  0  0  0  0  0  0  0  0  0
  185.6540  178.7740  139.6610 C   0  0  0  0  0  0  0  0  0  0  0  0
  186.0470  178.5130  145.6470 C   0  0  0  0  0  0  0  0  0  0  0  0
  188.5400  177.1480  145.7140 C   0  0  0  0  0  3  0  0  0  0  0  0
  188.3170  176.6450  148.0960 C   0  0  0  0  0  1  0  0  0  0  0  0
  186.7320  178.2670  144.4360 C   0  0  0  0  0  0  0  0  0  0  0  0
  186.7700  178.3760  146.9570 C   0  0  0  0  0  2  0  0  0  0  0  0
  188.1850  177.8910  144.4510 C   0  0  0  0  0  2  0  0  0  0  0  0
  186.5360  178.2970  141.9290 N   0  0  0  0  0  2  0  0  0  0  0  0
  186.0350  178.4450  143.2410 C   0  0  0  0  0  0  0  0  0  0  0  0
  184.0210  179.0920  144.4090 C   0  0  0  0  0  3  0  0  0  0  0  0
  184.2450  178.9440  141.8130 C   0  0  1  0  0  3  0  0  0  0  0  0
  185.4740  178.6200  141.0720 N   0  0  0  0  0  0  0  0  0  0  0  0
  184.7010  178.9280  145.6280 C   0  0  0  0  0  3  0  0  0  0  0  0
  183.1910  177.8730  141.5680 C   0  0  0  0  0  2  0  0  0  0  0  0
  181.8650  178.5020  141.1770 C   0  0  0  0  0  2  0  0  0  0  0  0
  181.3200  175.6500  138.8210 O   0  0  0  0  0  0  0  0  0  0  0  0
  179.2750  175.9050  140.0600 C   0  0  0  0  0  2  0  0  0  0  0  0
  180.3640  174.9470  139.5760 C   0  0  1  0  0  3  0  0  0  0  0  0
  182.0250  176.4710  139.7190 C   0  0  0  0  0  2  0  0  0  0  0  0
  181.1160  177.6000  140.2140 C   0  0  1  0  0  3  0  0  0  0  0  0
  179.7380  173.8660  138.7200 C   0  0  0  0  0  1  0  0  0  0  0  0
  179.9150  176.9870  140.9290 C   0  0  0  0  0  2  0  0  0  0  0  0
  187.0250  178.3130  137.5990 C   0  0  0  0  0  2  0  0  0  0  0  0
  186.8630  176.9230  136.9680 C   0  0  2  0  0  3  0  0  0  0  0  0
  185.6010  176.3400  137.2100 O   0  0  0  0  0  0  0  0  0  0  0  0
  184.6820  176.8360  136.2720 C   0  0  0  0  0  1  0  0  0  0  0  0
  188.0380  175.9410  137.1680 C   0  0  1  0  0  3  0  0  0  0  0  0
  187.9210  174.7590  136.2080 C   0  0  0  0  0  2  0  0  0  0  0  0
  187.0930  172.4220  135.9500 C   0  0  0  0  0  1  0  0  0  0  0  0
  187.5080  173.4930  136.9400 C   0  0  0  0  0  2  0  0  0  0  0  0
  189.3950  176.6220  137.0040 C   0  0  0  0  0  2  0  0  0  0  0  0
  190.3330  176.2700  138.1490 C   0  0  2  0  0  3  0  0  0  0  0  0
  190.4960  177.3900  138.9680 O   0  0  0  0  0  1  0  0  0  0  0  0
  191.6830  175.8270  137.5960 C   0  0  2  0  0  3  0  0  0  0  0  0
  193.8440  176.0030  138.7180 O   0  0  0  0  0  0  0  0  0  0  0  0
  193.1610  174.1180  137.3500 C   0  0  0  0  0  2  0  0  0  0  0  0
  194.3010  175.0600  137.7750 C   0  0  0  0  0  2  0  0  0  0  0  0
  191.9450  174.4890  137.9610 O   0  0  0  0  0  0  0  0  0  0  0  0
  192.8110  176.7480  138.1100 C   0  0  0  0  0  2  0  0  0  0  0  0
  1  5  1  0  0  0  0
  2 10  1  0  0  0  0
  2  8  1  0  0  0  0
  3  5  2  0  0  0  0
  4 13  2  0  0  0  0
  4 14  1  0  0  0  0
  5 16  1  0  0  0  0
  6 10  1  0  0  0  0
  7  2  2  0  0  0  0
  9 11  1  0  0  0  0
  9  6  2  0  0  0  0
 11  7  1  0  0  0  0
 12 13  1  0  0  0  0
 13  9  1  0  0  0  0
 14 17  2  0  0  0  0
 15 18  1  1  0  0  0
 15  4  1  0  0  0  0
 16 15  1  0  0  0  0
 16 12  1  0  0  0  0
 17  6  1  0  0  0  0
 19 18  1  0  0  0  0
 20 22  1  0  0  0  0
 20 23  1  0  0  0  0
 21 26  1  0  0  0  0
 22 25  1  6  0  0  0
 22 21  1  0  0  0  0
 23 24  1  0  0  0  0
 24 26  1  0  0  0  0
 24 19  1  1  0  0  0
 27  1  1  0  0  0  0
 28 31  1  0  0  0  0
 28 29  1  0  0  0  0
 28 27  1  1  0  0  0
 30 29  1  0  0  0  0
 31 32  1  6  0  0  0
 32 34  1  0  0  0  0
 33 34  1  0  0  0  0
 35 31  1  0  0  0  0
 35 36  1  0  0  0  0
 36 37  1  1  0  0  0
 38 42  1  0  0  0  0
 38 43  1  0  0  0  0
 38 36  1  1  0  0  0
 40 41  1  0  0  0  0
 40 42  1  0  0  0  0
 41 39  1  0  0  0  0
 43 39  1  0  0  0  0
M  END
>  <MODEL>
9

>  <REMARK>
 VINA RESULT:      -7.9      1.501      1.942
  Name = 
  12 active torsions:
  status: ('A' for Active; 'I' for Inactive)
    1  A    between atoms: C_1  and  C_28
    2  A    between atoms: C_1  and  C_34
    3  A    between atoms: N_2  and  C_6
    4  A    between atoms: C_3  and  C_4
    5  A    between atoms: C_3  and  C_6
    6  A    between atoms: C_3  and  O_12
    7  A    between atoms: C_4  and  C_15
    8  A    between atoms: C_4  and  C_22
    9  A    between atoms: C_11  and  C_14
   10  A    between atoms: C_14  and  C_22
   11  A    between atoms: C_15  and  C_42
   12  A    between atoms: C_28  and  C_35
                            x       y       z     vdW  Elec       q    Type
                         _______ _______ _______ _____ _____    ______ ____

>  <TORSDO>
F 12

$$$$
