=
 OpenBabel10262419413D

 31 34  0  0  1  0  0  0  0  0999 V2000
  188.3470  176.5940  143.2610 C   0  0  0  0  0  2  0  0  0  0  0  0
  187.1720  177.3400  143.8900 C   0  0  1  0  0  3  0  0  0  0  0  0
  187.6510  176.9700  146.2590 N   0  0  0  0  0  2  0  0  0  0  0  0
  187.5590  177.9970  145.2100 C   0  0  2  0  0  3  0  0  0  0  0  0
  186.4790  177.8520  146.1800 C   0  0  0  0  0  2  0  0  0  0  0  0
  186.5470  178.3490  142.9190 C   0  0  0  0  0  2  0  0  0  0  0  0
  185.0020  178.4380  142.9620 C   0  0  1  0  0  3  0  0  0  0  0  0
  184.4250  179.4600  143.9580 C   0  0  1  0  0  3  0  0  0  0  0  0
  183.0440  179.6420  143.7560 O   0  0  0  0  0  0  0  0  0  0  0  0
  183.4200  178.8790  144.8800 C   0  0  0  0  0  2  0  0  0  0  0  0
  185.3050  178.9310  140.4850 C   0  0  0  0  0  1  0  0  0  0  0  0
  184.3220  178.5860  141.5940 C   0  0  1  0  0  3  0  0  0  0  0  0
  183.6070  177.4330  141.2630 O   0  0  0  0  0  0  0  0  0  0  0  0
  182.7650  177.8140  140.2170 C   0  0  0  0  0  2  0  0  0  0  0  0
  181.0860  179.4590  139.8780 O   0  0  0  0  0  1  0  0  0  0  0  0
  181.5410  178.5010  140.7820 C   0  0  0  0  0  2  0  0  0  0  0  0
  189.1740  177.5070  142.3560 C   0  0  1  0  0  3  0  0  0  0  0  0
  191.9390  176.1930  146.3310 C   0  0  0  0  0  1  0  0  0  0  0  0
  190.6510  177.5540  142.7700 C   0  0  2  0  0  3  0  0  0  0  0  0
  191.6960  178.5950  144.6810 O   0  0  0  0  0  0  0  0  0  0  0  0
  191.1500  176.0450  143.6870 S   0  0  0  0  0  0  0  0  0  0  0  0
  190.8600  176.6900  145.3880 C   0  0  2  0  0  3  0  0  0  0  0  0
  190.7480  178.0950  145.4560 O   0  0  0  0  0  0  0  0  0  0  0  0
  191.0630  178.8590  143.4580 C   0  0  0  0  0  2  0  0  0  0  0  0
  188.9410  177.2390  140.8630 C   0  0  1  0  0  3  0  0  0  0  0  0
  189.1110  178.6600  138.8080 C   0  0  0  0  0  3  0  0  0  0  0  0
  188.6670  178.4950  140.0640 C   0  0  0  0  0  3  0  0  0  0  0  0
  190.0070  177.6550  138.1310 C   0  0  0  0  0  2  0  0  0  0  0  0
  190.9090  175.4510  138.2620 O   0  0  0  0  0  1  0  0  0  0  0  0
  190.0880  176.4100  140.2840 C   0  0  0  0  0  2  0  0  0  0  0  0
  189.9110  176.2750  138.7770 C   0  0  1  0  0  3  0  0  0  0  0  0
  1  2  1  0  0  0  0
  2  6  1  6  0  0  0
  4  2  1  6  0  0  0
  4  5  1  0  0  0  0
  4  3  1  0  0  0  0
  5  3  1  0  0  0  0
  7  6  1  6  0  0  0
  8  7  1  6  0  0  0
  8 10  1  0  0  0  0
  9  8  1  0  0  0  0
  9 10  1  0  0  0  0
 12 11  1  6  0  0  0
 12  7  1  0  0  0  0
 13 12  1  0  0  0  0
 14 16  1  0  0  0  0
 14 13  1  0  0  0  0
 15 16  1  0  0  0  0
 17  1  1  1  0  0  0
 19 17  1  1  0  0  0
 19 24  1  0  0  0  0
 19 21  1  0  0  0  0
 20 23  1  0  0  0  0
 21 22  1  0  0  0  0
 22 23  1  0  0  0  0
 22 18  1  1  0  0  0
 24 20  1  0  0  0  0
 25 17  1  1  0  0  0
 26 27  2  0  0  0  0
 27 25  1  0  0  0  0
 28 31  1  0  0  0  0
 28 26  1  0  0  0  0
 30 25  1  0  0  0  0
 31 29  1  6  0  0  0
 31 30  1  0  0  0  0
M  END
>  <MODEL>
1

>  <REMARK>
 VINA RESULT:      -6.8      0.000      0.000
  Name = 
  12 active torsions:
  status: ('A' for Active; 'I' for Inactive)
    1  A    between atoms: C_1  and  C_24
    2  A    between atoms: C_3  and  C_15
    3  A    between atoms: C_3  and  C_24
    4  A    between atoms: C_4  and  C_27
    5  A    between atoms: C_5  and  C_27
    6  A    between atoms: C_9  and  C_23
    7  A    between atoms: C_15  and  C_20
    8  A    between atoms: C_15  and  C_21
    9  A    between atoms: C_19  and  O_22
   10  A    between atoms: C_19  and  C_24
   11  A    between atoms: C_20  and  C_27
   12  A    between atoms: O_22  and  C_23
                            x       y       z     vdW  Elec       q    Type
                         _______ _______ _______ _____ _____    ______ ____

>  <TORSDO>
F 12

$$$$
=
 OpenBabel10262419413D

 31 34  0  0  1  0  0  0  0  0999 V2000
  187.7230  179.1110  141.2070 C   0  0  0  0  0  2  0  0  0  0  0  0
  186.2490  178.8800  141.5300 C   0  0  1  0  0  3  0  0  0  0  0  0
  184.7960  179.6710  139.7300 N   0  0  0  0  0  2  0  0  0  0  0  0
  185.4540  178.4820  140.2920 C   0  0  2  0  0  3  0  0  0  0  0  0
  184.0280  178.6980  140.5180 C   0  0  0  0  0  2  0  0  0  0  0  0
  186.0620  177.8700  142.6690 C   0  0  0  0  0  2  0  0  0  0  0  0
  185.4640  178.4490  143.9740 C   0  0  1  0  0  3  0  0  0  0  0  0
  183.9260  178.4710  144.0450 C   0  0  1  0  0  3  0  0  0  0  0  0
  183.4810  179.1320  145.2050 O   0  0  0  0  0  0  0  0  0  0  0  0
  183.3550  179.8380  143.9930 C   0  0  0  0  0  2  0  0  0  0  0  0
  187.1280  176.8280  145.0110 C   0  0  0  0  0  1  0  0  0  0  0  0
  186.0470  177.8690  145.2700 C   0  0  1  0  0  3  0  0  0  0  0  0
  186.5410  178.8820  146.0940 O   0  0  0  0  0  0  0  0  0  0  0  0
  186.4340  178.3800  147.3920 C   0  0  0  0  0  2  0  0  0  0  0  0
  188.2040  177.3340  148.5800 O   0  0  0  0  0  1  0  0  0  0  0  0
  187.7530  178.5660  148.1120 C   0  0  0  0  0  2  0  0  0  0  0  0
  188.5010  177.7960  141.1520 C   0  0  1  0  0  3  0  0  0  0  0  0
  188.1280  177.8470  136.1490 C   0  0  0  0  0  1  0  0  0  0  0  0
  189.4500  177.7320  139.9480 C   0  0  2  0  0  3  0  0  0  0  0  0
  189.5170  176.1730  138.1050 O   0  0  0  0  0  0  0  0  0  0  0  0
  188.9160  178.8540  138.5980 S   0  0  0  0  0  0  0  0  0  0  0  0
  187.9360  177.6260  137.6370 C   0  0  2  0  0  3  0  0  0  0  0  0
  188.2060  176.2840  137.9800 O   0  0  0  0  0  0  0  0  0  0  0  0
  189.7640  176.3070  139.4780 C   0  0  0  0  0  2  0  0  0  0  0  0
  189.1500  177.4280  142.4930 C   0  0  1  0  0  3  0  0  0  0  0  0
  190.6210  175.5430  143.2360 C   0  0  0  0  0  3  0  0  0  0  0  0
  189.5180  175.9630  142.5980 C   0  0  0  0  0  3  0  0  0  0  0  0
  191.6360  176.4990  143.8070 C   0  0  0  0  0  2  0  0  0  0  0  0
  192.0680  178.7780  144.3630 O   0  0  0  0  0  1  0  0  0  0  0  0
  190.3300  178.3550  142.7870 C   0  0  0  0  0  2  0  0  0  0  0  0
  191.0450  177.8860  144.0480 C   0  0  1  0  0  3  0  0  0  0  0  0
  2  1  1  6  0  0  0
  2  6  1  0  0  0  0
  3  4  1  0  0  0  0
  3  5  1  0  0  0  0
  4  5  1  0  0  0  0
  4  2  1  1  0  0  0
  7  6  1  6  0  0  0
  7 12  1  0  0  0  0
  8  7  1  1  0  0  0
  8  9  1  0  0  0  0
 10  8  1  0  0  0  0
 10  9  1  0  0  0  0
 12 11  1  6  0  0  0
 12 13  1  0  0  0  0
 13 14  1  0  0  0  0
 14 16  1  0  0  0  0
 16 15  1  0  0  0  0
 17  1  1  1  0  0  0
 19 17  1  1  0  0  0
 20 24  1  0  0  0  0
 21 19  1  0  0  0  0
 22 18  1  6  0  0  0
 22 23  1  0  0  0  0
 22 21  1  0  0  0  0
 23 20  1  0  0  0  0
 24 19  1  0  0  0  0
 25 17  1  6  0  0  0
 25 27  1  0  0  0  0
 25 30  1  0  0  0  0
 26 28  1  0  0  0  0
 27 26  2  0  0  0  0
 28 31  1  0  0  0  0
 30 31  1  0  0  0  0
 31 29  1  6  0  0  0
M  END
>  <MODEL>
2

>  <REMARK>
 VINA RESULT:      -6.6      2.536      5.903
  Name = 
  12 active torsions:
  status: ('A' for Active; 'I' for Inactive)
    1  A    between atoms: C_1  and  C_24
    2  A    between atoms: C_3  and  C_15
    3  A    between atoms: C_3  and  C_24
    4  A    between atoms: C_4  and  C_27
    5  A    between atoms: C_5  and  C_27
    6  A    between atoms: C_9  and  C_23
    7  A    between atoms: C_15  and  C_20
    8  A    between atoms: C_15  and  C_21
    9  A    between atoms: C_19  and  O_22
   10  A    between atoms: C_19  and  C_24
   11  A    between atoms: C_20  and  C_27
   12  A    between atoms: O_22  and  C_23
                            x       y       z     vdW  Elec       q    Type
                         _______ _______ _______ _____ _____    ______ ____

>  <TORSDO>
F 12

$$$$
=
 OpenBabel10262419413D

 31 34  0  0  1  0  0  0  0  0999 V2000
  188.4980  177.0160  140.8310 C   0  0  0  0  0  2  0  0  0  0  0  0
  189.6600  177.6110  140.0390 C   0  0  1  0  0  3  0  0  0  0  0  0
  192.0800  177.2630  140.0150 N   0  0  0  0  0  2  0  0  0  0  0  0
  190.7810  176.5980  139.8330 C   0  0  2  0  0  3  0  0  0  0  0  0
  191.5800  176.9620  138.6670 C   0  0  0  0  0  2  0  0  0  0  0  0
  189.1980  178.2190  138.7100 C   0  0  0  0  0  2  0  0  0  0  0  0
  187.9530  177.5540  138.0760 C   0  0  1  0  0  3  0  0  0  0  0  0
  186.8150  178.5150  137.6850 C   0  0  1  0  0  3  0  0  0  0  0  0
  185.7480  177.8210  137.0860 O   0  0  0  0  0  0  0  0  0  0  0  0
  185.5500  178.2530  138.4120 C   0  0  0  0  0  2  0  0  0  0  0  0
  189.2360  177.1580  135.9150 C   0  0  0  0  0  1  0  0  0  0  0  0
  188.2500  176.5850  136.9230 C   0  0  1  0  0  3  0  0  0  0  0  0
  188.7110  175.3590  137.4050 O   0  0  0  0  0  0  0  0  0  0  0  0
  188.5100  174.4570  136.3590 C   0  0  0  0  0  2  0  0  0  0  0  0
  190.4840  173.6710  137.4190 O   0  0  0  0  0  1  0  0  0  0  0  0
  189.5420  173.3520  136.4440 C   0  0  0  0  0  2  0  0  0  0  0  0
  188.6950  177.1890  142.3370 C   0  0  1  0  0  3  0  0  0  0  0  0
  191.8200  176.4370  146.1890 C   0  0  0  0  0  1  0  0  0  0  0  0
  190.1460  177.5330  142.6980 C   0  0  2  0  0  3  0  0  0  0  0  0
  191.0300  178.7520  144.5860 O   0  0  0  0  0  0  0  0  0  0  0  0
  190.9770  176.1520  143.5740 S   0  0  0  0  0  0  0  0  0  0  0  0
  190.6280  176.7110  145.2940 C   0  0  2  0  0  3  0  0  0  0  0  0
  190.2350  178.0630  145.3860 O   0  0  0  0  0  0  0  0  0  0  0  0
  190.3110  178.8900  143.3910 C   0  0  0  0  0  2  0  0  0  0  0  0
  187.6470  178.1090  142.9770 C   0  0  1  0  0  3  0  0  0  0  0  0
  185.2810  178.6920  142.4000 C   0  0  0  0  0  3  0  0  0  0  0  0
  186.5570  178.5360  142.0160 C   0  0  0  0  0  3  0  0  0  0  0  0
  184.8100  178.3540  143.7910 C   0  0  0  0  0  2  0  0  0  0  0  0
  185.5100  177.8120  146.0070 O   0  0  0  0  0  1  0  0  0  0  0  0
  187.0940  177.4800  144.2560 C   0  0  0  0  0  2  0  0  0  0  0  0
  185.9580  178.3400  144.7980 C   0  0  1  0  0  3  0  0  0  0  0  0
  2  6  1  6  0  0  0
  2  1  1  0  0  0  0
  4  3  1  0  0  0  0
  4  2  1  6  0  0  0
  5  4  1  0  0  0  0
  5  3  1  0  0  0  0
  7  6  1  6  0  0  0
  8  7  1  1  0  0  0
  8 10  1  0  0  0  0
  9  8  1  0  0  0  0
  9 10  1  0  0  0  0
 12 11  1  6  0  0  0
 12 13  1  0  0  0  0
 12  7  1  0  0  0  0
 14 16  1  0  0  0  0
 14 13  1  0  0  0  0
 16 15  1  0  0  0  0
 17  1  1  6  0  0  0
 19 17  1  1  0  0  0
 19 24  1  0  0  0  0
 19 21  1  0  0  0  0
 20 23  1  0  0  0  0
 21 22  1  0  0  0  0
 22 23  1  0  0  0  0
 22 18  1  1  0  0  0
 24 20  1  0  0  0  0
 25 17  1  6  0  0  0
 25 30  1  0  0  0  0
 26 28  1  0  0  0  0
 27 26  2  0  0  0  0
 27 25  1  0  0  0  0
 28 31  1  0  0  0  0
 30 31  1  0  0  0  0
 31 29  1  1  0  0  0
M  END
>  <MODEL>
3

>  <REMARK>
 VINA RESULT:      -6.5      2.440      6.010
  Name = 
  12 active torsions:
  status: ('A' for Active; 'I' for Inactive)
    1  A    between atoms: C_1  and  C_24
    2  A    between atoms: C_3  and  C_15
    3  A    between atoms: C_3  and  C_24
    4  A    between atoms: C_4  and  C_27
    5  A    between atoms: C_5  and  C_27
    6  A    between atoms: C_9  and  C_23
    7  A    between atoms: C_15  and  C_20
    8  A    between atoms: C_15  and  C_21
    9  A    between atoms: C_19  and  O_22
   10  A    between atoms: C_19  and  C_24
   11  A    between atoms: C_20  and  C_27
   12  A    between atoms: O_22  and  C_23
                            x       y       z     vdW  Elec       q    Type
                         _______ _______ _______ _____ _____    ______ ____

>  <TORSDO>
F 12

$$$$
=
 OpenBabel10262419413D

 31 34  0  0  1  0  0  0  0  0999 V2000
  188.1550  178.3060  141.9600 C   0  0  0  0  0  2  0  0  0  0  0  0
  187.4210  177.4560  142.9940 C   0  0  1  0  0  3  0  0  0  0  0  0
  188.5190  176.8280  145.0870 N   0  0  0  0  0  2  0  0  0  0  0  0
  187.7490  177.8880  144.4190 C   0  0  2  0  0  3  0  0  0  0  0  0
  187.0900  177.0060  145.3770 C   0  0  0  0  0  2  0  0  0  0  0  0
  185.9090  177.4290  142.7460 C   0  0  0  0  0  2  0  0  0  0  0  0
  185.3020  178.7500  142.2160 C   0  0  1  0  0  3  0  0  0  0  0  0
  184.5590  178.6450  140.8710 C   0  0  1  0  0  3  0  0  0  0  0  0
  184.6550  179.8470  140.1440 O   0  0  0  0  0  0  0  0  0  0  0  0
  185.4530  178.7760  139.6950 C   0  0  0  0  0  2  0  0  0  0  0  0
  183.0160  179.0400  143.2940 C   0  0  0  0  0  1  0  0  0  0  0  0
  184.4550  179.5310  143.2310 C   0  0  1  0  0  3  0  0  0  0  0  0
  185.0340  179.4920  144.5010 O   0  0  0  0  0  0  0  0  0  0  0  0
  184.0480  178.9620  145.3350 C   0  0  0  0  0  2  0  0  0  0  0  0
  185.5790  179.5200  147.0630 O   0  0  0  0  0  1  0  0  0  0  0  0
  184.6740  178.5440  146.6480 C   0  0  0  0  0  2  0  0  0  0  0  0
  189.2450  177.5080  141.2450 C   0  0  1  0  0  3  0  0  0  0  0  0
  188.8210  175.4240  136.7010 C   0  0  0  0  0  1  0  0  0  0  0  0
  189.4190  177.9410  139.7830 C   0  0  2  0  0  3  0  0  0  0  0  0
  190.8470  177.0410  138.0560 O   0  0  0  0  0  0  0  0  0  0  0  0
  188.1360  177.2070  138.6970 S   0  0  0  0  0  0  0  0  0  0  0  0
  189.0900  175.7250  138.1620 C   0  0  2  0  0  3  0  0  0  0  0  0
  190.4770  175.8210  138.4040 O   0  0  0  0  0  0  0  0  0  0  0  0
  190.8460  177.7750  139.2500 C   0  0  0  0  0  2  0  0  0  0  0  0
  190.5530  177.4320  142.0440 C   0  0  1  0  0  3  0  0  0  0  0  0
  191.3600  178.5360  144.1410 C   0  0  0  0  0  3  0  0  0  0  0  0
  190.7830  178.6350  142.9340 C   0  0  0  0  0  3  0  0  0  0  0  0
  191.7300  177.2090  144.7520 C   0  0  0  0  0  2  0  0  0  0  0  0
  191.9930  174.8760  144.3300 O   0  0  0  0  0  1  0  0  0  0  0  0
  190.6370  176.1090  142.8060 C   0  0  0  0  0  2  0  0  0  0  0  0
  191.8710  176.1120  143.7000 C   0  0  1  0  0  3  0  0  0  0  0  0
  2  1  1  6  0  0  0
  3  5  1  0  0  0  0
  4  2  1  6  0  0  0
  4  3  1  0  0  0  0
  4  5  1  0  0  0  0
  6  2  1  0  0  0  0
  7  6  1  1  0  0  0
  7 12  1  0  0  0  0
  8  7  1  1  0  0  0
  9  8  1  0  0  0  0
 10  9  1  0  0  0  0
 10  8  1  0  0  0  0
 12 11  1  1  0  0  0
 12 13  1  0  0  0  0
 13 14  1  0  0  0  0
 14 16  1  0  0  0  0
 16 15  1  0  0  0  0
 17  1  1  1  0  0  0
 19 17  1  1  0  0  0
 20 23  1  0  0  0  0
 20 24  1  0  0  0  0
 21 19  1  0  0  0  0
 22 18  1  6  0  0  0
 22 23  1  0  0  0  0
 22 21  1  0  0  0  0
 24 19  1  0  0  0  0
 25 17  1  1  0  0  0
 25 30  1  0  0  0  0
 25 27  1  0  0  0  0
 26 28  1  0  0  0  0
 27 26  2  0  0  0  0
 30 31  1  0  0  0  0
 31 29  1  1  0  0  0
 31 28  1  0  0  0  0
M  END
>  <MODEL>
4

>  <REMARK>
 VINA RESULT:      -6.1      2.043      4.904
  Name = 
  12 active torsions:
  status: ('A' for Active; 'I' for Inactive)
    1  A    between atoms: C_1  and  C_24
    2  A    between atoms: C_3  and  C_15
    3  A    between atoms: C_3  and  C_24
    4  A    between atoms: C_4  and  C_27
    5  A    between atoms: C_5  and  C_27
    6  A    between atoms: C_9  and  C_23
    7  A    between atoms: C_15  and  C_20
    8  A    between atoms: C_15  and  C_21
    9  A    between atoms: C_19  and  O_22
   10  A    between atoms: C_19  and  C_24
   11  A    between atoms: C_20  and  C_27
   12  A    between atoms: O_22  and  C_23
                            x       y       z     vdW  Elec       q    Type
                         _______ _______ _______ _____ _____    ______ ____

>  <TORSDO>
F 12

$$$$
=
 OpenBabel10262419413D

 31 34  0  0  1  0  0  0  0  0999 V2000
  188.5490  178.6500  139.5910 C   0  0  0  0  0  2  0  0  0  0  0  0
  187.8680  178.4260  140.9400 C   0  0  1  0  0  3  0  0  0  0  0  0
  185.7040  179.5300  140.6670 N   0  0  0  0  0  2  0  0  0  0  0  0
  186.3650  178.2220  140.7880 C   0  0  2  0  0  3  0  0  0  0  0  0
  185.6620  178.7890  141.9340 C   0  0  0  0  0  2  0  0  0  0  0  0
  188.5160  177.2810  141.7270 C   0  0  0  0  0  2  0  0  0  0  0  0
  188.9260  177.6250  143.1790 C   0  0  1  0  0  3  0  0  0  0  0  0
  188.2190  176.8120  144.2770 C   0  0  1  0  0  3  0  0  0  0  0  0
  188.0960  177.5600  145.4630 O   0  0  0  0  0  0  0  0  0  0  0  0
  186.9230  177.3960  144.6990 C   0  0  0  0  0  2  0  0  0  0  0  0
  190.9180  179.0280  143.9120 C   0  0  0  0  0  1  0  0  0  0  0  0
  190.4390  177.6640  143.4360 C   0  0  1  0  0  3  0  0  0  0  0  0
  190.8180  176.6750  144.3460 O   0  0  0  0  0  0  0  0  0  0  0  0
  191.5660  177.3410  145.3170 C   0  0  0  0  0  2  0  0  0  0  0  0
  192.5100  176.0560  147.0770 O   0  0  0  0  0  1  0  0  0  0  0  0
  191.3390  176.6860  146.6630 C   0  0  0  0  0  2  0  0  0  0  0  0
  188.0550  177.6580  138.5390 C   0  0  1  0  0  3  0  0  0  0  0  0
  184.9360  176.0710  134.9440 C   0  0  0  0  0  1  0  0  0  0  0  0
  186.9870  178.2670  137.6210 C   0  0  2  0  0  3  0  0  0  0  0  0
  186.8350  178.2790  135.2110 O   0  0  0  0  0  0  0  0  0  0  0  0
  185.5470  177.1480  137.4130 S   0  0  0  0  0  0  0  0  0  0  0  0
  186.1110  176.3130  135.8710 C   0  0  2  0  0  3  0  0  0  0  0  0
  187.1460  176.9940  135.1970 O   0  0  0  0  0  0  0  0  0  0  0  0
  187.5400  178.8120  136.2990 C   0  0  0  0  0  2  0  0  0  0  0  0
  189.1990  176.9500  137.8000 C   0  0  1  0  0  3  0  0  0  0  0  0
  191.6170  176.5680  138.3260 C   0  0  0  0  0  3  0  0  0  0  0  0
  190.5730  177.4070  138.2430 C   0  0  0  0  0  3  0  0  0  0  0  0
  191.4830  175.0860  138.0850 C   0  0  0  0  0  2  0  0  0  0  0  0
  190.0480  173.3690  137.2580 O   0  0  0  0  0  1  0  0  0  0  0  0
  189.0270  175.4330  137.8780 C   0  0  0  0  0  2  0  0  0  0  0  0
  190.2410  174.7490  137.2620 C   0  0  1  0  0  3  0  0  0  0  0  0
  2  1  1  6  0  0  0
  2  6  1  0  0  0  0
  3  4  1  0  0  0  0
  3  5  1  0  0  0  0
  4  2  1  1  0  0  0
  4  5  1  0  0  0  0
  7  6  1  6  0  0  0
  7 12  1  0  0  0  0
  8  7  1  6  0  0  0
  8 10  1  0  0  0  0
  8  9  1  0  0  0  0
 10  9  1  0  0  0  0
 12 11  1  1  0  0  0
 12 13  1  0  0  0  0
 13 14  1  0  0  0  0
 14 16  1  0  0  0  0
 16 15  1  0  0  0  0
 17  1  1  6  0  0  0
 19 17  1  6  0  0  0
 20 24  1  0  0  0  0
 21 19  1  0  0  0  0
 22 18  1  6  0  0  0
 22 21  1  0  0  0  0
 23 20  1  0  0  0  0
 23 22  1  0  0  0  0
 24 19  1  0  0  0  0
 25 30  1  0  0  0  0
 25 27  1  0  0  0  0
 25 17  1  1  0  0  0
 27 26  2  0  0  0  0
 28 26  1  0  0  0  0
 31 29  1  1  0  0  0
 31 30  1  0  0  0  0
 31 28  1  0  0  0  0
M  END
>  <MODEL>
5

>  <REMARK>
 VINA RESULT:      -6.0      3.264      7.078
  Name = 
  12 active torsions:
  status: ('A' for Active; 'I' for Inactive)
    1  A    between atoms: C_1  and  C_24
    2  A    between atoms: C_3  and  C_15
    3  A    between atoms: C_3  and  C_24
    4  A    between atoms: C_4  and  C_27
    5  A    between atoms: C_5  and  C_27
    6  A    between atoms: C_9  and  C_23
    7  A    between atoms: C_15  and  C_20
    8  A    between atoms: C_15  and  C_21
    9  A    between atoms: C_19  and  O_22
   10  A    between atoms: C_19  and  C_24
   11  A    between atoms: C_20  and  C_27
   12  A    between atoms: O_22  and  C_23
                            x       y       z     vdW  Elec       q    Type
                         _______ _______ _______ _____ _____    ______ ____

>  <TORSDO>
F 12

$$$$
=
 OpenBabel10262419413D

 31 34  0  0  1  0  0  0  0  0999 V2000
  188.7120  178.3590  139.6490 C   0  0  0  0  0  2  0  0  0  0  0  0
  188.4600  177.7800  141.0400 C   0  0  1  0  0  3  0  0  0  0  0  0
  190.3030  176.1910  141.2790 N   0  0  0  0  0  2  0  0  0  0  0  0
  189.7630  177.4690  141.7680 C   0  0  2  0  0  3  0  0  0  0  0  0
  189.6130  176.2610  142.5740 C   0  0  0  0  0  2  0  0  0  0  0  0
  187.5460  178.6800  141.8790 C   0  0  0  0  0  2  0  0  0  0  0  0
  186.4600  177.9410  142.6970 C   0  0  1  0  0  3  0  0  0  0  0  0
  186.4410  178.2490  144.2050 C   0  0  1  0  0  3  0  0  0  0  0  0
  186.3750  177.0660  144.9650 O   0  0  0  0  0  0  0  0  0  0  0  0
  187.6230  177.7190  144.9280 C   0  0  0  0  0  2  0  0  0  0  0  0
  184.0520  178.6620  143.0870 C   0  0  0  0  0  1  0  0  0  0  0  0
  185.0400  178.0250  142.1200 C   0  0  1  0  0  3  0  0  0  0  0  0
  185.0340  178.7110  140.9040 O   0  0  0  0  0  0  0  0  0  0  0  0
  183.6920  179.0010  140.6560 C   0  0  0  0  0  2  0  0  0  0  0  0
  184.2720  180.5430  138.9450 O   0  0  0  0  0  1  0  0  0  0  0  0
  183.5230  179.3970  139.2040 C   0  0  0  0  0  2  0  0  0  0  0  0
  188.1990  177.4280  138.5500 C   0  0  1  0  0  3  0  0  0  0  0  0
  185.0460  176.0310  134.9070 C   0  0  0  0  0  1  0  0  0  0  0  0
  187.0670  178.0630  137.7320 C   0  0  2  0  0  3  0  0  0  0  0  0
  186.8290  178.3090  135.3410 O   0  0  0  0  0  0  0  0  0  0  0  0
  185.6850  176.8890  137.4540 S   0  0  0  0  0  0  0  0  0  0  0  0
  186.2380  176.2470  135.8180 C   0  0  2  0  0  3  0  0  0  0  0  0
  187.2090  177.0520  135.1870 O   0  0  0  0  0  0  0  0  0  0  0  0
  187.5410  178.7690  136.4570 C   0  0  0  0  0  2  0  0  0  0  0  0
  189.3270  176.8180  137.7070 C   0  0  1  0  0  3  0  0  0  0  0  0
  191.7930  176.5580  138.0550 C   0  0  0  0  0  3  0  0  0  0  0  0
  190.7010  177.3370  138.0790 C   0  0  0  0  0  3  0  0  0  0  0  0
  191.7260  175.0820  137.7600 C   0  0  0  0  0  2  0  0  0  0  0  0
  190.3360  173.3180  136.9550 O   0  0  0  0  0  1  0  0  0  0  0  0
  189.2460  175.2920  137.7300 C   0  0  0  0  0  2  0  0  0  0  0  0
  190.4520  174.7050  137.0070 C   0  0  1  0  0  3  0  0  0  0  0  0
  2  1  1  6  0  0  0
  2  6  1  0  0  0  0
  3  4  1  0  0  0  0
  3  5  1  0  0  0  0
  4  2  1  6  0  0  0
  4  5  1  0  0  0  0
  7  6  1  6  0  0  0
  8  7  1  6  0  0  0
  8 10  1  0  0  0  0
  8  9  1  0  0  0  0
 10  9  1  0  0  0  0
 12  7  1  0  0  0  0
 12 11  1  1  0  0  0
 13 12  1  0  0  0  0
 14 13  1  0  0  0  0
 15 16  1  0  0  0  0
 16 14  1  0  0  0  0
 17  1  1  1  0  0  0
 19 17  1  6  0  0  0
 20 24  1  0  0  0  0
 21 19  1  0  0  0  0
 22 18  1  6  0  0  0
 22 21  1  0  0  0  0
 23 20  1  0  0  0  0
 23 22  1  0  0  0  0
 24 19  1  0  0  0  0
 25 30  1  0  0  0  0
 25 27  1  0  0  0  0
 25 17  1  1  0  0  0
 26 27  2  0  0  0  0
 28 26  1  0  0  0  0
 31 29  1  1  0  0  0
 31 30  1  0  0  0  0
 31 28  1  0  0  0  0
M  END
>  <MODEL>
6

>  <REMARK>
 VINA RESULT:      -6.0      3.172      5.545
  Name = 
  12 active torsions:
  status: ('A' for Active; 'I' for Inactive)
    1  A    between atoms: C_1  and  C_24
    2  A    between atoms: C_3  and  C_15
    3  A    between atoms: C_3  and  C_24
    4  A    between atoms: C_4  and  C_27
    5  A    between atoms: C_5  and  C_27
    6  A    between atoms: C_9  and  C_23
    7  A    between atoms: C_15  and  C_20
    8  A    between atoms: C_15  and  C_21
    9  A    between atoms: C_19  and  O_22
   10  A    between atoms: C_19  and  C_24
   11  A    between atoms: C_20  and  C_27
   12  A    between atoms: O_22  and  C_23
                            x       y       z     vdW  Elec       q    Type
                         _______ _______ _______ _____ _____    ______ ____

>  <TORSDO>
F 12

$$$$
=
 OpenBabel10262419413D

 31 34  0  0  1  0  0  0  0  0999 V2000
  187.4840  178.6500  141.9190 C   0  0  0  0  0  2  0  0  0  0  0  0
  187.1980  178.3120  140.4580 C   0  0  1  0  0  3  0  0  0  0  0  0
  184.7830  178.1030  140.1420 N   0  0  0  0  0  2  0  0  0  0  0  0
  185.9340  178.9990  139.9550 C   0  0  2  0  0  3  0  0  0  0  0  0
  185.3860  178.2730  138.8130 C   0  0  0  0  0  2  0  0  0  0  0  0
  188.4000  178.6100  139.5540 C   0  0  0  0  0  2  0  0  0  0  0  0
  188.4540  177.8000  138.2360 C   0  0  1  0  0  3  0  0  0  0  0  0
  188.7260  178.6220  136.9640 C   0  0  1  0  0  3  0  0  0  0  0  0
  188.4820  177.8610  135.8050 O   0  0  0  0  0  0  0  0  0  0  0  0
  187.5180  178.8350  136.1310 C   0  0  0  0  0  2  0  0  0  0  0  0
  188.7810  175.3930  137.4810 C   0  0  0  0  0  1  0  0  0  0  0  0
  189.3570  176.5600  138.2710 C   0  0  1  0  0  3  0  0  0  0  0  0
  190.6420  176.8620  137.8170 O   0  0  0  0  0  0  0  0  0  0  0  0
  191.4250  175.7660  138.1800 C   0  0  0  0  0  2  0  0  0  0  0  0
  193.5050  176.7840  137.6580 O   0  0  0  0  0  1  0  0  0  0  0  0
  192.6660  175.7270  137.3140 C   0  0  0  0  0  2  0  0  0  0  0  0
  187.4220  177.4080  142.8070 C   0  0  1  0  0  3  0  0  0  0  0  0
  192.2460  177.5040  141.4310 C   0  0  0  0  0  1  0  0  0  0  0  0
  188.7820  177.0710  143.4330 C   0  0  2  0  0  3  0  0  0  0  0  0
  190.4930  175.5340  142.6980 O   0  0  0  0  0  0  0  0  0  0  0  0
  190.0740  178.2820  142.9500 S   0  0  0  0  0  0  0  0  0  0  0  0
  190.7380  177.3600  141.5000 C   0  0  2  0  0  3  0  0  0  0  0  0
  190.3650  176.0010  141.4670 O   0  0  0  0  0  0  0  0  0  0  0  0
  189.2080  175.6100  143.2510 C   0  0  0  0  0  2  0  0  0  0  0  0
  186.2560  177.4420  143.8040 C   0  0  1  0  0  3  0  0  0  0  0  0
  186.0730  178.0560  146.2240 C   0  0  0  0  0  3  0  0  0  0  0  0
  186.7010  177.3810  145.2500 C   0  0  0  0  0  3  0  0  0  0  0  0
  184.9410  179.0110  145.9440 C   0  0  0  0  0  2  0  0  0  0  0  0
  183.3930  179.7650  144.2930 O   0  0  0  0  0  1  0  0  0  0  0  0
  185.3430  178.6340  143.5170 C   0  0  0  0  0  2  0  0  0  0  0  0
  184.2740  178.7310  144.5990 C   0  0  1  0  0  3  0  0  0  0  0  0
  2  6  1  6  0  0  0
  2  1  1  0  0  0  0
  4  3  1  0  0  0  0
  4  2  1  1  0  0  0
  5  4  1  0  0  0  0
  5  3  1  0  0  0  0
  7 12  1  0  0  0  0
  7  6  1  1  0  0  0
  8  7  1  1  0  0  0
  9 10  1  0  0  0  0
  9  8  1  0  0  0  0
 10  8  1  0  0  0  0
 12 11  1  6  0  0  0
 13 14  1  0  0  0  0
 13 12  1  0  0  0  0
 16 15  1  0  0  0  0
 16 14  1  0  0  0  0
 17  1  1  1  0  0  0
 19 17  1  6  0  0  0
 20 24  1  0  0  0  0
 21 19  1  0  0  0  0
 22 18  1  1  0  0  0
 22 21  1  0  0  0  0
 23 22  1  0  0  0  0
 23 20  1  0  0  0  0
 24 19  1  0  0  0  0
 25 17  1  6  0  0  0
 25 27  1  0  0  0  0
 27 26  2  0  0  0  0
 28 26  1  0  0  0  0
 30 25  1  0  0  0  0
 30 31  1  0  0  0  0
 31 29  1  6  0  0  0
 31 28  1  0  0  0  0
M  END
>  <MODEL>
7

>  <REMARK>
 VINA RESULT:      -5.9      2.601      6.993
  Name = 
  12 active torsions:
  status: ('A' for Active; 'I' for Inactive)
    1  A    between atoms: C_1  and  C_24
    2  A    between atoms: C_3  and  C_15
    3  A    between atoms: C_3  and  C_24
    4  A    between atoms: C_4  and  C_27
    5  A    between atoms: C_5  and  C_27
    6  A    between atoms: C_9  and  C_23
    7  A    between atoms: C_15  and  C_20
    8  A    between atoms: C_15  and  C_21
    9  A    between atoms: C_19  and  O_22
   10  A    between atoms: C_19  and  C_24
   11  A    between atoms: C_20  and  C_27
   12  A    between atoms: O_22  and  C_23
                            x       y       z     vdW  Elec       q    Type
                         _______ _______ _______ _____ _____    ______ ____

>  <TORSDO>
F 12

$$$$
=
 OpenBabel10262419413D

 31 34  0  0  1  0  0  0  0  0999 V2000
  187.2250  178.8970  141.8520 C   0  0  0  0  0  2  0  0  0  0  0  0
  186.6450  178.6710  140.4580 C   0  0  1  0  0  3  0  0  0  0  0  0
  188.0610  178.8270  138.4710 N   0  0  0  0  0  2  0  0  0  0  0  0
  187.6220  177.9310  139.5520 C   0  0  2  0  0  3  0  0  0  0  0  0
  187.0570  177.7860  138.2140 C   0  0  0  0  0  2  0  0  0  0  0  0
  185.2820  177.9700  140.5100 C   0  0  0  0  0  2  0  0  0  0  0  0
  184.0570  178.8870  140.2780 C   0  0  1  0  0  3  0  0  0  0  0  0
  184.0370  179.6390  138.9350 C   0  0  1  0  0  3  0  0  0  0  0  0
  182.8320  179.4110  138.2440 O   0  0  0  0  0  0  0  0  0  0  0  0
  182.9770  180.6720  138.8560 C   0  0  0  0  0  2  0  0  0  0  0  0
  182.7170  176.7260  140.3180 C   0  0  0  0  0  1  0  0  0  0  0  0
  182.6950  178.2310  140.5410 C   0  0  1  0  0  3  0  0  0  0  0  0
  182.2390  178.5210  141.8280 O   0  0  0  0  0  0  0  0  0  0  0  0
  180.9310  178.9770  141.6570 C   0  0  0  0  0  2  0  0  0  0  0  0
  179.8680  180.8880  142.5840 O   0  0  0  0  0  1  0  0  0  0  0  0
  180.4750  179.6800  142.9180 C   0  0  0  0  0  2  0  0  0  0  0  0
  187.2810  177.5990  142.6570 C   0  0  1  0  0  3  0  0  0  0  0  0
  191.9450  177.6030  140.8090 C   0  0  0  0  0  1  0  0  0  0  0  0
  188.6960  177.2890  143.1620 C   0  0  2  0  0  3  0  0  0  0  0  0
  190.3270  175.7090  142.3400 O   0  0  0  0  0  0  0  0  0  0  0  0
  189.9330  178.4670  142.4940 S   0  0  0  0  0  0  0  0  0  0  0  0
  190.4520  177.4710  141.0340 C   0  0  2  0  0  3  0  0  0  0  0  0
  190.0770  176.1130  141.1060 O   0  0  0  0  0  0  0  0  0  0  0  0
  189.1020  175.8180  143.0130 C   0  0  0  0  0  2  0  0  0  0  0  0
  186.1900  177.5140  143.7330 C   0  0  1  0  0  3  0  0  0  0  0  0
  186.2000  177.7740  146.2240 C   0  0  0  0  0  3  0  0  0  0  0  0
  186.7340  177.2330  145.1180 C   0  0  0  0  0  3  0  0  0  0  0  0
  185.0840  178.7850  146.1690 C   0  0  0  0  0  2  0  0  0  0  0  0
  183.4480  179.8060  144.7650 O   0  0  0  0  0  1  0  0  0  0  0  0
  185.2990  178.7560  143.6900 C   0  0  0  0  0  2  0  0  0  0  0  0
  184.3140  178.7180  144.8520 C   0  0  1  0  0  3  0  0  0  0  0  0
  2  6  1  1  0  0  0
  2  1  1  0  0  0  0
  3  4  1  0  0  0  0
  4  2  1  1  0  0  0
  5  3  1  0  0  0  0
  5  4  1  0  0  0  0
  7  6  1  6  0  0  0
  7 12  1  0  0  0  0
  8  7  1  1  0  0  0
  9 10  1  0  0  0  0
  9  8  1  0  0  0  0
 10  8  1  0  0  0  0
 12 11  1  1  0  0  0
 12 13  1  0  0  0  0
 14 13  1  0  0  0  0
 14 16  1  0  0  0  0
 15 16  1  0  0  0  0
 17  1  1  1  0  0  0
 19 17  1  6  0  0  0
 20 24  1  0  0  0  0
 21 19  1  0  0  0  0
 22 18  1  1  0  0  0
 22 23  1  0  0  0  0
 22 21  1  0  0  0  0
 23 20  1  0  0  0  0
 24 19  1  0  0  0  0
 25 17  1  6  0  0  0
 25 27  1  0  0  0  0
 27 26  2  0  0  0  0
 28 26  1  0  0  0  0
 30 25  1  0  0  0  0
 30 31  1  0  0  0  0
 31 29  1  6  0  0  0
 31 28  1  0  0  0  0
M  END
>  <MODEL>
8

>  <REMARK>
 VINA RESULT:      -5.8      2.539      5.360
  Name = 
  12 active torsions:
  status: ('A' for Active; 'I' for Inactive)
    1  A    between atoms: C_1  and  C_24
    2  A    between atoms: C_3  and  C_15
    3  A    between atoms: C_3  and  C_24
    4  A    between atoms: C_4  and  C_27
    5  A    between atoms: C_5  and  C_27
    6  A    between atoms: C_9  and  C_23
    7  A    between atoms: C_15  and  C_20
    8  A    between atoms: C_15  and  C_21
    9  A    between atoms: C_19  and  O_22
   10  A    between atoms: C_19  and  C_24
   11  A    between atoms: C_20  and  C_27
   12  A    between atoms: O_22  and  C_23
                            x       y       z     vdW  Elec       q    Type
                         _______ _______ _______ _____ _____    ______ ____

>  <TORSDO>
F 12

$$$$
=
 OpenBabel10262419413D

 31 34  0  0  1  0  0  0  0  0999 V2000
  188.8060  178.1270  139.4770 C   0  0  0  0  0  2  0  0  0  0  0  0
  188.1010  177.4380  138.3100 C   0  0  1  0  0  3  0  0  0  0  0  0
  185.9330  178.5660  138.2370 N   0  0  0  0  0  2  0  0  0  0  0  0
  187.2150  178.4060  137.5340 C   0  0  2  0  0  3  0  0  0  0  0  0
  186.0260  177.7150  137.0430 C   0  0  0  0  0  2  0  0  0  0  0  0
  189.0900  176.7160  137.3880 C   0  0  0  0  0  2  0  0  0  0  0  0
  188.9610  175.1740  137.3570 C   0  0  1  0  0  3  0  0  0  0  0  0
  187.9320  174.6160  136.3580 C   0  0  1  0  0  3  0  0  0  0  0  0
  187.7200  173.2390  136.5630 O   0  0  0  0  0  0  0  0  0  0  0  0
  186.7000  174.1040  137.0060 C   0  0  0  0  0  2  0  0  0  0  0  0
  190.8680  174.4670  135.8300 C   0  0  0  0  0  1  0  0  0  0  0  0
  190.2870  174.4120  137.2360 C   0  0  1  0  0  3  0  0  0  0  0  0
  191.2210  174.8810  138.1620 O   0  0  0  0  0  0  0  0  0  0  0  0
  192.4400  174.8830  137.4820 C   0  0  0  0  0  2  0  0  0  0  0  0
  194.5600  175.5330  138.3290 O   0  0  0  0  0  1  0  0  0  0  0  0
  193.2990  176.0190  137.9940 C   0  0  0  0  0  2  0  0  0  0  0  0
  188.6940  177.3100  140.7630 C   0  0  1  0  0  3  0  0  0  0  0  0
  191.6620  177.0520  144.8010 C   0  0  0  0  0  1  0  0  0  0  0  0
  190.0240  176.6460  141.1480 C   0  0  2  0  0  3  0  0  0  0  0  0
  192.0720  177.6300  141.9630 O   0  0  0  0  0  0  0  0  0  0  0  0
  189.9930  176.0020  142.8660 S   0  0  0  0  0  0  0  0  0  0  0  0
  190.7220  177.4790  143.6900 C   0  0  2  0  0  3  0  0  0  0  0  0
  191.3680  178.3670  142.8050 O   0  0  0  0  0  0  0  0  0  0  0  0
  191.2590  177.4960  140.8300 C   0  0  0  0  0  2  0  0  0  0  0  0
  188.0160  178.0790  141.9050 C   0  0  1  0  0  3  0  0  0  0  0  0
  185.7910  179.2030  142.1440 C   0  0  0  0  0  3  0  0  0  0  0  0
  186.9120  179.0010  141.4330 C   0  0  0  0  0  3  0  0  0  0  0  0
  185.4960  178.4500  143.4160 C   0  0  0  0  0  2  0  0  0  0  0  0
  186.4120  177.0160  145.0880 O   0  0  0  0  0  1  0  0  0  0  0  0
  187.5540  177.1140  142.9980 C   0  0  0  0  0  2  0  0  0  0  0  0
  186.7610  177.8780  144.0510 C   0  0  1  0  0  3  0  0  0  0  0  0
  2  6  1  6  0  0  0
  2  1  1  0  0  0  0
  4  3  1  0  0  0  0
  4  2  1  1  0  0  0
  5  4  1  0  0  0  0
  5  3  1  0  0  0  0
  7  6  1  6  0  0  0
  8  9  1  0  0  0  0
  8 10  1  0  0  0  0
  8  7  1  1  0  0  0
  9 10  1  0  0  0  0
 12 11  1  6  0  0  0
 12  7  1  0  0  0  0
 12 13  1  0  0  0  0
 14 16  1  0  0  0  0
 14 13  1  0  0  0  0
 16 15  1  0  0  0  0
 17  1  1  6  0  0  0
 19 17  1  1  0  0  0
 19 21  1  0  0  0  0
 20 23  1  0  0  0  0
 21 22  1  0  0  0  0
 22 18  1  1  0  0  0
 23 22  1  0  0  0  0
 24 19  1  0  0  0  0
 24 20  1  0  0  0  0
 25 17  1  6  0  0  0
 25 30  1  0  0  0  0
 26 28  1  0  0  0  0
 27 25  1  0  0  0  0
 27 26  2  0  0  0  0
 28 31  1  0  0  0  0
 30 31  1  0  0  0  0
 31 29  1  1  0  0  0
M  END
>  <MODEL>
9

>  <REMARK>
 VINA RESULT:      -5.7      2.919      7.152
  Name = 
  12 active torsions:
  status: ('A' for Active; 'I' for Inactive)
    1  A    between atoms: C_1  and  C_24
    2  A    between atoms: C_3  and  C_15
    3  A    between atoms: C_3  and  C_24
    4  A    between atoms: C_4  and  C_27
    5  A    between atoms: C_5  and  C_27
    6  A    between atoms: C_9  and  C_23
    7  A    between atoms: C_15  and  C_20
    8  A    between atoms: C_15  and  C_21
    9  A    between atoms: C_19  and  O_22
   10  A    between atoms: C_19  and  C_24
   11  A    between atoms: C_20  and  C_27
   12  A    between atoms: O_22  and  C_23
                            x       y       z     vdW  Elec       q    Type
                         _______ _______ _______ _____ _____    ______ ____

>  <TORSDO>
F 12

$$$$
