=
 OpenBabel10262421473D

 30 32  0  0  1  0  0  0  0  0999 V2000
  183.9290  176.9810  137.1830 C   0  0  2  0  0  3  0  0  0  0  0  0
  184.1100  177.5960  138.5970 C   0  0  1  0  0  3  0  0  0  0  0  0
  181.6650  177.5620  139.3280 C   0  0  1  0  0  3  0  0  0  0  0  0
  183.7240  175.4340  137.1140 C   0  0  1  0  0  0  0  0  0  0  0  0
  184.7950  174.7830  137.7290 O   0  0  0  0  0  1  0  0  0  0  0  0
  184.9880  177.5150  136.1850 C   0  0  2  0  0  3  0  0  0  0  0  0
  180.7590  176.4660  138.7360 C   0  0  2  0  0  3  0  0  0  0  0  0
  184.8070  176.9530  134.7780 C   0  0  0  0  0  2  0  0  0  0  0  0
  182.7970  179.8000  138.9850 C   0  0  0  0  0  2  0  0  0  0  0  0
  184.1060  179.1390  138.5230 C   0  0  0  0  0  2  0  0  0  0  0  0
  180.3500  179.6710  139.2560 C   0  0  0  0  0  1  0  0  0  0  0  0
  181.3680  178.9020  137.1560 C   0  0  0  0  0  1  0  0  0  0  0  0
  183.0980  177.0840  139.6290 C   0  0  2  0  0  3  0  0  0  0  0  0
  182.4340  174.9840  137.8070 C   0  0  0  0  0  2  0  0  0  0  0  0
  180.3850  175.4320  139.8000 C   0  0  0  0  0  1  0  0  0  0  0  0
  181.3130  175.8750  137.5000 N   0  0  0  0  0  0  0  0  0  0  0  0
  183.6170  174.9580  135.6600 C   0  0  0  0  0  2  0  0  0  0  0  0
  181.5540  178.9630  138.6680 C   0  0  0  0  0  0  0  0  0  0  0  0
  183.4740  177.4760  140.9140 O   0  0  0  0  0  1  0  0  0  0  0  0
  184.7820  175.4320  134.8040 C   0  0  0  0  0  2  0  0  0  0  0  0
  187.1700  178.4670  136.7530 N   0  0  0  0  0  0  0  0  0  0  0  0
  186.4110  177.4220  136.6630 C   0  0  0  0  0  3  0  0  0  0  0  0
  188.9520  179.1640  138.1570 N   0  0  0  0  0  2  0  0  0  0  0  0
  189.4610  177.4420  136.5590 C   0  0  0  0  0  1  0  0  0  0  0  0
  188.5270  178.4040  137.2000 C   0  0  0  0  0  0  0  0  0  0  0  0
  180.2820  175.0730  136.8450 C   0  0  0  0  0  2  0  0  0  0  0  0
  180.6170  173.5830  136.8850 C   0  0  1  0  0  3  0  0  0  0  0  0
  179.5800  172.8110  137.6790 C   0  0  0  0  0  1  0  0  0  0  0  0
  180.7240  173.0340  135.5420 N   0  0  0  0  0  2  0  0  0  0  0  0
  181.5240  171.8250  135.6340 C   0  0  0  0  0  1  0  0  0  0  0  0
  1  2  1  0  0  0  0
  2 13  1  0  0  0  0
  3 13  1  0  0  0  0
  4  1  1  0  0  0  0
  4  5  1  0  0  0  0
  4 14  1  0  0  0  0
  6 22  1  0  0  0  0
  6  1  1  0  0  0  0
  7  3  1  0  0  0  0
  7 15  1  0  0  0  0
  8 20  1  0  0  0  0
  8  6  1  0  0  0  0
 10  2  1  0  0  0  0
 10  9  1  0  0  0  0
 12 18  1  0  0  0  0
 13 19  1  0  0  0  0
 16 14  1  0  0  0  0
 16  7  1  0  0  0  0
 17  4  1  0  0  0  0
 18  9  1  0  0  0  0
 18 11  1  0  0  0  0
 18  3  1  0  0  0  0
 20 17  1  0  0  0  0
 21 25  1  0  0  0  0
 22 21  2  0  0  0  0
 24 25  1  0  0  0  0
 25 23  2  0  0  0  0
 26 27  1  0  0  0  0
 26 16  1  0  0  0  0
 27 28  1  0  0  0  0
 29 30  1  0  0  0  0
 29 27  1  0  0  0  0
M  END
>  <MODEL>
1

>  <REMARK>
 VINA RESULT:      -4.5      0.000      0.000
  Name = 
  5 active torsions:
  status: ('A' for Active; 'I' for Inactive)
    1  A    between atoms: C_7  and  C_10
    2  A    between atoms: C_7  and  N_15
    3  A    between atoms: C_8  and  C_12
    4  A    between atoms: N_9  and  C_21
    5  A    between atoms: C_10  and  N_25
                            x       y       z     vdW  Elec       q    Type
                         _______ _______ _______ _____ _____    ______ ____

>  <TORSDO>
F 5

$$$$
=
 OpenBabel10262421473D

 30 32  0  0  1  0  0  0  0  0999 V2000
  181.6870  178.2690  139.2880 C   0  0  2  0  0  3  0  0  0  0  0  0
  182.8670  177.4170  138.7480 C   0  0  1  0  0  3  0  0  0  0  0  0
  181.9620  176.9830  136.4010 C   0  0  1  0  0  3  0  0  0  0  0  0
  181.6280  179.7590  138.8200 C   0  0  1  0  0  0  0  0  0  0  0  0
  182.8160  180.4120  139.1560 O   0  0  0  0  0  1  0  0  0  0  0  0
  181.5000  178.0880  140.8150 C   0  0  2  0  0  3  0  0  0  0  0  0
  181.0290  178.0440  135.7890 C   0  0  2  0  0  3  0  0  0  0  0  0
  180.3210  178.8870  141.3640 C   0  0  0  0  0  2  0  0  0  0  0  0
  182.2050  175.0260  137.9880 C   0  0  0  0  0  2  0  0  0  0  0  0
  182.6860  175.9330  139.1330 C   0  0  0  0  0  2  0  0  0  0  0  0
  180.9430  174.7740  135.8860 C   0  0  0  0  0  1  0  0  0  0  0  0
  179.9610  176.0700  137.7280 C   0  0  0  0  0  1  0  0  0  0  0  0
  183.1080  177.5780  137.2420 C   0  0  2  0  0  3  0  0  0  0  0  0
  181.4270  179.8890  137.3070 C   0  0  0  0  0  2  0  0  0  0  0  0
  181.7230  178.7890  134.6470 C   0  0  0  0  0  1  0  0  0  0  0  0
  180.4350  178.9350  136.8060 N   0  0  0  0  0  0  0  0  0  0  0  0
  180.4510  180.4940  139.4730 C   0  0  0  0  0  2  0  0  0  0  0  0
  181.2650  175.7370  137.0110 C   0  0  0  0  0  0  0  0  0  0  0  0
  184.3220  176.9930  136.8790 O   0  0  0  0  0  1  0  0  0  0  0  0
  180.4450  180.3560  140.9880 C   0  0  0  0  0  2  0  0  0  0  0  0
  182.7270  178.8480  142.7920 N   0  0  0  0  0  0  0  0  0  0  0  0
  182.7490  178.2720  141.6320 C   0  0  0  0  0  3  0  0  0  0  0  0
  185.0590  179.2200  143.0350 N   0  0  0  0  0  2  0  0  0  0  0  0
  183.7900  179.0300  145.0670 C   0  0  0  0  0  1  0  0  0  0  0  0
  183.9020  179.0370  143.5850 C   0  0  0  0  0  0  0  0  0  0  0  0
  179.3530  179.7070  136.1990 C   0  0  0  0  0  2  0  0  0  0  0  0
  179.7320  181.1780  136.0360 C   0  0  1  0  0  3  0  0  0  0  0  0
  179.5800  181.6240  134.5940 C   0  0  0  0  0  1  0  0  0  0  0  0
  178.9310  182.0250  136.9060 N   0  0  0  0  0  2  0  0  0  0  0  0
  179.6670  183.2620  137.0990 C   0  0  0  0  0  1  0  0  0  0  0  0
  1  6  1  0  0  0  0
  2 10  1  0  0  0  0
  2  1  1  0  0  0  0
  3 18  1  0  0  0  0
  3 13  1  0  0  0  0
  4  5  1  0  0  0  0
  4  1  1  0  0  0  0
  4 17  1  0  0  0  0
  6  8  1  0  0  0  0
  6 22  1  0  0  0  0
  7  3  1  0  0  0  0
  7 16  1  0  0  0  0
  9 10  1  0  0  0  0
 11 18  1  0  0  0  0
 13  2  1  0  0  0  0
 14  4  1  0  0  0  0
 15  7  1  0  0  0  0
 16 14  1  0  0  0  0
 17 20  1  0  0  0  0
 18 12  1  0  0  0  0
 18  9  1  0  0  0  0
 19 13  1  0  0  0  0
 20  8  1  0  0  0  0
 21 25  1  0  0  0  0
 22 21  2  0  0  0  0
 23 25  2  0  0  0  0
 25 24  1  0  0  0  0
 26 16  1  0  0  0  0
 27 26  1  0  0  0  0
 27 29  1  0  0  0  0
 28 27  1  0  0  0  0
 29 30  1  0  0  0  0
M  END
>  <MODEL>
2

>  <REMARK>
 VINA RESULT:      -4.3      3.211      6.388
  Name = 
  5 active torsions:
  status: ('A' for Active; 'I' for Inactive)
    1  A    between atoms: C_7  and  C_10
    2  A    between atoms: C_7  and  N_15
    3  A    between atoms: C_8  and  C_12
    4  A    between atoms: N_9  and  C_21
    5  A    between atoms: C_10  and  N_25
                            x       y       z     vdW  Elec       q    Type
                         _______ _______ _______ _____ _____    ______ ____

>  <TORSDO>
F 5

$$$$
=
 OpenBabel10262421473D

 30 32  0  0  1  0  0  0  0  0999 V2000
  182.8340  175.1200  137.2180 C   0  0  2  0  0  3  0  0  0  0  0  0
  181.2930  175.1020  137.0230 C   0  0  1  0  0  3  0  0  0  0  0  0
  180.7430  177.2660  138.2600 C   0  0  1  0  0  3  0  0  0  0  0  0
  183.6450  176.0860  136.2960 C   0  0  1  0  0  0  0  0  0  0  0  0
  183.3870  175.7960  134.9550 O   0  0  0  0  0  1  0  0  0  0  0  0
  183.4190  173.6870  137.2870 C   0  0  2  0  0  3  0  0  0  0  0  0
  181.8160  178.3700  138.2770 C   0  0  2  0  0  3  0  0  0  0  0  0
  184.9270  173.6770  137.5170 C   0  0  0  0  0  2  0  0  0  0  0  0
  179.9320  175.0740  139.2310 C   0  0  0  0  0  2  0  0  0  0  0  0
  180.6150  174.2570  138.1220 C   0  0  0  0  0  2  0  0  0  0  0  0
  179.8300  177.1410  140.5690 C   0  0  0  0  0  1  0  0  0  0  0  0
  182.0090  176.0840  140.1570 C   0  0  0  0  0  1  0  0  0  0  0  0
  180.6670  176.4990  136.9260 C   0  0  2  0  0  3  0  0  0  0  0  0
  183.2930  177.5570  136.5380 C   0  0  0  0  0  2  0  0  0  0  0  0
  181.3920  179.5580  137.4100 C   0  0  0  0  0  1  0  0  0  0  0  0
  183.1660  177.8580  137.9660 N   0  0  0  0  0  0  0  0  0  0  0  0
  185.1510  175.9580  136.5560 C   0  0  0  0  0  2  0  0  0  0  0  0
  180.6500  176.3910  139.5390 C   0  0  0  0  0  0  0  0  0  0  0  0
  179.3400  176.4070  136.5010 O   0  0  0  0  0  1  0  0  0  0  0  0
  185.6380  174.5190  136.4670 C   0  0  0  0  0  2  0  0  0  0  0  0
  182.7910  171.5140  136.3520 N   0  0  0  0  0  0  0  0  0  0  0  0
  183.0030  172.7770  136.1640 C   0  0  0  0  0  3  0  0  0  0  0  0
  183.1410  169.6280  134.9530 N   0  0  0  0  0  2  0  0  0  0  0  0
  181.1100  170.8620  134.5950 C   0  0  0  0  0  1  0  0  0  0  0  0
  182.3980  170.6290  135.2990 C   0  0  0  0  0  0  0  0  0  0  0  0
  184.1570  178.8820  138.2880 C   0  0  0  0  0  2  0  0  0  0  0  0
  185.0920  178.4290  139.4090 C   0  0  1  0  0  3  0  0  0  0  0  0
  186.5040  178.2260  138.8930 C   0  0  0  0  0  1  0  0  0  0  0  0
  185.0950  179.3850  140.5060 N   0  0  0  0  0  2  0  0  0  0  0  0
  184.3680  178.7780  141.6070 C   0  0  0  0  0  1  0  0  0  0  0  0
  1  6  1  0  0  0  0
  2  1  1  0  0  0  0
  2 10  1  0  0  0  0
  3  7  1  0  0  0  0
  3 18  1  0  0  0  0
  4 14  1  0  0  0  0
  4 17  1  0  0  0  0
  4  1  1  0  0  0  0
  5  4  1  0  0  0  0
  6  8  1  0  0  0  0
  9 18  1  0  0  0  0
 10  9  1  0  0  0  0
 13  2  1  0  0  0  0
 13  3  1  0  0  0  0
 14 16  1  0  0  0  0
 15  7  1  0  0  0  0
 16  7  1  0  0  0  0
 16 26  1  0  0  0  0
 18 12  1  0  0  0  0
 18 11  1  0  0  0  0
 19 13  1  0  0  0  0
 20 17  1  0  0  0  0
 20  8  1  0  0  0  0
 22 21  2  0  0  0  0
 22  6  1  0  0  0  0
 23 25  2  0  0  0  0
 24 25  1  0  0  0  0
 25 21  1  0  0  0  0
 26 27  1  0  0  0  0
 27 29  1  0  0  0  0
 28 27  1  0  0  0  0
 29 30  1  0  0  0  0
M  END
>  <MODEL>
3

>  <REMARK>
 VINA RESULT:      -4.2      2.356      5.968
  Name = 
  5 active torsions:
  status: ('A' for Active; 'I' for Inactive)
    1  A    between atoms: C_7  and  C_10
    2  A    between atoms: C_7  and  N_15
    3  A    between atoms: C_8  and  C_12
    4  A    between atoms: N_9  and  C_21
    5  A    between atoms: C_10  and  N_25
                            x       y       z     vdW  Elec       q    Type
                         _______ _______ _______ _____ _____    ______ ____

>  <TORSDO>
F 5

$$$$
=
 OpenBabel10262421473D

 30 32  0  0  1  0  0  0  0  0999 V2000
  188.5250  176.7860  138.3070 C   0  0  2  0  0  3  0  0  0  0  0  0
  189.2540  176.3940  136.9940 C   0  0  1  0  0  3  0  0  0  0  0  0
  187.2000  175.8260  135.5900 C   0  0  1  0  0  3  0  0  0  0  0  0
  187.8620  178.2000  138.3450 C   0  0  1  0  0  0  0  0  0  0  0  0
  188.8180  179.1830  138.0780 O   0  0  0  0  0  1  0  0  0  0  0  0
  189.3840  176.4660  139.5570 C   0  0  2  0  0  3  0  0  0  0  0  0
  185.8870  176.5610  135.9180 C   0  0  2  0  0  3  0  0  0  0  0  0
  188.6730  176.8070  140.8630 C   0  0  0  0  0  2  0  0  0  0  0  0
  188.8050  173.9660  136.1990 C   0  0  0  0  0  2  0  0  0  0  0  0
  189.6850  174.9130  137.0320 C   0  0  0  0  0  2  0  0  0  0  0  0
  186.5970  173.4400  135.2370 C   0  0  0  0  0  1  0  0  0  0  0  0
  186.7370  174.2390  137.5560 C   0  0  0  0  0  1  0  0  0  0  0  0
  188.4540  176.7110  135.7250 C   0  0  2  0  0  3  0  0  0  0  0  0
  186.7340  178.3450  137.3190 C   0  0  0  0  0  2  0  0  0  0  0  0
  185.5260  177.5540  134.8110 C   0  0  0  0  0  1  0  0  0  0  0  0
  185.8870  177.1510  137.2720 N   0  0  0  0  0  0  0  0  0  0  0  0
  187.2320  178.4750  139.7160 C   0  0  0  0  0  2  0  0  0  0  0  0
  187.3340  174.3880  136.1610 C   0  0  0  0  0  0  0  0  0  0  0  0
  189.2610  176.5730  134.5940 O   0  0  0  0  0  1  0  0  0  0  0  0
  188.2090  178.2560  140.8620 C   0  0  0  0  0  2  0  0  0  0  0  0
  191.7690  176.3000  139.0300 N   0  0  0  0  0  0  0  0  0  0  0  0
  190.7900  176.9980  139.5120 C   0  0  0  0  0  3  0  0  0  0  0  0
  193.8320  176.6550  137.9120 N   0  0  0  0  0  2  0  0  0  0  0  0
  193.6930  177.4500  140.1750 C   0  0  0  0  0  1  0  0  0  0  0  0
  193.1140  176.7840  138.9800 C   0  0  0  0  0  0  0  0  0  0  0  0
  184.5280  177.5640  137.6180 C   0  0  0  0  0  2  0  0  0  0  0  0
  183.5970  176.3620  137.7740 C   0  0  1  0  0  3  0  0  0  0  0  0
  183.0270  176.2930  139.1780 C   0  0  0  0  0  1  0  0  0  0  0  0
  182.5180  176.4070  136.8000 N   0  0  0  0  0  2  0  0  0  0  0  0
  182.1550  177.8020  136.6260 C   0  0  0  0  0  1  0  0  0  0  0  0
  1  4  1  0  0  0  0
  1  6  1  0  0  0  0
  2 10  1  0  0  0  0
  2  1  1  0  0  0  0
  3 13  1  0  0  0  0
  3  7  1  0  0  0  0
  3 18  1  0  0  0  0
  4 17  1  0  0  0  0
  5  4  1  0  0  0  0
  6  8  1  0  0  0  0
  7 16  1  0  0  0  0
  9 10  1  0  0  0  0
 11 18  1  0  0  0  0
 13  2  1  0  0  0  0
 14  4  1  0  0  0  0
 15  7  1  0  0  0  0
 16 14  1  0  0  0  0
 16 26  1  0  0  0  0
 17 20  1  0  0  0  0
 18  9  1  0  0  0  0
 18 12  1  0  0  0  0
 19 13  1  0  0  0  0
 20  8  1  0  0  0  0
 21 22  2  0  0  0  0
 22  6  1  0  0  0  0
 23 25  2  0  0  0  0
 25 21  1  0  0  0  0
 25 24  1  0  0  0  0
 26 27  1  0  0  0  0
 27 28  1  0  0  0  0
 29 27  1  0  0  0  0
 30 29  1  0  0  0  0
M  END
>  <MODEL>
4

>  <REMARK>
 VINA RESULT:      -4.2      3.159      6.346
  Name = 
  5 active torsions:
  status: ('A' for Active; 'I' for Inactive)
    1  A    between atoms: C_7  and  C_10
    2  A    between atoms: C_7  and  N_15
    3  A    between atoms: C_8  and  C_12
    4  A    between atoms: N_9  and  C_21
    5  A    between atoms: C_10  and  N_25
                            x       y       z     vdW  Elec       q    Type
                         _______ _______ _______ _____ _____    ______ ____

>  <TORSDO>
F 5

$$$$
=
 OpenBabel10262421473D

 30 32  0  0  1  0  0  0  0  0999 V2000
  186.1700  176.7740  136.8770 C   0  0  2  0  0  3  0  0  0  0  0  0
  186.7680  178.1340  137.3300 C   0  0  1  0  0  3  0  0  0  0  0  0
  189.2300  177.6100  136.9060 C   0  0  1  0  0  3  0  0  0  0  0  0
  186.0590  176.5370  135.3360 C   0  0  1  0  0  0  0  0  0  0  0  0
  185.3030  177.5540  134.7500 O   0  0  0  0  0  1  0  0  0  0  0  0
  184.8750  176.4300  137.6550 C   0  0  2  0  0  3  0  0  0  0  0  0
  189.5630  176.6030  135.7890 C   0  0  2  0  0  3  0  0  0  0  0  0
  184.2890  175.0800  137.2550 C   0  0  0  0  0  2  0  0  0  0  0  0
  188.4580  177.9630  139.2910 C   0  0  0  0  0  2  0  0  0  0  0  0
  186.9940  178.1470  138.8570 C   0  0  0  0  0  2  0  0  0  0  0  0
  190.6930  177.0300  138.8310 C   0  0  0  0  0  1  0  0  0  0  0  0
  188.7080  175.6310  138.4580 C   0  0  0  0  0  1  0  0  0  0  0  0
  188.0410  178.5320  136.5730 C   0  0  2  0  0  3  0  0  0  0  0  0
  187.4280  176.5090  134.6500 C   0  0  0  0  0  2  0  0  0  0  0  0
  190.2090  177.3070  134.5940 C   0  0  0  0  0  1  0  0  0  0  0  0
  188.4110  175.7520  135.4280 N   0  0  0  0  0  0  0  0  0  0  0  0
  185.4010  175.1850  135.0350 C   0  0  0  0  0  2  0  0  0  0  0  0
  189.2540  177.0510  138.3540 C   0  0  0  0  0  0  0  0  0  0  0  0
  188.3730  179.8600  136.8460 O   0  0  0  0  0  1  0  0  0  0  0  0
  184.0690  175.0120  135.7510 C   0  0  0  0  0  2  0  0  0  0  0  0
  183.1090  177.7460  138.7240 N   0  0  0  0  0  0  0  0  0  0  0  0
  183.8410  177.5220  137.6790 C   0  0  0  0  0  3  0  0  0  0  0  0
  180.8600  178.4890  138.8780 N   0  0  0  0  0  2  0  0  0  0  0  0
  182.5400  180.1980  138.6930 C   0  0  0  0  0  1  0  0  0  0  0  0
  182.1180  178.7760  138.7680 C   0  0  0  0  0  0  0  0  0  0  0  0
  188.8730  174.6450  134.5940 C   0  0  0  0  0  2  0  0  0  0  0  0
  189.3030  173.4450  135.4370 C   0  0  1  0  0  3  0  0  0  0  0  0
  188.1330  172.8810  136.2200 C   0  0  0  0  0  1  0  0  0  0  0  0
  189.8930  172.4060  134.6070 N   0  0  0  0  0  2  0  0  0  0  0  0
  191.3350  172.5590  134.6890 C   0  0  0  0  0  1  0  0  0  0  0  0
  1  2  1  0  0  0  0
  1  6  1  0  0  0  0
  2 10  1  0  0  0  0
  3 18  1  0  0  0  0
  4  1  1  0  0  0  0
  5  4  1  0  0  0  0
  6 22  1  0  0  0  0
  7  3  1  0  0  0  0
  8  6  1  0  0  0  0
 10  9  1  0  0  0  0
 13 19  1  0  0  0  0
 13  3  1  0  0  0  0
 13  2  1  0  0  0  0
 14  4  1  0  0  0  0
 14 16  1  0  0  0  0
 15  7  1  0  0  0  0
 16  7  1  0  0  0  0
 17  4  1  0  0  0  0
 17 20  1  0  0  0  0
 18 12  1  0  0  0  0
 18 11  1  0  0  0  0
 18  9  1  0  0  0  0
 20  8  1  0  0  0  0
 21 25  1  0  0  0  0
 22 21  2  0  0  0  0
 24 25  1  0  0  0  0
 25 23  2  0  0  0  0
 26 16  1  0  0  0  0
 26 27  1  0  0  0  0
 27 28  1  0  0  0  0
 29 30  1  0  0  0  0
 29 27  1  0  0  0  0
M  END
>  <MODEL>
5

>  <REMARK>
 VINA RESULT:      -4.0      2.955      6.860
  Name = 
  5 active torsions:
  status: ('A' for Active; 'I' for Inactive)
    1  A    between atoms: C_7  and  C_10
    2  A    between atoms: C_7  and  N_15
    3  A    between atoms: C_8  and  C_12
    4  A    between atoms: N_9  and  C_21
    5  A    between atoms: C_10  and  N_25
                            x       y       z     vdW  Elec       q    Type
                         _______ _______ _______ _____ _____    ______ ____

>  <TORSDO>
F 5

$$$$
=
 OpenBabel10262421473D

 30 32  0  0  1  0  0  0  0  0999 V2000
  181.2990  177.5740  137.4720 C   0  0  2  0  0  3  0  0  0  0  0  0
  181.1540  176.6620  138.7210 C   0  0  1  0  0  3  0  0  0  0  0  0
  180.9390  178.4920  140.4870 C   0  0  1  0  0  3  0  0  0  0  0  0
  179.9870  178.2230  136.9240 C   0  0  1  0  0  0  0  0  0  0  0  0
  179.0520  177.2310  136.6230 O   0  0  0  0  0  1  0  0  0  0  0  0
  182.1710  176.9100  136.3760 C   0  0  2  0  0  3  0  0  0  0  0  0
  180.3180  179.8330  140.0520 C   0  0  2  0  0  3  0  0  0  0  0  0
  182.3590  177.8030  135.1530 C   0  0  0  0  0  2  0  0  0  0  0  0
  182.9900  177.0090  140.5210 C   0  0  0  0  0  2  0  0  0  0  0  0
  182.5420  176.2530  139.2590 C   0  0  0  0  0  2  0  0  0  0  0  0
  182.9100  179.0550  141.8930 C   0  0  0  0  0  1  0  0  0  0  0  0
  183.1660  179.2520  139.4580 C   0  0  0  0  0  1  0  0  0  0  0  0
  180.2810  177.2640  139.8280 C   0  0  2  0  0  3  0  0  0  0  0  0
  179.3490  179.1870  137.9290 C   0  0  0  0  0  2  0  0  0  0  0  0
  178.9310  180.0190  140.6690 C   0  0  0  0  0  1  0  0  0  0  0  0
  180.3500  180.0280  138.5880 N   0  0  0  0  0  0  0  0  0  0  0  0
  180.2690  179.0470  135.6610 C   0  0  0  0  0  2  0  0  0  0  0  0
  182.4880  178.4550  140.5670 C   0  0  0  0  0  0  0  0  0  0  0  0
  179.9890  176.3010  140.7950 O   0  0  0  0  0  1  0  0  0  0  0  0
  181.0140  178.2510  134.6000 C   0  0  0  0  0  2  0  0  0  0  0  0
  182.5890  174.5140  136.1120 N   0  0  0  0  0  0  0  0  0  0  0  0
  181.7680  175.5090  136.0080 C   0  0  0  0  0  3  0  0  0  0  0  0
  182.5170  172.6840  134.6020 N   0  0  0  0  0  2  0  0  0  0  0  0
  181.5210  172.3280  136.7610 C   0  0  0  0  0  1  0  0  0  0  0  0
  182.2300  173.1730  135.7650 C   0  0  0  0  0  0  0  0  0  0  0  0
  180.0270  181.4190  138.2800 C   0  0  0  0  0  2  0  0  0  0  0  0
  181.0580  182.0420  137.3390 C   0  0  1  0  0  3  0  0  0  0  0  0
  180.3910  182.6280  136.1100 C   0  0  0  0  0  1  0  0  0  0  0  0
  181.8360  183.0660  138.0200 N   0  0  0  0  0  2  0  0  0  0  0  0
  181.6250  184.3120  137.3040 C   0  0  0  0  0  1  0  0  0  0  0  0
  1  2  1  0  0  0  0
  2 10  1  0  0  0  0
  2 13  1  0  0  0  0
  3 18  1  0  0  0  0
  4  1  1  0  0  0  0
  4 14  1  0  0  0  0
  5  4  1  0  0  0  0
  6  1  1  0  0  0  0
  7  3  1  0  0  0  0
  7 15  1  0  0  0  0
  8  6  1  0  0  0  0
  9 18  1  0  0  0  0
 10  9  1  0  0  0  0
 12 18  1  0  0  0  0
 13  3  1  0  0  0  0
 13 19  1  0  0  0  0
 14 16  1  0  0  0  0
 16  7  1  0  0  0  0
 17  4  1  0  0  0  0
 18 11  1  0  0  0  0
 20  8  1  0  0  0  0
 20 17  1  0  0  0  0
 22 21  2  0  0  0  0
 22  6  1  0  0  0  0
 23 25  2  0  0  0  0
 25 21  1  0  0  0  0
 25 24  1  0  0  0  0
 26 16  1  0  0  0  0
 27 29  1  0  0  0  0
 27 26  1  0  0  0  0
 28 27  1  0  0  0  0
 30 29  1  0  0  0  0
M  END
>  <MODEL>
6

>  <REMARK>
 VINA RESULT:      -4.0      3.352      6.052
  Name = 
  5 active torsions:
  status: ('A' for Active; 'I' for Inactive)
    1  A    between atoms: C_7  and  C_10
    2  A    between atoms: C_7  and  N_15
    3  A    between atoms: C_8  and  C_12
    4  A    between atoms: N_9  and  C_21
    5  A    between atoms: C_10  and  N_25
                            x       y       z     vdW  Elec       q    Type
                         _______ _______ _______ _____ _____    ______ ____

>  <TORSDO>
F 5

$$$$
=
 OpenBabel10262421473D

 30 32  0  0  1  0  0  0  0  0999 V2000
  180.8160  176.0360  137.7860 C   0  0  2  0  0  3  0  0  0  0  0  0
  181.5990  176.4420  136.5080 C   0  0  1  0  0  3  0  0  0  0  0  0
  182.1090  178.8600  137.1430 C   0  0  1  0  0  3  0  0  0  0  0  0
  181.6680  175.7300  139.0610 C   0  0  1  0  0  0  0  0  0  0  0  0
  182.5910  174.7200  138.7870 O   0  0  0  0  0  1  0  0  0  0  0  0
  179.7400  174.9630  137.4830 C   0  0  2  0  0  3  0  0  0  0  0  0
  182.2440  179.1910  138.6410 C   0  0  2  0  0  3  0  0  0  0  0  0
  178.9310  174.5750  138.7180 C   0  0  0  0  0  2  0  0  0  0  0  0
  180.5560  178.4200  135.1940 C   0  0  0  0  0  2  0  0  0  0  0  0
  180.6280  176.8980  135.3980 C   0  0  0  0  0  2  0  0  0  0  0  0
  180.7520  180.6870  136.1420 C   0  0  0  0  0  1  0  0  0  0  0  0
  179.5560  178.9540  137.4080 C   0  0  0  0  0  1  0  0  0  0  0  0
  182.6930  177.4870  136.7580 C   0  0  2  0  0  3  0  0  0  0  0  0
  182.4400  176.9570  139.5560 C   0  0  0  0  0  2  0  0  0  0  0  0
  183.6970  179.5040  139.0030 C   0  0  0  0  0  1  0  0  0  0  0  0
  181.6210  178.1700  139.5080 N   0  0  0  0  0  0  0  0  0  0  0  0
  180.7730  175.2890  140.2260 C   0  0  0  0  0  2  0  0  0  0  0  0
  180.7450  179.2120  136.4900 C   0  0  0  0  0  0  0  0  0  0  0  0
  183.5110  177.6120  135.6350 O   0  0  0  0  0  1  0  0  0  0  0  0
  179.8500  174.1390  139.8490 C   0  0  0  0  0  2  0  0  0  0  0  0
  179.6570  172.6110  136.8130 N   0  0  0  0  0  0  0  0  0  0  0  0
  180.2370  173.7650  136.7220 C   0  0  0  0  0  3  0  0  0  0  0  0
  179.4350  170.3550  136.1080 N   0  0  0  0  0  2  0  0  0  0  0  0
  181.3860  171.5280  135.3380 C   0  0  0  0  0  1  0  0  0  0  0  0
  180.1140  171.4570  136.1020 C   0  0  0  0  0  0  0  0  0  0  0  0
  181.5250  178.6890  140.8710 C   0  0  0  0  0  2  0  0  0  0  0  0
  180.0980  179.1180  141.2120 C   0  0  1  0  0  3  0  0  0  0  0  0
  179.5090  178.2370  142.2980 C   0  0  0  0  0  1  0  0  0  0  0  0
  180.0550  180.5120  141.6230 N   0  0  0  0  0  2  0  0  0  0  0  0
  179.5210  181.2730  140.5070 C   0  0  0  0  0  1  0  0  0  0  0  0
  1  4  1  0  0  0  0
  2 13  1  0  0  0  0
  2  1  1  0  0  0  0
  3  7  1  0  0  0  0
  4 14  1  0  0  0  0
  4 17  1  0  0  0  0
  5  4  1  0  0  0  0
  6  1  1  0  0  0  0
  6  8  1  0  0  0  0
  7 15  1  0  0  0  0
  7 16  1  0  0  0  0
  8 20  1  0  0  0  0
  9 10  1  0  0  0  0
  9 18  1  0  0  0  0
 10  2  1  0  0  0  0
 11 18  1  0  0  0  0
 13  3  1  0  0  0  0
 16 14  1  0  0  0  0
 16 26  1  0  0  0  0
 18  3  1  0  0  0  0
 18 12  1  0  0  0  0
 19 13  1  0  0  0  0
 20 17  1  0  0  0  0
 22 21  2  0  0  0  0
 22  6  1  0  0  0  0
 24 25  1  0  0  0  0
 25 23  2  0  0  0  0
 25 21  1  0  0  0  0
 26 27  1  0  0  0  0
 27 29  1  0  0  0  0
 27 28  1  0  0  0  0
 30 29  1  0  0  0  0
M  END
>  <MODEL>
7

>  <REMARK>
 VINA RESULT:      -4.0      3.011      6.461
  Name = 
  5 active torsions:
  status: ('A' for Active; 'I' for Inactive)
    1  A    between atoms: C_7  and  C_10
    2  A    between atoms: C_7  and  N_15
    3  A    between atoms: C_8  and  C_12
    4  A    between atoms: N_9  and  C_21
    5  A    between atoms: C_10  and  N_25
                            x       y       z     vdW  Elec       q    Type
                         _______ _______ _______ _____ _____    ______ ____

>  <TORSDO>
F 5

$$$$
=
 OpenBabel10262421473D

 30 32  0  0  1  0  0  0  0  0999 V2000
  181.1800  179.0100  136.8710 C   0  0  2  0  0  3  0  0  0  0  0  0
  182.4310  179.3890  137.7100 C   0  0  1  0  0  3  0  0  0  0  0  0
  182.9300  177.0830  138.6830 C   0  0  1  0  0  3  0  0  0  0  0  0
  181.4430  178.2770  135.5160 C   0  0  1  0  0  0  0  0  0  0  0  0
  182.2810  179.0480  134.7100 O   0  0  0  0  0  1  0  0  0  0  0  0
  180.1870  180.1940  136.7560 C   0  0  2  0  0  3  0  0  0  0  0  0
  182.5210  175.8530  137.8510 C   0  0  2  0  0  3  0  0  0  0  0  0
  178.9310  179.8350  135.9680 C   0  0  0  0  0  2  0  0  0  0  0  0
  182.1970  178.9290  140.2520 C   0  0  0  0  0  2  0  0  0  0  0  0
  182.0140  179.9250  139.0960 C   0  0  0  0  0  2  0  0  0  0  0  0
  182.2710  176.5910  141.0290 C   0  0  0  0  0  1  0  0  0  0  0  0
  180.4960  177.2850  139.4790 C   0  0  0  0  0  1  0  0  0  0  0  0
  183.4570  178.2560  137.8350 C   0  0  2  0  0  3  0  0  0  0  0  0
  182.1010  176.9080  135.7110 C   0  0  0  0  0  2  0  0  0  0  0  0
  183.7520  175.1350  137.2950 C   0  0  0  0  0  1  0  0  0  0  0  0
  181.5040  176.1710  136.8280 N   0  0  0  0  0  0  0  0  0  0  0  0
  180.1280  178.0170  134.7690 C   0  0  0  0  0  2  0  0  0  0  0  0
  181.9660  177.4740  139.8360 C   0  0  0  0  0  0  0  0  0  0  0  0
  184.6500  178.7390  138.3750 O   0  0  0  0  0  1  0  0  0  0  0  0
  179.2950  179.2790  134.5990 C   0  0  0  0  0  2  0  0  0  0  0  0
  180.5780  182.6040  136.9310 N   0  0  0  0  0  0  0  0  0  0  0  0
  180.7980  181.4920  136.3050 C   0  0  0  0  0  3  0  0  0  0  0  0
  181.9430  184.5120  137.2930 N   0  0  0  0  0  2  0  0  0  0  0  0
  180.8150  184.3920  135.1750 C   0  0  0  0  0  1  0  0  0  0  0  0
  181.1450  183.8510  136.5190 C   0  0  0  0  0  0  0  0  0  0  0  0
  180.9560  174.9280  136.2900 C   0  0  0  0  0  2  0  0  0  0  0  0
  180.5480  173.9640  137.4040 C   0  0  1  0  0  3  0  0  0  0  0  0
  179.1090  174.1950  137.8250 C   0  0  0  0  0  1  0  0  0  0  0  0
  180.7310  172.5810  136.9910 N   0  0  0  0  0  2  0  0  0  0  0  0
  179.4390  171.9260  137.1040 C   0  0  0  0  0  1  0  0  0  0  0  0
  1  2  1  0  0  0  0
  2 13  1  0  0  0  0
  2 10  1  0  0  0  0
  3 18  1  0  0  0  0
  4 14  1  0  0  0  0
  4  1  1  0  0  0  0
  5  4  1  0  0  0  0
  6  1  1  0  0  0  0
  7  3  1  0  0  0  0
  8  6  1  0  0  0  0
 10  9  1  0  0  0  0
 12 18  1  0  0  0  0
 13 19  1  0  0  0  0
 13  3  1  0  0  0  0
 14 16  1  0  0  0  0
 15  7  1  0  0  0  0
 16  7  1  0  0  0  0
 17  4  1  0  0  0  0
 18  9  1  0  0  0  0
 18 11  1  0  0  0  0
 20 17  1  0  0  0  0
 20  8  1  0  0  0  0
 22  6  1  0  0  0  0
 22 21  2  0  0  0  0
 24 25  1  0  0  0  0
 25 21  1  0  0  0  0
 25 23  2  0  0  0  0
 26 16  1  0  0  0  0
 26 27  1  0  0  0  0
 27 28  1  0  0  0  0
 29 30  1  0  0  0  0
 29 27  1  0  0  0  0
M  END
>  <MODEL>
8

>  <REMARK>
 VINA RESULT:      -3.3      3.054      4.842
  Name = 
  5 active torsions:
  status: ('A' for Active; 'I' for Inactive)
    1  A    between atoms: C_7  and  C_10
    2  A    between atoms: C_7  and  N_15
    3  A    between atoms: C_8  and  C_12
    4  A    between atoms: N_9  and  C_21
    5  A    between atoms: C_10  and  N_25
                            x       y       z     vdW  Elec       q    Type
                         _______ _______ _______ _____ _____    ______ ____

>  <TORSDO>
F 5

$$$$
=
 OpenBabel10262421473D

 30 32  0  0  1  0  0  0  0  0999 V2000
  188.6380  177.6640  142.6150 C   0  0  2  0  0  3  0  0  0  0  0  0
  189.9450  176.8470  142.4290 C   0  0  1  0  0  3  0  0  0  0  0  0
  191.0510  177.4110  144.6580 C   0  0  1  0  0  3  0  0  0  0  0  0
  187.5470  177.0370  143.5410 C   0  0  1  0  0  0  0  0  0  0  0  0
  187.1950  175.7690  143.0730 O   0  0  0  0  0  1  0  0  0  0  0  0
  188.0870  178.1790  141.2610 C   0  0  2  0  0  3  0  0  0  0  0  0
  190.1290  177.7150  145.8550 C   0  0  2  0  0  3  0  0  0  0  0  0
  186.8220  179.0180  141.4220 C   0  0  0  0  0  2  0  0  0  0  0  0
  192.1180  178.2600  142.5260 C   0  0  0  0  0  2  0  0  0  0  0  0
  190.9970  177.6710  141.6550 C   0  0  0  0  0  2  0  0  0  0  0  0
  192.8590  179.1160  144.7160 C   0  0  0  0  0  1  0  0  0  0  0  0
  190.6760  179.8130  143.8300 C   0  0  0  0  0  1  0  0  0  0  0  0
  190.5210  176.2950  143.7380 C   0  0  2  0  0  3  0  0  0  0  0  0
  188.0220  176.8930  144.9900 C   0  0  0  0  0  2  0  0  0  0  0  0
  190.1850  176.5870  146.8880 C   0  0  0  0  0  1  0  0  0  0  0  0
  188.7580  178.0760  145.4400 N   0  0  0  0  0  0  0  0  0  0  0  0
  186.2930  177.9200  143.5870 C   0  0  0  0  0  2  0  0  0  0  0  0
  191.6500  178.6450  143.9320 C   0  0  0  0  0  0  0  0  0  0  0  0
  191.5340  175.3720  143.4730 O   0  0  0  0  0  1  0  0  0  0  0  0
  185.7630  178.2530  142.2000 C   0  0  0  0  0  2  0  0  0  0  0  0
  188.4200  177.3050  139.0000 N   0  0  0  0  0  0  0  0  0  0  0  0
  187.9490  177.1300  140.1930 C   0  0  0  0  0  3  0  0  0  0  0  0
  187.1650  176.1090  137.3790 N   0  0  0  0  0  2  0  0  0  0  0  0
  189.4940  175.5430  137.5580 C   0  0  0  0  0  1  0  0  0  0  0  0
  188.2980  176.3240  137.9660 C   0  0  0  0  0  0  0  0  0  0  0  0
  188.0390  178.6310  146.5850 C   0  0  0  0  0  2  0  0  0  0  0  0
  187.1660  177.5780  147.2660 C   0  0  1  0  0  3  0  0  0  0  0  0
  187.5550  177.4070  148.7230 C   0  0  0  0  0  1  0  0  0  0  0  0
  185.7560  177.9210  147.1640 N   0  0  0  0  0  2  0  0  0  0  0  0
  185.6800  179.3470  146.8970 C   0  0  0  0  0  1  0  0  0  0  0  0
  1  4  1  0  0  0  0
  2  1  1  0  0  0  0
  2 13  1  0  0  0  0
  3  7  1  0  0  0  0
  4 17  1  0  0  0  0
  4 14  1  0  0  0  0
  5  4  1  0  0  0  0
  6  8  1  0  0  0  0
  6  1  1  0  0  0  0
  7 15  1  0  0  0  0
  8 20  1  0  0  0  0
  9 18  1  0  0  0  0
 10  2  1  0  0  0  0
 10  9  1  0  0  0  0
 12 18  1  0  0  0  0
 13  3  1  0  0  0  0
 14 16  1  0  0  0  0
 16  7  1  0  0  0  0
 16 26  1  0  0  0  0
 18  3  1  0  0  0  0
 18 11  1  0  0  0  0
 19 13  1  0  0  0  0
 20 17  1  0  0  0  0
 21 22  2  0  0  0  0
 22  6  1  0  0  0  0
 23 25  2  0  0  0  0
 24 25  1  0  0  0  0
 25 21  1  0  0  0  0
 26 27  1  0  0  0  0
 27 28  1  0  0  0  0
 29 27  1  0  0  0  0
 30 29  1  0  0  0  0
M  END
>  <MODEL>
9

>  <REMARK>
 VINA RESULT:      -3.0      6.728      9.608
  Name = 
  5 active torsions:
  status: ('A' for Active; 'I' for Inactive)
    1  A    between atoms: C_7  and  C_10
    2  A    between atoms: C_7  and  N_15
    3  A    between atoms: C_8  and  C_12
    4  A    between atoms: N_9  and  C_21
    5  A    between atoms: C_10  and  N_25
                            x       y       z     vdW  Elec       q    Type
                         _______ _______ _______ _____ _____    ______ ____

>  <TORSDO>
F 5

$$$$
