=
 OpenBabel10262420043D

 27 31  0  0  0  0  0  0  0  0999 V2000
  187.3380  178.6300  141.3810 C   0  0  0  0  0  3  0  0  0  0  0  0
  187.4540  177.8450  143.7810 C   0  0  0  0  0  0  0  0  0  0  0  0
  189.6490  177.2650  142.7900 C   0  0  0  0  0  3  0  0  0  0  0  0
  189.5590  177.1390  147.4820 C   0  0  0  0  0  2  0  0  0  0  0  0
  191.9360  176.3180  147.5900 N   0  0  0  0  0  1  0  0  0  0  0  0
  186.7420  177.8560  145.0120 C   0  0  0  0  0  3  0  0  0  0  0  0
  190.8080  177.0520  145.4990 C   0  0  0  0  0  0  0  0  0  0  0  0
  190.2090  176.2750  139.1870 C   0  0  0  0  0  3  0  0  0  0  0  0
  191.7830  176.8630  144.7250 O   0  0  0  0  0  0  0  0  0  0  0  0
  189.8800  177.1540  138.2450 C   0  0  0  0  0  3  0  0  0  0  0  0
  189.4450  177.3730  145.1060 C   0  0  0  0  0  0  0  0  0  0  0  0
  186.7500  178.1800  142.6590 C   0  0  0  0  0  0  0  0  0  0  0  0
  190.8890  176.9560  146.9130 N   0  0  0  0  0  0  0  0  0  0  0  0
  188.7160  177.4220  146.2740 C   0  0  0  0  0  0  0  0  0  0  0  0
  188.4580  178.2680  140.7730 C   0  0  0  0  0  0  0  0  0  0  0  0
  188.8590  177.5410  143.8340 C   0  0  0  0  0  0  0  0  0  0  0  0
  190.1280  176.4430  140.6440 C   0  0  0  0  0  3  0  0  0  0  0  0
  187.3520  177.6420  146.2500 C   0  0  0  0  0  3  0  0  0  0  0  0
  189.3390  178.5030  138.4370 C   0  0  0  0  0  3  0  0  0  0  0  0
  188.7240  178.9770  139.5160 C   0  0  0  0  0  3  0  0  0  0  0  0
  189.3830  177.2900  141.3560 C   0  0  0  0  0  0  0  0  0  0  0  0
  182.5180  178.6760  142.7510 N   0  0  0  0  0  0  0  0  0  0  0  0
  185.2690  178.3340  142.6970 C   0  0  0  0  0  0  0  0  0  0  0  0
  184.5020  178.1210  141.5440 C   0  0  0  0  0  3  0  0  0  0  0  0
  183.1170  178.2940  141.5930 C   0  0  0  0  0  3  0  0  0  0  0  0
  183.2370  178.9010  143.8840 C   0  0  0  0  0  3  0  0  0  0  0  0
  184.6250  178.7370  143.8760 C   0  0  0  0  0  3  0  0  0  0  0  0
  1 12  1  0  0  0  0
  2 16  1  0  0  0  0
  2  6  1  0  0  0  0
  3 16  2  0  0  0  0
  6 18  2  0  0  0  0
  7 13  1  0  0  0  0
  8 17  1  0  0  0  0
  9  7  2  0  0  0  0
 10 19  1  0  0  0  0
 10  8  2  0  0  0  0
 11  7  1  0  0  0  0
 11 14  2  0  0  0  0
 12 23  1  0  0  0  0
 12  2  2  0  0  0  0
 13  4  1  0  0  0  0
 13  5  1  0  0  0  0
 14  4  1  0  0  0  0
 15 21  1  0  0  0  0
 15  1  2  0  0  0  0
 16 11  1  0  0  0  0
 17 21  2  0  0  0  0
 18 14  1  0  0  0  0
 19 20  2  0  0  0  0
 20 15  1  0  0  0  0
 21  3  1  0  0  0  0
 22 26  1  0  0  0  0
 23 27  1  0  0  0  0
 24 25  1  0  0  0  0
 24 23  2  0  0  0  0
 25 22  2  0  0  0  0
 27 26  2  0  0  0  0
M  END
>  <MODEL>
1

>  <REMARK>
 VINA RESULT:     -11.0      0.000      0.000
  Name = 
  1 active torsions:
  status: ('A' for Active; 'I' for Inactive)
    1  A    between atoms: C_9  and  C_15
                            x       y       z     vdW  Elec       q    Type
                         _______ _______ _______ _____ _____    ______ ____

>  <TORSDO>
F 1

$$$$
=
 OpenBabel10262420043D

 27 31  0  0  0  0  0  0  0  0999 V2000
  188.3300  177.0390  143.8600 C   0  0  0  0  0  3  0  0  0  0  0  0
  186.1420  178.1340  144.4940 C   0  0  0  0  0  0  0  0  0  0  0  0
  186.2150  178.1920  142.0190 C   0  0  0  0  0  3  0  0  0  0  0  0
  181.9670  179.0120  143.8420 C   0  0  0  0  0  2  0  0  0  0  0  0
  180.9790  179.4340  141.5660 N   0  0  0  0  0  1  0  0  0  0  0  0
  185.2980  178.4200  145.6030 C   0  0  0  0  0  3  0  0  0  0  0  0
  183.2900  178.6010  141.9500 C   0  0  0  0  0  0  0  0  0  0  0  0
  189.3570  178.5410  139.9490 C   0  0  0  0  0  3  0  0  0  0  0  0
  183.6230  178.5120  140.7390 O   0  0  0  0  0  0  0  0  0  0  0  0
  190.2880  177.6010  140.0750 C   0  0  0  0  0  3  0  0  0  0  0  0
  184.1700  178.4570  143.0990 C   0  0  0  0  0  0  0  0  0  0  0  0
  187.4260  177.7600  144.7770 C   0  0  0  0  0  0  0  0  0  0  0  0
  181.9710  178.8870  142.3890 N   0  0  0  0  0  0  0  0  0  0  0  0
  183.3890  178.7000  144.2070 C   0  0  0  0  0  0  0  0  0  0  0  0
  188.4650  177.1170  142.5440 C   0  0  0  0  0  0  0  0  0  0  0  0
  185.5550  178.2050  143.1830 C   0  0  0  0  0  0  0  0  0  0  0  0
  188.0440  178.6010  140.6060 C   0  0  0  0  0  3  0  0  0  0  0  0
  183.9380  178.7080  145.4750 C   0  0  0  0  0  3  0  0  0  0  0  0
  190.2350  176.4020  140.9170 C   0  0  0  0  0  3  0  0  0  0  0  0
  189.4600  176.1990  141.9780 C   0  0  0  0  0  3  0  0  0  0  0  0
  187.6300  178.0030  141.7240 C   0  0  0  0  0  0  0  0  0  0  0  0
  188.9670  177.9930  148.7430 N   0  0  0  0  0  0  0  0  0  0  0  0
  187.9700  177.8610  146.1600 C   0  0  0  0  0  0  0  0  0  0  0  0
  189.2970  177.5010  146.4300 C   0  0  0  0  0  3  0  0  0  0  0  0
  189.7820  177.5790  147.7370 C   0  0  0  0  0  3  0  0  0  0  0  0
  187.6720  178.3380  148.5140 C   0  0  0  0  0  3  0  0  0  0  0  0
  187.1490  178.2750  147.2200 C   0  0  0  0  0  3  0  0  0  0  0  0
  1 12  1  0  0  0  0
  2 12  2  0  0  0  0
  2  6  1  0  0  0  0
  3 16  2  0  0  0  0
  4 14  1  0  0  0  0
  5 13  1  0  0  0  0
  7 13  1  0  0  0  0
  7 11  1  0  0  0  0
  8 10  2  0  0  0  0
  8 17  1  0  0  0  0
  9  7  2  0  0  0  0
 10 19  1  0  0  0  0
 11 16  1  0  0  0  0
 11 14  2  0  0  0  0
 12 23  1  0  0  0  0
 13  4  1  0  0  0  0
 14 18  1  0  0  0  0
 15  1  2  0  0  0  0
 16  2  1  0  0  0  0
 17 21  2  0  0  0  0
 18  6  2  0  0  0  0
 19 20  2  0  0  0  0
 20 15  1  0  0  0  0
 21  3  1  0  0  0  0
 21 15  1  0  0  0  0
 23 24  2  0  0  0  0
 23 27  1  0  0  0  0
 24 25  1  0  0  0  0
 25 22  2  0  0  0  0
 26 22  1  0  0  0  0
 27 26  2  0  0  0  0
M  END
>  <MODEL>
2

>  <REMARK>
 VINA RESULT:     -11.0      2.217      5.982
  Name = 
  1 active torsions:
  status: ('A' for Active; 'I' for Inactive)
    1  A    between atoms: C_9  and  C_15
                            x       y       z     vdW  Elec       q    Type
                         _______ _______ _______ _____ _____    ______ ____

>  <TORSDO>
F 1

$$$$
=
 OpenBabel10262420043D

 27 31  0  0  0  0  0  0  0  0999 V2000
  189.4190  178.4930  141.7550 C   0  0  0  0  0  3  0  0  0  0  0  0
  186.9810  178.2510  141.1370 C   0  0  0  0  0  0  0  0  0  0  0  0
  187.0540  178.0860  143.6070 C   0  0  0  0  0  3  0  0  0  0  0  0
  182.7680  178.8590  141.8540 C   0  0  0  0  0  2  0  0  0  0  0  0
  181.7190  178.7300  144.1380 N   0  0  0  0  0  1  0  0  0  0  0  0
  186.0790  178.3140  140.0390 C   0  0  0  0  0  3  0  0  0  0  0  0
  184.1710  178.7190  143.7280 C   0  0  0  0  0  0  0  0  0  0  0  0
  189.8990  176.5950  145.5980 C   0  0  0  0  0  3  0  0  0  0  0  0
  184.5270  178.6450  144.9340 O   0  0  0  0  0  0  0  0  0  0  0  0
  191.0980  177.1560  145.4790 C   0  0  0  0  0  3  0  0  0  0  0  0
  185.0350  178.5870  142.5650 C   0  0  0  0  0  0  0  0  0  0  0  0
  188.3110  178.1630  140.8370 C   0  0  0  0  0  0  0  0  0  0  0  0
  182.8310  178.9250  143.3100 N   0  0  0  0  0  0  0  0  0  0  0  0
  184.2060  178.6690  141.4680 C   0  0  0  0  0  0  0  0  0  0  0  0
  189.5320  178.3280  143.0650 C   0  0  0  0  0  0  0  0  0  0  0  0
  186.4200  178.3430  142.4580 C   0  0  0  0  0  0  0  0  0  0  0  0
  188.6410  177.0180  144.9680 C   0  0  0  0  0  3  0  0  0  0  0  0
  184.7050  178.5130  140.1880 C   0  0  0  0  0  3  0  0  0  0  0  0
  191.4580  178.3260  144.6720 C   0  0  0  0  0  3  0  0  0  0  0  0
  190.7910  178.8220  143.6340 C   0  0  0  0  0  3  0  0  0  0  0  0
  188.4500  177.7610  143.8770 C   0  0  0  0  0  0  0  0  0  0  0  0
  189.6830  177.4980  136.8570 N   0  0  0  0  0  0  0  0  0  0  0  0
  188.7710  177.9270  139.4400 C   0  0  0  0  0  0  0  0  0  0  0  0
  189.2330  176.6630  139.0480 C   0  0  0  0  0  3  0  0  0  0  0  0
  189.6830  176.4660  137.7420 C   0  0  0  0  0  3  0  0  0  0  0  0
  189.2510  178.7390  137.2110 C   0  0  0  0  0  3  0  0  0  0  0  0
  188.7920  178.9760  138.5090 C   0  0  0  0  0  3  0  0  0  0  0  0
  1 15  1  0  0  0  0
  2 16  1  0  0  0  0
  3 21  2  0  0  0  0
  4 13  1  0  0  0  0
  6 18  1  0  0  0  0
  6  2  2  0  0  0  0
  7  9  2  0  0  0  0
 10  8  1  0  0  0  0
 11  7  1  0  0  0  0
 12  2  1  0  0  0  0
 12  1  2  0  0  0  0
 13  7  1  0  0  0  0
 13  5  1  0  0  0  0
 14  4  1  0  0  0  0
 14 11  1  0  0  0  0
 15 20  2  0  0  0  0
 15 21  1  0  0  0  0
 16 11  2  0  0  0  0
 16  3  1  0  0  0  0
 17  8  2  0  0  0  0
 18 14  2  0  0  0  0
 19 10  2  0  0  0  0
 20 19  1  0  0  0  0
 21 17  1  0  0  0  0
 22 26  2  0  0  0  0
 22 25  1  0  0  0  0
 23 12  1  0  0  0  0
 24 23  1  0  0  0  0
 25 24  2  0  0  0  0
 26 27  1  0  0  0  0
 27 23  2  0  0  0  0
M  END
>  <MODEL>
3

>  <REMARK>
 VINA RESULT:      -9.7      3.171      6.357
  Name = 
  1 active torsions:
  status: ('A' for Active; 'I' for Inactive)
    1  A    between atoms: C_9  and  C_15
                            x       y       z     vdW  Elec       q    Type
                         _______ _______ _______ _____ _____    ______ ____

>  <TORSDO>
F 1

$$$$
=
 OpenBabel10262420043D

 27 31  0  0  0  0  0  0  0  0999 V2000
  186.6770  178.6790  140.8490 C   0  0  0  0  0  3  0  0  0  0  0  0
  186.5010  177.9820  143.2720 C   0  0  0  0  0  0  0  0  0  0  0  0
  188.8490  177.5310  142.6260 C   0  0  0  0  0  3  0  0  0  0  0  0
  188.0950  177.5500  147.2600 C   0  0  0  0  0  2  0  0  0  0  0  0
  190.4820  176.9080  147.7350 N   0  0  0  0  0  1  0  0  0  0  0  0
  185.6200  177.9820  144.3890 C   0  0  0  0  0  3  0  0  0  0  0  0
  189.6180  177.4900  145.4780 C   0  0  0  0  0  0  0  0  0  0  0  0
  189.9850  176.4680  139.1820 C   0  0  0  0  0  3  0  0  0  0  0  0
  190.7050  177.3470  144.8570 O   0  0  0  0  0  0  0  0  0  0  0  0
  189.7360  177.2910  138.1680 C   0  0  0  0  0  3  0  0  0  0  0  0
  188.3080  177.6990  144.8830 C   0  0  0  0  0  0  0  0  0  0  0  0
  185.9440  178.2290  142.0490 C   0  0  0  0  0  0  0  0  0  0  0  0
  189.5030  177.4460  146.8910 N   0  0  0  0  0  0  0  0  0  0  0  0
  187.4170  177.7320  145.9330 C   0  0  0  0  0  0  0  0  0  0  0  0
  187.8950  178.3800  140.4210 C   0  0  0  0  0  0  0  0  0  0  0  0
  187.9000  177.7820  143.5350 C   0  0  0  0  0  0  0  0  0  0  0  0
  189.6850  176.6770  140.6050 C   0  0  0  0  0  3  0  0  0  0  0  0
  186.0590  177.8520  145.7090 C   0  0  0  0  0  3  0  0  0  0  0  0
  189.0850  178.6030  138.2240 C   0  0  0  0  0  3  0  0  0  0  0  0
  188.2910  179.0650  139.1850 C   0  0  0  0  0  3  0  0  0  0  0  0
  188.7900  177.4900  141.1690 C   0  0  0  0  0  0  0  0  0  0  0  0
  181.7100  178.3110  141.5690 N   0  0  0  0  0  0  0  0  0  0  0  0
  184.4660  178.2760  141.8720 C   0  0  0  0  0  0  0  0  0  0  0  0
  183.6450  178.7970  142.8810 C   0  0  0  0  0  3  0  0  0  0  0  0
  182.2600  178.8100  142.7080 C   0  0  0  0  0  3  0  0  0  0  0  0
  182.4800  177.7890  140.5770 C   0  0  0  0  0  3  0  0  0  0  0  0
  183.8700  177.7590  140.7120 C   0  0  0  0  0  3  0  0  0  0  0  0
  1 12  1  0  0  0  0
  2 16  1  0  0  0  0
  2  6  1  0  0  0  0
  3 16  2  0  0  0  0
  6 18  2  0  0  0  0
  7 13  1  0  0  0  0
  8 17  1  0  0  0  0
  9  7  2  0  0  0  0
 10 19  1  0  0  0  0
 10  8  2  0  0  0  0
 11  7  1  0  0  0  0
 11 14  2  0  0  0  0
 12  2  2  0  0  0  0
 13  4  1  0  0  0  0
 13  5  1  0  0  0  0
 14  4  1  0  0  0  0
 15  1  2  0  0  0  0
 15 21  1  0  0  0  0
 16 11  1  0  0  0  0
 17 21  2  0  0  0  0
 18 14  1  0  0  0  0
 19 20  2  0  0  0  0
 20 15  1  0  0  0  0
 21  3  1  0  0  0  0
 22 25  1  0  0  0  0
 23 12  1  0  0  0  0
 23 24  1  0  0  0  0
 25 24  2  0  0  0  0
 26 27  1  0  0  0  0
 26 22  2  0  0  0  0
 27 23  2  0  0  0  0
M  END
>  <MODEL>
4

>  <REMARK>
 VINA RESULT:      -9.6      0.945      1.447
  Name = 
  1 active torsions:
  status: ('A' for Active; 'I' for Inactive)
    1  A    between atoms: C_9  and  C_15
                            x       y       z     vdW  Elec       q    Type
                         _______ _______ _______ _____ _____    ______ ____

>  <TORSDO>
F 1

$$$$
=
 OpenBabel10262420043D

 27 31  0  0  0  0  0  0  0  0999 V2000
  186.5070  177.4320  145.1610 C   0  0  0  0  0  3  0  0  0  0  0  0
  187.4250  177.9990  142.8760 C   0  0  0  0  0  0  0  0  0  0  0  0
  189.4080  177.7340  144.3360 C   0  0  0  0  0  3  0  0  0  0  0  0
  190.3740  177.6670  139.7420 C   0  0  0  0  0  2  0  0  0  0  0  0
  192.8470  177.5030  140.1790 N   0  0  0  0  0  1  0  0  0  0  0  0
  187.0430  178.2070  141.5210 C   0  0  0  0  0  3  0  0  0  0  0  0
  191.1060  177.3580  141.9480 C   0  0  0  0  0  0  0  0  0  0  0  0
  189.5260  178.5970  148.0130 C   0  0  0  0  0  3  0  0  0  0  0  0
  191.8900  177.1920  142.9200 O   0  0  0  0  0  0  0  0  0  0  0  0
  188.6910  177.9570  148.8250 C   0  0  0  0  0  3  0  0  0  0  0  0
  189.6750  177.6060  142.0280 C   0  0  0  0  0  0  0  0  0  0  0  0
  186.4240  178.0140  143.8070 C   0  0  0  0  0  0  0  0  0  0  0  0
  191.5170  177.3500  140.5900 N   0  0  0  0  0  0  0  0  0  0  0  0
  189.2500  177.7880  140.7300 C   0  0  0  0  0  0  0  0  0  0  0  0
  187.5230  177.3610  146.0090 C   0  0  0  0  0  0  0  0  0  0  0  0
  188.8140  177.7360  143.1370 C   0  0  0  0  0  0  0  0  0  0  0  0
  189.6990  178.4050  146.5670 C   0  0  0  0  0  3  0  0  0  0  0  0
  187.9360  178.1120  140.4520 C   0  0  0  0  0  3  0  0  0  0  0  0
  187.7260  176.9130  148.4680 C   0  0  0  0  0  3  0  0  0  0  0  0
  187.2210  176.6640  147.2640 C   0  0  0  0  0  3  0  0  0  0  0  0
  188.8550  177.8790  145.6770 C   0  0  0  0  0  0  0  0  0  0  0  0
  182.4540  179.1830  142.7920 N   0  0  0  0  0  0  0  0  0  0  0  0
  185.0440  178.4410  143.4460 C   0  0  0  0  0  0  0  0  0  0  0  0
  184.1990  179.0060  144.4120 C   0  0  0  0  0  3  0  0  0  0  0  0
  182.9000  179.3770  144.0620 C   0  0  0  0  0  3  0  0  0  0  0  0
  183.2460  178.6280  141.8370 C   0  0  0  0  0  3  0  0  0  0  0  0
  184.5530  178.2430  142.1470 C   0  0  0  0  0  3  0  0  0  0  0  0
  1 15  1  0  0  0  0
  2 16  1  0  0  0  0
  2 12  1  0  0  0  0
  3 21  2  0  0  0  0
  4 13  1  0  0  0  0
  4 14  1  0  0  0  0
  5 13  1  0  0  0  0
  6  2  2  0  0  0  0
  7 11  1  0  0  0  0
  7  9  2  0  0  0  0
  8 10  1  0  0  0  0
 11 16  2  0  0  0  0
 12  1  2  0  0  0  0
 13  7  1  0  0  0  0
 14 11  1  0  0  0  0
 15 20  2  0  0  0  0
 16  3  1  0  0  0  0
 17  8  2  0  0  0  0
 18 14  2  0  0  0  0
 18  6  1  0  0  0  0
 19 10  2  0  0  0  0
 20 19  1  0  0  0  0
 21 15  1  0  0  0  0
 21 17  1  0  0  0  0
 22 25  1  0  0  0  0
 23 12  1  0  0  0  0
 23 24  1  0  0  0  0
 25 24  2  0  0  0  0
 26 27  1  0  0  0  0
 26 22  2  0  0  0  0
 27 23  2  0  0  0  0
M  END
>  <MODEL>
5

>  <REMARK>
 VINA RESULT:      -9.5      2.120      5.331
  Name = 
  1 active torsions:
  status: ('A' for Active; 'I' for Inactive)
    1  A    between atoms: C_9  and  C_15
                            x       y       z     vdW  Elec       q    Type
                         _______ _______ _______ _____ _____    ______ ____

>  <TORSDO>
F 1

$$$$
=
 OpenBabel10262420043D

 27 31  0  0  0  0  0  0  0  0999 V2000
  186.3370  178.7720  144.4920 C   0  0  0  0  0  3  0  0  0  0  0  0
  188.2070  177.8010  143.0970 C   0  0  0  0  0  0  0  0  0  0  0  0
  186.3760  178.2830  141.5010 C   0  0  0  0  0  3  0  0  0  0  0  0
  190.5460  177.5340  139.4800 C   0  0  0  0  0  2  0  0  0  0  0  0
  189.5580  177.7310  137.1730 N   0  0  0  0  0  1  0  0  0  0  0  0
  189.5610  177.3680  143.1610 C   0  0  0  0  0  3  0  0  0  0  0  0
  188.3110  178.2100  139.2700 C   0  0  0  0  0  0  0  0  0  0  0  0
  182.6890  178.0700  142.3000 C   0  0  0  0  0  3  0  0  0  0  0  0
  187.2190  178.5290  138.7280 O   0  0  0  0  0  0  0  0  0  0  0  0
  182.2190  178.8550  143.2640 C   0  0  0  0  0  3  0  0  0  0  0  0
  188.5400  178.0030  140.6910 C   0  0  0  0  0  0  0  0  0  0  0  0
  187.5560  177.9650  144.2870 C   0  0  0  0  0  0  0  0  0  0  0  0
  189.5120  177.9750  138.5510 N   0  0  0  0  0  0  0  0  0  0  0  0
  189.8530  177.6060  140.8090 C   0  0  0  0  0  0  0  0  0  0  0  0
  185.2920  178.9720  143.7010 C   0  0  0  0  0  0  0  0  0  0  0  0
  187.6650  178.0820  141.7950 C   0  0  0  0  0  0  0  0  0  0  0  0
  184.0620  178.0040  141.7820 C   0  0  0  0  0  3  0  0  0  0  0  0
  190.3830  177.2600  142.0370 C   0  0  0  0  0  3  0  0  0  0  0  0
  182.9650  179.8370  144.0570 C   0  0  0  0  0  3  0  0  0  0  0  0
  184.2790  179.8820  144.2490 C   0  0  0  0  0  3  0  0  0  0  0  0
  185.2020  178.3820  142.3610 C   0  0  0  0  0  0  0  0  0  0  0  0
  189.3100  176.7040  147.9610 N   0  0  0  0  0  0  0  0  0  0  0  0
  188.1640  177.5050  145.5670 C   0  0  0  0  0  0  0  0  0  0  0  0
  187.4100  177.4940  146.7490 C   0  0  0  0  0  3  0  0  0  0  0  0
  188.0050  177.0830  147.9430 C   0  0  0  0  0  3  0  0  0  0  0  0
  190.0690  176.7130  146.8320 C   0  0  0  0  0  3  0  0  0  0  0  0
  189.5110  177.1170  145.6170 C   0  0  0  0  0  3  0  0  0  0  0  0
  2  6  1  0  0  0  0
  2 12  2  0  0  0  0
  3 16  2  0  0  0  0
  3 21  1  0  0  0  0
  4 14  1  0  0  0  0
  5 13  1  0  0  0  0
  7 11  1  0  0  0  0
  8 10  2  0  0  0  0
  9  7  2  0  0  0  0
 10 19  1  0  0  0  0
 11 14  2  0  0  0  0
 11 16  1  0  0  0  0
 12  1  1  0  0  0  0
 12 23  1  0  0  0  0
 13  7  1  0  0  0  0
 13  4  1  0  0  0  0
 14 18  1  0  0  0  0
 15 20  1  0  0  0  0
 15  1  2  0  0  0  0
 16  2  1  0  0  0  0
 17  8  1  0  0  0  0
 17 21  2  0  0  0  0
 18  6  2  0  0  0  0
 19 20  2  0  0  0  0
 21 15  1  0  0  0  0
 23 27  2  0  0  0  0
 23 24  1  0  0  0  0
 24 25  2  0  0  0  0
 25 22  1  0  0  0  0
 26 22  2  0  0  0  0
 27 26  1  0  0  0  0
M  END
>  <MODEL>
6

>  <REMARK>
 VINA RESULT:      -9.4      2.926      6.450
  Name = 
  1 active torsions:
  status: ('A' for Active; 'I' for Inactive)
    1  A    between atoms: C_9  and  C_15
                            x       y       z     vdW  Elec       q    Type
                         _______ _______ _______ _____ _____    ______ ____

>  <TORSDO>
F 1

$$$$
=
 OpenBabel10262420043D

 27 31  0  0  0  0  0  0  0  0999 V2000
  187.5820  177.4730  143.9970 C   0  0  0  0  0  3  0  0  0  0  0  0
  186.7380  178.2530  141.7450 C   0  0  0  0  0  0  0  0  0  0  0  0
  189.1870  177.9940  141.4780 C   0  0  0  0  0  3  0  0  0  0  0  0
  186.8300  178.3110  137.4310 C   0  0  0  0  0  2  0  0  0  0  0  0
  188.9590  178.2530  136.0890 N   0  0  0  0  0  1  0  0  0  0  0  0
  185.5490  178.5350  141.0170 C   0  0  0  0  0  3  0  0  0  0  0  0
  188.8490  177.8850  138.5460 C   0  0  0  0  0  0  0  0  0  0  0  0
  191.7410  178.5980  144.1970 C   0  0  0  0  0  3  0  0  0  0  0  0
  190.0800  177.6940  138.7270 O   0  0  0  0  0  0  0  0  0  0  0  0
  191.6610  177.8550  145.2970 C   0  0  0  0  0  3  0  0  0  0  0  0
  187.8400  178.0470  139.5810 C   0  0  0  0  0  0  0  0  0  0  0  0
  186.6180  178.1450  143.1030 C   0  0  0  0  0  0  0  0  0  0  0  0
  188.2450  177.9970  137.2660 N   0  0  0  0  0  0  0  0  0  0  0  0
  186.6570  178.2970  138.9210 C   0  0  0  0  0  0  0  0  0  0  0  0
  188.9040  177.3990  143.9390 C   0  0  0  0  0  0  0  0  0  0  0  0
  187.9440  178.0490  140.9880 C   0  0  0  0  0  0  0  0  0  0  0  0
  190.9010  178.5200  142.9950 C   0  0  0  0  0  3  0  0  0  0  0  0
  185.4970  178.5670  139.6220 C   0  0  0  0  0  3  0  0  0  0  0  0
  190.6980  176.7880  145.5820 C   0  0  0  0  0  3  0  0  0  0  0  0
  189.5150  176.5970  145.0060 C   0  0  0  0  0  3  0  0  0  0  0  0
  189.6750  178.0120  142.8530 C   0  0  0  0  0  0  0  0  0  0  0  0
  182.9900  179.1590  145.0930 N   0  0  0  0  0  0  0  0  0  0  0  0
  185.3540  178.5190  143.7950 C   0  0  0  0  0  0  0  0  0  0  0  0
  185.3260  178.6760  145.1880 C   0  0  0  0  0  3  0  0  0  0  0  0
  184.1260  179.0030  145.8220 C   0  0  0  0  0  3  0  0  0  0  0  0
  182.9830  179.0030  143.7420 C   0  0  0  0  0  3  0  0  0  0  0  0
  184.1640  178.6760  143.0700 C   0  0  0  0  0  3  0  0  0  0  0  0
  2 12  1  0  0  0  0
  3 21  2  0  0  0  0
  4 14  1  0  0  0  0
  5 13  1  0  0  0  0
  6  2  1  0  0  0  0
  7  9  2  0  0  0  0
  7 11  1  0  0  0  0
  8 10  1  0  0  0  0
 10 19  2  0  0  0  0
 11 16  1  0  0  0  0
 12 23  1  0  0  0  0
 12  1  2  0  0  0  0
 13  4  1  0  0  0  0
 13  7  1  0  0  0  0
 14 11  2  0  0  0  0
 14 18  1  0  0  0  0
 15  1  1  0  0  0  0
 15 20  2  0  0  0  0
 16  3  1  0  0  0  0
 16  2  2  0  0  0  0
 17  8  2  0  0  0  0
 18  6  2  0  0  0  0
 20 19  1  0  0  0  0
 21 17  1  0  0  0  0
 21 15  1  0  0  0  0
 22 25  1  0  0  0  0
 23 24  1  0  0  0  0
 24 25  2  0  0  0  0
 26 22  2  0  0  0  0
 27 26  1  0  0  0  0
 27 23  2  0  0  0  0
M  END
>  <MODEL>
7

>  <REMARK>
 VINA RESULT:      -9.3      3.033      5.698
  Name = 
  1 active torsions:
  status: ('A' for Active; 'I' for Inactive)
    1  A    between atoms: C_9  and  C_15
                            x       y       z     vdW  Elec       q    Type
                         _______ _______ _______ _____ _____    ______ ____

>  <TORSDO>
F 1

$$$$
=
 OpenBabel10262420043D

 27 31  0  0  0  0  0  0  0  0999 V2000
  183.8490  178.7790  142.8440 C   0  0  0  0  0  3  0  0  0  0  0  0
  186.1620  178.3000  141.9450 C   0  0  0  0  0  0  0  0  0  0  0  0
  184.6330  178.0230  140.0150 C   0  0  0  0  0  3  0  0  0  0  0  0
  189.1640  178.4050  138.8460 C   0  0  0  0  0  2  0  0  0  0  0  0
  188.6510  178.0470  136.4070 N   0  0  0  0  0  1  0  0  0  0  0  0
  187.5400  178.3190  142.2960 C   0  0  0  0  0  3  0  0  0  0  0  0
  186.9190  178.3270  138.1700 C   0  0  0  0  0  0  0  0  0  0  0  0
  181.0790  176.7560  140.2280 C   0  0  0  0  0  3  0  0  0  0  0  0
  185.9160  178.2330  137.4140 O   0  0  0  0  0  0  0  0  0  0  0  0
  180.2180  177.4510  140.9650 C   0  0  0  0  0  3  0  0  0  0  0  0
  186.9040  178.3480  139.6240 C   0  0  0  0  0  0  0  0  0  0  0  0
  185.2630  178.3750  142.9720 C   0  0  0  0  0  0  0  0  0  0  0  0
  188.2570  178.4050  137.7030 N   0  0  0  0  0  0  0  0  0  0  0  0
  188.2240  178.3930  140.0160 C   0  0  0  0  0  0  0  0  0  0  0  0
  182.9740  178.5620  141.8720 C   0  0  0  0  0  0  0  0  0  0  0  0
  185.8380  178.2640  140.5440 C   0  0  0  0  0  0  0  0  0  0  0  0
  182.4890  177.0680  139.9570 C   0  0  0  0  0  3  0  0  0  0  0  0
  188.5690  178.3580  141.3530 C   0  0  0  0  0  3  0  0  0  0  0  0
  180.4750  178.6920  141.7020 C   0  0  0  0  0  3  0  0  0  0  0  0
  181.6540  179.1630  142.0960 C   0  0  0  0  0  3  0  0  0  0  0  0
  183.3310  177.8390  140.6470 C   0  0  0  0  0  0  0  0  0  0  0  0
  186.5660  178.0870  147.0190 N   0  0  0  0  0  0  0  0  0  0  0  0
  185.7040  178.2600  144.3900 C   0  0  0  0  0  0  0  0  0  0  0  0
  185.1830  179.1180  145.3680 C   0  0  0  0  0  3  0  0  0  0  0  0
  185.6270  179.0120  146.6870 C   0  0  0  0  0  3  0  0  0  0  0  0
  187.0980  177.2480  146.0900 C   0  0  0  0  0  3  0  0  0  0  0  0
  186.6790  177.3220  144.7590 C   0  0  0  0  0  3  0  0  0  0  0  0
  1 12  1  0  0  0  0
  2  6  1  0  0  0  0
  2 12  2  0  0  0  0
  3 16  2  0  0  0  0
  3 21  1  0  0  0  0
  4 14  1  0  0  0  0
  5 13  1  0  0  0  0
  7 11  1  0  0  0  0
  8 10  2  0  0  0  0
  9  7  2  0  0  0  0
 10 19  1  0  0  0  0
 11 14  2  0  0  0  0
 11 16  1  0  0  0  0
 12 23  1  0  0  0  0
 13  7  1  0  0  0  0
 13  4  1  0  0  0  0
 14 18  1  0  0  0  0
 15 20  1  0  0  0  0
 15  1  2  0  0  0  0
 16  2  1  0  0  0  0
 17  8  1  0  0  0  0
 17 21  2  0  0  0  0
 18  6  2  0  0  0  0
 19 20  2  0  0  0  0
 21 15  1  0  0  0  0
 23 27  2  0  0  0  0
 23 24  1  0  0  0  0
 24 25  2  0  0  0  0
 25 22  1  0  0  0  0
 26 22  2  0  0  0  0
 27 26  1  0  0  0  0
M  END
>  <MODEL>
8

>  <REMARK>
 VINA RESULT:      -8.9      3.383      6.758
  Name = 
  1 active torsions:
  status: ('A' for Active; 'I' for Inactive)
    1  A    between atoms: C_9  and  C_15
                            x       y       z     vdW  Elec       q    Type
                         _______ _______ _______ _____ _____    ______ ____

>  <TORSDO>
F 1

$$$$
=
 OpenBabel10262420043D

 27 31  0  0  0  0  0  0  0  0999 V2000
  188.8020  177.9020  145.6180 C   0  0  0  0  0  3  0  0  0  0  0  0
  189.5760  177.2220  143.3100 C   0  0  0  0  0  0  0  0  0  0  0  0
  187.2670  178.0680  143.0090 C   0  0  0  0  0  3  0  0  0  0  0  0
  189.7200  177.7010  139.0230 C   0  0  0  0  0  2  0  0  0  0  0  0
  187.7390  178.4070  137.6400 N   0  0  0  0  0  1  0  0  0  0  0  0
  190.7100  176.7630  142.5860 C   0  0  0  0  0  3  0  0  0  0  0  0
  187.7890  178.4440  140.1260 C   0  0  0  0  0  0  0  0  0  0  0  0
  184.4910  177.7500  145.5540 C   0  0  0  0  0  3  0  0  0  0  0  0
  186.6230  178.8900  140.2950 O   0  0  0  0  0  0  0  0  0  0  0  0
  184.6740  178.3180  146.7420 C   0  0  0  0  0  3  0  0  0  0  0  0
  188.6740  177.9330  141.1600 C   0  0  0  0  0  0  0  0  0  0  0  0
  189.6390  177.1380  144.6730 C   0  0  0  0  0  0  0  0  0  0  0  0
  188.4240  178.3490  138.8600 N   0  0  0  0  0  0  0  0  0  0  0  0
  189.8060  177.4970  140.5080 C   0  0  0  0  0  0  0  0  0  0  0  0
  187.5360  178.2850  145.5330 C   0  0  0  0  0  0  0  0  0  0  0  0
  188.4920  177.7870  142.5510 C   0  0  0  0  0  0  0  0  0  0  0  0
  185.3960  177.7750  144.3960 C   0  0  0  0  0  3  0  0  0  0  0  0
  190.8340  176.8860  141.2000 C   0  0  0  0  0  3  0  0  0  0  0  0
  185.8340  179.0930  147.1900 C   0  0  0  0  0  3  0  0  0  0  0  0
  187.0610  179.0730  146.6770 C   0  0  0  0  0  3  0  0  0  0  0  0
  186.7100  177.9990  144.3550 C   0  0  0  0  0  0  0  0  0  0  0  0
  192.7650  174.9910  146.6180 N   0  0  0  0  0  0  0  0  0  0  0  0
  190.7450  176.4030  145.3470 C   0  0  0  0  0  0  0  0  0  0  0  0
  191.4640  175.4140  144.6610 C   0  0  0  0  0  3  0  0  0  0  0  0
  192.4800  174.7170  145.3180 C   0  0  0  0  0  3  0  0  0  0  0  0
  192.0780  175.9370  147.3130 C   0  0  0  0  0  3  0  0  0  0  0  0
  191.0540  176.6570  146.6920 C   0  0  0  0  0  3  0  0  0  0  0  0
  2 12  1  0  0  0  0
  3 21  2  0  0  0  0
  4 14  1  0  0  0  0
  5 13  1  0  0  0  0
  6  2  1  0  0  0  0
  7  9  2  0  0  0  0
  7 11  1  0  0  0  0
  8 10  1  0  0  0  0
 10 19  2  0  0  0  0
 11 16  1  0  0  0  0
 12 23  1  0  0  0  0
 12  1  2  0  0  0  0
 13  4  1  0  0  0  0
 13  7  1  0  0  0  0
 14 11  2  0  0  0  0
 14 18  1  0  0  0  0
 15  1  1  0  0  0  0
 15 20  2  0  0  0  0
 16  3  1  0  0  0  0
 16  2  2  0  0  0  0
 17  8  2  0  0  0  0
 18  6  2  0  0  0  0
 20 19  1  0  0  0  0
 21 17  1  0  0  0  0
 21 15  1  0  0  0  0
 22 26  1  0  0  0  0
 23 27  1  0  0  0  0
 24 25  1  0  0  0  0
 24 23  2  0  0  0  0
 25 22  2  0  0  0  0
 27 26  2  0  0  0  0
M  END
>  <MODEL>
9

>  <REMARK>
 VINA RESULT:      -8.6      2.779      7.251
  Name = 
  1 active torsions:
  status: ('A' for Active; 'I' for Inactive)
    1  A    between atoms: C_9  and  C_15
                            x       y       z     vdW  Elec       q    Type
                         _______ _______ _______ _____ _____    ______ ____

>  <TORSDO>
F 1

$$$$
