=
 OpenBabel10262419593D

 27 31  0  0  1  0  0  0  0  0999 V2000
  187.7250  176.2950  143.4000 N   0  0  0  0  0  2  0  0  0  0  0  0
  187.5750  178.1910  141.3930 C   0  0  0  0  0  0  0  0  0  0  0  0
  189.0050  176.7320  142.8140 C   0  0  1  0  0  3  0  0  0  0  0  0
  190.1950  177.0050  137.5520 C   0  0  0  0  0  3  0  0  0  0  0  0
  191.6040  175.2330  138.2290 O   0  0  0  0  0  0  0  0  0  0  0  0
  187.3970  178.7370  139.8080 S   0  0  0  0  0  0  0  0  0  0  0  0
  190.6390  176.4400  140.0610 C   0  0  1  0  0  3  0  0  0  0  0  0
  191.8850  177.1190  140.5940 C   0  0  0  0  0  1  0  0  0  0  0  0
  189.4270  177.3080  140.3030 C   0  0  0  0  0  0  0  0  0  0  0  0
  186.5720  178.1960  142.4130 N   0  0  0  0  0  0  0  0  0  0  0  0
  190.8400  176.1660  138.5870 C   0  0  0  0  0  0  0  0  0  0  0  0
  189.2390  177.8820  137.8690 C   0  0  0  0  0  3  0  0  0  0  0  0
  186.8330  177.4450  143.6500 C   0  0  0  0  0  2  0  0  0  0  0  0
  188.7250  177.4350  141.5150 C   0  0  0  0  0  0  0  0  0  0  0  0
  188.8150  178.0060  139.2650 C   0  0  0  0  0  0  0  0  0  0  0  0
  181.7850  179.0150  143.6960 C   0  0  0  0  0  1  0  0  0  0  0  0
  185.4320  179.1020  142.3170 C   0  0  2  0  0  3  0  0  0  0  0  0
  184.5780  179.2290  143.9350 S   0  0  0  0  0  0  0  0  0  0  0  0
  183.0930  178.7160  143.1480 N   0  0  0  0  0  0  0  0  0  0  0  0
  183.2780  178.4400  141.7740 C   0  0  0  0  0  3  0  0  0  0  0  0
  184.4750  178.6130  141.3300 N   0  0  0  0  0  0  0  0  0  0  0  0
  191.6700  179.0550  144.0840 N   0  0  0  0  0  2  0  0  0  0  0  0
  191.7280  177.9890  145.0830 C   0  0  0  0  0  2  0  0  0  0  0  0
  190.5420  178.7630  143.2060 C   0  0  0  0  0  2  0  0  0  0  0  0
  191.5110  175.9110  143.8770 N   0  0  0  0  0  1  0  0  0  0  0  0
  190.7780  176.8890  144.6670 C   0  0  2  0  0  3  0  0  0  0  0  0
  189.7610  177.6250  143.8220 C   0  0  2  0  0  3  0  0  0  0  0  0
  1 13  1  0  0  0  0
  2 14  2  0  0  0  0
  2 10  1  0  0  0  0
  3 14  1  6  0  0  0
  3  1  1  0  0  0  0
  3 27  1  0  0  0  0
  4 12  2  0  0  0  0
  4 11  1  0  0  0  0
  5 11  2  0  0  0  0
  6  2  1  0  0  0  0
  7  9  1  0  0  0  0
  7  8  1  6  0  0  0
  9 14  1  0  0  0  0
 10 13  1  0  0  0  0
 11  7  1  0  0  0  0
 12 15  1  0  0  0  0
 15  6  1  0  0  0  0
 15  9  2  0  0  0  0
 17 10  1  1  0  0  0
 17 18  1  0  0  0  0
 19 16  1  0  0  0  0
 19 18  1  0  0  0  0
 20 19  1  0  0  0  0
 21 20  2  0  0  0  0
 21 17  1  0  0  0  0
 22 23  1  0  0  0  0
 24 22  1  0  0  0  0
 26 25  1  6  0  0  0
 26 23  1  0  0  0  0
 27 24  1  6  0  0  0
 27 26  1  0  0  0  0
M  END
>  <MODEL>
1

>  <REMARK>
 VINA RESULT:      -7.7      0.000      0.000
  Name = 
  2 active torsions:
  status: ('A' for Active; 'I' for Inactive)
    1  A    between atoms: C_3  and  C_26
    2  A    between atoms: C_9  and  N_15
                            x       y       z     vdW  Elec       q    Type
                         _______ _______ _______ _____ _____    ______ ____

>  <TORSDO>
F 2

$$$$
=
 OpenBabel10262419593D

 27 31  0  0  1  0  0  0  0  0999 V2000
  190.1640  175.0810  137.6390 N   0  0  0  0  0  2  0  0  0  0  0  0
  191.8410  176.7730  139.0430 C   0  0  0  0  0  0  0  0  0  0  0  0
  189.5250  176.2240  138.3160 C   0  0  1  0  0  3  0  0  0  0  0  0
  190.2230  177.7030  143.4640 C   0  0  0  0  0  3  0  0  0  0  0  0
  187.9770  176.9690  143.5180 O   0  0  0  0  0  0  0  0  0  0  0  0
  192.7220  177.2960  140.3810 S   0  0  0  0  0  0  0  0  0  0  0  0
  188.8500  177.2100  141.3000 C   0  0  1  0  0  3  0  0  0  0  0  0
  188.0400  178.4080  140.8440 C   0  0  0  0  0  1  0  0  0  0  0  0
  190.2060  177.2130  140.6340 C   0  0  0  0  0  0  0  0  0  0  0  0
  192.3590  176.0990  137.8930 N   0  0  0  0  0  0  0  0  0  0  0  0
  188.9710  177.2630  142.8070 C   0  0  0  0  0  0  0  0  0  0  0  0
  191.3540  177.8480  142.7710 C   0  0  0  0  0  3  0  0  0  0  0  0
  191.4050  175.4930  136.9520 C   0  0  0  0  0  2  0  0  0  0  0  0
  190.4880  176.7870  139.3240 C   0  0  0  0  0  0  0  0  0  0  0  0
  191.3580  177.5550  141.3360 C   0  0  0  0  0  0  0  0  0  0  0  0
  196.1000  174.3630  135.0250 C   0  0  0  0  0  1  0  0  0  0  0  0
  193.7730  176.2100  137.5520 C   0  0  2  0  0  3  0  0  0  0  0  0
  194.0050  176.0980  135.7360 S   0  0  0  0  0  0  0  0  0  0  0  0
  195.0960  174.7450  135.9980 N   0  0  0  0  0  0  0  0  0  0  0  0
  195.2190  174.4080  137.3650 C   0  0  0  0  0  3  0  0  0  0  0  0
  194.5350  175.1350  138.1790 N   0  0  0  0  0  0  0  0  0  0  0  0
  188.0180  179.4010  136.9930 N   0  0  0  0  0  2  0  0  0  0  0  0
  187.3010  178.4000  136.2040 C   0  0  0  0  0  2  0  0  0  0  0  0
  189.0310  178.6930  137.7690 C   0  0  0  0  0  2  0  0  0  0  0  0
  186.7720  176.5920  137.7110 N   0  0  0  0  0  1  0  0  0  0  0  0
  187.7090  177.0270  136.6850 C   0  0  2  0  0  3  0  0  0  0  0  0
  189.0850  177.2690  137.2670 C   0  0  2  0  0  3  0  0  0  0  0  0
  2 14  2  0  0  0  0
  2  6  1  0  0  0  0
  3  1  1  6  0  0  0
  3 14  1  0  0  0  0
  6 15  1  0  0  0  0
  7  8  1  6  0  0  0
  7 11  1  0  0  0  0
  9  7  1  0  0  0  0
  9 15  2  0  0  0  0
 10  2  1  0  0  0  0
 11  4  1  0  0  0  0
 11  5  2  0  0  0  0
 12  4  2  0  0  0  0
 13  1  1  0  0  0  0
 13 10  1  0  0  0  0
 14  9  1  0  0  0  0
 15 12  1  0  0  0  0
 16 19  1  0  0  0  0
 17 10  1  6  0  0  0
 17 21  1  0  0  0  0
 18 19  1  0  0  0  0
 18 17  1  0  0  0  0
 19 20  1  0  0  0  0
 20 21  2  0  0  0  0
 22 24  1  0  0  0  0
 23 26  1  0  0  0  0
 23 22  1  0  0  0  0
 26 27  1  0  0  0  0
 26 25  1  1  0  0  0
 27 24  1  1  0  0  0
 27  3  1  0  0  0  0
M  END
>  <MODEL>
2

>  <REMARK>
 VINA RESULT:      -7.2      4.278      8.324
  Name = 
  2 active torsions:
  status: ('A' for Active; 'I' for Inactive)
    1  A    between atoms: C_3  and  C_26
    2  A    between atoms: C_9  and  N_15
                            x       y       z     vdW  Elec       q    Type
                         _______ _______ _______ _____ _____    ______ ____

>  <TORSDO>
F 2

$$$$
=
 OpenBabel10262419593D

 27 31  0  0  1  0  0  0  0  0999 V2000
  187.1780  179.5170  140.8380 N   0  0  0  0  0  2  0  0  0  0  0  0
  186.8210  177.7260  142.9130 C   0  0  0  0  0  0  0  0  0  0  0  0
  188.2810  178.5720  141.0850 C   0  0  1  0  0  3  0  0  0  0  0  0
  190.6140  177.5390  145.8460 C   0  0  0  0  0  3  0  0  0  0  0  0
  192.3800  178.6360  144.7210 O   0  0  0  0  0  0  0  0  0  0  0  0
  186.8680  177.2050  144.5160 S   0  0  0  0  0  0  0  0  0  0  0  0
  190.5630  178.0250  143.2830 C   0  0  1  0  0  3  0  0  0  0  0  0
  191.2420  176.9370  142.4740 C   0  0  0  0  0  1  0  0  0  0  0  0
  189.0880  177.7300  143.4200 C   0  0  0  0  0  0  0  0  0  0  0  0
  185.6680  178.1820  142.1990 N   0  0  0  0  0  0  0  0  0  0  0  0
  191.2410  178.1090  144.6320 C   0  0  0  0  0  0  0  0  0  0  0  0
  189.3410  177.1380  145.8440 C   0  0  0  0  0  3  0  0  0  0  0  0
  185.8690  178.8370  140.8980 C   0  0  0  0  0  2  0  0  0  0  0  0
  188.0990  177.9650  142.4480 C   0  0  0  0  0  0  0  0  0  0  0  0
  188.5480  177.2760  144.6210 C   0  0  0  0  0  0  0  0  0  0  0  0
  180.7730  179.3060  142.1040 C   0  0  0  0  0  1  0  0  0  0  0  0
  184.3320  177.8040  142.6450 C   0  0  2  0  0  3  0  0  0  0  0  0
  183.1220  177.9980  141.2810 S   0  0  0  0  0  0  0  0  0  0  0  0
  182.1880  179.0710  142.3130 N   0  0  0  0  0  0  0  0  0  0  0  0
  182.7970  179.2730  143.5720 C   0  0  0  0  0  3  0  0  0  0  0  0
  183.9070  178.6480  143.7580 N   0  0  0  0  0  0  0  0  0  0  0  0
  189.7850  176.2650  138.5290 N   0  0  0  0  0  2  0  0  0  0  0  0
  188.8270  177.0060  137.7090 C   0  0  0  0  0  2  0  0  0  0  0  0
  189.5790  176.6790  139.9130 C   0  0  0  0  0  2  0  0  0  0  0  0
  188.9550  179.3080  138.4220 N   0  0  0  0  0  1  0  0  0  0  0  0
  188.1900  178.0770  138.5650 C   0  0  2  0  0  3  0  0  0  0  0  0
  188.3190  177.5110  139.9630 C   0  0  2  0  0  3  0  0  0  0  0  0
  1 13  1  0  0  0  0
  2  6  1  0  0  0  0
  3  1  1  6  0  0  0
  3 14  1  0  0  0  0
  6 15  1  0  0  0  0
  7  8  1  6  0  0  0
  7  9  1  0  0  0  0
  7 11  1  0  0  0  0
  9 15  2  0  0  0  0
 10  2  1  0  0  0  0
 11  5  2  0  0  0  0
 11  4  1  0  0  0  0
 12  4  2  0  0  0  0
 13 10  1  0  0  0  0
 14  2  2  0  0  0  0
 14  9  1  0  0  0  0
 15 12  1  0  0  0  0
 16 19  1  0  0  0  0
 17 10  1  6  0  0  0
 17 21  1  0  0  0  0
 18 19  1  0  0  0  0
 18 17  1  0  0  0  0
 19 20  1  0  0  0  0
 20 21  2  0  0  0  0
 22 24  1  0  0  0  0
 23 22  1  0  0  0  0
 23 26  1  0  0  0  0
 26 25  1  1  0  0  0
 26 27  1  0  0  0  0
 27 24  1  6  0  0  0
 27  3  1  0  0  0  0
M  END
>  <MODEL>
3

>  <REMARK>
 VINA RESULT:      -6.8      2.635      4.757
  Name = 
  2 active torsions:
  status: ('A' for Active; 'I' for Inactive)
    1  A    between atoms: C_3  and  C_26
    2  A    between atoms: C_9  and  N_15
                            x       y       z     vdW  Elec       q    Type
                         _______ _______ _______ _____ _____    ______ ____

>  <TORSDO>
F 2

$$$$
=
 OpenBabel10262419593D

 27 31  0  0  1  0  0  0  0  0999 V2000
  188.7920  179.2810  140.7090 N   0  0  0  0  0  2  0  0  0  0  0  0
  186.2440  178.2120  140.5980 C   0  0  0  0  0  0  0  0  0  0  0  0
  188.3670  178.4790  141.8690 C   0  0  1  0  0  3  0  0  0  0  0  0
  183.7450  179.0100  144.6160 C   0  0  0  0  0  3  0  0  0  0  0  0
  185.3050  179.7380  146.2360 O   0  0  0  0  0  0  0  0  0  0  0  0
  184.5700  178.2120  140.7950 S   0  0  0  0  0  0  0  0  0  0  0  0
  186.3200  178.6800  144.3400 C   0  0  1  0  0  3  0  0  0  0  0  0
  186.8140  177.4080  145.0020 C   0  0  0  0  0  1  0  0  0  0  0  0
  185.9670  178.4140  142.8960 C   0  0  0  0  0  0  0  0  0  0  0  0
  186.9580  178.4040  139.3730 N   0  0  0  0  0  0  0  0  0  0  0  0
  185.1270  179.1890  145.1180 C   0  0  0  0  0  0  0  0  0  0  0  0
  183.5110  178.6040  143.3660 C   0  0  0  0  0  3  0  0  0  0  0  0
  188.4090  178.6290  139.4400 C   0  0  0  0  0  2  0  0  0  0  0  0
  186.8720  178.3190  141.8240 C   0  0  0  0  0  0  0  0  0  0  0  0
  184.6420  178.3420  142.4740 C   0  0  0  0  0  0  0  0  0  0  0  0
  187.2690  176.1430  134.8990 C   0  0  0  0  0  1  0  0  0  0  0  0
  186.3000  178.1570  138.0940 C   0  0  2  0  0  3  0  0  0  0  0  0
  186.5120  176.4060  137.5930 S   0  0  0  0  0  0  0  0  0  0  0  0
  187.2380  176.9630  136.0930 N   0  0  0  0  0  0  0  0  0  0  0  0
  187.3310  178.3720  136.0300 C   0  0  0  0  0  3  0  0  0  0  0  0
  186.8730  179.0050  137.0540 N   0  0  0  0  0  0  0  0  0  0  0  0
  189.7220  175.2530  143.2360 N   0  0  0  0  0  2  0  0  0  0  0  0
  190.9300  175.8440  142.6630 C   0  0  0  0  0  2  0  0  0  0  0  0
  188.6040  176.1170  142.8730 C   0  0  0  0  0  2  0  0  0  0  0  0
  190.8620  178.1950  143.2020 N   0  0  0  0  0  1  0  0  0  0  0  0
  190.5920  177.2250  142.1500 C   0  0  2  0  0  3  0  0  0  0  0  0
  189.1090  177.1240  141.8660 C   0  0  2  0  0  3  0  0  0  0  0  0
  2  6  1  0  0  0  0
  2 14  2  0  0  0  0
  3  1  1  6  0  0  0
  4 11  1  0  0  0  0
  6 15  1  0  0  0  0
  7  8  1  1  0  0  0
  7 11  1  0  0  0  0
  9  7  1  0  0  0  0
 10 13  1  0  0  0  0
 10  2  1  0  0  0  0
 11  5  2  0  0  0  0
 12  4  2  0  0  0  0
 13  1  1  0  0  0  0
 14  3  1  0  0  0  0
 14  9  1  0  0  0  0
 15  9  2  0  0  0  0
 15 12  1  0  0  0  0
 16 19  1  0  0  0  0
 17 10  1  1  0  0  0
 18 17  1  0  0  0  0
 19 18  1  0  0  0  0
 20 19  1  0  0  0  0
 20 21  2  0  0  0  0
 21 17  1  0  0  0  0
 23 22  1  0  0  0  0
 24 22  1  0  0  0  0
 26 23  1  0  0  0  0
 26 25  1  1  0  0  0
 27  3  1  0  0  0  0
 27 26  1  0  0  0  0
 27 24  1  1  0  0  0
M  END
>  <MODEL>
4

>  <REMARK>
 VINA RESULT:      -6.4      3.315      5.963
  Name = 
  2 active torsions:
  status: ('A' for Active; 'I' for Inactive)
    1  A    between atoms: C_3  and  C_26
    2  A    between atoms: C_9  and  N_15
                            x       y       z     vdW  Elec       q    Type
                         _______ _______ _______ _____ _____    ______ ____

>  <TORSDO>
F 2

$$$$
=
 OpenBabel10262419593D

 27 31  0  0  1  0  0  0  0  0999 V2000
  187.7350  178.8550  136.6960 N   0  0  0  0  0  2  0  0  0  0  0  0
  187.4630  177.9180  139.2830 C   0  0  0  0  0  0  0  0  0  0  0  0
  188.6220  177.7460  137.0880 C   0  0  1  0  0  3  0  0  0  0  0  0
  191.6800  177.5020  141.5350 C   0  0  0  0  0  3  0  0  0  0  0  0
  193.3450  177.6730  139.8660 O   0  0  0  0  0  0  0  0  0  0  0  0
  187.7540  177.8900  140.9440 S   0  0  0  0  0  0  0  0  0  0  0  0
  191.1590  177.2230  138.9930 C   0  0  1  0  0  3  0  0  0  0  0  0
  191.3730  175.8010  138.5120 C   0  0  0  0  0  1  0  0  0  0  0  0
  189.7260  177.4160  139.4310 C   0  0  0  0  0  0  0  0  0  0  0  0
  186.3120  178.4610  138.6290 N   0  0  0  0  0  0  0  0  0  0  0  0
  192.1270  177.4940  140.1230 C   0  0  0  0  0  0  0  0  0  0  0  0
  190.3830  177.5010  141.8500 C   0  0  0  0  0  3  0  0  0  0  0  0
  186.3550  178.6270  137.1690 C   0  0  0  0  0  2  0  0  0  0  0  0
  188.6220  177.6350  138.5880 C   0  0  0  0  0  0  0  0  0  0  0  0
  189.3850  177.5020  140.7780 C   0  0  0  0  0  0  0  0  0  0  0  0
  181.3050  178.7050  138.3200 C   0  0  0  0  0  1  0  0  0  0  0  0
  185.0620  178.6280  139.3630 C   0  0  2  0  0  3  0  0  0  0  0  0
  183.7920  177.4620  138.7360 S   0  0  0  0  0  0  0  0  0  0  0  0
  182.7450  178.8370  138.4150 N   0  0  0  0  0  0  0  0  0  0  0  0
  183.3590  180.0690  138.7340 C   0  0  0  0  0  3  0  0  0  0  0  0
  184.5550  179.9870  139.2040 N   0  0  0  0  0  0  0  0  0  0  0  0
  188.5360  174.0750  136.2940 N   0  0  0  0  0  2  0  0  0  0  0  0
  188.7090  174.6470  134.9590 C   0  0  0  0  0  2  0  0  0  0  0  0
  188.3430  175.1870  137.2180 C   0  0  0  0  0  2  0  0  0  0  0  0
  190.2950  176.4500  135.1880 N   0  0  0  0  0  1  0  0  0  0  0  0
  188.8740  176.1430  135.0960 C   0  0  2  0  0  3  0  0  0  0  0  0
  188.1630  176.4430  136.3980 C   0  0  2  0  0  3  0  0  0  0  0  0
  1 13  1  0  0  0  0
  2  6  1  0  0  0  0
  3  1  1  1  0  0  0
  3 14  1  0  0  0  0
  4 12  2  0  0  0  0
  5 11  2  0  0  0  0
  7  8  1  1  0  0  0
  7  9  1  0  0  0  0
  7 11  1  0  0  0  0
  9 15  2  0  0  0  0
 10  2  1  0  0  0  0
 11  4  1  0  0  0  0
 13 10  1  0  0  0  0
 14  2  2  0  0  0  0
 14  9  1  0  0  0  0
 15  6  1  0  0  0  0
 15 12  1  0  0  0  0
 16 19  1  0  0  0  0
 17 10  1  6  0  0  0
 18 17  1  0  0  0  0
 19 20  1  0  0  0  0
 19 18  1  0  0  0  0
 20 21  2  0  0  0  0
 21 17  1  0  0  0  0
 22 24  1  0  0  0  0
 23 26  1  0  0  0  0
 23 22  1  0  0  0  0
 26 25  1  1  0  0  0
 26 27  1  0  0  0  0
 27  3  1  0  0  0  0
 27 24  1  1  0  0  0
M  END
>  <MODEL>
5

>  <REMARK>
 VINA RESULT:      -6.2      3.497      5.570
  Name = 
  2 active torsions:
  status: ('A' for Active; 'I' for Inactive)
    1  A    between atoms: C_3  and  C_26
    2  A    between atoms: C_9  and  N_15
                            x       y       z     vdW  Elec       q    Type
                         _______ _______ _______ _____ _____    ______ ____

>  <TORSDO>
F 2

$$$$
=
 OpenBabel10262419593D

 27 31  0  0  1  0  0  0  0  0999 V2000
  188.5200  175.9440  142.7790 N   0  0  0  0  0  2  0  0  0  0  0  0
  187.6750  177.9410  144.4950 C   0  0  0  0  0  0  0  0  0  0  0  0
  187.7380  177.0380  142.1770 C   0  0  1  0  0  3  0  0  0  0  0  0
  183.0180  178.9660  143.9620 C   0  0  0  0  0  3  0  0  0  0  0  0
  182.3390  177.9470  141.9410 O   0  0  0  0  0  0  0  0  0  0  0  0
  186.6410  178.6720  145.6070 S   0  0  0  0  0  0  0  0  0  0  0  0
  184.7170  178.1400  142.1620 C   0  0  1  0  0  3  0  0  0  0  0  0
  184.9820  179.1840  141.0940 C   0  0  0  0  0  1  0  0  0  0  0  0
  185.7220  178.2740  143.2830 C   0  0  0  0  0  0  0  0  0  0  0  0
  188.8980  177.2600  144.7900 N   0  0  0  0  0  0  0  0  0  0  0  0
  183.3010  178.3170  142.6620 C   0  0  0  0  0  0  0  0  0  0  0  0
  183.9930  179.2090  144.8410 C   0  0  0  0  0  3  0  0  0  0  0  0
  189.5280  176.4660  143.7240 C   0  0  0  0  0  2  0  0  0  0  0  0
  187.0440  177.7960  143.2750 C   0  0  0  0  0  0  0  0  0  0  0  0
  185.3650  178.8170  144.5150 C   0  0  0  0  0  0  0  0  0  0  0  0
  192.5350  175.7750  147.9210 C   0  0  0  0  0  1  0  0  0  0  0  0
  189.6080  177.5330  146.0350 C   0  0  2  0  0  3  0  0  0  0  0  0
  191.4090  177.2620  145.8170 S   0  0  0  0  0  0  0  0  0  0  0  0
  191.3570  176.1120  147.1450 N   0  0  0  0  0  0  0  0  0  0  0  0
  190.0530  175.9440  147.6620 C   0  0  0  0  0  3  0  0  0  0  0  0
  189.1360  176.6490  147.0950 N   0  0  0  0  0  0  0  0  0  0  0  0
  188.9340  178.9480  139.1710 N   0  0  0  0  0  2  0  0  0  0  0  0
  190.1050  178.1230  139.4640 C   0  0  0  0  0  2  0  0  0  0  0  0
  187.9730  178.7290  140.2470 C   0  0  0  0  0  2  0  0  0  0  0  0
  189.2720  175.9360  140.0510 N   0  0  0  0  0  1  0  0  0  0  0  0
  189.7640  177.1910  140.6030 C   0  0  2  0  0  3  0  0  0  0  0  0
  188.6660  177.9370  141.3300 C   0  0  2  0  0  3  0  0  0  0  0  0
  1 13  1  0  0  0  0
  2 10  1  0  0  0  0
  2  6  1  0  0  0  0
  3  1  1  1  0  0  0
  3 14  1  0  0  0  0
  4 12  2  0  0  0  0
  5 11  2  0  0  0  0
  7  8  1  6  0  0  0
  7 11  1  0  0  0  0
  7  9  1  0  0  0  0
  9 15  2  0  0  0  0
 11  4  1  0  0  0  0
 13 10  1  0  0  0  0
 14  9  1  0  0  0  0
 14  2  2  0  0  0  0
 15 12  1  0  0  0  0
 15  6  1  0  0  0  0
 17 10  1  6  0  0  0
 17 21  1  0  0  0  0
 18 17  1  0  0  0  0
 18 19  1  0  0  0  0
 19 20  1  0  0  0  0
 19 16  1  0  0  0  0
 21 20  2  0  0  0  0
 22 23  1  0  0  0  0
 22 24  1  0  0  0  0
 23 26  1  0  0  0  0
 26 25  1  6  0  0  0
 26 27  1  0  0  0  0
 27 24  1  6  0  0  0
 27  3  1  0  0  0  0
M  END
>  <MODEL>
6

>  <REMARK>
 VINA RESULT:      -6.1      3.255      6.626
  Name = 
  2 active torsions:
  status: ('A' for Active; 'I' for Inactive)
    1  A    between atoms: C_3  and  C_26
    2  A    between atoms: C_9  and  N_15
                            x       y       z     vdW  Elec       q    Type
                         _______ _______ _______ _____ _____    ______ ____

>  <TORSDO>
F 2

$$$$
=
 OpenBabel10262419593D

 27 31  0  0  1  0  0  0  0  0999 V2000
  185.3430  179.9480  142.5610 N   0  0  0  0  0  2  0  0  0  0  0  0
  186.9950  177.7310  142.4990 C   0  0  0  0  0  0  0  0  0  0  0  0
  185.4420  179.2400  141.2720 C   0  0  1  0  0  3  0  0  0  0  0  0
  189.9960  177.7860  138.7550 C   0  0  0  0  0  3  0  0  0  0  0  0
  189.1950  179.4550  137.2860 O   0  0  0  0  0  0  0  0  0  0  0  0
  188.4590  176.9130  142.3320 S   0  0  0  0  0  0  0  0  0  0  0  0
  187.5840  178.7690  138.9210 C   0  0  1  0  0  3  0  0  0  0  0  0
  186.6030  178.0500  138.0150 C   0  0  0  0  0  1  0  0  0  0  0  0
  187.5930  178.1320  140.2910 C   0  0  0  0  0  0  0  0  0  0  0  0
  186.3370  178.0590  143.7270 N   0  0  0  0  0  0  0  0  0  0  0  0
  188.9510  178.7200  138.2770 C   0  0  0  0  0  0  0  0  0  0  0  0
  189.8560  177.1220  139.9050 C   0  0  0  0  0  3  0  0  0  0  0  0
  185.2060  178.9970  143.6830 C   0  0  0  0  0  2  0  0  0  0  0  0
  186.6450  178.3380  141.3090 C   0  0  0  0  0  0  0  0  0  0  0  0
  188.6510  177.3310  140.7110 C   0  0  0  0  0  0  0  0  0  0  0  0
  187.9160  178.3090  148.4890 C   0  0  0  0  0  1  0  0  0  0  0  0
  186.6380  177.3100  144.9430 C   0  0  2  0  0  3  0  0  0  0  0  0
  186.0180  178.2070  146.4170 S   0  0  0  0  0  0  0  0  0  0  0  0
  187.6500  178.1810  147.0700 N   0  0  0  0  0  0  0  0  0  0  0  0
  188.5720  177.5670  146.1930 C   0  0  0  0  0  3  0  0  0  0  0  0
  188.0780  177.1290  145.0870 N   0  0  0  0  0  0  0  0  0  0  0  0
  183.0370  177.0090  139.4410 N   0  0  0  0  0  2  0  0  0  0  0  0
  182.2200  178.2060  139.6320 C   0  0  0  0  0  2  0  0  0  0  0  0
  184.2880  177.2210  140.1630 C   0  0  0  0  0  2  0  0  0  0  0  0
  183.6660  180.0940  139.2230 N   0  0  0  0  0  1  0  0  0  0  0  0
  183.0760  179.2750  140.2730 C   0  0  2  0  0  3  0  0  0  0  0  0
  184.1320  178.4700  140.9990 C   0  0  2  0  0  3  0  0  0  0  0  0
  1 13  1  0  0  0  0
  2 10  1  0  0  0  0
  3 14  1  1  0  0  0
  3  1  1  0  0  0  0
  4 12  2  0  0  0  0
  5 11  2  0  0  0  0
  6  2  1  0  0  0  0
  7  8  1  6  0  0  0
  7  9  1  0  0  0  0
  9 15  2  0  0  0  0
  9 14  1  0  0  0  0
 11  4  1  0  0  0  0
 11  7  1  0  0  0  0
 12 15  1  0  0  0  0
 13 10  1  0  0  0  0
 14  2  2  0  0  0  0
 15  6  1  0  0  0  0
 17 10  1  6  0  0  0
 17 21  1  0  0  0  0
 17 18  1  0  0  0  0
 18 19  1  0  0  0  0
 19 16  1  0  0  0  0
 20 19  1  0  0  0  0
 21 20  2  0  0  0  0
 22 23  1  0  0  0  0
 22 24  1  0  0  0  0
 23 26  1  0  0  0  0
 26 25  1  6  0  0  0
 26 27  1  0  0  0  0
 27 24  1  6  0  0  0
 27  3  1  0  0  0  0
M  END
>  <MODEL>
7

>  <REMARK>
 VINA RESULT:      -5.8      2.490      5.638
  Name = 
  2 active torsions:
  status: ('A' for Active; 'I' for Inactive)
    1  A    between atoms: C_3  and  C_26
    2  A    between atoms: C_9  and  N_15
                            x       y       z     vdW  Elec       q    Type
                         _______ _______ _______ _____ _____    ______ ____

>  <TORSDO>
F 2

$$$$
=
 OpenBabel10262419593D

 27 31  0  0  1  0  0  0  0  0999 V2000
  183.4430  176.9090  138.2590 N   0  0  0  0  0  2  0  0  0  0  0  0
  184.9380  178.5660  139.8920 C   0  0  0  0  0  0  0  0  0  0  0  0
  182.7000  177.9480  138.9950 C   0  0  1  0  0  3  0  0  0  0  0  0
  183.0500  179.0030  144.2820 C   0  0  0  0  0  3  0  0  0  0  0  0
  180.8550  178.1360  144.1510 O   0  0  0  0  0  0  0  0  0  0  0  0
  185.7180  179.0200  141.3160 S   0  0  0  0  0  0  0  0  0  0  0  0
  181.8180  178.6240  142.0120 C   0  0  1  0  0  3  0  0  0  0  0  0
  180.9570  179.8080  141.6170 C   0  0  0  0  0  1  0  0  0  0  0  0
  183.2030  178.7660  141.4230 C   0  0  0  0  0  0  0  0  0  0  0  0
  185.5530  178.0280  138.7180 N   0  0  0  0  0  0  0  0  0  0  0  0
  181.8630  178.5500  143.5220 C   0  0  0  0  0  0  0  0  0  0  0  0
  184.2020  179.2750  143.6660 C   0  0  0  0  0  3  0  0  0  0  0  0
  184.6870  177.4530  137.6790 C   0  0  0  0  0  2  0  0  0  0  0  0
  183.5750  178.4760  140.0990 C   0  0  0  0  0  0  0  0  0  0  0  0
  184.2950  179.1120  142.2140 C   0  0  0  0  0  0  0  0  0  0  0  0
  189.4300  177.1300  135.6520 C   0  0  0  0  0  1  0  0  0  0  0  0
  186.9730  178.2530  138.4650 C   0  0  2  0  0  3  0  0  0  0  0  0
  187.2600  178.5900  136.6850 S   0  0  0  0  0  0  0  0  0  0  0  0
  188.3860  177.2400  136.6520 N   0  0  0  0  0  0  0  0  0  0  0  0
  188.4800  176.5860  137.9010 C   0  0  0  0  0  3  0  0  0  0  0  0
  187.7500  177.0770  138.8410 N   0  0  0  0  0  0  0  0  0  0  0  0
  181.2200  181.2200  137.8910 N   0  0  0  0  0  2  0  0  0  0  0  0
  180.4510  180.2760  137.0810 C   0  0  0  0  0  2  0  0  0  0  0  0
  182.2450  180.4520  138.5920 C   0  0  0  0  0  2  0  0  0  0  0  0
  179.9360  178.4060  138.5150 N   0  0  0  0  0  1  0  0  0  0  0  0
  180.8440  178.8720  137.4770 C   0  0  2  0  0  3  0  0  0  0  0  0
  182.2460  179.0550  138.0180 C   0  0  2  0  0  3  0  0  0  0  0  0
  2 14  2  0  0  0  0
  2  6  1  0  0  0  0
  3  1  1  6  0  0  0
  3 14  1  0  0  0  0
  6 15  1  0  0  0  0
  7  8  1  1  0  0  0
  7 11  1  0  0  0  0
  9  7  1  0  0  0  0
  9 15  2  0  0  0  0
 10  2  1  0  0  0  0
 11  5  2  0  0  0  0
 11  4  1  0  0  0  0
 12  4  2  0  0  0  0
 13  1  1  0  0  0  0
 13 10  1  0  0  0  0
 14  9  1  0  0  0  0
 15 12  1  0  0  0  0
 16 19  1  0  0  0  0
 17 10  1  6  0  0  0
 17 21  1  0  0  0  0
 18 17  1  0  0  0  0
 19 18  1  0  0  0  0
 19 20  1  0  0  0  0
 20 21  2  0  0  0  0
 22 24  1  0  0  0  0
 23 26  1  0  0  0  0
 23 22  1  0  0  0  0
 26 27  1  0  0  0  0
 26 25  1  1  0  0  0
 27 24  1  1  0  0  0
 27  3  1  0  0  0  0
M  END
>  <MODEL>
8

>  <REMARK>
 VINA RESULT:      -5.8      4.791      8.854
  Name = 
  2 active torsions:
  status: ('A' for Active; 'I' for Inactive)
    1  A    between atoms: C_3  and  C_26
    2  A    between atoms: C_9  and  N_15
                            x       y       z     vdW  Elec       q    Type
                         _______ _______ _______ _____ _____    ______ ____

>  <TORSDO>
F 2

$$$$
=
 OpenBabel10262419593D

 27 31  0  0  1  0  0  0  0  0999 V2000
  188.1010  179.3790  140.9700 N   0  0  0  0  0  2  0  0  0  0  0  0
  185.5480  178.3280  141.1300 C   0  0  0  0  0  0  0  0  0  0  0  0
  187.8170  178.5210  142.1340 C   0  0  1  0  0  3  0  0  0  0  0  0
  183.5860  178.9330  145.4670 C   0  0  0  0  0  3  0  0  0  0  0  0
  185.3450  179.5700  146.9100 O   0  0  0  0  0  0  0  0  0  0  0  0
  183.9120  178.3260  141.5380 S   0  0  0  0  0  0  0  0  0  0  0  0
  186.1010  178.6050  144.8510 C   0  0  1  0  0  3  0  0  0  0  0  0
  186.6600  177.2990  145.3810 C   0  0  0  0  0  1  0  0  0  0  0  0
  185.5660  178.4140  143.4510 C   0  0  0  0  0  0  0  0  0  0  0  0
  186.1030  178.5790  139.8360 N   0  0  0  0  0  0  0  0  0  0  0  0
  185.0210  179.0800  145.7980 C   0  0  0  0  0  0  0  0  0  0  0  0
  183.1910  178.5920  144.2380 C   0  0  0  0  0  3  0  0  0  0  0  0
  187.5540  178.7940  139.7300 C   0  0  0  0  0  2  0  0  0  0  0  0
  186.3270  178.3700  142.2700 C   0  0  0  0  0  0  0  0  0  0  0  0
  184.1970  178.3710  143.1980 C   0  0  0  0  0  0  0  0  0  0  0  0
  184.1380  175.2880  136.5890 C   0  0  0  0  0  1  0  0  0  0  0  0
  185.2860  178.4010  138.6400 C   0  0  2  0  0  3  0  0  0  0  0  0
  184.1590  176.9690  138.8430 S   0  0  0  0  0  0  0  0  0  0  0  0
  184.8490  176.2680  137.3860 N   0  0  0  0  0  0  0  0  0  0  0  0
  185.8780  177.0670  136.8390 C   0  0  0  0  0  3  0  0  0  0  0  0
  186.1330  178.1570  137.4760 N   0  0  0  0  0  0  0  0  0  0  0  0
  189.4850  175.3200  143.1750 N   0  0  0  0  0  2  0  0  0  0  0  0
  190.5060  175.8970  142.3030 C   0  0  0  0  0  2  0  0  0  0  0  0
  188.3090  176.1790  143.0910 C   0  0  0  0  0  2  0  0  0  0  0  0
  190.5700  178.2580  142.7940 N   0  0  0  0  0  1  0  0  0  0  0  0
  190.0440  177.2680  141.8650 C   0  0  2  0  0  3  0  0  0  0  0  0
  188.5380  177.1650  141.9690 C   0  0  2  0  0  3  0  0  0  0  0  0
  2  6  1  0  0  0  0
  2 14  2  0  0  0  0
  3  1  1  6  0  0  0
  3 14  1  0  0  0  0
  4 11  1  0  0  0  0
  6 15  1  0  0  0  0
  7  8  1  1  0  0  0
  7 11  1  0  0  0  0
  9  7  1  0  0  0  0
 10  2  1  0  0  0  0
 11  5  2  0  0  0  0
 12  4  2  0  0  0  0
 13 10  1  0  0  0  0
 13  1  1  0  0  0  0
 14  9  1  0  0  0  0
 15  9  2  0  0  0  0
 15 12  1  0  0  0  0
 16 19  1  0  0  0  0
 17 18  1  0  0  0  0
 17 10  1  1  0  0  0
 19 18  1  0  0  0  0
 20 19  1  0  0  0  0
 20 21  2  0  0  0  0
 21 17  1  0  0  0  0
 23 22  1  0  0  0  0
 24 22  1  0  0  0  0
 26 27  1  0  0  0  0
 26 23  1  0  0  0  0
 26 25  1  1  0  0  0
 27  3  1  0  0  0  0
 27 24  1  1  0  0  0
M  END
>  <MODEL>
9

>  <REMARK>
 VINA RESULT:      -5.8      3.419      5.848
  Name = 
  2 active torsions:
  status: ('A' for Active; 'I' for Inactive)
    1  A    between atoms: C_3  and  C_26
    2  A    between atoms: C_9  and  N_15
                            x       y       z     vdW  Elec       q    Type
                         _______ _______ _______ _____ _____    ______ ____

>  <TORSDO>
F 2

$$$$
