=
 OpenBabel10262422563D

 37 41  0  0  1  0  0  0  0  0999 V2000
  191.3720  174.7480  134.9020 C   0  0  0  0  0  2  0  0  0  0  0  0
  191.7180  176.5210  139.0880 C   0  0  0  0  0  2  0  0  0  0  0  0
  188.5710  178.0980  141.5950 C   0  0  0  0  0  2  0  0  0  0  0  0
  192.2370  176.2790  136.6990 C   0  0  2  0  0  3  0  0  0  0  0  0
  190.4320  176.8530  139.7810 C   0  0  2  0  0  0  0  0  0  0  0  0
  191.3770  175.8530  137.8280 N   0  0  2  0  0  0  0  0  0  0  0  0
  190.1760  176.2600  141.1730 C   0  0  0  0  0  2  0  0  0  0  0  0
  190.0450  176.2310  137.5270 N   0  0  1  0  0  0  0  0  0  0  0  0
  190.0540  173.4800  137.0500 S   0  0  0  0  0  0  0  0  0  0  0  0
  189.2950  175.1390  136.8830 C   0  0  0  0  0  2  0  0  0  0  0  0
  188.4490  178.4800  140.1150 C   0  0  1  0  0  3  0  0  0  0  0  0
  189.3700  176.5000  138.7870 C   0  0  2  0  0  3  0  0  0  0  0  0
  192.5540  175.0900  135.7930 C   0  0  0  0  0  2  0  0  0  0  0  0
  188.8060  176.6030  141.7310 C   0  0  1  0  0  3  0  0  0  0  0  0
  190.6960  173.4460  135.3340 C   0  0  0  0  0  2  0  0  0  0  0  0
  189.5680  177.9640  139.1820 C   0  0  2  0  0  3  0  0  0  0  0  0
  193.5610  176.9530  137.0990 C   0  0  0  0  0  2  0  0  0  0  0  0
  194.6650  176.2830  136.5110 O   0  0  0  0  0  0  0  0  0  0  0  0
  195.5160  176.9640  135.6780 N   0  0  0  0  0  2  0  0  0  0  0  0
  195.4140  178.2010  135.5590 O   0  0  0  0  0  1  0  0  0  0  0  0
  187.0320  178.3530  139.5360 C   0  0  2  0  0  3  0  0  0  0  0  0
  186.0830  177.4140  137.1310 S   0  0  0  0  0  1  0  0  0  0  0  0
  187.0760  178.6330  138.0420 C   0  0  0  0  0  2  0  0  0  0  0  0
  186.1490  179.2430  140.1620 O   0  0  0  0  0  0  0  0  0  0  0  0
  185.0550  178.4660  140.5510 C   0  0  0  0  0  2  0  0  0  0  0  0
  184.4810  178.9980  141.8220 C   0  0  0  0  0  3  0  0  0  0  0  0
  184.4770  178.2560  142.9290 C   0  0  0  0  0  3  0  0  0  0  0  0
  182.3950  178.9600  144.0580 C   0  0  0  0  0  1  0  0  0  0  0  0
  183.8950  178.7810  144.1990 C   0  0  0  0  0  2  0  0  0  0  0  0
  188.7340  176.1730  143.1870 C   0  0  0  0  0  2  0  0  0  0  0  0
  189.9230  177.5950  144.9070 C   0  0  0  0  0  2  0  0  0  0  0  0
  188.6080  177.3680  144.1230 C   0  0  2  0  0  3  0  0  0  0  0  0
  187.3690  177.1760  145.0120 C   0  0  0  0  0  2  0  0  0  0  0  0
  186.0380  178.8850  146.8320 Cl  0  0  0  0  0  0  0  0  0  0  0  0
  188.5950  178.0760  146.9400 C   0  0  0  0  0  3  0  0  0  0  0  0
  187.4440  178.0030  146.2670 C   0  0  0  0  0  0  0  0  0  0  0  0
  189.7890  177.3390  146.4130 C   0  0  0  0  0  2  0  0  0  0  0  0
  1 15  1  0  0  0  0
  1 13  1  0  0  0  0
  3 14  1  0  0  0  0
  4 17  1  1  0  0  0
  4  6  1  0  0  0  0
  5  2  1  6  0  0  0
  5  7  1  0  0  0  0
  6  2  1  1  0  0  0
  7 14  1  0  0  0  0
  8 10  1  1  0  0  0
  8  6  1  0  0  0  0
  8 12  1  0  0  0  0
 10  9  1  0  0  0  0
 11 21  1  6  0  0  0
 11  3  1  0  0  0  0
 12 16  1  0  0  0  0
 12  5  1  0  0  0  0
 13  4  1  0  0  0  0
 14 30  1  0  0  0  0
 15  9  1  0  0  0  0
 16  5  1  0  0  0  0
 16 11  1  0  0  0  0
 18 17  1  0  0  0  0
 19 18  1  0  0  0  0
 20 19  1  0  0  0  0
 21 24  1  0  0  0  0
 22 23  1  0  0  0  0
 23 21  1  0  0  0  0
 24 25  1  0  0  0  0
 25 26  1  0  0  0  0
 26 27  2  0  0  0  0
 27 29  1  0  0  0  0
 28 29  1  0  0  0  0
 30 32  1  0  0  0  0
 31 37  1  0  0  0  0
 32 31  1  0  0  0  0
 32 33  1  0  0  0  0
 33 36  1  0  0  0  0
 36 34  1  0  0  0  0
 36 35  2  0  0  0  0
 37 35  1  0  0  0  0
M  END
>  <MODEL>
1

>  <REMARK>
 VINA RESULT:      -7.5      0.000      0.000
  Name = 
  11 active torsions:
  status: ('A' for Active; 'I' for Inactive)
    1  A    between atoms: C_1  and  C_17
    2  A    between atoms: C_5  and  C_23
    3  A    between atoms: C_6  and  C_37
    4  A    between atoms: C_9  and  C_16
    5  A    between atoms: C_16  and  O_24
    6  A    between atoms: C_17  and  O_26
    7  A    between atoms: N_22  and  O_24
    8  A    between atoms: O_26  and  C_33
    9  A    between atoms: C_27  and  C_33
   10  A    between atoms: C_31  and  C_37
   11  A    between atoms: C_33  and  C_34
                            x       y       z     vdW  Elec       q    Type
                         _______ _______ _______ _____ _____    ______ ____

>  <TORSDO>
F 11

$$$$
=
 OpenBabel10262422563D

 37 41  0  0  1  0  0  0  0  0999 V2000
  190.8440  174.7150  134.9340 C   0  0  0  0  0  2  0  0  0  0  0  0
  191.6470  176.4540  139.0710 C   0  0  0  0  0  2  0  0  0  0  0  0
  188.8310  178.2480  141.8140 C   0  0  0  0  0  2  0  0  0  0  0  0
  191.9560  176.1790  136.6500 C   0  0  2  0  0  3  0  0  0  0  0  0
  190.4480  176.8760  139.8630 C   0  0  2  0  0  0  0  0  0  0  0  0
  191.1610  175.8130  137.8450 N   0  0  2  0  0  0  0  0  0  0  0  0
  190.2620  176.3010  141.2730 C   0  0  0  0  0  2  0  0  0  0  0  0
  189.8390  176.2850  137.6500 N   0  0  1  0  0  0  0  0  0  0  0  0
  189.6150  173.5410  137.1860 S   0  0  0  0  0  0  0  0  0  0  0  0
  188.9640  175.2510  137.0720 C   0  0  0  0  0  2  0  0  0  0  0  0
  188.6190  178.6400  140.3460 C   0  0  1  0  0  3  0  0  0  0  0  0
  189.2880  176.6000  138.9590 C   0  0  2  0  0  3  0  0  0  0  0  0
  192.1140  174.9710  135.7260 C   0  0  0  0  0  2  0  0  0  0  0  0
  188.9690  176.7400  141.9380 C   0  0  1  0  0  3  0  0  0  0  0  0
  190.1140  173.4640  135.4250 C   0  0  0  0  0  2  0  0  0  0  0  0
  189.6200  178.0460  139.3300 C   0  0  2  0  0  3  0  0  0  0  0  0
  193.3520  176.7560  136.9400 C   0  0  0  0  0  2  0  0  0  0  0  0
  194.2360  176.5060  135.8580 O   0  0  0  0  0  0  0  0  0  0  0  0
  195.4260  177.1830  135.7740 N   0  0  0  0  0  2  0  0  0  0  0  0
  195.4880  178.2580  135.1470 O   0  0  0  0  0  1  0  0  0  0  0  0
  187.1550  178.6140  139.8830 C   0  0  2  0  0  3  0  0  0  0  0  0
  184.9720  179.2850  141.4160 S   0  0  0  0  0  1  0  0  0  0  0  0
  186.2830  178.0930  141.0150 C   0  0  0  0  0  2  0  0  0  0  0  0
  186.9980  177.8060  138.7500 O   0  0  0  0  0  0  0  0  0  0  0  0
  186.0810  178.4800  137.9390 C   0  0  0  0  0  2  0  0  0  0  0  0
  184.9410  177.5770  137.6020 C   0  0  0  0  0  3  0  0  0  0  0  0
  183.6910  177.9130  137.9210 C   0  0  0  0  0  3  0  0  0  0  0  0
  181.2310  177.7420  137.7550 C   0  0  0  0  0  1  0  0  0  0  0  0
  182.5490  177.0080  137.5950 C   0  0  0  0  0  2  0  0  0  0  0  0
  188.9830  176.3140  143.3970 C   0  0  0  0  0  2  0  0  0  0  0  0
  189.4060  177.6140  145.5240 C   0  0  0  0  0  2  0  0  0  0  0  0
  188.4660  177.4180  144.3110 C   0  0  2  0  0  3  0  0  0  0  0  0
  187.0070  177.1090  144.6870 C   0  0  0  0  0  2  0  0  0  0  0  0
  185.0220  178.6080  146.0360 Cl  0  0  0  0  0  0  0  0  0  0  0  0
  187.4230  177.8720  146.9840 C   0  0  0  0  0  3  0  0  0  0  0  0
  186.5880  177.8230  145.9440 C   0  0  0  0  0  0  0  0  0  0  0  0
  188.7680  177.2210  146.8630 C   0  0  0  0  0  2  0  0  0  0  0  0
  1 15  1  0  0  0  0
  1 13  1  0  0  0  0
  3 14  1  0  0  0  0
  4 17  1  1  0  0  0
  4  6  1  0  0  0  0
  5  2  1  6  0  0  0
  5  7  1  0  0  0  0
  6  2  1  1  0  0  0
  7 14  1  0  0  0  0
  8 10  1  1  0  0  0
  8  6  1  0  0  0  0
  8 12  1  0  0  0  0
 10  9  1  0  0  0  0
 11 21  1  6  0  0  0
 11  3  1  0  0  0  0
 12 16  1  0  0  0  0
 12  5  1  0  0  0  0
 13  4  1  0  0  0  0
 14 30  1  0  0  0  0
 15  9  1  0  0  0  0
 16  5  1  0  0  0  0
 16 11  1  0  0  0  0
 18 17  1  0  0  0  0
 19 18  1  0  0  0  0
 20 19  1  0  0  0  0
 21 23  1  0  0  0  0
 23 22  1  0  0  0  0
 24 21  1  0  0  0  0
 25 24  1  0  0  0  0
 26 27  2  0  0  0  0
 26 25  1  0  0  0  0
 29 28  1  0  0  0  0
 29 27  1  0  0  0  0
 30 32  1  0  0  0  0
 31 37  1  0  0  0  0
 32 33  1  0  0  0  0
 32 31  1  0  0  0  0
 33 36  1  0  0  0  0
 36 34  1  0  0  0  0
 36 35  2  0  0  0  0
 37 35  1  0  0  0  0
M  END
>  <MODEL>
2

>  <REMARK>
 VINA RESULT:      -5.9      1.593      2.278
  Name = 
  11 active torsions:
  status: ('A' for Active; 'I' for Inactive)
    1  A    between atoms: C_1  and  C_17
    2  A    between atoms: C_5  and  C_23
    3  A    between atoms: C_6  and  C_37
    4  A    between atoms: C_9  and  C_16
    5  A    between atoms: C_16  and  O_24
    6  A    between atoms: C_17  and  O_26
    7  A    between atoms: N_22  and  O_24
    8  A    between atoms: O_26  and  C_33
    9  A    between atoms: C_27  and  C_33
   10  A    between atoms: C_31  and  C_37
   11  A    between atoms: C_33  and  C_34
                            x       y       z     vdW  Elec       q    Type
                         _______ _______ _______ _____ _____    ______ ____

>  <TORSDO>
F 11

$$$$
=
 OpenBabel10262422563D

 37 41  0  0  1  0  0  0  0  0999 V2000
  185.7540  178.0230  144.8300 C   0  0  0  0  0  2  0  0  0  0  0  0
  185.3880  178.9370  140.3780 C   0  0  0  0  0  2  0  0  0  0  0  0
  182.1190  177.9980  137.7130 C   0  0  0  0  0  2  0  0  0  0  0  0
  186.4380  178.0400  142.4100 C   0  0  2  0  0  3  0  0  0  0  0  0
  184.0700  178.6260  139.7390 C   0  0  2  0  0  0  0  0  0  0  0  0
  185.2460  178.6920  141.8170 N   0  0  2  0  0  0  0  0  0  0  0  0
  183.3450  179.7410  138.9750 C   0  0  0  0  0  2  0  0  0  0  0  0
  184.1490  177.8070  141.9620 N   0  0  1  0  0  0  0  0  0  0  0  0
  183.6900  179.7260  143.9370 S   0  0  0  0  0  0  0  0  0  0  0  0
  183.3730  178.0860  143.1810 C   0  0  0  0  0  2  0  0  0  0  0  0
  182.4650  176.8800  138.7040 C   0  0  1  0  0  3  0  0  0  0  0  0
  183.2480  178.0390  140.8430 C   0  0  2  0  0  3  0  0  0  0  0  0
  186.7130  178.6030  143.8040 C   0  0  0  0  0  2  0  0  0  0  0  0
  181.9840  179.3220  138.4450 C   0  0  1  0  0  3  0  0  0  0  0  0
  184.7270  179.0580  145.2910 C   0  0  0  0  0  2  0  0  0  0  0  0
  183.6480  177.1570  139.6600 C   0  0  2  0  0  3  0  0  0  0  0  0
  187.7270  178.1460  141.5790 C   0  0  0  0  0  2  0  0  0  0  0  0
  188.7820  178.6990  142.3520 O   0  0  0  0  0  0  0  0  0  0  0  0
  189.7880  177.8910  142.8180 N   0  0  0  0  0  2  0  0  0  0  0  0
  190.9350  177.9850  142.3390 O   0  0  0  0  0  1  0  0  0  0  0  0
  181.2510  176.2200  139.3730 C   0  0  2  0  0  3  0  0  0  0  0  0
  182.2070  174.4170  137.5300 S   0  0  0  0  0  1  0  0  0  0  0  0
  180.8310  175.0060  138.5590 C   0  0  0  0  0  2  0  0  0  0  0  0
  180.1800  177.1180  139.4760 O   0  0  0  0  0  0  0  0  0  0  0  0
  179.4060  176.6510  140.5410 C   0  0  0  0  0  2  0  0  0  0  0  0
  179.5850  177.5380  141.7270 C   0  0  0  0  0  3  0  0  0  0  0  0
  179.7470  178.8520  141.5750 C   0  0  0  0  0  3  0  0  0  0  0  0
  179.5640  179.0100  144.0340 C   0  0  0  0  0  1  0  0  0  0  0  0
  179.9370  179.7420  142.7580 C   0  0  0  0  0  2  0  0  0  0  0  0
  181.4510  180.4030  137.5190 C   0  0  0  0  0  2  0  0  0  0  0  0
  180.3660  181.4000  139.5740 C   0  0  0  0  0  2  0  0  0  0  0  0
  181.1500  181.6930  138.2720 C   0  0  2  0  0  3  0  0  0  0  0  0
  180.4450  182.6730  137.3200 C   0  0  0  0  0  2  0  0  0  0  0  0
  179.7430  185.4030  137.5610 Cl  0  0  0  0  0  0  0  0  0  0  0  0
  178.9450  183.3770  139.1320 C   0  0  0  0  0  3  0  0  0  0  0  0
  179.6720  183.7250  138.0670 C   0  0  0  0  0  0  0  0  0  0  0  0
  178.9310  181.9420  139.5600 C   0  0  0  0  0  2  0  0  0  0  0  0
  1 15  1  0  0  0  0
  3 14  1  0  0  0  0
  3 11  1  0  0  0  0
  4 17  1  6  0  0  0
  4 13  1  0  0  0  0
  5  7  1  6  0  0  0
  5  2  1  0  0  0  0
  5 12  1  0  0  0  0
  6  2  1  6  0  0  0
  6  8  1  0  0  0  0
  6  4  1  0  0  0  0
  8 10  1  1  0  0  0
  9 15  1  0  0  0  0
 10  9  1  0  0  0  0
 11 21  1  1  0  0  0
 11 16  1  0  0  0  0
 12  8  1  0  0  0  0
 13  1  1  0  0  0  0
 14  7  1  0  0  0  0
 16  5  1  0  0  0  0
 16 12  1  0  0  0  0
 17 18  1  0  0  0  0
 18 19  1  0  0  0  0
 20 19  1  0  0  0  0
 21 24  1  0  0  0  0
 22 23  1  0  0  0  0
 23 21  1  0  0  0  0
 24 25  1  0  0  0  0
 25 26  1  0  0  0  0
 27 26  2  0  0  0  0
 27 29  1  0  0  0  0
 29 28  1  0  0  0  0
 30 32  1  0  0  0  0
 30 14  1  0  0  0  0
 32 31  1  0  0  0  0
 33 36  1  0  0  0  0
 33 32  1  0  0  0  0
 34 36  1  0  0  0  0
 35 37  1  0  0  0  0
 36 35  2  0  0  0  0
 37 31  1  0  0  0  0
M  END
>  <MODEL>
3

>  <REMARK>
 VINA RESULT:      -5.5      5.286      8.915
  Name = 
  11 active torsions:
  status: ('A' for Active; 'I' for Inactive)
    1  A    between atoms: C_1  and  C_17
    2  A    between atoms: C_5  and  C_23
    3  A    between atoms: C_6  and  C_37
    4  A    between atoms: C_9  and  C_16
    5  A    between atoms: C_16  and  O_24
    6  A    between atoms: C_17  and  O_26
    7  A    between atoms: N_22  and  O_24
    8  A    between atoms: O_26  and  C_33
    9  A    between atoms: C_27  and  C_33
   10  A    between atoms: C_31  and  C_37
   11  A    between atoms: C_33  and  C_34
                            x       y       z     vdW  Elec       q    Type
                         _______ _______ _______ _____ _____    ______ ____

>  <TORSDO>
F 11

$$$$
=
 OpenBabel10262422563D

 37 41  0  0  1  0  0  0  0  0999 V2000
  178.9390  180.6270  139.2320 C   0  0  0  0  0  2  0  0  0  0  0  0
  183.0060  178.7090  139.9890 C   0  0  0  0  0  2  0  0  0  0  0  0
  185.2940  176.1580  137.3570 C   0  0  0  0  0  2  0  0  0  0  0  0
  180.6570  179.2580  140.4560 C   0  0  2  0  0  3  0  0  0  0  0  0
  183.6310  177.9910  138.8330 C   0  0  2  0  0  0  0  0  0  0  0  0
  181.7830  179.3510  139.4970 N   0  0  2  0  0  0  0  0  0  0  0  0
  185.0500  178.3870  138.4060 C   0  0  0  0  0  2  0  0  0  0  0  0
  181.4120  178.6500  138.3230 N   0  0  1  0  0  0  0  0  0  0  0  0
  181.1230  181.3280  137.5890 S   0  0  0  0  0  0  0  0  0  0  0  0
  180.8190  179.5420  137.3120 C   0  0  0  0  0  2  0  0  0  0  0  0
  183.7880  175.8670  137.3650 C   0  0  1  0  0  3  0  0  0  0  0  0
  182.6290  178.1160  137.7290 C   0  0  2  0  0  3  0  0  0  0  0  0
  179.8440  180.5520  140.4500 C   0  0  0  0  0  2  0  0  0  0  0  0
  185.5380  177.6460  137.1740 C   0  0  1  0  0  3  0  0  0  0  0  0
  179.4360  181.6620  138.2210 C   0  0  0  0  0  2  0  0  0  0  0  0
  182.9300  176.7350  138.3130 C   0  0  2  0  0  3  0  0  0  0  0  0
  181.0550  178.9410  141.9080 C   0  0  0  0  0  2  0  0  0  0  0  0
  179.9600  179.1470  142.7870 O   0  0  0  0  0  0  0  0  0  0  0  0
  179.7450  178.2810  143.8300 N   0  0  0  0  0  2  0  0  0  0  0  0
  178.9310  178.5760  144.7260 O   0  0  0  0  0  1  0  0  0  0  0  0
  183.1720  175.6490  135.9740 C   0  0  2  0  0  3  0  0  0  0  0  0
  180.5670  176.0970  135.2140 S   0  0  0  0  0  1  0  0  0  0  0  0
  181.7670  175.0890  136.1330 C   0  0  0  0  0  2  0  0  0  0  0  0
  183.9510  174.7710  135.2090 O   0  0  0  0  0  0  0  0  0  0  0  0
  183.4670  173.4930  135.5060 C   0  0  0  0  0  2  0  0  0  0  0  0
  184.5920  172.6110  135.9320 C   0  0  0  0  0  3  0  0  0  0  0  0
  185.8540  172.9300  135.6440 C   0  0  0  0  0  3  0  0  0  0  0  0
  187.9530  172.8060  136.9420 C   0  0  0  0  0  1  0  0  0  0  0  0
  186.9810  172.0450  136.0600 C   0  0  0  0  0  2  0  0  0  0  0  0
  187.0170  177.9320  136.9670 C   0  0  0  0  0  2  0  0  0  0  0  0
  188.2990  177.5570  139.1150 C   0  0  0  0  0  2  0  0  0  0  0  0
  187.8930  176.9590  137.7460 C   0  0  2  0  0  3  0  0  0  0  0  0
  189.0810  176.5430  136.8640 C   0  0  0  0  0  2  0  0  0  0  0  0
  191.0980  174.5820  137.1710 Cl  0  0  0  0  0  0  0  0  0  0  0  0
  190.5800  176.6470  138.8070 C   0  0  0  0  0  3  0  0  0  0  0  0
  190.2320  176.0200  137.6800 C   0  0  0  0  0  0  0  0  0  0  0  0
  189.7990  177.8530  139.2330 C   0  0  0  0  0  2  0  0  0  0  0  0
  1 13  1  0  0  0  0
  3 11  1  0  0  0  0
  4 17  1  1  0  0  0
  5  7  1  6  0  0  0
  5  2  1  0  0  0  0
  6  2  1  1  0  0  0
  6  4  1  0  0  0  0
  8 10  1  6  0  0  0
  8  6  1  0  0  0  0
  9 15  1  0  0  0  0
 10  9  1  0  0  0  0
 11 21  1  6  0  0  0
 11 16  1  0  0  0  0
 12 16  1  0  0  0  0
 12  8  1  0  0  0  0
 12  5  1  0  0  0  0
 13  4  1  0  0  0  0
 14  3  1  0  0  0  0
 14  7  1  0  0  0  0
 15  1  1  0  0  0  0
 16  5  1  0  0  0  0
 17 18  1  0  0  0  0
 18 19  1  0  0  0  0
 19 20  1  0  0  0  0
 21 23  1  0  0  0  0
 22 23  1  0  0  0  0
 24 25  1  0  0  0  0
 24 21  1  0  0  0  0
 25 26  1  0  0  0  0
 27 26  2  0  0  0  0
 27 29  1  0  0  0  0
 29 28  1  0  0  0  0
 30 14  1  0  0  0  0
 30 32  1  0  0  0  0
 31 37  1  0  0  0  0
 32 31  1  0  0  0  0
 33 36  1  0  0  0  0
 33 32  1  0  0  0  0
 34 36  1  0  0  0  0
 35 37  1  0  0  0  0
 36 35  2  0  0  0  0
M  END
>  <MODEL>
4

>  <REMARK>
 VINA RESULT:      -5.1      6.097     10.190
  Name = 
  11 active torsions:
  status: ('A' for Active; 'I' for Inactive)
    1  A    between atoms: C_1  and  C_17
    2  A    between atoms: C_5  and  C_23
    3  A    between atoms: C_6  and  C_37
    4  A    between atoms: C_9  and  C_16
    5  A    between atoms: C_16  and  O_24
    6  A    between atoms: C_17  and  O_26
    7  A    between atoms: N_22  and  O_24
    8  A    between atoms: O_26  and  C_33
    9  A    between atoms: C_27  and  C_33
   10  A    between atoms: C_31  and  C_37
   11  A    between atoms: C_33  and  C_34
                            x       y       z     vdW  Elec       q    Type
                         _______ _______ _______ _____ _____    ______ ____

>  <TORSDO>
F 11

$$$$
=
 OpenBabel10262422563D

 37 41  0  0  1  0  0  0  0  0999 V2000
  196.4080  170.9270  135.2510 C   0  0  0  0  0  2  0  0  0  0  0  0
  195.0420  175.1160  136.4260 C   0  0  0  0  0  2  0  0  0  0  0  0
  191.0240  176.5000  137.2090 C   0  0  0  0  0  2  0  0  0  0  0  0
  196.1850  173.4250  135.0590 C   0  0  2  0  0  3  0  0  0  0  0  0
  193.5960  175.2710  136.7820 C   0  0  2  0  0  0  0  0  0  0  0  0
  195.2890  173.6870  136.2100 N   0  0  2  0  0  0  0  0  0  0  0  0
  193.2380  175.8930  138.1380 C   0  0  0  0  0  2  0  0  0  0  0  0
  194.0300  173.1060  135.9210 N   0  0  1  0  0  0  0  0  0  0  0  0
  195.1550  171.3200  137.7480 S   0  0  0  0  0  0  0  0  0  0  0  0
  193.9110  171.7450  136.4720 C   0  0  0  0  0  2  0  0  0  0  0  0
  191.1410  175.5450  136.0140 C   0  0  1  0  0  3  0  0  0  0  0  0
  193.0150  173.9060  136.5900 C   0  0  2  0  0  3  0  0  0  0  0  0
  197.1250  172.2610  135.3700 C   0  0  0  0  0  2  0  0  0  0  0  0
  191.7450  175.9200  138.4140 C   0  0  1  0  0  3  0  0  0  0  0  0
  196.1670  170.2900  136.6210 C   0  0  0  0  0  2  0  0  0  0  0  0
  192.5640  175.0450  135.6760 C   0  0  2  0  0  3  0  0  0  0  0  0
  197.0310  174.6240  134.5980 C   0  0  0  0  0  2  0  0  0  0  0  0
  198.3710  174.4990  135.0500 O   0  0  0  0  0  0  0  0  0  0  0  0
  198.7900  175.1960  136.1550 N   0  0  0  0  0  2  0  0  0  0  0  0
  198.0160  175.9950  136.7180 O   0  0  0  0  0  1  0  0  0  0  0  0
  190.0570  174.4590  135.9560 C   0  0  2  0  0  3  0  0  0  0  0  0
  190.1030  171.8490  135.0890 S   0  0  0  0  0  1  0  0  0  0  0  0
  190.2590  173.6180  134.7050 C   0  0  0  0  0  2  0  0  0  0  0  0
  188.7750  175.0250  135.9470 O   0  0  0  0  0  0  0  0  0  0  0  0
  188.0960  174.4210  137.0100 C   0  0  0  0  0  2  0  0  0  0  0  0
  186.7780  175.0890  137.2160 C   0  0  0  0  0  3  0  0  0  0  0  0
  186.6620  176.4120  137.1050 C   0  0  0  0  0  3  0  0  0  0  0  0
  185.5430  178.4140  138.0250 C   0  0  0  0  0  1  0  0  0  0  0  0
  185.3470  177.0850  137.3200 C   0  0  0  0  0  2  0  0  0  0  0  0
  191.4780  176.7500  139.6590 C   0  0  0  0  0  2  0  0  0  0  0  0
  189.1100  177.6230  139.4980 C   0  0  0  0  0  2  0  0  0  0  0  0
  190.0470  176.5800  140.1530 C   0  0  2  0  0  3  0  0  0  0  0  0
  190.0450  176.6100  141.6900 C   0  0  0  0  0  2  0  0  0  0  0  0
  188.0370  176.0740  143.6110 Cl  0  0  0  0  0  0  0  0  0  0  0  0
  187.9780  177.9350  141.6770 C   0  0  0  0  0  3  0  0  0  0  0  0
  188.6900  176.9580  142.2440 C   0  0  0  0  0  0  0  0  0  0  0  0
  188.5480  178.6490  140.4890 C   0  0  0  0  0  2  0  0  0  0  0  0
  1 13  1  0  0  0  0
  1 15  1  0  0  0  0
  3 14  1  0  0  0  0
  4 17  1  1  0  0  0
  4 13  1  0  0  0  0
  4  6  1  0  0  0  0
  5  2  1  6  0  0  0
  5  7  1  0  0  0  0
  6  2  1  6  0  0  0
  7 14  1  0  0  0  0
  8  6  1  0  0  0  0
  8 10  1  1  0  0  0
  8 12  1  0  0  0  0
 10  9  1  0  0  0  0
 11 21  1  1  0  0  0
 11  3  1  0  0  0  0
 12  5  1  0  0  0  0
 14 30  1  0  0  0  0
 15  9  1  0  0  0  0
 16 11  1  0  0  0  0
 16 12  1  0  0  0  0
 16  5  1  0  0  0  0
 17 18  1  0  0  0  0
 18 19  1  0  0  0  0
 19 20  1  0  0  0  0
 23 22  1  0  0  0  0
 23 21  1  0  0  0  0
 24 21  1  0  0  0  0
 24 25  1  0  0  0  0
 25 26  1  0  0  0  0
 27 26  2  0  0  0  0
 27 29  1  0  0  0  0
 29 28  1  0  0  0  0
 30 32  1  0  0  0  0
 31 32  1  0  0  0  0
 31 37  1  0  0  0  0
 32 33  1  0  0  0  0
 33 36  1  0  0  0  0
 35 36  2  0  0  0  0
 36 34  1  0  0  0  0
 37 35  1  0  0  0  0
M  END
>  <MODEL>
5

>  <REMARK>
 VINA RESULT:      -4.8      3.301      5.478
  Name = 
  11 active torsions:
  status: ('A' for Active; 'I' for Inactive)
    1  A    between atoms: C_1  and  C_17
    2  A    between atoms: C_5  and  C_23
    3  A    between atoms: C_6  and  C_37
    4  A    between atoms: C_9  and  C_16
    5  A    between atoms: C_16  and  O_24
    6  A    between atoms: C_17  and  O_26
    7  A    between atoms: N_22  and  O_24
    8  A    between atoms: O_26  and  C_33
    9  A    between atoms: C_27  and  C_33
   10  A    between atoms: C_31  and  C_37
   11  A    between atoms: C_33  and  C_34
                            x       y       z     vdW  Elec       q    Type
                         _______ _______ _______ _____ _____    ______ ____

>  <TORSDO>
F 11

$$$$
=
 OpenBabel10262422563D

 37 41  0  0  1  0  0  0  0  0999 V2000
  195.6010  171.7880  135.3550 C   0  0  0  0  0  2  0  0  0  0  0  0
  194.4090  175.9640  136.7430 C   0  0  0  0  0  2  0  0  0  0  0  0
  190.5110  177.3640  137.9750 C   0  0  0  0  0  2  0  0  0  0  0  0
  195.3830  174.2900  135.2320 C   0  0  2  0  0  3  0  0  0  0  0  0
  193.0100  176.1240  137.2540 C   0  0  2  0  0  0  0  0  0  0  0  0
  194.6180  174.5380  136.4760 N   0  0  2  0  0  0  0  0  0  0  0  0
  192.8050  176.7240  138.6510 C   0  0  0  0  0  2  0  0  0  0  0  0
  193.3290  173.9720  136.3140 N   0  0  1  0  0  0  0  0  0  0  0  0
  194.6270  172.1440  137.9790 S   0  0  0  0  0  0  0  0  0  0  0  0
  193.2570  172.6020  136.8500 C   0  0  0  0  0  2  0  0  0  0  0  0
  190.4900  176.4300  136.7580 C   0  0  1  0  0  3  0  0  0  0  0  0
  192.3990  174.7670  137.1010 C   0  0  2  0  0  3  0  0  0  0  0  0
  196.3400  173.1140  135.4200 C   0  0  0  0  0  2  0  0  0  0  0  0
  191.3500  176.7560  139.0850 C   0  0  1  0  0  3  0  0  0  0  0  0
  195.5020  171.1280  136.7310 C   0  0  0  0  0  2  0  0  0  0  0  0
  191.8640  175.9260  136.2610 C   0  0  2  0  0  3  0  0  0  0  0  0
  196.1870  175.4910  134.7040 C   0  0  0  0  0  2  0  0  0  0  0  0
  197.5060  175.4840  135.2260 O   0  0  0  0  0  0  0  0  0  0  0  0
  197.7550  176.0100  136.4690 N   0  0  0  0  0  2  0  0  0  0  0  0
  198.1150  175.2640  137.4010 O   0  0  0  0  0  1  0  0  0  0  0  0
  189.3950  175.3530  136.7970 C   0  0  2  0  0  3  0  0  0  0  0  0
  187.1320  176.7280  136.0510 S   0  0  0  0  0  1  0  0  0  0  0  0
  188.1210  175.9570  137.3670 C   0  0  0  0  0  2  0  0  0  0  0  0
  189.7920  174.2580  137.5750 O   0  0  0  0  0  0  0  0  0  0  0  0
  189.4930  173.1300  136.8060 C   0  0  0  0  0  2  0  0  0  0  0  0
  188.0530  173.1510  136.4140 C   0  0  0  0  0  3  0  0  0  0  0  0
  187.1870  172.3010  136.9640 C   0  0  0  0  0  3  0  0  0  0  0  0
  184.9320  173.1220  137.5570 C   0  0  0  0  0  1  0  0  0  0  0  0
  185.7480  172.3120  136.5660 C   0  0  0  0  0  2  0  0  0  0  0  0
  191.2250  177.5660  140.3660 C   0  0  0  0  0  2  0  0  0  0  0  0
  189.2140  176.7750  141.6780 C   0  0  0  0  0  2  0  0  0  0  0  0
  190.7530  176.7070  141.5320 C   0  0  2  0  0  3  0  0  0  0  0  0
  191.5240  177.1170  142.7970 C   0  0  0  0  0  2  0  0  0  0  0  0
  191.6790  175.9950  145.3900 Cl  0  0  0  0  0  0  0  0  0  0  0  0
  189.4790  176.8870  144.1370 C   0  0  0  0  0  3  0  0  0  0  0  0
  190.8000  176.7130  144.0530 C   0  0  0  0  0  0  0  0  0  0  0  0
  188.7510  177.4710  142.9640 C   0  0  0  0  0  2  0  0  0  0  0  0
  1 13  1  0  0  0  0
  1 15  1  0  0  0  0
  3 14  1  0  0  0  0
  4 17  1  1  0  0  0
  4 13  1  0  0  0  0
  4  6  1  0  0  0  0
  5  2  1  6  0  0  0
  5  7  1  0  0  0  0
  6  2  1  6  0  0  0
  7 14  1  0  0  0  0
  8  6  1  0  0  0  0
  8 10  1  1  0  0  0
  8 12  1  0  0  0  0
 10  9  1  0  0  0  0
 11 21  1  1  0  0  0
 11  3  1  0  0  0  0
 12  5  1  0  0  0  0
 14 30  1  0  0  0  0
 15  9  1  0  0  0  0
 16 11  1  0  0  0  0
 16 12  1  0  0  0  0
 16  5  1  0  0  0  0
 17 18  1  0  0  0  0
 18 19  1  0  0  0  0
 19 20  1  0  0  0  0
 21 23  1  0  0  0  0
 21 24  1  0  0  0  0
 22 23  1  0  0  0  0
 25 24  1  0  0  0  0
 26 25  1  0  0  0  0
 26 27  2  0  0  0  0
 29 27  1  0  0  0  0
 29 28  1  0  0  0  0
 30 32  1  0  0  0  0
 31 37  1  0  0  0  0
 32 31  1  0  0  0  0
 32 33  1  0  0  0  0
 33 36  1  0  0  0  0
 36 35  2  0  0  0  0
 36 34  1  0  0  0  0
 37 35  1  0  0  0  0
M  END
>  <MODEL>
6

>  <REMARK>
 VINA RESULT:      -4.7      3.199      5.119
  Name = 
  11 active torsions:
  status: ('A' for Active; 'I' for Inactive)
    1  A    between atoms: C_1  and  C_17
    2  A    between atoms: C_5  and  C_23
    3  A    between atoms: C_6  and  C_37
    4  A    between atoms: C_9  and  C_16
    5  A    between atoms: C_16  and  O_24
    6  A    between atoms: C_17  and  O_26
    7  A    between atoms: N_22  and  O_24
    8  A    between atoms: O_26  and  C_33
    9  A    between atoms: C_27  and  C_33
   10  A    between atoms: C_31  and  C_37
   11  A    between atoms: C_33  and  C_34
                            x       y       z     vdW  Elec       q    Type
                         _______ _______ _______ _____ _____    ______ ____

>  <TORSDO>
F 11

$$$$
=
 OpenBabel10262422563D

 37 41  0  0  1  0  0  0  0  0999 V2000
  188.7290  176.0920  136.5180 C   0  0  0  0  0  2  0  0  0  0  0  0
  184.1710  176.1140  136.6260 C   0  0  0  0  0  2  0  0  0  0  0  0
  181.5680  178.3020  139.2930 C   0  0  0  0  0  2  0  0  0  0  0  0
  186.4150  175.1150  136.6360 C   0  0  2  0  0  3  0  0  0  0  0  0
  183.5300  177.0880  137.5670 C   0  0  2  0  0  0  0  0  0  0  0  0
  185.6160  176.3620  136.6560 N   0  0  2  0  0  0  0  0  0  0  0  0
  182.4940  178.0720  137.0080 C   0  0  0  0  0  2  0  0  0  0  0  0
  185.8790  177.0280  137.8790 N   0  0  1  0  0  0  0  0  0  0  0  0
  187.3500  178.5020  136.0190 S   0  0  0  0  0  0  0  0  0  0  0  0
  186.9540  178.0250  137.7440 C   0  0  0  0  0  2  0  0  0  0  0  0
  182.8010  177.6950  139.9730 C   0  0  1  0  0  3  0  0  0  0  0  0
  184.6800  177.7670  138.2420 C   0  0  2  0  0  3  0  0  0  0  0  0
  187.6670  175.2980  135.7780 C   0  0  0  0  0  2  0  0  0  0  0  0
  181.9800  179.0580  138.0420 C   0  0  1  0  0  3  0  0  0  0  0  0
  188.8830  177.5020  135.9460 C   0  0  0  0  0  2  0  0  0  0  0  0
  183.7480  176.8770  139.0660 C   0  0  2  0  0  3  0  0  0  0  0  0
  185.6680  173.8630  136.1450 C   0  0  0  0  0  2  0  0  0  0  0  0
  185.3250  173.0210  137.2350 O   0  0  0  0  0  0  0  0  0  0  0  0
  184.1550  172.3040  137.2050 N   0  0  0  0  0  2  0  0  0  0  0  0
  184.0890  171.2490  136.5440 O   0  0  0  0  0  1  0  0  0  0  0  0
  183.5170  178.6350  140.9540 C   0  0  2  0  0  3  0  0  0  0  0  0
  186.2340  178.9610  141.2380 S   0  0  0  0  0  1  0  0  0  0  0  0
  184.7260  179.2480  140.2650 C   0  0  0  0  0  2  0  0  0  0  0  0
  183.9240  177.9480  142.1060 O   0  0  0  0  0  0  0  0  0  0  0  0
  183.6620  178.8190  143.1670 C   0  0  0  0  0  2  0  0  0  0  0  0
  184.3170  178.3160  144.4100 C   0  0  0  0  0  3  0  0  0  0  0  0
  184.7740  179.1660  145.3290 C   0  0  0  0  0  3  0  0  0  0  0  0
  186.7610  178.0040  146.2300 C   0  0  0  0  0  1  0  0  0  0  0  0
  185.4390  178.6660  146.5690 C   0  0  0  0  0  2  0  0  0  0  0  0
  180.8060  179.8300  137.4620 C   0  0  0  0  0  2  0  0  0  0  0  0
  180.0710  181.8200  138.8380 C   0  0  0  0  0  2  0  0  0  0  0  0
  180.9600  181.3310  137.6700 C   0  0  2  0  0  3  0  0  0  0  0  0
  180.6980  182.0480  136.3350 C   0  0  0  0  0  2  0  0  0  0  0  0
  181.0210  184.7360  135.5120 Cl  0  0  0  0  0  0  0  0  0  0  0  0
  179.4800  183.8260  137.5130 C   0  0  0  0  0  3  0  0  0  0  0  0
  180.3280  183.4930  136.5360 C   0  0  0  0  0  0  0  0  0  0  0  0
  178.9310  182.7450  138.3930 C   0  0  0  0  0  2  0  0  0  0  0  0
  3 11  1  0  0  0  0
  4 17  1  6  0  0  0
  4  6  1  0  0  0  0
  5  2  1  6  0  0  0
  5 12  1  0  0  0  0
  5 16  1  0  0  0  0
  6  2  1  1  0  0  0
  6  8  1  0  0  0  0
  7  5  1  0  0  0  0
  7 14  1  0  0  0  0
  8 10  1  6  0  0  0
  8 12  1  0  0  0  0
  9 10  1  0  0  0  0
 11 21  1  6  0  0  0
 12 16  1  0  0  0  0
 13  1  1  0  0  0  0
 13  4  1  0  0  0  0
 14  3  1  0  0  0  0
 15  9  1  0  0  0  0
 15  1  1  0  0  0  0
 16 11  1  0  0  0  0
 17 18  1  0  0  0  0
 19 18  1  0  0  0  0
 20 19  1  0  0  0  0
 21 24  1  0  0  0  0
 23 21  1  0  0  0  0
 23 22  1  0  0  0  0
 24 25  1  0  0  0  0
 25 26  1  0  0  0  0
 26 27  2  0  0  0  0
 27 29  1  0  0  0  0
 28 29  1  0  0  0  0
 30 32  1  0  0  0  0
 30 14  1  0  0  0  0
 32 31  1  0  0  0  0
 33 36  1  0  0  0  0
 33 32  1  0  0  0  0
 34 36  1  0  0  0  0
 35 37  1  0  0  0  0
 36 35  2  0  0  0  0
 37 31  1  0  0  0  0
M  END
>  <MODEL>
7

>  <REMARK>
 VINA RESULT:      -4.7      4.986      8.238
  Name = 
  11 active torsions:
  status: ('A' for Active; 'I' for Inactive)
    1  A    between atoms: C_1  and  C_17
    2  A    between atoms: C_5  and  C_23
    3  A    between atoms: C_6  and  C_37
    4  A    between atoms: C_9  and  C_16
    5  A    between atoms: C_16  and  O_24
    6  A    between atoms: C_17  and  O_26
    7  A    between atoms: N_22  and  O_24
    8  A    between atoms: O_26  and  C_33
    9  A    between atoms: C_27  and  C_33
   10  A    between atoms: C_31  and  C_37
   11  A    between atoms: C_33  and  C_34
                            x       y       z     vdW  Elec       q    Type
                         _______ _______ _______ _____ _____    ______ ____

>  <TORSDO>
F 11

$$$$
=
 OpenBabel10262422563D

 37 41  0  0  1  0  0  0  0  0999 V2000
  189.5320  176.7080  137.5190 C   0  0  0  0  0  2  0  0  0  0  0  0
  185.6940  175.7900  135.2350 C   0  0  0  0  0  2  0  0  0  0  0  0
  181.6100  176.3570  136.5270 C   0  0  0  0  0  2  0  0  0  0  0  0
  187.8960  175.3140  136.2130 C   0  0  2  0  0  3  0  0  0  0  0  0
  184.4140  176.2300  135.8760 C   0  0  2  0  0  0  0  0  0  0  0  0
  186.7940  176.2930  136.0640 N   0  0  2  0  0  0  0  0  0  0  0  0
  183.4590  177.1210  135.0700 C   0  0  0  0  0  2  0  0  0  0  0  0
  186.2470  176.5310  137.3480 N   0  0  1  0  0  0  0  0  0  0  0  0
  187.7750  178.8180  136.8690 S   0  0  0  0  0  0  0  0  0  0  0  0
  186.8540  177.7050  137.9970 C   0  0  0  0  0  2  0  0  0  0  0  0
  182.5440  175.8080  137.6130 C   0  0  1  0  0  3  0  0  0  0  0  0
  184.8370  176.8460  137.1720 C   0  0  2  0  0  3  0  0  0  0  0  0
  189.2480  176.0260  136.1910 C   0  0  0  0  0  2  0  0  0  0  0  0
  182.2400  177.5660  135.8570 C   0  0  1  0  0  3  0  0  0  0  0  0
  189.4240  178.2300  137.4080 C   0  0  0  0  0  2  0  0  0  0  0  0
  184.0100  175.5600  137.1910 C   0  0  2  0  0  3  0  0  0  0  0  0
  187.9230  174.1880  135.1650 C   0  0  0  0  0  2  0  0  0  0  0  0
  187.6030  172.9390  135.7580 O   0  0  0  0  0  0  0  0  0  0  0  0
  187.2500  172.8780  137.0830 N   0  0  0  0  0  2  0  0  0  0  0  0
  186.0650  172.6610  137.4020 O   0  0  0  0  0  1  0  0  0  0  0  0
  182.3840  176.4720  138.9890 C   0  0  2  0  0  3  0  0  0  0  0  0
  179.7590  176.2630  139.7860 S   0  0  0  0  0  1  0  0  0  0  0  0
  181.4590  175.6230  139.8480 C   0  0  0  0  0  2  0  0  0  0  0  0
  181.8650  177.7680  138.8680 O   0  0  0  0  0  0  0  0  0  0  0  0
  182.7780  178.5950  139.5270 C   0  0  0  0  0  2  0  0  0  0  0  0
  182.2380  178.9830  140.8630 C   0  0  0  0  0  3  0  0  0  0  0  0
  182.8670  178.6220  141.9820 C   0  0  0  0  0  3  0  0  0  0  0  0
  183.4340  179.0100  144.3560 C   0  0  0  0  0  1  0  0  0  0  0  0
  182.3250  179.0000  143.3200 C   0  0  0  0  0  2  0  0  0  0  0  0
  181.2540  178.2420  134.9180 C   0  0  0  0  0  2  0  0  0  0  0  0
  179.7260  180.2350  134.6210 C   0  0  0  0  0  2  0  0  0  0  0  0
  180.4310  179.3050  135.6360 C   0  0  2  0  0  3  0  0  0  0  0  0
  181.3350  180.0380  136.6410 C   0  0  0  0  0  2  0  0  0  0  0  0
  180.7900  181.9220  138.6810 Cl  0  0  0  0  0  0  0  0  0  0  0  0
  180.2730  182.1740  136.0590 C   0  0  0  0  0  3  0  0  0  0  0  0
  180.7840  181.3890  137.0100 C   0  0  0  0  0  0  0  0  0  0  0  0
  180.2500  181.6770  134.6460 C   0  0  0  0  0  2  0  0  0  0  0  0
  2  5  1  0  0  0  0
  3 11  1  0  0  0  0
  4 17  1  6  0  0  0
  5  7  1  6  0  0  0
  5 12  1  0  0  0  0
  5 16  1  0  0  0  0
  6  2  1  6  0  0  0
  6  4  1  0  0  0  0
  6  8  1  0  0  0  0
  7 14  1  0  0  0  0
  8 10  1  6  0  0  0
  9 15  1  0  0  0  0
  9 10  1  0  0  0  0
 11 21  1  1  0  0  0
 12 16  1  0  0  0  0
 12  8  1  0  0  0  0
 13  4  1  0  0  0  0
 13  1  1  0  0  0  0
 14  3  1  0  0  0  0
 15  1  1  0  0  0  0
 16 11  1  0  0  0  0
 17 18  1  0  0  0  0
 18 19  1  0  0  0  0
 19 20  1  0  0  0  0
 21 23  1  0  0  0  0
 22 23  1  0  0  0  0
 24 21  1  0  0  0  0
 24 25  1  0  0  0  0
 25 26  1  0  0  0  0
 26 27  2  0  0  0  0
 27 29  1  0  0  0  0
 29 28  1  0  0  0  0
 30 32  1  0  0  0  0
 30 14  1  0  0  0  0
 31 37  1  0  0  0  0
 31 32  1  0  0  0  0
 32 33  1  0  0  0  0
 33 36  1  0  0  0  0
 35 36  2  0  0  0  0
 36 34  1  0  0  0  0
 37 35  1  0  0  0  0
M  END
>  <MODEL>
8

>  <REMARK>
 VINA RESULT:      -4.7      5.001      8.036
  Name = 
  11 active torsions:
  status: ('A' for Active; 'I' for Inactive)
    1  A    between atoms: C_1  and  C_17
    2  A    between atoms: C_5  and  C_23
    3  A    between atoms: C_6  and  C_37
    4  A    between atoms: C_9  and  C_16
    5  A    between atoms: C_16  and  O_24
    6  A    between atoms: C_17  and  O_26
    7  A    between atoms: N_22  and  O_24
    8  A    between atoms: O_26  and  C_33
    9  A    between atoms: C_27  and  C_33
   10  A    between atoms: C_31  and  C_37
   11  A    between atoms: C_33  and  C_34
                            x       y       z     vdW  Elec       q    Type
                         _______ _______ _______ _____ _____    ______ ____

>  <TORSDO>
F 11

$$$$
