=
 OpenBabel10262420573D

 28 29  0  0  1  0  0  0  0  0999 V2000
  190.2340  175.2490  142.7350 O   0  0  0  0  0  1  0  0  0  0  0  0
  188.7990  177.4520  141.2750 C   0  0  0  0  0  2  0  0  0  0  0  0
  190.5420  177.4730  143.6170 C   0  0  2  0  0  3  0  0  0  0  0  0
  188.7200  178.5710  142.3030 C   0  0  0  0  0  2  0  0  0  0  0  0
  190.7820  176.5010  142.4470 C   0  0  2  0  0  3  0  0  0  0  0  0
  190.2490  177.0430  141.1220 C   0  0  1  0  0  3  0  0  0  0  0  0
  189.2310  178.1670  143.6290 N   0  0  0  0  0  0  0  0  0  0  0  0
  188.2000  177.5440  144.5030 C   0  0  1  0  0  0  0  0  0  0  0  0
  187.4980  176.4030  143.7800 C   0  0  0  0  0  1  0  0  0  0  0  0
  188.8250  176.9170  145.7650 C   0  0  0  0  0  2  0  0  0  0  0  0
  189.1720  177.8890  146.7080 O   0  0  0  0  0  0  0  0  0  0  0  0
  188.6580  177.4080  147.9110 C   0  0  0  0  0  1  0  0  0  0  0  0
  187.1890  178.4750  144.8610 O   0  0  0  0  0  0  0  0  0  0  0  0
  185.9790  177.8090  145.1320 C   0  0  0  0  0  2  0  0  0  0  0  0
  185.3060  178.4150  146.3520 C   0  0  1  0  0  3  0  0  0  0  0  0
  186.1240  179.3760  146.9160 F   0  0  0  0  0  0  0  0  0  0  0  0
  184.0870  178.9870  145.9910 O   0  0  0  0  0  1  0  0  0  0  0  0
  191.2290  179.8320  144.2430 C   0  0  0  0  0  1  0  0  0  0  0  0
  191.7000  178.4510  143.8170 C   0  0  0  0  0  2  0  0  0  0  0  0
  190.3750  176.0830  140.1140 O   0  0  0  0  0  0  0  0  0  0  0  0
  190.8530  176.7850  139.0040 C   0  0  0  0  0  2  0  0  0  0  0  0
  188.3750  178.5630  136.7620 C   0  0  0  0  0  3  0  0  0  0  0  0
  189.7430  177.0260  138.0430 C   0  0  0  0  0  0  0  0  0  0  0  0
  188.0470  176.1740  136.5370 C   0  0  0  0  0  0  0  0  0  0  0  0
  189.3990  178.3360  137.6870 C   0  0  0  0  0  3  0  0  0  0  0  0
  189.0720  175.9460  137.4610 C   0  0  0  0  0  3  0  0  0  0  0  0
  187.2040  174.8210  135.8150 Cl  0  0  0  0  0  0  0  0  0  0  0  0
  187.6990  177.4820  136.1880 C   0  0  0  0  0  3  0  0  0  0  0  0
  2  4  1  0  0  0  0
  3  7  1  0  0  0  0
  3 19  1  6  0  0  0
  4  7  1  0  0  0  0
  5  1  1  1  0  0  0
  5  3  1  0  0  0  0
  6 20  1  6  0  0  0
  6  2  1  0  0  0  0
  6  5  1  0  0  0  0
  7  8  1  0  0  0  0
  8  9  1  6  0  0  0
  8 13  1  0  0  0  0
  8 10  1  0  0  0  0
 10 11  1  0  0  0  0
 11 12  1  0  0  0  0
 13 14  1  0  0  0  0
 14 15  1  0  0  0  0
 15 17  1  6  0  0  0
 15 16  1  0  0  0  0
 19 18  1  0  0  0  0
 21 20  1  0  0  0  0
 22 25  1  0  0  0  0
 23 21  1  0  0  0  0
 24 26  2  0  0  0  0
 25 23  2  0  0  0  0
 26 23  1  0  0  0  0
 27 24  1  0  0  0  0
 28 24  1  0  0  0  0
 28 22  2  0  0  0  0
M  END
>  <MODEL>
1

>  <REMARK>
 VINA RESULT:      -6.7      0.000      0.000
  Name = 
  10 active torsions:
  status: ('A' for Active; 'I' for Inactive)
    1  A    between atoms: C_1  and  C_3
    2  A    between atoms: C_1  and  O_11
    3  A    between atoms: C_1  and  N_27
    4  A    between atoms: O_2  and  C_3
    5  A    between atoms: C_6  and  C_8
    6  A    between atoms: C_8  and  O_11
    7  A    between atoms: C_9  and  C_18
    8  A    between atoms: O_14  and  C_18
    9  A    between atoms: O_14  and  C_25
   10  A    between atoms: C_16  and  C_21
                            x       y       z     vdW  Elec       q    Type
                         _______ _______ _______ _____ _____    ______ ____

>  <TORSDO>
F 10

$$$$
=
 OpenBabel10262420573D

 28 29  0  0  1  0  0  0  0  0999 V2000
  190.4430  179.0470  143.8730 O   0  0  0  0  0  1  0  0  0  0  0  0
  188.2830  177.0980  143.1150 C   0  0  0  0  0  2  0  0  0  0  0  0
  191.1780  176.8090  143.3570 C   0  0  2  0  0  3  0  0  0  0  0  0
  189.0300  176.0140  142.3520 C   0  0  0  0  0  2  0  0  0  0  0  0
  190.3800  177.7220  144.3060 C   0  0  2  0  0  3  0  0  0  0  0  0
  188.9320  177.2650  144.4730 C   0  0  1  0  0  3  0  0  0  0  0  0
  190.4560  176.3380  142.1480 N   0  0  0  0  0  0  0  0  0  0  0  0
  190.7210  177.1270  140.9130 C   0  0  1  0  0  0  0  0  0  0  0  0
  192.1080  177.7520  140.9600 C   0  0  0  0  0  1  0  0  0  0  0  0
  190.7040  176.2380  139.6540 C   0  0  0  0  0  2  0  0  0  0  0  0
  191.8870  176.3570  138.9210 O   0  0  0  0  0  0  0  0  0  0  0  0
  191.6200  175.7050  137.7180 C   0  0  0  0  0  1  0  0  0  0  0  0
  189.8000  178.2000  140.7750 O   0  0  0  0  0  0  0  0  0  0  0  0
  189.2800  178.2370  139.4680 C   0  0  0  0  0  2  0  0  0  0  0  0
  187.7660  178.1090  139.5000 C   0  0  1  0  0  3  0  0  0  0  0  0
  187.2530  178.8220  140.5670 F   0  0  0  0  0  0  0  0  0  0  0  0
  187.2210  178.5850  138.3090 O   0  0  0  0  0  1  0  0  0  0  0  0
  191.9430  175.8810  145.5890 C   0  0  0  0  0  1  0  0  0  0  0  0
  191.8670  175.6570  144.0870 C   0  0  0  0  0  2  0  0  0  0  0  0
  188.2140  178.1850  145.2410 O   0  0  0  0  0  0  0  0  0  0  0  0
  187.1530  177.4530  145.7830 C   0  0  0  0  0  2  0  0  0  0  0  0
  183.6910  178.9820  145.7270 C   0  0  0  0  0  3  0  0  0  0  0  0
  185.8600  177.9950  145.2860 C   0  0  0  0  0  0  0  0  0  0  0  0
  184.4190  178.6300  143.4440 C   0  0  0  0  0  0  0  0  0  0  0  0
  184.8950  178.4460  146.1940 C   0  0  0  0  0  3  0  0  0  0  0  0
  185.6230  178.0950  143.9100 C   0  0  0  0  0  3  0  0  0  0  0  0
  184.1220  178.7480  141.7230 Cl  0  0  0  0  0  0  0  0  0  0  0  0
  183.4530  179.0730  144.3530 C   0  0  0  0  0  3  0  0  0  0  0  0
  2  6  1  0  0  0  0
  3 19  1  1  0  0  0
  3  5  1  0  0  0  0
  4  2  1  0  0  0  0
  5  1  1  6  0  0  0
  5  6  1  0  0  0  0
  6 20  1  1  0  0  0
  7  4  1  0  0  0  0
  7  3  1  0  0  0  0
  8  9  1  1  0  0  0
  8  7  1  0  0  0  0
 10  8  1  0  0  0  0
 11 10  1  0  0  0  0
 12 11  1  0  0  0  0
 13  8  1  0  0  0  0
 14 15  1  0  0  0  0
 14 13  1  0  0  0  0
 15 17  1  6  0  0  0
 15 16  1  0  0  0  0
 19 18  1  0  0  0  0
 20 21  1  0  0  0  0
 22 25  1  0  0  0  0
 23 21  1  0  0  0  0
 23 25  2  0  0  0  0
 24 26  2  0  0  0  0
 24 28  1  0  0  0  0
 26 23  1  0  0  0  0
 27 24  1  0  0  0  0
 28 22  2  0  0  0  0
M  END
>  <MODEL>
2

>  <REMARK>
 VINA RESULT:      -6.6      2.811      6.595
  Name = 
  10 active torsions:
  status: ('A' for Active; 'I' for Inactive)
    1  A    between atoms: C_1  and  C_3
    2  A    between atoms: C_1  and  O_11
    3  A    between atoms: C_1  and  N_27
    4  A    between atoms: O_2  and  C_3
    5  A    between atoms: C_6  and  C_8
    6  A    between atoms: C_8  and  O_11
    7  A    between atoms: C_9  and  C_18
    8  A    between atoms: O_14  and  C_18
    9  A    between atoms: O_14  and  C_25
   10  A    between atoms: C_16  and  C_21
                            x       y       z     vdW  Elec       q    Type
                         _______ _______ _______ _____ _____    ______ ____

>  <TORSDO>
F 10

$$$$
=
 OpenBabel10262420573D

 28 29  0  0  1  0  0  0  0  0999 V2000
  190.3410  175.3160  142.6580 O   0  0  0  0  0  1  0  0  0  0  0  0
  188.7590  177.4040  141.1820 C   0  0  0  0  0  2  0  0  0  0  0  0
  190.5690  177.5760  143.4660 C   0  0  2  0  0  3  0  0  0  0  0  0
  188.6570  178.5490  142.1800 C   0  0  0  0  0  2  0  0  0  0  0  0
  190.8190  176.5820  142.3170 C   0  0  2  0  0  3  0  0  0  0  0  0
  190.2210  177.0590  140.9940 C   0  0  1  0  0  3  0  0  0  0  0  0
  189.2270  178.2090  143.5000 N   0  0  0  0  0  0  0  0  0  0  0  0
  188.2540  177.5640  144.4240 C   0  0  1  0  0  0  0  0  0  0  0  0
  187.4420  176.5010  143.6960 C   0  0  0  0  0  1  0  0  0  0  0  0
  188.9630  176.8310  145.5790 C   0  0  0  0  0  2  0  0  0  0  0  0
  189.1830  177.6750  146.6710 O   0  0  0  0  0  0  0  0  0  0  0  0
  190.2670  177.1070  147.3390 C   0  0  0  0  0  1  0  0  0  0  0  0
  187.3190  178.5040  144.9340 O   0  0  0  0  0  0  0  0  0  0  0  0
  186.0460  177.9160  145.0570 C   0  0  0  0  0  2  0  0  0  0  0  0
  185.3700  178.3880  146.3330 C   0  0  1  0  0  3  0  0  0  0  0  0
  186.1400  179.3590  146.9460 F   0  0  0  0  0  0  0  0  0  0  0  0
  184.1070  178.9030  146.0430 O   0  0  0  0  0  1  0  0  0  0  0  0
  191.2410  179.8490  144.3680 C   0  0  0  0  0  1  0  0  0  0  0  0
  191.6840  178.6130  143.6010 C   0  0  0  0  0  2  0  0  0  0  0  0
  190.3620  176.0760  140.0110 O   0  0  0  0  0  0  0  0  0  0  0  0
  191.3040  176.5930  139.1160 C   0  0  0  0  0  2  0  0  0  0  0  0
  193.3050  174.3490  136.8150 C   0  0  0  0  0  3  0  0  0  0  0  0
  191.6440  175.5670  138.0930 C   0  0  0  0  0  0  0  0  0  0  0  0
  190.9540  173.8230  136.5600 C   0  0  0  0  0  0  0  0  0  0  0  0
  192.9820  175.3330  137.7550 C   0  0  0  0  0  3  0  0  0  0  0  0
  190.6320  174.8060  137.5000 C   0  0  0  0  0  3  0  0  0  0  0  0
  189.6860  172.8750  135.8140 Cl  0  0  0  0  0  0  0  0  0  0  0  0
  192.2910  173.5950  136.2170 C   0  0  0  0  0  3  0  0  0  0  0  0
  2  4  1  0  0  0  0
  3  7  1  0  0  0  0
  3 19  1  6  0  0  0
  4  7  1  0  0  0  0
  5  1  1  1  0  0  0
  5  3  1  0  0  0  0
  6 20  1  6  0  0  0
  6  2  1  0  0  0  0
  6  5  1  0  0  0  0
  7  8  1  0  0  0  0
  8  9  1  6  0  0  0
  8 13  1  0  0  0  0
  8 10  1  0  0  0  0
 10 11  1  0  0  0  0
 11 12  1  0  0  0  0
 13 14  1  0  0  0  0
 14 15  1  0  0  0  0
 15 17  1  6  0  0  0
 15 16  1  0  0  0  0
 19 18  1  0  0  0  0
 21 20  1  0  0  0  0
 22 25  1  0  0  0  0
 23 21  1  0  0  0  0
 24 26  2  0  0  0  0
 25 23  2  0  0  0  0
 26 23  1  0  0  0  0
 27 24  1  0  0  0  0
 28 24  1  0  0  0  0
 28 22  2  0  0  0  0
M  END
>  <MODEL>
3

>  <REMARK>
 VINA RESULT:      -6.4      1.635      2.214
  Name = 
  10 active torsions:
  status: ('A' for Active; 'I' for Inactive)
    1  A    between atoms: C_1  and  C_3
    2  A    between atoms: C_1  and  O_11
    3  A    between atoms: C_1  and  N_27
    4  A    between atoms: O_2  and  C_3
    5  A    between atoms: C_6  and  C_8
    6  A    between atoms: C_8  and  O_11
    7  A    between atoms: C_9  and  C_18
    8  A    between atoms: O_14  and  C_18
    9  A    between atoms: O_14  and  C_25
   10  A    between atoms: C_16  and  C_21
                            x       y       z     vdW  Elec       q    Type
                         _______ _______ _______ _____ _____    ______ ____

>  <TORSDO>
F 10

$$$$
=
 OpenBabel10262420573D

 28 29  0  0  1  0  0  0  0  0999 V2000
  184.2210  180.1710  139.4290 O   0  0  0  0  0  1  0  0  0  0  0  0
  182.2520  178.6230  141.0930 C   0  0  0  0  0  2  0  0  0  0  0  0
  182.8020  178.6370  138.2260 C   0  0  2  0  0  3  0  0  0  0  0  0
  181.1920  178.1940  140.0880 C   0  0  0  0  0  2  0  0  0  0  0  0
  183.9280  178.8160  139.2600 C   0  0  2  0  0  3  0  0  0  0  0  0
  183.6030  178.1520  140.5970 C   0  0  1  0  0  3  0  0  0  0  0  0
  181.4160  178.7620  138.7440 N   0  0  0  0  0  0  0  0  0  0  0  0
  180.7940  180.1000  138.5470 C   0  0  1  0  0  0  0  0  0  0  0  0
  179.4370  179.9690  137.8680 C   0  0  0  0  0  1  0  0  0  0  0  0
  180.5230  180.8070  139.8910 C   0  0  0  0  0  2  0  0  0  0  0  0
  179.1550  180.9370  140.1400 O   0  0  0  0  0  0  0  0  0  0  0  0
  179.0650  181.0860  141.5230 C   0  0  0  0  0  1  0  0  0  0  0  0
  181.5870  180.9240  137.7050 O   0  0  0  0  0  0  0  0  0  0  0  0
  181.6710  182.2280  138.2290 C   0  0  0  0  0  2  0  0  0  0  0  0
  181.1220  183.2330  137.2300 C   0  0  1  0  0  3  0  0  0  0  0  0
  179.7980  183.5110  137.5150 F   0  0  0  0  0  0  0  0  0  0  0  0
  181.8710  184.4090  137.2740 O   0  0  0  0  0  1  0  0  0  0  0  0
  184.4240  177.1290  136.9910 C   0  0  0  0  0  1  0  0  0  0  0  0
  182.9750  177.3760  137.3790 C   0  0  0  0  0  2  0  0  0  0  0  0
  184.5910  178.4430  141.5410 O   0  0  0  0  0  0  0  0  0  0  0  0
  183.8910  178.7880  142.7010 C   0  0  0  0  0  2  0  0  0  0  0  0
  185.0300  178.5420  146.3030 C   0  0  0  0  0  3  0  0  0  0  0  0
  184.7360  178.5230  143.8980 C   0  0  0  0  0  0  0  0  0  0  0  0
  186.7800  177.6650  144.8760 C   0  0  0  0  0  0  0  0  0  0  0  0
  184.2490  178.8170  145.1770 C   0  0  0  0  0  3  0  0  0  0  0  0
  185.9990  177.9400  143.7490 C   0  0  0  0  0  3  0  0  0  0  0  0
  188.3620  176.9420  144.6890 Cl  0  0  0  0  0  0  0  0  0  0  0  0
  186.2960  177.9670  146.1530 C   0  0  0  0  0  3  0  0  0  0  0  0
  3 19  1  1  0  0  0
  3  7  1  0  0  0  0
  3  5  1  0  0  0  0
  4  2  1  0  0  0  0
  5  1  1  1  0  0  0
  5  6  1  0  0  0  0
  6  2  1  0  0  0  0
  6 20  1  1  0  0  0
  7  4  1  0  0  0  0
  8  9  1  6  0  0  0
  8  7  1  0  0  0  0
  8 10  1  0  0  0  0
 10 11  1  0  0  0  0
 11 12  1  0  0  0  0
 13 14  1  0  0  0  0
 13  8  1  0  0  0  0
 15 17  1  1  0  0  0
 15 16  1  0  0  0  0
 15 14  1  0  0  0  0
 18 19  1  0  0  0  0
 20 21  1  0  0  0  0
 21 23  1  0  0  0  0
 23 25  1  0  0  0  0
 24 28  2  0  0  0  0
 25 22  2  0  0  0  0
 26 23  2  0  0  0  0
 26 24  1  0  0  0  0
 27 24  1  0  0  0  0
 28 22  1  0  0  0  0
M  END
>  <MODEL>
4

>  <REMARK>
 VINA RESULT:      -6.4      6.684      9.512
  Name = 
  10 active torsions:
  status: ('A' for Active; 'I' for Inactive)
    1  A    between atoms: C_1  and  C_3
    2  A    between atoms: C_1  and  O_11
    3  A    between atoms: C_1  and  N_27
    4  A    between atoms: O_2  and  C_3
    5  A    between atoms: C_6  and  C_8
    6  A    between atoms: C_8  and  O_11
    7  A    between atoms: C_9  and  C_18
    8  A    between atoms: O_14  and  C_18
    9  A    between atoms: O_14  and  C_25
   10  A    between atoms: C_16  and  C_21
                            x       y       z     vdW  Elec       q    Type
                         _______ _______ _______ _____ _____    ______ ____

>  <TORSDO>
F 10

$$$$
=
 OpenBabel10262420573D

 28 29  0  0  1  0  0  0  0  0999 V2000
  184.2250  180.3280  139.1390 O   0  0  0  0  0  1  0  0  0  0  0  0
  183.0620  178.0260  140.6860 C   0  0  0  0  0  2  0  0  0  0  0  0
  184.3290  178.1740  138.0600 C   0  0  2  0  0  3  0  0  0  0  0  0
  182.7730  176.9840  139.6150 C   0  0  0  0  0  2  0  0  0  0  0  0
  184.7990  179.0590  139.2290 C   0  0  2  0  0  3  0  0  0  0  0  0
  184.5200  178.4230  140.5890 C   0  0  1  0  0  3  0  0  0  0  0  0
  183.0300  177.4820  138.2480 N   0  0  0  0  0  0  0  0  0  0  0  0
  181.8600  178.1680  137.6320 C   0  0  1  0  0  0  0  0  0  0  0  0
  181.9010  178.0430  136.1150 C   0  0  0  0  0  1  0  0  0  0  0  0
  180.5280  177.5290  138.0690 C   0  0  0  0  0  2  0  0  0  0  0  0
  180.0940  176.5610  137.1590 O   0  0  0  0  0  0  0  0  0  0  0  0
  179.7270  175.4750  137.9520 C   0  0  0  0  0  1  0  0  0  0  0  0
  181.8620  179.5590  137.9210 O   0  0  0  0  0  0  0  0  0  0  0  0
  180.6200  179.9520  138.4540 C   0  0  0  0  0  2  0  0  0  0  0  0
  180.7640  181.2580  139.2160 C   0  0  1  0  0  3  0  0  0  0  0  0
  181.6550  182.0910  138.5650 F   0  0  0  0  0  0  0  0  0  0  0  0
  179.5240  181.8880  139.3250 O   0  0  0  0  0  1  0  0  0  0  0  0
  186.8090  177.8100  137.6730 C   0  0  0  0  0  1  0  0  0  0  0  0
  185.4140  177.2130  137.5750 C   0  0  0  0  0  2  0  0  0  0  0  0
  184.8480  179.3080  141.6200 O   0  0  0  0  0  0  0  0  0  0  0  0
  184.0400  178.9250  142.6950 C   0  0  0  0  0  2  0  0  0  0  0  0
  185.2070  178.5930  146.2810 C   0  0  0  0  0  3  0  0  0  0  0  0
  184.8880  178.6170  143.8790 C   0  0  0  0  0  0  0  0  0  0  0  0
  186.9140  177.6820  144.8240 C   0  0  0  0  0  0  0  0  0  0  0  0
  184.4240  178.9080  145.1670 C   0  0  0  0  0  3  0  0  0  0  0  0
  186.1300  177.9960  143.7090 C   0  0  0  0  0  3  0  0  0  0  0  0
  188.4710  176.9120  144.6090 Cl  0  0  0  0  0  0  0  0  0  0  0  0
  186.4520  177.9810  146.1090 C   0  0  0  0  0  3  0  0  0  0  0  0
  3 19  1  1  0  0  0
  3  7  1  0  0  0  0
  3  5  1  0  0  0  0
  4  2  1  0  0  0  0
  5  1  1  1  0  0  0
  5  6  1  0  0  0  0
  6  2  1  0  0  0  0
  6 20  1  1  0  0  0
  7  4  1  0  0  0  0
  8  9  1  6  0  0  0
  8 13  1  0  0  0  0
  8 10  1  0  0  0  0
  8  7  1  0  0  0  0
 11 12  1  0  0  0  0
 11 10  1  0  0  0  0
 13 14  1  0  0  0  0
 14 15  1  0  0  0  0
 15 16  1  6  0  0  0
 15 17  1  0  0  0  0
 19 18  1  0  0  0  0
 20 21  1  0  0  0  0
 21 23  1  0  0  0  0
 23 25  1  0  0  0  0
 24 28  2  0  0  0  0
 25 22  2  0  0  0  0
 26 23  2  0  0  0  0
 26 24  1  0  0  0  0
 27 24  1  0  0  0  0
 28 22  1  0  0  0  0
M  END
>  <MODEL>
5

>  <REMARK>
 VINA RESULT:      -6.3      6.073      8.977
  Name = 
  10 active torsions:
  status: ('A' for Active; 'I' for Inactive)
    1  A    between atoms: C_1  and  C_3
    2  A    between atoms: C_1  and  O_11
    3  A    between atoms: C_1  and  N_27
    4  A    between atoms: O_2  and  C_3
    5  A    between atoms: C_6  and  C_8
    6  A    between atoms: C_8  and  O_11
    7  A    between atoms: C_9  and  C_18
    8  A    between atoms: O_14  and  C_18
    9  A    between atoms: O_14  and  C_25
   10  A    between atoms: C_16  and  C_21
                            x       y       z     vdW  Elec       q    Type
                         _______ _______ _______ _____ _____    ______ ____

>  <TORSDO>
F 10

$$$$
=
 OpenBabel10262420573D

 28 29  0  0  1  0  0  0  0  0999 V2000
  184.1380  180.4390  139.0830 O   0  0  0  0  0  1  0  0  0  0  0  0
  183.0630  178.6260  141.2280 C   0  0  0  0  0  2  0  0  0  0  0  0
  183.3050  178.3020  138.3370 C   0  0  2  0  0  3  0  0  0  0  0  0
  182.1590  177.6670  140.4670 C   0  0  0  0  0  2  0  0  0  0  0  0
  184.3670  179.0640  139.1510 C   0  0  2  0  0  3  0  0  0  0  0  0
  184.4410  178.5880  140.6010 C   0  0  1  0  0  3  0  0  0  0  0  0
  182.0290  178.0160  139.0380 N   0  0  0  0  0  0  0  0  0  0  0  0
  180.9300  178.9800  138.7550 C   0  0  1  0  0  0  0  0  0  0  0  0
  181.2520  179.8200  137.5270 C   0  0  0  0  0  1  0  0  0  0  0  0
  179.6060  178.2580  138.4340 C   0  0  0  0  0  2  0  0  0  0  0  0
  179.8260  176.9770  137.9220 O   0  0  0  0  0  0  0  0  0  0  0  0
  178.9780  176.8910  136.8190 C   0  0  0  0  0  1  0  0  0  0  0  0
  180.7490  179.8920  139.8300 O   0  0  0  0  0  0  0  0  0  0  0  0
  179.3840  180.0050  140.1550 C   0  0  0  0  0  2  0  0  0  0  0  0
  179.1780  179.7900  141.6440 C   0  0  1  0  0  3  0  0  0  0  0  0
  179.2730  178.4440  141.9460 F   0  0  0  0  0  0  0  0  0  0  0  0
  180.1330  180.5030  142.3680 O   0  0  0  0  0  1  0  0  0  0  0  0
  183.1420  176.7180  136.3640 C   0  0  0  0  0  1  0  0  0  0  0  0
  183.8670  177.0540  137.6570 C   0  0  0  0  0  2  0  0  0  0  0  0
  185.3250  179.3840  141.3330 O   0  0  0  0  0  0  0  0  0  0  0  0
  186.5040  178.6360  141.4120 C   0  0  0  0  0  2  0  0  0  0  0  0
  187.9780  176.8700  144.4190 C   0  0  0  0  0  3  0  0  0  0  0  0
  186.6970  178.1450  142.8040 C   0  0  0  0  0  0  0  0  0  0  0  0
  186.0250  178.1150  145.1320 C   0  0  0  0  0  0  0  0  0  0  0  0
  187.7780  177.3090  143.1060 C   0  0  0  0  0  3  0  0  0  0  0  0
  185.8260  178.5540  143.8190 C   0  0  0  0  0  3  0  0  0  0  0  0
  184.9310  178.6210  146.3990 Cl  0  0  0  0  0  0  0  0  0  0  0  0
  187.1010  177.2730  145.4310 C   0  0  0  0  0  3  0  0  0  0  0  0
  3 19  1  1  0  0  0
  3  7  1  0  0  0  0
  3  5  1  0  0  0  0
  4  2  1  0  0  0  0
  5  1  1  1  0  0  0
  5  6  1  0  0  0  0
  6  2  1  0  0  0  0
  6 20  1  1  0  0  0
  7  4  1  0  0  0  0
  8  9  1  6  0  0  0
  8  7  1  0  0  0  0
  8 13  1  0  0  0  0
 10  8  1  0  0  0  0
 11 10  1  0  0  0  0
 12 11  1  0  0  0  0
 13 14  1  0  0  0  0
 14 15  1  0  0  0  0
 15 16  1  6  0  0  0
 15 17  1  0  0  0  0
 18 19  1  0  0  0  0
 20 21  1  0  0  0  0
 21 23  1  0  0  0  0
 22 28  1  0  0  0  0
 23 25  1  0  0  0  0
 23 26  2  0  0  0  0
 24 28  2  0  0  0  0
 24 27  1  0  0  0  0
 25 22  2  0  0  0  0
 26 24  1  0  0  0  0
M  END
>  <MODEL>
6

>  <REMARK>
 VINA RESULT:      -6.1      6.203      8.874
  Name = 
  10 active torsions:
  status: ('A' for Active; 'I' for Inactive)
    1  A    between atoms: C_1  and  C_3
    2  A    between atoms: C_1  and  O_11
    3  A    between atoms: C_1  and  N_27
    4  A    between atoms: O_2  and  C_3
    5  A    between atoms: C_6  and  C_8
    6  A    between atoms: C_8  and  O_11
    7  A    between atoms: C_9  and  C_18
    8  A    between atoms: O_14  and  C_18
    9  A    between atoms: O_14  and  C_25
   10  A    between atoms: C_16  and  C_21
                            x       y       z     vdW  Elec       q    Type
                         _______ _______ _______ _____ _____    ______ ____

>  <TORSDO>
F 10

$$$$
=
 OpenBabel10262420573D

 28 29  0  0  1  0  0  0  0  0999 V2000
  184.1800  180.4990  139.0930 O   0  0  0  0  0  1  0  0  0  0  0  0
  183.0600  178.5600  141.1000 C   0  0  0  0  0  2  0  0  0  0  0  0
  183.4470  178.3770  138.2120 C   0  0  2  0  0  3  0  0  0  0  0  0
  182.2230  177.6120  140.2540 C   0  0  0  0  0  2  0  0  0  0  0  0
  184.4470  179.1290  139.1100 C   0  0  2  0  0  3  0  0  0  0  0  0
  184.4660  178.5890  140.5390 C   0  0  1  0  0  3  0  0  0  0  0  0
  182.1480  178.0240  138.8370 N   0  0  0  0  0  0  0  0  0  0  0  0
  181.0350  178.9690  138.5460 C   0  0  1  0  0  0  0  0  0  0  0  0
  180.1210  178.4070  137.4660 C   0  0  0  0  0  1  0  0  0  0  0  0
  180.1390  179.1920  139.7800 C   0  0  0  0  0  2  0  0  0  0  0  0
  180.2150  180.5080  140.2430 O   0  0  0  0  0  0  0  0  0  0  0  0
  179.6810  180.4570  141.5300 C   0  0  0  0  0  1  0  0  0  0  0  0
  181.5220  180.2100  138.0550 O   0  0  0  0  0  0  0  0  0  0  0  0
  180.8410  180.5760  136.8800 C   0  0  0  0  0  2  0  0  0  0  0  0
  180.5380  182.0650  136.8880 C   0  0  1  0  0  3  0  0  0  0  0  0
  181.4400  182.7270  137.7010 F   0  0  0  0  0  0  0  0  0  0  0  0
  180.6090  182.5750  135.5930 O   0  0  0  0  0  1  0  0  0  0  0  0
  183.0380  176.2160  136.9500 C   0  0  0  0  0  1  0  0  0  0  0  0
  184.0770  177.1780  137.5050 C   0  0  0  0  0  2  0  0  0  0  0  0
  185.2920  179.3750  141.3480 O   0  0  0  0  0  0  0  0  0  0  0  0
  186.4630  178.6270  141.5020 C   0  0  0  0  0  2  0  0  0  0  0  0
  187.9090  177.1430  144.6700 C   0  0  0  0  0  3  0  0  0  0  0  0
  186.6130  178.2120  142.9230 C   0  0  0  0  0  0  0  0  0  0  0  0
  185.7930  178.1950  145.2030 C   0  0  0  0  0  0  0  0  0  0  0  0
  187.7530  177.5090  143.3290 C   0  0  0  0  0  3  0  0  0  0  0  0
  185.6380  178.5620  143.8630 C   0  0  0  0  0  3  0  0  0  0  0  0
  184.5690  178.6280  146.3760 Cl  0  0  0  0  0  0  0  0  0  0  0  0
  186.9290  177.4850  145.6060 C   0  0  0  0  0  3  0  0  0  0  0  0
  3 19  1  1  0  0  0
  3  7  1  0  0  0  0
  3  5  1  0  0  0  0
  4  2  1  0  0  0  0
  5  1  1  1  0  0  0
  5  6  1  0  0  0  0
  6  2  1  0  0  0  0
  6 20  1  1  0  0  0
  7  4  1  0  0  0  0
  8  9  1  6  0  0  0
  8  7  1  0  0  0  0
  8 10  1  0  0  0  0
 10 11  1  0  0  0  0
 11 12  1  0  0  0  0
 13  8  1  0  0  0  0
 14 15  1  0  0  0  0
 14 13  1  0  0  0  0
 15 17  1  6  0  0  0
 15 16  1  0  0  0  0
 18 19  1  0  0  0  0
 20 21  1  0  0  0  0
 21 23  1  0  0  0  0
 22 28  1  0  0  0  0
 23 25  1  0  0  0  0
 23 26  2  0  0  0  0
 24 28  2  0  0  0  0
 24 27  1  0  0  0  0
 25 22  2  0  0  0  0
 26 24  1  0  0  0  0
M  END
>  <MODEL>
7

>  <REMARK>
 VINA RESULT:      -6.1      6.520      9.125
  Name = 
  10 active torsions:
  status: ('A' for Active; 'I' for Inactive)
    1  A    between atoms: C_1  and  C_3
    2  A    between atoms: C_1  and  O_11
    3  A    between atoms: C_1  and  N_27
    4  A    between atoms: O_2  and  C_3
    5  A    between atoms: C_6  and  C_8
    6  A    between atoms: C_8  and  O_11
    7  A    between atoms: C_9  and  C_18
    8  A    between atoms: O_14  and  C_18
    9  A    between atoms: O_14  and  C_25
   10  A    between atoms: C_16  and  C_21
                            x       y       z     vdW  Elec       q    Type
                         _______ _______ _______ _____ _____    ______ ____

>  <TORSDO>
F 10

$$$$
=
 OpenBabel10262420573D

 28 29  0  0  1  0  0  0  0  0999 V2000
  190.3850  179.2060  143.2080 O   0  0  0  0  0  1  0  0  0  0  0  0
  189.8920  176.2440  143.3620 C   0  0  0  0  0  2  0  0  0  0  0  0
  191.3830  177.8790  141.4580 C   0  0  2  0  0  3  0  0  0  0  0  0
  190.1360  175.7650  141.9390 C   0  0  0  0  0  2  0  0  0  0  0  0
  191.3470  178.2250  142.9580 C   0  0  2  0  0  3  0  0  0  0  0  0
  191.1190  176.9940  143.8340 C   0  0  1  0  0  3  0  0  0  0  0  0
  190.3920  176.8740  140.9980 N   0  0  0  0  0  0  0  0  0  0  0  0
  189.1560  177.4450  140.3950 C   0  0  1  0  0  0  0  0  0  0  0  0
  189.3690  178.9010  140.0040 C   0  0  0  0  0  1  0  0  0  0  0  0
  188.7660  176.7140  139.0950 C   0  0  0  0  0  2  0  0  0  0  0  0
  188.2600  177.5980  138.1370 O   0  0  0  0  0  0  0  0  0  0  0  0
  187.1970  176.9100  137.5540 C   0  0  0  0  0  1  0  0  0  0  0  0
  188.0740  177.4300  141.3160 O   0  0  0  0  0  0  0  0  0  0  0  0
  187.3710  178.6490  141.2690 C   0  0  0  0  0  2  0  0  0  0  0  0
  186.0100  178.4970  141.9270 C   0  0  1  0  0  3  0  0  0  0  0  0
  186.1430  177.8630  143.1490 F   0  0  0  0  0  0  0  0  0  0  0  0
  185.4230  179.7490  142.1070 O   0  0  0  0  0  1  0  0  0  0  0  0
  192.8080  177.1110  139.5070 C   0  0  0  0  0  1  0  0  0  0  0  0
  192.7900  177.5510  140.9620 C   0  0  0  0  0  2  0  0  0  0  0  0
  190.9710  177.3670  145.1730 O   0  0  0  0  0  0  0  0  0  0  0  0
  190.0540  176.4540  145.7020 C   0  0  0  0  0  2  0  0  0  0  0  0
  188.4600  178.2530  148.6270 C   0  0  0  0  0  3  0  0  0  0  0  0
  189.0560  177.1710  146.5420 C   0  0  0  0  0  0  0  0  0  0  0  0
  186.8770  178.2010  146.7940 C   0  0  0  0  0  0  0  0  0  0  0  0
  189.3870  177.5540  147.8470 C   0  0  0  0  0  3  0  0  0  0  0  0
  187.8040  177.5020  146.0140 C   0  0  0  0  0  3  0  0  0  0  0  0
  185.3090  178.6080  146.1350 Cl  0  0  0  0  0  0  0  0  0  0  0  0
  187.2060  178.5750  148.1010 C   0  0  0  0  0  3  0  0  0  0  0  0
  2  6  1  0  0  0  0
  3 19  1  1  0  0  0
  3  5  1  0  0  0  0
  4  2  1  0  0  0  0
  5  1  1  6  0  0  0
  5  6  1  0  0  0  0
  6 20  1  1  0  0  0
  7  3  1  0  0  0  0
  7  4  1  0  0  0  0
  8  9  1  6  0  0  0
  8  7  1  0  0  0  0
  8 13  1  0  0  0  0
 10  8  1  0  0  0  0
 11 10  1  0  0  0  0
 12 11  1  0  0  0  0
 14 13  1  0  0  0  0
 14 15  1  0  0  0  0
 15 17  1  1  0  0  0
 15 16  1  0  0  0  0
 18 19  1  0  0  0  0
 20 21  1  0  0  0  0
 21 23  1  0  0  0  0
 23 25  1  0  0  0  0
 24 28  2  0  0  0  0
 25 22  2  0  0  0  0
 26 23  2  0  0  0  0
 26 24  1  0  0  0  0
 27 24  1  0  0  0  0
 28 22  1  0  0  0  0
M  END
>  <MODEL>
8

>  <REMARK>
 VINA RESULT:      -6.1      3.041      6.828
  Name = 
  10 active torsions:
  status: ('A' for Active; 'I' for Inactive)
    1  A    between atoms: C_1  and  C_3
    2  A    between atoms: C_1  and  O_11
    3  A    between atoms: C_1  and  N_27
    4  A    between atoms: O_2  and  C_3
    5  A    between atoms: C_6  and  C_8
    6  A    between atoms: C_8  and  O_11
    7  A    between atoms: C_9  and  C_18
    8  A    between atoms: O_14  and  C_18
    9  A    between atoms: O_14  and  C_25
   10  A    between atoms: C_16  and  C_21
                            x       y       z     vdW  Elec       q    Type
                         _______ _______ _______ _____ _____    ______ ____

>  <TORSDO>
F 10

$$$$
=
 OpenBabel10262420573D

 28 29  0  0  1  0  0  0  0  0999 V2000
  189.4040  179.3170  142.0480 O   0  0  0  0  0  1  0  0  0  0  0  0
  190.3250  176.4610  141.8660 C   0  0  0  0  0  2  0  0  0  0  0  0
  188.1360  177.7170  143.3320 C   0  0  2  0  0  3  0  0  0  0  0  0
  189.7470  175.8170  143.1180 C   0  0  0  0  0  2  0  0  0  0  0  0
  188.5560  178.2130  141.9370 C   0  0  2  0  0  3  0  0  0  0  0  0
  189.1950  177.1100  141.0950 C   0  0  1  0  0  3  0  0  0  0  0  0
  189.0800  176.7900  144.0050 N   0  0  0  0  0  0  0  0  0  0  0  0
  189.9970  177.4340  144.9860 C   0  0  1  0  0  0  0  0  0  0  0  0
  190.6890  178.6400  144.3650 C   0  0  0  0  0  1  0  0  0  0  0  0
  189.2350  177.9740  146.2120 C   0  0  0  0  0  2  0  0  0  0  0  0
  188.1550  177.1550  146.5520 O   0  0  0  0  0  0  0  0  0  0  0  0
  187.5320  177.8190  147.6070 C   0  0  0  0  0  1  0  0  0  0  0  0
  191.0270  176.5450  145.3940 O   0  0  0  0  0  0  0  0  0  0  0  0
  191.3960  176.8000  146.7290 C   0  0  0  0  0  2  0  0  0  0  0  0
  192.0700  175.5790  147.3310 C   0  0  1  0  0  3  0  0  0  0  0  0
  192.5730  174.7720  146.3270 F   0  0  0  0  0  0  0  0  0  0  0  0
  193.1020  175.9720  148.1820 O   0  0  0  0  0  1  0  0  0  0  0  0
  185.7090  178.2100  143.8780 C   0  0  0  0  0  1  0  0  0  0  0  0
  186.7040  177.1830  143.3610 C   0  0  0  0  0  2  0  0  0  0  0  0
  189.6720  177.6300  139.8880 O   0  0  0  0  0  0  0  0  0  0  0  0
  189.2870  176.6990  138.9180 C   0  0  0  0  0  2  0  0  0  0  0  0
  192.8930  176.1000  137.9350 C   0  0  0  0  0  3  0  0  0  0  0  0
  190.4940  176.1090  138.2780 C   0  0  0  0  0  0  0  0  0  0  0  0
  191.5150  174.3980  136.8990 C   0  0  0  0  0  0  0  0  0  0  0  0
  191.7550  176.6710  138.5120 C   0  0  0  0  0  3  0  0  0  0  0  0
  190.3770  174.9680  137.4770 C   0  0  0  0  0  3  0  0  0  0  0  0
  191.3660  172.9750  135.8930 Cl  0  0  0  0  0  0  0  0  0  0  0  0
  192.7730  174.9650  137.1280 C   0  0  0  0  0  3  0  0  0  0  0  0
  2  4  1  0  0  0  0
  3 19  1  6  0  0  0
  3  7  1  0  0  0  0
  4  7  1  0  0  0  0
  5  1  1  1  0  0  0
  5  3  1  0  0  0  0
  6 20  1  6  0  0  0
  6  2  1  0  0  0  0
  6  5  1  0  0  0  0
  7  8  1  0  0  0  0
  8  9  1  6  0  0  0
  8 13  1  0  0  0  0
  8 10  1  0  0  0  0
 10 11  1  0  0  0  0
 11 12  1  0  0  0  0
 13 14  1  0  0  0  0
 14 15  1  0  0  0  0
 15 16  1  6  0  0  0
 15 17  1  0  0  0  0
 19 18  1  0  0  0  0
 21 20  1  0  0  0  0
 22 25  1  0  0  0  0
 23 25  2  0  0  0  0
 23 21  1  0  0  0  0
 24 28  1  0  0  0  0
 24 26  2  0  0  0  0
 26 23  1  0  0  0  0
 27 24  1  0  0  0  0
 28 22  2  0  0  0  0
M  END
>  <MODEL>
9

>  <REMARK>
 VINA RESULT:      -6.0      2.671      4.275
  Name = 
  10 active torsions:
  status: ('A' for Active; 'I' for Inactive)
    1  A    between atoms: C_1  and  C_3
    2  A    between atoms: C_1  and  O_11
    3  A    between atoms: C_1  and  N_27
    4  A    between atoms: O_2  and  C_3
    5  A    between atoms: C_6  and  C_8
    6  A    between atoms: C_8  and  O_11
    7  A    between atoms: C_9  and  C_18
    8  A    between atoms: O_14  and  C_18
    9  A    between atoms: O_14  and  C_25
   10  A    between atoms: C_16  and  C_21
                            x       y       z     vdW  Elec       q    Type
                         _______ _______ _______ _____ _____    ______ ____

>  <TORSDO>
F 10

$$$$
