=
 OpenBabel10262423243D

 34 38  0  0  1  0  0  0  0  0999 V2000
  186.5550  178.2220  139.3450 C   0  0  2  0  0  3  0  0  0  0  0  0
  190.0350  177.4530  138.6960 C   0  0  0  0  0  3  0  0  0  0  0  0
  188.5950  178.7060  136.8170 S   0  0  0  0  0  0  0  0  0  0  0  0
  185.0940  177.2320  137.3400 N   0  0  0  0  0  0  0  0  0  0  0  0
  183.8240  176.6820  137.7740 C   0  0  0  0  0  1  0  0  0  0  0  0
  186.9700  178.0030  136.8480 C   0  0  0  0  0  0  0  0  0  0  0  0
  186.1540  177.8580  137.9820 C   0  0  0  0  0  0  0  0  0  0  0  0
  185.9000  177.2100  135.9030 S   0  0  0  0  0  0  0  0  0  0  0  0
  190.5660  176.8660  139.9350 C   0  0  0  0  0  2  0  0  0  0  0  0
  190.2740  177.1620  141.2060 C   0  0  0  0  0  0  0  0  0  0  0  0
  189.3360  178.2200  141.6320 C   0  0  0  0  0  3  0  0  0  0  0  0
  188.9050  178.1330  138.5160 C   0  0  0  0  0  0  0  0  0  0  0  0
  188.3030  178.7160  140.9590 C   0  0  0  0  0  3  0  0  0  0  0  0
  187.8840  178.3330  139.6050 C   0  0  0  0  0  0  0  0  0  0  0  0
  191.0110  176.4420  142.2630 C   0  0  0  0  0  0  0  0  0  0  0  0
  190.5110  175.2550  142.7900 O   0  0  0  0  0  1  0  0  0  0  0  0
  192.1010  176.8960  142.7020 O   0  0  0  0  0  0  0  0  0  0  0  0
  184.3750  179.1270  140.2820 C   0  0  0  0  0  0  0  0  0  0  0  0
  185.5860  178.3750  140.3930 N   0  0  0  0  0  2  0  0  0  0  0  0
  184.2060  179.9450  139.3390 O   0  0  0  0  0  0  0  0  0  0  0  0
  183.2990  178.9400  141.2960 C   0  0  0  0  0  2  0  0  0  0  0  0
  183.7580  179.0770  145.0560 C   0  0  0  0  0  3  0  0  0  0  0  0
  185.1850  178.2470  142.7880 C   0  0  0  0  0  3  0  0  0  0  0  0
  186.9110  177.9010  146.6070 C   0  0  0  0  0  0  0  0  0  0  0  0
  185.6210  178.4300  146.4640 C   0  0  0  0  0  3  0  0  0  0  0  0
  185.0430  178.5470  145.1970 C   0  0  0  0  0  0  0  0  0  0  0  0
  187.0470  177.6020  144.1960 C   0  0  0  0  0  3  0  0  0  0  0  0
  185.7610  178.1280  144.0550 C   0  0  0  0  0  0  0  0  0  0  0  0
  187.6190  177.4890  145.4670 C   0  0  0  0  0  3  0  0  0  0  0  0
  183.8960  178.7750  142.6520 C   0  0  0  0  0  0  0  0  0  0  0  0
  183.1870  179.1940  143.7850 C   0  0  0  0  0  3  0  0  0  0  0  0
  187.5140  177.7810  147.9440 C   0  0  0  0  0  0  0  0  0  0  0  0
  187.4580  178.7420  148.7580 O   0  0  0  0  0  1  0  0  0  0  0  0
  188.1510  176.6060  148.3230 O   0  0  0  0  0  0  0  0  0  0  0  0
  1 14  1  0  0  0  0
  1 19  1  1  0  0  0
  2  9  1  0  0  0  0
  3  6  1  0  0  0  0
  3 12  1  0  0  0  0
  4  5  1  0  0  0  0
  4  7  1  0  0  0  0
  6  7  2  0  0  0  0
  7  1  1  0  0  0  0
  8  6  1  0  0  0  0
  8  4  1  0  0  0  0
  9 10  1  0  0  0  0
 10 11  2  0  0  0  0
 10 15  1  0  0  0  0
 12  2  2  0  0  0  0
 12 14  1  0  0  0  0
 13 11  1  0  0  0  0
 14 13  2  0  0  0  0
 15 17  2  0  0  0  0
 15 16  1  0  0  0  0
 18 19  1  0  0  0  0
 18 21  1  0  0  0  0
 20 18  2  0  0  0  0
 21 30  1  0  0  0  0
 22 26  1  0  0  0  0
 23 28  1  0  0  0  0
 24 32  1  0  0  0  0
 25 24  1  0  0  0  0
 26 25  2  0  0  0  0
 27 29  1  0  0  0  0
 28 27  2  0  0  0  0
 28 26  1  0  0  0  0
 29 24  2  0  0  0  0
 30 23  2  0  0  0  0
 30 31  1  0  0  0  0
 31 22  2  0  0  0  0
 32 34  2  0  0  0  0
 32 33  1  0  0  0  0
M  END
>  <MODEL>
1

>  <REMARK>
 VINA RESULT:     -10.5      0.000      0.000
  Name = 
  5 active torsions:
  status: ('A' for Active; 'I' for Inactive)
    1  A    between atoms: C_1  and  N_9
    2  A    between atoms: C_3  and  C_25
    3  A    between atoms: C_7  and  C_11
    4  A    between atoms: C_8  and  C_18
    5  A    between atoms: C_18  and  C_30
                            x       y       z     vdW  Elec       q    Type
                         _______ _______ _______ _____ _____    ______ ____

>  <TORSDO>
F 5

$$$$
=
 OpenBabel10262423243D

 34 38  0  0  1  0  0  0  0  0999 V2000
  184.2030  178.1390  140.8190 C   0  0  2  0  0  3  0  0  0  0  0  0
  182.1290  179.5710  138.2170 C   0  0  0  0  0  3  0  0  0  0  0  0
  183.9430  177.7080  137.5730 S   0  0  0  0  0  0  0  0  0  0  0  0
  186.7580  178.3940  140.0830 N   0  0  0  0  0  0  0  0  0  0  0  0
  187.6450  178.7020  141.1890 C   0  0  0  0  0  1  0  0  0  0  0  0
  185.3760  178.0070  138.5690 C   0  0  0  0  0  0  0  0  0  0  0  0
  185.3960  178.1550  139.9650 C   0  0  0  0  0  0  0  0  0  0  0  0
  186.9680  178.3510  138.4500 S   0  0  0  0  0  0  0  0  0  0  0  0
  181.1840  180.4730  138.8920 C   0  0  0  0  0  2  0  0  0  0  0  0
  180.5960  180.3450  140.0860 C   0  0  0  0  0  0  0  0  0  0  0  0
  180.7630  179.1900  140.9900 C   0  0  0  0  0  3  0  0  0  0  0  0
  182.9000  178.6260  138.7490 C   0  0  0  0  0  0  0  0  0  0  0  0
  181.7960  178.3570  141.0690 C   0  0  0  0  0  3  0  0  0  0  0  0
  183.0030  178.3880  140.2330 C   0  0  0  0  0  0  0  0  0  0  0  0
  179.6360  181.3910  140.4910 C   0  0  0  0  0  0  0  0  0  0  0  0
  179.1400  182.2940  139.5570 O   0  0  0  0  0  0  0  0  0  0  0  0
  179.2570  181.4780  141.6890 O   0  0  0  0  0  1  0  0  0  0  0  0
  184.5820  178.9890  143.1820 C   0  0  0  0  0  0  0  0  0  0  0  0
  184.3030  177.9510  142.2390 N   0  0  0  0  0  2  0  0  0  0  0  0
  185.0390  180.1000  142.8040 O   0  0  0  0  0  0  0  0  0  0  0  0
  184.3300  178.7500  144.6310 C   0  0  0  0  0  2  0  0  0  0  0  0
  186.9080  178.1490  147.3430 C   0  0  0  0  0  3  0  0  0  0  0  0
  186.6810  177.8970  144.5580 C   0  0  0  0  0  3  0  0  0  0  0  0
  190.2870  176.8980  146.4780 C   0  0  0  0  0  0  0  0  0  0  0  0
  189.1950  177.3560  147.2280 C   0  0  0  0  0  3  0  0  0  0  0  0
  187.9950  177.6890  146.5950 C   0  0  0  0  0  0  0  0  0  0  0  0
  188.9680  177.1070  144.4440 C   0  0  0  0  0  3  0  0  0  0  0  0
  187.8800  177.5620  145.1920 C   0  0  0  0  0  0  0  0  0  0  0  0
  190.1660  176.7760  145.0840 C   0  0  0  0  0  3  0  0  0  0  0  0
  185.5940  178.3540  145.3130 C   0  0  0  0  0  0  0  0  0  0  0  0
  185.7100  178.4830  146.7030 C   0  0  0  0  0  3  0  0  0  0  0  0
  191.5480  176.5490  147.1510 C   0  0  0  0  0  0  0  0  0  0  0  0
  191.9420  177.2080  148.1500 O   0  0  0  0  0  1  0  0  0  0  0  0
  192.3170  175.4870  146.6910 O   0  0  0  0  0  0  0  0  0  0  0  0
  1 19  1  1  0  0  0
  2 12  2  0  0  0  0
  2  9  1  0  0  0  0
  3  6  1  0  0  0  0
  3 12  1  0  0  0  0
  4  5  1  0  0  0  0
  6  7  2  0  0  0  0
  7  4  1  0  0  0  0
  7  1  1  0  0  0  0
  8  6  1  0  0  0  0
  8  4  1  0  0  0  0
  9 10  1  0  0  0  0
 10 15  1  0  0  0  0
 10 11  2  0  0  0  0
 11 13  1  0  0  0  0
 12 14  1  0  0  0  0
 14  1  1  0  0  0  0
 14 13  2  0  0  0  0
 15 17  1  0  0  0  0
 16 15  2  0  0  0  0
 18 21  1  0  0  0  0
 19 18  1  0  0  0  0
 20 18  2  0  0  0  0
 21 30  1  0  0  0  0
 23 28  2  0  0  0  0
 23 30  1  0  0  0  0
 24 32  1  0  0  0  0
 24 25  2  0  0  0  0
 26 25  1  0  0  0  0
 26 22  2  0  0  0  0
 27 29  2  0  0  0  0
 27 28  1  0  0  0  0
 28 26  1  0  0  0  0
 29 24  1  0  0  0  0
 30 31  2  0  0  0  0
 31 22  1  0  0  0  0
 32 33  1  0  0  0  0
 34 32  2  0  0  0  0
M  END
>  <MODEL>
2

>  <REMARK>
 VINA RESULT:     -10.4      2.688      6.139
  Name = 
  5 active torsions:
  status: ('A' for Active; 'I' for Inactive)
    1  A    between atoms: C_1  and  N_9
    2  A    between atoms: C_3  and  C_25
    3  A    between atoms: C_7  and  C_11
    4  A    between atoms: C_8  and  C_18
    5  A    between atoms: C_18  and  C_30
                            x       y       z     vdW  Elec       q    Type
                         _______ _______ _______ _____ _____    ______ ____

>  <TORSDO>
F 5

$$$$
=
 OpenBabel10262423243D

 34 38  0  0  1  0  0  0  0  0999 V2000
  185.7440  177.7070  138.3770 C   0  0  2  0  0  3  0  0  0  0  0  0
  189.1000  177.4150  137.0440 C   0  0  0  0  0  3  0  0  0  0  0  0
  187.1150  178.2250  135.4380 S   0  0  0  0  0  0  0  0  0  0  0  0
  184.1000  176.2970  136.8140 N   0  0  0  0  0  0  0  0  0  0  0  0
  183.0580  175.6080  137.5510 C   0  0  0  0  0  1  0  0  0  0  0  0
  185.6760  177.2900  135.8720 C   0  0  0  0  0  0  0  0  0  0  0  0
  185.1450  177.1420  137.1640 C   0  0  0  0  0  0  0  0  0  0  0  0
  184.5900  176.2460  135.2410 S   0  0  0  0  0  0  0  0  0  0  0  0
  189.9640  177.0510  138.1770 C   0  0  0  0  0  2  0  0  0  0  0  0
  189.8880  177.4330  139.4570 C   0  0  0  0  0  0  0  0  0  0  0  0
  188.8890  178.3730  140.0000 C   0  0  0  0  0  3  0  0  0  0  0  0
  187.8570  177.8910  137.0660 C   0  0  0  0  0  0  0  0  0  0  0  0
  187.6710  178.6310  139.5330 C   0  0  0  0  0  3  0  0  0  0  0  0
  187.0590  178.0460  138.3340 C   0  0  0  0  0  0  0  0  0  0  0  0
  190.9370  176.9500  140.3760 C   0  0  0  0  0  0  0  0  0  0  0  0
  190.6110  176.1300  141.4520 O   0  0  0  0  0  1  0  0  0  0  0  0
  192.1400  177.2780  140.1990 O   0  0  0  0  0  0  0  0  0  0  0  0
  184.2460  178.9710  139.9920 C   0  0  0  0  0  0  0  0  0  0  0  0
  184.9960  177.8190  139.5970 N   0  0  0  0  0  2  0  0  0  0  0  0
  184.4190  180.0810  139.4210 O   0  0  0  0  0  0  0  0  0  0  0  0
  183.2490  178.8560  141.0930 C   0  0  0  0  0  2  0  0  0  0  0  0
  183.9740  178.9080  144.8130 C   0  0  0  0  0  3  0  0  0  0  0  0
  185.2530  178.1730  142.4270 C   0  0  0  0  0  3  0  0  0  0  0  0
  187.2570  177.7720  146.1030 C   0  0  0  0  0  0  0  0  0  0  0  0
  185.9480  178.2720  146.0670 C   0  0  0  0  0  3  0  0  0  0  0  0
  185.2780  178.4070  144.8480 C   0  0  0  0  0  0  0  0  0  0  0  0
  187.2270  177.5390  143.6810 C   0  0  0  0  0  3  0  0  0  0  0  0
  185.9210  178.0360  143.6460 C   0  0  0  0  0  0  0  0  0  0  0  0
  187.8910  177.4070  144.9040 C   0  0  0  0  0  3  0  0  0  0  0  0
  183.9460  178.6720  142.3980 C   0  0  0  0  0  0  0  0  0  0  0  0
  183.3100  179.0430  143.5890 C   0  0  0  0  0  3  0  0  0  0  0  0
  187.9570  177.6330  147.3890 C   0  0  0  0  0  0  0  0  0  0  0  0
  188.7450  176.6700  147.5870 O   0  0  0  0  0  0  0  0  0  0  0  0
  187.7560  178.5650  148.4010 O   0  0  0  0  0  1  0  0  0  0  0  0
  1 19  1  1  0  0  0
  2 12  2  0  0  0  0
  2  9  1  0  0  0  0
  3  6  1  0  0  0  0
  3 12  1  0  0  0  0
  4  7  1  0  0  0  0
  4  5  1  0  0  0  0
  6  7  2  0  0  0  0
  7  1  1  0  0  0  0
  8  6  1  0  0  0  0
  8  4  1  0  0  0  0
  9 10  1  0  0  0  0
 10 11  2  0  0  0  0
 10 15  1  0  0  0  0
 12 14  1  0  0  0  0
 13 11  1  0  0  0  0
 14  1  1  0  0  0  0
 14 13  2  0  0  0  0
 15 16  1  0  0  0  0
 17 15  2  0  0  0  0
 18 21  1  0  0  0  0
 19 18  1  0  0  0  0
 20 18  2  0  0  0  0
 21 30  1  0  0  0  0
 22 26  1  0  0  0  0
 23 28  1  0  0  0  0
 24 32  1  0  0  0  0
 25 24  1  0  0  0  0
 26 25  2  0  0  0  0
 27 29  1  0  0  0  0
 28 27  2  0  0  0  0
 28 26  1  0  0  0  0
 29 24  2  0  0  0  0
 30 23  2  0  0  0  0
 30 31  1  0  0  0  0
 31 22  2  0  0  0  0
 32 33  2  0  0  0  0
 32 34  1  0  0  0  0
M  END
>  <MODEL>
3

>  <REMARK>
 VINA RESULT:     -10.2      1.061      1.417
  Name = 
  5 active torsions:
  status: ('A' for Active; 'I' for Inactive)
    1  A    between atoms: C_1  and  N_9
    2  A    between atoms: C_3  and  C_25
    3  A    between atoms: C_7  and  C_11
    4  A    between atoms: C_8  and  C_18
    5  A    between atoms: C_18  and  C_30
                            x       y       z     vdW  Elec       q    Type
                         _______ _______ _______ _____ _____    ______ ____

>  <TORSDO>
F 5

$$$$
=
 OpenBabel10262423243D

 34 38  0  0  1  0  0  0  0  0999 V2000
  183.4190  178.7070  141.5010 C   0  0  2  0  0  3  0  0  0  0  0  0
  184.8890  178.8770  138.1950 C   0  0  0  0  0  3  0  0  0  0  0  0
  182.6730  180.2880  138.7210 S   0  0  0  0  0  0  0  0  0  0  0  0
  180.8440  178.0470  141.2360 N   0  0  0  0  0  0  0  0  0  0  0  0
  180.3730  177.1500  142.2750 C   0  0  0  0  0  1  0  0  0  0  0  0
  181.6540  179.2900  139.7690 C   0  0  0  0  0  0  0  0  0  0  0  0
  182.0550  178.6680  140.9630 C   0  0  0  0  0  0  0  0  0  0  0  0
  180.1780  178.5940  139.8330 S   0  0  0  0  0  0  0  0  0  0  0  0
  186.1270  178.0860  138.2520 C   0  0  0  0  0  3  0  0  0  0  0  0
  186.9970  177.9460  139.2580 C   0  0  0  0  0  0  0  0  0  0  0  0
  186.8950  178.6270  140.5640 C   0  0  0  0  0  3  0  0  0  0  0  0
  184.1480  179.3360  139.2010 C   0  0  1  0  0  3  0  0  0  0  0  0
  185.7980  179.0720  141.1700 C   0  0  0  0  0  3  0  0  0  0  0  0
  184.4290  179.0080  140.6440 C   0  0  0  0  0  0  0  0  0  0  0  0
  188.1980  177.1230  139.0140 C   0  0  0  0  0  0  0  0  0  0  0  0
  189.2380  177.0990  139.9380 O   0  0  0  0  0  1  0  0  0  0  0  0
  188.2960  176.4340  137.9640 O   0  0  0  0  0  0  0  0  0  0  0  0
  183.8150  179.2940  143.9400 C   0  0  0  0  0  0  0  0  0  0  0  0
  183.6930  178.3580  142.8670 N   0  0  0  0  0  2  0  0  0  0  0  0
  183.9670  180.5240  143.7120 O   0  0  0  0  0  0  0  0  0  0  0  0
  183.7610  178.8080  145.3480 C   0  0  0  0  0  2  0  0  0  0  0  0
  186.7560  178.1950  147.5890 C   0  0  0  0  0  3  0  0  0  0  0  0
  186.0750  177.9800  144.8760 C   0  0  0  0  0  3  0  0  0  0  0  0
  189.9560  176.9900  146.1600 C   0  0  0  0  0  0  0  0  0  0  0  0
  188.9980  177.4270  147.0870 C   0  0  0  0  0  3  0  0  0  0  0  0
  187.7080  177.7570  146.6650 C   0  0  0  0  0  0  0  0  0  0  0  0
  188.3180  177.2150  144.3740 C   0  0  0  0  0  3  0  0  0  0  0  0
  187.3640  177.6480  145.2990 C   0  0  0  0  0  0  0  0  0  0  0  0
  189.6070  176.8860  144.8040 C   0  0  0  0  0  3  0  0  0  0  0  0
  185.1230  178.4140  145.8060 C   0  0  0  0  0  0  0  0  0  0  0  0
  185.4660  178.5260  147.1600 C   0  0  0  0  0  3  0  0  0  0  0  0
  191.3130  176.6450  146.6110 C   0  0  0  0  0  0  0  0  0  0  0  0
  192.0560  175.9180  145.9000 O   0  0  0  0  0  0  0  0  0  0  0  0
  191.7890  177.1200  147.8270 O   0  0  0  0  0  1  0  0  0  0  0  0
  1 19  1  6  0  0  0
  2  9  2  0  0  0  0
  3 12  1  0  0  0  0
  3  6  1  0  0  0  0
  4  5  1  0  0  0  0
  6  8  1  0  0  0  0
  6  7  2  0  0  0  0
  7  4  1  0  0  0  0
  7  1  1  0  0  0  0
  8  4  1  0  0  0  0
  9 10  1  0  0  0  0
 10 11  2  0  0  0  0
 11 13  1  0  0  0  0
 12  2  1  6  0  0  0
 12 14  1  0  0  0  0
 14 13  2  0  0  0  0
 14  1  1  0  0  0  0
 15 10  1  0  0  0  0
 15 16  1  0  0  0  0
 17 15  2  0  0  0  0
 18 21  1  0  0  0  0
 19 18  1  0  0  0  0
 20 18  2  0  0  0  0
 21 30  1  0  0  0  0
 23 28  2  0  0  0  0
 23 30  1  0  0  0  0
 24 32  1  0  0  0  0
 24 25  2  0  0  0  0
 26 25  1  0  0  0  0
 26 22  2  0  0  0  0
 27 29  2  0  0  0  0
 27 28  1  0  0  0  0
 28 26  1  0  0  0  0
 29 24  1  0  0  0  0
 30 31  2  0  0  0  0
 31 22  1  0  0  0  0
 32 34  1  0  0  0  0
 33 32  2  0  0  0  0
M  END
>  <MODEL>
4

>  <REMARK>
 VINA RESULT:     -10.0      2.787      4.366
  Name = 
  5 active torsions:
  status: ('A' for Active; 'I' for Inactive)
    1  A    between atoms: C_1  and  N_9
    2  A    between atoms: C_3  and  C_25
    3  A    between atoms: C_7  and  C_11
    4  A    between atoms: C_8  and  C_18
    5  A    between atoms: C_18  and  C_30
                            x       y       z     vdW  Elec       q    Type
                         _______ _______ _______ _____ _____    ______ ____

>  <TORSDO>
F 5

$$$$
=
 OpenBabel10262423243D

 34 38  0  0  1  0  0  0  0  0999 V2000
  185.7070  178.8880  140.6660 C   0  0  2  0  0  3  0  0  0  0  0  0
  188.3880  177.2430  138.8690 C   0  0  0  0  0  3  0  0  0  0  0  0
  186.5040  178.5620  137.4960 S   0  0  0  0  0  0  0  0  0  0  0  0
  183.3840  178.0360  139.6610 N   0  0  0  0  0  0  0  0  0  0  0  0
  182.3540  177.8590  140.6670 C   0  0  0  0  0  1  0  0  0  0  0  0
  184.9610  178.2740  138.3160 C   0  0  0  0  0  0  0  0  0  0  0  0
  184.7040  178.4660  139.6830 C   0  0  0  0  0  0  0  0  0  0  0  0
  183.4740  177.6480  138.0620 S   0  0  0  0  0  0  0  0  0  0  0  0
  189.2980  176.7020  139.8900 C   0  0  0  0  0  2  0  0  0  0  0  0
  189.6360  177.2120  141.0790 C   0  0  0  0  0  0  0  0  0  0  0  0
  189.1610  178.5060  141.6090 C   0  0  0  0  0  3  0  0  0  0  0  0
  187.4190  178.1440  139.0120 C   0  0  0  0  0  0  0  0  0  0  0  0
  188.0350  179.1470  141.3120 C   0  0  0  0  0  3  0  0  0  0  0  0
  187.0160  178.7120  140.3480 C   0  0  0  0  0  0  0  0  0  0  0  0
  190.6280  176.4720  141.8830 C   0  0  0  0  0  0  0  0  0  0  0  0
  191.9210  176.9630  142.0360 O   0  0  0  0  0  0  0  0  0  0  0  0
  190.3170  175.3860  142.4390 O   0  0  0  0  0  1  0  0  0  0  0  0
  184.9890  178.5820  143.0830 C   0  0  0  0  0  0  0  0  0  0  0  0
  185.3250  179.3930  141.9540 N   0  0  0  0  0  2  0  0  0  0  0  0
  184.7330  177.3560  142.9440 O   0  0  0  0  0  0  0  0  0  0  0  0
  184.9400  179.1950  144.4400 C   0  0  0  0  0  2  0  0  0  0  0  0
  187.0280  178.2370  147.4530 C   0  0  0  0  0  3  0  0  0  0  0  0
  187.2600  178.2850  144.6580 C   0  0  0  0  0  3  0  0  0  0  0  0
  190.4880  176.9840  147.0190 C   0  0  0  0  0  0  0  0  0  0  0  0
  189.2930  177.3930  147.6260 C   0  0  0  0  0  3  0  0  0  0  0  0
  188.2180  177.8260  146.8460 C   0  0  0  0  0  0  0  0  0  0  0  0
  189.5250  177.4440  144.8320 C   0  0  0  0  0  3  0  0  0  0  0  0
  188.3340  177.8510  145.4380 C   0  0  0  0  0  0  0  0  0  0  0  0
  190.5970  177.0120  145.6190 C   0  0  0  0  0  3  0  0  0  0  0  0
  186.0690  178.6920  145.2710 C   0  0  0  0  0  0  0  0  0  0  0  0
  185.9570  178.6720  146.6670 C   0  0  0  0  0  3  0  0  0  0  0  0
  191.6170  176.5290  147.8460 C   0  0  0  0  0  0  0  0  0  0  0  0
  192.1960  177.3280  148.6300 O   0  0  0  0  0  1  0  0  0  0  0  0
  192.0540  175.2120  147.7720 O   0  0  0  0  0  0  0  0  0  0  0  0
  1 19  1  1  0  0  0
  2 12  2  0  0  0  0
  2  9  1  0  0  0  0
  3  6  1  0  0  0  0
  3 12  1  0  0  0  0
  4  7  1  0  0  0  0
  4  5  1  0  0  0  0
  6  7  2  0  0  0  0
  7  1  1  0  0  0  0
  8  6  1  0  0  0  0
  8  4  1  0  0  0  0
  9 10  1  0  0  0  0
 10 11  2  0  0  0  0
 10 15  1  0  0  0  0
 12 14  1  0  0  0  0
 13 11  1  0  0  0  0
 14  1  1  0  0  0  0
 14 13  2  0  0  0  0
 15 16  2  0  0  0  0
 15 17  1  0  0  0  0
 18 21  1  0  0  0  0
 19 18  1  0  0  0  0
 20 18  2  0  0  0  0
 21 30  1  0  0  0  0
 23 30  2  0  0  0  0
 23 28  1  0  0  0  0
 24 25  1  0  0  0  0
 24 32  1  0  0  0  0
 26 22  1  0  0  0  0
 26 25  2  0  0  0  0
 27 28  2  0  0  0  0
 27 29  1  0  0  0  0
 28 26  1  0  0  0  0
 29 24  2  0  0  0  0
 30 31  1  0  0  0  0
 31 22  2  0  0  0  0
 32 33  1  0  0  0  0
 34 32  2  0  0  0  0
M  END
>  <MODEL>
5

>  <REMARK>
 VINA RESULT:     -10.0      2.060      2.954
  Name = 
  5 active torsions:
  status: ('A' for Active; 'I' for Inactive)
    1  A    between atoms: C_1  and  N_9
    2  A    between atoms: C_3  and  C_25
    3  A    between atoms: C_7  and  C_11
    4  A    between atoms: C_8  and  C_18
    5  A    between atoms: C_18  and  C_30
                            x       y       z     vdW  Elec       q    Type
                         _______ _______ _______ _____ _____    ______ ____

>  <TORSDO>
F 5

$$$$
=
 OpenBabel10262423243D

 34 38  0  0  1  0  0  0  0  0999 V2000
  184.0810  177.3780  137.9490 C   0  0  2  0  0  3  0  0  0  0  0  0
  187.0790  175.8110  136.6540 C   0  0  0  0  0  3  0  0  0  0  0  0
  184.8950  175.9440  135.1080 S   0  0  0  0  0  0  0  0  0  0  0  0
  182.0550  175.6610  137.6680 N   0  0  0  0  0  0  0  0  0  0  0  0
  181.1220  175.6890  138.7780 C   0  0  0  0  0  1  0  0  0  0  0  0
  183.4950  175.6740  136.1580 C   0  0  0  0  0  0  0  0  0  0  0  0
  183.2130  176.3580  137.3520 C   0  0  0  0  0  0  0  0  0  0  0  0
  182.2240  174.6680  136.3640 S   0  0  0  0  0  0  0  0  0  0  0  0
  188.1130  175.9830  137.6850 C   0  0  0  0  0  2  0  0  0  0  0  0
  188.3190  177.0110  138.5160 C   0  0  0  0  0  0  0  0  0  0  0  0
  187.5250  178.2540  138.5320 C   0  0  0  0  0  3  0  0  0  0  0  0
  185.9080  176.4330  136.5390 C   0  0  0  0  0  0  0  0  0  0  0  0
  186.2650  178.4260  138.1430 C   0  0  0  0  0  3  0  0  0  0  0  0
  185.3860  177.3980  137.5710 C   0  0  0  0  0  0  0  0  0  0  0  0
  189.4820  176.9350  139.4210 C   0  0  0  0  0  0  0  0  0  0  0  0
  190.4630  175.9660  139.2320 O   0  0  0  0  0  0  0  0  0  0  0  0
  189.6000  177.7470  140.3770 O   0  0  0  0  0  1  0  0  0  0  0  0
  183.4180  177.9320  140.3370 C   0  0  0  0  0  0  0  0  0  0  0  0
  183.5950  178.2740  138.9600 N   0  0  0  0  0  2  0  0  0  0  0  0
  183.4140  176.7280  140.7090 O   0  0  0  0  0  0  0  0  0  0  0  0
  183.2360  179.0150  141.3440 C   0  0  0  0  0  2  0  0  0  0  0  0
  184.2200  178.6720  144.9880 C   0  0  0  0  0  3  0  0  0  0  0  0
  185.3540  178.2740  142.4530 C   0  0  0  0  0  3  0  0  0  0  0  0
  187.6260  177.5460  145.9160 C   0  0  0  0  0  0  0  0  0  0  0  0
  186.3000  177.9860  146.0250 C   0  0  0  0  0  3  0  0  0  0  0  0
  185.5410  178.2300  144.8780 C   0  0  0  0  0  0  0  0  0  0  0  0
  187.4330  177.5910  143.4910 C   0  0  0  0  0  3  0  0  0  0  0  0
  186.1110  178.0290  143.6010 C   0  0  0  0  0  0  0  0  0  0  0  0
  188.1870  177.3500  144.6440 C   0  0  0  0  0  3  0  0  0  0  0  0
  184.0290  178.7140  142.5690 C   0  0  0  0  0  0  0  0  0  0  0  0
  183.4670  178.9160  143.8360 C   0  0  0  0  0  3  0  0  0  0  0  0
  188.4200  177.2920  147.1280 C   0  0  0  0  0  0  0  0  0  0  0  0
  189.5260  176.6930  147.0540 O   0  0  0  0  0  0  0  0  0  0  0  0
  187.9570  177.7120  148.3700 O   0  0  0  0  0  1  0  0  0  0  0  0
  1 19  1  1  0  0  0
  2  9  1  0  0  0  0
  3  6  1  0  0  0  0
  3 12  1  0  0  0  0
  4  5  1  0  0  0  0
  6  8  1  0  0  0  0
  6  7  2  0  0  0  0
  7  4  1  0  0  0  0
  7  1  1  0  0  0  0
  8  4  1  0  0  0  0
  9 10  1  0  0  0  0
 10 11  2  0  0  0  0
 10 15  1  0  0  0  0
 12  2  2  0  0  0  0
 12 14  1  0  0  0  0
 13 11  1  0  0  0  0
 14  1  1  0  0  0  0
 14 13  2  0  0  0  0
 15 17  1  0  0  0  0
 16 15  2  0  0  0  0
 18 20  2  0  0  0  0
 18 21  1  0  0  0  0
 19 18  1  0  0  0  0
 21 30  1  0  0  0  0
 23 30  2  0  0  0  0
 23 28  1  0  0  0  0
 24 25  1  0  0  0  0
 24 32  1  0  0  0  0
 26 22  1  0  0  0  0
 26 25  2  0  0  0  0
 27 28  2  0  0  0  0
 27 29  1  0  0  0  0
 28 26  1  0  0  0  0
 29 24  2  0  0  0  0
 30 31  1  0  0  0  0
 31 22  2  0  0  0  0
 32 34  1  0  0  0  0
 33 32  2  0  0  0  0
M  END
>  <MODEL>
6

>  <REMARK>
 VINA RESULT:      -9.4      1.928      2.824
  Name = 
  5 active torsions:
  status: ('A' for Active; 'I' for Inactive)
    1  A    between atoms: C_1  and  N_9
    2  A    between atoms: C_3  and  C_25
    3  A    between atoms: C_7  and  C_11
    4  A    between atoms: C_8  and  C_18
    5  A    between atoms: C_18  and  C_30
                            x       y       z     vdW  Elec       q    Type
                         _______ _______ _______ _____ _____    ______ ____

>  <TORSDO>
F 5

$$$$
=
 OpenBabel10262423243D

 34 38  0  0  1  0  0  0  0  0999 V2000
  190.1310  176.3280  137.7340 C   0  0  2  0  0  3  0  0  0  0  0  0
  193.0440  175.1800  135.9130 C   0  0  0  0  0  3  0  0  0  0  0  0
  191.0910  176.4560  134.5960 S   0  0  0  0  0  0  0  0  0  0  0  0
  187.9560  175.3700  136.5160 N   0  0  0  0  0  0  0  0  0  0  0  0
  186.9090  174.9750  137.4390 C   0  0  0  0  0  1  0  0  0  0  0  0
  189.5550  175.9210  135.2930 C   0  0  0  0  0  0  0  0  0  0  0  0
  189.2200  175.9250  136.6570 C   0  0  0  0  0  0  0  0  0  0  0  0
  188.1540  175.1820  134.8910 S   0  0  0  0  0  0  0  0  0  0  0  0
  193.9630  174.6180  136.9150 C   0  0  0  0  0  2  0  0  0  0  0  0
  194.1940  175.0180  138.1700 C   0  0  0  0  0  0  0  0  0  0  0  0
  193.5630  176.1860  138.8140 C   0  0  0  0  0  3  0  0  0  0  0  0
  191.9810  175.9570  136.1030 C   0  0  0  0  0  0  0  0  0  0  0  0
  192.3890  176.7420  138.5300 C   0  0  0  0  0  3  0  0  0  0  0  0
  191.4630  176.3220  137.4700 C   0  0  0  0  0  0  0  0  0  0  0  0
  195.2240  174.2920  138.9390 C   0  0  0  0  0  0  0  0  0  0  0  0
  195.3570  172.9130  138.8160 O   0  0  0  0  0  0  0  0  0  0  0  0
  195.9940  174.9140  139.7180 O   0  0  0  0  0  1  0  0  0  0  0  0
  188.9990  177.8620  139.4120 C   0  0  0  0  0  0  0  0  0  0  0  0
  189.6430  176.6390  139.0480 N   0  0  0  0  0  2  0  0  0  0  0  0
  189.0650  178.8740  138.6650 O   0  0  0  0  0  0  0  0  0  0  0  0
  188.2420  177.9400  140.6930 C   0  0  0  0  0  2  0  0  0  0  0  0
  191.3430  177.0590  142.6860 C   0  0  0  0  0  3  0  0  0  0  0  0
  188.6340  177.6250  143.1440 C   0  0  0  0  0  3  0  0  0  0  0  0
  191.1680  176.6940  146.3690 C   0  0  0  0  0  0  0  0  0  0  0  0
  191.6750  176.7240  145.0620 C   0  0  0  0  0  3  0  0  0  0  0  0
  190.8370  177.0330  143.9880 C   0  0  0  0  0  0  0  0  0  0  0  0
  188.9660  177.2870  145.5200 C   0  0  0  0  0  3  0  0  0  0  0  0
  189.4730  177.3180  144.2180 C   0  0  0  0  0  0  0  0  0  0  0  0
  189.8110  176.9770  146.5900 C   0  0  0  0  0  3  0  0  0  0  0  0
  189.1470  177.6540  141.8420 C   0  0  0  0  0  0  0  0  0  0  0  0
  190.4980  177.3660  141.6140 C   0  0  0  0  0  3  0  0  0  0  0  0
  192.0560  176.3670  147.4960 C   0  0  0  0  0  0  0  0  0  0  0  0
  192.7380  175.3080  147.4850 O   0  0  0  0  0  0  0  0  0  0  0  0
  192.1520  177.2260  148.5840 O   0  0  0  0  0  1  0  0  0  0  0  0
  1 19  1  1  0  0  0
  2 12  2  0  0  0  0
  2  9  1  0  0  0  0
  3  6  1  0  0  0  0
  3 12  1  0  0  0  0
  4  7  1  0  0  0  0
  4  5  1  0  0  0  0
  6  7  2  0  0  0  0
  7  1  1  0  0  0  0
  8  6  1  0  0  0  0
  8  4  1  0  0  0  0
  9 10  1  0  0  0  0
 10 11  2  0  0  0  0
 10 15  1  0  0  0  0
 12 14  1  0  0  0  0
 13 11  1  0  0  0  0
 14  1  1  0  0  0  0
 14 13  2  0  0  0  0
 15 17  1  0  0  0  0
 16 15  2  0  0  0  0
 18 21  1  0  0  0  0
 19 18  1  0  0  0  0
 20 18  2  0  0  0  0
 21 30  1  0  0  0  0
 22 26  1  0  0  0  0
 23 28  1  0  0  0  0
 24 29  1  0  0  0  0
 24 32  1  0  0  0  0
 25 24  2  0  0  0  0
 26 28  2  0  0  0  0
 26 25  1  0  0  0  0
 27 29  2  0  0  0  0
 28 27  1  0  0  0  0
 30 23  2  0  0  0  0
 31 30  1  0  0  0  0
 31 22  2  0  0  0  0
 32 34  1  0  0  0  0
 33 32  2  0  0  0  0
M  END
>  <MODEL>
7

>  <REMARK>
 VINA RESULT:      -9.3      3.535      5.005
  Name = 
  5 active torsions:
  status: ('A' for Active; 'I' for Inactive)
    1  A    between atoms: C_1  and  N_9
    2  A    between atoms: C_3  and  C_25
    3  A    between atoms: C_7  and  C_11
    4  A    between atoms: C_8  and  C_18
    5  A    between atoms: C_18  and  C_30
                            x       y       z     vdW  Elec       q    Type
                         _______ _______ _______ _____ _____    ______ ____

>  <TORSDO>
F 5

$$$$
=
 OpenBabel10262423243D

 34 38  0  0  1  0  0  0  0  0999 V2000
  182.9850  177.2930  138.8310 C   0  0  2  0  0  3  0  0  0  0  0  0
  185.0850  176.5820  135.9660 C   0  0  0  0  0  3  0  0  0  0  0  0
  182.5060  177.1940  135.5830 S   0  0  0  0  0  0  0  0  0  0  0  0
  180.8340  175.7140  138.6990 N   0  0  0  0  0  0  0  0  0  0  0  0
  180.4000  175.2280  139.9950 C   0  0  0  0  0  1  0  0  0  0  0  0
  181.5870  176.4320  136.8910 C   0  0  0  0  0  0  0  0  0  0  0  0
  181.8530  176.5510  138.2650 C   0  0  0  0  0  0  0  0  0  0  0  0
  180.3910  175.3510  137.1540 S   0  0  0  0  0  0  0  0  0  0  0  0
  186.4450  176.3840  136.4900 C   0  0  0  0  0  3  0  0  0  0  0  0
  187.0570  176.9950  137.5110 C   0  0  0  0  0  0  0  0  0  0  0  0
  186.4640  178.0710  138.3280 C   0  0  0  0  0  3  0  0  0  0  0  0
  184.0300  177.1210  136.5730 C   0  0  1  0  0  3  0  0  0  0  0  0
  185.1770  178.3060  138.5620 C   0  0  0  0  0  3  0  0  0  0  0  0
  184.0430  177.5470  138.0180 C   0  0  0  0  0  0  0  0  0  0  0  0
  188.4620  176.6320  137.7810 C   0  0  0  0  0  0  0  0  0  0  0  0
  189.0700  175.5940  137.0820 O   0  0  0  0  0  0  0  0  0  0  0  0
  189.1260  177.2570  138.6500 O   0  0  0  0  0  1  0  0  0  0  0  0
  182.3290  178.7880  140.7760 C   0  0  0  0  0  0  0  0  0  0  0  0
  183.0150  177.6660  140.2170 N   0  0  0  0  0  2  0  0  0  0  0  0
  181.8690  179.6990  140.0360 O   0  0  0  0  0  0  0  0  0  0  0  0
  182.1560  178.8820  142.2530 C   0  0  0  0  0  2  0  0  0  0  0  0
  185.8020  178.0300  142.8330 C   0  0  0  0  0  3  0  0  0  0  0  0
  183.5440  178.7540  144.3300 C   0  0  0  0  0  3  0  0  0  0  0  0
  187.1970  177.9810  146.2660 C   0  0  0  0  0  0  0  0  0  0  0  0
  187.1050  177.8790  144.8710 C   0  0  0  0  0  3  0  0  0  0  0  0
  185.8930  178.1350  144.2230 C   0  0  0  0  0  0  0  0  0  0  0  0
  184.8460  178.6010  146.3670 C   0  0  0  0  0  3  0  0  0  0  0  0
  184.7560  178.5000  144.9770 C   0  0  0  0  0  0  0  0  0  0  0  0
  186.0610  178.3430  147.0080 C   0  0  0  0  0  3  0  0  0  0  0  0
  183.4590  178.6520  142.9370 C   0  0  0  0  0  0  0  0  0  0  0  0
  184.5860  178.2860  142.1910 C   0  0  0  0  0  3  0  0  0  0  0  0
  188.4750  177.7090  146.9410 C   0  0  0  0  0  0  0  0  0  0  0  0
  188.5930  177.8920  148.1820 O   0  0  0  0  0  1  0  0  0  0  0  0
  189.5660  177.2450  146.2160 O   0  0  0  0  0  0  0  0  0  0  0  0
  1 19  1  1  0  0  0
  2  9  2  0  0  0  0
  3 12  1  0  0  0  0
  3  6  1  0  0  0  0
  4  5  1  0  0  0  0
  6  8  1  0  0  0  0
  6  7  2  0  0  0  0
  7  4  1  0  0  0  0
  7  1  1  0  0  0  0
  8  4  1  0  0  0  0
  9 10  1  0  0  0  0
 10 15  1  0  0  0  0
 10 11  2  0  0  0  0
 11 13  1  0  0  0  0
 12  2  1  1  0  0  0
 12 14  1  0  0  0  0
 14 13  2  0  0  0  0
 14  1  1  0  0  0  0
 15 17  1  0  0  0  0
 16 15  2  0  0  0  0
 18 21  1  0  0  0  0
 19 18  1  0  0  0  0
 20 18  2  0  0  0  0
 21 30  1  0  0  0  0
 22 26  1  0  0  0  0
 23 28  1  0  0  0  0
 24 32  1  0  0  0  0
 24 29  1  0  0  0  0
 25 24  2  0  0  0  0
 26 25  1  0  0  0  0
 26 28  2  0  0  0  0
 27 29  2  0  0  0  0
 28 27  1  0  0  0  0
 30 23  2  0  0  0  0
 31 22  2  0  0  0  0
 31 30  1  0  0  0  0
 32 33  1  0  0  0  0
 34 32  2  0  0  0  0
M  END
>  <MODEL>
8

>  <REMARK>
 VINA RESULT:      -9.2      2.526      3.889
  Name = 
  5 active torsions:
  status: ('A' for Active; 'I' for Inactive)
    1  A    between atoms: C_1  and  N_9
    2  A    between atoms: C_3  and  C_25
    3  A    between atoms: C_7  and  C_11
    4  A    between atoms: C_8  and  C_18
    5  A    between atoms: C_18  and  C_30
                            x       y       z     vdW  Elec       q    Type
                         _______ _______ _______ _____ _____    ______ ____

>  <TORSDO>
F 5

$$$$
=
 OpenBabel10262423243D

 34 38  0  0  1  0  0  0  0  0999 V2000
  181.8140  179.0050  141.0120 C   0  0  2  0  0  3  0  0  0  0  0  0
  181.3450  178.2510  137.5000 C   0  0  0  0  0  3  0  0  0  0  0  0
  181.2230  180.7970  138.3240 S   0  0  0  0  0  0  0  0  0  0  0  0
  179.7300  180.4570  141.8380 N   0  0  0  0  0  0  0  0  0  0  0  0
  179.3000  180.1280  143.1840 C   0  0  0  0  0  1  0  0  0  0  0  0
  180.4050  180.8000  139.8940 C   0  0  0  0  0  0  0  0  0  0  0  0
  180.7450  180.0100  141.0040 C   0  0  0  0  0  0  0  0  0  0  0  0
  179.0910  181.4050  140.6510 S   0  0  0  0  0  0  0  0  0  0  0  0
  181.5650  176.8050  137.3540 C   0  0  0  0  0  3  0  0  0  0  0  0
  182.4260  176.0100  138.0000 C   0  0  0  0  0  0  0  0  0  0  0  0
  183.4000  176.4650  139.0110 C   0  0  0  0  0  3  0  0  0  0  0  0
  181.6600  179.0420  138.5230 C   0  0  1  0  0  3  0  0  0  0  0  0
  183.3200  177.5310  139.8020 C   0  0  0  0  0  3  0  0  0  0  0  0
  182.2370  178.5240  139.8140 C   0  0  0  0  0  0  0  0  0  0  0  0
  182.4710  174.5880  137.6060 C   0  0  0  0  0  0  0  0  0  0  0  0
  183.6610  173.8720  137.6790 O   0  0  0  0  0  1  0  0  0  0  0  0
  181.4310  174.0070  137.1970 O   0  0  0  0  0  0  0  0  0  0  0  0
  183.4900  178.9890  142.9190 C   0  0  0  0  0  0  0  0  0  0  0  0
  182.3380  178.4820  142.2410 N   0  0  0  0  0  2  0  0  0  0  0  0
  184.2960  179.7610  142.3350 O   0  0  0  0  0  0  0  0  0  0  0  0
  183.7400  178.5980  144.3360 C   0  0  0  0  0  2  0  0  0  0  0  0
  187.2980  177.5200  143.6010 C   0  0  0  0  0  3  0  0  0  0  0  0
  185.7280  178.2390  145.8120 C   0  0  0  0  0  3  0  0  0  0  0  0
  189.7490  177.1330  146.3530 C   0  0  0  0  0  0  0  0  0  0  0  0
  189.1900  177.1450  145.0670 C   0  0  0  0  0  3  0  0  0  0  0  0
  187.8540  177.5110  144.8820 C   0  0  0  0  0  0  0  0  0  0  0  0
  187.6190  177.8610  147.2770 C   0  0  0  0  0  3  0  0  0  0  0  0
  187.0640  177.8740  145.9950 C   0  0  0  0  0  0  0  0  0  0  0  0
  188.9570  177.4930  147.4540 C   0  0  0  0  0  3  0  0  0  0  0  0
  185.1760  178.2500  144.5250 C   0  0  0  0  0  0  0  0  0  0  0  0
  185.9600  177.8860  143.4230 C   0  0  0  0  0  3  0  0  0  0  0  0
  191.1560  176.7450  146.5400 C   0  0  0  0  0  0  0  0  0  0  0  0
  192.0070  176.9750  145.6400 O   0  0  0  0  0  0  0  0  0  0  0  0
  191.5600  176.1200  147.7140 O   0  0  0  0  0  1  0  0  0  0  0  0
  1 19  1  1  0  0  0
  3 12  1  0  0  0  0
  3  6  1  0  0  0  0
  4  5  1  0  0  0  0
  6  8  1  0  0  0  0
  6  7  2  0  0  0  0
  7  1  1  0  0  0  0
  7  4  1  0  0  0  0
  8  4  1  0  0  0  0
  9  2  2  0  0  0  0
  9 10  1  0  0  0  0
 10 11  2  0  0  0  0
 11 13  1  0  0  0  0
 12  2  1  1  0  0  0
 12 14  1  0  0  0  0
 13 14  2  0  0  0  0
 14  1  1  0  0  0  0
 15 16  1  0  0  0  0
 15 10  1  0  0  0  0
 17 15  2  0  0  0  0
 18 21  1  0  0  0  0
 19 18  1  0  0  0  0
 20 18  2  0  0  0  0
 21 30  1  0  0  0  0
 22 26  1  0  0  0  0
 23 28  1  0  0  0  0
 24 32  1  0  0  0  0
 24 29  1  0  0  0  0
 25 24  2  0  0  0  0
 26 25  1  0  0  0  0
 26 28  2  0  0  0  0
 27 29  2  0  0  0  0
 28 27  1  0  0  0  0
 30 23  2  0  0  0  0
 31 22  2  0  0  0  0
 31 30  1  0  0  0  0
 32 34  1  0  0  0  0
 33 32  2  0  0  0  0
M  END
>  <MODEL>
9

>  <REMARK>
 VINA RESULT:      -9.1      3.509      6.228
  Name = 
  5 active torsions:
  status: ('A' for Active; 'I' for Inactive)
    1  A    between atoms: C_1  and  N_9
    2  A    between atoms: C_3  and  C_25
    3  A    between atoms: C_7  and  C_11
    4  A    between atoms: C_8  and  C_18
    5  A    between atoms: C_18  and  C_30
                            x       y       z     vdW  Elec       q    Type
                         _______ _______ _______ _____ _____    ______ ____

>  <TORSDO>
F 5

$$$$
