=
 OpenBabel10262420513D

 28 31  0  0  1  0  0  0  0  0999 V2000
  190.5040  176.7350  144.2870 C   0  0  1  0  0  3  0  0  0  0  0  0
  185.6280  177.9650  142.8230 C   0  0  0  0  0  3  0  0  0  0  0  0
  187.9580  177.4660  148.5010 O   0  0  0  0  0  1  0  0  0  0  0  0
  184.5510  178.6300  144.8960 C   0  0  0  0  0  0  0  0  0  0  0  0
  186.9220  177.8330  144.9680 C   0  0  0  0  0  0  0  0  0  0  0  0
  183.3280  178.7140  142.8040 C   0  0  0  0  0  0  0  0  0  0  0  0
  185.6920  178.1590  144.2120 C   0  0  0  0  0  0  0  0  0  0  0  0
  185.6800  178.2310  147.0420 N   0  0  0  0  0  2  0  0  0  0  0  0
  183.3800  178.9160  144.1860 C   0  0  0  0  0  3  0  0  0  0  0  0
  189.2010  177.1110  146.4510 C   0  0  0  0  0  0  0  0  0  0  0  0
  188.0990  177.4540  144.3130 C   0  0  0  0  0  3  0  0  0  0  0  0
  184.5980  178.9410  146.3650 C   0  0  0  0  0  2  0  0  0  0  0  0
  191.6900  176.8230  146.5240 C   0  0  0  0  0  2  0  0  0  0  0  0
  188.0170  177.4780  147.1110 C   0  0  0  0  0  0  0  0  0  0  0  0
  190.3730  176.6210  147.2580 C   0  0  0  0  0  2  0  0  0  0  0  0
  182.1320  179.0010  142.0900 N   0  0  0  0  0  1  0  0  0  0  0  0
  184.4520  178.2430  142.1230 C   0  0  0  0  0  3  0  0  0  0  0  0
  186.8890  177.8600  146.3710 C   0  0  0  0  0  0  0  0  0  0  0  0
  191.6270  176.1550  145.1600 C   0  0  0  0  0  2  0  0  0  0  0  0
  189.2440  177.1050  145.0390 C   0  0  0  0  0  0  0  0  0  0  0  0
  190.9680  177.7920  143.2670 C   0  0  2  0  0  3  0  0  0  0  0  0
  191.0640  179.0610  143.8430 O   0  0  0  0  0  1  0  0  0  0  0  0
  190.2330  177.8280  141.9200 C   0  0  0  0  0  2  0  0  0  0  0  0
  190.4350  176.9360  139.5300 N   0  0  0  0  0  0  0  0  0  0  0  0
  192.3060  177.3600  140.8620 O   0  0  0  0  0  0  0  0  0  0  0  0
  191.0510  177.3540  140.7580 C   0  0  0  0  0  0  0  0  0  0  0  0
  189.0310  177.2010  139.2600 C   0  0  0  0  0  1  0  0  0  0  0  0
  191.2290  176.3180  138.4810 C   0  0  0  0  0  1  0  0  0  0  0  0
  1 21  1  1  0  0  0
  1 20  1  0  0  0  0
  1 19  1  0  0  0  0
  2  7  1  0  0  0  0
  4 12  1  0  0  0  0
  5 18  1  0  0  0  0
  6  9  2  0  0  0  0
  7  4  2  0  0  0  0
  7  5  1  0  0  0  0
  9  4  1  0  0  0  0
 10 14  1  0  0  0  0
 10 15  1  0  0  0  0
 11  5  2  0  0  0  0
 11 20  1  0  0  0  0
 12  8  1  0  0  0  0
 13 15  1  0  0  0  0
 14  3  1  0  0  0  0
 16  6  1  0  0  0  0
 17  6  1  0  0  0  0
 17  2  2  0  0  0  0
 18  8  1  0  0  0  0
 18 14  2  0  0  0  0
 19 13  1  0  0  0  0
 20 10  2  0  0  0  0
 21 22  1  1  0  0  0
 23 21  1  0  0  0  0
 24 26  1  0  0  0  0
 26 25  2  0  0  0  0
 26 23  1  0  0  0  0
 27 24  1  0  0  0  0
 28 24  1  0  0  0  0
M  END
>  <MODEL>
1

>  <REMARK>
 VINA RESULT:     -11.1      0.000      0.000
  Name = 
  3 active torsions:
  status: ('A' for Active; 'I' for Inactive)
    1  A    between atoms: C_1  and  C_2
    2  A    between atoms: C_2  and  C_3
    3  A    between atoms: C_3  and  C_11
                            x       y       z     vdW  Elec       q    Type
                         _______ _______ _______ _____ _____    ______ ____

>  <TORSDO>
F 3

$$$$
=
 OpenBabel10262420513D

 28 31  0  0  1  0  0  0  0  0999 V2000
  190.1270  176.2100  143.2480 C   0  0  1  0  0  3  0  0  0  0  0  0
  185.1600  177.8380  142.9280 C   0  0  0  0  0  3  0  0  0  0  0  0
  188.8810  177.6950  147.8320 O   0  0  0  0  0  1  0  0  0  0  0  0
  184.7410  178.8490  145.0970 C   0  0  0  0  0  0  0  0  0  0  0  0
  186.9670  177.7910  144.6670 C   0  0  0  0  0  0  0  0  0  0  0  0
  183.0110  178.8470  143.3980 C   0  0  0  0  0  0  0  0  0  0  0  0
  185.6110  178.1740  144.2150 C   0  0  0  0  0  0  0  0  0  0  0  0
  186.3690  178.5580  146.9150 N   0  0  0  0  0  2  0  0  0  0  0  0
  183.4510  179.1910  144.6780 C   0  0  0  0  0  3  0  0  0  0  0  0
  189.4920  176.9720  145.6010 C   0  0  0  0  0  0  0  0  0  0  0  0
  187.8880  177.2050  143.7900 C   0  0  0  0  0  3  0  0  0  0  0  0
  185.2080  179.3130  146.4470 C   0  0  0  0  0  2  0  0  0  0  0  0
  191.8750  176.4030  145.0710 C   0  0  0  0  0  2  0  0  0  0  0  0
  188.5650  177.5470  146.4850 C   0  0  0  0  0  0  0  0  0  0  0  0
  190.7920  176.4400  146.1400 C   0  0  0  0  0  2  0  0  0  0  0  0
  181.6960  179.1920  142.9810 N   0  0  0  0  0  1  0  0  0  0  0  0
  183.8660  178.1730  142.5220 C   0  0  0  0  0  3  0  0  0  0  0  0
  187.3160  177.9760  146.0140 C   0  0  0  0  0  0  0  0  0  0  0  0
  191.3900  175.6010  143.8750 C   0  0  0  0  0  2  0  0  0  0  0  0
  189.1520  176.8060  144.2400 C   0  0  0  0  0  0  0  0  0  0  0  0
  190.3870  177.0860  142.0080 C   0  0  2  0  0  3  0  0  0  0  0  0
  190.0530  178.4230  142.2380 O   0  0  0  0  0  1  0  0  0  0  0  0
  189.8330  176.5790  140.6690 C   0  0  0  0  0  2  0  0  0  0  0  0
  188.9820  178.2310  138.9090 N   0  0  0  0  0  0  0  0  0  0  0  0
  191.2420  177.6680  139.1000 O   0  0  0  0  0  0  0  0  0  0  0  0
  190.0640  177.5060  139.5150 C   0  0  0  0  0  0  0  0  0  0  0  0
  187.6770  178.3110  139.5440 C   0  0  0  0  0  1  0  0  0  0  0  0
  189.1960  178.9860  137.6870 C   0  0  0  0  0  1  0  0  0  0  0  0
  1 21  1  6  0  0  0
  1 19  1  0  0  0  0
  1 20  1  0  0  0  0
  2  7  1  0  0  0  0
  4 12  1  0  0  0  0
  5 18  1  0  0  0  0
  6  9  2  0  0  0  0
  7  5  1  0  0  0  0
  7  4  2  0  0  0  0
  9  4  1  0  0  0  0
 10 15  1  0  0  0  0
 10 14  1  0  0  0  0
 11 20  1  0  0  0  0
 11  5  2  0  0  0  0
 12  8  1  0  0  0  0
 13 15  1  0  0  0  0
 14  3  1  0  0  0  0
 16  6  1  0  0  0  0
 17  2  2  0  0  0  0
 17  6  1  0  0  0  0
 18 14  2  0  0  0  0
 18  8  1  0  0  0  0
 19 13  1  0  0  0  0
 20 10  2  0  0  0  0
 21 22  1  1  0  0  0
 23 21  1  0  0  0  0
 24 26  1  0  0  0  0
 24 27  1  0  0  0  0
 25 26  2  0  0  0  0
 26 23  1  0  0  0  0
 28 24  1  0  0  0  0
M  END
>  <MODEL>
2

>  <REMARK>
 VINA RESULT:      -9.7      1.160      1.354
  Name = 
  3 active torsions:
  status: ('A' for Active; 'I' for Inactive)
    1  A    between atoms: C_1  and  C_2
    2  A    between atoms: C_2  and  C_3
    3  A    between atoms: C_3  and  C_11
                            x       y       z     vdW  Elec       q    Type
                         _______ _______ _______ _____ _____    ______ ____

>  <TORSDO>
F 3

$$$$
=
 OpenBabel10262420513D

 28 31  0  0  1  0  0  0  0  0999 V2000
  188.5090  177.2350  143.3130 C   0  0  1  0  0  3  0  0  0  0  0  0
  183.7810  177.8620  141.1490 C   0  0  0  0  0  3  0  0  0  0  0  0
  185.5050  178.7030  147.0000 O   0  0  0  0  0  1  0  0  0  0  0  0
  182.4680  178.8910  142.9140 C   0  0  0  0  0  0  0  0  0  0  0  0
  184.8410  178.2580  143.3870 C   0  0  0  0  0  0  0  0  0  0  0  0
  181.4730  178.4640  140.7440 C   0  0  0  0  0  0  0  0  0  0  0  0
  183.6900  178.3480  142.4630 C   0  0  0  0  0  0  0  0  0  0  0  0
  183.3730  179.0170  145.1950 N   0  0  0  0  0  2  0  0  0  0  0  0
  181.3710  178.9560  142.0480 C   0  0  0  0  0  3  0  0  0  0  0  0
  186.9710  177.9900  145.2060 C   0  0  0  0  0  0  0  0  0  0  0  0
  186.0930  177.8120  142.9480 C   0  0  0  0  0  3  0  0  0  0  0  0
  182.3470  179.5090  144.2780 C   0  0  0  0  0  2  0  0  0  0  0  0
  189.4460  177.8600  145.5820 C   0  0  0  0  0  2  0  0  0  0  0  0
  185.7120  178.4240  145.6520 C   0  0  0  0  0  0  0  0  0  0  0  0
  188.0640  177.7470  146.2110 C   0  0  0  0  0  2  0  0  0  0  0  0
  180.3520  178.5280  139.8710 N   0  0  0  0  0  1  0  0  0  0  0  0
  182.6780  177.9200  140.2940 C   0  0  0  0  0  3  0  0  0  0  0  0
  184.6580  178.5790  144.7410 C   0  0  0  0  0  0  0  0  0  0  0  0
  189.5500  176.9150  144.3960 C   0  0  0  0  0  2  0  0  0  0  0  0
  187.1640  177.6870  143.8400 C   0  0  0  0  0  0  0  0  0  0  0  0
  189.0450  178.0760  142.1390 C   0  0  2  0  0  3  0  0  0  0  0  0
  188.3430  179.2750  141.9950 O   0  0  0  0  0  1  0  0  0  0  0  0
  189.2310  177.3570  140.7960 C   0  0  0  0  0  2  0  0  0  0  0  0
  189.3730  178.1560  138.3690 N   0  0  0  0  0  0  0  0  0  0  0  0
  187.5360  178.6330  139.7310 O   0  0  0  0  0  0  0  0  0  0  0  0
  188.6680  178.0920  139.6180 C   0  0  0  0  0  0  0  0  0  0  0  0
  190.5170  177.3000  138.1020 C   0  0  0  0  0  1  0  0  0  0  0  0
  188.8960  179.0150  137.2980 C   0  0  0  0  0  1  0  0  0  0  0  0
  1 21  1  6  0  0  0
  1 20  1  0  0  0  0
  1 19  1  0  0  0  0
  2  7  1  0  0  0  0
  4 12  1  0  0  0  0
  5 18  1  0  0  0  0
  6  9  2  0  0  0  0
  7  4  2  0  0  0  0
  7  5  1  0  0  0  0
  9  4  1  0  0  0  0
 10 14  1  0  0  0  0
 10 15  1  0  0  0  0
 11  5  2  0  0  0  0
 11 20  1  0  0  0  0
 12  8  1  0  0  0  0
 13 15  1  0  0  0  0
 14  3  1  0  0  0  0
 16  6  1  0  0  0  0
 17  6  1  0  0  0  0
 17  2  2  0  0  0  0
 18  8  1  0  0  0  0
 18 14  2  0  0  0  0
 19 13  1  0  0  0  0
 20 10  2  0  0  0  0
 21 22  1  6  0  0  0
 23 21  1  0  0  0  0
 24 26  1  0  0  0  0
 26 25  2  0  0  0  0
 26 23  1  0  0  0  0
 27 24  1  0  0  0  0
 28 24  1  0  0  0  0
M  END
>  <MODEL>
3

>  <REMARK>
 VINA RESULT:      -8.9      2.007      2.824
  Name = 
  3 active torsions:
  status: ('A' for Active; 'I' for Inactive)
    1  A    between atoms: C_1  and  C_2
    2  A    between atoms: C_2  and  C_3
    3  A    between atoms: C_3  and  C_11
                            x       y       z     vdW  Elec       q    Type
                         _______ _______ _______ _____ _____    ______ ____

>  <TORSDO>
F 3

$$$$
=
 OpenBabel10262420513D

 28 31  0  0  1  0  0  0  0  0999 V2000
  188.7920  178.0310  142.7330 C   0  0  1  0  0  3  0  0  0  0  0  0
  183.6800  178.7790  143.5870 C   0  0  0  0  0  3  0  0  0  0  0  0
  186.7150  178.5170  138.2360 O   0  0  0  0  0  1  0  0  0  0  0  0
  182.7000  178.6690  141.3670 C   0  0  0  0  0  0  0  0  0  0  0  0
  185.1820  178.4640  141.6020 C   0  0  0  0  0  0  0  0  0  0  0  0
  181.2870  179.0010  143.3090 C   0  0  0  0  0  0  0  0  0  0  0  0
  183.8380  178.6260  142.2000 C   0  0  0  0  0  0  0  0  0  0  0  0
  184.1560  178.6640  139.3870 N   0  0  0  0  0  2  0  0  0  0  0  0
  181.4310  178.8450  141.9290 C   0  0  0  0  0  3  0  0  0  0  0  0
  187.7300  178.2790  140.4240 C   0  0  0  0  0  0  0  0  0  0  0  0
  186.3220  178.3240  142.4030 C   0  0  0  0  0  3  0  0  0  0  0  0
  182.8060  178.4170  139.8900 C   0  0  0  0  0  2  0  0  0  0  0  0
  190.1230  177.5600  140.6290 C   0  0  0  0  0  2  0  0  0  0  0  0
  186.5900  178.4330  139.6190 C   0  0  0  0  0  0  0  0  0  0  0  0
  189.0910  178.2920  139.7830 C   0  0  0  0  0  2  0  0  0  0  0  0
  179.9940  179.1860  143.8720 N   0  0  0  0  0  1  0  0  0  0  0  0
  182.4100  178.9650  144.1380 C   0  0  0  0  0  3  0  0  0  0  0  0
  185.3190  178.5030  140.2060 C   0  0  0  0  0  0  0  0  0  0  0  0
  190.1530  178.1500  142.0290 C   0  0  0  0  0  2  0  0  0  0  0  0
  187.5930  178.2170  141.8280 C   0  0  0  0  0  0  0  0  0  0  0  0
  188.6770  176.8410  143.7040 C   0  0  2  0  0  3  0  0  0  0  0  0
  188.3140  175.6650  143.0430 O   0  0  0  0  0  1  0  0  0  0  0  0
  187.8500  177.0610  144.9780 C   0  0  0  0  0  2  0  0  0  0  0  0
  188.1400  177.9630  147.3550 N   0  0  0  0  0  0  0  0  0  0  0  0
  189.8270  176.7750  146.2600 O   0  0  0  0  0  0  0  0  0  0  0  0
  188.6670  177.2640  146.2170 C   0  0  0  0  0  0  0  0  0  0  0  0
  186.7220  178.2680  147.4650 C   0  0  0  0  0  1  0  0  0  0  0  0
  189.0010  178.2990  148.4760 C   0  0  0  0  0  1  0  0  0  0  0  0
  1 21  1  6  0  0  0
  2 17  1  0  0  0  0
  3 14  1  0  0  0  0
  4  9  2  0  0  0  0
  4  7  1  0  0  0  0
  5  7  1  0  0  0  0
  5 11  1  0  0  0  0
  6 16  1  0  0  0  0
  6 17  2  0  0  0  0
  7  2  2  0  0  0  0
  8 12  1  0  0  0  0
  8 18  1  0  0  0  0
  9  6  1  0  0  0  0
 10 20  1  0  0  0  0
 12  4  1  0  0  0  0
 13 19  1  0  0  0  0
 14 18  1  0  0  0  0
 14 10  2  0  0  0  0
 15 10  1  0  0  0  0
 15 13  1  0  0  0  0
 18  5  2  0  0  0  0
 19  1  1  0  0  0  0
 20 11  2  0  0  0  0
 20  1  1  0  0  0  0
 21 22  1  6  0  0  0
 21 23  1  0  0  0  0
 23 26  1  0  0  0  0
 24 27  1  0  0  0  0
 24 28  1  0  0  0  0
 26 25  2  0  0  0  0
 26 24  1  0  0  0  0
M  END
>  <MODEL>
4

>  <REMARK>
 VINA RESULT:      -8.9      2.421      5.774
  Name = 
  3 active torsions:
  status: ('A' for Active; 'I' for Inactive)
    1  A    between atoms: C_1  and  C_2
    2  A    between atoms: C_2  and  C_3
    3  A    between atoms: C_3  and  C_11
                            x       y       z     vdW  Elec       q    Type
                         _______ _______ _______ _____ _____    ______ ____

>  <TORSDO>
F 3

$$$$
=
 OpenBabel10262420513D

 28 31  0  0  1  0  0  0  0  0999 V2000
  184.3690  179.2160  143.0850 C   0  0  1  0  0  3  0  0  0  0  0  0
  188.4770  178.0180  140.0670 C   0  0  0  0  0  3  0  0  0  0  0  0
  187.8000  177.3100  146.1460 O   0  0  0  0  0  1  0  0  0  0  0  0
  189.9560  176.7980  141.5590 C   0  0  0  0  0  0  0  0  0  0  0  0
  187.8180  177.7260  142.4700 C   0  0  0  0  0  0  0  0  0  0  0  0
  190.5680  177.1280  139.2360 C   0  0  0  0  0  0  0  0  0  0  0  0
  188.7520  177.5020  141.3440 C   0  0  0  0  0  0  0  0  0  0  0  0
  189.4910  176.7530  143.9720 N   0  0  0  0  0  2  0  0  0  0  0  0
  190.8500  176.6060  140.5000 C   0  0  0  0  0  3  0  0  0  0  0  0
  186.1260  178.2380  144.6580 C   0  0  0  0  0  0  0  0  0  0  0  0
  186.5750  178.3380  142.2720 C   0  0  0  0  0  3  0  0  0  0  0  0
  190.2510  176.1480  142.8800 C   0  0  0  0  0  2  0  0  0  0  0  0
  183.8060  178.6810  145.4960 C   0  0  0  0  0  2  0  0  0  0  0  0
  187.3790  177.6370  144.8600 C   0  0  0  0  0  0  0  0  0  0  0  0
  185.2840  178.6040  145.8500 C   0  0  0  0  0  2  0  0  0  0  0  0
  191.4850  176.9340  138.1660 N   0  0  0  0  0  1  0  0  0  0  0  0
  189.3810  177.8310  139.0180 C   0  0  0  0  0  3  0  0  0  0  0  0
  188.2110  177.3620  143.7670 C   0  0  0  0  0  0  0  0  0  0  0  0
  183.6020  179.6510  144.3430 C   0  0  0  0  0  2  0  0  0  0  0  0
  185.7180  178.5850  143.3510 C   0  0  0  0  0  0  0  0  0  0  0  0
  183.5140  178.4720  142.0420 C   0  0  2  0  0  3  0  0  0  0  0  0
  183.6800  179.0030  140.7600 O   0  0  0  0  0  1  0  0  0  0  0  0
  182.0340  178.2530  142.3830 C   0  0  0  0  0  2  0  0  0  0  0  0
  180.5510  178.3950  140.3020 N   0  0  0  0  0  0  0  0  0  0  0  0
  180.7150  180.1500  141.8360 O   0  0  0  0  0  0  0  0  0  0  0  0
  181.0790  178.9930  141.4960 C   0  0  0  0  0  0  0  0  0  0  0  0
  180.6990  176.9720  140.0400 C   0  0  0  0  0  1  0  0  0  0  0  0
  179.7680  179.1850  139.3680 C   0  0  0  0  0  1  0  0  0  0  0  0
  1 21  1  1  0  0  0
  1 20  1  0  0  0  0
  1 19  1  0  0  0  0
  2  7  1  0  0  0  0
  4 12  1  0  0  0  0
  5 18  1  0  0  0  0
  6  9  2  0  0  0  0
  7  4  2  0  0  0  0
  7  5  1  0  0  0  0
  9  4  1  0  0  0  0
 10 14  1  0  0  0  0
 10 15  1  0  0  0  0
 11  5  2  0  0  0  0
 11 20  1  0  0  0  0
 12  8  1  0  0  0  0
 13 15  1  0  0  0  0
 14  3  1  0  0  0  0
 16  6  1  0  0  0  0
 17  6  1  0  0  0  0
 17  2  2  0  0  0  0
 18  8  1  0  0  0  0
 18 14  2  0  0  0  0
 19 13  1  0  0  0  0
 20 10  2  0  0  0  0
 21 22  1  6  0  0  0
 21 23  1  0  0  0  0
 24 26  1  0  0  0  0
 26 25  2  0  0  0  0
 26 23  1  0  0  0  0
 27 24  1  0  0  0  0
 28 24  1  0  0  0  0
M  END
>  <MODEL>
5

>  <REMARK>
 VINA RESULT:      -8.8      3.142      7.249
  Name = 
  3 active torsions:
  status: ('A' for Active; 'I' for Inactive)
    1  A    between atoms: C_1  and  C_2
    2  A    between atoms: C_2  and  C_3
    3  A    between atoms: C_3  and  C_11
                            x       y       z     vdW  Elec       q    Type
                         _______ _______ _______ _____ _____    ______ ____

>  <TORSDO>
F 3

$$$$
=
 OpenBabel10262420513D

 28 31  0  0  1  0  0  0  0  0999 V2000
  189.4630  177.0820  145.7030 C   0  0  1  0  0  3  0  0  0  0  0  0
  185.9890  177.8910  141.8690 C   0  0  0  0  0  3  0  0  0  0  0  0
  185.3360  178.7490  147.9310 O   0  0  0  0  0  1  0  0  0  0  0  0
  184.1440  179.0090  142.9850 C   0  0  0  0  0  0  0  0  0  0  0  0
  186.1110  178.2740  144.3450 C   0  0  0  0  0  0  0  0  0  0  0  0
  184.0530  178.5930  140.5980 C   0  0  0  0  0  0  0  0  0  0  0  0
  185.4170  178.4030  143.0450 C   0  0  0  0  0  0  0  0  0  0  0  0
  184.0940  179.1310  145.4390 N   0  0  0  0  0  2  0  0  0  0  0  0
  183.4760  179.1100  141.7600 C   0  0  0  0  0  3  0  0  0  0  0  0
  187.3480  177.9390  146.8490 C   0  0  0  0  0  0  0  0  0  0  0  0
  187.4120  177.7640  144.4270 C   0  0  0  0  0  3  0  0  0  0  0  0
  183.5320  179.6540  144.1960 C   0  0  0  0  0  2  0  0  0  0  0  0
  189.4710  177.7000  148.1600 C   0  0  0  0  0  2  0  0  0  0  0  0
  186.0380  178.4380  146.7700 C   0  0  0  0  0  0  0  0  0  0  0  0
  187.9510  177.6620  148.2000 C   0  0  0  0  0  2  0  0  0  0  0  0
  183.3650  178.6940  139.3580 N   0  0  0  0  0  1  0  0  0  0  0  0
  185.3100  177.9860  140.6520 C   0  0  0  0  0  3  0  0  0  0  0  0
  185.4310  178.6260  145.5210 C   0  0  0  0  0  0  0  0  0  0  0  0
  189.9830  176.7320  147.1060 C   0  0  0  0  0  2  0  0  0  0  0  0
  188.0430  177.6050  145.6660 C   0  0  0  0  0  0  0  0  0  0  0  0
  190.4550  177.8780  144.8330 C   0  0  2  0  0  3  0  0  0  0  0  0
  189.8420  178.9690  144.2120 O   0  0  0  0  0  1  0  0  0  0  0  0
  191.3210  177.0740  143.8540 C   0  0  0  0  0  2  0  0  0  0  0  0
  190.9580  177.0120  141.3220 N   0  0  0  0  0  0  0  0  0  0  0  0
  189.6560  175.7520  142.7970 O   0  0  0  0  0  0  0  0  0  0  0  0
  190.5890  176.5840  142.6420 C   0  0  0  0  0  0  0  0  0  0  0  0
  192.2060  177.7160  141.0760 C   0  0  0  0  0  1  0  0  0  0  0  0
  190.1310  176.6650  140.1780 C   0  0  0  0  0  1  0  0  0  0  0  0
  1 21  1  1  0  0  0
  1 19  1  0  0  0  0
  2  7  1  0  0  0  0
  4  7  2  0  0  0  0
  4 12  1  0  0  0  0
  5 11  2  0  0  0  0
  5 18  1  0  0  0  0
  6 17  1  0  0  0  0
  6  9  2  0  0  0  0
  7  5  1  0  0  0  0
  8 18  1  0  0  0  0
  9  4  1  0  0  0  0
 10 15  1  0  0  0  0
 11 20  1  0  0  0  0
 12  8  1  0  0  0  0
 13 15  1  0  0  0  0
 14 10  1  0  0  0  0
 14  3  1  0  0  0  0
 16  6  1  0  0  0  0
 17  2  2  0  0  0  0
 18 14  2  0  0  0  0
 19 13  1  0  0  0  0
 20  1  1  0  0  0  0
 20 10  2  0  0  0  0
 21 22  1  6  0  0  0
 23 21  1  0  0  0  0
 24 26  1  0  0  0  0
 26 25  2  0  0  0  0
 26 23  1  0  0  0  0
 27 24  1  0  0  0  0
 28 24  1  0  0  0  0
M  END
>  <MODEL>
6

>  <REMARK>
 VINA RESULT:      -8.8      1.581      2.258
  Name = 
  3 active torsions:
  status: ('A' for Active; 'I' for Inactive)
    1  A    between atoms: C_1  and  C_2
    2  A    between atoms: C_2  and  C_3
    3  A    between atoms: C_3  and  C_11
                            x       y       z     vdW  Elec       q    Type
                         _______ _______ _______ _____ _____    ______ ____

>  <TORSDO>
F 3

$$$$
=
 OpenBabel10262420513D

 28 31  0  0  1  0  0  0  0  0999 V2000
  186.9680  178.5920  146.5360 C   0  0  1  0  0  3  0  0  0  0  0  0
  188.4960  178.2740  141.5370 C   0  0  0  0  0  3  0  0  0  0  0  0
  191.6060  176.7880  146.6400 O   0  0  0  0  0  1  0  0  0  0  0  0
  190.6110  177.0840  141.6520 C   0  0  0  0  0  0  0  0  0  0  0  0
  189.4120  177.6260  143.7810 C   0  0  0  0  0  0  0  0  0  0  0  0
  189.7030  177.7550  139.5060 C   0  0  0  0  0  0  0  0  0  0  0  0
  189.4950  177.6520  142.3040 C   0  0  0  0  0  0  0  0  0  0  0  0
  191.6800  176.7020  143.8320 N   0  0  0  0  0  2  0  0  0  0  0  0
  190.7010  177.1290  140.2570 C   0  0  0  0  0  3  0  0  0  0  0  0
  189.3470  177.6650  146.5930 C   0  0  0  0  0  0  0  0  0  0  0  0
  188.2790  178.0960  144.4540 C   0  0  0  0  0  3  0  0  0  0  0  0
  191.6570  176.3270  142.4190 C   0  0  0  0  0  2  0  0  0  0  0  0
  187.9740  177.7150  148.6900 C   0  0  0  0  0  2  0  0  0  0  0  0
  190.4910  177.2060  145.9200 C   0  0  0  0  0  0  0  0  0  0  0  0
  189.3730  177.7830  148.0930 C   0  0  0  0  0  2  0  0  0  0  0  0
  189.8060  177.8020  138.0890 N   0  0  0  0  0  1  0  0  0  0  0  0
  188.6000  178.3240  140.1450 C   0  0  0  0  0  3  0  0  0  0  0  0
  190.5140  177.1660  144.5190 C   0  0  0  0  0  0  0  0  0  0  0  0
  187.0920  178.7790  148.0560 C   0  0  0  0  0  2  0  0  0  0  0  0
  188.2290  178.1080  145.8530 C   0  0  0  0  0  0  0  0  0  0  0  0
  185.6840  177.8720  146.0840 C   0  0  2  0  0  3  0  0  0  0  0  0
  185.9620  176.8020  145.2300 O   0  0  0  0  0  1  0  0  0  0  0  0
  184.5460  178.7520  145.5470 C   0  0  0  0  0  2  0  0  0  0  0  0
  183.2920  178.6790  143.3180 N   0  0  0  0  0  0  0  0  0  0  0  0
  185.5700  179.1810  143.4490 O   0  0  0  0  0  0  0  0  0  0  0  0
  184.5100  178.8710  144.0540 C   0  0  0  0  0  0  0  0  0  0  0  0
  182.0030  178.6280  143.9880 C   0  0  0  0  0  1  0  0  0  0  0  0
  183.3110  178.6280  141.8660 C   0  0  0  0  0  1  0  0  0  0  0  0
  1 21  1  1  0  0  0
  1 19  1  0  0  0  0
  2  7  1  0  0  0  0
  4  7  2  0  0  0  0
  4 12  1  0  0  0  0
  5 11  2  0  0  0  0
  5 18  1  0  0  0  0
  6 17  1  0  0  0  0
  6  9  2  0  0  0  0
  7  5  1  0  0  0  0
  8 18  1  0  0  0  0
  9  4  1  0  0  0  0
 10 15  1  0  0  0  0
 11 20  1  0  0  0  0
 12  8  1  0  0  0  0
 14 10  1  0  0  0  0
 14  3  1  0  0  0  0
 15 13  1  0  0  0  0
 16  6  1  0  0  0  0
 17  2  2  0  0  0  0
 18 14  2  0  0  0  0
 19 13  1  0  0  0  0
 20  1  1  0  0  0  0
 20 10  2  0  0  0  0
 21 22  1  6  0  0  0
 23 21  1  0  0  0  0
 24 27  1  0  0  0  0
 24 26  1  0  0  0  0
 25 26  2  0  0  0  0
 26 23  1  0  0  0  0
 28 24  1  0  0  0  0
M  END
>  <MODEL>
7

>  <REMARK>
 VINA RESULT:      -8.8      2.084      5.981
  Name = 
  3 active torsions:
  status: ('A' for Active; 'I' for Inactive)
    1  A    between atoms: C_1  and  C_2
    2  A    between atoms: C_2  and  C_3
    3  A    between atoms: C_3  and  C_11
                            x       y       z     vdW  Elec       q    Type
                         _______ _______ _______ _____ _____    ______ ____

>  <TORSDO>
F 3

$$$$
=
 OpenBabel10262420513D

 28 31  0  0  1  0  0  0  0  0999 V2000
  183.0200  178.6260  141.1540 C   0  0  1  0  0  3  0  0  0  0  0  0
  188.1550  177.8470  141.8210 C   0  0  0  0  0  3  0  0  0  0  0  0
  183.8060  178.8490  146.0630 O   0  0  0  0  0  1  0  0  0  0  0  0
  188.4010  177.6350  144.2290 C   0  0  0  0  0  0  0  0  0  0  0  0
  186.1350  178.1160  143.2840 C   0  0  0  0  0  0  0  0  0  0  0  0
  190.3330  177.4120  142.7810 C   0  0  0  0  0  0  0  0  0  0  0  0
  187.5790  177.8500  143.1020 C   0  0  0  0  0  0  0  0  0  0  0  0
  186.5130  178.1880  145.7030 N   0  0  0  0  0  2  0  0  0  0  0  0
  189.7700  177.4060  144.0600 C   0  0  0  0  0  3  0  0  0  0  0  0
  183.4190  178.7400  143.6730 C   0  0  0  0  0  0  0  0  0  0  0  0
  185.2740  178.2400  142.1860 C   0  0  0  0  0  3  0  0  0  0  0  0
  187.8180  177.5350  145.6090 C   0  0  0  0  0  2  0  0  0  0  0  0
  181.0780  178.7060  142.7790 C   0  0  0  0  0  2  0  0  0  0  0  0
  184.2830  178.6300  144.7750 C   0  0  0  0  0  0  0  0  0  0  0  0
  181.9980  179.1820  143.8930 C   0  0  0  0  0  2  0  0  0  0  0  0
  191.7270  177.1840  142.6170 N   0  0  0  0  0  1  0  0  0  0  0  0
  189.5260  177.6290  141.6620 C   0  0  0  0  0  3  0  0  0  0  0  0
  185.6310  178.2960  144.5810 C   0  0  0  0  0  0  0  0  0  0  0  0
  181.6120  179.1730  141.4350 C   0  0  0  0  0  2  0  0  0  0  0  0
  183.9190  178.5370  142.3680 C   0  0  0  0  0  0  0  0  0  0  0  0
  183.0520  177.3810  140.2460 C   0  0  2  0  0  3  0  0  0  0  0  0
  183.8900  177.5650  139.1430 O   0  0  0  0  0  1  0  0  0  0  0  0
  181.6990  176.7790  139.8440 C   0  0  0  0  0  2  0  0  0  0  0  0
  181.5010  176.0760  137.3910 N   0  0  0  0  0  0  0  0  0  0  0  0
  180.7450  178.1500  138.1570 O   0  0  0  0  0  0  0  0  0  0  0  0
  181.2990  177.0510  138.4260 C   0  0  0  0  0  0  0  0  0  0  0  0
  181.8460  174.6990  137.7070 C   0  0  0  0  0  1  0  0  0  0  0  0
  181.2680  176.4210  135.9990 C   0  0  0  0  0  1  0  0  0  0  0  0
  1 21  1  1  0  0  0
  1 19  1  0  0  0  0
  1 20  1  0  0  0  0
  2  7  1  0  0  0  0
  4 12  1  0  0  0  0
  5 18  1  0  0  0  0
  6  9  2  0  0  0  0
  7  5  1  0  0  0  0
  7  4  2  0  0  0  0
  9  4  1  0  0  0  0
 10 15  1  0  0  0  0
 10 14  1  0  0  0  0
 11 20  1  0  0  0  0
 11  5  2  0  0  0  0
 12  8  1  0  0  0  0
 13 15  1  0  0  0  0
 14  3  1  0  0  0  0
 16  6  1  0  0  0  0
 17  2  2  0  0  0  0
 17  6  1  0  0  0  0
 18 14  2  0  0  0  0
 18  8  1  0  0  0  0
 19 13  1  0  0  0  0
 20 10  2  0  0  0  0
 21 22  1  6  0  0  0
 23 21  1  0  0  0  0
 24 27  1  0  0  0  0
 24 26  1  0  0  0  0
 25 26  2  0  0  0  0
 26 23  1  0  0  0  0
 28 24  1  0  0  0  0
M  END
>  <MODEL>
8

>  <REMARK>
 VINA RESULT:      -8.7      3.993      7.413
  Name = 
  3 active torsions:
  status: ('A' for Active; 'I' for Inactive)
    1  A    between atoms: C_1  and  C_2
    2  A    between atoms: C_2  and  C_3
    3  A    between atoms: C_3  and  C_11
                            x       y       z     vdW  Elec       q    Type
                         _______ _______ _______ _____ _____    ______ ____

>  <TORSDO>
F 3

$$$$
=
 OpenBabel10262420513D

 28 31  0  0  1  0  0  0  0  0999 V2000
  190.7570  177.3740  141.8840 C   0  0  1  0  0  3  0  0  0  0  0  0
  186.1420  178.4700  144.1030 C   0  0  0  0  0  3  0  0  0  0  0  0
  187.6670  178.4640  138.1380 O   0  0  0  0  0  1  0  0  0  0  0  0
  184.6220  178.6570  142.2180 C   0  0  0  0  0  0  0  0  0  0  0  0
  187.0460  178.2200  141.7770 C   0  0  0  0  0  0  0  0  0  0  0  0
  183.7960  178.9210  144.4810 C   0  0  0  0  0  0  0  0  0  0  0  0
  185.9240  178.4370  142.7170 C   0  0  0  0  0  0  0  0  0  0  0  0
  185.5170  178.7180  139.9290 N   0  0  0  0  0  2  0  0  0  0  0  0
  183.5650  178.8860  143.1040 C   0  0  0  0  0  3  0  0  0  0  0  0
  189.1740  177.9310  139.9600 C   0  0  0  0  0  0  0  0  0  0  0  0
  188.3300  177.9070  142.2380 C   0  0  0  0  0  3  0  0  0  0  0  0
  184.3210  178.5390  140.7510 C   0  0  0  0  0  2  0  0  0  0  0  0
  191.4490  176.9950  139.4770 C   0  0  0  0  0  2  0  0  0  0  0  0
  187.8900  178.2590  139.4960 C   0  0  0  0  0  0  0  0  0  0  0  0
  190.3210  177.8900  138.9860 C   0  0  0  0  0  2  0  0  0  0  0  0
  182.7160  179.1600  145.3760 N   0  0  0  0  0  1  0  0  0  0  0  0
  185.0820  178.7100  144.9810 C   0  0  0  0  0  3  0  0  0  0  0  0
  186.8260  178.3800  140.4000 C   0  0  0  0  0  0  0  0  0  0  0  0
  191.8980  177.4440  140.8580 C   0  0  0  0  0  2  0  0  0  0  0  0
  189.3950  177.7470  141.3430 C   0  0  0  0  0  0  0  0  0  0  0  0
  190.7660  176.1110  142.7660 C   0  0  2  0  0  3  0  0  0  0  0  0
  189.4740  175.6400  143.0100 O   0  0  0  0  0  1  0  0  0  0  0  0
  191.6090  176.1630  144.0470 C   0  0  0  0  0  2  0  0  0  0  0  0
  191.1730  176.5470  146.5400 N   0  0  0  0  0  0  0  0  0  0  0  0
  190.2970  177.9520  144.8920 O   0  0  0  0  0  0  0  0  0  0  0  0
  190.9790  176.9310  145.1690 C   0  0  0  0  0  0  0  0  0  0  0  0
  192.1880  175.5770  146.9170 C   0  0  0  0  0  1  0  0  0  0  0  0
  190.4180  177.1950  147.5990 C   0  0  0  0  0  1  0  0  0  0  0  0
  1 21  1  6  0  0  0
  2 17  1  0  0  0  0
  3 14  1  0  0  0  0
  4  7  1  0  0  0  0
  4  9  2  0  0  0  0
  5 11  1  0  0  0  0
  5  7  1  0  0  0  0
  6 17  2  0  0  0  0
  6 16  1  0  0  0  0
  7  2  2  0  0  0  0
  8 18  1  0  0  0  0
  8 12  1  0  0  0  0
  9  6  1  0  0  0  0
 10 20  1  0  0  0  0
 12  4  1  0  0  0  0
 13 19  1  0  0  0  0
 14 10  2  0  0  0  0
 14 18  1  0  0  0  0
 15 13  1  0  0  0  0
 15 10  1  0  0  0  0
 18  5  2  0  0  0  0
 19  1  1  0  0  0  0
 20  1  1  0  0  0  0
 20 11  2  0  0  0  0
 21 22  1  1  0  0  0
 21 23  1  0  0  0  0
 23 26  1  0  0  0  0
 24 27  1  0  0  0  0
 24 28  1  0  0  0  0
 25 26  2  0  0  0  0
 26 24  1  0  0  0  0
M  END
>  <MODEL>
9

>  <REMARK>
 VINA RESULT:      -8.7      2.264      5.388
  Name = 
  3 active torsions:
  status: ('A' for Active; 'I' for Inactive)
    1  A    between atoms: C_1  and  C_2
    2  A    between atoms: C_2  and  C_3
    3  A    between atoms: C_3  and  C_11
                            x       y       z     vdW  Elec       q    Type
                         _______ _______ _______ _____ _____    ______ ____

>  <TORSDO>
F 3

$$$$
