=
 OpenBabel10262422083D

 43 48  0  0  1  0  0  0  0  0999 V2000
  190.6040  176.7220  147.0030 C   0  0  0  0  0  0  0  0  0  0  0  0
  188.5520  177.7040  143.1430 C   0  0  0  0  0  0  0  0  0  0  0  0
  190.4540  177.2770  141.0820 C   0  0  0  0  0  0  0  0  0  0  0  0
  188.6510  177.5240  145.2610 N   0  0  0  0  0  0  0  0  0  0  0  0
  192.0730  176.3190  145.1390 F   0  0  0  0  0  0  0  0  0  0  0  0
  191.5550  176.3090  147.8750 F   0  0  0  0  0  0  0  0  0  0  0  0
  189.8460  177.1330  144.7770 C   0  0  0  0  0  0  0  0  0  0  0  0
  189.3520  177.1410  147.4870 C   0  0  0  0  0  3  0  0  0  0  0  0
  190.8690  176.7180  145.6240 C   0  0  0  0  0  0  0  0  0  0  0  0
  190.7900  177.0150  142.3570 C   0  0  0  0  0  3  0  0  0  0  0  0
  189.8060  177.2440  143.4080 C   0  0  0  0  0  0  0  0  0  0  0  0
  187.8370  177.8810  144.2770 N   0  0  0  0  0  0  0  0  0  0  0  0
  188.1350  178.0110  141.8140 N   0  0  0  0  0  0  0  0  0  0  0  0
  189.0720  177.8190  140.6900 C   0  0  0  0  0  2  0  0  0  0  0  0
  188.3620  177.5510  146.5850 C   0  0  0  0  0  3  0  0  0  0  0  0
  191.4100  177.0460  140.0410 N   0  0  0  0  0  0  0  0  0  0  0  0
  192.9070  175.8370  136.9330 N   0  0  0  0  0  2  0  0  0  0  0  0
  191.1690  176.4220  138.7480 C   0  0  0  0  0  2  0  0  0  0  0  0
  192.7720  177.3300  140.1610 N   0  0  0  0  0  2  0  0  0  0  0  0
  192.5610  176.3930  138.2000 C   0  0  0  0  0  0  0  0  0  0  0  0
  193.4300  176.9100  139.0060 N   0  0  0  0  0  0  0  0  0  0  0  0
  194.2660  175.8830  136.4220 C   0  0  1  0  0  3  0  0  0  0  0  0
  195.6320  173.8020  136.8640 C   0  0  0  0  0  0  0  0  0  0  0  0
  194.7080  174.5430  136.0690 N   0  0  0  0  0  2  0  0  0  0  0  0
  196.0790  174.2860  137.9370 O   0  0  0  0  0  0  0  0  0  0  0  0
  196.0120  172.4210  136.4380 C   0  0  2  0  0  3  0  0  0  0  0  0
  195.4070  170.4890  137.9100 C   0  0  0  0  0  3  0  0  0  0  0  0
  193.7960  171.2580  136.1480 C   0  0  0  0  0  2  0  0  0  0  0  0
  194.2670  170.0930  137.0090 C   0  0  0  0  0  2  0  0  0  0  0  0
  194.9980  171.8680  135.4290 C   0  0  0  0  0  2  0  0  0  0  0  0
  196.2220  171.5150  137.6300 C   0  0  0  0  0  3  0  0  0  0  0  0
  194.3530  176.8200  135.2190 C   0  0  0  0  0  2  0  0  0  0  0  0
  196.1170  178.5430  134.9630 C   0  0  0  0  0  1  0  0  0  0  0  0
  195.7960  177.0740  134.8110 C   0  0  0  0  0  2  0  0  0  0  0  0
  186.8580  178.6600  141.5750 C   0  0  0  0  0  2  0  0  0  0  0  0
  186.4470  178.5070  140.1200 C   0  0  0  0  0  2  0  0  0  0  0  0
  183.2280  179.9590  139.1460 N   0  0  0  0  0  0  0  0  0  0  0  0
  182.6270  179.0830  139.9740 C   0  0  0  0  0  0  0  0  0  0  0  0
  180.5780  178.0870  141.0440 C   0  0  0  0  0  1  0  0  0  0  0  0
  185.0050  178.8440  139.9370 C   0  0  0  0  0  0  0  0  0  0  0  0
  184.5540  179.8270  139.1270 N   0  0  0  0  0  0  0  0  0  0  0  0
  181.2110  179.0400  140.1580 N   0  0  0  0  0  2  0  0  0  0  0  0
  183.7430  178.0750  140.7400 S   0  0  0  0  0  0  0  0  0  0  0  0
  1  8  1  0  0  0  0
  1  6  1  0  0  0  0
  2 11  1  0  0  0  0
  2 12  2  0  0  0  0
  3 10  2  0  0  0  0
  4 15  1  0  0  0  0
  5  9  1  0  0  0  0
  7  4  1  0  0  0  0
  7  9  1  0  0  0  0
  9  1  2  0  0  0  0
 10 11  1  0  0  0  0
 11  7  2  0  0  0  0
 12  4  1  0  0  0  0
 13  2  1  0  0  0  0
 14  3  1  0  0  0  0
 14 13  1  0  0  0  0
 15  8  2  0  0  0  0
 16 19  1  0  0  0  0
 16  3  1  0  0  0  0
 17 20  1  0  0  0  0
 18 16  1  0  0  0  0
 20 18  1  0  0  0  0
 20 21  2  0  0  0  0
 21 19  1  0  0  0  0
 22 32  1  6  0  0  0
 22 17  1  0  0  0  0
 23 25  2  0  0  0  0
 24 22  1  0  0  0  0
 24 23  1  0  0  0  0
 26 23  1  1  0  0  0
 26 31  1  0  0  0  0
 28 29  1  0  0  0  0
 29 27  1  0  0  0  0
 30 28  1  0  0  0  0
 30 26  1  0  0  0  0
 31 27  2  0  0  0  0
 34 33  1  0  0  0  0
 34 32  1  0  0  0  0
 35 13  1  0  0  0  0
 36 35  1  0  0  0  0
 37 38  2  0  0  0  0
 38 42  1  0  0  0  0
 38 43  1  0  0  0  0
 40 36  1  0  0  0  0
 40 43  1  0  0  0  0
 41 37  1  0  0  0  0
 41 40  2  0  0  0  0
 42 39  1  0  0  0  0
M  END
>  <MODEL>
1

>  <REMARK>
 VINA RESULT:      -9.3      0.000      0.000
  Name = 
  9 active torsions:
  status: ('A' for Active; 'I' for Inactive)
    1  A    between atoms: C_1  and  N_34
    2  A    between atoms: C_1  and  C_35
    3  A    between atoms: N_2  and  C_13
    4  A    between atoms: N_3  and  C_4
    5  A    between atoms: C_4  and  C_15
    6  A    between atoms: C_4  and  N_22
    7  A    between atoms: C_11  and  C_14
    8  A    between atoms: C_15  and  C_42
    9  A    between atoms: C_28  and  C_35
                            x       y       z     vdW  Elec       q    Type
                         _______ _______ _______ _____ _____    ______ ____

>  <TORSDO>
F 9

$$$$
=
 OpenBabel10262422083D

 43 48  0  0  1  0  0  0  0  0999 V2000
  188.5060  177.2950  147.5940 C   0  0  0  0  0  0  0  0  0  0  0  0
  189.3190  177.6290  143.2010 C   0  0  0  0  0  0  0  0  0  0  0  0
  186.8480  178.2780  141.9670 C   0  0  0  0  0  0  0  0  0  0  0  0
  189.8700  177.2530  145.2210 N   0  0  0  0  0  0  0  0  0  0  0  0
  186.5100  177.9350  146.4130 F   0  0  0  0  0  0  0  0  0  0  0  0
  187.8480  177.3310  148.7790 F   0  0  0  0  0  0  0  0  0  0  0  0
  188.5620  177.5740  145.2240 C   0  0  0  0  0  0  0  0  0  0  0  0
  189.8710  176.9560  147.5680 C   0  0  0  0  0  3  0  0  0  0  0  0
  187.8270  177.6080  146.4060 C   0  0  0  0  0  0  0  0  0  0  0  0
  186.9080  178.1590  143.3040 C   0  0  0  0  0  3  0  0  0  0  0  0
  188.1810  177.8190  143.9270 C   0  0  0  0  0  0  0  0  0  0  0  0
  190.3600  177.2790  143.9890 N   0  0  0  0  0  0  0  0  0  0  0  0
  189.3210  177.7310  141.7780 N   0  0  0  0  0  0  0  0  0  0  0  0
  188.0720  178.0610  141.0650 C   0  0  0  0  0  2  0  0  0  0  0  0
  190.5560  176.9370  146.3470 C   0  0  0  0  0  3  0  0  0  0  0  0
  185.6030  178.6210  141.3460 N   0  0  0  0  0  0  0  0  0  0  0  0
  182.0330  178.6740  140.5640 N   0  0  0  0  0  2  0  0  0  0  0  0
  184.2700  178.2160  141.7660 C   0  0  0  0  0  2  0  0  0  0  0  0
  185.5030  179.3570  140.1640 N   0  0  0  0  0  2  0  0  0  0  0  0
  183.4500  178.8070  140.6630 C   0  0  0  0  0  0  0  0  0  0  0  0
  184.1630  179.4400  139.7900 N   0  0  0  0  0  0  0  0  0  0  0  0
  181.2760  179.3140  139.5020 C   0  0  1  0  0  3  0  0  0  0  0  0
  181.2600  177.7650  137.5050 C   0  0  0  0  0  0  0  0  0  0  0  0
  180.6400  178.3050  138.6710 N   0  0  0  0  0  2  0  0  0  0  0  0
  182.4180  178.1330  137.1720 O   0  0  0  0  0  0  0  0  0  0  0  0
  180.5430  176.7130  136.7220 C   0  0  2  0  0  3  0  0  0  0  0  0
  181.8830  175.0490  135.4190 C   0  0  0  0  0  3  0  0  0  0  0  0
  181.2830  174.5610  137.8050 C   0  0  0  0  0  2  0  0  0  0  0  0
  181.6440  173.9740  136.4470 C   0  0  0  0  0  2  0  0  0  0  0  0
  180.1300  175.5490  137.6320 C   0  0  0  0  0  2  0  0  0  0  0  0
  181.3500  176.2730  135.5210 C   0  0  0  0  0  3  0  0  0  0  0  0
  180.2380  180.2700  140.0880 C   0  0  0  0  0  2  0  0  0  0  0  0
  181.4240  181.6920  138.4400 C   0  0  0  0  0  1  0  0  0  0  0  0
  180.2190  181.5970  139.3450 C   0  0  0  0  0  2  0  0  0  0  0  0
  190.5000  177.3580  141.0160 C   0  0  0  0  0  2  0  0  0  0  0  0
  190.2290  177.4730  139.5250 C   0  0  0  0  0  2  0  0  0  0  0  0
  191.2490  174.4530  137.7220 N   0  0  0  0  0  0  0  0  0  0  0  0
  192.4890  174.9710  137.6340 C   0  0  0  0  0  0  0  0  0  0  0  0
  194.8950  174.8610  136.9040 C   0  0  0  0  0  1  0  0  0  0  0  0
  190.9570  176.4140  138.7690 C   0  0  0  0  0  0  0  0  0  0  0  0
  190.3960  175.2560  138.3560 N   0  0  0  0  0  0  0  0  0  0  0  0
  193.5700  174.2870  136.9990 N   0  0  0  0  0  2  0  0  0  0  0  0
  192.5870  176.4930  138.3590 S   0  0  0  0  0  0  0  0  0  0  0  0
  1  6  1  0  0  0  0
  2 11  1  0  0  0  0
  2 12  2  0  0  0  0
  3 10  2  0  0  0  0
  4  7  1  0  0  0  0
  4 15  1  0  0  0  0
  7  9  1  0  0  0  0
  8  1  1  0  0  0  0
  9  5  1  0  0  0  0
  9  1  2  0  0  0  0
 10 11  1  0  0  0  0
 11  7  2  0  0  0  0
 12  4  1  0  0  0  0
 13  2  1  0  0  0  0
 14 13  1  0  0  0  0
 14  3  1  0  0  0  0
 15  8  2  0  0  0  0
 16 18  1  0  0  0  0
 16  3  1  0  0  0  0
 17 20  1  0  0  0  0
 19 16  1  0  0  0  0
 20 18  1  0  0  0  0
 21 19  1  0  0  0  0
 21 20  2  0  0  0  0
 22 32  1  1  0  0  0
 22 17  1  0  0  0  0
 23 24  1  0  0  0  0
 24 22  1  0  0  0  0
 25 23  2  0  0  0  0
 26 23  1  1  0  0  0
 26 30  1  0  0  0  0
 27 31  2  0  0  0  0
 27 29  1  0  0  0  0
 29 28  1  0  0  0  0
 30 28  1  0  0  0  0
 31 26  1  0  0  0  0
 33 34  1  0  0  0  0
 34 32  1  0  0  0  0
 35 13  1  0  0  0  0
 36 35  1  0  0  0  0
 37 41  1  0  0  0  0
 38 37  2  0  0  0  0
 38 43  1  0  0  0  0
 39 42  1  0  0  0  0
 40 36  1  0  0  0  0
 41 40  2  0  0  0  0
 42 38  1  0  0  0  0
 43 40  1  0  0  0  0
M  END
>  <MODEL>
2

>  <REMARK>
 VINA RESULT:      -9.2      3.738     10.050
  Name = 
  9 active torsions:
  status: ('A' for Active; 'I' for Inactive)
    1  A    between atoms: C_1  and  N_34
    2  A    between atoms: C_1  and  C_35
    3  A    between atoms: N_2  and  C_13
    4  A    between atoms: N_3  and  C_4
    5  A    between atoms: C_4  and  C_15
    6  A    between atoms: C_4  and  N_22
    7  A    between atoms: C_11  and  C_14
    8  A    between atoms: C_15  and  C_42
    9  A    between atoms: C_28  and  C_35
                            x       y       z     vdW  Elec       q    Type
                         _______ _______ _______ _____ _____    ______ ____

>  <TORSDO>
F 9

$$$$
=
 OpenBabel10262422083D

 43 48  0  0  1  0  0  0  0  0999 V2000
  189.3490  177.1840  146.8700 C   0  0  0  0  0  0  0  0  0  0  0  0
  190.2720  177.4920  142.4970 C   0  0  0  0  0  0  0  0  0  0  0  0
  187.8430  178.1790  141.2030 C   0  0  0  0  0  0  0  0  0  0  0  0
  190.7690  177.1130  144.5310 N   0  0  0  0  0  0  0  0  0  0  0  0
  187.3920  177.8540  145.6400 F   0  0  0  0  0  0  0  0  0  0  0  0
  188.6630  177.2340  148.0390 F   0  0  0  0  0  0  0  0  0  0  0  0
  189.4660  177.4560  144.5020 C   0  0  0  0  0  0  0  0  0  0  0  0
  190.7080  176.8220  146.8780 C   0  0  0  0  0  3  0  0  0  0  0  0
  188.7030  177.5050  145.6660 C   0  0  0  0  0  0  0  0  0  0  0  0
  187.8690  178.0620  142.5410 C   0  0  0  0  0  3  0  0  0  0  0  0
  189.1210  177.7030  143.1950 C   0  0  0  0  0  0  0  0  0  0  0  0
  191.2880  177.1270  143.3120 N   0  0  0  0  0  0  0  0  0  0  0  0
  190.3100  177.5910  141.0750 N   0  0  0  0  0  0  0  0  0  0  0  0
  189.0850  177.9390  140.3310 C   0  0  0  0  0  2  0  0  0  0  0  0
  191.4220  176.7880  145.6740 C   0  0  0  0  0  3  0  0  0  0  0  0
  186.6190  178.5410  140.5520 N   0  0  0  0  0  0  0  0  0  0  0  0
  183.0770  179.2660  140.0120 N   0  0  0  0  0  2  0  0  0  0  0  0
  185.3290  178.7880  141.1780 C   0  0  0  0  0  2  0  0  0  0  0  0
  186.4760  178.6340  139.1660 N   0  0  0  0  0  2  0  0  0  0  0  0
  184.4800  179.0080  139.9660 C   0  0  0  0  0  0  0  0  0  0  0  0
  185.1470  178.9220  138.8620 N   0  0  0  0  0  0  0  0  0  0  0  0
  182.3070  179.5280  138.8080 C   0  0  1  0  0  3  0  0  0  0  0  0
  181.0560  177.3800  138.3540 C   0  0  0  0  0  0  0  0  0  0  0  0
  181.0930  178.7290  138.8150 N   0  0  0  0  0  2  0  0  0  0  0  0
  182.1070  176.8170  137.9470 O   0  0  0  0  0  0  0  0  0  0  0  0
  179.7680  176.6240  138.4190 C   0  0  2  0  0  3  0  0  0  0  0  0
  179.8280  174.1640  138.8740 C   0  0  0  0  0  3  0  0  0  0  0  0
  179.6970  175.7760  140.7900 C   0  0  0  0  0  2  0  0  0  0  0  0
  179.3960  174.3650  140.3030 C   0  0  0  0  0  2  0  0  0  0  0  0
  179.1170  176.7830  139.7990 C   0  0  0  0  0  2  0  0  0  0  0  0
  179.9540  175.1800  138.0110 C   0  0  0  0  0  3  0  0  0  0  0  0
  181.9800  181.0160  138.6980 C   0  0  0  0  0  2  0  0  0  0  0  0
  179.9320  182.1700  137.9110 C   0  0  0  0  0  1  0  0  0  0  0  0
  181.0980  181.3060  137.4930 C   0  0  0  0  0  2  0  0  0  0  0  0
  191.5010  177.1950  140.3420 C   0  0  0  0  0  2  0  0  0  0  0  0
  191.1610  176.9110  138.8880 C   0  0  0  0  0  2  0  0  0  0  0  0
  194.3380  175.8850  137.3810 N   0  0  0  0  0  0  0  0  0  0  0  0
  193.7560  174.7190  137.0420 C   0  0  0  0  0  0  0  0  0  0  0  0
  193.8100  172.4350  135.9850 C   0  0  0  0  0  1  0  0  0  0  0  0
  192.2780  176.1890  138.2140 C   0  0  0  0  0  0  0  0  0  0  0  0
  193.5140  176.7050  138.0330 N   0  0  0  0  0  0  0  0  0  0  0  0
  194.4460  173.6870  136.3350 N   0  0  0  0  0  2  0  0  0  0  0  0
  192.1470  174.6490  137.5490 S   0  0  0  0  0  0  0  0  0  0  0  0
  1  8  1  0  0  0  0
  1  6  1  0  0  0  0
  2 11  1  0  0  0  0
  2 12  2  0  0  0  0
  3 10  2  0  0  0  0
  4 15  1  0  0  0  0
  5  9  1  0  0  0  0
  7  4  1  0  0  0  0
  7  9  1  0  0  0  0
  9  1  2  0  0  0  0
 10 11  1  0  0  0  0
 11  7  2  0  0  0  0
 12  4  1  0  0  0  0
 13  2  1  0  0  0  0
 14 13  1  0  0  0  0
 14  3  1  0  0  0  0
 15  8  2  0  0  0  0
 16 18  1  0  0  0  0
 16  3  1  0  0  0  0
 19 16  1  0  0  0  0
 20 17  1  0  0  0  0
 20 18  1  0  0  0  0
 21 19  1  0  0  0  0
 21 20  2  0  0  0  0
 22 32  1  1  0  0  0
 22 24  1  0  0  0  0
 22 17  1  0  0  0  0
 23 24  1  0  0  0  0
 25 23  2  0  0  0  0
 26 23  1  1  0  0  0
 26 30  1  0  0  0  0
 27 29  1  0  0  0  0
 29 28  1  0  0  0  0
 30 28  1  0  0  0  0
 31 26  1  0  0  0  0
 31 27  2  0  0  0  0
 34 33  1  0  0  0  0
 34 32  1  0  0  0  0
 35 13  1  0  0  0  0
 36 35  1  0  0  0  0
 37 41  1  0  0  0  0
 38 37  2  0  0  0  0
 38 43  1  0  0  0  0
 39 42  1  0  0  0  0
 40 36  1  0  0  0  0
 41 40  2  0  0  0  0
 42 38  1  0  0  0  0
 43 40  1  0  0  0  0
M  END
>  <MODEL>
3

>  <REMARK>
 VINA RESULT:      -9.2      3.419     10.387
  Name = 
  9 active torsions:
  status: ('A' for Active; 'I' for Inactive)
    1  A    between atoms: C_1  and  N_34
    2  A    between atoms: C_1  and  C_35
    3  A    between atoms: N_2  and  C_13
    4  A    between atoms: N_3  and  C_4
    5  A    between atoms: C_4  and  C_15
    6  A    between atoms: C_4  and  N_22
    7  A    between atoms: C_11  and  C_14
    8  A    between atoms: C_15  and  C_42
    9  A    between atoms: C_28  and  C_35
                            x       y       z     vdW  Elec       q    Type
                         _______ _______ _______ _____ _____    ______ ____

>  <TORSDO>
F 9

$$$$
=
 OpenBabel10262422083D

 43 48  0  0  1  0  0  0  0  0999 V2000
  189.2050  177.1850  147.4000 C   0  0  0  0  0  0  0  0  0  0  0  0
  189.6170  177.5360  142.9520 C   0  0  0  0  0  0  0  0  0  0  0  0
  187.0490  178.2070  141.9510 C   0  0  0  0  0  0  0  0  0  0  0  0
  190.3480  177.1460  144.9130 N   0  0  0  0  0  0  0  0  0  0  0  0
  187.1140  177.8440  146.4080 F   0  0  0  0  0  0  0  0  0  0  0  0
  188.6580  177.2190  148.6390 F   0  0  0  0  0  0  0  0  0  0  0  0
  189.0470  177.4760  145.0360 C   0  0  0  0  0  0  0  0  0  0  0  0
  190.5600  176.8370  147.2480 C   0  0  0  0  0  3  0  0  0  0  0  0
  188.4230  177.5080  146.2800 C   0  0  0  0  0  0  0  0  0  0  0  0
  187.2300  178.0810  143.2770 C   0  0  0  0  0  3  0  0  0  0  0  0
  188.5520  177.7290  143.7800 C   0  0  0  0  0  0  0  0  0  0  0  0
  190.7230  177.1750  143.6420 N   0  0  0  0  0  0  0  0  0  0  0  0
  189.4910  177.6460  141.5360 N   0  0  0  0  0  0  0  0  0  0  0  0
  188.1850  177.9870  140.9410 C   0  0  0  0  0  2  0  0  0  0  0  0
  191.1310  176.8200  145.9690 C   0  0  0  0  0  3  0  0  0  0  0  0
  185.7560  178.5610  141.4480 N   0  0  0  0  0  0  0  0  0  0  0  0
  182.1300  178.6280  140.9820 N   0  0  0  0  0  2  0  0  0  0  0  0
  184.4640  178.1490  141.9750 C   0  0  0  0  0  2  0  0  0  0  0  0
  185.5530  179.3180  140.2920 N   0  0  0  0  0  2  0  0  0  0  0  0
  183.5510  178.7590  140.9590 C   0  0  0  0  0  0  0  0  0  0  0  0
  184.1860  179.4080  140.0380 N   0  0  0  0  0  0  0  0  0  0  0  0
  181.2850  179.2870  140.0020 C   0  0  1  0  0  3  0  0  0  0  0  0
  181.1310  177.8680  137.9160 C   0  0  0  0  0  0  0  0  0  0  0  0
  180.6170  178.2930  139.1770 N   0  0  0  0  0  2  0  0  0  0  0  0
  182.2210  178.3290  137.4850 O   0  0  0  0  0  0  0  0  0  0  0  0
  180.3910  176.8230  137.1450 C   0  0  2  0  0  3  0  0  0  0  0  0
  181.6750  174.9330  136.1240 C   0  0  0  0  0  3  0  0  0  0  0  0
  180.7970  174.7140  138.4630 C   0  0  0  0  0  2  0  0  0  0  0  0
  181.2290  173.9790  137.2010 C   0  0  0  0  0  2  0  0  0  0  0  0
  179.7740  175.7870  138.0940 C   0  0  0  0  0  2  0  0  0  0  0  0
  181.2630  176.2060  136.0750 C   0  0  0  0  0  3  0  0  0  0  0  0
  180.2680  180.1910  140.6960 C   0  0  0  0  0  2  0  0  0  0  0  0
  180.6680  181.7210  138.7870 C   0  0  0  0  0  1  0  0  0  0  0  0
  179.6200  181.1580  139.7180 C   0  0  0  0  0  2  0  0  0  0  0  0
  190.5930  177.2690  140.6680 C   0  0  0  0  0  2  0  0  0  0  0  0
  190.2530  177.5630  139.2160 C   0  0  0  0  0  2  0  0  0  0  0  0
  190.7110  174.2950  137.6260 N   0  0  0  0  0  0  0  0  0  0  0  0
  189.5220  174.4680  137.0190 C   0  0  0  0  0  0  0  0  0  0  0  0
  187.6800  173.6980  135.4860 C   0  0  0  0  0  1  0  0  0  0  0  0
  190.1150  176.2990  138.4360 C   0  0  0  0  0  0  0  0  0  0  0  0
  191.0430  175.3170  138.4150 N   0  0  0  0  0  0  0  0  0  0  0  0
  188.9630  173.5040  136.1250 N   0  0  0  0  0  2  0  0  0  0  0  0
  188.8060  175.9360  137.4440 S   0  0  0  0  0  0  0  0  0  0  0  0
  1  6  1  0  0  0  0
  2 12  2  0  0  0  0
  2 11  1  0  0  0  0
  3 10  2  0  0  0  0
  4  7  1  0  0  0  0
  4 15  1  0  0  0  0
  7  9  1  0  0  0  0
  8  1  1  0  0  0  0
  9  5  1  0  0  0  0
  9  1  2  0  0  0  0
 10 11  1  0  0  0  0
 11  7  2  0  0  0  0
 12  4  1  0  0  0  0
 13  2  1  0  0  0  0
 14 13  1  0  0  0  0
 14  3  1  0  0  0  0
 15  8  2  0  0  0  0
 16  3  1  0  0  0  0
 16 18  1  0  0  0  0
 19 16  1  0  0  0  0
 20 17  1  0  0  0  0
 20 18  1  0  0  0  0
 21 19  1  0  0  0  0
 21 20  2  0  0  0  0
 22 32  1  1  0  0  0
 22 17  1  0  0  0  0
 23 24  1  0  0  0  0
 24 22  1  0  0  0  0
 25 23  2  0  0  0  0
 26 23  1  1  0  0  0
 26 30  1  0  0  0  0
 27 29  1  0  0  0  0
 29 28  1  0  0  0  0
 30 28  1  0  0  0  0
 31 27  2  0  0  0  0
 31 26  1  0  0  0  0
 33 34  1  0  0  0  0
 34 32  1  0  0  0  0
 35 13  1  0  0  0  0
 36 35  1  0  0  0  0
 37 41  1  0  0  0  0
 38 43  1  0  0  0  0
 38 37  2  0  0  0  0
 39 42  1  0  0  0  0
 40 36  1  0  0  0  0
 41 40  2  0  0  0  0
 42 38  1  0  0  0  0
 43 40  1  0  0  0  0
M  END
>  <MODEL>
4

>  <REMARK>
 VINA RESULT:      -9.1      4.378      9.809
  Name = 
  9 active torsions:
  status: ('A' for Active; 'I' for Inactive)
    1  A    between atoms: C_1  and  N_34
    2  A    between atoms: C_1  and  C_35
    3  A    between atoms: N_2  and  C_13
    4  A    between atoms: N_3  and  C_4
    5  A    between atoms: C_4  and  C_15
    6  A    between atoms: C_4  and  N_22
    7  A    between atoms: C_11  and  C_14
    8  A    between atoms: C_15  and  C_42
    9  A    between atoms: C_28  and  C_35
                            x       y       z     vdW  Elec       q    Type
                         _______ _______ _______ _____ _____    ______ ____

>  <TORSDO>
F 9

$$$$
=
 OpenBabel10262422083D

 43 48  0  0  1  0  0  0  0  0999 V2000
  195.1380  174.7810  136.5730 C   0  0  0  0  0  0  0  0  0  0  0  0
  191.1240  176.7020  137.0950 C   0  0  0  0  0  0  0  0  0  0  0  0
  190.7520  177.0570  139.8850 C   0  0  0  0  0  0  0  0  0  0  0  0
  192.6990  175.8530  135.9430 N   0  0  0  0  0  0  0  0  0  0  0  0
  194.7140  175.2320  138.8990 F   0  0  0  0  0  0  0  0  0  0  0  0
  196.3560  174.2660  136.8680 F   0  0  0  0  0  0  0  0  0  0  0  0
  193.0880  175.8090  137.2330 C   0  0  0  0  0  0  0  0  0  0  0  0
  194.7100  174.8300  135.2340 C   0  0  0  0  0  3  0  0  0  0  0  0
  194.3180  175.2730  137.6010 C   0  0  0  0  0  0  0  0  0  0  0  0
  191.9040  176.5340  139.4330 C   0  0  0  0  0  3  0  0  0  0  0  0
  192.0820  176.3510  137.9980 C   0  0  0  0  0  0  0  0  0  0  0  0
  191.4950  176.3960  135.8310 N   0  0  0  0  0  0  0  0  0  0  0  0
  189.8750  177.2520  137.5090 N   0  0  0  0  0  0  0  0  0  0  0  0
  189.6070  177.4610  138.9450 C   0  0  0  0  0  2  0  0  0  0  0  0
  193.4590  175.3790  134.9260 C   0  0  0  0  0  3  0  0  0  0  0  0
  190.5720  177.2490  141.2930 N   0  0  0  0  0  0  0  0  0  0  0  0
  191.1170  177.0610  144.9030 N   0  0  0  0  0  2  0  0  0  0  0  0
  191.4960  176.8860  142.3560 C   0  0  0  0  0  2  0  0  0  0  0  0
  189.4050  177.7630  141.8620 N   0  0  0  0  0  2  0  0  0  0  0  0
  190.6810  177.2500  143.5570 C   0  0  0  0  0  0  0  0  0  0  0  0
  189.5250  177.7410  143.2500 N   0  0  0  0  0  0  0  0  0  0  0  0
  190.3100  177.4830  146.0340 C   0  0  1  0  0  3  0  0  0  0  0  0
  187.8500  177.7130  146.5690 C   0  0  0  0  0  0  0  0  0  0  0  0
  188.9120  177.1620  145.7930 N   0  0  0  0  0  2  0  0  0  0  0  0
  188.0950  178.5380  147.4890 O   0  0  0  0  0  0  0  0  0  0  0  0
  186.4400  177.3460  146.2350 C   0  0  2  0  0  3  0  0  0  0  0  0
  184.7920  179.1700  145.7660 C   0  0  0  0  0  3  0  0  0  0  0  0
  186.1440  178.2080  143.8860 C   0  0  0  0  0  2  0  0  0  0  0  0
  184.8570  178.9180  144.2830 C   0  0  0  0  0  2  0  0  0  0  0  0
  186.3170  176.9630  144.7550 C   0  0  0  0  0  2  0  0  0  0  0  0
  185.4740  178.4320  146.6520 C   0  0  0  0  0  3  0  0  0  0  0  0
  190.8060  176.8230  147.3190 C   0  0  0  0  0  2  0  0  0  0  0  0
  192.8680  175.7530  148.1850 C   0  0  0  0  0  1  0  0  0  0  0  0
  191.8890  175.7930  147.0360 C   0  0  0  0  0  2  0  0  0  0  0  0
  188.8070  177.4580  136.5470 C   0  0  0  0  0  2  0  0  0  0  0  0
  187.9710  178.6680  136.9290 C   0  0  0  0  0  2  0  0  0  0  0  0
  184.6710  178.2050  138.4500 N   0  0  0  0  0  0  0  0  0  0  0  0
  184.3860  177.3250  137.4700 C   0  0  0  0  0  0  0  0  0  0  0  0
  182.8420  175.7020  136.3240 C   0  0  0  0  0  1  0  0  0  0  0  0
  186.5760  178.2650  137.2680 C   0  0  0  0  0  0  0  0  0  0  0  0
  185.8920  178.7270  138.3380 N   0  0  0  0  0  0  0  0  0  0  0  0
  183.1370  176.6380  137.3870 N   0  0  0  0  0  2  0  0  0  0  0  0
  185.6720  177.1510  136.3900 S   0  0  0  0  0  0  0  0  0  0  0  0
  1  6  1  0  0  0  0
  1  9  2  0  0  0  0
  2 13  1  0  0  0  0
  2 11  1  0  0  0  0
  3 16  1  0  0  0  0
  4  7  1  0  0  0  0
  7  9  1  0  0  0  0
  7 11  2  0  0  0  0
  8  1  1  0  0  0  0
  9  5  1  0  0  0  0
 10  3  2  0  0  0  0
 11 10  1  0  0  0  0
 12  4  1  0  0  0  0
 12  2  2  0  0  0  0
 13 14  1  0  0  0  0
 14  3  1  0  0  0  0
 15  8  2  0  0  0  0
 15  4  1  0  0  0  0
 16 19  1  0  0  0  0
 16 18  1  0  0  0  0
 17 22  1  0  0  0  0
 18 20  1  0  0  0  0
 19 21  1  0  0  0  0
 20 17  1  0  0  0  0
 21 20  2  0  0  0  0
 22 32  1  1  0  0  0
 23 25  2  0  0  0  0
 24 22  1  0  0  0  0
 24 23  1  0  0  0  0
 26 23  1  6  0  0  0
 26 31  1  0  0  0  0
 27 31  2  0  0  0  0
 28 29  1  0  0  0  0
 28 30  1  0  0  0  0
 29 27  1  0  0  0  0
 30 26  1  0  0  0  0
 34 32  1  0  0  0  0
 34 33  1  0  0  0  0
 35 36  1  0  0  0  0
 35 13  1  0  0  0  0
 36 40  1  0  0  0  0
 38 37  2  0  0  0  0
 39 42  1  0  0  0  0
 40 41  2  0  0  0  0
 41 37  1  0  0  0  0
 42 38  1  0  0  0  0
 43 40  1  0  0  0  0
 43 38  1  0  0  0  0
M  END
>  <MODEL>
5

>  <REMARK>
 VINA RESULT:      -8.9      3.697      9.448
  Name = 
  9 active torsions:
  status: ('A' for Active; 'I' for Inactive)
    1  A    between atoms: C_1  and  N_34
    2  A    between atoms: C_1  and  C_35
    3  A    between atoms: N_2  and  C_13
    4  A    between atoms: N_3  and  C_4
    5  A    between atoms: C_4  and  C_15
    6  A    between atoms: C_4  and  N_22
    7  A    between atoms: C_11  and  C_14
    8  A    between atoms: C_15  and  C_42
    9  A    between atoms: C_28  and  C_35
                            x       y       z     vdW  Elec       q    Type
                         _______ _______ _______ _____ _____    ______ ____

>  <TORSDO>
F 9

$$$$
=
 OpenBabel10262422083D

 43 48  0  0  1  0  0  0  0  0999 V2000
  188.7350  177.1890  147.5240 C   0  0  0  0  0  0  0  0  0  0  0  0
  189.1600  177.7120  143.0940 C   0  0  0  0  0  0  0  0  0  0  0  0
  186.5500  178.1650  142.0780 C   0  0  0  0  0  0  0  0  0  0  0  0
  189.9030  177.3350  145.0520 N   0  0  0  0  0  0  0  0  0  0  0  0
  186.6010  177.6750  146.5220 F   0  0  0  0  0  0  0  0  0  0  0  0
  188.1730  177.1330  148.7560 F   0  0  0  0  0  0  0  0  0  0  0  0
  188.5750  177.5350  145.1670 C   0  0  0  0  0  0  0  0  0  0  0  0
  190.1180  176.9770  147.3800 C   0  0  0  0  0  3  0  0  0  0  0  0
  187.9370  177.4700  146.4030 C   0  0  0  0  0  0  0  0  0  0  0  0
  186.7280  178.0160  143.4010 C   0  0  0  0  0  3  0  0  0  0  0  0
  188.0720  177.7780  143.9120 C   0  0  0  0  0  0  0  0  0  0  0  0
  190.2880  177.4380  143.7880 N   0  0  0  0  0  0  0  0  0  0  0  0
  189.0400  177.8520  141.6800 N   0  0  0  0  0  0  0  0  0  0  0  0
  187.7130  178.0850  141.0770 C   0  0  0  0  0  2  0  0  0  0  0  0
  190.7020  177.0530  146.1100 C   0  0  0  0  0  3  0  0  0  0  0  0
  185.2350  178.4090  141.5670 N   0  0  0  0  0  0  0  0  0  0  0  0
  182.5300  179.6290  139.4310 N   0  0  0  0  0  2  0  0  0  0  0  0
  184.8850  179.0190  140.2930 C   0  0  0  0  0  2  0  0  0  0  0  0
  184.0640  178.1540  142.2840 N   0  0  0  0  0  2  0  0  0  0  0  0
  183.3950  179.0740  140.4210 C   0  0  0  0  0  0  0  0  0  0  0  0
  182.9680  178.5810  141.5370 N   0  0  0  0  0  0  0  0  0  0  0  0
  181.0850  179.6080  139.5790 C   0  0  1  0  0  3  0  0  0  0  0  0
  180.6220  181.5520  138.0320 C   0  0  0  0  0  0  0  0  0  0  0  0
  180.5420  180.9300  139.3120 N   0  0  0  0  0  2  0  0  0  0  0  0
  181.1520  180.9460  137.0620 O   0  0  0  0  0  0  0  0  0  0  0  0
  180.0150  182.9040  137.8400 C   0  0  2  0  0  3  0  0  0  0  0  0
  181.2040  184.5760  136.4080 C   0  0  0  0  0  3  0  0  0  0  0  0
  179.5540  183.0020  135.3650 C   0  0  0  0  0  2  0  0  0  0  0  0
  180.2500  184.3530  135.2640 C   0  0  0  0  0  2  0  0  0  0  0  0
  178.9330  182.8610  136.7540 C   0  0  0  0  0  2  0  0  0  0  0  0
  181.0730  183.9540  137.5870 C   0  0  0  0  0  3  0  0  0  0  0  0
  180.4680  178.5670  138.6460 C   0  0  0  0  0  2  0  0  0  0  0  0
  180.0790  176.7720  140.3110 C   0  0  0  0  0  1  0  0  0  0  0  0
  179.4120  177.7360  139.3580 C   0  0  0  0  0  2  0  0  0  0  0  0
  190.1820  177.6080  140.8170 C   0  0  0  0  0  2  0  0  0  0  0  0
  189.8200  177.8770  139.3660 C   0  0  0  0  0  2  0  0  0  0  0  0
  190.4910  174.6670  137.7340 N   0  0  0  0  0  0  0  0  0  0  0  0
  189.2560  174.7240  137.2020 C   0  0  0  0  0  0  0  0  0  0  0  0
  187.4050  173.7790  135.7820 C   0  0  0  0  0  1  0  0  0  0  0  0
  189.7560  176.6060  138.5890 C   0  0  0  0  0  0  0  0  0  0  0  0
  190.7720  175.7170  138.5060 N   0  0  0  0  0  0  0  0  0  0  0  0
  188.7380  173.7090  136.3400 N   0  0  0  0  0  2  0  0  0  0  0  0
  188.4300  176.1170  137.6780 S   0  0  0  0  0  0  0  0  0  0  0  0
  1  6  1  0  0  0  0
  2 12  2  0  0  0  0
  2 11  1  0  0  0  0
  3 10  2  0  0  0  0
  4  7  1  0  0  0  0
  4 15  1  0  0  0  0
  7  9  1  0  0  0  0
  8  1  1  0  0  0  0
  9  5  1  0  0  0  0
  9  1  2  0  0  0  0
 10 11  1  0  0  0  0
 11  7  2  0  0  0  0
 12  4  1  0  0  0  0
 13  2  1  0  0  0  0
 14 13  1  0  0  0  0
 14  3  1  0  0  0  0
 15  8  2  0  0  0  0
 16  3  1  0  0  0  0
 16 19  1  0  0  0  0
 17 22  1  0  0  0  0
 17 20  1  0  0  0  0
 18 20  1  0  0  0  0
 18 16  1  0  0  0  0
 20 21  2  0  0  0  0
 21 19  1  0  0  0  0
 22 32  1  6  0  0  0
 23 24  1  0  0  0  0
 24 22  1  0  0  0  0
 25 23  2  0  0  0  0
 26 23  1  6  0  0  0
 27 31  2  0  0  0  0
 28 30  1  0  0  0  0
 29 28  1  0  0  0  0
 29 27  1  0  0  0  0
 30 26  1  0  0  0  0
 31 26  1  0  0  0  0
 32 34  1  0  0  0  0
 34 33  1  0  0  0  0
 35 13  1  0  0  0  0
 36 35  1  0  0  0  0
 37 41  1  0  0  0  0
 38 43  1  0  0  0  0
 38 37  2  0  0  0  0
 39 42  1  0  0  0  0
 40 36  1  0  0  0  0
 41 40  2  0  0  0  0
 42 38  1  0  0  0  0
 43 40  1  0  0  0  0
M  END
>  <MODEL>
6

>  <REMARK>
 VINA RESULT:      -8.9      4.665     10.992
  Name = 
  9 active torsions:
  status: ('A' for Active; 'I' for Inactive)
    1  A    between atoms: C_1  and  N_34
    2  A    between atoms: C_1  and  C_35
    3  A    between atoms: N_2  and  C_13
    4  A    between atoms: N_3  and  C_4
    5  A    between atoms: C_4  and  C_15
    6  A    between atoms: C_4  and  N_22
    7  A    between atoms: C_11  and  C_14
    8  A    between atoms: C_15  and  C_42
    9  A    between atoms: C_28  and  C_35
                            x       y       z     vdW  Elec       q    Type
                         _______ _______ _______ _____ _____    ______ ____

>  <TORSDO>
F 9

$$$$
=
 OpenBabel10262422083D

 43 48  0  0  1  0  0  0  0  0999 V2000
  190.1980  176.9370  147.3680 C   0  0  0  0  0  0  0  0  0  0  0  0
  187.5850  177.9380  143.8690 C   0  0  0  0  0  0  0  0  0  0  0  0
  189.1130  177.4050  141.5380 C   0  0  0  0  0  0  0  0  0  0  0  0
  188.0180  177.7870  145.9460 N   0  0  0  0  0  0  0  0  0  0  0  0
  191.3300  176.4480  145.3020 F   0  0  0  0  0  0  0  0  0  0  0  0
  191.2620  176.5010  148.0850 F   0  0  0  0  0  0  0  0  0  0  0  0
  189.1050  177.3420  145.2850 C   0  0  0  0  0  0  0  0  0  0  0  0
  189.0560  177.4120  148.0380 C   0  0  0  0  0  3  0  0  0  0  0  0
  190.2360  176.9010  145.9650 C   0  0  0  0  0  0  0  0  0  0  0  0
  189.6400  177.1500  142.7470 C   0  0  0  0  0  3  0  0  0  0  0  0
  188.8490  177.4330  143.9380 C   0  0  0  0  0  0  0  0  0  0  0  0
  187.0700  178.1600  145.0990 N   0  0  0  0  0  0  0  0  0  0  0  0
  186.9700  178.2400  142.6170 N   0  0  0  0  0  0  0  0  0  0  0  0
  187.7050  177.9940  141.3620 C   0  0  0  0  0  2  0  0  0  0  0  0
  187.9490  177.8450  147.2990 C   0  0  0  0  0  3  0  0  0  0  0  0
  189.8790  177.1210  140.3620 N   0  0  0  0  0  0  0  0  0  0  0  0
  190.8820  175.6690  137.1600 N   0  0  0  0  0  2  0  0  0  0  0  0
  189.4600  176.3410  139.2070 C   0  0  0  0  0  2  0  0  0  0  0  0
  191.2100  177.5060  140.1910 N   0  0  0  0  0  2  0  0  0  0  0  0
  190.7270  176.3410  138.4090 C   0  0  0  0  0  0  0  0  0  0  0  0
  191.6800  177.0020  138.9800 N   0  0  0  0  0  0  0  0  0  0  0  0
  192.1160  175.7460  136.3980 C   0  0  1  0  0  3  0  0  0  0  0  0
  194.1430  174.6900  137.4760 C   0  0  0  0  0  0  0  0  0  0  0  0
  192.9540  174.5960  136.6950 N   0  0  0  0  0  2  0  0  0  0  0  0
  194.4950  175.7950  137.9690 O   0  0  0  0  0  0  0  0  0  0  0  0
  194.9310  173.4510  137.7530 C   0  0  2  0  0  3  0  0  0  0  0  0
  196.6290  172.6940  136.0770 C   0  0  0  0  0  3  0  0  0  0  0  0
  197.3070  174.2790  137.8980 C   0  0  0  0  0  2  0  0  0  0  0  0
  197.7670  173.2060  136.9210 C   0  0  0  0  0  2  0  0  0  0  0  0
  196.1080  173.7570  138.6890 C   0  0  0  0  0  2  0  0  0  0  0  0
  195.3510  172.7660  136.4720 C   0  0  0  0  0  3  0  0  0  0  0  0
  191.8150  175.8290  134.9020 C   0  0  0  0  0  2  0  0  0  0  0  0
  189.3860  175.4380  134.5990 C   0  0  0  0  0  1  0  0  0  0  0  0
  190.4710  176.4890  134.6390 C   0  0  0  0  0  2  0  0  0  0  0  0
  185.6950  178.9350  142.5730 C   0  0  0  0  0  2  0  0  0  0  0  0
  184.6480  178.0810  141.8770 C   0  0  0  0  0  2  0  0  0  0  0  0
  184.0110  180.1860  138.9480 N   0  0  0  0  0  0  0  0  0  0  0  0
  182.7190  179.8110  139.0080 C   0  0  0  0  0  0  0  0  0  0  0  0
  180.3490  179.8660  138.1610 C   0  0  0  0  0  1  0  0  0  0  0  0
  184.0580  178.8080  140.7160 C   0  0  0  0  0  0  0  0  0  0  0  0
  184.7570  179.6290  139.9000 N   0  0  0  0  0  0  0  0  0  0  0  0
  181.7330  180.2850  138.0890 N   0  0  0  0  0  2  0  0  0  0  0  0
  182.4340  178.7400  140.2810 S   0  0  0  0  0  0  0  0  0  0  0  0
  1  8  1  0  0  0  0
  1  6  1  0  0  0  0
  2 11  1  0  0  0  0
  2 12  2  0  0  0  0
  3 10  2  0  0  0  0
  4 15  1  0  0  0  0
  5  9  1  0  0  0  0
  7  4  1  0  0  0  0
  7  9  1  0  0  0  0
  9  1  2  0  0  0  0
 10 11  1  0  0  0  0
 11  7  2  0  0  0  0
 12  4  1  0  0  0  0
 13  2  1  0  0  0  0
 14  3  1  0  0  0  0
 14 13  1  0  0  0  0
 15  8  2  0  0  0  0
 16  3  1  0  0  0  0
 17 20  1  0  0  0  0
 18 16  1  0  0  0  0
 19 16  1  0  0  0  0
 20 21  2  0  0  0  0
 20 18  1  0  0  0  0
 21 19  1  0  0  0  0
 22 32  1  6  0  0  0
 22 24  1  0  0  0  0
 22 17  1  0  0  0  0
 23 25  2  0  0  0  0
 24 23  1  0  0  0  0
 26 23  1  6  0  0  0
 26 30  1  0  0  0  0
 27 31  2  0  0  0  0
 27 29  1  0  0  0  0
 28 30  1  0  0  0  0
 29 28  1  0  0  0  0
 31 26  1  0  0  0  0
 33 34  1  0  0  0  0
 34 32  1  0  0  0  0
 35 13  1  0  0  0  0
 36 35  1  0  0  0  0
 37 38  2  0  0  0  0
 37 41  1  0  0  0  0
 38 43  1  0  0  0  0
 40 36  1  0  0  0  0
 41 40  2  0  0  0  0
 42 39  1  0  0  0  0
 42 38  1  0  0  0  0
 43 40  1  0  0  0  0
M  END
>  <MODEL>
7

>  <REMARK>
 VINA RESULT:      -8.7      1.809      2.438
  Name = 
  9 active torsions:
  status: ('A' for Active; 'I' for Inactive)
    1  A    between atoms: C_1  and  N_34
    2  A    between atoms: C_1  and  C_35
    3  A    between atoms: N_2  and  C_13
    4  A    between atoms: N_3  and  C_4
    5  A    between atoms: C_4  and  C_15
    6  A    between atoms: C_4  and  N_22
    7  A    between atoms: C_11  and  C_14
    8  A    between atoms: C_15  and  C_42
    9  A    between atoms: C_28  and  C_35
                            x       y       z     vdW  Elec       q    Type
                         _______ _______ _______ _____ _____    ______ ____

>  <TORSDO>
F 9

$$$$
=
 OpenBabel10262422083D

 43 48  0  0  1  0  0  0  0  0999 V2000
  186.5380  177.3310  135.7970 C   0  0  0  0  0  0  0  0  0  0  0  0
  190.6830  176.7120  137.3790 C   0  0  0  0  0  0  0  0  0  0  0  0
  190.5400  177.0770  140.1890 C   0  0  0  0  0  0  0  0  0  0  0  0
  189.2300  176.8420  135.8300 N   0  0  0  0  0  0  0  0  0  0  0  0
  186.5620  177.5200  138.1960 F   0  0  0  0  0  0  0  0  0  0  0  0
  185.2010  177.5530  135.7670 F   0  0  0  0  0  0  0  0  0  0  0  0
  188.5840  177.0550  136.9930 C   0  0  0  0  0  0  0  0  0  0  0  0
  187.2330  177.1130  134.5940 C   0  0  0  0  0  3  0  0  0  0  0  0
  187.2160  177.3090  137.0260 C   0  0  0  0  0  0  0  0  0  0  0  0
  189.4190  177.1620  139.4540 C   0  0  0  0  0  3  0  0  0  0  0  0
  189.5050  176.9790  138.0100 C   0  0  0  0  0  0  0  0  0  0  0  0
  190.5220  176.6290  136.0390 N   0  0  0  0  0  0  0  0  0  0  0  0
  191.9110  176.6180  138.1000 N   0  0  0  0  0  0  0  0  0  0  0  0
  191.9160  176.8020  139.5640 C   0  0  0  0  0  2  0  0  0  0  0  0
  188.6100  176.8650  134.6250 C   0  0  0  0  0  3  0  0  0  0  0  0
  190.4650  177.2460  141.6100 N   0  0  0  0  0  0  0  0  0  0  0  0
  191.1480  176.8380  145.1780 N   0  0  0  0  0  2  0  0  0  0  0  0
  191.3660  176.6940  142.6100 C   0  0  0  0  0  2  0  0  0  0  0  0
  189.4320  177.9270  142.2560 N   0  0  0  0  0  2  0  0  0  0  0  0
  190.6850  177.1460  143.8640 C   0  0  0  0  0  0  0  0  0  0  0  0
  189.6150  177.8350  143.6350 N   0  0  0  0  0  0  0  0  0  0  0  0
  190.4820  177.3470  146.3630 C   0  0  1  0  0  3  0  0  0  0  0  0
  188.1100  177.8090  147.1040 C   0  0  0  0  0  0  0  0  0  0  0  0
  189.0440  177.1680  146.2380 N   0  0  0  0  0  2  0  0  0  0  0  0
  188.5110  178.5930  148.0050 O   0  0  0  0  0  0  0  0  0  0  0  0
  186.6480  177.5870  146.8880 C   0  0  2  0  0  3  0  0  0  0  0  0
  185.2550  179.4680  146.0020 C   0  0  0  0  0  3  0  0  0  0  0  0
  186.3640  177.8880  144.4020 C   0  0  0  0  0  2  0  0  0  0  0  0
  185.2110  178.8570  144.6260 C   0  0  0  0  0  2  0  0  0  0  0  0
  186.4010  176.8790  145.5500 C   0  0  0  0  0  2  0  0  0  0  0  0
  185.8670  178.8740  147.0350 C   0  0  0  0  0  3  0  0  0  0  0  0
  191.0110  176.6490  147.6150 C   0  0  0  0  0  2  0  0  0  0  0  0
  193.2140  175.6310  148.1170 C   0  0  0  0  0  1  0  0  0  0  0  0
  191.9730  175.5250  147.2630 C   0  0  0  0  0  2  0  0  0  0  0  0
  193.1730  176.5040  137.3910 C   0  0  0  0  0  2  0  0  0  0  0  0
  193.5550  175.0440  137.2140 C   0  0  0  0  0  2  0  0  0  0  0  0
  196.6820  174.8990  139.1160 N   0  0  0  0  0  0  0  0  0  0  0  0
  197.2300  174.2220  138.0880 C   0  0  0  0  0  0  0  0  0  0  0  0
  199.1600  173.0430  136.9830 C   0  0  0  0  0  1  0  0  0  0  0  0
  194.9390  174.7930  137.7080 C   0  0  0  0  0  0  0  0  0  0  0  0
  195.4060  175.2190  138.9040 N   0  0  0  0  0  0  0  0  0  0  0  0
  198.5870  173.7770  138.0910 N   0  0  0  0  0  2  0  0  0  0  0  0
  196.1250  173.9820  136.8340 S   0  0  0  0  0  0  0  0  0  0  0  0
  1  9  2  0  0  0  0
  2 11  1  0  0  0  0
  2 13  1  0  0  0  0
  3 16  1  0  0  0  0
  4 12  1  0  0  0  0
  4  7  1  0  0  0  0
  6  1  1  0  0  0  0
  7  9  1  0  0  0  0
  7 11  2  0  0  0  0
  8 15  2  0  0  0  0
  8  1  1  0  0  0  0
  9  5  1  0  0  0  0
 10  3  2  0  0  0  0
 11 10  1  0  0  0  0
 12  2  2  0  0  0  0
 13 14  1  0  0  0  0
 14  3  1  0  0  0  0
 15  4  1  0  0  0  0
 16 19  1  0  0  0  0
 16 18  1  0  0  0  0
 17 22  1  0  0  0  0
 18 20  1  0  0  0  0
 19 21  1  0  0  0  0
 20 17  1  0  0  0  0
 21 20  2  0  0  0  0
 22 32  1  1  0  0  0
 23 25  2  0  0  0  0
 24 22  1  0  0  0  0
 24 23  1  0  0  0  0
 26 31  1  0  0  0  0
 26 23  1  6  0  0  0
 27 31  2  0  0  0  0
 28 29  1  0  0  0  0
 28 30  1  0  0  0  0
 29 27  1  0  0  0  0
 30 26  1  0  0  0  0
 34 32  1  0  0  0  0
 34 33  1  0  0  0  0
 35 13  1  0  0  0  0
 36 35  1  0  0  0  0
 36 40  1  0  0  0  0
 38 42  1  0  0  0  0
 38 37  2  0  0  0  0
 39 42  1  0  0  0  0
 40 41  2  0  0  0  0
 41 37  1  0  0  0  0
 43 40  1  0  0  0  0
 43 38  1  0  0  0  0
M  END
>  <MODEL>
8

>  <REMARK>
 VINA RESULT:      -8.7      4.826     11.344
  Name = 
  9 active torsions:
  status: ('A' for Active; 'I' for Inactive)
    1  A    between atoms: C_1  and  N_34
    2  A    between atoms: C_1  and  C_35
    3  A    between atoms: N_2  and  C_13
    4  A    between atoms: N_3  and  C_4
    5  A    between atoms: C_4  and  C_15
    6  A    between atoms: C_4  and  N_22
    7  A    between atoms: C_11  and  C_14
    8  A    between atoms: C_15  and  C_42
    9  A    between atoms: C_28  and  C_35
                            x       y       z     vdW  Elec       q    Type
                         _______ _______ _______ _____ _____    ______ ____

>  <TORSDO>
F 9

$$$$
=
 OpenBabel10262422083D

 43 48  0  0  1  0  0  0  0  0999 V2000
  189.4380  177.1480  147.4400 C   0  0  0  0  0  0  0  0  0  0  0  0
  186.5780  178.3380  144.2030 C   0  0  0  0  0  0  0  0  0  0  0  0
  187.9220  177.9190  141.7400 C   0  0  0  0  0  0  0  0  0  0  0  0
  187.1650  178.0790  146.2320 N   0  0  0  0  0  0  0  0  0  0  0  0
  190.4090  176.7620  145.2720 F   0  0  0  0  0  0  0  0  0  0  0  0
  190.5510  176.6720  148.0510 F   0  0  0  0  0  0  0  0  0  0  0  0
  188.1950  177.6640  145.4690 C   0  0  0  0  0  0  0  0  0  0  0  0
  188.3540  177.5930  148.2180 C   0  0  0  0  0  3  0  0  0  0  0  0
  189.3710  177.1850  146.0380 C   0  0  0  0  0  0  0  0  0  0  0  0
  188.5370  177.6010  142.8910 C   0  0  0  0  0  3  0  0  0  0  0  0
  187.8390  177.8260  144.1510 C   0  0  0  0  0  0  0  0  0  0  0  0
  186.1580  178.4990  145.4790 N   0  0  0  0  0  0  0  0  0  0  0  0
  185.8730  178.7060  143.0190 N   0  0  0  0  0  0  0  0  0  0  0  0
  186.5100  178.5230  141.7010 C   0  0  0  0  0  2  0  0  0  0  0  0
  187.1980  178.0680  147.5870 C   0  0  0  0  0  3  0  0  0  0  0  0
  188.5950  177.6930  140.4960 N   0  0  0  0  0  0  0  0  0  0  0  0
  190.6870  176.1360  137.9350 N   0  0  0  0  0  2  0  0  0  0  0  0
  189.3200  176.4970  140.0930 C   0  0  0  0  0  2  0  0  0  0  0  0
  188.7160  178.6570  139.4930 N   0  0  0  0  0  2  0  0  0  0  0  0
  189.8540  176.9410  138.7680 C   0  0  0  0  0  0  0  0  0  0  0  0
  189.4970  178.1440  138.4580 N   0  0  0  0  0  0  0  0  0  0  0  0
  191.1340  176.5920  136.6300 C   0  0  1  0  0  3  0  0  0  0  0  0
  193.5330  175.8480  136.3470 C   0  0  0  0  0  0  0  0  0  0  0  0
  192.1380  175.6810  136.1040 N   0  0  0  0  0  2  0  0  0  0  0  0
  193.9440  176.7960  137.0680 O   0  0  0  0  0  0  0  0  0  0  0  0
  194.4930  174.8490  135.7870 C   0  0  2  0  0  3  0  0  0  0  0  0
  196.8690  174.8780  136.5750 C   0  0  0  0  0  3  0  0  0  0  0  0
  195.1740  173.4910  137.7970 C   0  0  0  0  0  2  0  0  0  0  0  0
  196.6460  173.6750  137.4530 C   0  0  0  0  0  2  0  0  0  0  0  0
  194.3540  173.5030  136.5090 C   0  0  0  0  0  2  0  0  0  0  0  0
  195.9080  175.3830  135.7890 C   0  0  0  0  0  3  0  0  0  0  0  0
  189.9500  176.7110  135.6720 C   0  0  0  0  0  2  0  0  0  0  0  0
  187.9850  175.2350  135.9960 C   0  0  0  0  0  1  0  0  0  0  0  0
  189.3480  175.3500  135.3560 C   0  0  0  0  0  2  0  0  0  0  0  0
  184.6040  179.4070  143.1070 C   0  0  0  0  0  2  0  0  0  0  0  0
  183.4530  178.4170  143.1750 C   0  0  0  0  0  2  0  0  0  0  0  0
  180.2770  180.1010  142.4730 N   0  0  0  0  0  0  0  0  0  0  0  0
  180.3760  179.6730  141.2000 C   0  0  0  0  0  0  0  0  0  0  0  0
  179.5140  179.5020  138.8420 C   0  0  0  0  0  1  0  0  0  0  0  0
  182.2220  178.9890  142.5560 C   0  0  0  0  0  0  0  0  0  0  0  0
  181.3040  179.7180  143.2300 N   0  0  0  0  0  0  0  0  0  0  0  0
  179.3890  179.9610  140.2080 N   0  0  0  0  0  2  0  0  0  0  0  0
  181.7840  178.7770  140.9470 S   0  0  0  0  0  0  0  0  0  0  0  0
  1  6  1  0  0  0  0
  1  8  1  0  0  0  0
  2 12  2  0  0  0  0
  3 10  2  0  0  0  0
  4 15  1  0  0  0  0
  5  9  1  0  0  0  0
  7  9  1  0  0  0  0
  7  4  1  0  0  0  0
  9  1  2  0  0  0  0
 10 11  1  0  0  0  0
 11  2  1  0  0  0  0
 11  7  2  0  0  0  0
 12  4  1  0  0  0  0
 13 35  1  0  0  0  0
 13  2  1  0  0  0  0
 14  3  1  0  0  0  0
 14 13  1  0  0  0  0
 15  8  2  0  0  0  0
 16  3  1  0  0  0  0
 17 20  1  0  0  0  0
 18 16  1  0  0  0  0
 19 16  1  0  0  0  0
 20 18  1  0  0  0  0
 21 20  2  0  0  0  0
 21 19  1  0  0  0  0
 22 32  1  6  0  0  0
 22 17  1  0  0  0  0
 23 25  2  0  0  0  0
 24 23  1  0  0  0  0
 24 22  1  0  0  0  0
 26 31  1  0  0  0  0
 26 23  1  1  0  0  0
 26 30  1  0  0  0  0
 27 29  1  0  0  0  0
 29 28  1  0  0  0  0
 30 28  1  0  0  0  0
 31 27  2  0  0  0  0
 34 32  1  0  0  0  0
 34 33  1  0  0  0  0
 35 36  1  0  0  0  0
 37 41  1  0  0  0  0
 38 37  2  0  0  0  0
 39 42  1  0  0  0  0
 40 36  1  0  0  0  0
 40 41  2  0  0  0  0
 42 38  1  0  0  0  0
 43 38  1  0  0  0  0
 43 40  1  0  0  0  0
M  END
>  <MODEL>
9

>  <REMARK>
 VINA RESULT:      -8.4      2.185      3.417
  Name = 
  9 active torsions:
  status: ('A' for Active; 'I' for Inactive)
    1  A    between atoms: C_1  and  N_34
    2  A    between atoms: C_1  and  C_35
    3  A    between atoms: N_2  and  C_13
    4  A    between atoms: N_3  and  C_4
    5  A    between atoms: C_4  and  C_15
    6  A    between atoms: C_4  and  N_22
    7  A    between atoms: C_11  and  C_14
    8  A    between atoms: C_15  and  C_42
    9  A    between atoms: C_28  and  C_35
                            x       y       z     vdW  Elec       q    Type
                         _______ _______ _______ _____ _____    ______ ____

>  <TORSDO>
F 9

$$$$
