=
 OpenBabel10262420033D

 27 32  0  0  1  0  0  0  0  0999 V2000
  184.5700  179.2500  139.7390 C   0  0  0  0  0  2  0  0  0  0  0  0
  184.6410  178.3490  142.1460 C   0  0  0  0  0  0  0  0  0  0  0  0
  186.9460  177.4190  141.7760 C   0  0  2  0  0  3  0  0  0  0  0  0
  185.2990  179.2400  146.3110 C   0  0  0  0  0  3  0  0  0  0  0  0
  187.2800  177.9110  147.1010 C   0  0  0  0  0  3  0  0  0  0  0  0
  183.7920  179.0200  142.9260 C   0  0  0  0  0  3  0  0  0  0  0  0
  187.2050  177.3940  144.6350 C   0  0  0  0  0  3  0  0  0  0  0  0
  189.2150  177.5940  140.8400 C   0  0  0  0  0  3  0  0  0  0  0  0
  187.7070  177.2940  146.0080 C   0  0  0  0  0  3  0  0  0  0  0  0
  189.1980  177.6170  139.4710 C   0  0  0  0  0  3  0  0  0  0  0  0
  186.1520  178.0400  144.1200 C   0  0  0  0  0  0  0  0  0  0  0  0
  184.2790  178.0730  140.6890 C   0  0  1  0  0  3  0  0  0  0  0  0
  186.1770  178.8610  147.2300 C   0  0  0  0  0  3  0  0  0  0  0  0
  185.1670  178.8390  144.9040 C   0  0  0  0  0  0  0  0  0  0  0  0
  185.6320  178.8930  138.6770 C   0  0  0  0  0  2  0  0  0  0  0  0
  185.9200  177.9310  142.6960 N   0  0  0  0  0  0  0  0  0  0  0  0
  188.0980  178.1820  141.6950 C   0  0  1  0  0  3  0  0  0  0  0  0
  184.1000  179.2780  144.3010 N   0  0  0  0  0  0  0  0  0  0  0  0
  188.0390  178.1520  138.6600 C   0  0  0  0  0  3  0  0  0  0  0  0
  186.9570  178.5900  139.3080 C   0  0  0  0  0  0  0  0  0  0  0  0
  187.0520  178.4260  140.6870 N   0  0  0  0  0  0  0  0  0  0  0  0
  180.3510  176.4650  140.1960 C   0  0  0  0  0  3  0  0  0  0  0  0
  182.9010  177.5170  140.5040 C   0  0  0  0  0  0  0  0  0  0  0  0
  182.7320  176.3170  139.8080 C   0  0  0  0  0  3  0  0  0  0  0  0
  181.4480  175.7920  139.6530 C   0  0  0  0  0  3  0  0  0  0  0  0
  180.5590  177.6590  140.8900 C   0  0  0  0  0  3  0  0  0  0  0  0
  181.8180  178.1550  141.0300 N   0  0  0  0  0  0  0  0  0  0  0  0
  1 12  1  0  0  0  0
  2 16  1  0  0  0  0
  2  6  2  0  0  0  0
  3 21  1  6  0  0  0
  3 16  1  0  0  0  0
  4 13  2  0  0  0  0
  5 13  1  0  0  0  0
  6 18  1  0  0  0  0
  7  9  1  0  0  0  0
  9  5  2  0  0  0  0
 10  8  2  0  0  0  0
 11  7  2  0  0  0  0
 11 14  1  0  0  0  0
 12 23  1  1  0  0  0
 12  2  1  0  0  0  0
 14  4  1  0  0  0  0
 15 20  1  0  0  0  0
 15  1  1  0  0  0  0
 16 11  1  0  0  0  0
 17  8  1  6  0  0  0
 17  3  1  0  0  0  0
 18 14  2  0  0  0  0
 19 20  2  0  0  0  0
 19 10  1  0  0  0  0
 20 21  1  0  0  0  0
 21 17  1  0  0  0  0
 22 26  1  0  0  0  0
 23 27  1  0  0  0  0
 24 23  2  0  0  0  0
 25 24  1  0  0  0  0
 25 22  2  0  0  0  0
 26 27  2  0  0  0  0
M  END
>  <MODEL>
1

>  <REMARK>
 VINA RESULT:      -7.9      0.000      0.000
  Name = 
  1 active torsions:
  status: ('A' for Active; 'I' for Inactive)
    1  A    between atoms: C_9  and  C_15
                            x       y       z     vdW  Elec       q    Type
                         _______ _______ _______ _____ _____    ______ ____

>  <TORSDO>
F 1

$$$$
=
 OpenBabel10262420033D

 27 32  0  0  1  0  0  0  0  0999 V2000
  184.5430  179.7530  143.5890 C   0  0  0  0  0  2  0  0  0  0  0  0
  185.2120  178.3290  141.5550 C   0  0  0  0  0  0  0  0  0  0  0  0
  182.8540  177.5030  141.3020 C   0  0  2  0  0  3  0  0  0  0  0  0
  186.0540  178.2530  137.3290 C   0  0  0  0  0  3  0  0  0  0  0  0
  184.3570  176.7750  136.2110 C   0  0  0  0  0  3  0  0  0  0  0  0
  186.3220  178.8080  140.9890 C   0  0  0  0  0  3  0  0  0  0  0  0
  183.5630  176.8300  138.6030 C   0  0  0  0  0  3  0  0  0  0  0  0
  180.4220  177.8800  141.3430 C   0  0  0  0  0  3  0  0  0  0  0  0
  183.5440  176.4210  137.1960 C   0  0  0  0  0  3  0  0  0  0  0  0
  179.9820  178.2130  142.5970 C   0  0  0  0  0  3  0  0  0  0  0  0
  184.4290  177.5790  139.2970 C   0  0  0  0  0  0  0  0  0  0  0  0
  185.0450  178.3910  143.0710 C   0  0  1  0  0  3  0  0  0  0  0  0
  185.5070  177.6740  136.2680 C   0  0  0  0  0  3  0  0  0  0  0  0
  185.6780  178.1810  138.7470 C   0  0  0  0  0  0  0  0  0  0  0  0
  183.1640  179.6430  144.2730 C   0  0  0  0  0  2  0  0  0  0  0  0
  184.1630  177.7950  140.7030 N   0  0  0  0  0  0  0  0  0  0  0  0
  181.8020  178.2620  140.8190 C   0  0  1  0  0  3  0  0  0  0  0  0
  186.5110  178.7470  139.5710 N   0  0  0  0  0  0  0  0  0  0  0  0
  180.8400  178.9200  143.6220 C   0  0  0  0  0  3  0  0  0  0  0  0
  182.1060  179.2020  143.3060 C   0  0  0  0  0  0  0  0  0  0  0  0
  182.4660  178.7300  142.0470 N   0  0  0  0  0  0  0  0  0  0  0  0
  188.4200  176.9400  145.2530 C   0  0  0  0  0  3  0  0  0  0  0  0
  186.2350  177.8950  143.8310 C   0  0  0  0  0  0  0  0  0  0  0  0
  186.3590  178.2010  145.1900 C   0  0  0  0  0  3  0  0  0  0  0  0
  187.4600  177.7200  145.9000 C   0  0  0  0  0  3  0  0  0  0  0  0
  188.2610  176.6510  143.8950 C   0  0  0  0  0  3  0  0  0  0  0  0
  187.1810  177.1280  143.2190 N   0  0  0  0  0  0  0  0  0  0  0  0
  1 15  1  0  0  0  0
  2 12  1  0  0  0  0
  3 16  1  6  0  0  0
  3 21  1  0  0  0  0
  4 14  1  0  0  0  0
  5 13  1  0  0  0  0
  5  9  2  0  0  0  0
  6  2  2  0  0  0  0
  7 11  2  0  0  0  0
  8 10  2  0  0  0  0
  9  7  1  0  0  0  0
 10 19  1  0  0  0  0
 11 16  1  0  0  0  0
 12  1  1  0  0  0  0
 12 23  1  1  0  0  0
 13  4  2  0  0  0  0
 14 11  1  0  0  0  0
 14 18  2  0  0  0  0
 16  2  1  0  0  0  0
 17  3  1  0  0  0  0
 17  8  1  1  0  0  0
 17 21  1  0  0  0  0
 18  6  1  0  0  0  0
 20 19  2  0  0  0  0
 20 15  1  0  0  0  0
 21 20  1  0  0  0  0
 22 25  1  0  0  0  0
 23 24  1  0  0  0  0
 24 25  2  0  0  0  0
 26 22  2  0  0  0  0
 27 23  2  0  0  0  0
 27 26  1  0  0  0  0
M  END
>  <MODEL>
2

>  <REMARK>
 VINA RESULT:      -7.7      1.772      7.100
  Name = 
  1 active torsions:
  status: ('A' for Active; 'I' for Inactive)
    1  A    between atoms: C_9  and  C_15
                            x       y       z     vdW  Elec       q    Type
                         _______ _______ _______ _____ _____    ______ ____

>  <TORSDO>
F 1

$$$$
=
 OpenBabel10262420033D

 27 32  0  0  1  0  0  0  0  0999 V2000
  189.0630  178.3460  139.4470 C   0  0  0  0  0  2  0  0  0  0  0  0
  190.8550  176.5290  139.1390 C   0  0  0  0  0  0  0  0  0  0  0  0
  189.3360  175.2260  137.6200 C   0  0  2  0  0  3  0  0  0  0  0  0
  194.4660  175.3340  137.1130 C   0  0  0  0  0  3  0  0  0  0  0  0
  193.9650  173.2890  135.7420 C   0  0  0  0  0  3  0  0  0  0  0  0
  192.0700  177.0170  139.3940 C   0  0  0  0  0  3  0  0  0  0  0  0
  191.7030  173.9140  136.6640 C   0  0  0  0  0  3  0  0  0  0  0  0
  187.6660  175.1220  135.8150 C   0  0  0  0  0  3  0  0  0  0  0  0
  192.6640  173.1010  135.9130 C   0  0  0  0  0  3  0  0  0  0  0  0
  186.4920  175.7290  136.1760 C   0  0  0  0  0  3  0  0  0  0  0  0
  191.8700  174.9910  137.4420 C   0  0  0  0  0  0  0  0  0  0  0  0
  189.6560  177.0150  139.9480 C   0  0  1  0  0  3  0  0  0  0  0  0
  194.7990  174.3660  136.2690 C   0  0  0  0  0  3  0  0  0  0  0  0
  193.1810  175.6260  137.7610 C   0  0  0  0  0  0  0  0  0  0  0  0
  187.6110  178.1860  138.9480 C   0  0  0  0  0  2  0  0  0  0  0  0
  190.6960  175.5690  138.0590 N   0  0  0  0  0  0  0  0  0  0  0  0
  189.0290  175.5840  136.3190 C   0  0  1  0  0  3  0  0  0  0  0  0
  193.2150  176.5650  138.6610 N   0  0  0  0  0  0  0  0  0  0  0  0
  186.4110  176.8660  137.1700 C   0  0  0  0  0  3  0  0  0  0  0  0
  187.5370  177.2770  137.7590 C   0  0  0  0  0  0  0  0  0  0  0  0
  188.6460  176.5220  137.3880 N   0  0  0  0  0  0  0  0  0  0  0  0
  190.2640  176.9950  144.1770 C   0  0  0  0  0  3  0  0  0  0  0  0
  189.8830  177.0130  141.4270 C   0  0  0  0  0  0  0  0  0  0  0  0
  189.5550  178.1470  142.1750 C   0  0  0  0  0  3  0  0  0  0  0  0
  189.7500  178.1350  143.5570 C   0  0  0  0  0  3  0  0  0  0  0  0
  190.5770  175.8770  143.3980 C   0  0  0  0  0  3  0  0  0  0  0  0
  190.3790  175.9080  142.0530 N   0  0  0  0  0  0  0  0  0  0  0  0
  1 12  1  0  0  0  0
  2  6  2  0  0  0  0
  2 12  1  0  0  0  0
  3 21  1  1  0  0  0
  3 16  1  0  0  0  0
  4 14  1  0  0  0  0
  5  9  2  0  0  0  0
  5 13  1  0  0  0  0
  7 11  2  0  0  0  0
  8 10  2  0  0  0  0
  9  7  1  0  0  0  0
 10 19  1  0  0  0  0
 11 14  1  0  0  0  0
 11 16  1  0  0  0  0
 12 23  1  1  0  0  0
 13  4  2  0  0  0  0
 14 18  2  0  0  0  0
 15  1  1  0  0  0  0
 16  2  1  0  0  0  0
 17  8  1  1  0  0  0
 17 21  1  0  0  0  0
 17  3  1  0  0  0  0
 18  6  1  0  0  0  0
 19 20  2  0  0  0  0
 20 15  1  0  0  0  0
 21 20  1  0  0  0  0
 23 27  2  0  0  0  0
 23 24  1  0  0  0  0
 24 25  2  0  0  0  0
 25 22  1  0  0  0  0
 26 22  2  0  0  0  0
 27 26  1  0  0  0  0
M  END
>  <MODEL>
3

>  <REMARK>
 VINA RESULT:      -7.6      4.522      8.727
  Name = 
  1 active torsions:
  status: ('A' for Active; 'I' for Inactive)
    1  A    between atoms: C_9  and  C_15
                            x       y       z     vdW  Elec       q    Type
                         _______ _______ _______ _____ _____    ______ ____

>  <TORSDO>
F 1

$$$$
=
 OpenBabel10262420033D

 27 32  0  0  1  0  0  0  0  0999 V2000
  181.6110  178.4430  140.3490 C   0  0  0  0  0  2  0  0  0  0  0  0
  183.9120  178.7730  139.2500 C   0  0  0  0  0  0  0  0  0  0  0  0
  184.9650  179.2190  141.4870 C   0  0  2  0  0  3  0  0  0  0  0  0
  187.4180  176.8920  137.5930 C   0  0  0  0  0  3  0  0  0  0  0  0
  189.4010  177.5440  138.9920 C   0  0  0  0  0  3  0  0  0  0  0  0
  183.9610  178.1590  138.0660 C   0  0  0  0  0  3  0  0  0  0  0  0
  187.4700  178.5770  140.2410 C   0  0  0  0  0  3  0  0  0  0  0  0
  185.2030  178.7430  143.8900 C   0  0  0  0  0  3  0  0  0  0  0  0
  188.8770  178.2670  139.9710 C   0  0  0  0  0  3  0  0  0  0  0  0
  184.0510  179.0170  144.5770 C   0  0  0  0  0  3  0  0  0  0  0  0
  186.3550  178.3070  139.5510 C   0  0  0  0  0  0  0  0  0  0  0  0
  182.6130  179.4260  139.7130 C   0  0  1  0  0  3  0  0  0  0  0  0
  188.7070  176.8600  137.9030 C   0  0  0  0  0  3  0  0  0  0  0  0
  186.3060  177.6020  138.2380 C   0  0  0  0  0  0  0  0  0  0  0  0
  181.3350  178.7710  141.8310 C   0  0  0  0  0  2  0  0  0  0  0  0
  185.0950  178.7660  140.0950 N   0  0  0  0  0  0  0  0  0  0  0  0
  185.2130  178.2530  142.4460 C   0  0  1  0  0  3  0  0  0  0  0  0
  185.1730  177.5520  137.6010 N   0  0  0  0  0  0  0  0  0  0  0  0
  182.6720  178.9400  143.9590 C   0  0  0  0  0  3  0  0  0  0  0  0
  182.5720  178.6280  142.6650 C   0  0  0  0  0  0  0  0  0  0  0  0
  183.8120  178.4690  142.0500 N   0  0  0  0  0  0  0  0  0  0  0  0
  180.7570  181.9310  136.7910 C   0  0  0  0  0  3  0  0  0  0  0  0
  181.9750  180.3020  138.6810 C   0  0  0  0  0  0  0  0  0  0  0  0
  181.1790  179.7260  137.6860 C   0  0  0  0  0  3  0  0  0  0  0  0
  180.5700  180.5480  136.7370 C   0  0  0  0  0  3  0  0  0  0  0  0
  181.5560  182.4720  137.8020 C   0  0  0  0  0  3  0  0  0  0  0  0
  182.1410  181.6550  138.7190 N   0  0  0  0  0  0  0  0  0  0  0  0
  1 15  1  0  0  0  0
  2 12  1  0  0  0  0
  2 16  1  0  0  0  0
  3 16  1  6  0  0  0
  3 21  1  0  0  0  0
  3 17  1  0  0  0  0
  4 13  2  0  0  0  0
  4 14  1  0  0  0  0
  5  9  2  0  0  0  0
  6  2  2  0  0  0  0
  8 10  2  0  0  0  0
  9  7  1  0  0  0  0
 11 16  1  0  0  0  0
 11  7  2  0  0  0  0
 12 23  1  6  0  0  0
 12  1  1  0  0  0  0
 13  5  1  0  0  0  0
 14 11  1  0  0  0  0
 15 20  1  0  0  0  0
 17  8  1  1  0  0  0
 18  6  1  0  0  0  0
 18 14  2  0  0  0  0
 19 10  1  0  0  0  0
 20 19  2  0  0  0  0
 21 17  1  0  0  0  0
 21 20  1  0  0  0  0
 22 26  1  0  0  0  0
 23 27  1  0  0  0  0
 24 23  2  0  0  0  0
 25 22  2  0  0  0  0
 25 24  1  0  0  0  0
 26 27  2  0  0  0  0
M  END
>  <MODEL>
4

>  <REMARK>
 VINA RESULT:      -7.6      2.555      5.673
  Name = 
  1 active torsions:
  status: ('A' for Active; 'I' for Inactive)
    1  A    between atoms: C_9  and  C_15
                            x       y       z     vdW  Elec       q    Type
                         _______ _______ _______ _____ _____    ______ ____

>  <TORSDO>
F 1

$$$$
=
 OpenBabel10262420033D

 27 32  0  0  1  0  0  0  0  0999 V2000
  189.0550  178.6280  138.9810 C   0  0  0  0  0  2  0  0  0  0  0  0
  187.1520  178.1250  140.6350 C   0  0  0  0  0  0  0  0  0  0  0  0
  188.7630  177.0390  142.2270 C   0  0  2  0  0  3  0  0  0  0  0  0
  184.5800  179.6450  143.7410 C   0  0  0  0  0  3  0  0  0  0  0  0
  185.0500  178.3680  145.8530 C   0  0  0  0  0  3  0  0  0  0  0  0
  186.1250  178.9530  140.4370 C   0  0  0  0  0  3  0  0  0  0  0  0
  186.7770  177.4630  144.2550 C   0  0  0  0  0  3  0  0  0  0  0  0
  190.9490  176.9500  143.3550 C   0  0  0  0  0  3  0  0  0  0  0  0
  186.0500  177.5620  145.5240 C   0  0  0  0  0  3  0  0  0  0  0  0
  191.9710  176.7530  142.4650 C   0  0  0  0  0  3  0  0  0  0  0  0
  186.5890  178.0670  143.0750 C   0  0  0  0  0  0  0  0  0  0  0  0
  187.9720  177.6350  139.4450 C   0  0  1  0  0  3  0  0  0  0  0  0
  184.3930  179.3780  145.0270 C   0  0  0  0  0  3  0  0  0  0  0  0
  185.4900  179.0290  142.7680 C   0  0  0  0  0  0  0  0  0  0  0  0
  190.4780  178.0530  139.1400 C   0  0  0  0  0  2  0  0  0  0  0  0
  187.4940  177.7410  141.9940 N   0  0  0  0  0  0  0  0  0  0  0  0
  189.6810  177.7220  143.0050 C   0  0  1  0  0  3  0  0  0  0  0  0
  185.3280  179.4150  141.5350 N   0  0  0  0  0  0  0  0  0  0  0  0
  191.9200  177.2040  141.0220 C   0  0  0  0  0  3  0  0  0  0  0  0
  190.8070  177.7930  140.5790 C   0  0  0  0  0  0  0  0  0  0  0  0
  189.8050  177.8490  141.5440 N   0  0  0  0  0  0  0  0  0  0  0  0
  185.5840  176.1480  136.2280 C   0  0  0  0  0  3  0  0  0  0  0  0
  187.1430  177.1230  138.3080 C   0  0  0  0  0  0  0  0  0  0  0  0
  187.5730  176.0020  137.5930 C   0  0  0  0  0  3  0  0  0  0  0  0
  186.7880  175.5160  136.5470 C   0  0  0  0  0  3  0  0  0  0  0  0
  185.1830  177.2640  136.9670 C   0  0  0  0  0  3  0  0  0  0  0  0
  185.9620  177.7230  137.9840 N   0  0  0  0  0  0  0  0  0  0  0  0
  1 15  1  0  0  0  0
  1 12  1  0  0  0  0
  2 16  1  0  0  0  0
  3 21  1  6  0  0  0
  3 17  1  0  0  0  0
  4 13  2  0  0  0  0
  6  2  2  0  0  0  0
  6 18  1  0  0  0  0
  7  9  1  0  0  0  0
  9  5  2  0  0  0  0
 10  8  2  0  0  0  0
 11  7  2  0  0  0  0
 12 23  1  6  0  0  0
 12  2  1  0  0  0  0
 13  5  1  0  0  0  0
 14 11  1  0  0  0  0
 14  4  1  0  0  0  0
 15 20  1  0  0  0  0
 16  3  1  0  0  0  0
 16 11  1  0  0  0  0
 17  8  1  6  0  0  0
 18 14  2  0  0  0  0
 19 10  1  0  0  0  0
 20 19  2  0  0  0  0
 20 21  1  0  0  0  0
 21 17  1  0  0  0  0
 22 25  2  0  0  0  0
 22 26  1  0  0  0  0
 24 23  2  0  0  0  0
 25 24  1  0  0  0  0
 26 27  2  0  0  0  0
 27 23  1  0  0  0  0
M  END
>  <MODEL>
5

>  <REMARK>
 VINA RESULT:      -7.3      2.582      3.868
  Name = 
  1 active torsions:
  status: ('A' for Active; 'I' for Inactive)
    1  A    between atoms: C_9  and  C_15
                            x       y       z     vdW  Elec       q    Type
                         _______ _______ _______ _____ _____    ______ ____

>  <TORSDO>
F 1

$$$$
=
 OpenBabel10262420033D

 27 32  0  0  1  0  0  0  0  0999 V2000
  190.7850  178.5570  142.2230 C   0  0  0  0  0  2  0  0  0  0  0  0
  188.2470  178.1590  142.3240 C   0  0  0  0  0  0  0  0  0  0  0  0
  188.4610  177.0850  144.5850 C   0  0  2  0  0  3  0  0  0  0  0  0
  184.3630  179.8490  143.1180 C   0  0  0  0  0  3  0  0  0  0  0  0
  183.3550  178.6310  145.0710 C   0  0  0  0  0  3  0  0  0  0  0  0
  187.6050  179.0080  141.5190 C   0  0  0  0  0  3  0  0  0  0  0  0
  185.6620  177.6290  144.9160 C   0  0  0  0  0  3  0  0  0  0  0  0
  189.4540  176.9770  146.8340 C   0  0  0  0  0  3  0  0  0  0  0  0
  184.3060  177.7900  145.4480 C   0  0  0  0  0  3  0  0  0  0  0  0
  190.7980  176.7230  146.7830 C   0  0  0  0  0  3  0  0  0  0  0  0
  186.2790  178.1980  143.8730 C   0  0  0  0  0  0  0  0  0  0  0  0
  189.6110  177.6090  141.9150 C   0  0  1  0  0  3  0  0  0  0  0  0
  183.4020  179.6300  144.0060 C   0  0  0  0  0  3  0  0  0  0  0  0
  185.6560  179.1770  142.9360 C   0  0  0  0  0  0  0  0  0  0  0  0
  191.7710  177.9510  143.2440 C   0  0  0  0  0  2  0  0  0  0  0  0
  187.6470  177.8120  143.6010 N   0  0  0  0  0  0  0  0  0  0  0  0
  188.7170  177.7690  145.7600 C   0  0  1  0  0  3  0  0  0  0  0  0
  186.3170  179.5260  141.8710 N   0  0  0  0  0  0  0  0  0  0  0  0
  191.6810  177.1270  145.6230 C   0  0  0  0  0  3  0  0  0  0  0  0
  191.1160  177.7300  144.5740 C   0  0  0  0  0  0  0  0  0  0  0  0
  189.7340  177.8450  144.6980 N   0  0  0  0  0  0  0  0  0  0  0  0
  189.7250  176.0650  137.9330 C   0  0  0  0  0  3  0  0  0  0  0  0
  189.6550  177.0820  140.5150 C   0  0  0  0  0  0  0  0  0  0  0  0
  190.8360  176.5110  140.0320 C   0  0  0  0  0  3  0  0  0  0  0  0
  190.8680  176.0030  138.7330 C   0  0  0  0  0  3  0  0  0  0  0  0
  188.5610  176.6380  138.4500 C   0  0  0  0  0  3  0  0  0  0  0  0
  188.5490  177.1280  139.7200 N   0  0  0  0  0  0  0  0  0  0  0  0
  1 15  1  0  0  0  0
  2 16  1  0  0  0  0
  3 16  1  6  0  0  0
  3 21  1  0  0  0  0
  3 17  1  0  0  0  0
  4 13  2  0  0  0  0
  5  9  2  0  0  0  0
  6 18  1  0  0  0  0
  6  2  2  0  0  0  0
  7  9  1  0  0  0  0
 10  8  2  0  0  0  0
 11  7  2  0  0  0  0
 12 23  1  6  0  0  0
 12  1  1  0  0  0  0
 12  2  1  0  0  0  0
 13  5  1  0  0  0  0
 14  4  1  0  0  0  0
 14 11  1  0  0  0  0
 15 20  1  0  0  0  0
 16 11  1  0  0  0  0
 17  8  1  1  0  0  0
 18 14  2  0  0  0  0
 19 10  1  0  0  0  0
 20 21  1  0  0  0  0
 20 19  2  0  0  0  0
 21 17  1  0  0  0  0
 22 26  2  0  0  0  0
 22 25  1  0  0  0  0
 24 23  1  0  0  0  0
 25 24  2  0  0  0  0
 26 27  1  0  0  0  0
 27 23  2  0  0  0  0
M  END
>  <MODEL>
6

>  <REMARK>
 VINA RESULT:      -7.3      2.988      5.820
  Name = 
  1 active torsions:
  status: ('A' for Active; 'I' for Inactive)
    1  A    between atoms: C_9  and  C_15
                            x       y       z     vdW  Elec       q    Type
                         _______ _______ _______ _____ _____    ______ ____

>  <TORSDO>
F 1

$$$$
=
 OpenBabel10262420033D

 27 32  0  0  1  0  0  0  0  0999 V2000
  181.7020  179.0620  141.5800 C   0  0  0  0  0  2  0  0  0  0  0  0
  183.7120  178.0770  140.3150 C   0  0  0  0  0  0  0  0  0  0  0  0
  182.3040  176.1760  139.4690 C   0  0  2  0  0  3  0  0  0  0  0  0
  186.1950  178.2530  136.7970 C   0  0  0  0  0  3  0  0  0  0  0  0
  185.9610  176.0810  135.5550 C   0  0  0  0  0  3  0  0  0  0  0  0
  184.6230  179.0200  140.0710 C   0  0  0  0  0  3  0  0  0  0  0  0
  184.2990  175.8340  137.4330 C   0  0  0  0  0  3  0  0  0  0  0  0
  180.1890  175.2950  138.5720 C   0  0  0  0  0  3  0  0  0  0  0  0
  185.0550  175.4110  136.2510 C   0  0  0  0  0  3  0  0  0  0  0  0
  179.1660  175.4160  139.4740 C   0  0  0  0  0  3  0  0  0  0  0  0
  184.3680  176.9420  138.1800 C   0  0  0  0  0  0  0  0  0  0  0  0
  182.9130  178.1110  141.6150 C   0  0  1  0  0  3  0  0  0  0  0  0
  186.4600  177.4350  135.7870 C   0  0  0  0  0  3  0  0  0  0  0  0
  185.3300  178.0630  137.9680 C   0  0  0  0  0  0  0  0  0  0  0  0
  180.3650  178.3090  141.7480 C   0  0  0  0  0  2  0  0  0  0  0  0
  183.4700  177.0560  139.3090 N   0  0  0  0  0  0  0  0  0  0  0  0
  181.3400  176.2900  138.4820 C   0  0  1  0  0  3  0  0  0  0  0  0
  185.3980  179.0020  138.8660 N   0  0  0  0  0  0  0  0  0  0  0  0
  179.1080  176.4990  140.5290 C   0  0  0  0  0  3  0  0  0  0  0  0
  180.1240  177.3600  140.6130 C   0  0  0  0  0  0  0  0  0  0  0  0
  181.1470  177.0770  139.7110 N   0  0  0  0  0  0  0  0  0  0  0  0
  185.3060  178.6270  145.1180 C   0  0  0  0  0  3  0  0  0  0  0  0
  183.7560  178.3050  142.8370 C   0  0  0  0  0  0  0  0  0  0  0  0
  183.1800  178.8450  143.9910 C   0  0  0  0  0  3  0  0  0  0  0  0
  183.9630  179.0070  145.1340 C   0  0  0  0  0  3  0  0  0  0  0  0
  185.8470  178.0860  143.9490 C   0  0  0  0  0  3  0  0  0  0  0  0
  185.0680  177.9350  142.8440 N   0  0  0  0  0  0  0  0  0  0  0  0
  1 12  1  0  0  0  0
  1 15  1  0  0  0  0
  2 12  1  0  0  0  0
  3 16  1  6  0  0  0
  3 21  1  0  0  0  0
  4 14  1  0  0  0  0
  5 13  1  0  0  0  0
  5  9  2  0  0  0  0
  6  2  2  0  0  0  0
  7 11  2  0  0  0  0
  8 10  2  0  0  0  0
  9  7  1  0  0  0  0
 10 19  1  0  0  0  0
 11 16  1  0  0  0  0
 12 23  1  1  0  0  0
 13  4  2  0  0  0  0
 14 11  1  0  0  0  0
 14 18  2  0  0  0  0
 16  2  1  0  0  0  0
 17  8  1  1  0  0  0
 17  3  1  0  0  0  0
 17 21  1  0  0  0  0
 18  6  1  0  0  0  0
 19 20  2  0  0  0  0
 20 15  1  0  0  0  0
 21 20  1  0  0  0  0
 22 25  1  0  0  0  0
 23 27  2  0  0  0  0
 23 24  1  0  0  0  0
 24 25  2  0  0  0  0
 26 22  2  0  0  0  0
 27 26  1  0  0  0  0
M  END
>  <MODEL>
7

>  <REMARK>
 VINA RESULT:      -7.2      2.067      7.140
  Name = 
  1 active torsions:
  status: ('A' for Active; 'I' for Inactive)
    1  A    between atoms: C_9  and  C_15
                            x       y       z     vdW  Elec       q    Type
                         _______ _______ _______ _____ _____    ______ ____

>  <TORSDO>
F 1

$$$$
=
 OpenBabel10262420033D

 27 32  0  0  1  0  0  0  0  0999 V2000
  188.3750  178.8680  137.4170 C   0  0  0  0  0  2  0  0  0  0  0  0
  188.3500  177.9840  139.8310 C   0  0  0  0  0  0  0  0  0  0  0  0
  189.9900  176.1780  139.2340 C   0  0  2  0  0  3  0  0  0  0  0  0
  189.8150  178.4550  143.8560 C   0  0  0  0  0  3  0  0  0  0  0  0
  191.1350  176.4050  144.4630 C   0  0  0  0  0  3  0  0  0  0  0  0
  187.9600  178.9390  140.6780 C   0  0  0  0  0  3  0  0  0  0  0  0
  190.5560  176.0030  142.0430 C   0  0  0  0  0  3  0  0  0  0  0  0
  191.9940  175.3960  138.0370 C   0  0  0  0  0  3  0  0  0  0  0  0
  191.1300  175.6820  143.3520 C   0  0  0  0  0  3  0  0  0  0  0  0
  191.8240  175.4440  136.6790 C   0  0  0  0  0  3  0  0  0  0  0  0
  189.8180  177.0400  141.6280 C   0  0  0  0  0  0  0  0  0  0  0  0
  187.7340  177.9080  138.4370 C   0  0  1  0  0  3  0  0  0  0  0  0
  190.5570  177.7290  144.6820 C   0  0  0  0  0  3  0  0  0  0  0  0
  189.3590  178.1680  142.4910 C   0  0  0  0  0  0  0  0  0  0  0  0
  189.0540  178.1130  136.2540 C   0  0  0  0  0  2  0  0  0  0  0  0
  189.3920  177.0600  140.2450 N   0  0  0  0  0  0  0  0  0  0  0  0
  191.3370  176.3860  138.9920 C   0  0  1  0  0  3  0  0  0  0  0  0
  188.5110  179.0230  141.9980 N   0  0  0  0  0  0  0  0  0  0  0  0
  190.9070  176.4280  135.9870 C   0  0  0  0  0  3  0  0  0  0  0  0
  190.1950  177.2710  136.7390 C   0  0  0  0  0  0  0  0  0  0  0  0
  190.3770  177.0620  138.1030 N   0  0  0  0  0  0  0  0  0  0  0  0
  183.4650  178.0990  138.4510 C   0  0  0  0  0  3  0  0  0  0  0  0
  186.2390  177.9860  138.4320 C   0  0  0  0  0  0  0  0  0  0  0  0
  185.5110  177.1750  137.5560 C   0  0  0  0  0  3  0  0  0  0  0  0
  184.1170  177.2360  137.5670 C   0  0  0  0  0  3  0  0  0  0  0  0
  184.2250  178.8910  139.3150 C   0  0  0  0  0  3  0  0  0  0  0  0
  185.5830  178.8180  139.2900 N   0  0  0  0  0  0  0  0  0  0  0  0
  1 12  1  0  0  0  0
  2 16  1  0  0  0  0
  2  6  2  0  0  0  0
  3 21  1  6  0  0  0
  3 16  1  0  0  0  0
  4 13  2  0  0  0  0
  5 13  1  0  0  0  0
  6 18  1  0  0  0  0
  7  9  1  0  0  0  0
  9  5  2  0  0  0  0
 10  8  2  0  0  0  0
 11  7  2  0  0  0  0
 11 14  1  0  0  0  0
 12 23  1  1  0  0  0
 12  2  1  0  0  0  0
 14  4  1  0  0  0  0
 15 20  1  0  0  0  0
 15  1  1  0  0  0  0
 16 11  1  0  0  0  0
 17  8  1  6  0  0  0
 17  3  1  0  0  0  0
 18 14  2  0  0  0  0
 19 10  1  0  0  0  0
 19 20  2  0  0  0  0
 20 21  1  0  0  0  0
 21 17  1  0  0  0  0
 22 26  1  0  0  0  0
 23 27  1  0  0  0  0
 24 25  1  0  0  0  0
 24 23  2  0  0  0  0
 25 22  2  0  0  0  0
 27 26  2  0  0  0  0
M  END
>  <MODEL>
8

>  <REMARK>
 VINA RESULT:      -6.8      3.135      4.441
  Name = 
  1 active torsions:
  status: ('A' for Active; 'I' for Inactive)
    1  A    between atoms: C_9  and  C_15
                            x       y       z     vdW  Elec       q    Type
                         _______ _______ _______ _____ _____    ______ ____

>  <TORSDO>
F 1

$$$$
=
 OpenBabel10262420033D

 27 32  0  0  1  0  0  0  0  0999 V2000
  188.6990  177.6450  135.9780 C   0  0  0  0  0  2  0  0  0  0  0  0
  188.4200  177.1790  138.4910 C   0  0  0  0  0  0  0  0  0  0  0  0
  190.5760  175.8920  138.5370 C   0  0  2  0  0  3  0  0  0  0  0  0
  188.8410  178.6900  142.5050 C   0  0  0  0  0  3  0  0  0  0  0  0
  190.5160  177.2610  143.7160 C   0  0  0  0  0  3  0  0  0  0  0  0
  187.6190  178.0870  139.0520 C   0  0  0  0  0  3  0  0  0  0  0  0
  190.5780  176.3340  141.3730 C   0  0  0  0  0  3  0  0  0  0  0  0
  192.9190  175.5860  137.8450 C   0  0  0  0  0  3  0  0  0  0  0  0
  190.9370  176.4090  142.7920 C   0  0  0  0  0  3  0  0  0  0  0  0
  193.0250  175.3710  136.4970 C   0  0  0  0  0  3  0  0  0  0  0  0
  189.6870  177.0180  140.6460 C   0  0  0  0  0  0  0  0  0  0  0  0
  188.1480  176.7040  137.0660 C   0  0  1  0  0  3  0  0  0  0  0  0
  189.5670  178.3610  143.5660 C   0  0  0  0  0  3  0  0  0  0  0  0
  188.7710  178.0700  141.1760 C   0  0  0  0  0  0  0  0  0  0  0  0
  189.7810  176.9640  135.1130 C   0  0  0  0  0  2  0  0  0  0  0  0
  189.5660  176.6930  139.2410 N   0  0  0  0  0  0  0  0  0  0  0  0
  191.8350  176.4630  138.4630 C   0  0  1  0  0  3  0  0  0  0  0  0
  187.8430  178.5380  140.3940 N   0  0  0  0  0  0  0  0  0  0  0  0
  192.0370  175.9080  135.4850 C   0  0  0  0  0  3  0  0  0  0  0  0
  190.9840  176.5980  135.9290 C   0  0  0  0  0  0  0  0  0  0  0  0
  190.9310  176.6670  137.3190 N   0  0  0  0  0  0  0  0  0  0  0  0
  184.0910  175.5880  136.3230 C   0  0  0  0  0  3  0  0  0  0  0  0
  186.7220  176.3190  136.8190 C   0  0  0  0  0  0  0  0  0  0  0  0
  185.8810  177.1990  136.1320 C   0  0  0  0  0  3  0  0  0  0  0  0
  184.5590  176.8290  135.8860 C   0  0  0  0  0  3  0  0  0  0  0  0
  184.9610  174.7320  137.0020 C   0  0  0  0  0  3  0  0  0  0  0  0
  186.2470  175.1100  137.2320 N   0  0  0  0  0  0  0  0  0  0  0  0
  1 12  1  0  0  0  0
  2  6  2  0  0  0  0
  2 16  1  0  0  0  0
  3 21  1  6  0  0  0
  3 16  1  0  0  0  0
  4 13  2  0  0  0  0
  6 18  1  0  0  0  0
  7  9  1  0  0  0  0
  9  5  2  0  0  0  0
 10  8  2  0  0  0  0
 11 14  1  0  0  0  0
 11  7  2  0  0  0  0
 12 23  1  6  0  0  0
 12  2  1  0  0  0  0
 13  5  1  0  0  0  0
 14  4  1  0  0  0  0
 15 20  1  0  0  0  0
 15  1  1  0  0  0  0
 16 11  1  0  0  0  0
 17  8  1  6  0  0  0
 17  3  1  0  0  0  0
 18 14  2  0  0  0  0
 19 20  2  0  0  0  0
 19 10  1  0  0  0  0
 20 21  1  0  0  0  0
 21 17  1  0  0  0  0
 22 26  1  0  0  0  0
 23 27  1  0  0  0  0
 24 23  2  0  0  0  0
 25 24  1  0  0  0  0
 25 22  2  0  0  0  0
 26 27  2  0  0  0  0
M  END
>  <MODEL>
9

>  <REMARK>
 VINA RESULT:      -6.8      3.841      5.381
  Name = 
  1 active torsions:
  status: ('A' for Active; 'I' for Inactive)
    1  A    between atoms: C_9  and  C_15
                            x       y       z     vdW  Elec       q    Type
                         _______ _______ _______ _____ _____    ______ ____

>  <TORSDO>
F 1

$$$$
