=
 OpenBabel10262419583D

 27 31  0  0  1  0  0  0  0  0999 V2000
  190.4840  177.9730  143.5040 C   0  0  0  0  0  2  0  0  0  0  0  0
  188.4150  177.5340  144.8190 C   0  0  0  0  0  0  0  0  0  0  0  0
  187.5500  177.3630  142.4330 N   0  0  0  0  0  0  0  0  0  0  0  0
  184.6040  178.7990  145.7570 N   0  0  0  0  0  0  0  0  0  0  0  0
  182.6460  179.0790  144.3130 C   0  0  0  0  0  1  0  0  0  0  0  0
  188.1310  177.8810  146.1670 C   0  0  0  0  0  3  0  0  0  0  0  0
  184.9270  178.3020  143.6370 C   0  0  0  0  0  0  0  0  0  0  0  0
  189.8420  177.2580  139.9290 C   0  0  0  0  0  0  0  0  0  0  0  0
  184.6340  178.1160  142.1850 C   0  0  0  0  0  1  0  0  0  0  0  0
  190.2620  177.0800  138.5810 N   0  0  0  0  0  1  0  0  0  0  0  0
  186.1280  178.0830  144.2820 C   0  0  0  0  0  0  0  0  0  0  0  0
  189.7870  177.0200  144.4540 C   0  0  2  0  0  3  0  0  0  0  0  0
  184.0350  178.7300  144.5600 N   0  0  0  0  0  0  0  0  0  0  0  0
  185.8800  178.4050  145.5920 C   0  0  0  0  0  0  0  0  0  0  0  0
  189.9900  177.6980  142.1310 C   0  0  0  0  0  0  0  0  0  0  0  0
  187.3860  177.6620  143.8340 C   0  0  0  0  0  0  0  0  0  0  0  0
  188.6180  177.0890  140.3110 N   0  0  0  0  0  0  0  0  0  0  0  0
  186.8620  178.3220  146.5670 C   0  0  0  0  0  3  0  0  0  0  0  0
  192.1260  177.8480  140.9530 N   0  0  0  0  0  1  0  0  0  0  0  0
  190.7180  177.6410  141.0310 C   0  0  0  0  0  0  0  0  0  0  0  0
  188.6330  177.3560  141.7120 C   0  0  0  0  0  0  0  0  0  0  0  0
  192.3000  175.8740  147.7580 C   0  0  0  0  0  3  0  0  0  0  0  0
  190.6650  176.6440  145.6150 C   0  0  0  0  0  0  0  0  0  0  0  0
  190.4970  177.2320  146.8800 C   0  0  0  0  0  3  0  0  0  0  0  0
  191.3160  176.8490  147.9460 C   0  0  0  0  0  3  0  0  0  0  0  0
  192.4650  175.2810  146.5020 C   0  0  0  0  0  3  0  0  0  0  0  0
  191.6480  175.6640  145.4340 C   0  0  0  0  0  3  0  0  0  0  0  0
  1 12  1  0  0  0  0
  2  6  1  0  0  0  0
  3 16  1  0  0  0  0
  5 13  1  0  0  0  0
  6 18  2  0  0  0  0
  7 11  2  0  0  0  0
  7 13  1  0  0  0  0
  8 17  2  0  0  0  0
  8 20  1  0  0  0  0
  9  7  1  0  0  0  0
 10  8  1  0  0  0  0
 11 14  1  0  0  0  0
 12  2  1  0  0  0  0
 12 23  1  1  0  0  0
 13  4  1  0  0  0  0
 14  4  2  0  0  0  0
 14 18  1  0  0  0  0
 15  1  1  0  0  0  0
 16 11  1  0  0  0  0
 16  2  2  0  0  0  0
 17 21  1  0  0  0  0
 19 20  1  0  0  0  0
 20 15  2  0  0  0  0
 21 15  1  0  0  0  0
 21  3  2  0  0  0  0
 22 25  1  0  0  0  0
 23 24  1  0  0  0  0
 24 25  2  0  0  0  0
 26 22  2  0  0  0  0
 27 23  2  0  0  0  0
 27 26  1  0  0  0  0
M  END
>  <MODEL>
1

>  <REMARK>
 VINA RESULT:     -10.6      0.000      0.000
  Name = 
  1 active torsions:
  status: ('A' for Active; 'I' for Inactive)
    1  A    between atoms: C_9  and  C_15
                            x       y       z     vdW  Elec       q    Type
                         _______ _______ _______ _____ _____    ______ ____

>  <TORSDO>
F 1

$$$$
=
 OpenBabel10262419583D

 27 31  0  0  1  0  0  0  0  0999 V2000
  187.8360  178.7930  140.8300 C   0  0  0  0  0  2  0  0  0  0  0  0
  189.5180  177.4760  142.1090 C   0  0  0  0  0  0  0  0  0  0  0  0
  187.5240  177.4310  143.6880 N   0  0  0  0  0  0  0  0  0  0  0  0
  191.8100  177.2240  145.5280 N   0  0  0  0  0  0  0  0  0  0  0  0
  191.1160  177.0760  147.8720 C   0  0  0  0  0  1  0  0  0  0  0  0
  190.9330  177.4770  141.9750 C   0  0  0  0  0  3  0  0  0  0  0  0
  189.6340  177.2270  145.8620 C   0  0  0  0  0  0  0  0  0  0  0  0
  184.5390  178.5190  142.4890 C   0  0  0  0  0  0  0  0  0  0  0  0
  188.3320  177.2020  146.5910 C   0  0  0  0  0  1  0  0  0  0  0  0
  183.1310  178.7200  142.5430 N   0  0  0  0  0  1  0  0  0  0  0  0
  189.8250  177.3150  144.4970 C   0  0  0  0  0  0  0  0  0  0  0  0
  188.6520  177.5180  140.8730 C   0  0  2  0  0  3  0  0  0  0  0  0
  190.8530  177.1720  146.4460 N   0  0  0  0  0  0  0  0  0  0  0  0
  191.1880  177.3110  144.3380 C   0  0  0  0  0  0  0  0  0  0  0  0
  186.6400  178.6050  141.6890 C   0  0  0  0  0  0  0  0  0  0  0  0
  188.9400  177.4180  143.4160 C   0  0  0  0  0  0  0  0  0  0  0  0
  185.1940  177.8900  143.4100 N   0  0  0  0  0  0  0  0  0  0  0  0
  191.7810  177.3970  143.0890 C   0  0  0  0  0  3  0  0  0  0  0  0
  184.9870  179.6530  140.2250 N   0  0  0  0  0  1  0  0  0  0  0  0
  185.4050  178.9790  141.4090 C   0  0  0  0  0  0  0  0  0  0  0  0
  186.5500  177.9070  142.9680 C   0  0  0  0  0  0  0  0  0  0  0  0
  190.6430  176.8060  137.1210 C   0  0  0  0  0  3  0  0  0  0  0  0
  189.3680  177.2650  139.5750 C   0  0  0  0  0  0  0  0  0  0  0  0
  190.3440  176.2600  139.4610 C   0  0  0  0  0  3  0  0  0  0  0  0
  190.9800  176.0350  138.2370 C   0  0  0  0  0  3  0  0  0  0  0  0
  189.6670  177.8030  137.2290 C   0  0  0  0  0  3  0  0  0  0  0  0
  189.0300  178.0290  138.4530 C   0  0  0  0  0  3  0  0  0  0  0  0
  1 12  1  0  0  0  0
  1 15  1  0  0  0  0
  2 16  2  0  0  0  0
  4 13  1  0  0  0  0
  6  2  1  0  0  0  0
  6 18  2  0  0  0  0
  7 13  1  0  0  0  0
  7  9  1  0  0  0  0
  8 10  1  0  0  0  0
  8 17  2  0  0  0  0
 11  7  2  0  0  0  0
 12 23  1  6  0  0  0
 12  2  1  0  0  0  0
 13  5  1  0  0  0  0
 14 11  1  0  0  0  0
 14  4  2  0  0  0  0
 15 21  1  0  0  0  0
 16  3  1  0  0  0  0
 16 11  1  0  0  0  0
 18 14  1  0  0  0  0
 19 20  1  0  0  0  0
 20 15  2  0  0  0  0
 20  8  1  0  0  0  0
 21 17  1  0  0  0  0
 21  3  2  0  0  0  0
 22 26  2  0  0  0  0
 22 25  1  0  0  0  0
 24 23  1  0  0  0  0
 25 24  2  0  0  0  0
 26 27  1  0  0  0  0
 27 23  2  0  0  0  0
M  END
>  <MODEL>
2

>  <REMARK>
 VINA RESULT:     -10.5      2.166      6.400
  Name = 
  1 active torsions:
  status: ('A' for Active; 'I' for Inactive)
    1  A    between atoms: C_9  and  C_15
                            x       y       z     vdW  Elec       q    Type
                         _______ _______ _______ _____ _____    ______ ____

>  <TORSDO>
F 1

$$$$
=
 OpenBabel10262419583D

 27 31  0  0  1  0  0  0  0  0999 V2000
  184.6790  177.8120  142.3630 C   0  0  0  0  0  2  0  0  0  0  0  0
  187.1690  177.8400  142.3940 C   0  0  0  0  0  0  0  0  0  0  0  0
  186.6750  178.7870  140.0860 N   0  0  0  0  0  0  0  0  0  0  0  0
  190.6450  176.4090  140.7000 N   0  0  0  0  0  0  0  0  0  0  0  0
  191.4850  176.6450  138.4120 C   0  0  0  0  0  1  0  0  0  0  0  0
  188.0540  177.0820  143.2080 C   0  0  0  0  0  3  0  0  0  0  0  0
  189.3490  177.5570  139.3410 C   0  0  0  0  0  0  0  0  0  0  0  0
  183.4660  179.6520  139.3900 C   0  0  0  0  0  0  0  0  0  0  0  0
  188.8660  178.2060  138.0870 C   0  0  0  0  0  1  0  0  0  0  0  0
  182.4390  180.2490  138.6050 N   0  0  0  0  0  1  0  0  0  0  0  0
  188.7150  177.5350  140.5680 C   0  0  0  0  0  0  0  0  0  0  0  0
  185.9120  178.4200  142.9990 C   0  0  2  0  0  3  0  0  0  0  0  0
  190.5080  176.8700  139.4630 N   0  0  0  0  0  0  0  0  0  0  0  0
  189.5540  176.8120  141.3770 C   0  0  0  0  0  0  0  0  0  0  0  0
  184.4200  178.5230  141.0870 C   0  0  0  0  0  0  0  0  0  0  0  0
  187.4950  178.0550  141.0190 C   0  0  0  0  0  0  0  0  0  0  0  0
  184.7180  179.7110  139.0700 N   0  0  0  0  0  0  0  0  0  0  0  0
  189.2540  176.5580  142.7060 C   0  0  0  0  0  3  0  0  0  0  0  0
  181.9920  178.7230  141.2820 N   0  0  0  0  0  1  0  0  0  0  0  0
  183.2450  178.9190  140.6320 C   0  0  0  0  0  0  0  0  0  0  0  0
  185.3930  179.0070  140.1110 C   0  0  0  0  0  0  0  0  0  0  0  0
  185.6710  178.3750  147.2980 C   0  0  0  0  0  3  0  0  0  0  0  0
  185.8440  178.3850  144.5010 C   0  0  0  0  0  0  0  0  0  0  0  0
  186.9900  178.1520  145.2800 C   0  0  0  0  0  3  0  0  0  0  0  0
  186.9010  178.1440  146.6750 C   0  0  0  0  0  3  0  0  0  0  0  0
  184.5300  178.6140  146.5260 C   0  0  0  0  0  3  0  0  0  0  0  0
  184.6180  178.6210  145.1310 C   0  0  0  0  0  3  0  0  0  0  0  0
  1 12  1  0  0  0  0
  2 12  1  0  0  0  0
  2  6  1  0  0  0  0
  3 21  2  0  0  0  0
  3 16  1  0  0  0  0
  4 14  2  0  0  0  0
  5 13  1  0  0  0  0
  7 13  1  0  0  0  0
  7 11  2  0  0  0  0
  8 20  1  0  0  0  0
  9  7  1  0  0  0  0
 10  8  1  0  0  0  0
 11 16  1  0  0  0  0
 11 14  1  0  0  0  0
 12 23  1  1  0  0  0
 13  4  1  0  0  0  0
 14 18  1  0  0  0  0
 15  1  1  0  0  0  0
 16  2  2  0  0  0  0
 17  8  2  0  0  0  0
 17 21  1  0  0  0  0
 18  6  2  0  0  0  0
 20 15  2  0  0  0  0
 20 19  1  0  0  0  0
 21 15  1  0  0  0  0
 23 27  2  0  0  0  0
 23 24  1  0  0  0  0
 24 25  2  0  0  0  0
 25 22  1  0  0  0  0
 26 22  2  0  0  0  0
 27 26  1  0  0  0  0
M  END
>  <MODEL>
3

>  <REMARK>
 VINA RESULT:     -10.5      2.782      6.375
  Name = 
  1 active torsions:
  status: ('A' for Active; 'I' for Inactive)
    1  A    between atoms: C_9  and  C_15
                            x       y       z     vdW  Elec       q    Type
                         _______ _______ _______ _____ _____    ______ ____

>  <TORSDO>
F 1

$$$$
=
 OpenBabel10262419583D

 27 31  0  0  1  0  0  0  0  0999 V2000
  185.6940  179.2620  144.6850 C   0  0  0  0  0  2  0  0  0  0  0  0
  186.3850  178.2430  142.5200 C   0  0  0  0  0  0  0  0  0  0  0  0
  188.1370  177.3060  144.1090 N   0  0  0  0  0  0  0  0  0  0  0  0
  189.3220  177.9500  139.6400 N   0  0  0  0  0  0  0  0  0  0  0  0
  191.6210  177.1280  139.8250 C   0  0  0  0  0  1  0  0  0  0  0  0
  186.0820  178.6740  141.2000 C   0  0  0  0  0  3  0  0  0  0  0  0
  189.9120  177.2650  141.6470 C   0  0  0  0  0  0  0  0  0  0  0  0
  187.6260  177.7220  147.4410 C   0  0  0  0  0  0  0  0  0  0  0  0
  190.7670  176.7190  142.7420 C   0  0  0  0  0  1  0  0  0  0  0  0
  187.9020  177.4980  148.8190 N   0  0  0  0  0  1  0  0  0  0  0  0
  188.5990  177.6840  141.7420 C   0  0  0  0  0  0  0  0  0  0  0  0
  185.3150  178.2910  143.5850 C   0  0  2  0  0  3  0  0  0  0  0  0
  190.3090  177.4390  140.3660 N   0  0  0  0  0  0  0  0  0  0  0  0
  188.2780  178.1010  140.4760 C   0  0  0  0  0  0  0  0  0  0  0  0
  186.6190  178.5670  145.6140 C   0  0  0  0  0  0  0  0  0  0  0  0
  187.6970  177.7530  142.8110 C   0  0  0  0  0  0  0  0  0  0  0  0
  188.2720  177.1290  146.4900 N   0  0  0  0  0  0  0  0  0  0  0  0
  187.0260  178.6100  140.1660 C   0  0  0  0  0  3  0  0  0  0  0  0
  185.6810  179.3810  147.7190 N   0  0  0  0  0  1  0  0  0  0  0  0
  186.5970  178.6240  146.9330 C   0  0  0  0  0  0  0  0  0  0  0  0
  187.6840  177.6230  145.2870 C   0  0  0  0  0  0  0  0  0  0  0  0
  181.2860  178.9450  142.2120 C   0  0  0  0  0  3  0  0  0  0  0  0
  183.9180  178.5270  143.0840 C   0  0  0  0  0  0  0  0  0  0  0  0
  183.5610  178.2530  141.7530 C   0  0  0  0  0  3  0  0  0  0  0  0
  182.2490  178.4650  141.3200 C   0  0  0  0  0  3  0  0  0  0  0  0
  181.6360  179.2140  143.5400 C   0  0  0  0  0  3  0  0  0  0  0  0
  182.9480  179.0030  143.9740 C   0  0  0  0  0  3  0  0  0  0  0  0
  1 15  1  0  0  0  0
  2 16  2  0  0  0  0
  2 12  1  0  0  0  0
  3 21  2  0  0  0  0
  4 13  1  0  0  0  0
  4 14  2  0  0  0  0
  5 13  1  0  0  0  0
  6  2  1  0  0  0  0
  7 11  2  0  0  0  0
  7  9  1  0  0  0  0
  8 10  1  0  0  0  0
 11 16  1  0  0  0  0
 12 23  1  6  0  0  0
 12  1  1  0  0  0  0
 13  7  1  0  0  0  0
 14 11  1  0  0  0  0
 15 20  2  0  0  0  0
 16  3  1  0  0  0  0
 17  8  2  0  0  0  0
 18 14  1  0  0  0  0
 18  6  2  0  0  0  0
 20  8  1  0  0  0  0
 20 19  1  0  0  0  0
 21 15  1  0  0  0  0
 21 17  1  0  0  0  0
 22 26  1  0  0  0  0
 23 27  1  0  0  0  0
 24 23  2  0  0  0  0
 25 24  1  0  0  0  0
 25 22  2  0  0  0  0
 26 27  2  0  0  0  0
M  END
>  <MODEL>
4

>  <REMARK>
 VINA RESULT:     -10.3      2.218      7.487
  Name = 
  1 active torsions:
  status: ('A' for Active; 'I' for Inactive)
    1  A    between atoms: C_9  and  C_15
                            x       y       z     vdW  Elec       q    Type
                         _______ _______ _______ _____ _____    ______ ____

>  <TORSDO>
F 1

$$$$
=
 OpenBabel10262419583D

 27 31  0  0  1  0  0  0  0  0999 V2000
  187.1300  177.1110  144.3930 C   0  0  0  0  0  2  0  0  0  0  0  0
  189.0260  177.3240  142.7930 C   0  0  0  0  0  0  0  0  0  0  0  0
  187.1870  178.5950  141.5790 N   0  0  0  0  0  0  0  0  0  0  0  0
  190.4580  176.4590  139.0240 N   0  0  0  0  0  0  0  0  0  0  0  0
  189.6000  177.1290  136.8300 C   0  0  0  0  0  1  0  0  0  0  0  0
  190.1870  176.5130  142.6820 C   0  0  0  0  0  3  0  0  0  0  0  0
  188.6480  177.7110  139.0690 C   0  0  0  0  0  0  0  0  0  0  0  0
  184.3580  179.3150  143.3150 C   0  0  0  0  0  0  0  0  0  0  0  0
  187.4950  178.5180  138.5730 C   0  0  0  0  0  1  0  0  0  0  0  0
  183.1000  179.9520  143.5110 N   0  0  0  0  0  1  0  0  0  0  0  0
  188.9760  177.4400  140.3830 C   0  0  0  0  0  0  0  0  0  0  0  0
  188.5060  177.6990  144.1600 C   0  0  2  0  0  3  0  0  0  0  0  0
  189.5660  177.1040  138.2830 N   0  0  0  0  0  0  0  0  0  0  0  0
  190.1010  176.6610  140.3050 C   0  0  0  0  0  0  0  0  0  0  0  0
  186.1330  178.0000  143.7450 C   0  0  0  0  0  0  0  0  0  0  0  0
  188.3800  177.7860  141.6030 C   0  0  0  0  0  0  0  0  0  0  0  0
  185.0940  179.5210  142.2700 N   0  0  0  0  0  0  0  0  0  0  0  0
  190.7350  176.1710  141.4370 C   0  0  0  0  0  3  0  0  0  0  0  0
  184.4430  177.9800  145.5110 N   0  0  0  0  0  1  0  0  0  0  0  0
  184.9700  178.3740  144.2470 C   0  0  0  0  0  0  0  0  0  0  0  0
  186.2490  178.7090  142.4730 C   0  0  0  0  0  0  0  0  0  0  0  0
  191.1450  176.9360  147.4760 C   0  0  0  0  0  3  0  0  0  0  0  0
  189.4390  177.4150  145.3040 C   0  0  0  0  0  0  0  0  0  0  0  0
  190.7950  177.1210  145.0870 C   0  0  0  0  0  3  0  0  0  0  0  0
  191.6440  176.8790  146.1710 C   0  0  0  0  0  3  0  0  0  0  0  0
  189.7970  177.2350  147.6970 C   0  0  0  0  0  3  0  0  0  0  0  0
  188.9470  177.4760  146.6130 C   0  0  0  0  0  3  0  0  0  0  0  0
  2 12  1  0  0  0  0
  3 16  1  0  0  0  0
  3 21  2  0  0  0  0
  4 14  2  0  0  0  0
  5 13  1  0  0  0  0
  6  2  1  0  0  0  0
  7 11  2  0  0  0  0
  8 10  1  0  0  0  0
  8 20  1  0  0  0  0
  9  7  1  0  0  0  0
 11 16  1  0  0  0  0
 12  1  1  0  0  0  0
 12 23  1  1  0  0  0
 13  4  1  0  0  0  0
 13  7  1  0  0  0  0
 14 11  1  0  0  0  0
 14 18  1  0  0  0  0
 15 20  2  0  0  0  0
 15  1  1  0  0  0  0
 16  2  2  0  0  0  0
 17 21  1  0  0  0  0
 17  8  2  0  0  0  0
 18  6  2  0  0  0  0
 20 19  1  0  0  0  0
 21 15  1  0  0  0  0
 22 26  1  0  0  0  0
 23 27  1  0  0  0  0
 24 23  2  0  0  0  0
 24 25  1  0  0  0  0
 25 22  2  0  0  0  0
 27 26  2  0  0  0  0
M  END
>  <MODEL>
5

>  <REMARK>
 VINA RESULT:      -9.5      1.422      5.524
  Name = 
  1 active torsions:
  status: ('A' for Active; 'I' for Inactive)
    1  A    between atoms: C_9  and  C_15
                            x       y       z     vdW  Elec       q    Type
                         _______ _______ _______ _____ _____    ______ ____

>  <TORSDO>
F 1

$$$$
=
 OpenBabel10262419583D

 27 31  0  0  1  0  0  0  0  0999 V2000
  186.8880  178.9800  141.5780 C   0  0  0  0  0  2  0  0  0  0  0  0
  184.8000  178.3690  142.7890 C   0  0  0  0  0  0  0  0  0  0  0  0
  184.0940  178.0600  140.3650 N   0  0  0  0  0  0  0  0  0  0  0  0
  180.8360  179.2720  143.4800 N   0  0  0  0  0  0  0  0  0  0  0  0
  178.9470  179.3260  141.9230 C   0  0  0  0  0  1  0  0  0  0  0  0
  184.4070  178.7160  144.1100 C   0  0  0  0  0  3  0  0  0  0  0  0
  181.3270  178.7630  141.3960 C   0  0  0  0  0  0  0  0  0  0  0  0
  186.5260  178.1260  137.9950 C   0  0  0  0  0  0  0  0  0  0  0  0
  181.1380  178.5170  139.9360 C   0  0  0  0  0  1  0  0  0  0  0  0
  187.0380  177.9600  136.6770 N   0  0  0  0  0  1  0  0  0  0  0  0
  182.5050  178.6770  142.1120 C   0  0  0  0  0  0  0  0  0  0  0  0
  186.2340  177.9850  142.5140 C   0  0  2  0  0  3  0  0  0  0  0  0
  180.3460  179.1210  142.2560 N   0  0  0  0  0  0  0  0  0  0  0  0
  182.1520  179.0030  143.3970 C   0  0  0  0  0  0  0  0  0  0  0  0
  186.5040  178.6280  140.1880 C   0  0  0  0  0  0  0  0  0  0  0  0
  183.8220  178.3730  141.7450 C   0  0  0  0  0  0  0  0  0  0  0  0
  185.3040  177.8450  138.3130 N   0  0  0  0  0  0  0  0  0  0  0  0
  183.0800  179.0390  144.4260 C   0  0  0  0  0  3  0  0  0  0  0  0
  188.6790  178.9610  139.1260 N   0  0  0  0  0  1  0  0  0  0  0  0
  187.2960  178.6180  139.1320 C   0  0  0  0  0  0  0  0  0  0  0  0
  185.2130  178.1440  139.7050 C   0  0  0  0  0  0  0  0  0  0  0  0
  188.6800  177.1840  145.9670 C   0  0  0  0  0  3  0  0  0  0  0  0
  187.0760  177.7230  143.7320 C   0  0  0  0  0  0  0  0  0  0  0  0
  186.5270  177.7690  145.0250 C   0  0  0  0  0  3  0  0  0  0  0  0
  187.3300  177.5030  146.1380 C   0  0  0  0  0  3  0  0  0  0  0  0
  189.2280  177.1310  144.6810 C   0  0  0  0  0  3  0  0  0  0  0  0
  188.4270  177.3980  143.5670 C   0  0  0  0  0  3  0  0  0  0  0  0
  1 12  1  0  0  0  0
  2  6  1  0  0  0  0
  3 16  1  0  0  0  0
  5 13  1  0  0  0  0
  6 18  2  0  0  0  0
  7 11  2  0  0  0  0
  7 13  1  0  0  0  0
  8 17  2  0  0  0  0
  8 20  1  0  0  0  0
  9  7  1  0  0  0  0
 10  8  1  0  0  0  0
 11 14  1  0  0  0  0
 12  2  1  0  0  0  0
 12 23  1  1  0  0  0
 13  4  1  0  0  0  0
 14  4  2  0  0  0  0
 14 18  1  0  0  0  0
 15  1  1  0  0  0  0
 16 11  1  0  0  0  0
 16  2  2  0  0  0  0
 17 21  1  0  0  0  0
 19 20  1  0  0  0  0
 20 15  2  0  0  0  0
 21 15  1  0  0  0  0
 21  3  2  0  0  0  0
 22 25  1  0  0  0  0
 23 24  1  0  0  0  0
 24 25  2  0  0  0  0
 26 22  2  0  0  0  0
 27 23  2  0  0  0  0
 27 26  1  0  0  0  0
M  END
>  <MODEL>
6

>  <REMARK>
 VINA RESULT:      -9.1      2.648      4.203
  Name = 
  1 active torsions:
  status: ('A' for Active; 'I' for Inactive)
    1  A    between atoms: C_9  and  C_15
                            x       y       z     vdW  Elec       q    Type
                         _______ _______ _______ _____ _____    ______ ____

>  <TORSDO>
F 1

$$$$
=
 OpenBabel10262419583D

 27 31  0  0  1  0  0  0  0  0999 V2000
  188.7060  176.8480  140.0200 C   0  0  0  0  0  2  0  0  0  0  0  0
  188.1100  177.7960  142.2440 C   0  0  0  0  0  0  0  0  0  0  0  0
  190.6510  177.7540  142.3700 N   0  0  0  0  0  0  0  0  0  0  0  0
  188.2310  177.3020  146.3370 N   0  0  0  0  0  0  0  0  0  0  0  0
  190.1580  177.1290  147.8370 C   0  0  0  0  0  1  0  0  0  0  0  0
  186.8800  177.6980  142.9490 C   0  0  0  0  0  3  0  0  0  0  0  0
  190.1960  177.4280  145.3540 C   0  0  0  0  0  0  0  0  0  0  0  0
  192.3600  177.1280  139.5030 C   0  0  0  0  0  0  0  0  0  0  0  0
  191.6810  177.4440  145.1940 C   0  0  0  0  0  1  0  0  0  0  0  0
  193.5340  177.0400  138.7020 N   0  0  0  0  0  1  0  0  0  0  0  0
  189.2470  177.5450  144.3570 C   0  0  0  0  0  0  0  0  0  0  0  0
  188.0980  178.0270  140.7520 C   0  0  2  0  0  3  0  0  0  0  0  0
  189.5440  177.2850  146.5300 N   0  0  0  0  0  0  0  0  0  0  0  0
  188.0460  177.4600  145.0130 C   0  0  0  0  0  0  0  0  0  0  0  0
  190.1830  176.9950  140.0540 C   0  0  0  0  0  0  0  0  0  0  0  0
  189.3400  177.6910  142.9670 C   0  0  0  0  0  0  0  0  0  0  0  0
  192.3760  177.5440  140.7280 N   0  0  0  0  0  0  0  0  0  0  0  0
  186.8360  177.5260  144.3400 C   0  0  0  0  0  3  0  0  0  0  0  0
  190.6550  176.3390  137.7480 N   0  0  0  0  0  1  0  0  0  0  0  0
  191.0170  176.7760  139.0550 C   0  0  0  0  0  0  0  0  0  0  0  0
  191.0150  177.4840  141.1500 C   0  0  0  0  0  0  0  0  0  0  0  0
  184.3250  179.1860  139.0310 C   0  0  0  0  0  3  0  0  0  0  0  0
  186.7700  178.4240  140.1720 C   0  0  0  0  0  0  0  0  0  0  0  0
  185.7660  179.0010  140.9680 C   0  0  0  0  0  3  0  0  0  0  0  0
  184.5470  179.3780  140.3970 C   0  0  0  0  0  3  0  0  0  0  0  0
  185.3240  178.6170  138.2330 C   0  0  0  0  0  3  0  0  0  0  0  0
  186.5440  178.2390  138.8030 C   0  0  0  0  0  3  0  0  0  0  0  0
  1 15  1  0  0  0  0
  1 12  1  0  0  0  0
  2  6  1  0  0  0  0
  2 16  2  0  0  0  0
  3 16  1  0  0  0  0
  4 13  1  0  0  0  0
  6 18  2  0  0  0  0
  7 13  1  0  0  0  0
  8 17  2  0  0  0  0
  9  7  1  0  0  0  0
 10  8  1  0  0  0  0
 11 14  1  0  0  0  0
 11  7  2  0  0  0  0
 12 23  1  6  0  0  0
 12  2  1  0  0  0  0
 13  5  1  0  0  0  0
 14  4  2  0  0  0  0
 15 21  1  0  0  0  0
 16 11  1  0  0  0  0
 17 21  1  0  0  0  0
 18 14  1  0  0  0  0
 19 20  1  0  0  0  0
 20  8  1  0  0  0  0
 20 15  2  0  0  0  0
 21  3  2  0  0  0  0
 22 25  1  0  0  0  0
 23 24  1  0  0  0  0
 25 24  2  0  0  0  0
 26 27  1  0  0  0  0
 26 22  2  0  0  0  0
 27 23  2  0  0  0  0
M  END
>  <MODEL>
7

>  <REMARK>
 VINA RESULT:      -8.9      2.153      5.906
  Name = 
  1 active torsions:
  status: ('A' for Active; 'I' for Inactive)
    1  A    between atoms: C_9  and  C_15
                            x       y       z     vdW  Elec       q    Type
                         _______ _______ _______ _____ _____    ______ ____

>  <TORSDO>
F 1

$$$$
=
 OpenBabel10262419583D

 27 31  0  0  1  0  0  0  0  0999 V2000
  184.7370  177.8430  138.0910 C   0  0  0  0  0  2  0  0  0  0  0  0
  184.7240  178.7180  140.4230 C   0  0  0  0  0  0  0  0  0  0  0  0
  187.2180  178.5030  139.9720 N   0  0  0  0  0  0  0  0  0  0  0  0
  185.7130  178.0160  144.3640 N   0  0  0  0  0  0  0  0  0  0  0  0
  187.9070  177.6430  145.3860 C   0  0  0  0  0  1  0  0  0  0  0  0
  183.6770  178.6660  141.3830 C   0  0  0  0  0  3  0  0  0  0  0  0
  187.4150  178.0600  142.9680 C   0  0  0  0  0  0  0  0  0  0  0  0
  188.1960  177.9080  136.7740 C   0  0  0  0  0  0  0  0  0  0  0  0
  188.8230  177.9880  142.4790 C   0  0  0  0  0  1  0  0  0  0  0  0
  189.1520  177.7830  135.7270 N   0  0  0  0  0  1  0  0  0  0  0  0
  186.2800  178.2890  142.2160 C   0  0  0  0  0  0  0  0  0  0  0  0
  184.3980  179.0220  138.9800 C   0  0  2  0  0  3  0  0  0  0  0  0
  187.0310  177.9030  144.2560 N   0  0  0  0  0  0  0  0  0  0  0  0
  185.2510  178.2500  143.1220 C   0  0  0  0  0  0  0  0  0  0  0  0
  186.1910  177.8910  137.7960 C   0  0  0  0  0  0  0  0  0  0  0  0
  186.0720  178.4970  140.8460 C   0  0  0  0  0  0  0  0  0  0  0  0
  188.5140  178.2610  137.9770 N   0  0  0  0  0  0  0  0  0  0  0  0
  183.9300  178.4290  142.7410 C   0  0  0  0  0  3  0  0  0  0  0  0
  186.0880  177.3200  135.4230 N   0  0  0  0  0  1  0  0  0  0  0  0
  186.7640  177.6670  136.6280 C   0  0  0  0  0  0  0  0  0  0  0  0
  187.2800  178.2700  138.6930 C   0  0  0  0  0  0  0  0  0  0  0  0
  180.4060  180.4390  138.2040 C   0  0  0  0  0  3  0  0  0  0  0  0
  183.0070  179.5340  138.7270 C   0  0  0  0  0  0  0  0  0  0  0  0
  182.7060  180.9040  138.8030 C   0  0  0  0  0  3  0  0  0  0  0  0
  181.4070  181.3530  138.5440 C   0  0  0  0  0  3  0  0  0  0  0  0
  180.7030  179.0750  138.1220 C   0  0  0  0  0  3  0  0  0  0  0  0
  182.0010  178.6240  138.3810 C   0  0  0  0  0  3  0  0  0  0  0  0
  1 12  1  0  0  0  0
  2 16  2  0  0  0  0
  2  6  1  0  0  0  0
  3 16  1  0  0  0  0
  6 18  2  0  0  0  0
  7 13  1  0  0  0  0
  8 17  2  0  0  0  0
  9  7  1  0  0  0  0
 10  8  1  0  0  0  0
 11  7  2  0  0  0  0
 11 14  1  0  0  0  0
 12 23  1  1  0  0  0
 12  2  1  0  0  0  0
 13  4  1  0  0  0  0
 13  5  1  0  0  0  0
 14  4  2  0  0  0  0
 15  1  1  0  0  0  0
 15 21  1  0  0  0  0
 16 11  1  0  0  0  0
 17 21  1  0  0  0  0
 18 14  1  0  0  0  0
 19 20  1  0  0  0  0
 20  8  1  0  0  0  0
 20 15  2  0  0  0  0
 21  3  2  0  0  0  0
 22 25  1  0  0  0  0
 23 24  1  0  0  0  0
 25 24  2  0  0  0  0
 26 22  2  0  0  0  0
 26 27  1  0  0  0  0
 27 23  2  0  0  0  0
M  END
>  <MODEL>
8

>  <REMARK>
 VINA RESULT:      -8.8      3.473      7.676
  Name = 
  1 active torsions:
  status: ('A' for Active; 'I' for Inactive)
    1  A    between atoms: C_9  and  C_15
                            x       y       z     vdW  Elec       q    Type
                         _______ _______ _______ _____ _____    ______ ____

>  <TORSDO>
F 1

$$$$
=
 OpenBabel10262419583D

 27 31  0  0  1  0  0  0  0  0999 V2000
  188.3100  178.7570  140.9420 C   0  0  0  0  0  2  0  0  0  0  0  0
  186.6740  178.0520  142.6820 C   0  0  0  0  0  0  0  0  0  0  0  0
  185.2400  178.0010  140.5820 N   0  0  0  0  0  0  0  0  0  0  0  0
  183.1630  178.9290  144.6590 N   0  0  0  0  0  0  0  0  0  0  0  0
  180.8890  179.1640  143.7820 C   0  0  0  0  0  1  0  0  0  0  0  0
  186.7250  178.2670  144.0860 C   0  0  0  0  0  3  0  0  0  0  0  0
  182.9620  178.6290  142.4870 C   0  0  0  0  0  0  0  0  0  0  0  0
  186.8190  178.2780  137.5880 C   0  0  0  0  0  0  0  0  0  0  0  0
  182.3190  178.5350  141.1430 C   0  0  0  0  0  1  0  0  0  0  0  0
  186.8900  178.2410  136.1670 N   0  0  0  0  0  1  0  0  0  0  0  0
  184.2980  178.4560  142.7880 C   0  0  0  0  0  0  0  0  0  0  0  0
  187.9350  177.6800  141.9380 C   0  0  2  0  0  3  0  0  0  0  0  0
  182.3120  178.9090  143.6400 N   0  0  0  0  0  0  0  0  0  0  0  0
  184.3750  178.6530  144.1430 C   0  0  0  0  0  0  0  0  0  0  0  0
  187.4990  178.5540  139.7150 C   0  0  0  0  0  0  0  0  0  0  0  0
  185.4220  178.1740  142.0020 C   0  0  0  0  0  0  0  0  0  0  0  0
  185.7440  177.9820  138.2450 N   0  0  0  0  0  0  0  0  0  0  0  0
  185.5770  178.5730  144.8300 C   0  0  0  0  0  3  0  0  0  0  0  0
  189.2510  178.9660  138.0630 N   0  0  0  0  0  1  0  0  0  0  0  0
  187.9240  178.6410  138.4690 C   0  0  0  0  0  0  0  0  0  0  0  0
  186.1020  178.1380  139.6170 C   0  0  0  0  0  0  0  0  0  0  0  0
  191.3050  176.6100  144.3970 C   0  0  0  0  0  3  0  0  0  0  0  0
  189.1000  177.2850  142.8020 C   0  0  0  0  0  0  0  0  0  0  0  0
  189.5610  175.9580  142.8480 C   0  0  0  0  0  3  0  0  0  0  0  0
  190.6580  175.6230  143.6460 C   0  0  0  0  0  3  0  0  0  0  0  0
  190.8540  177.9330  144.3490 C   0  0  0  0  0  3  0  0  0  0  0  0
  189.7550  178.2690  143.5510 C   0  0  0  0  0  3  0  0  0  0  0  0
  1 12  1  0  0  0  0
  2  6  1  0  0  0  0
  3 16  1  0  0  0  0
  6 18  2  0  0  0  0
  7 11  2  0  0  0  0
  7 13  1  0  0  0  0
  8 17  2  0  0  0  0
  8 20  1  0  0  0  0
  9  7  1  0  0  0  0
 10  8  1  0  0  0  0
 11 14  1  0  0  0  0
 12  2  1  0  0  0  0
 12 23  1  1  0  0  0
 13  5  1  0  0  0  0
 13  4  1  0  0  0  0
 14  4  2  0  0  0  0
 14 18  1  0  0  0  0
 15  1  1  0  0  0  0
 16  2  2  0  0  0  0
 16 11  1  0  0  0  0
 17 21  1  0  0  0  0
 19 20  1  0  0  0  0
 20 15  2  0  0  0  0
 21 15  1  0  0  0  0
 21  3  2  0  0  0  0
 23 24  2  0  0  0  0
 23 27  1  0  0  0  0
 24 25  1  0  0  0  0
 25 22  2  0  0  0  0
 26 22  1  0  0  0  0
 27 26  2  0  0  0  0
M  END
>  <MODEL>
9

>  <REMARK>
 VINA RESULT:      -8.7      2.167      3.256
  Name = 
  1 active torsions:
  status: ('A' for Active; 'I' for Inactive)
    1  A    between atoms: C_9  and  C_15
                            x       y       z     vdW  Elec       q    Type
                         _______ _______ _______ _____ _____    ______ ____

>  <TORSDO>
F 1

$$$$
