=
 OpenBabel10262419313D

 31 35  0  0  0  0  0  0  0  0999 V2000
  188.5510  177.5330  144.3280 C   0  0  0  0  0  0  0  0  0  0  0  0
  189.0250  177.4670  145.6560 C   0  0  0  0  0  0  0  0  0  0  0  0
  188.4020  177.2950  139.0540 O   0  0  0  0  0  0  0  0  0  0  0  0
  189.5630  176.9860  139.4340 C   0  0  0  0  0  0  0  0  0  0  0  0
  188.7210  177.6790  148.0600 C   0  0  0  0  0  0  0  0  0  0  0  0
  187.2400  177.8860  143.9740 C   0  0  0  0  0  0  0  0  0  0  0  0
  185.1820  178.4640  143.9430 N   0  0  0  0  0  0  0  0  0  0  0  0
  188.2110  177.7570  146.7630 C   0  0  0  0  0  3  0  0  0  0  0  0
  188.9750  177.2850  141.9090 C   0  0  0  0  0  0  0  0  0  0  0  0
  191.1890  176.8130  144.8290 N   0  0  0  0  0  0  0  0  0  0  0  0
  187.9240  177.9600  149.1190 F   0  0  0  0  0  0  0  0  0  0  0  0
  187.6790  177.6360  141.6430 N   0  0  0  0  0  0  0  0  0  0  0  0
  189.4340  177.2270  143.2540 C   0  0  0  0  0  0  0  0  0  0  0  0
  189.8760  176.9730  140.8350 N   0  0  0  0  0  2  0  0  0  0  0  0
  186.2010  178.2150  144.7610 N   0  0  0  0  0  0  0  0  0  0  0  0
  190.0520  177.3140  148.2690 C   0  0  0  0  0  3  0  0  0  0  0  0
  186.8480  177.9270  142.6710 C   0  0  0  0  0  0  0  0  0  0  0  0
  185.5240  178.2930  142.6420 C   0  0  0  0  0  3  0  0  0  0  0  0
  190.7540  176.8680  143.5440 C   0  0  0  0  0  3  0  0  0  0  0  0
  190.3750  177.0970  145.8780 C   0  0  0  0  0  0  0  0  0  0  0  0
  190.8780  177.0240  147.1800 C   0  0  0  0  0  3  0  0  0  0  0  0
  192.5050  175.9190  136.4830 C   0  0  0  0  0  0  0  0  0  0  0  0
  190.2100  176.1130  137.2120 C   0  0  0  0  0  3  0  0  0  0  0  0
  192.6690  177.4310  140.1940 Cl  0  0  0  0  0  0  0  0  0  0  0  0
  193.5000  175.5410  135.4460 C   0  0  0  0  0  1  0  0  0  0  0  0
  191.1430  175.7580  136.2350 C   0  0  0  0  0  3  0  0  0  0  0  0
  192.0090  176.7940  138.6940 C   0  0  0  0  0  0  0  0  0  0  0  0
  190.6190  176.6340  138.4500 C   0  0  0  0  0  0  0  0  0  0  0  0
  192.9320  176.4340  137.7070 C   0  0  0  0  0  3  0  0  0  0  0  0
  183.8530  178.8190  144.4070 C   0  0  0  0  0  2  0  0  0  0  0  0
  183.8740  179.0010  145.7900 O   0  0  0  0  0  1  0  0  0  0  0  0
  1  2  1  0  0  0  0
  2 20  2  0  0  0  0
  2  8  1  0  0  0  0
  3  4  2  0  0  0  0
  4 14  1  0  0  0  0
  5 16  1  0  0  0  0
  5 11  1  0  0  0  0
  6  1  1  0  0  0  0
  6 15  2  0  0  0  0
  7 30  1  0  0  0  0
  7 15  1  0  0  0  0
  8  5  2  0  0  0  0
  9 13  1  0  0  0  0
 10 20  1  0  0  0  0
 12  9  2  0  0  0  0
 12 17  1  0  0  0  0
 13 19  1  0  0  0  0
 13  1  2  0  0  0  0
 14  9  1  0  0  0  0
 17  6  1  0  0  0  0
 18 17  2  0  0  0  0
 18  7  1  0  0  0  0
 19 10  2  0  0  0  0
 20 21  1  0  0  0  0
 21 16  2  0  0  0  0
 22 29  1  0  0  0  0
 23 28  2  0  0  0  0
 25 22  1  0  0  0  0
 26 22  2  0  0  0  0
 26 23  1  0  0  0  0
 27 24  1  0  0  0  0
 28 27  1  0  0  0  0
 28  4  1  0  0  0  0
 29 27  2  0  0  0  0
 30 31  1  0  0  0  0
M  END
>  <MODEL>
1

>  <REMARK>
 VINA RESULT:     -10.6      0.000      0.000
  Name = 
  2 active torsions:
  status: ('A' for Active; 'I' for Inactive)
    1  A    between atoms: C_2  and  N_13
    2  A    between atoms: C_9  and  C_22
                            x       y       z     vdW  Elec       q    Type
                         _______ _______ _______ _____ _____    ______ ____

>  <TORSDO>
F 2

$$$$
=
 OpenBabel10262419313D

 31 35  0  0  0  0  0  0  0  0999 V2000
  187.4370  178.0340  143.1810 C   0  0  0  0  0  0  0  0  0  0  0  0
  187.6340  177.8160  144.5620 C   0  0  0  0  0  0  0  0  0  0  0  0
  185.1200  179.2240  138.5870 O   0  0  0  0  0  0  0  0  0  0  0  0
  184.2680  179.3480  139.5060 C   0  0  0  0  0  0  0  0  0  0  0  0
  189.0200  177.2080  146.4670 C   0  0  0  0  0  0  0  0  0  0  0  0
  188.4340  177.8760  142.2070 C   0  0  0  0  0  0  0  0  0  0  0  0
  190.2430  177.5090  141.1280 N   0  0  0  0  0  0  0  0  0  0  0  0
  188.8690  177.4120  145.0930 C   0  0  0  0  0  3  0  0  0  0  0  0
  185.9380  178.6690  141.3260 C   0  0  0  0  0  0  0  0  0  0  0  0
  185.3320  178.4000  144.9610 N   0  0  0  0  0  0  0  0  0  0  0  0
  190.2180  176.8190  146.9650 F   0  0  0  0  0  0  0  0  0  0  0  0
  186.9630  178.4950  140.4350 N   0  0  0  0  0  0  0  0  0  0  0  0
  186.1560  178.4420  142.7130 C   0  0  0  0  0  0  0  0  0  0  0  0
  184.6410  179.0820  140.8670 N   0  0  0  0  0  2  0  0  0  0  0  0
  189.7200  177.5110  142.3500 N   0  0  0  0  0  0  0  0  0  0  0  0
  187.9380  177.4020  147.3270 C   0  0  0  0  0  3  0  0  0  0  0  0
  188.1770  178.1050  140.8890 C   0  0  0  0  0  0  0  0  0  0  0  0
  189.3360  177.8770  140.1890 C   0  0  0  0  0  3  0  0  0  0  0  0
  185.1210  178.6170  143.6370 C   0  0  0  0  0  3  0  0  0  0  0  0
  186.5410  178.0110  145.4430 C   0  0  0  0  0  0  0  0  0  0  0  0
  186.7000  177.8030  146.8160 C   0  0  0  0  0  3  0  0  0  0  0  0
  180.2940  180.7120  138.5880 C   0  0  0  0  0  0  0  0  0  0  0  0
  182.6780  181.0720  138.7180 C   0  0  0  0  0  3  0  0  0  0  0  0
  181.8340  177.2800  139.9800 Cl  0  0  0  0  0  0  0  0  0  0  0  0
  178.9320  181.2080  138.2630 C   0  0  0  0  0  1  0  0  0  0  0  0
  181.3990  181.5410  138.4120 C   0  0  0  0  0  3  0  0  0  0  0  0
  181.7430  178.9310  139.3800 C   0  0  0  0  0  0  0  0  0  0  0  0
  182.8760  179.7690  139.2040 C   0  0  0  0  0  0  0  0  0  0  0  0
  180.4670  179.4140  139.0690 C   0  0  0  0  0  3  0  0  0  0  0  0
  191.6360  177.2050  140.8550 C   0  0  0  0  0  2  0  0  0  0  0  0
  191.8280  177.0880  139.4780 O   0  0  0  0  0  1  0  0  0  0  0  0
  1  2  1  0  0  0  0
  2  8  2  0  0  0  0
  2 20  1  0  0  0  0
  3  4  2  0  0  0  0
  4 14  1  0  0  0  0
  5 11  1  0  0  0  0
  5 16  2  0  0  0  0
  6 15  2  0  0  0  0
  6  1  1  0  0  0  0
  7 15  1  0  0  0  0
  8  5  1  0  0  0  0
  9 13  1  0  0  0  0
 10 20  1  0  0  0  0
 12 17  1  0  0  0  0
 12  9  2  0  0  0  0
 13  1  2  0  0  0  0
 13 19  1  0  0  0  0
 14  9  1  0  0  0  0
 17  6  1  0  0  0  0
 18 17  2  0  0  0  0
 18  7  1  0  0  0  0
 19 10  2  0  0  0  0
 20 21  2  0  0  0  0
 21 16  1  0  0  0  0
 22 29  1  0  0  0  0
 23 28  2  0  0  0  0
 25 22  1  0  0  0  0
 26 22  2  0  0  0  0
 26 23  1  0  0  0  0
 27 24  1  0  0  0  0
 28 27  1  0  0  0  0
 28  4  1  0  0  0  0
 29 27  2  0  0  0  0
 30  7  1  0  0  0  0
 31 30  1  0  0  0  0
M  END
>  <MODEL>
2

>  <REMARK>
 VINA RESULT:     -10.5      3.957      7.223
  Name = 
  2 active torsions:
  status: ('A' for Active; 'I' for Inactive)
    1  A    between atoms: C_2  and  N_13
    2  A    between atoms: C_9  and  C_22
                            x       y       z     vdW  Elec       q    Type
                         _______ _______ _______ _____ _____    ______ ____

>  <TORSDO>
F 2

$$$$
=
 OpenBabel10262419313D

 31 35  0  0  0  0  0  0  0  0999 V2000
  187.5400  178.0890  139.4560 C   0  0  0  0  0  0  0  0  0  0  0  0
  188.0130  177.9660  138.1310 C   0  0  0  0  0  0  0  0  0  0  0  0
  187.3620  177.9670  144.7330 O   0  0  0  0  0  0  0  0  0  0  0  0
  188.4980  177.5670  144.3640 C   0  0  0  0  0  0  0  0  0  0  0  0
  187.7320  178.1550  135.7220 C   0  0  0  0  0  0  0  0  0  0  0  0
  186.2580  178.5420  139.7980 C   0  0  0  0  0  0  0  0  0  0  0  0
  184.2490  179.2740  139.8090 N   0  0  0  0  0  0  0  0  0  0  0  0
  187.2250  178.2920  137.0160 C   0  0  0  0  0  3  0  0  0  0  0  0
  187.9390  177.8580  141.8810 C   0  0  0  0  0  0  0  0  0  0  0  0
  190.1200  177.1680  138.9790 N   0  0  0  0  0  0  0  0  0  0  0  0
  186.9610  178.4740  134.6550 F   0  0  0  0  0  0  0  0  0  0  0  0
  186.6720  178.3110  142.1350 N   0  0  0  0  0  0  0  0  0  0  0  0
  188.3950  177.7390  140.5390 C   0  0  0  0  0  0  0  0  0  0  0  0
  188.8120  177.5020  142.9640 N   0  0  0  0  0  2  0  0  0  0  0  0
  185.2520  178.9430  139.0010 N   0  0  0  0  0  0  0  0  0  0  0  0
  189.0330  177.6890  135.5260 C   0  0  0  0  0  3  0  0  0  0  0  0
  185.8660  178.6390  141.0990 C   0  0  0  0  0  0  0  0  0  0  0  0
  184.5770  179.1140  141.1150 C   0  0  0  0  0  3  0  0  0  0  0  0
  189.6870  177.2800  140.2610 C   0  0  0  0  0  3  0  0  0  0  0  0
  189.3330  177.4930  137.9220 C   0  0  0  0  0  0  0  0  0  0  0  0
  189.8320  177.3580  136.6240 C   0  0  0  0  0  3  0  0  0  0  0  0
  191.5690  176.3540  147.1200 C   0  0  0  0  0  0  0  0  0  0  0  0
  190.7650  176.7180  144.8720 C   0  0  0  0  0  3  0  0  0  0  0  0
  187.8180  177.7190  147.5170 Cl  0  0  0  0  0  0  0  0  0  0  0  0
  192.6470  175.9290  148.0500 C   0  0  0  0  0  1  0  0  0  0  0  0
  191.7800  176.3190  145.7440 C   0  0  0  0  0  3  0  0  0  0  0  0
  189.3180  177.1920  146.7630 C   0  0  0  0  0  0  0  0  0  0  0  0
  189.5230  177.1600  145.3580 C   0  0  0  0  0  0  0  0  0  0  0  0
  190.3430  176.7890  147.6240 C   0  0  0  0  0  3  0  0  0  0  0  0
  182.9810  179.7990  139.3360 C   0  0  0  0  0  2  0  0  0  0  0  0
  183.1750  181.0670  138.7890 O   0  0  0  0  0  1  0  0  0  0  0  0
  1  6  1  0  0  0  0
  1 13  1  0  0  0  0
  2  1  2  0  0  0  0
  4  3  2  0  0  0  0
  4 28  1  0  0  0  0
  5  8  2  0  0  0  0
  6 17  1  0  0  0  0
  7 18  1  0  0  0  0
  8  2  1  0  0  0  0
  9 12  2  0  0  0  0
  9 14  1  0  0  0  0
 10 19  1  0  0  0  0
 11  5  1  0  0  0  0
 13  9  1  0  0  0  0
 14  4  1  0  0  0  0
 15  6  2  0  0  0  0
 15  7  1  0  0  0  0
 16  5  1  0  0  0  0
 16 21  2  0  0  0  0
 17 18  2  0  0  0  0
 17 12  1  0  0  0  0
 19 13  2  0  0  0  0
 20  2  1  0  0  0  0
 20 10  2  0  0  0  0
 21 20  1  0  0  0  0
 22 29  1  0  0  0  0
 22 25  1  0  0  0  0
 23 28  2  0  0  0  0
 23 26  1  0  0  0  0
 26 22  2  0  0  0  0
 27 24  1  0  0  0  0
 27 29  2  0  0  0  0
 28 27  1  0  0  0  0
 30  7  1  0  0  0  0
 31 30  1  0  0  0  0
M  END
>  <MODEL>
3

>  <REMARK>
 VINA RESULT:     -10.4      3.949      7.825
  Name = 
  2 active torsions:
  status: ('A' for Active; 'I' for Inactive)
    1  A    between atoms: C_2  and  N_13
    2  A    between atoms: C_9  and  C_22
                            x       y       z     vdW  Elec       q    Type
                         _______ _______ _______ _____ _____    ______ ____

>  <TORSDO>
F 2

$$$$
=
 OpenBabel10262419313D

 31 35  0  0  0  0  0  0  0  0999 V2000
  188.7090  177.5850  143.6190 C   0  0  0  0  0  0  0  0  0  0  0  0
  189.2540  177.3040  144.8910 C   0  0  0  0  0  0  0  0  0  0  0  0
  185.2420  178.7690  139.8150 O   0  0  0  0  0  0  0  0  0  0  0  0
  184.6280  178.7240  140.9140 C   0  0  0  0  0  0  0  0  0  0  0  0
  191.1140  176.7540  146.3590 C   0  0  0  0  0  0  0  0  0  0  0  0
  189.4540  177.6180  142.4310 C   0  0  0  0  0  0  0  0  0  0  0  0
  190.9790  177.5530  140.9340 N   0  0  0  0  0  0  0  0  0  0  0  0
  190.6170  177.0260  145.0830 C   0  0  0  0  0  3  0  0  0  0  0  0
  186.7490  178.1450  142.2280 C   0  0  0  0  0  0  0  0  0  0  0  0
  187.0670  177.5660  145.8630 N   0  0  0  0  0  0  0  0  0  0  0  0
  192.4320  176.4870  146.5290 F   0  0  0  0  0  0  0  0  0  0  0  0
  187.5430  178.1600  141.1120 N   0  0  0  0  0  0  0  0  0  0  0  0
  187.3170  177.8570  143.4990 C   0  0  0  0  0  0  0  0  0  0  0  0
  185.3440  178.4190  142.1210 N   0  0  0  0  0  2  0  0  0  0  0  0
  190.7680  177.4100  142.2390 N   0  0  0  0  0  0  0  0  0  0  0  0
  190.2560  176.7530  147.4600 C   0  0  0  0  0  3  0  0  0  0  0  0
  188.8640  177.8980  141.2360 C   0  0  0  0  0  0  0  0  0  0  0  0
  189.8390  177.8640  140.2680 C   0  0  0  0  0  3  0  0  0  0  0  0
  186.5220  177.8400  144.6500 C   0  0  0  0  0  3  0  0  0  0  0  0
  188.3910  177.3020  146.0150 C   0  0  0  0  0  0  0  0  0  0  0  0
  188.8970  177.0270  147.2880 C   0  0  0  0  0  3  0  0  0  0  0  0
  180.3960  179.4940  140.9500 C   0  0  0  0  0  0  0  0  0  0  0  0
  182.4890  179.2260  139.7760 C   0  0  0  0  0  3  0  0  0  0  0  0
  183.1350  178.7200  143.7770 Cl  0  0  0  0  0  0  0  0  0  0  0  0
  178.9350  179.7630  140.9340 C   0  0  0  0  0  1  0  0  0  0  0  0
  181.1160  179.4780  139.7580 C   0  0  0  0  0  3  0  0  0  0  0  0
  182.4240  179.0030  142.1920 C   0  0  0  0  0  0  0  0  0  0  0  0
  183.1670  178.9840  140.9820 C   0  0  0  0  0  0  0  0  0  0  0  0
  181.0500  179.2570  142.1600 C   0  0  0  0  0  3  0  0  0  0  0  0
  192.2900  177.4460  140.3200 C   0  0  0  0  0  2  0  0  0  0  0  0
  192.1870  176.7510  139.1150 O   0  0  0  0  0  1  0  0  0  0  0  0
  1  2  1  0  0  0  0
  2  8  2  0  0  0  0
  2 20  1  0  0  0  0
  3  4  2  0  0  0  0
  4 28  1  0  0  0  0
  4 14  1  0  0  0  0
  5 11  1  0  0  0  0
  5 16  2  0  0  0  0
  6  1  1  0  0  0  0
  7 15  1  0  0  0  0
  8  5  1  0  0  0  0
  9 13  1  0  0  0  0
 10 20  1  0  0  0  0
 12 17  1  0  0  0  0
 12  9  2  0  0  0  0
 13  1  2  0  0  0  0
 13 19  1  0  0  0  0
 14  9  1  0  0  0  0
 15  6  2  0  0  0  0
 17  6  1  0  0  0  0
 18  7  1  0  0  0  0
 18 17  2  0  0  0  0
 19 10  2  0  0  0  0
 20 21  2  0  0  0  0
 21 16  1  0  0  0  0
 22 29  1  0  0  0  0
 23 28  2  0  0  0  0
 25 22  1  0  0  0  0
 26 23  1  0  0  0  0
 26 22  2  0  0  0  0
 27 24  1  0  0  0  0
 28 27  1  0  0  0  0
 29 27  2  0  0  0  0
 30  7  1  0  0  0  0
 31 30  1  0  0  0  0
M  END
>  <MODEL>
4

>  <REMARK>
 VINA RESULT:     -10.2      3.248      7.151
  Name = 
  2 active torsions:
  status: ('A' for Active; 'I' for Inactive)
    1  A    between atoms: C_2  and  N_13
    2  A    between atoms: C_9  and  C_22
                            x       y       z     vdW  Elec       q    Type
                         _______ _______ _______ _____ _____    ______ ____

>  <TORSDO>
F 2

$$$$
=
 OpenBabel10262419313D

 31 35  0  0  0  0  0  0  0  0999 V2000
  187.6870  178.0200  139.4030 C   0  0  0  0  0  0  0  0  0  0  0  0
  188.1410  177.8760  138.0740 C   0  0  0  0  0  0  0  0  0  0  0  0
  187.5750  177.9660  144.6830 O   0  0  0  0  0  0  0  0  0  0  0  0
  188.7030  177.5510  144.3040 C   0  0  0  0  0  0  0  0  0  0  0  0
  187.8310  178.0390  135.6660 C   0  0  0  0  0  0  0  0  0  0  0  0
  186.4130  178.4900  139.7550 C   0  0  0  0  0  0  0  0  0  0  0  0
  184.4110  179.2400  139.7830 N   0  0  0  0  0  0  0  0  0  0  0  0
  187.3410  178.1960  136.9640 C   0  0  0  0  0  3  0  0  0  0  0  0
  188.1150  177.8160  141.8250 C   0  0  0  0  0  0  0  0  0  0  0  0
  190.2520  177.0700  138.9050 N   0  0  0  0  0  0  0  0  0  0  0  0
  187.0490  178.3510  134.6050 F   0  0  0  0  0  0  0  0  0  0  0  0
  186.8550  178.2840  142.0890 N   0  0  0  0  0  0  0  0  0  0  0  0
  188.5520  177.6760  140.4790 C   0  0  0  0  0  0  0  0  0  0  0  0
  188.9980  177.4660  142.9020 N   0  0  0  0  0  2  0  0  0  0  0  0
  185.4000  178.8900  138.9660 N   0  0  0  0  0  0  0  0  0  0  0  0
  189.1250  177.5570  135.4590 C   0  0  0  0  0  3  0  0  0  0  0  0
  186.0390  178.6060  141.0590 C   0  0  0  0  0  0  0  0  0  0  0  0
  184.7540  179.0930  141.0860 C   0  0  0  0  0  3  0  0  0  0  0  0
  189.8360  177.2020  140.1910 C   0  0  0  0  0  3  0  0  0  0  0  0
  189.4540  177.3890  137.8530 C   0  0  0  0  0  0  0  0  0  0  0  0
  189.9350  177.2330  136.5510 C   0  0  0  0  0  3  0  0  0  0  0  0
  191.6000  176.4300  147.2790 C   0  0  0  0  0  0  0  0  0  0  0  0
  189.4490  177.3320  146.6520 C   0  0  0  0  0  3  0  0  0  0  0  0
  191.4940  176.3000  143.2710 Cl  0  0  0  0  0  0  0  0  0  0  0  0
  192.5830  176.0520  148.3270 C   0  0  0  0  0  1  0  0  0  0  0  0
  190.3710  176.9770  147.6390 C   0  0  0  0  0  3  0  0  0  0  0  0
  190.9930  176.5890  144.9320 C   0  0  0  0  0  0  0  0  0  0  0  0
  189.7370  177.1470  145.2900 C   0  0  0  0  0  0  0  0  0  0  0  0
  191.9070  176.2380  145.9310 C   0  0  0  0  0  3  0  0  0  0  0  0
  183.1420  179.7710  139.3190 C   0  0  0  0  0  2  0  0  0  0  0  0
  183.3260  181.0640  138.8290 O   0  0  0  0  0  1  0  0  0  0  0  0
  1  6  1  0  0  0  0
  1 13  1  0  0  0  0
  2  1  2  0  0  0  0
  4  3  2  0  0  0  0
  4 28  1  0  0  0  0
  5  8  2  0  0  0  0
  6 17  1  0  0  0  0
  7 18  1  0  0  0  0
  8  2  1  0  0  0  0
  9 12  2  0  0  0  0
  9 14  1  0  0  0  0
 10 19  1  0  0  0  0
 11  5  1  0  0  0  0
 13  9  1  0  0  0  0
 14  4  1  0  0  0  0
 15  6  2  0  0  0  0
 15  7  1  0  0  0  0
 16  5  1  0  0  0  0
 16 21  2  0  0  0  0
 17 18  2  0  0  0  0
 17 12  1  0  0  0  0
 19 13  2  0  0  0  0
 20  2  1  0  0  0  0
 20 10  2  0  0  0  0
 21 20  1  0  0  0  0
 22 26  1  0  0  0  0
 22 25  1  0  0  0  0
 23 26  2  0  0  0  0
 24 27  1  0  0  0  0
 27 28  2  0  0  0  0
 27 29  1  0  0  0  0
 28 23  1  0  0  0  0
 29 22  2  0  0  0  0
 30  7  1  0  0  0  0
 31 30  1  0  0  0  0
M  END
>  <MODEL>
5

>  <REMARK>
 VINA RESULT:     -10.1      3.656      7.724
  Name = 
  2 active torsions:
  status: ('A' for Active; 'I' for Inactive)
    1  A    between atoms: C_2  and  N_13
    2  A    between atoms: C_9  and  C_22
                            x       y       z     vdW  Elec       q    Type
                         _______ _______ _______ _____ _____    ______ ____

>  <TORSDO>
F 2

$$$$
=
 OpenBabel10262419313D

 31 35  0  0  0  0  0  0  0  0999 V2000
  188.5540  177.3410  144.7180 C   0  0  0  0  0  0  0  0  0  0  0  0
  187.6620  177.7640  145.7290 C   0  0  0  0  0  0  0  0  0  0  0  0
  190.5910  176.3260  139.9530 O   0  0  0  0  0  0  0  0  0  0  0  0
  189.4490  176.8330  139.7980 C   0  0  0  0  0  0  0  0  0  0  0  0
  187.0560  178.0890  148.0620 C   0  0  0  0  0  0  0  0  0  0  0  0
  189.8170  176.7820  144.9630 C   0  0  0  0  0  0  0  0  0  0  0  0
  191.6090  176.0010  145.8270 N   0  0  0  0  0  0  0  0  0  0  0  0
  187.9670  177.6580  147.0960 C   0  0  0  0  0  3  0  0  0  0  0  0
  189.0620  177.0610  142.3190 C   0  0  0  0  0  0  0  0  0  0  0  0
  186.0880  178.4290  144.0330 N   0  0  0  0  0  0  0  0  0  0  0  0
  187.3630  177.9810  149.3770 F   0  0  0  0  0  0  0  0  0  0  0  0
  190.2810  176.5250  142.6380 N   0  0  0  0  0  0  0  0  0  0  0  0
  188.1780  177.4780  143.3520 C   0  0  0  0  0  0  0  0  0  0  0  0
  188.6710  177.2060  140.9450 N   0  0  0  0  0  2  0  0  0  0  0  0
  190.4320  176.5390  146.1330 N   0  0  0  0  0  0  0  0  0  0  0  0
  185.8280  178.6290  147.6770 C   0  0  0  0  0  3  0  0  0  0  0  0
  190.6280  176.3970  143.9390 C   0  0  0  0  0  0  0  0  0  0  0  0
  191.7860  175.8980  144.4860 C   0  0  0  0  0  3  0  0  0  0  0  0
  186.9290  178.0310  143.0450 C   0  0  0  0  0  3  0  0  0  0  0  0
  186.4130  178.3140  145.3470 C   0  0  0  0  0  0  0  0  0  0  0  0
  185.5070  178.7410  146.3210 C   0  0  0  0  0  3  0  0  0  0  0  0
  187.7500  177.6000  135.9220 C   0  0  0  0  0  0  0  0  0  0  0  0
  188.0060  178.1310  138.2630 C   0  0  0  0  0  3  0  0  0  0  0  0
  190.2870  174.8590  137.3840 Cl  0  0  0  0  0  0  0  0  0  0  0  0
  187.1480  177.8870  134.5940 C   0  0  0  0  0  1  0  0  0  0  0  0
  187.4400  178.4040  137.0160 C   0  0  0  0  0  3  0  0  0  0  0  0
  189.2000  176.2410  137.3170 C   0  0  0  0  0  0  0  0  0  0  0  0
  188.8910  177.0540  138.4390 C   0  0  0  0  0  0  0  0  0  0  0  0
  188.6260  176.5250  136.0740 C   0  0  0  0  0  3  0  0  0  0  0  0
  192.6010  175.6290  146.8200 C   0  0  0  0  0  2  0  0  0  0  0  0
  192.4290  176.4050  147.9660 O   0  0  0  0  0  1  0  0  0  0  0  0
  1  6  1  0  0  0  0
  1  2  1  0  0  0  0
  2  8  1  0  0  0  0
  4  3  2  0  0  0  0
  4 14  1  0  0  0  0
  5 11  1  0  0  0  0
  6 15  2  0  0  0  0
  7 15  1  0  0  0  0
  7 30  1  0  0  0  0
  8  5  2  0  0  0  0
  9 12  2  0  0  0  0
  9 13  1  0  0  0  0
 10 20  1  0  0  0  0
 12 17  1  0  0  0  0
 13  1  2  0  0  0  0
 14  9  1  0  0  0  0
 16  5  1  0  0  0  0
 17 18  2  0  0  0  0
 17  6  1  0  0  0  0
 18  7  1  0  0  0  0
 19 13  1  0  0  0  0
 19 10  2  0  0  0  0
 20  2  2  0  0  0  0
 20 21  1  0  0  0  0
 21 16  2  0  0  0  0
 22 29  2  0  0  0  0
 22 26  1  0  0  0  0
 23 28  1  0  0  0  0
 25 22  1  0  0  0  0
 26 23  2  0  0  0  0
 27 24  1  0  0  0  0
 27 28  2  0  0  0  0
 28  4  1  0  0  0  0
 29 27  1  0  0  0  0
 30 31  1  0  0  0  0
M  END
>  <MODEL>
6

>  <REMARK>
 VINA RESULT:     -10.1      2.605      4.489
  Name = 
  2 active torsions:
  status: ('A' for Active; 'I' for Inactive)
    1  A    between atoms: C_2  and  N_13
    2  A    between atoms: C_9  and  C_22
                            x       y       z     vdW  Elec       q    Type
                         _______ _______ _______ _____ _____    ______ ____

>  <TORSDO>
F 2

$$$$
=
 OpenBabel10262419313D

 31 35  0  0  0  0  0  0  0  0999 V2000
  188.0960  177.6650  144.4550 C   0  0  0  0  0  0  0  0  0  0  0  0
  186.8330  178.0090  144.9840 C   0  0  0  0  0  0  0  0  0  0  0  0
  191.9310  176.5300  141.0070 O   0  0  0  0  0  0  0  0  0  0  0  0
  190.8730  176.7590  140.3640 C   0  0  0  0  0  0  0  0  0  0  0  0
  185.3370  178.4820  146.8440 C   0  0  0  0  0  0  0  0  0  0  0  0
  189.2380  177.4220  145.2320 C   0  0  0  0  0  0  0  0  0  0  0  0
  190.6600  177.1540  146.8060 N   0  0  0  0  0  0  0  0  0  0  0  0
  186.6030  178.1390  146.3640 C   0  0  0  0  0  3  0  0  0  0  0  0
  189.5200  177.2070  142.4920 C   0  0  0  0  0  0  0  0  0  0  0  0
  185.9460  178.1100  142.7480 N   0  0  0  0  0  0  0  0  0  0  0  0
  185.1300  178.6040  148.1770 F   0  0  0  0  0  0  0  0  0  0  0  0
  190.5900  176.9870  143.3170 N   0  0  0  0  0  0  0  0  0  0  0  0
  188.2560  177.5500  143.0450 C   0  0  0  0  0  0  0  0  0  0  0  0
  189.6680  177.0950  141.0680 N   0  0  0  0  0  2  0  0  0  0  0  0
  189.3880  177.4620  146.5680 N   0  0  0  0  0  0  0  0  0  0  0  0
  184.2840  178.6960  145.9540 C   0  0  0  0  0  3  0  0  0  0  0  0
  190.4280  177.0960  144.6560 C   0  0  0  0  0  0  0  0  0  0  0  0
  191.3490  176.9270  145.6610 C   0  0  0  0  0  3  0  0  0  0  0  0
  187.1520  177.7820  142.2170 C   0  0  0  0  0  3  0  0  0  0  0  0
  185.7570  178.2290  144.0880 C   0  0  0  0  0  0  0  0  0  0  0  0
  184.4940  178.5700  144.5780 C   0  0  0  0  0  3  0  0  0  0  0  0
  190.9450  176.4600  136.0740 C   0  0  0  0  0  0  0  0  0  0  0  0
  191.8710  175.9580  138.2470 C   0  0  0  0  0  3  0  0  0  0  0  0
  188.5280  178.2550  138.7240 Cl  0  0  0  0  0  0  0  0  0  0  0  0
  190.9940  176.3410  134.5940 C   0  0  0  0  0  1  0  0  0  0  0  0
  191.9190  175.8440  136.8560 C   0  0  0  0  0  3  0  0  0  0  0  0
  189.8620  177.3110  138.0740 C   0  0  0  0  0  0  0  0  0  0  0  0
  190.8510  176.6870  138.8800 C   0  0  0  0  0  0  0  0  0  0  0  0
  189.9230  177.1890  136.6830 C   0  0  0  0  0  3  0  0  0  0  0  0
  191.2390  177.1260  148.1370 C   0  0  0  0  0  2  0  0  0  0  0  0
  192.4280  176.3970  148.1150 O   0  0  0  0  0  1  0  0  0  0  0  0
  1  2  1  0  0  0  0
  1  6  1  0  0  0  0
  2  8  1  0  0  0  0
  4  3  2  0  0  0  0
  4 14  1  0  0  0  0
  5 11  1  0  0  0  0
  6 15  2  0  0  0  0
  7 30  1  0  0  0  0
  8  5  2  0  0  0  0
  9 13  1  0  0  0  0
  9 12  2  0  0  0  0
 10 20  1  0  0  0  0
 12 17  1  0  0  0  0
 13  1  2  0  0  0  0
 14  9  1  0  0  0  0
 15  7  1  0  0  0  0
 16  5  1  0  0  0  0
 17  6  1  0  0  0  0
 17 18  2  0  0  0  0
 18  7  1  0  0  0  0
 19 10  2  0  0  0  0
 19 13  1  0  0  0  0
 20 21  1  0  0  0  0
 20  2  2  0  0  0  0
 21 16  2  0  0  0  0
 22 29  2  0  0  0  0
 22 26  1  0  0  0  0
 23 28  1  0  0  0  0
 25 22  1  0  0  0  0
 26 23  2  0  0  0  0
 27 24  1  0  0  0  0
 27 28  2  0  0  0  0
 28  4  1  0  0  0  0
 29 27  1  0  0  0  0
 31 30  1  0  0  0  0
M  END
>  <MODEL>
7

>  <REMARK>
 VINA RESULT:      -9.5      2.422      4.252
  Name = 
  2 active torsions:
  status: ('A' for Active; 'I' for Inactive)
    1  A    between atoms: C_2  and  N_13
    2  A    between atoms: C_9  and  C_22
                            x       y       z     vdW  Elec       q    Type
                         _______ _______ _______ _____ _____    ______ ____

>  <TORSDO>
F 2

$$$$
=
 OpenBabel10262419313D

 31 35  0  0  0  0  0  0  0  0999 V2000
  187.6620  177.8860  143.9890 C   0  0  0  0  0  0  0  0  0  0  0  0
  188.9430  177.6520  143.4450 C   0  0  0  0  0  0  0  0  0  0  0  0
  182.4680  178.7740  144.3480 O   0  0  0  0  0  0  0  0  0  0  0  0
  182.7740  178.6870  143.1290 C   0  0  0  0  0  0  0  0  0  0  0  0
  191.3330  177.2520  143.6670 C   0  0  0  0  0  0  0  0  0  0  0  0
  187.3900  177.9720  145.3630 C   0  0  0  0  0  0  0  0  0  0  0  0
  187.4820  178.0160  147.4980 N   0  0  0  0  0  0  0  0  0  0  0  0
  190.0830  177.4820  144.2470 C   0  0  0  0  0  3  0  0  0  0  0  0
  185.2500  178.2840  143.6430 C   0  0  0  0  0  0  0  0  0  0  0  0
  187.9990  177.7500  141.2330 N   0  0  0  0  0  0  0  0  0  0  0  0
  192.4240  177.0900  144.4530 F   0  0  0  0  0  0  0  0  0  0  0  0
  185.0650  178.3530  144.9980 N   0  0  0  0  0  0  0  0  0  0  0  0
  186.5500  178.0500  143.1150 C   0  0  0  0  0  0  0  0  0  0  0  0
  184.1370  178.4460  142.7500 N   0  0  0  0  0  2  0  0  0  0  0  0
  188.2270  177.8540  146.4090 N   0  0  0  0  0  0  0  0  0  0  0  0
  191.4600  177.1920  142.2780 C   0  0  0  0  0  3  0  0  0  0  0  0
  186.1280  178.1980  145.8200 C   0  0  0  0  0  0  0  0  0  0  0  0
  186.1770  178.2220  147.1930 C   0  0  0  0  0  3  0  0  0  0  0  0
  186.7570  177.9740  141.7340 C   0  0  0  0  0  3  0  0  0  0  0  0
  189.0820  177.5880  142.0360 C   0  0  0  0  0  0  0  0  0  0  0  0
  190.3360  177.3590  141.4640 C   0  0  0  0  0  3  0  0  0  0  0  0
  179.9010  179.1160  139.9570 C   0  0  0  0  0  0  0  0  0  0  0  0
  182.1800  178.9930  140.7470 C   0  0  0  0  0  3  0  0  0  0  0  0
  179.6460  178.6200  143.9290 Cl  0  0  0  0  0  0  0  0  0  0  0  0
  178.9310  179.2660  138.8420 C   0  0  0  0  0  1  0  0  0  0  0  0
  181.2700  179.1340  139.6980 C   0  0  0  0  0  3  0  0  0  0  0  0
  180.3440  178.8130  142.3250 C   0  0  0  0  0  0  0  0  0  0  0  0
  181.7410  178.8310  142.0720 C   0  0  0  0  0  0  0  0  0  0  0  0
  179.4430  178.9560  141.2650 C   0  0  0  0  0  3  0  0  0  0  0  0
  188.0090  177.9200  148.8480 C   0  0  0  0  0  2  0  0  0  0  0  0
  189.3630  178.2520  148.8460 O   0  0  0  0  0  1  0  0  0  0  0  0
  1  6  1  0  0  0  0
  2  1  1  0  0  0  0
  2  8  1  0  0  0  0
  4  3  2  0  0  0  0
  5  8  2  0  0  0  0
  5 11  1  0  0  0  0
  6 17  1  0  0  0  0
  6 15  2  0  0  0  0
  7 30  1  0  0  0  0
  9 12  2  0  0  0  0
 10 19  2  0  0  0  0
 10 20  1  0  0  0  0
 12 17  1  0  0  0  0
 13  9  1  0  0  0  0
 13  1  2  0  0  0  0
 14  4  1  0  0  0  0
 14  9  1  0  0  0  0
 15  7  1  0  0  0  0
 16  5  1  0  0  0  0
 17 18  2  0  0  0  0
 18  7  1  0  0  0  0
 19 13  1  0  0  0  0
 20  2  2  0  0  0  0
 21 20  1  0  0  0  0
 21 16  2  0  0  0  0
 22 29  1  0  0  0  0
 23 28  2  0  0  0  0
 25 22  1  0  0  0  0
 26 22  2  0  0  0  0
 26 23  1  0  0  0  0
 27 24  1  0  0  0  0
 28 27  1  0  0  0  0
 28  4  1  0  0  0  0
 29 27  2  0  0  0  0
 31 30  1  0  0  0  0
M  END
>  <MODEL>
8

>  <REMARK>
 VINA RESULT:      -9.3      4.118      7.677
  Name = 
  2 active torsions:
  status: ('A' for Active; 'I' for Inactive)
    1  A    between atoms: C_2  and  N_13
    2  A    between atoms: C_9  and  C_22
                            x       y       z     vdW  Elec       q    Type
                         _______ _______ _______ _____ _____    ______ ____

>  <TORSDO>
F 2

$$$$
=
 OpenBabel10262419313D

 31 35  0  0  0  0  0  0  0  0999 V2000
  187.1920  177.9050  143.0470 C   0  0  0  0  0  0  0  0  0  0  0  0
  187.2310  177.8520  144.4580 C   0  0  0  0  0  0  0  0  0  0  0  0
  188.6720  177.5680  137.9880 O   0  0  0  0  0  0  0  0  0  0  0  0
  189.6480  177.2350  138.7120 C   0  0  0  0  0  0  0  0  0  0  0  0
  186.2060  178.1190  146.6480 C   0  0  0  0  0  0  0  0  0  0  0  0
  186.0670  178.2870  142.3020 C   0  0  0  0  0  0  0  0  0  0  0  0
  184.1390  178.9220  141.6310 N   0  0  0  0  0  0  0  0  0  0  0  0
  186.1250  178.1850  145.2550 C   0  0  0  0  0  3  0  0  0  0  0  0
  188.3340  177.5980  140.8810 C   0  0  0  0  0  0  0  0  0  0  0  0
  189.5220  177.1210  144.3470 N   0  0  0  0  0  0  0  0  0  0  0  0
  185.1310  178.4430  147.4050 F   0  0  0  0  0  0  0  0  0  0  0  0
  187.1960  177.9800  140.2240 N   0  0  0  0  0  0  0  0  0  0  0  0
  188.3530  177.5530  142.3020 C   0  0  0  0  0  0  0  0  0  0  0  0
  189.5120  177.2400  140.1410 N   0  0  0  0  0  2  0  0  0  0  0  0
  184.8470  178.6600  142.7250 N   0  0  0  0  0  0  0  0  0  0  0  0
  187.3960  177.7210  147.2620 C   0  0  0  0  0  3  0  0  0  0  0  0
  186.0980  178.3140  140.9410 C   0  0  0  0  0  0  0  0  0  0  0  0
  184.8600  178.7160  140.5010 C   0  0  0  0  0  3  0  0  0  0  0  0
  189.5080  177.1630  142.9900 C   0  0  0  0  0  3  0  0  0  0  0  0
  188.4340  177.4490  145.0900 C   0  0  0  0  0  0  0  0  0  0  0  0
  188.5070  177.3870  146.4840 C   0  0  0  0  0  3  0  0  0  0  0  0
  193.3210  176.0350  136.8230 C   0  0  0  0  0  0  0  0  0  0  0  0
  190.9280  176.3540  136.7870 C   0  0  0  0  0  3  0  0  0  0  0  0
  192.3650  177.4880  140.4380 Cl  0  0  0  0  0  0  0  0  0  0  0  0
  194.5750  175.6140  136.1470 C   0  0  0  0  0  1  0  0  0  0  0  0
  192.1050  175.9580  136.1490 C   0  0  0  0  0  3  0  0  0  0  0  0
  192.1890  176.9100  138.7860 C   0  0  0  0  0  0  0  0  0  0  0  0
  190.9440  176.8350  138.1070 C   0  0  0  0  0  0  0  0  0  0  0  0
  193.3600  176.5090  138.1350 C   0  0  0  0  0  3  0  0  0  0  0  0
  182.7440  179.3220  141.6580 C   0  0  0  0  0  2  0  0  0  0  0  0
  182.1520  178.8760  142.8390 O   0  0  0  0  0  1  0  0  0  0  0  0
  1  2  1  0  0  0  0
  2 20  2  0  0  0  0
  2  8  1  0  0  0  0
  3  4  2  0  0  0  0
  4 14  1  0  0  0  0
  5 16  1  0  0  0  0
  5 11  1  0  0  0  0
  6 15  2  0  0  0  0
  6  1  1  0  0  0  0
  7 30  1  0  0  0  0
  7 15  1  0  0  0  0
  8  5  2  0  0  0  0
  9 13  1  0  0  0  0
 10 20  1  0  0  0  0
 12  9  2  0  0  0  0
 12 17  1  0  0  0  0
 13 19  1  0  0  0  0
 13  1  2  0  0  0  0
 14  9  1  0  0  0  0
 17  6  1  0  0  0  0
 18 17  2  0  0  0  0
 18  7  1  0  0  0  0
 19 10  2  0  0  0  0
 20 21  1  0  0  0  0
 21 16  2  0  0  0  0
 22 29  1  0  0  0  0
 23 28  2  0  0  0  0
 25 22  1  0  0  0  0
 26 23  1  0  0  0  0
 26 22  2  0  0  0  0
 27 24  1  0  0  0  0
 28  4  1  0  0  0  0
 28 27  1  0  0  0  0
 29 27  2  0  0  0  0
 30 31  1  0  0  0  0
M  END
>  <MODEL>
9

>  <REMARK>
 VINA RESULT:      -9.2      1.533      1.961
  Name = 
  2 active torsions:
  status: ('A' for Active; 'I' for Inactive)
    1  A    between atoms: C_2  and  N_13
    2  A    between atoms: C_9  and  C_22
                            x       y       z     vdW  Elec       q    Type
                         _______ _______ _______ _____ _____    ______ ____

>  <TORSDO>
F 2

$$$$
