=
 OpenBabel10262420023D

 27 30  0  0  1  0  0  0  0  0999 V2000
  182.7330  180.2910  138.8760 C   0  0  0  0  0  2  0  0  0  0  0  0
  184.2920  178.9620  140.4960 C   0  0  0  0  0  0  0  0  0  0  0  0
  182.1230  178.9850  141.5650 O   0  0  0  0  0  0  0  0  0  0  0  0
  186.3300  178.4500  144.0860 C   0  0  0  0  0  3  0  0  0  0  0  0
  186.4100  178.1640  146.5650 C   0  0  0  0  0  1  0  0  0  0  0  0
  185.6450  178.8730  140.5680 N   0  0  0  0  0  0  0  0  0  0  0  0
  183.5430  178.5920  144.1380 C   0  0  0  0  0  3  0  0  0  0  0  0
  180.0270  180.9410  141.7730 N   0  0  0  0  0  2  0  0  0  0  0  0
  184.2560  178.4190  145.3270 C   0  0  0  0  0  3  0  0  0  0  0  0
  178.9310  181.3080  140.8850 C   0  0  0  0  0  2  0  0  0  0  0  0
  183.5220  178.8770  141.6760 C   0  0  0  0  0  0  0  0  0  0  0  0
  183.6840  179.1000  139.1250 C   0  0  1  0  0  3  0  0  0  0  0  0
  185.6500  178.3490  145.3020 C   0  0  0  0  0  0  0  0  0  0  0  0
  185.6170  178.6230  142.8960 C   0  0  0  0  0  0  0  0  0  0  0  0
  181.2620  179.9350  138.9830 C   0  0  0  0  0  2  0  0  0  0  0  0
  184.2070  178.7000  142.9060 C   0  0  0  0  0  0  0  0  0  0  0  0
  179.8630  179.5470  142.1570 C   0  0  0  0  0  2  0  0  0  0  0  0
  186.2880  178.7140  141.7230 N   0  0  0  0  0  0  0  0  0  0  0  0
  179.1450  180.7560  139.4770 C   0  0  0  0  0  2  0  0  0  0  0  0
  180.4520  181.1390  138.9660 N   0  0  0  0  0  2  0  0  0  0  0  0
  181.1930  178.9990  142.6400 C   0  0  0  0  0  2  0  0  0  0  0  0
  183.7740  175.0030  137.9020 C   0  0  0  0  0  2  0  0  0  0  0  0
  183.4090  177.8160  138.4580 N   0  0  0  0  0  0  0  0  0  0  0  0
  183.0370  176.8080  139.4560 C   0  0  0  0  0  2  0  0  0  0  0  0
  182.6230  175.5140  138.7620 C   0  0  0  0  0  2  0  0  0  0  0  0
  184.2200  176.0840  136.9240 C   0  0  0  0  0  2  0  0  0  0  0  0
  184.5710  177.3550  137.6930 C   0  0  0  0  0  2  0  0  0  0  0  0
  1 15  1  0  0  0  0
  1 12  1  0  0  0  0
  2  6  2  0  0  0  0
  2 11  1  0  0  0  0
  3 11  1  0  0  0  0
  3 21  1  0  0  0  0
  4 13  2  0  0  0  0
  6 18  1  0  0  0  0
  7  9  2  0  0  0  0
  8 17  1  0  0  0  0
 10  8  1  0  0  0  0
 11 16  2  0  0  0  0
 12 23  1  1  0  0  0
 12  2  1  0  0  0  0
 13  9  1  0  0  0  0
 13  5  1  0  0  0  0
 14 16  1  0  0  0  0
 14  4  1  0  0  0  0
 16  7  1  0  0  0  0
 17 21  1  0  0  0  0
 18 14  2  0  0  0  0
 19 10  1  0  0  0  0
 20 15  1  0  0  0  0
 20 19  1  0  0  0  0
 22 25  1  0  0  0  0
 23 24  1  0  0  0  0
 25 24  1  0  0  0  0
 26 27  1  0  0  0  0
 26 22  1  0  0  0  0
 27 23  1  0  0  0  0
M  END
>  <MODEL>
1

>  <REMARK>
 VINA RESULT:      -8.1      0.000      0.000
  Name = 
  1 active torsions:
  status: ('A' for Active; 'I' for Inactive)
    1  A    between atoms: N_9  and  C_15
                            x       y       z     vdW  Elec       q    Type
                         _______ _______ _______ _____ _____    ______ ____

>  <TORSDO>
F 1

$$$$
=
 OpenBabel10262420023D

 27 30  0  0  1  0  0  0  0  0999 V2000
  184.6500  179.7310  143.1040 C   0  0  0  0  0  2  0  0  0  0  0  0
  186.0520  178.6540  141.1820 C   0  0  0  0  0  0  0  0  0  0  0  0
  186.6860  177.4610  143.1870 O   0  0  0  0  0  0  0  0  0  0  0  0
  189.6290  177.7910  139.2420 C   0  0  0  0  0  3  0  0  0  0  0  0
  191.8880  176.7340  139.1310 C   0  0  0  0  0  1  0  0  0  0  0  0
  186.3290  179.0830  139.9230 N   0  0  0  0  0  0  0  0  0  0  0  0
  189.2350  176.8040  141.8230 C   0  0  0  0  0  3  0  0  0  0  0  0
  187.0930  178.2420  145.9240 N   0  0  0  0  0  2  0  0  0  0  0  0
  190.4250  176.5300  141.1440 C   0  0  0  0  0  3  0  0  0  0  0  0
  186.1750  178.4290  147.0410 C   0  0  0  0  0  2  0  0  0  0  0  0
  187.0020  177.8780  141.8810 C   0  0  0  0  0  0  0  0  0  0  0  0
  184.6980  179.0000  141.7440 C   0  0  1  0  0  3  0  0  0  0  0  0
  190.6230  177.0240  139.8540 C   0  0  0  0  0  0  0  0  0  0  0  0
  188.4380  178.0650  139.9200 C   0  0  0  0  0  0  0  0  0  0  0  0
  184.3890  178.8150  144.2850 C   0  0  0  0  0  2  0  0  0  0  0  0
  188.2240  177.5750  141.2280 C   0  0  0  0  0  0  0  0  0  0  0  0
  187.0140  176.8550  145.4900 C   0  0  0  0  0  2  0  0  0  0  0  0
  187.4790  178.8040  139.3130 N   0  0  0  0  0  0  0  0  0  0  0  0
  184.7270  178.5210  146.5640 C   0  0  0  0  0  2  0  0  0  0  0  0
  184.5870  179.5340  145.5290 N   0  0  0  0  0  2  0  0  0  0  0  0
  187.5380  176.7430  144.0700 C   0  0  0  0  0  2  0  0  0  0  0  0
  181.4040  176.9520  139.9440 C   0  0  0  0  0  2  0  0  0  0  0  0
  183.6450  178.0220  141.4220 N   0  0  0  0  0  0  0  0  0  0  0  0
  183.8260  177.5300  140.0530 C   0  0  0  0  0  2  0  0  0  0  0  0
  182.8210  176.4200  139.7590 C   0  0  0  0  0  2  0  0  0  0  0  0
  181.2420  177.5450  141.3390 C   0  0  0  0  0  2  0  0  0  0  0  0
  182.3110  178.6100  141.5680 C   0  0  0  0  0  2  0  0  0  0  0  0
  1 15  1  0  0  0  0
  2 12  1  0  0  0  0
  2 11  1  0  0  0  0
  3 21  1  0  0  0  0
  4 13  2  0  0  0  0
  4 14  1  0  0  0  0
  5 13  1  0  0  0  0
  6  2  2  0  0  0  0
  8 10  1  0  0  0  0
  9  7  2  0  0  0  0
 11  3  1  0  0  0  0
 12 23  1  1  0  0  0
 12  1  1  0  0  0  0
 13  9  1  0  0  0  0
 14 16  1  0  0  0  0
 15 20  1  0  0  0  0
 16  7  1  0  0  0  0
 16 11  2  0  0  0  0
 17  8  1  0  0  0  0
 18 14  2  0  0  0  0
 18  6  1  0  0  0  0
 19 10  1  0  0  0  0
 20 19  1  0  0  0  0
 21 17  1  0  0  0  0
 22 26  1  0  0  0  0
 23 27  1  0  0  0  0
 24 23  1  0  0  0  0
 25 22  1  0  0  0  0
 25 24  1  0  0  0  0
 26 27  1  0  0  0  0
M  END
>  <MODEL>
2

>  <REMARK>
 VINA RESULT:      -7.3      3.321      5.940
  Name = 
  1 active torsions:
  status: ('A' for Active; 'I' for Inactive)
    1  A    between atoms: N_9  and  C_15
                            x       y       z     vdW  Elec       q    Type
                         _______ _______ _______ _____ _____    ______ ____

>  <TORSDO>
F 1

$$$$
=
 OpenBabel10262420023D

 27 30  0  0  1  0  0  0  0  0999 V2000
  191.9560  177.4140  139.0840 C   0  0  0  0  0  2  0  0  0  0  0  0
  189.3460  177.4770  139.1420 C   0  0  0  0  0  0  0  0  0  0  0  0
  189.9140  175.4210  138.0030 O   0  0  0  0  0  0  0  0  0  0  0  0
  185.6060  177.7300  137.3380 C   0  0  0  0  0  3  0  0  0  0  0  0
  183.8200  176.8780  135.8160 C   0  0  0  0  0  1  0  0  0  0  0  0
  188.4780  178.4920  139.3870 N   0  0  0  0  0  0  0  0  0  0  0  0
  187.2440  175.5570  136.7210 C   0  0  0  0  0  3  0  0  0  0  0  0
  191.9740  174.6810  136.1390 N   0  0  0  0  0  2  0  0  0  0  0  0
  185.9820  175.6700  136.1330 C   0  0  0  0  0  3  0  0  0  0  0  0
  193.3610  174.2680  136.3170 C   0  0  0  0  0  2  0  0  0  0  0  0
  188.9850  176.4510  138.2420 C   0  0  0  0  0  0  0  0  0  0  0  0
  190.6470  177.4870  139.9000 C   0  0  1  0  0  3  0  0  0  0  0  0
  185.1630  176.7570  136.4410 C   0  0  0  0  0  0  0  0  0  0  0  0
  186.8690  177.6180  137.9280 C   0  0  0  0  0  0  0  0  0  0  0  0
  192.5520  176.0210  139.0020 C   0  0  0  0  0  2  0  0  0  0  0  0
  187.7110  176.5250  137.6230 C   0  0  0  0  0  0  0  0  0  0  0  0
  191.1150  173.7160  136.8080 C   0  0  0  0  0  2  0  0  0  0  0  0
  187.2850  178.5660  138.8010 N   0  0  0  0  0  0  0  0  0  0  0  0
  193.8640  174.5940  137.7210 C   0  0  0  0  0  2  0  0  0  0  0  0
  193.6370  175.9960  138.0380 N   0  0  0  0  0  2  0  0  0  0  0  0
  189.7640  174.3490  137.0810 C   0  0  0  0  0  2  0  0  0  0  0  0
  190.1520  176.6360  144.0620 C   0  0  0  0  0  2  0  0  0  0  0  0
  190.5850  176.8150  141.2100 N   0  0  0  0  0  0  0  0  0  0  0  0
  189.2320  176.9330  141.7640 C   0  0  0  0  0  2  0  0  0  0  0  0
  189.1250  176.1280  143.0550 C   0  0  0  0  0  2  0  0  0  0  0  0
  191.5490  176.5970  143.4530 C   0  0  0  0  0  2  0  0  0  0  0  0
  191.5580  177.3850  142.1460 C   0  0  0  0  0  2  0  0  0  0  0  0
  2  6  1  0  0  0  0
  2 12  1  0  0  0  0
  3 11  1  0  0  0  0
  4 14  1  0  0  0  0
  5 13  1  0  0  0  0
  7 16  1  0  0  0  0
  8 10  1  0  0  0  0
  8 17  1  0  0  0  0
  9 13  1  0  0  0  0
  9  7  2  0  0  0  0
 10 19  1  0  0  0  0
 11  2  2  0  0  0  0
 12  1  1  6  0  0  0
 12 23  1  0  0  0  0
 13  4  2  0  0  0  0
 14 18  1  0  0  0  0
 15  1  1  0  0  0  0
 16 14  2  0  0  0  0
 16 11  1  0  0  0  0
 17 21  1  0  0  0  0
 18  6  2  0  0  0  0
 19 20  1  0  0  0  0
 20 15  1  0  0  0  0
 21  3  1  0  0  0  0
 23 24  1  0  0  0  0
 23 27  1  0  0  0  0
 24 25  1  0  0  0  0
 25 22  1  0  0  0  0
 26 22  1  0  0  0  0
 27 26  1  0  0  0  0
M  END
>  <MODEL>
3

>  <REMARK>
 VINA RESULT:      -7.2      5.756      9.897
  Name = 
  1 active torsions:
  status: ('A' for Active; 'I' for Inactive)
    1  A    between atoms: N_9  and  C_15
                            x       y       z     vdW  Elec       q    Type
                         _______ _______ _______ _____ _____    ______ ____

>  <TORSDO>
F 1

$$$$
=
 OpenBabel10262420023D

 27 30  0  0  1  0  0  0  0  0999 V2000
  180.8380  178.0360  138.7410 C   0  0  0  0  0  2  0  0  0  0  0  0
  181.5170  179.0160  141.0650 C   0  0  0  0  0  0  0  0  0  0  0  0
  183.5830  178.8110  139.8250 O   0  0  0  0  0  0  0  0  0  0  0  0
  183.4260  178.8140  144.7560 C   0  0  0  0  0  3  0  0  0  0  0  0
  185.4610  178.6210  146.1880 C   0  0  0  0  0  1  0  0  0  0  0  0
  180.8470  179.0770  142.2450 N   0  0  0  0  0  0  0  0  0  0  0  0
  184.9770  178.6920  142.4390 C   0  0  0  0  0  3  0  0  0  0  0  0
  184.6040  176.8720  137.9650 N   0  0  0  0  0  2  0  0  0  0  0  0
  185.5880  178.6290  143.6940 C   0  0  0  0  0  3  0  0  0  0  0  0
  184.4190  176.6920  136.5290 C   0  0  0  0  0  2  0  0  0  0  0  0
  182.9230  178.8830  141.0660 C   0  0  0  0  0  0  0  0  0  0  0  0
  180.7040  179.1490  139.8040 C   0  0  1  0  0  3  0  0  0  0  0  0
  184.8130  178.6890  144.8530 C   0  0  0  0  0  0  0  0  0  0  0  0
  182.8130  178.8790  143.5010 C   0  0  0  0  0  0  0  0  0  0  0  0
  181.7890  178.3800  137.6100 C   0  0  0  0  0  2  0  0  0  0  0  0
  183.5840  178.8150  142.3190 C   0  0  0  0  0  0  0  0  0  0  0  0
  185.2240  178.1690  138.1910 C   0  0  0  0  0  2  0  0  0  0  0  0
  181.4670  179.0070  143.4200 N   0  0  0  0  0  0  0  0  0  0  0  0
  183.2300  177.5000  136.0140 C   0  0  0  0  0  2  0  0  0  0  0  0
  182.0340  177.2080  136.7890 N   0  0  0  0  0  2  0  0  0  0  0  0
  184.9750  178.6020  139.6240 C   0  0  0  0  0  2  0  0  0  0  0  0
  180.0320  182.6530  137.4470 C   0  0  0  0  0  2  0  0  0  0  0  0
  180.5050  180.5390  139.3610 N   0  0  0  0  0  0  0  0  0  0  0  0
  179.1990  180.6700  138.7070 C   0  0  0  0  0  2  0  0  0  0  0  0
  178.9310  182.1320  138.3650 C   0  0  0  0  0  2  0  0  0  0  0  0
  181.3980  182.4350  138.0890 C   0  0  0  0  0  2  0  0  0  0  0  0
  181.5670  180.9600  138.4410 C   0  0  0  0  0  2  0  0  0  0  0  0
  2 11  2  0  0  0  0
  2  6  1  0  0  0  0
  3 11  1  0  0  0  0
  4 13  1  0  0  0  0
  6 18  2  0  0  0  0
  7  9  1  0  0  0  0
  8 17  1  0  0  0  0
  9 13  2  0  0  0  0
 10  8  1  0  0  0  0
 11 16  1  0  0  0  0
 12  1  1  6  0  0  0
 12  2  1  0  0  0  0
 13  5  1  0  0  0  0
 14  4  2  0  0  0  0
 15  1  1  0  0  0  0
 16  7  2  0  0  0  0
 16 14  1  0  0  0  0
 17 21  1  0  0  0  0
 18 14  1  0  0  0  0
 19 10  1  0  0  0  0
 19 20  1  0  0  0  0
 20 15  1  0  0  0  0
 21  3  1  0  0  0  0
 22 26  1  0  0  0  0
 22 25  1  0  0  0  0
 23 12  1  0  0  0  0
 24 23  1  0  0  0  0
 25 24  1  0  0  0  0
 26 27  1  0  0  0  0
 27 23  1  0  0  0  0
M  END
>  <MODEL>
4

>  <REMARK>
 VINA RESULT:      -7.1      1.862      4.800
  Name = 
  1 active torsions:
  status: ('A' for Active; 'I' for Inactive)
    1  A    between atoms: N_9  and  C_15
                            x       y       z     vdW  Elec       q    Type
                         _______ _______ _______ _____ _____    ______ ____

>  <TORSDO>
F 1

$$$$
=
 OpenBabel10262420023D

 27 30  0  0  1  0  0  0  0  0999 V2000
  189.4310  178.3050  139.1910 C   0  0  0  0  0  2  0  0  0  0  0  0
  186.8770  178.4260  139.7240 C   0  0  0  0  0  0  0  0  0  0  0  0
  187.1060  176.6820  138.0650 O   0  0  0  0  0  0  0  0  0  0  0  0
  182.9160  179.2020  138.7180 C   0  0  0  0  0  3  0  0  0  0  0  0
  180.8480  178.7840  137.3840 C   0  0  0  0  0  1  0  0  0  0  0  0
  186.1330  179.3780  140.3440 N   0  0  0  0  0  0  0  0  0  0  0  0
  184.2760  177.1910  137.3410 C   0  0  0  0  0  3  0  0  0  0  0  0
  188.7720  176.3470  135.7460 N   0  0  0  0  0  2  0  0  0  0  0  0
  182.9440  177.4750  137.0280 C   0  0  0  0  0  3  0  0  0  0  0  0
  190.1370  175.8650  135.5760 C   0  0  0  0  0  2  0  0  0  0  0  0
  186.3020  177.6510  138.6930 C   0  0  0  0  0  0  0  0  0  0  0  0
  188.2830  178.2190  140.2220 C   0  0  1  0  0  3  0  0  0  0  0  0
  182.2640  178.4810  137.7160 C   0  0  0  0  0  0  0  0  0  0  0  0
  184.2480  178.9190  139.0330 C   0  0  0  0  0  0  0  0  0  0  0  0
  189.9070  176.9540  138.6900 C   0  0  0  0  0  2  0  0  0  0  0  0
  184.9500  177.9060  138.3440 C   0  0  0  0  0  0  0  0  0  0  0  0
  187.9720  175.2750  136.3190 C   0  0  0  0  0  2  0  0  0  0  0  0
  184.8670  179.6210  140.0110 N   0  0  0  0  0  0  0  0  0  0  0  0
  190.8880  175.8350  136.9060 C   0  0  0  0  0  2  0  0  0  0  0  0
  190.8130  177.1280  137.5690 N   0  0  0  0  0  2  0  0  0  0  0  0
  186.7310  175.8630  136.9640 C   0  0  0  0  0  2  0  0  0  0  0  0
  189.0240  176.3970  144.0190 C   0  0  0  0  0  2  0  0  0  0  0  0
  188.3930  177.2590  141.3330 N   0  0  0  0  0  0  0  0  0  0  0  0
  187.5880  177.7210  142.4690 C   0  0  0  0  0  2  0  0  0  0  0  0
  187.5910  176.6680  143.5730 C   0  0  0  0  0  2  0  0  0  0  0  0
  189.8820  176.0030  142.8220 C   0  0  0  0  0  2  0  0  0  0  0  0
  189.7870  177.0840  141.7480 C   0  0  0  0  0  2  0  0  0  0  0  0
  2 12  1  0  0  0  0
  2  6  1  0  0  0  0
  3 11  1  0  0  0  0
  4 14  1  0  0  0  0
  5 13  1  0  0  0  0
  7 16  1  0  0  0  0
  8 17  1  0  0  0  0
  9  7  2  0  0  0  0
  9 13  1  0  0  0  0
 10  8  1  0  0  0  0
 10 19  1  0  0  0  0
 11  2  2  0  0  0  0
 12  1  1  6  0  0  0
 12 23  1  0  0  0  0
 13  4  2  0  0  0  0
 14 18  1  0  0  0  0
 15  1  1  0  0  0  0
 16 11  1  0  0  0  0
 16 14  2  0  0  0  0
 17 21  1  0  0  0  0
 18  6  2  0  0  0  0
 19 20  1  0  0  0  0
 20 15  1  0  0  0  0
 21  3  1  0  0  0  0
 23 27  1  0  0  0  0
 23 24  1  0  0  0  0
 24 25  1  0  0  0  0
 25 22  1  0  0  0  0
 26 22  1  0  0  0  0
 27 26  1  0  0  0  0
M  END
>  <MODEL>
5

>  <REMARK>
 VINA RESULT:      -6.8      3.782      7.953
  Name = 
  1 active torsions:
  status: ('A' for Active; 'I' for Inactive)
    1  A    between atoms: N_9  and  C_15
                            x       y       z     vdW  Elec       q    Type
                         _______ _______ _______ _____ _____    ______ ____

>  <TORSDO>
F 1

$$$$
=
 OpenBabel10262420023D

 27 30  0  0  1  0  0  0  0  0999 V2000
  188.1560  178.9630  140.0020 C   0  0  0  0  0  2  0  0  0  0  0  0
  189.8310  177.7320  141.5830 C   0  0  0  0  0  0  0  0  0  0  0  0
  187.6400  177.3210  142.5210 O   0  0  0  0  0  0  0  0  0  0  0  0
  191.7630  177.1810  145.2250 C   0  0  0  0  0  3  0  0  0  0  0  0
  191.7780  176.6670  147.6680 C   0  0  0  0  0  1  0  0  0  0  0  0
  191.1770  177.8420  141.7260 N   0  0  0  0  0  0  0  0  0  0  0  0
  188.9890  176.8950  145.1270 C   0  0  0  0  0  3  0  0  0  0  0  0
  185.2570  178.9070  142.7820 N   0  0  0  0  0  2  0  0  0  0  0  0
  189.6680  176.7150  146.3350 C   0  0  0  0  0  3  0  0  0  0  0  0
  184.1570  179.1900  141.8680 C   0  0  0  0  0  2  0  0  0  0  0  0
  189.0330  177.4150  142.7040 C   0  0  0  0  0  0  0  0  0  0  0  0
  189.2700  177.9110  140.1970 C   0  0  1  0  0  3  0  0  0  0  0  0
  191.0550  176.8580  146.3850 C   0  0  0  0  0  0  0  0  0  0  0  0
  191.0860  177.3610  144.0160 C   0  0  0  0  0  0  0  0  0  0  0  0
  186.7550  178.3800  139.9890 C   0  0  0  0  0  2  0  0  0  0  0  0
  189.6820  177.2220  143.9510 C   0  0  0  0  0  0  0  0  0  0  0  0
  185.2960  177.4740  143.0280 C   0  0  0  0  0  2  0  0  0  0  0  0
  191.7850  177.6680  142.8980 N   0  0  0  0  0  0  0  0  0  0  0  0
  184.5170  178.8190  140.4310 C   0  0  0  0  0  2  0  0  0  0  0  0
  185.7700  179.4440  140.0350 N   0  0  0  0  0  2  0  0  0  0  0  0
  186.6720  177.0880  143.5360 C   0  0  0  0  0  2  0  0  0  0  0  0
  189.5670  175.0460  137.0360 C   0  0  0  0  0  2  0  0  0  0  0  0
  189.2280  176.6720  139.4010 N   0  0  0  0  0  0  0  0  0  0  0  0
  190.5710  176.3550  138.9050 C   0  0  0  0  0  2  0  0  0  0  0  0
  190.5590  175.0060  138.1930 C   0  0  0  0  0  2  0  0  0  0  0  0
  188.1890  175.4630  137.5380 C   0  0  0  0  0  2  0  0  0  0  0  0
  188.2970  176.7950  138.2760 C   0  0  0  0  0  2  0  0  0  0  0  0
  1 12  1  0  0  0  0
  2  6  2  0  0  0  0
  2 11  1  0  0  0  0
  3 11  1  0  0  0  0
  3 21  1  0  0  0  0
  4 13  2  0  0  0  0
  6 18  1  0  0  0  0
  7  9  2  0  0  0  0
  8 17  1  0  0  0  0
  9 13  1  0  0  0  0
 10  8  1  0  0  0  0
 11 16  2  0  0  0  0
 12 23  1  1  0  0  0
 12  2  1  0  0  0  0
 13  5  1  0  0  0  0
 14  4  1  0  0  0  0
 15  1  1  0  0  0  0
 15 20  1  0  0  0  0
 16 14  1  0  0  0  0
 16  7  1  0  0  0  0
 17 21  1  0  0  0  0
 18 14  2  0  0  0  0
 19 10  1  0  0  0  0
 20 19  1  0  0  0  0
 22 26  1  0  0  0  0
 22 25  1  0  0  0  0
 24 23  1  0  0  0  0
 25 24  1  0  0  0  0
 26 27  1  0  0  0  0
 27 23  1  0  0  0  0
M  END
>  <MODEL>
6

>  <REMARK>
 VINA RESULT:      -6.2      4.201      5.834
  Name = 
  1 active torsions:
  status: ('A' for Active; 'I' for Inactive)
    1  A    between atoms: N_9  and  C_15
                            x       y       z     vdW  Elec       q    Type
                         _______ _______ _______ _____ _____    ______ ____

>  <TORSDO>
F 1

$$$$
=
 OpenBabel10262420023D

 27 30  0  0  1  0  0  0  0  0999 V2000
  188.3580  178.4730  138.4870 C   0  0  0  0  0  2  0  0  0  0  0  0
  189.8240  177.3860  140.3550 C   0  0  0  0  0  0  0  0  0  0  0  0
  187.5760  177.4330  141.2460 O   0  0  0  0  0  0  0  0  0  0  0  0
  191.5810  177.3350  144.1250 C   0  0  0  0  0  3  0  0  0  0  0  0
  191.4710  177.3150  146.6190 C   0  0  0  0  0  1  0  0  0  0  0  0
  191.1690  177.3590  140.5400 N   0  0  0  0  0  0  0  0  0  0  0  0
  188.7960  177.3700  143.9480 C   0  0  0  0  0  3  0  0  0  0  0  0
  185.4090  179.3150  141.0810 N   0  0  0  0  0  2  0  0  0  0  0  0
  189.4170  177.3510  145.2000 C   0  0  0  0  0  3  0  0  0  0  0  0
  184.3760  179.5420  140.0770 C   0  0  0  0  0  2  0  0  0  0  0  0
  188.9640  177.3930  141.4750 C   0  0  0  0  0  0  0  0  0  0  0  0
  189.3230  177.3540  138.9350 C   0  0  1  0  0  3  0  0  0  0  0  0
  190.8100  177.3350  145.2890 C   0  0  0  0  0  0  0  0  0  0  0  0
  190.9620  177.3530  142.8720 C   0  0  0  0  0  0  0  0  0  0  0  0
  186.8950  178.0710  138.5180 C   0  0  0  0  0  2  0  0  0  0  0  0
  189.5530  177.3740  142.7660 C   0  0  0  0  0  0  0  0  0  0  0  0
  185.2580  177.9630  141.6000 C   0  0  0  0  0  2  0  0  0  0  0  0
  191.7210  177.3480  141.7510 N   0  0  0  0  0  0  0  0  0  0  0  0
  184.7210  178.8540  138.7570 C   0  0  0  0  0  2  0  0  0  0  0  0
  186.0520  179.2340  138.3100 N   0  0  0  0  0  2  0  0  0  0  0  0
  186.5620  177.5230  142.2390 C   0  0  0  0  0  2  0  0  0  0  0  0
  189.0990  173.9650  136.3350 C   0  0  0  0  0  2  0  0  0  0  0  0
  189.1440  175.9970  138.3910 N   0  0  0  0  0  0  0  0  0  0  0  0
  190.3920  175.5400  137.7720 C   0  0  0  0  0  2  0  0  0  0  0  0
  190.2530  174.0880  137.3250 C   0  0  0  0  0  2  0  0  0  0  0  0
  187.8190  174.5220  136.9480 C   0  0  0  0  0  2  0  0  0  0  0  0
  188.0560  175.9580  137.4090 C   0  0  0  0  0  2  0  0  0  0  0  0
  1 15  1  0  0  0  0
  1 12  1  0  0  0  0
  2  6  2  0  0  0  0
  2 11  1  0  0  0  0
  3 11  1  0  0  0  0
  3 21  1  0  0  0  0
  4 13  2  0  0  0  0
  6 18  1  0  0  0  0
  7  9  2  0  0  0  0
  8 17  1  0  0  0  0
  9 13  1  0  0  0  0
 10  8  1  0  0  0  0
 11 16  2  0  0  0  0
 12 23  1  1  0  0  0
 12  2  1  0  0  0  0
 13  5  1  0  0  0  0
 14  4  1  0  0  0  0
 16 14  1  0  0  0  0
 16  7  1  0  0  0  0
 17 21  1  0  0  0  0
 18 14  2  0  0  0  0
 19 10  1  0  0  0  0
 20 15  1  0  0  0  0
 20 19  1  0  0  0  0
 22 26  1  0  0  0  0
 22 25  1  0  0  0  0
 24 23  1  0  0  0  0
 25 24  1  0  0  0  0
 26 27  1  0  0  0  0
 27 23  1  0  0  0  0
M  END
>  <MODEL>
7

>  <REMARK>
 VINA RESULT:      -6.1      4.237      5.725
  Name = 
  1 active torsions:
  status: ('A' for Active; 'I' for Inactive)
    1  A    between atoms: N_9  and  C_15
                            x       y       z     vdW  Elec       q    Type
                         _______ _______ _______ _____ _____    ______ ____

>  <TORSDO>
F 1

$$$$
=
 OpenBabel10262420023D

 27 30  0  0  1  0  0  0  0  0999 V2000
  186.3730  177.4200  136.0910 C   0  0  0  0  0  2  0  0  0  0  0  0
  185.1840  178.1990  138.2820 C   0  0  0  0  0  0  0  0  0  0  0  0
  184.4150  175.9380  137.9030 O   0  0  0  0  0  0  0  0  0  0  0  0
  181.8250  179.2300  140.5080 C   0  0  0  0  0  3  0  0  0  0  0  0
  179.6220  178.7110  141.5610 C   0  0  0  0  0  1  0  0  0  0  0  0
  185.0060  179.4350  138.8160 N   0  0  0  0  0  0  0  0  0  0  0  0
  182.0210  176.6320  139.5080 C   0  0  0  0  0  3  0  0  0  0  0  0
  183.7400  174.4340  135.5480 N   0  0  0  0  0  2  0  0  0  0  0  0
  180.9060  177.0090  140.2610 C   0  0  0  0  0  3  0  0  0  0  0  0
  184.5480  173.6840  134.5940 C   0  0  0  0  0  2  0  0  0  0  0  0
  184.2030  177.2040  138.4810 C   0  0  0  0  0  0  0  0  0  0  0  0
  186.4700  177.9500  137.5380 C   0  0  1  0  0  3  0  0  0  0  0  0
  180.8070  178.3090  140.7610 C   0  0  0  0  0  0  0  0  0  0  0  0
  182.9410  178.8550  139.7560 C   0  0  0  0  0  0  0  0  0  0  0  0
  186.5580  175.9180  135.9740 C   0  0  0  0  0  2  0  0  0  0  0  0
  183.0540  177.5440  139.2410 C   0  0  0  0  0  0  0  0  0  0  0  0
  183.9040  173.8320  136.8630 C   0  0  0  0  0  2  0  0  0  0  0  0
  183.9240  179.7560  139.5230 N   0  0  0  0  0  0  0  0  0  0  0  0
  186.0290  174.0370  134.7180 C   0  0  0  0  0  2  0  0  0  0  0  0
  186.2260  175.4760  134.6330 N   0  0  0  0  0  2  0  0  0  0  0  0
  183.5130  174.8400  137.9280 C   0  0  0  0  0  2  0  0  0  0  0  0
  190.0140  177.7750  139.9250 C   0  0  0  0  0  2  0  0  0  0  0  0
  187.5800  177.4940  138.3930 N   0  0  0  0  0  0  0  0  0  0  0  0
  187.5820  178.2490  139.6490 C   0  0  0  0  0  2  0  0  0  0  0  0
  188.6450  177.6920  140.5920 C   0  0  0  0  0  2  0  0  0  0  0  0
  189.9870  177.0650  138.5760 C   0  0  0  0  0  2  0  0  0  0  0  0
  188.8700  177.6490  137.7150 C   0  0  0  0  0  2  0  0  0  0  0  0
  2 11  2  0  0  0  0
  2  6  1  0  0  0  0
  3 21  1  0  0  0  0
  3 11  1  0  0  0  0
  4 13  1  0  0  0  0
  6 18  2  0  0  0  0
  7  9  1  0  0  0  0
  8 17  1  0  0  0  0
  9 13  2  0  0  0  0
 10 19  1  0  0  0  0
 10  8  1  0  0  0  0
 11 16  1  0  0  0  0
 12  1  1  6  0  0  0
 12  2  1  0  0  0  0
 12 23  1  0  0  0  0
 13  5  1  0  0  0  0
 14  4  2  0  0  0  0
 15  1  1  0  0  0  0
 16  7  2  0  0  0  0
 16 14  1  0  0  0  0
 17 21  1  0  0  0  0
 18 14  1  0  0  0  0
 20 19  1  0  0  0  0
 20 15  1  0  0  0  0
 22 25  1  0  0  0  0
 23 24  1  0  0  0  0
 24 25  1  0  0  0  0
 26 22  1  0  0  0  0
 27 23  1  0  0  0  0
 27 26  1  0  0  0  0
M  END
>  <MODEL>
8

>  <REMARK>
 VINA RESULT:      -6.0      3.264      6.504
  Name = 
  1 active torsions:
  status: ('A' for Active; 'I' for Inactive)
    1  A    between atoms: N_9  and  C_15
                            x       y       z     vdW  Elec       q    Type
                         _______ _______ _______ _____ _____    ______ ____

>  <TORSDO>
F 1

$$$$
=
 OpenBabel10262420023D

 27 30  0  0  1  0  0  0  0  0999 V2000
  185.9220  178.1490  137.5680 C   0  0  0  0  0  2  0  0  0  0  0  0
  187.9050  176.7240  136.6400 C   0  0  0  0  0  0  0  0  0  0  0  0
  188.3090  176.9180  139.0150 O   0  0  0  0  0  0  0  0  0  0  0  0
  191.9210  176.0960  135.7580 C   0  0  0  0  0  3  0  0  0  0  0  0
  194.3150  175.8290  136.4110 C   0  0  0  0  0  1  0  0  0  0  0  0
  188.3590  176.5350  135.3740 N   0  0  0  0  0  0  0  0  0  0  0  0
  191.1760  176.4460  138.4250 C   0  0  0  0  0  3  0  0  0  0  0  0
  187.9330  179.0270  140.9330 N   0  0  0  0  0  2  0  0  0  0  0  0
  192.5170  176.2310  138.0960 C   0  0  0  0  0  3  0  0  0  0  0  0
  186.7720  179.4650  141.6990 C   0  0  0  0  0  2  0  0  0  0  0  0
  188.8140  176.7070  137.7190 C   0  0  0  0  0  0  0  0  0  0  0  0
  186.4190  176.8930  136.8180 C   0  0  1  0  0  3  0  0  0  0  0  0
  192.8900  176.0570  136.7620 C   0  0  0  0  0  0  0  0  0  0  0  0
  190.5790  176.3100  136.0850 C   0  0  0  0  0  0  0  0  0  0  0  0
  185.6000  177.9040  139.0300 C   0  0  0  0  0  2  0  0  0  0  0  0
  190.1860  176.4910  137.4300 C   0  0  0  0  0  0  0  0  0  0  0  0
  188.2370  177.6530  141.3030 C   0  0  0  0  0  2  0  0  0  0  0  0
  189.6480  176.3400  135.1030 N   0  0  0  0  0  0  0  0  0  0  0  0
  185.4780  178.8850  141.1320 C   0  0  0  0  0  2  0  0  0  0  0  0
  185.3670  179.1660  139.7090 N   0  0  0  0  0  2  0  0  0  0  0  0
  189.0730  177.0120  140.2110 C   0  0  0  0  0  2  0  0  0  0  0  0
  184.8930  172.9300  136.3090 C   0  0  0  0  0  2  0  0  0  0  0  0
  185.6850  175.6260  136.9860 N   0  0  0  0  0  0  0  0  0  0  0  0
  186.6350  174.5180  137.1230 C   0  0  0  0  0  2  0  0  0  0  0  0
  185.8860  173.2240  137.4290 C   0  0  0  0  0  2  0  0  0  0  0  0
  183.9620  174.1210  136.1060 C   0  0  0  0  0  2  0  0  0  0  0  0
  184.7890  175.3780  135.8520 C   0  0  0  0  0  2  0  0  0  0  0  0
  1 15  1  0  0  0  0
  2 12  1  0  0  0  0
  2 11  1  0  0  0  0
  3 21  1  0  0  0  0
  4 14  1  0  0  0  0
  4 13  2  0  0  0  0
  5 13  1  0  0  0  0
  6  2  2  0  0  0  0
  8 17  1  0  0  0  0
  8 10  1  0  0  0  0
  9  7  2  0  0  0  0
 11  3  1  0  0  0  0
 12 23  1  1  0  0  0
 12  1  1  0  0  0  0
 13  9  1  0  0  0  0
 14 16  1  0  0  0  0
 15 20  1  0  0  0  0
 16 11  2  0  0  0  0
 16  7  1  0  0  0  0
 18  6  1  0  0  0  0
 18 14  2  0  0  0  0
 19 10  1  0  0  0  0
 20 19  1  0  0  0  0
 21 17  1  0  0  0  0
 22 25  1  0  0  0  0
 23 24  1  0  0  0  0
 24 25  1  0  0  0  0
 26 22  1  0  0  0  0
 27 26  1  0  0  0  0
 27 23  1  0  0  0  0
M  END
>  <MODEL>
9

>  <REMARK>
 VINA RESULT:      -5.7      4.996      7.431
  Name = 
  1 active torsions:
  status: ('A' for Active; 'I' for Inactive)
    1  A    between atoms: N_9  and  C_15
                            x       y       z     vdW  Elec       q    Type
                         _______ _______ _______ _____ _____    ______ ____

>  <TORSDO>
F 1

$$$$
