=
 OpenBabel10252415103D

 34 41  0  0  1  0  0  0  0  0999 V2000
  187.3070  177.7370  145.4610 C   0  0  0  0  0  0  0  0  0  0  0  0
  189.0690  177.5610  143.7410 C   0  0  0  0  0  0  0  0  0  0  0  0
  186.7790  178.0200  143.1310 C   0  0  0  0  0  0  0  0  0  0  0  0
  186.4380  178.2940  140.8230 C   0  0  0  0  0  0  0  0  0  0  0  0
  189.6090  177.2790  146.0900 C   0  0  0  0  0  3  0  0  0  0  0  0
  181.0760  179.4110  143.2530 C   0  0  1  0  0  0  0  0  0  0  0  0
  180.6620  180.0990  142.1020 O   0  0  0  0  0  0  0  0  0  0  0  0
  190.0120  177.3170  144.7430 C   0  0  0  0  0  3  0  0  0  0  0  0
  188.4540  177.8490  141.4890 C   0  0  0  0  0  0  0  0  0  0  0  0
  183.1620  178.7370  142.4310 N   0  0  0  0  0  0  0  0  0  0  0  0
  187.7160  177.7660  144.1230 C   0  0  2  0  0  3  0  0  0  0  0  0
  180.8210  178.6970  141.9880 C   0  0  1  0  0  3  0  0  0  0  0  0
  187.2040  178.2870  139.6550 C   0  0  0  0  0  3  0  0  0  0  0  0
  188.2650  177.4860  146.4490 C   0  0  0  0  0  3  0  0  0  0  0  0
  185.4280  178.2640  143.3960 C   0  0  0  0  0  0  0  0  0  0  0  0
  182.5520  179.3770  143.5790 C   0  0  0  0  0  2  0  0  0  0  0  0
  185.9520  177.9590  145.7700 C   0  0  0  0  0  3  0  0  0  0  0  0
  189.4310  177.6100  142.4120 N   0  0  0  0  0  0  0  0  0  0  0  0
  185.1080  178.5250  140.9940 N   0  0  0  0  0  0  0  0  0  0  0  0
  182.1940  178.3780  141.4080 C   0  0  0  0  0  2  0  0  0  0  0  0
  184.5730  178.5170  142.2700 C   0  0  0  0  0  0  0  0  0  0  0  0
  188.5190  177.9990  140.1130 C   0  0  0  0  0  0  0  0  0  0  0  0
  180.1000  179.2350  144.2300 O   0  0  0  0  0  1  0  0  0  0  0  0
  187.2030  178.0380  141.8690 N   0  0  0  0  0  0  0  0  0  0  0  0
  185.0160  178.2180  144.7440 C   0  0  0  0  0  3  0  0  0  0  0  0
  190.1760  176.7840  138.7670 C   0  0  0  0  0  3  0  0  0  0  0  0
  189.7450  177.9170  139.3120 C   0  0  0  0  0  3  0  0  0  0  0  0
  193.2400  177.1980  139.3880 C   0  0  0  0  0  1  0  0  0  0  0  0
  191.4210  176.7780  137.9440 C   0  0  1  0  0  3  0  0  0  0  0  0
  192.5230  176.1420  138.6930 N   0  0  0  0  0  0  0  0  0  0  0  0
  193.6920  176.1250  136.4840 C   0  0  0  0  0  2  0  0  0  0  0  0
  192.3790  176.1750  135.6990 C   0  0  0  0  0  2  0  0  0  0  0  0
  191.1530  176.0860  136.6030 C   0  0  0  0  0  2  0  0  0  0  0  0
  193.5010  175.4430  137.8410 C   0  0  0  0  0  2  0  0  0  0  0  0
  1 17  1  0  0  0  0
  1 14  2  0  0  0  0
  2 11  1  0  0  0  0
  2  8  1  0  0  0  0
  3 15  2  0  0  0  0
  4 19  1  0  0  0  0
  4 24  1  0  0  0  0
  5 14  1  0  0  0  0
  6 16  1  0  0  0  0
  6 23  1  1  0  0  0
  7  6  1  0  0  0  0
  8  5  2  0  0  0  0
  9 24  1  0  0  0  0
  9 18  1  0  0  0  0
 10 16  1  0  0  0  0
 11  3  1  1  0  0  0
 11  1  1  0  0  0  0
 12 20  1  6  0  0  0
 12  7  1  0  0  0  0
 12  6  1  0  0  0  0
 13 22  1  0  0  0  0
 13  4  2  0  0  0  0
 15 25  1  0  0  0  0
 18  2  2  0  0  0  0
 19 21  2  0  0  0  0
 20 10  1  0  0  0  0
 21 10  1  0  0  0  0
 21 15  1  0  0  0  0
 22  9  2  0  0  0  0
 24  3  1  0  0  0  0
 25 17  2  0  0  0  0
 26 27  2  0  0  0  0
 27 22  1  0  0  0  0
 29 30  1  0  0  0  0
 29 26  1  1  0  0  0
 30 28  1  0  0  0  0
 31 34  1  0  0  0  0
 32 31  1  0  0  0  0
 32 33  1  0  0  0  0
 33 29  1  0  0  0  0
 34 30  1  0  0  0  0
M  END
>  <MODEL>
1

>  <REMARK>
 VINA RESULT:     -10.4      0.000      0.000
  Name = 
  2 active torsions:
  status: ('A' for Active; 'I' for Inactive)
    1  A    between atoms: C_3  and  C_13
    2  A    between atoms: C_17  and  C_29
                            x       y       z     vdW  Elec       q    Type
                         _______ _______ _______ _____ _____    ______ ____

>  <TORSDO>
F 2

$$$$
=
 OpenBabel10252415103D

 34 41  0  0  1  0  0  0  0  0999 V2000
  189.9250  177.4310  140.3740 C   0  0  0  0  0  0  0  0  0  0  0  0
  187.8160  178.1210  139.2930 C   0  0  0  0  0  0  0  0  0  0  0  0
  187.9730  177.9200  141.6940 C   0  0  0  0  0  0  0  0  0  0  0  0
  185.9900  178.4570  142.8330 C   0  0  0  0  0  0  0  0  0  0  0  0
  189.7820  177.6330  137.9570 C   0  0  0  0  0  3  0  0  0  0  0  0
  189.9540  177.3720  147.1930 C   0  0  1  0  0  0  0  0  0  0  0  0
  189.1730  178.0760  148.1220 O   0  0  0  0  0  0  0  0  0  0  0  0
  188.4350  178.0250  138.0440 C   0  0  0  0  0  3  0  0  0  0  0  0
  185.9610  178.5740  140.6670 C   0  0  0  0  0  0  0  0  0  0  0  0
  188.4650  177.5510  145.3960 N   0  0  0  0  0  0  0  0  0  0  0  0
  188.5810  177.8150  140.4500 C   0  0  0  0  0  0  0  0  0  0  0  0
  188.6610  176.8400  147.6620 C   0  0  1  0  0  3  0  0  0  0  0  0
  184.7010  178.8930  142.5180 C   0  0  0  0  0  3  0  0  0  0  0  0
  190.5240  177.3360  139.1140 C   0  0  0  0  0  3  0  0  0  0  0  0
  188.6390  177.6710  142.8970 C   0  0  0  0  0  0  0  0  0  0  0  0
  189.8580  177.7570  145.7340 C   0  0  0  0  0  2  0  0  0  0  0  0
  190.6280  177.1520  141.5620 C   0  0  0  0  0  3  0  0  0  0  0  0
  186.4980  178.5070  139.4140 N   0  0  0  0  0  0  0  0  0  0  0  0
  186.5610  178.2180  144.0450 N   0  0  0  0  0  2  0  0  0  0  0  0
  187.6770  177.0800  146.5230 C   0  0  0  0  0  2  0  0  0  0  0  0
  187.8850  177.8230  144.1090 C   0  0  0  0  0  0  0  0  0  0  0  0
  184.7050  178.9680  141.0990 C   0  0  0  0  0  0  0  0  0  0  0  0
  191.0740  176.7310  147.7150 O   0  0  0  0  0  1  0  0  0  0  0  0
  186.6940  178.2860  141.7280 N   0  0  0  0  0  0  0  0  0  0  0  0
  189.9890  177.2680  142.8170 C   0  0  0  0  0  3  0  0  0  0  0  0
  182.3570  179.0200  140.3780 C   0  0  0  0  0  3  0  0  0  0  0  0
  183.6150  179.4180  140.2260 C   0  0  0  0  0  3  0  0  0  0  0  0
  179.2480  179.4820  140.6410 C   0  0  0  0  0  1  0  0  0  0  0  0
  181.2940  179.5370  139.4660 C   0  0  1  0  0  3  0  0  0  0  0  0
  180.3290  180.3580  140.2240 N   0  0  0  0  0  0  0  0  0  0  0  0
  179.5360  181.0750  137.9640 C   0  0  0  0  0  2  0  0  0  0  0  0
  180.8740  180.7440  137.3010 C   0  0  0  0  0  2  0  0  0  0  0  0
  181.9350  180.3100  138.3090 C   0  0  0  0  0  2  0  0  0  0  0  0
  179.7240  181.4470  139.4370 C   0  0  0  0  0  2  0  0  0  0  0  0
  1 11  1  0  0  0  0
  1 17  1  0  0  0  0
  2 18  2  0  0  0  0
  2 11  1  0  0  0  0
  3 24  1  0  0  0  0
  3 15  1  0  0  0  0
  4 19  1  0  0  0  0
  5  8  2  0  0  0  0
  5 14  1  0  0  0  0
  6 12  1  0  0  0  0
  6 23  1  1  0  0  0
  6  7  1  0  0  0  0
  8  2  1  0  0  0  0
  9 22  2  0  0  0  0
  9 24  1  0  0  0  0
 10 16  1  0  0  0  0
 10 20  1  0  0  0  0
 11  3  2  0  0  0  0
 12 20  1  6  0  0  0
 12  7  1  0  0  0  0
 13  4  2  0  0  0  0
 14  1  2  0  0  0  0
 15 21  2  0  0  0  0
 16  6  1  0  0  0  0
 17 25  2  0  0  0  0
 18  9  1  0  0  0  0
 19 21  1  0  0  0  0
 21 10  1  0  0  0  0
 22 13  1  0  0  0  0
 24  4  1  0  0  0  0
 25 15  1  0  0  0  0
 27 26  2  0  0  0  0
 27 22  1  0  0  0  0
 29 30  1  0  0  0  0
 29 26  1  1  0  0  0
 30 28  1  0  0  0  0
 31 34  1  0  0  0  0
 32 31  1  0  0  0  0
 32 33  1  0  0  0  0
 33 29  1  0  0  0  0
 34 30  1  0  0  0  0
M  END
>  <MODEL>
2

>  <REMARK>
 VINA RESULT:     -10.0      3.383      8.275
  Name = 
  2 active torsions:
  status: ('A' for Active; 'I' for Inactive)
    1  A    between atoms: C_3  and  C_13
    2  A    between atoms: C_17  and  C_29
                            x       y       z     vdW  Elec       q    Type
                         _______ _______ _______ _____ _____    ______ ____

>  <TORSDO>
F 2

$$$$
=
 OpenBabel10252415103D

 34 41  0  0  1  0  0  0  0  0999 V2000
  188.9800  177.2480  145.7450 C   0  0  0  0  0  0  0  0  0  0  0  0
  190.7720  177.0020  144.0640 C   0  0  0  0  0  0  0  0  0  0  0  0
  188.5070  177.5100  143.4000 C   0  0  0  0  0  0  0  0  0  0  0  0
  188.2200  177.7580  141.0820 C   0  0  0  0  0  0  0  0  0  0  0  0
  191.2570  176.7410  146.4280 C   0  0  0  0  0  3  0  0  0  0  0  0
  182.8400  179.0440  143.3840 C   0  0  1  0  0  0  0  0  0  0  0  0
  182.4670  179.7250  142.2150 O   0  0  0  0  0  0  0  0  0  0  0  0
  191.6870  176.7500  145.0890 C   0  0  0  0  0  3  0  0  0  0  0  0
  190.2100  177.2720  141.7960 C   0  0  0  0  0  0  0  0  0  0  0  0
  184.9240  178.3060  142.6160 N   0  0  0  0  0  0  0  0  0  0  0  0
  189.4170  177.2460  144.4150 C   0  0  2  0  0  3  0  0  0  0  0  0
  182.5930  178.3180  142.1240 C   0  0  1  0  0  3  0  0  0  0  0  0
  189.0100  177.7150  139.9300 C   0  0  0  0  0  3  0  0  0  0  0  0
  189.9110  176.9870  146.7560 C   0  0  0  0  0  3  0  0  0  0  0  0
  187.1580  177.7910  143.6330 C   0  0  0  0  0  0  0  0  0  0  0  0
  184.3080  178.9770  143.7410 C   0  0  0  0  0  2  0  0  0  0  0  0
  187.6250  177.5080  146.0220 C   0  0  0  0  0  3  0  0  0  0  0  0
  191.1620  177.0230  142.7420 N   0  0  0  0  0  0  0  0  0  0  0  0
  186.8930  178.0250  141.2220 N   0  0  0  0  0  0  0  0  0  0  0  0
  183.9690  177.9570  141.5780 C   0  0  0  0  0  2  0  0  0  0  0  0
  186.3330  178.0480  142.4870 C   0  0  0  0  0  0  0  0  0  0  0  0
  190.3070  177.4010  140.4200 C   0  0  0  0  0  0  0  0  0  0  0  0
  181.8400  178.9060  144.3430 O   0  0  0  0  0  1  0  0  0  0  0  0
  188.9570  177.4990  142.1480 N   0  0  0  0  0  0  0  0  0  0  0  0
  186.7170  177.7750  144.9730 C   0  0  0  0  0  3  0  0  0  0  0  0
  191.7110  176.3710  138.6870 C   0  0  0  0  0  3  0  0  0  0  0  0
  191.5470  177.2760  139.6460 C   0  0  0  0  0  3  0  0  0  0  0  0
  194.6790  175.5810  139.4020 C   0  0  0  0  0  1  0  0  0  0  0  0
  192.9920  176.3150  137.9230 C   0  0  1  0  0  3  0  0  0  0  0  0
  193.7840  175.1430  138.3440 N   0  0  0  0  0  0  0  0  0  0  0  0
  195.1480  175.6400  136.3090 C   0  0  0  0  0  2  0  0  0  0  0  0
  193.9990  176.3780  135.6210 C   0  0  0  0  0  2  0  0  0  0  0  0
  192.7000  176.3130  136.4190 C   0  0  0  0  0  2  0  0  0  0  0  0
  194.6240  174.5740  137.2740 C   0  0  0  0  0  2  0  0  0  0  0  0
  1 17  1  0  0  0  0
  1 14  2  0  0  0  0
  2 11  1  0  0  0  0
  2  8  1  0  0  0  0
  3 15  2  0  0  0  0
  4 19  1  0  0  0  0
  4 24  1  0  0  0  0
  5 14  1  0  0  0  0
  6 16  1  0  0  0  0
  6 23  1  1  0  0  0
  7  6  1  0  0  0  0
  8  5  2  0  0  0  0
  9 24  1  0  0  0  0
  9 18  1  0  0  0  0
 10 16  1  0  0  0  0
 11  3  1  1  0  0  0
 11  1  1  0  0  0  0
 12 20  1  6  0  0  0
 12  7  1  0  0  0  0
 12  6  1  0  0  0  0
 13 22  1  0  0  0  0
 13  4  2  0  0  0  0
 15 25  1  0  0  0  0
 18  2  2  0  0  0  0
 19 21  2  0  0  0  0
 20 10  1  0  0  0  0
 21 10  1  0  0  0  0
 21 15  1  0  0  0  0
 22  9  2  0  0  0  0
 24  3  1  0  0  0  0
 25 17  2  0  0  0  0
 26 27  2  0  0  0  0
 27 22  1  0  0  0  0
 29 30  1  0  0  0  0
 29 26  1  1  0  0  0
 30 28  1  0  0  0  0
 31 34  1  0  0  0  0
 32 31  1  0  0  0  0
 32 33  1  0  0  0  0
 33 29  1  0  0  0  0
 34 30  1  0  0  0  0
M  END
>  <MODEL>
3

>  <REMARK>
 VINA RESULT:      -9.5      1.244      1.793
  Name = 
  2 active torsions:
  status: ('A' for Active; 'I' for Inactive)
    1  A    between atoms: C_3  and  C_13
    2  A    between atoms: C_17  and  C_29
                            x       y       z     vdW  Elec       q    Type
                         _______ _______ _______ _____ _____    ______ ____

>  <TORSDO>
F 2

$$$$
=
 OpenBabel10252415103D

 34 41  0  0  1  0  0  0  0  0999 V2000
  188.5720  177.3000  136.8730 C   0  0  0  0  0  0  0  0  0  0  0  0
  187.9590  177.8980  139.1890 C   0  0  0  0  0  0  0  0  0  0  0  0
  190.1670  177.0760  138.6610 C   0  0  0  0  0  0  0  0  0  0  0  0
  191.6080  176.9420  140.5120 C   0  0  0  0  0  0  0  0  0  0  0  0
  186.3470  178.1300  137.3890 C   0  0  0  0  0  3  0  0  0  0  0  0
  195.0360  175.3810  135.8520 C   0  0  1  0  0  0  0  0  0  0  0  0
  196.2040  175.6630  136.5760 O   0  0  0  0  0  0  0  0  0  0  0  0
  186.6810  178.2530  138.7490 C   0  0  0  0  0  3  0  0  0  0  0  0
  189.5850  177.6410  140.8680 C   0  0  0  0  0  0  0  0  0  0  0  0
  193.5290  175.7940  137.5950 N   0  0  0  0  0  0  0  0  0  0  0  0
  188.8920  177.4190  138.2300 C   0  0  2  0  0  3  0  0  0  0  0  0
  195.4560  174.5320  136.9830 C   0  0  1  0  0  3  0  0  0  0  0  0
  191.5660  177.2260  141.8780 C   0  0  0  0  0  3  0  0  0  0  0  0
  187.2860  177.6550  136.4550 C   0  0  0  0  0  3  0  0  0  0  0  0
  191.1710  176.6210  137.8010 C   0  0  0  0  0  0  0  0  0  0  0  0
  193.7710  176.1290  136.2070 C   0  0  0  0  0  2  0  0  0  0  0  0
  189.5490  176.8270  135.9750 C   0  0  0  0  0  3  0  0  0  0  0  0
  188.3200  178.0120  140.5140 N   0  0  0  0  0  0  0  0  0  0  0  0
  192.6320  176.4790  139.7460 N   0  0  0  0  0  0  0  0  0  0  0  0
  194.5420  174.9080  138.1430 C   0  0  0  0  0  2  0  0  0  0  0  0
  192.4440  176.3080  138.3860 C   0  0  0  0  0  0  0  0  0  0  0  0
  190.2380  177.6870  142.0900 C   0  0  0  0  0  0  0  0  0  0  0  0
  195.2310  174.8160  134.5940 O   0  0  0  0  0  1  0  0  0  0  0  0
  190.4360  177.2000  139.9580 N   0  0  0  0  0  0  0  0  0  0  0  0
  190.8410  176.4870  136.4360 C   0  0  0  0  0  3  0  0  0  0  0  0
  189.2540  177.3570  144.3160 C   0  0  0  0  0  3  0  0  0  0  0  0
  189.6500  178.1710  143.3430 C   0  0  0  0  0  3  0  0  0  0  0  0
  186.4510  178.5470  145.1390 C   0  0  0  0  0  1  0  0  0  0  0  0
  188.6840  177.9210  145.5750 C   0  0  1  0  0  3  0  0  0  0  0  0
  187.2760  177.5060  145.7280 N   0  0  0  0  0  0  0  0  0  0  0  0
  187.5340  178.3470  148.0670 C   0  0  0  0  0  2  0  0  0  0  0  0
  189.0530  178.1640  148.0500 C   0  0  0  0  0  2  0  0  0  0  0  0
  189.5490  177.5000  146.7690 C   0  0  0  0  0  2  0  0  0  0  0  0
  186.8460  177.3530  147.1290 C   0  0  0  0  0  2  0  0  0  0  0  0
  2 18  2  0  0  0  0
  3 24  1  0  0  0  0
  4 13  2  0  0  0  0
  5  8  2  0  0  0  0
  6 23  1  6  0  0  0
  6 16  1  0  0  0  0
  6  7  1  0  0  0  0
  6 12  1  0  0  0  0
  7 12  1  0  0  0  0
  8  2  1  0  0  0  0
  9 22  2  0  0  0  0
 10 20  1  0  0  0  0
 10 21  1  0  0  0  0
 11  1  1  6  0  0  0
 11  3  1  0  0  0  0
 11  2  1  0  0  0  0
 12 20  1  1  0  0  0
 13 22  1  0  0  0  0
 14  1  2  0  0  0  0
 14  5  1  0  0  0  0
 15 21  1  0  0  0  0
 15  3  2  0  0  0  0
 16 10  1  0  0  0  0
 17 25  2  0  0  0  0
 17  1  1  0  0  0  0
 18  9  1  0  0  0  0
 19  4  1  0  0  0  0
 21 19  2  0  0  0  0
 22 27  1  0  0  0  0
 24  4  1  0  0  0  0
 24  9  1  0  0  0  0
 25 15  1  0  0  0  0
 27 26  2  0  0  0  0
 28 30  1  0  0  0  0
 29 26  1  6  0  0  0
 29 30  1  0  0  0  0
 29 33  1  0  0  0  0
 30 34  1  0  0  0  0
 32 31  1  0  0  0  0
 33 32  1  0  0  0  0
 34 31  1  0  0  0  0
M  END
>  <MODEL>
4

>  <REMARK>
 VINA RESULT:      -9.2      4.967     10.051
  Name = 
  2 active torsions:
  status: ('A' for Active; 'I' for Inactive)
    1  A    between atoms: C_3  and  C_13
    2  A    between atoms: C_17  and  C_29
                            x       y       z     vdW  Elec       q    Type
                         _______ _______ _______ _____ _____    ______ ____

>  <TORSDO>
F 2

$$$$
=
 OpenBabel10252415103D

 34 41  0  0  1  0  0  0  0  0999 V2000
  184.5670  178.5590  144.9850 C   0  0  0  0  0  0  0  0  0  0  0  0
  183.7240  178.8030  142.6770 C   0  0  0  0  0  0  0  0  0  0  0  0
  186.0600  178.3730  143.1060 C   0  0  0  0  0  0  0  0  0  0  0  0
  187.3740  178.1950  141.1670 C   0  0  0  0  0  0  0  0  0  0  0  0
  182.2120  178.9880  144.5670 C   0  0  0  0  0  3  0  0  0  0  0  0
  191.1700  176.9880  145.6440 C   0  0  1  0  0  0  0  0  0  0  0  0
  192.0560  176.3480  144.7630 O   0  0  0  0  0  0  0  0  0  0  0  0
  182.4350  179.0040  143.1790 C   0  0  0  0  0  3  0  0  0  0  0  0
  185.2610  178.6090  140.9080 C   0  0  0  0  0  0  0  0  0  0  0  0
  189.6350  177.6910  144.0220 N   0  0  0  0  0  0  0  0  0  0  0  0
  184.7800  178.5850  143.6020 C   0  0  0  0  0  0  0  0  0  0  0  0
  191.9350  177.7530  144.6410 C   0  0  1  0  0  3  0  0  0  0  0  0
  187.1910  178.2480  139.7840 C   0  0  0  0  0  3  0  0  0  0  0  0
  183.2710  178.7680  145.4670 C   0  0  0  0  0  3  0  0  0  0  0  0
  187.1660  178.1210  143.9230 C   0  0  0  0  0  0  0  0  0  0  0  0
  189.6990  177.0060  145.2970 C   0  0  0  0  0  2  0  0  0  0  0  0
  185.6580  178.3270  145.8440 C   0  0  0  0  0  3  0  0  0  0  0  0
  183.9750  178.8080  141.3220 N   0  0  0  0  0  0  0  0  0  0  0  0
  188.5020  177.9590  141.8910 N   0  0  0  0  0  2  0  0  0  0  0  0
  190.9440  178.0930  143.5350 C   0  0  0  0  0  2  0  0  0  0  0  0
  188.4300  177.9160  143.2720 C   0  0  0  0  0  0  0  0  0  0  0  0
  185.8020  178.5150  139.6350 C   0  0  0  0  0  0  0  0  0  0  0  0
  191.6220  177.1250  146.9540 O   0  0  0  0  0  1  0  0  0  0  0  0
  186.2260  178.4060  141.7870 N   0  0  0  0  0  0  0  0  0  0  0  0
  186.9520  178.1120  145.3170 C   0  0  0  0  0  3  0  0  0  0  0  0
  184.1150  177.7510  138.0230 C   0  0  0  0  0  3  0  0  0  0  0  0
  185.0440  178.6290  138.3850 C   0  0  0  0  0  3  0  0  0  0  0  0
  184.5480  176.8160  135.0420 C   0  0  0  0  0  1  0  0  0  0  0  0
  183.3650  177.9410  136.7460 C   0  0  1  0  0  3  0  0  0  0  0  0
  183.4110  176.7060  135.9400 N   0  0  0  0  0  0  0  0  0  0  0  0
  181.6130  177.8060  134.5950 C   0  0  0  0  0  2  0  0  0  0  0  0
  181.1830  178.7030  135.7570 C   0  0  0  0  0  2  0  0  0  0  0  0
  181.9300  178.3880  137.0490 C   0  0  0  0  0  2  0  0  0  0  0  0
  182.2170  176.4940  135.1020 C   0  0  0  0  0  2  0  0  0  0  0  0
  1 14  2  0  0  0  0
  1 17  1  0  0  0  0
  2  8  1  0  0  0  0
  2 11  1  0  0  0  0
  3 11  2  0  0  0  0
  3 15  1  0  0  0  0
  4 24  1  0  0  0  0
  4 19  1  0  0  0  0
  5 14  1  0  0  0  0
  6 23  1  1  0  0  0
  7  6  1  0  0  0  0
  8  5  2  0  0  0  0
  9 18  1  0  0  0  0
  9 24  1  0  0  0  0
 10 16  1  0  0  0  0
 11  1  1  0  0  0  0
 12 20  1  6  0  0  0
 12  7  1  0  0  0  0
 12  6  1  0  0  0  0
 13  4  2  0  0  0  0
 15 25  1  0  0  0  0
 16  6  1  0  0  0  0
 18  2  2  0  0  0  0
 19 21  1  0  0  0  0
 20 10  1  0  0  0  0
 21 15  2  0  0  0  0
 21 10  1  0  0  0  0
 22 13  1  0  0  0  0
 22  9  2  0  0  0  0
 24  3  1  0  0  0  0
 25 17  2  0  0  0  0
 26 27  2  0  0  0  0
 27 22  1  0  0  0  0
 28 30  1  0  0  0  0
 29 33  1  0  0  0  0
 29 26  1  1  0  0  0
 30 29  1  0  0  0  0
 31 34  1  0  0  0  0
 31 32  1  0  0  0  0
 32 33  1  0  0  0  0
 34 30  1  0  0  0  0
M  END
>  <MODEL>
5

>  <REMARK>
 VINA RESULT:      -9.1      4.207      7.361
  Name = 
  2 active torsions:
  status: ('A' for Active; 'I' for Inactive)
    1  A    between atoms: C_3  and  C_13
    2  A    between atoms: C_17  and  C_29
                            x       y       z     vdW  Elec       q    Type
                         _______ _______ _______ _____ _____    ______ ____

>  <TORSDO>
F 2

$$$$
=
 OpenBabel10252415103D

 34 41  0  0  1  0  0  0  0  0999 V2000
  189.8720  177.5210  140.3340 C   0  0  0  0  0  0  0  0  0  0  0  0
  187.5870  178.2360  139.7320 C   0  0  0  0  0  0  0  0  0  0  0  0
  188.2070  177.8670  142.0360 C   0  0  0  0  0  0  0  0  0  0  0  0
  186.4760  178.2730  143.5720 C   0  0  0  0  0  0  0  0  0  0  0  0
  189.2630  177.8920  138.0110 C   0  0  0  0  0  3  0  0  0  0  0  0
  191.2180  176.9740  146.9960 C   0  0  1  0  0  0  0  0  0  0  0  0
  190.6240  177.5900  148.1080 O   0  0  0  0  0  0  0  0  0  0  0  0
  187.9540  178.2450  138.3840 C   0  0  0  0  0  3  0  0  0  0  0  0
  186.0290  178.5450  141.4670 C   0  0  0  0  0  0  0  0  0  0  0  0
  189.4080  177.2450  145.5370 N   0  0  0  0  0  0  0  0  0  0  0  0
  188.5650  177.8660  140.6950 C   0  0  0  0  0  0  0  0  0  0  0  0
  190.0450  176.3780  147.6630 C   0  0  1  0  0  3  0  0  0  0  0  0
  185.1470  178.7000  143.5440 C   0  0  0  0  0  3  0  0  0  0  0  0
  190.2180  177.5310  138.9790 C   0  0  0  0  0  3  0  0  0  0  0  0
  189.0950  177.5480  143.0670 C   0  0  0  0  0  0  0  0  0  0  0  0
  190.8380  177.4600  145.6160 C   0  0  0  0  0  2  0  0  0  0  0  0
  190.7940  177.1740  141.3400 C   0  0  0  0  0  3  0  0  0  0  0  0
  186.3140  178.5810  140.1320 N   0  0  0  0  0  0  0  0  0  0  0  0
  187.2720  177.9620  144.6300 N   0  0  0  0  0  2  0  0  0  0  0  0
  188.8580  176.6750  146.7550 C   0  0  0  0  0  2  0  0  0  0  0  0
  188.5880  177.5950  144.4100 C   0  0  0  0  0  0  0  0  0  0  0  0
  184.8750  178.8760  142.1600 C   0  0  0  0  0  0  0  0  0  0  0  0
  192.4240  176.3230  147.2440 O   0  0  0  0  0  1  0  0  0  0  0  0
  186.9550  178.1990  142.3420 N   0  0  0  0  0  0  0  0  0  0  0  0
  190.4080  177.1840  142.7000 C   0  0  0  0  0  3  0  0  0  0  0  0
  182.6860  178.5480  141.0960 C   0  0  0  0  0  3  0  0  0  0  0  0
  183.6340  179.3620  141.5480 C   0  0  0  0  0  3  0  0  0  0  0  0
  181.9890  180.0520  138.4120 C   0  0  0  0  0  1  0  0  0  0  0  0
  181.4360  179.1120  140.5050 C   0  0  1  0  0  3  0  0  0  0  0  0
  181.4120  178.8790  139.0480 N   0  0  0  0  0  0  0  0  0  0  0  0
  179.0100  179.5500  139.2260 C   0  0  0  0  0  2  0  0  0  0  0  0
  178.9310  179.1690  140.7060 C   0  0  0  0  0  2  0  0  0  0  0  0
  180.2140  178.5170  141.2120 C   0  0  0  0  0  2  0  0  0  0  0  0
  180.0570  178.7090  138.4920 C   0  0  0  0  0  2  0  0  0  0  0  0
  1 11  1  0  0  0  0
  1 17  1  0  0  0  0
  2 18  2  0  0  0  0
  2 11  1  0  0  0  0
  3 24  1  0  0  0  0
  3 15  1  0  0  0  0
  4 19  1  0  0  0  0
  5  8  2  0  0  0  0
  5 14  1  0  0  0  0
  6 23  1  1  0  0  0
  6 12  1  0  0  0  0
  6  7  1  0  0  0  0
  8  2  1  0  0  0  0
  9 22  2  0  0  0  0
  9 24  1  0  0  0  0
 10 16  1  0  0  0  0
 10 20  1  0  0  0  0
 11  3  2  0  0  0  0
 12 20  1  6  0  0  0
 12  7  1  0  0  0  0
 13  4  2  0  0  0  0
 14  1  2  0  0  0  0
 15 21  2  0  0  0  0
 16  6  1  0  0  0  0
 17 25  2  0  0  0  0
 18  9  1  0  0  0  0
 21 19  1  0  0  0  0
 21 10  1  0  0  0  0
 22 13  1  0  0  0  0
 24  4  1  0  0  0  0
 25 15  1  0  0  0  0
 26 27  2  0  0  0  0
 27 22  1  0  0  0  0
 28 30  1  0  0  0  0
 29 26  1  1  0  0  0
 29 33  1  0  0  0  0
 30 29  1  0  0  0  0
 31 32  1  0  0  0  0
 32 33  1  0  0  0  0
 34 30  1  0  0  0  0
 34 31  1  0  0  0  0
M  END
>  <MODEL>
6

>  <REMARK>
 VINA RESULT:      -9.1      3.622      8.530
  Name = 
  2 active torsions:
  status: ('A' for Active; 'I' for Inactive)
    1  A    between atoms: C_3  and  C_13
    2  A    between atoms: C_17  and  C_29
                            x       y       z     vdW  Elec       q    Type
                         _______ _______ _______ _____ _____    ______ ____

>  <TORSDO>
F 2

$$$$
=
 OpenBabel10252415103D

 34 41  0  0  1  0  0  0  0  0999 V2000
  190.0300  177.1070  144.4930 C   0  0  0  0  0  0  0  0  0  0  0  0
  187.7090  177.8870  144.8090 C   0  0  0  0  0  0  0  0  0  0  0  0
  188.6250  177.5790  142.5970 C   0  0  0  0  0  0  0  0  0  0  0  0
  187.1190  178.0580  140.8590 C   0  0  0  0  0  0  0  0  0  0  0  0
  189.1190  177.4100  146.7260 C   0  0  0  0  0  3  0  0  0  0  0  0
  192.0180  176.0460  138.0570 C   0  0  1  0  0  0  0  0  0  0  0  0
  191.2770  175.7560  136.9020 O   0  0  0  0  0  0  0  0  0  0  0  0
  187.8840  177.8220  146.1940 C   0  0  0  0  0  3  0  0  0  0  0  0
  186.4160  178.3250  142.8940 C   0  0  0  0  0  0  0  0  0  0  0  0
  190.2650  177.0150  139.2680 N   0  0  0  0  0  0  0  0  0  0  0  0
  188.8000  177.5270  143.9730 C   0  0  2  0  0  3  0  0  0  0  0  0
  191.4670  177.1230  137.2140 C   0  0  1  0  0  3  0  0  0  0  0  0
  185.7900  178.4670  140.7250 C   0  0  0  0  0  3  0  0  0  0  0  0
  190.1870  177.0550  145.8820 C   0  0  0  0  0  3  0  0  0  0  0  0
  189.6210  177.2210  141.6830 C   0  0  0  0  0  0  0  0  0  0  0  0
  191.3090  176.0190  139.3930 C   0  0  0  0  0  2  0  0  0  0  0  0
  191.0660  176.7550  143.6070 C   0  0  0  0  0  3  0  0  0  0  0  0
  186.5100  178.2830  144.2550 N   0  0  0  0  0  0  0  0  0  0  0  0
  188.0370  177.7420  139.9060 N   0  0  0  0  0  0  0  0  0  0  0  0
  190.2520  177.6550  137.9640 C   0  0  0  0  0  2  0  0  0  0  0  0
  189.2980  177.3200  140.2880 C   0  0  0  0  0  0  0  0  0  0  0  0
  185.3480  178.6320  142.0660 C   0  0  0  0  0  0  0  0  0  0  0  0
  193.3950  175.8650  137.9480 O   0  0  0  0  0  1  0  0  0  0  0  0
  187.4440  177.9840  142.1380 N   0  0  0  0  0  0  0  0  0  0  0  0
  190.8650  176.8140  142.2100 C   0  0  0  0  0  3  0  0  0  0  0  0
  182.8980  178.6460  141.8840 C   0  0  0  0  0  3  0  0  0  0  0  0
  184.0060  179.0080  142.5230 C   0  0  0  0  0  3  0  0  0  0  0  0
  180.3650  180.0790  140.6680 C   0  0  0  0  0  1  0  0  0  0  0  0
  181.5630  179.0460  142.4200 C   0  0  1  0  0  3  0  0  0  0  0  0
  180.5200  178.8310  141.3970 N   0  0  0  0  0  0  0  0  0  0  0  0
  178.9310  179.1720  143.2960 C   0  0  0  0  0  2  0  0  0  0  0  0
  179.9690  178.7630  144.3430 C   0  0  0  0  0  2  0  0  0  0  0  0
  181.2750  178.2820  143.7160 C   0  0  0  0  0  2  0  0  0  0  0  0
  179.1990  178.4880  141.9530 C   0  0  0  0  0  2  0  0  0  0  0  0
  1 14  2  0  0  0  0
  2  8  1  0  0  0  0
  4 24  1  0  0  0  0
  6 23  1  6  0  0  0
  6 16  1  0  0  0  0
  7 12  1  0  0  0  0
  7  6  1  0  0  0  0
  8  5  2  0  0  0  0
  9 18  1  0  0  0  0
 10 16  1  0  0  0  0
 10 21  1  0  0  0  0
 11  3  1  6  0  0  0
 11  1  1  0  0  0  0
 11  2  1  0  0  0  0
 12 20  1  1  0  0  0
 12  6  1  0  0  0  0
 13  4  2  0  0  0  0
 13 22  1  0  0  0  0
 14  5  1  0  0  0  0
 15 25  1  0  0  0  0
 15  3  2  0  0  0  0
 17  1  1  0  0  0  0
 18  2  2  0  0  0  0
 19 21  2  0  0  0  0
 19  4  1  0  0  0  0
 20 10  1  0  0  0  0
 21 15  1  0  0  0  0
 22 27  1  0  0  0  0
 22  9  2  0  0  0  0
 24  3  1  0  0  0  0
 24  9  1  0  0  0  0
 25 17  2  0  0  0  0
 26 27  2  0  0  0  0
 28 30  1  0  0  0  0
 29 26  1  6  0  0  0
 29 33  1  0  0  0  0
 30 34  1  0  0  0  0
 30 29  1  0  0  0  0
 31 32  1  0  0  0  0
 33 32  1  0  0  0  0
 34 31  1  0  0  0  0
M  END
>  <MODEL>
7

>  <REMARK>
 VINA RESULT:      -9.0      3.520      8.726
  Name = 
  2 active torsions:
  status: ('A' for Active; 'I' for Inactive)
    1  A    between atoms: C_3  and  C_13
    2  A    between atoms: C_17  and  C_29
                            x       y       z     vdW  Elec       q    Type
                         _______ _______ _______ _____ _____    ______ ____

>  <TORSDO>
F 2

$$$$
=
 OpenBabel10252415103D

 34 41  0  0  1  0  0  0  0  0999 V2000
  188.6440  177.0290  135.4160 C   0  0  0  0  0  0  0  0  0  0  0  0
  187.5950  177.7670  137.5260 C   0  0  0  0  0  0  0  0  0  0  0  0
  189.8770  176.9780  137.4820 C   0  0  0  0  0  0  0  0  0  0  0  0
  190.9450  177.0160  139.5740 C   0  0  0  0  0  0  0  0  0  0  0  0
  186.3480  177.8250  135.4450 C   0  0  0  0  0  3  0  0  0  0  0  0
  195.2150  175.2420  135.7630 C   0  0  1  0  0  0  0  0  0  0  0  0
  196.2210  175.6080  136.6700 O   0  0  0  0  0  0  0  0  0  0  0  0
  186.4170  178.0520  136.8310 C   0  0  0  0  0  3  0  0  0  0  0  0
  188.8800  177.6770  139.4940 C   0  0  0  0  0  0  0  0  0  0  0  0
  193.4010  175.7280  137.1600 N   0  0  0  0  0  0  0  0  0  0  0  0
  188.7000  177.2510  136.7970 C   0  0  0  0  0  0  0  0  0  0  0  0
  195.4290  174.4870  137.0120 C   0  0  1  0  0  3  0  0  0  0  0  0
  190.6420  177.3930  140.8840 C   0  0  0  0  0  2  0  0  0  0  0  0
  187.4530  177.3150  134.7400 C   0  0  0  0  0  3  0  0  0  0  0  0
  191.0320  176.4960  136.8600 C   0  0  0  0  0  0  0  0  0  0  0  0
  193.8940  175.9740  135.8200 C   0  0  0  0  0  2  0  0  0  0  0  0
  189.7800  176.5260  134.7540 C   0  0  0  0  0  3  0  0  0  0  0  0
  187.6980  177.9830  138.8840 N   0  0  0  0  0  0  0  0  0  0  0  0
  192.1030  176.5330  139.0490 N   0  0  0  0  0  0  0  0  0  0  0  0
  194.3070  174.9130  137.9510 C   0  0  0  0  0  2  0  0  0  0  0  0
  192.1780  176.2620  137.6940 C   0  0  0  0  0  0  0  0  0  0  0  0
  189.2900  177.8260  140.8090 C   0  0  0  0  0  0  0  0  0  0  0  0
  195.6540  174.5980  134.6090 O   0  0  0  0  0  1  0  0  0  0  0  0
  189.8940  177.2000  138.7940 N   0  0  0  0  0  0  0  0  0  0  0  0
  190.9670  176.2570  135.4710 C   0  0  0  0  0  3  0  0  0  0  0  0
  187.7630  177.6170  142.7210 C   0  0  0  0  0  3  0  0  0  0  0  0
  188.4690  178.3780  141.8920 C   0  0  0  0  0  3  0  0  0  0  0  0
  185.2720  179.5500  142.8160 C   0  0  0  0  0  1  0  0  0  0  0  0
  186.9660  178.2450  143.8160 C   0  0  1  0  0  3  0  0  0  0  0  0
  185.5350  178.2710  143.4540 N   0  0  0  0  0  0  0  0  0  0  0  0
  185.1850  178.8410  145.8620 C   0  0  0  0  0  2  0  0  0  0  0  0
  186.5100  178.2050  146.2880 C   0  0  0  0  0  2  0  0  0  0  0  0
  187.2210  177.5050  145.1330 C   0  0  0  0  0  2  0  0  0  0  0  0
  184.6240  178.1670  144.6080 C   0  0  0  0  0  2  0  0  0  0  0  0
  1 11  1  0  0  0  0
  2 18  2  0  0  0  0
  3 24  1  0  0  0  0
  4 13  1  0  0  0  0
  5  8  2  0  0  0  0
  6 23  1  6  0  0  0
  6 16  1  0  0  0  0
  6  7  1  0  0  0  0
  6 12  1  0  0  0  0
  7 12  1  0  0  0  0
  8  2  1  0  0  0  0
  9 22  2  0  0  0  0
 10 21  1  0  0  0  0
 10 20  1  0  0  0  0
 11  3  2  0  0  0  0
 11  2  1  0  0  0  0
 12 20  1  1  0  0  0
 14  1  2  0  0  0  0
 14  5  1  0  0  0  0
 15  3  1  0  0  0  0
 15 21  2  0  0  0  0
 16 10  1  0  0  0  0
 17  1  1  0  0  0  0
 17 25  2  0  0  0  0
 18  9  1  0  0  0  0
 19  4  2  0  0  0  0
 21 19  1  0  0  0  0
 22 13  1  0  0  0  0
 22 27  1  0  0  0  0
 24  9  1  0  0  0  0
 24  4  1  0  0  0  0
 25 15  1  0  0  0  0
 27 26  2  0  0  0  0
 28 30  1  0  0  0  0
 29 26  1  6  0  0  0
 29 33  1  0  0  0  0
 30 29  1  0  0  0  0
 30 34  1  0  0  0  0
 31 32  1  0  0  0  0
 33 32  1  0  0  0  0
 34 31  1  0  0  0  0
M  END
>  <MODEL>
8

>  <REMARK>
 VINA RESULT:      -9.0      4.725     10.306
  Name = 
  2 active torsions:
  status: ('A' for Active; 'I' for Inactive)
    1  A    between atoms: C_3  and  C_13
    2  A    between atoms: C_17  and  C_29
                            x       y       z     vdW  Elec       q    Type
                         _______ _______ _______ _____ _____    ______ ____

>  <TORSDO>
F 2

$$$$
=
 OpenBabel10252415103D

 34 41  0  0  1  0  0  0  0  0999 V2000
  188.1800  177.3450  136.6560 C   0  0  0  0  0  0  0  0  0  0  0  0
  189.4260  177.3540  138.7880 C   0  0  0  0  0  0  0  0  0  0  0  0
  187.0950  177.9770  138.7090 C   0  0  0  0  0  0  0  0  0  0  0  0
  186.1820  178.5420  140.7980 C   0  0  0  0  0  0  0  0  0  0  0  0
  190.5250  176.7110  136.7210 C   0  0  0  0  0  3  0  0  0  0  0  0
  181.5340  178.8270  137.0270 C   0  0  1  0  0  0  0  0  0  0  0  0
  180.6240  178.7130  138.0890 O   0  0  0  0  0  0  0  0  0  0  0  0
  190.5700  176.9250  138.1110 C   0  0  0  0  0  3  0  0  0  0  0  0
  188.2790  177.9910  140.7400 C   0  0  0  0  0  0  0  0  0  0  0  0
  183.4730  178.8910  138.3360 N   0  0  0  0  0  0  0  0  0  0  0  0
  188.2370  177.5620  138.0370 C   0  0  0  0  0  0  0  0  0  0  0  0
  181.3530  179.9230  137.9970 C   0  0  1  0  0  3  0  0  0  0  0  0
  186.6030  178.6080  142.1280 C   0  0  0  0  0  2  0  0  0  0  0  0
  189.3380  176.9200  135.9960 C   0  0  0  0  0  3  0  0  0  0  0  0
  185.8660  178.1850  138.0750 C   0  0  0  0  0  0  0  0  0  0  0  0
  182.9070  178.2150  137.1870 C   0  0  0  0  0  2  0  0  0  0  0  0
  186.9660  177.5600  135.9760 C   0  0  0  0  0  3  0  0  0  0  0  0
  189.4350  177.5680  140.1490 N   0  0  0  0  0  0  0  0  0  0  0  0
  184.9560  178.7800  140.2560 N   0  0  0  0  0  0  0  0  0  0  0  0
  182.5670  179.8660  138.9170 C   0  0  0  0  0  2  0  0  0  0  0  0
  184.7670  178.6100  138.8960 C   0  0  0  0  0  0  0  0  0  0  0  0
  187.9750  178.2400  142.0690 C   0  0  0  0  0  0  0  0  0  0  0  0
  180.9690  179.0570  135.7750 O   0  0  0  0  0  1  0  0  0  0  0  0
  187.1860  178.1750  140.0210 N   0  0  0  0  0  0  0  0  0  0  0  0
  185.8150  177.9810  136.6800 C   0  0  0  0  0  3  0  0  0  0  0  0
  188.5150  177.8030  144.4250 C   0  0  0  0  0  3  0  0  0  0  0  0
  188.9090  178.0940  143.1900 C   0  0  0  0  0  3  0  0  0  0  0  0
  188.4510  178.1220  147.5620 C   0  0  0  0  0  1  0  0  0  0  0  0
  189.5240  177.6480  145.5140 C   0  0  1  0  0  3  0  0  0  0  0  0
  188.8980  177.0380  146.7030 N   0  0  0  0  0  0  0  0  0  0  0  0
  191.2530  176.7320  147.4850 C   0  0  0  0  0  2  0  0  0  0  0  0
  191.8140  176.7670  146.0620 C   0  0  0  0  0  2  0  0  0  0  0  0
  190.7180  176.8360  145.0020 C   0  0  0  0  0  2  0  0  0  0  0  0
  189.8160  176.2050  147.5010 C   0  0  0  0  0  2  0  0  0  0  0  0
  1 11  1  0  0  0  0
  2 18  2  0  0  0  0
  3 24  1  0  0  0  0
  4 13  1  0  0  0  0
  5  8  2  0  0  0  0
  6 23  1  6  0  0  0
  6 16  1  0  0  0  0
  6 12  1  0  0  0  0
  6  7  1  0  0  0  0
  8  2  1  0  0  0  0
  9 22  2  0  0  0  0
 10 21  1  0  0  0  0
 10 20  1  0  0  0  0
 11  3  2  0  0  0  0
 11  2  1  0  0  0  0
 12  7  1  0  0  0  0
 12 20  1  1  0  0  0
 14  1  2  0  0  0  0
 14  5  1  0  0  0  0
 15  3  1  0  0  0  0
 15 21  2  0  0  0  0
 16 10  1  0  0  0  0
 17  1  1  0  0  0  0
 17 25  2  0  0  0  0
 18  9  1  0  0  0  0
 19  4  2  0  0  0  0
 21 19  1  0  0  0  0
 22 13  1  0  0  0  0
 22 27  1  0  0  0  0
 24  9  1  0  0  0  0
 24  4  1  0  0  0  0
 25 15  1  0  0  0  0
 27 26  2  0  0  0  0
 29 26  1  6  0  0  0
 29 30  1  0  0  0  0
 30 34  1  0  0  0  0
 30 28  1  0  0  0  0
 31 34  1  0  0  0  0
 32 31  1  0  0  0  0
 33 29  1  0  0  0  0
 33 32  1  0  0  0  0
M  END
>  <MODEL>
9

>  <REMARK>
 VINA RESULT:      -8.9      2.630      6.728
  Name = 
  2 active torsions:
  status: ('A' for Active; 'I' for Inactive)
    1  A    between atoms: C_3  and  C_13
    2  A    between atoms: C_17  and  C_29
                            x       y       z     vdW  Elec       q    Type
                         _______ _______ _______ _____ _____    ______ ____

>  <TORSDO>
F 2

$$$$
