=
 OpenBabel10262422543D

 37 43  0  0  1  0  0  0  0  0999 V2000
  189.4020  178.3870  137.6410 C   0  0  2  0  0  3  0  0  0  0  0  0
  184.9560  173.3030  137.7320 C   0  0  0  0  0  2  0  0  0  0  0  0
  184.8760  177.5040  138.0360 C   0  0  0  0  0  0  0  0  0  0  0  0
  190.0410  177.8220  136.3850 C   0  0  1  0  0  3  0  0  0  0  0  0
  188.7120  177.6110  139.9120 C   0  0  0  0  0  2  0  0  0  0  0  0
  184.0950  175.5060  136.7660 C   0  0  2  0  0  3  0  0  0  0  0  0
  186.1300  178.2290  138.4140 C   0  0  1  0  0  3  0  0  0  0  0  0
  185.1540  176.3670  137.4120 C   0  0  0  0  0  0  0  0  0  0  0  0
  186.2950  178.3580  139.9190 C   0  0  0  0  0  0  0  0  0  0  0  0
  182.8150  176.3030  136.4660 C   0  0  0  0  0  2  0  0  0  0  0  0
  186.6070  176.1960  137.3370 C   0  0  2  0  0  3  0  0  0  0  0  0
  186.7800  173.9310  136.1780 C   0  0  0  0  0  3  0  0  0  0  0  0
  183.2630  179.1610  138.5950 O   0  0  0  0  0  0  0  0  0  0  0  0
  182.3690  177.1490  137.6640 C   0  0  0  0  0  2  0  0  0  0  0  0
  187.3590  174.8990  137.1700 C   0  0  0  0  0  2  0  0  0  0  0  0
  187.3620  177.5530  140.6400 C   0  0  0  0  0  2  0  0  0  0  0  0
  183.4990  178.0180  138.1250 C   0  0  0  0  0  0  0  0  0  0  0  0
  187.1670  177.2850  137.8720 C   0  0  2  0  0  3  0  0  0  0  0  0
  183.7690  174.2540  137.5830 C   0  0  0  0  0  2  0  0  0  0  0  0
  185.7100  173.1700  136.4420 C   0  0  0  0  0  3  0  0  0  0  0  0
  189.7340  176.8910  137.5390 C   0  0  2  0  0  0  0  0  0  0  0  0
  188.5700  177.3700  138.4030 C   0  0  1  0  0  0  0  0  0  0  0  0
  185.4820  179.1780  140.5970 C   0  0  0  0  0  3  0  0  0  0  0  0
  189.1830  176.3360  134.5940 C   0  0  0  0  0  1  0  0  0  0  0  0
  189.0020  177.6700  135.2880 C   0  0  0  0  0  2  0  0  0  0  0  0
  191.0080  176.4830  138.3160 C   0  0  0  0  0  2  0  0  0  0  0  0
  191.7540  175.2160  137.8670 C   0  0  0  0  0  2  0  0  0  0  0  0
  191.1090  173.5570  136.5470 C   0  0  0  0  0  1  0  0  0  0  0  0
  190.8870  174.1180  137.8060 O   0  0  0  0  0  0  0  0  0  0  0  0
  185.5850  179.3890  142.0750 C   0  0  0  0  0  2  0  0  0  0  0  0
  184.1800  179.1960  144.1200 C   0  0  0  0  0  3  0  0  0  0  0  0
  184.2650  179.1610  142.7250 C   0  0  0  0  0  0  0  0  0  0  0  0
  183.1240  178.8750  141.9640 C   0  0  0  0  0  3  0  0  0  0  0  0
  180.8010  178.3490  141.8710 F   0  0  0  0  0  0  0  0  0  0  0  0
  181.8240  178.6590  143.9980 C   0  0  0  0  0  3  0  0  0  0  0  0
  181.9060  178.6220  142.6030 C   0  0  0  0  0  0  0  0  0  0  0  0
  182.9610  178.9490  144.7570 C   0  0  0  0  0  3  0  0  0  0  0  0
  1 22  1  0  0  0  0
  3 17  1  0  0  0  0
  3  7  1  0  0  0  0
  4 21  1  0  0  0  0
  4  1  1  0  0  0  0
  5 16  1  0  0  0  0
  6  8  1  0  0  0  0
  6 19  1  0  0  0  0
  7  9  1  0  0  0  0
  8  3  2  0  0  0  0
  9 23  2  0  0  0  0
  9 16  1  0  0  0  0
 10  6  1  0  0  0  0
 10 14  1  0  0  0  0
 11  8  1  0  0  0  0
 11 18  1  0  0  0  0
 12 20  2  0  0  0  0
 12 15  1  0  0  0  0
 14 17  1  0  0  0  0
 15 11  1  0  0  0  0
 17 13  2  0  0  0  0
 18 22  1  0  0  0  0
 18  7  1  0  0  0  0
 19  2  1  0  0  0  0
 20  2  1  0  0  0  0
 21  1  1  0  0  0  0
 21 26  1  0  0  0  0
 21 22  1  0  0  0  0
 22  5  1  0  0  0  0
 23 30  1  0  0  0  0
 24 25  1  0  0  0  0
 25  4  1  0  0  0  0
 27 26  1  0  0  0  0
 28 29  1  0  0  0  0
 29 27  1  0  0  0  0
 30 32  1  0  0  0  0
 31 37  1  0  0  0  0
 32 31  2  0  0  0  0
 33 36  2  0  0  0  0
 33 32  1  0  0  0  0
 34 36  1  0  0  0  0
 35 37  2  0  0  0  0
 36 35  1  0  0  0  0
M  END
>  <MODEL>
1

>  <REMARK>
 VINA RESULT:      -6.7      0.000      0.000
  Name = 
  6 active torsions:
  status: ('A' for Active; 'I' for Inactive)
    1  A    between atoms: C_5  and  C_23
    2  A    between atoms: C_6  and  C_31
    3  A    between atoms: C_17  and  C_26
    4  A    between atoms: C_17  and  C_33
    5  A    between atoms: C_26  and  O_34
    6  A    between atoms: C_31  and  C_37
                            x       y       z     vdW  Elec       q    Type
                         _______ _______ _______ _____ _____    ______ ____

>  <TORSDO>
F 6

$$$$
=
 OpenBabel10262422543D

 37 43  0  0  1  0  0  0  0  0999 V2000
  187.9150  178.7060  137.0130 C   0  0  2  0  0  3  0  0  0  0  0  0
  184.9070  172.6900  137.6370 C   0  0  0  0  0  2  0  0  0  0  0  0
  183.8430  176.5850  136.4330 C   0  0  0  0  0  0  0  0  0  0  0  0
  189.0660  178.0660  136.2560 C   0  0  1  0  0  3  0  0  0  0  0  0
  186.6360  178.3650  139.1300 C   0  0  0  0  0  2  0  0  0  0  0  0
  184.0080  174.1860  135.7720 C   0  0  2  0  0  3  0  0  0  0  0  0
  184.6950  177.7370  136.8640 C   0  0  1  0  0  3  0  0  0  0  0  0
  184.5580  175.4710  136.3430 C   0  0  0  0  0  0  0  0  0  0  0  0
  184.2790  178.2940  138.2160 C   0  0  0  0  0  0  0  0  0  0  0  0
  182.7840  174.4370  134.8760 C   0  0  0  0  0  2  0  0  0  0  0  0
  185.9430  175.7500  136.7330 C   0  0  2  0  0  3  0  0  0  0  0  0
  186.9920  173.4350  136.5250 C   0  0  0  0  0  3  0  0  0  0  0  0
  181.8270  177.7390  135.9200 O   0  0  0  0  0  0  0  0  0  0  0  0
  181.7710  175.3800  135.5360 C   0  0  0  0  0  2  0  0  0  0  0  0
  186.9590  174.7570  137.2380 C   0  0  0  0  0  2  0  0  0  0  0  0
  185.1590  178.0770  139.4340 C   0  0  0  0  0  2  0  0  0  0  0  0
  182.4500  176.6460  135.9580 C   0  0  0  0  0  0  0  0  0  0  0  0
  186.0310  177.0590  136.9900 C   0  0  2  0  0  3  0  0  0  0  0  0
  183.6810  173.1510  136.8490 C   0  0  0  0  0  2  0  0  0  0  0  0
  186.0840  172.4720  136.7320 C   0  0  0  0  0  3  0  0  0  0  0  0
  188.5680  177.4160  137.5300 C   0  0  2  0  0  0  0  0  0  0  0  0
  187.0990  177.7120  137.8210 C   0  0  1  0  0  0  0  0  0  0  0  0
  183.1230  178.9640  138.3180 C   0  0  0  0  0  3  0  0  0  0  0  0
  189.3860  176.0820  134.8030 C   0  0  0  0  0  1  0  0  0  0  0  0
  188.5460  177.3200  135.0400 C   0  0  0  0  0  2  0  0  0  0  0  0
  189.5340  177.6410  138.7170 C   0  0  0  0  0  2  0  0  0  0  0  0
  190.4290  176.4690  139.1530 C   0  0  0  0  0  2  0  0  0  0  0  0
  189.6550  177.3950  141.0120 C   0  0  0  0  0  1  0  0  0  0  0  0
  190.4530  176.3480  140.5480 O   0  0  0  0  0  0  0  0  0  0  0  0
  182.6430  179.5690  139.5980 C   0  0  0  0  0  2  0  0  0  0  0  0
  180.9530  177.7500  139.4250 C   0  0  0  0  0  3  0  0  0  0  0  0
  181.5850  178.7190  140.2110 C   0  0  0  0  0  0  0  0  0  0  0  0
  181.1910  178.9020  141.5430 C   0  0  0  0  0  3  0  0  0  0  0  0
  179.7850  178.2890  143.3670 F   0  0  0  0  0  0  0  0  0  0  0  0
  179.5370  177.1490  141.2920 C   0  0  0  0  0  3  0  0  0  0  0  0
  180.1650  178.1170  142.0800 C   0  0  0  0  0  0  0  0  0  0  0  0
  179.9320  176.9630  139.9650 C   0  0  0  0  0  3  0  0  0  0  0  0
  1 21  1  0  0  0  0
  1 22  1  0  0  0  0
  3  7  1  0  0  0  0
  4  1  1  0  0  0  0
  4 21  1  0  0  0  0
  5 16  1  0  0  0  0
  6  8  1  0  0  0  0
  6 19  1  0  0  0  0
  7 18  1  0  0  0  0
  7  9  1  0  0  0  0
  8  3  2  0  0  0  0
  8 11  1  0  0  0  0
  9 23  2  0  0  0  0
  9 16  1  0  0  0  0
 10 14  1  0  0  0  0
 10  6  1  0  0  0  0
 11 18  1  0  0  0  0
 11 15  1  0  0  0  0
 12 20  2  0  0  0  0
 12 15  1  0  0  0  0
 13 17  2  0  0  0  0
 14 17  1  0  0  0  0
 17  3  1  0  0  0  0
 18 22  1  0  0  0  0
 19  2  1  0  0  0  0
 20  2  1  0  0  0  0
 21 22  1  0  0  0  0
 21 26  1  0  0  0  0
 22  5  1  0  0  0  0
 23 30  1  0  0  0  0
 24 25  1  0  0  0  0
 25  4  1  0  0  0  0
 26 27  1  0  0  0  0
 27 29  1  0  0  0  0
 29 28  1  0  0  0  0
 30 32  1  0  0  0  0
 31 37  2  0  0  0  0
 31 32  1  0  0  0  0
 32 33  2  0  0  0  0
 33 36  1  0  0  0  0
 35 36  2  0  0  0  0
 36 34  1  0  0  0  0
 37 35  1  0  0  0  0
M  END
>  <MODEL>
2

>  <REMARK>
 VINA RESULT:      -6.2      1.902      2.726
  Name = 
  6 active torsions:
  status: ('A' for Active; 'I' for Inactive)
    1  A    between atoms: C_5  and  C_23
    2  A    between atoms: C_6  and  C_31
    3  A    between atoms: C_17  and  C_26
    4  A    between atoms: C_17  and  C_33
    5  A    between atoms: C_26  and  O_34
    6  A    between atoms: C_31  and  C_37
                            x       y       z     vdW  Elec       q    Type
                         _______ _______ _______ _____ _____    ______ ____

>  <TORSDO>
F 6

$$$$
=
 OpenBabel10262422543D

 37 43  0  0  1  0  0  0  0  0999 V2000
  189.3710  178.3710  137.2620 C   0  0  2  0  0  3  0  0  0  0  0  0
  183.6050  175.0260  138.3510 C   0  0  0  0  0  2  0  0  0  0  0  0
  185.6210  178.3490  139.9740 C   0  0  0  0  0  0  0  0  0  0  0  0
  189.0660  178.4370  135.7750 C   0  0  1  0  0  3  0  0  0  0  0  0
  189.4490  176.6730  139.0910 C   0  0  0  0  0  2  0  0  0  0  0  0
  183.5450  177.5270  138.8660 C   0  0  2  0  0  3  0  0  0  0  0  0
  187.0910  178.4950  139.7350 C   0  0  1  0  0  3  0  0  0  0  0  0
  185.0410  177.6830  138.9840 C   0  0  0  0  0  0  0  0  0  0  0  0
  187.9250  177.7740  140.7820 C   0  0  0  0  0  0  0  0  0  0  0  0
  182.7930  178.6020  139.6670 C   0  0  0  0  0  2  0  0  0  0  0  0
  186.0570  177.2870  138.0050 C   0  0  2  0  0  3  0  0  0  0  0  0
  184.6450  175.9940  136.3220 C   0  0  0  0  0  3  0  0  0  0  0  0
  185.3780  179.7480  141.8830 O   0  0  0  0  0  0  0  0  0  0  0  0
  183.3530  178.7590  141.0860 C   0  0  0  0  0  2  0  0  0  0  0  0
  185.9680  176.1530  137.0150 C   0  0  0  0  0  2  0  0  0  0  0  0
  188.6870  176.5140  140.4140 C   0  0  0  0  0  2  0  0  0  0  0  0
  184.8290  179.0050  141.0290 C   0  0  0  0  0  0  0  0  0  0  0  0
  187.2260  177.7910  138.4130 C   0  0  2  0  0  3  0  0  0  0  0  0
  183.0620  176.1300  139.2580 C   0  0  0  0  0  2  0  0  0  0  0  0
  183.5750  175.4430  136.9100 C   0  0  0  0  0  3  0  0  0  0  0  0
  188.8910  177.1220  136.5060 C   0  0  2  0  0  0  0  0  0  0  0  0
  188.5810  177.2980  137.9900 C   0  0  1  0  0  0  0  0  0  0  0  0
  187.9650  178.2590  142.0300 C   0  0  0  0  0  3  0  0  0  0  0  0
  186.8930  178.2580  134.5940 C   0  0  0  0  0  1  0  0  0  0  0  0
  187.7200  179.1000  135.5430 C   0  0  0  0  0  2  0  0  0  0  0  0
  190.0230  176.1180  136.1830 C   0  0  0  0  0  2  0  0  0  0  0  0
  189.6430  174.8000  135.4890 C   0  0  0  0  0  2  0  0  0  0  0  0
  188.8080  172.7540  135.6490 C   0  0  0  0  0  1  0  0  0  0  0  0
  189.0200  173.9220  136.3830 O   0  0  0  0  0  0  0  0  0  0  0  0
  188.7760  177.6340  143.1210 C   0  0  0  0  0  2  0  0  0  0  0  0
  188.7610  177.5150  145.6070 C   0  0  0  0  0  3  0  0  0  0  0  0
  188.0520  177.7160  144.4190 C   0  0  0  0  0  0  0  0  0  0  0  0
  186.6710  177.9510  144.4630 C   0  0  0  0  0  3  0  0  0  0  0  0
  184.6750  178.2110  145.7400 F   0  0  0  0  0  0  0  0  0  0  0  0
  186.7210  177.7810  146.8800 C   0  0  0  0  0  3  0  0  0  0  0  0
  186.0080  177.9810  145.6940 C   0  0  0  0  0  0  0  0  0  0  0  0
  188.0980  177.5510  146.8370 C   0  0  0  0  0  3  0  0  0  0  0  0
  1 22  1  0  0  0  0
  2 19  1  0  0  0  0
  3 17  1  0  0  0  0
  4 21  1  0  0  0  0
  4  1  1  0  0  0  0
  5 16  1  0  0  0  0
  6  8  1  0  0  0  0
  6 19  1  0  0  0  0
  6 10  1  0  0  0  0
  7  3  1  0  0  0  0
  7  9  1  0  0  0  0
  8  3  2  0  0  0  0
  9 23  2  0  0  0  0
 10 14  1  0  0  0  0
 11 18  1  0  0  0  0
 11  8  1  0  0  0  0
 12 20  2  0  0  0  0
 12 15  1  0  0  0  0
 15 11  1  0  0  0  0
 16  9  1  0  0  0  0
 17 14  1  0  0  0  0
 17 13  2  0  0  0  0
 18  7  1  0  0  0  0
 20  2  1  0  0  0  0
 21  1  1  0  0  0  0
 21 22  1  0  0  0  0
 22 18  1  0  0  0  0
 22  5  1  0  0  0  0
 23 30  1  0  0  0  0
 24 25  1  0  0  0  0
 25  4  1  0  0  0  0
 26 21  1  0  0  0  0
 27 26  1  0  0  0  0
 27 29  1  0  0  0  0
 28 29  1  0  0  0  0
 30 32  1  0  0  0  0
 31 37  1  0  0  0  0
 32 33  1  0  0  0  0
 32 31  2  0  0  0  0
 33 36  2  0  0  0  0
 36 34  1  0  0  0  0
 36 35  1  0  0  0  0
 37 35  2  0  0  0  0
M  END
>  <MODEL>
3

>  <REMARK>
 VINA RESULT:      -5.9      2.339      3.203
  Name = 
  6 active torsions:
  status: ('A' for Active; 'I' for Inactive)
    1  A    between atoms: C_5  and  C_23
    2  A    between atoms: C_6  and  C_31
    3  A    between atoms: C_17  and  C_26
    4  A    between atoms: C_17  and  C_33
    5  A    between atoms: C_26  and  O_34
    6  A    between atoms: C_31  and  C_37
                            x       y       z     vdW  Elec       q    Type
                         _______ _______ _______ _____ _____    ______ ____

>  <TORSDO>
F 6

$$$$
=
 OpenBabel10262422543D

 37 43  0  0  1  0  0  0  0  0999 V2000
  181.7720  178.4000  138.1760 C   0  0  2  0  0  3  0  0  0  0  0  0
  187.7550  177.6270  141.2140 C   0  0  0  0  0  2  0  0  0  0  0  0
  186.2300  177.5330  137.2880 C   0  0  0  0  0  0  0  0  0  0  0  0
  181.5280  179.6810  138.9550 C   0  0  1  0  0  3  0  0  0  0  0  0
  182.4540  176.0370  138.6080 C   0  0  0  0  0  2  0  0  0  0  0  0
  187.8310  178.6190  138.8610 C   0  0  2  0  0  3  0  0  0  0  0  0
  184.7640  177.3140  137.0830 C   0  0  1  0  0  3  0  0  0  0  0  0
  186.4650  178.1220  138.4540 C   0  0  0  0  0  0  0  0  0  0  0  0
  184.4020  175.8390  137.0080 C   0  0  0  0  0  0  0  0  0  0  0  0
  188.7460  178.8370  137.6450 C   0  0  0  0  0  2  0  0  0  0  0  0
  185.1970  178.3250  139.1590 C   0  0  2  0  0  3  0  0  0  0  0  0
  186.0060  179.3770  141.3370 C   0  0  0  0  0  3  0  0  0  0  0  0
  187.0400  176.9090  135.1400 O   0  0  0  0  0  0  0  0  0  0  0  0
  188.7130  177.6470  136.6790 C   0  0  0  0  0  2  0  0  0  0  0  0
  185.0050  178.4950  140.6460 C   0  0  0  0  0  2  0  0  0  0  0  0
  183.6420  175.1830  138.1460 C   0  0  0  0  0  2  0  0  0  0  0  0
  187.2990  177.3400  136.2930 C   0  0  0  0  0  0  0  0  0  0  0  0
  184.2180  177.9020  138.3540 C   0  0  2  0  0  3  0  0  0  0  0  0
  188.5110  177.7110  139.8880 C   0  0  0  0  0  2  0  0  0  0  0  0
  187.2480  178.9740  141.6370 C   0  0  0  0  0  3  0  0  0  0  0  0
  182.0340  178.4560  139.6880 C   0  0  2  0  0  0  0  0  0  0  0  0
  182.8360  177.5120  138.7970 C   0  0  1  0  0  0  0  0  0  0  0  0
  184.7740  175.1300  135.9340 C   0  0  0  0  0  3  0  0  0  0  0  0
  182.0900  182.0160  138.3400 C   0  0  0  0  0  1  0  0  0  0  0  0
  182.6600  180.6650  138.7180 C   0  0  0  0  0  2  0  0  0  0  0  0
  180.9290  177.7840  140.5360 C   0  0  0  0  0  2  0  0  0  0  0  0
  180.6910  178.3080  141.9610 C   0  0  0  0  0  2  0  0  0  0  0  0
  181.6610  178.9320  143.8540 C   0  0  0  0  0  1  0  0  0  0  0  0
  181.8420  178.9220  142.4690 O   0  0  0  0  0  0  0  0  0  0  0  0
  184.4420  173.6820  135.7590 C   0  0  0  0  0  2  0  0  0  0  0  0
  185.6750  171.5800  135.2540 C   0  0  0  0  0  3  0  0  0  0  0  0
  185.6770  172.8540  135.8310 C   0  0  0  0  0  0  0  0  0  0  0  0
  186.8190  173.3150  136.4980 C   0  0  0  0  0  3  0  0  0  0  0  0
  189.0570  172.9430  137.2290 F   0  0  0  0  0  0  0  0  0  0  0  0
  187.9460  171.2270  136.0080 C   0  0  0  0  0  3  0  0  0  0  0  0
  187.9510  172.4990  136.5880 C   0  0  0  0  0  0  0  0  0  0  0  0
  186.8090  170.7680  135.3390 C   0  0  0  0  0  3  0  0  0  0  0  0
  1 22  1  0  0  0  0
  1  4  1  0  0  0  0
  1 21  1  0  0  0  0
  2 20  1  0  0  0  0
  3  8  2  0  0  0  0
  4 21  1  0  0  0  0
  5 22  1  0  0  0  0
  6 19  1  0  0  0  0
  7  3  1  0  0  0  0
  7 18  1  0  0  0  0
  8  6  1  0  0  0  0
  8 11  1  0  0  0  0
  9  7  1  0  0  0  0
  9 16  1  0  0  0  0
 10  6  1  0  0  0  0
 11 15  1  0  0  0  0
 12 20  2  0  0  0  0
 13 17  2  0  0  0  0
 14 10  1  0  0  0  0
 15 12  1  0  0  0  0
 16  5  1  0  0  0  0
 17 14  1  0  0  0  0
 17  3  1  0  0  0  0
 18 22  1  0  0  0  0
 18 11  1  0  0  0  0
 19  2  1  0  0  0  0
 21 26  1  0  0  0  0
 22 21  1  0  0  0  0
 23  9  2  0  0  0  0
 24 25  1  0  0  0  0
 25  4  1  0  0  0  0
 26 27  1  0  0  0  0
 27 29  1  0  0  0  0
 29 28  1  0  0  0  0
 30 32  1  0  0  0  0
 30 23  1  0  0  0  0
 31 37  2  0  0  0  0
 31 32  1  0  0  0  0
 32 33  2  0  0  0  0
 33 36  1  0  0  0  0
 35 36  2  0  0  0  0
 36 34  1  0  0  0  0
 37 35  1  0  0  0  0
M  END
>  <MODEL>
4

>  <REMARK>
 VINA RESULT:      -5.7      2.674      8.112
  Name = 
  6 active torsions:
  status: ('A' for Active; 'I' for Inactive)
    1  A    between atoms: C_5  and  C_23
    2  A    between atoms: C_6  and  C_31
    3  A    between atoms: C_17  and  C_26
    4  A    between atoms: C_17  and  C_33
    5  A    between atoms: C_26  and  O_34
    6  A    between atoms: C_31  and  C_37
                            x       y       z     vdW  Elec       q    Type
                         _______ _______ _______ _____ _____    ______ ____

>  <TORSDO>
F 6

$$$$
=
 OpenBabel10262422543D

 37 43  0  0  1  0  0  0  0  0999 V2000
  189.1960  178.2680  136.8470 C   0  0  2  0  0  3  0  0  0  0  0  0
  184.7160  173.2950  137.7550 C   0  0  0  0  0  2  0  0  0  0  0  0
  184.8500  177.4800  138.2280 C   0  0  0  0  0  0  0  0  0  0  0  0
  189.5150  177.7440  135.4580 C   0  0  1  0  0  3  0  0  0  0  0  0
  189.0120  177.4090  139.1850 C   0  0  0  0  0  2  0  0  0  0  0  0
  183.7340  175.5590  137.0940 C   0  0  2  0  0  3  0  0  0  0  0  0
  186.1800  178.1560  138.3370 C   0  0  1  0  0  3  0  0  0  0  0  0
  184.9400  176.3650  137.5140 C   0  0  0  0  0  0  0  0  0  0  0  0
  186.6860  178.2140  139.7690 C   0  0  0  0  0  0  0  0  0  0  0  0
  182.4470  176.4000  137.1230 C   0  0  0  0  0  2  0  0  0  0  0  0
  186.3320  176.1620  137.1040 C   0  0  2  0  0  3  0  0  0  0  0  0
  186.1620  173.9470  135.8520 C   0  0  0  0  0  3  0  0  0  0  0  0
  183.4620  179.1490  139.2010 O   0  0  0  0  0  0  0  0  0  0  0  0
  182.3130  177.2030  138.4220 C   0  0  0  0  0  2  0  0  0  0  0  0
  186.9830  174.8560  136.7220 C   0  0  0  0  0  2  0  0  0  0  0  0
  187.8600  177.3520  140.1980 C   0  0  0  0  0  2  0  0  0  0  0  0
  183.5460  178.0220  138.6470 C   0  0  0  0  0  0  0  0  0  0  0  0
  187.0360  177.2120  137.5390 C   0  0  2  0  0  3  0  0  0  0  0  0
  183.5590  174.2810  137.9160 C   0  0  0  0  0  2  0  0  0  0  0  0
  185.1540  173.2010  136.3230 C   0  0  0  0  0  3  0  0  0  0  0  0
  189.4460  176.7710  136.6160 C   0  0  2  0  0  0  0  0  0  0  0  0
  188.5240  177.2390  137.7390 C   0  0  1  0  0  0  0  0  0  0  0  0
  186.0760  179.0230  140.6450 C   0  0  0  0  0  3  0  0  0  0  0  0
  187.4230  178.9180  134.8300 C   0  0  0  0  0  1  0  0  0  0  0  0
  188.2500  177.6660  134.6210 C   0  0  0  0  0  2  0  0  0  0  0  0
  190.8480  176.2970  137.0670 C   0  0  0  0  0  2  0  0  0  0  0  0
  191.1750  174.7990  136.9570 C   0  0  0  0  0  2  0  0  0  0  0  0
  191.1750  172.9670  135.7100 C   0  0  0  0  0  1  0  0  0  0  0  0
  191.0660  174.3570  135.6330 O   0  0  0  0  0  0  0  0  0  0  0  0
  186.5170  179.1660  142.0670 C   0  0  0  0  0  2  0  0  0  0  0  0
  184.0630  179.2600  142.4730 C   0  0  0  0  0  3  0  0  0  0  0  0
  185.3500  179.0670  142.9860 C   0  0  0  0  0  0  0  0  0  0  0  0
  185.5260  178.8240  144.3550 C   0  0  0  0  0  3  0  0  0  0  0  0
  184.5800  178.5430  146.5240 F   0  0  0  0  0  0  0  0  0  0  0  0
  183.1290  178.9720  144.6860 C   0  0  0  0  0  3  0  0  0  0  0  0
  184.4140  178.7800  145.2020 C   0  0  0  0  0  0  0  0  0  0  0  0
  182.9530  179.2100  143.3200 C   0  0  0  0  0  3  0  0  0  0  0  0
  1 22  1  0  0  0  0
  2 19  1  0  0  0  0
  3  7  1  0  0  0  0
  3 17  1  0  0  0  0
  4 21  1  0  0  0  0
  4  1  1  0  0  0  0
  5 16  1  0  0  0  0
  6 10  1  0  0  0  0
  6  8  1  0  0  0  0
  6 19  1  0  0  0  0
  7  9  1  0  0  0  0
  8  3  2  0  0  0  0
  9 16  1  0  0  0  0
  9 23  2  0  0  0  0
 10 14  1  0  0  0  0
 11  8  1  0  0  0  0
 11 18  1  0  0  0  0
 12 20  2  0  0  0  0
 12 15  1  0  0  0  0
 14 17  1  0  0  0  0
 15 11  1  0  0  0  0
 17 13  2  0  0  0  0
 18 22  1  0  0  0  0
 18  7  1  0  0  0  0
 20  2  1  0  0  0  0
 21  1  1  0  0  0  0
 21 26  1  0  0  0  0
 21 22  1  0  0  0  0
 22  5  1  0  0  0  0
 23 30  1  0  0  0  0
 25 24  1  0  0  0  0
 25  4  1  0  0  0  0
 27 26  1  0  0  0  0
 29 28  1  0  0  0  0
 29 27  1  0  0  0  0
 30 32  1  0  0  0  0
 31 32  2  0  0  0  0
 31 37  1  0  0  0  0
 32 33  1  0  0  0  0
 33 36  2  0  0  0  0
 35 36  1  0  0  0  0
 36 34  1  0  0  0  0
 37 35  2  0  0  0  0
M  END
>  <MODEL>
5

>  <REMARK>
 VINA RESULT:      -5.6      1.330      1.630
  Name = 
  6 active torsions:
  status: ('A' for Active; 'I' for Inactive)
    1  A    between atoms: C_5  and  C_23
    2  A    between atoms: C_6  and  C_31
    3  A    between atoms: C_17  and  C_26
    4  A    between atoms: C_17  and  C_33
    5  A    between atoms: C_26  and  O_34
    6  A    between atoms: C_31  and  C_37
                            x       y       z     vdW  Elec       q    Type
                         _______ _______ _______ _____ _____    ______ ____

>  <TORSDO>
F 6

$$$$
=
 OpenBabel10262422543D

 37 43  0  0  1  0  0  0  0  0999 V2000
  182.2840  177.7180  139.7590 C   0  0  2  0  0  3  0  0  0  0  0  0
  180.3020  173.8420  134.5940 C   0  0  0  0  0  2  0  0  0  0  0  0
  183.4510  173.9170  137.3910 C   0  0  0  0  0  0  0  0  0  0  0  0
  180.8790  177.6870  140.3370 C   0  0  1  0  0  3  0  0  0  0  0  0
  183.4090  178.1830  137.5790 C   0  0  0  0  0  2  0  0  0  0  0  0
  181.5200  172.6270  136.4830 C   0  0  2  0  0  3  0  0  0  0  0  0
  183.7700  175.2000  138.0920 C   0  0  1  0  0  3  0  0  0  0  0  0
  182.1700  173.8650  137.0520 C   0  0  0  0  0  0  0  0  0  0  0  0
  184.7540  176.0580  137.3130 C   0  0  0  0  0  0  0  0  0  0  0  0
  182.3200  171.3580  136.8160 C   0  0  0  0  0  2  0  0  0  0  0  0
  181.5100  175.1110  137.4540 C   0  0  2  0  0  3  0  0  0  0  0  0
  179.1400  174.7150  136.6010 C   0  0  0  0  0  3  0  0  0  0  0  0
  185.5070  172.7600  137.7030 O   0  0  0  0  0  0  0  0  0  0  0  0
  183.8190  171.5320  136.5390 C   0  0  0  0  0  2  0  0  0  0  0  0
  180.2450  175.6940  136.8760 C   0  0  0  0  0  2  0  0  0  0  0  0
  184.2860  177.3380  136.6450 C   0  0  0  0  0  2  0  0  0  0  0  0
  184.3330  172.7450  137.2510 C   0  0  0  0  0  0  0  0  0  0  0  0
  182.4180  175.8580  138.0900 C   0  0  2  0  0  3  0  0  0  0  0  0
  181.2740  172.7260  134.9760 C   0  0  0  0  0  2  0  0  0  0  0  0
  179.1380  173.8960  135.5410 C   0  0  0  0  0  3  0  0  0  0  0  0
  181.0630  177.9620  138.8590 C   0  0  2  0  0  0  0  0  0  0  0  0
  182.3360  177.3450  138.2870 C   0  0  1  0  0  0  0  0  0  0  0  0
  186.0300  175.6620  137.2160 C   0  0  0  0  0  3  0  0  0  0  0  0
  178.9360  176.1470  140.3610 C   0  0  0  0  0  1  0  0  0  0  0  0
  180.4330  176.2530  140.5600 C   0  0  0  0  0  2  0  0  0  0  0  0
  180.8360  179.4510  138.5090 C   0  0  0  0  0  2  0  0  0  0  0  0
  179.9420  179.7830  137.3030 C   0  0  0  0  0  2  0  0  0  0  0  0
  180.4350  181.5640  136.0800 C   0  0  0  0  0  1  0  0  0  0  0  0
  180.7090  180.2010  136.2090 O   0  0  0  0  0  0  0  0  0  0  0  0
  187.0750  176.4520  136.4930 C   0  0  0  0  0  2  0  0  0  0  0  0
  189.4360  176.6670  137.2500 C   0  0  0  0  0  3  0  0  0  0  0  0
  188.0870  176.9740  137.4520 C   0  0  0  0  0  0  0  0  0  0  0  0
  187.7040  177.7300  138.5680 C   0  0  0  0  0  3  0  0  0  0  0  0
  188.3040  178.9040  140.5520 F   0  0  0  0  0  0  0  0  0  0  0  0
  190.0190  177.8640  139.2690 C   0  0  0  0  0  3  0  0  0  0  0  0
  188.6710  178.1710  139.4760 C   0  0  0  0  0  0  0  0  0  0  0  0
  190.4030  177.1140  138.1550 C   0  0  0  0  0  3  0  0  0  0  0  0
  1  4  1  0  0  0  0
  2 19  1  0  0  0  0
  2 20  1  0  0  0  0
  3  7  1  0  0  0  0
  4 25  1  0  0  0  0
  5 22  1  0  0  0  0
  6 10  1  0  0  0  0
  6  8  1  0  0  0  0
  8  3  2  0  0  0  0
  8 11  1  0  0  0  0
  9  7  1  0  0  0  0
 11 18  1  0  0  0  0
 12 15  1  0  0  0  0
 14 10  1  0  0  0  0
 14 17  1  0  0  0  0
 15 11  1  0  0  0  0
 16  9  1  0  0  0  0
 16  5  1  0  0  0  0
 17  3  1  0  0  0  0
 17 13  2  0  0  0  0
 18  7  1  0  0  0  0
 18 22  1  0  0  0  0
 19  6  1  0  0  0  0
 20 12  2  0  0  0  0
 21  1  1  0  0  0  0
 21  4  1  0  0  0  0
 22 21  1  0  0  0  0
 22  1  1  0  0  0  0
 23  9  2  0  0  0  0
 24 25  1  0  0  0  0
 26 21  1  0  0  0  0
 27 26  1  0  0  0  0
 28 29  1  0  0  0  0
 29 27  1  0  0  0  0
 30 23  1  0  0  0  0
 30 32  1  0  0  0  0
 31 32  2  0  0  0  0
 31 37  1  0  0  0  0
 32 33  1  0  0  0  0
 33 36  2  0  0  0  0
 35 36  1  0  0  0  0
 36 34  1  0  0  0  0
 37 35  2  0  0  0  0
M  END
>  <MODEL>
6

>  <REMARK>
 VINA RESULT:      -5.6      2.936      7.653
  Name = 
  6 active torsions:
  status: ('A' for Active; 'I' for Inactive)
    1  A    between atoms: C_5  and  C_23
    2  A    between atoms: C_6  and  C_31
    3  A    between atoms: C_17  and  C_26
    4  A    between atoms: C_17  and  C_33
    5  A    between atoms: C_26  and  O_34
    6  A    between atoms: C_31  and  C_37
                            x       y       z     vdW  Elec       q    Type
                         _______ _______ _______ _____ _____    ______ ____

>  <TORSDO>
F 6

$$$$
=
 OpenBabel10262422543D

 37 43  0  0  1  0  0  0  0  0999 V2000
  182.7390  178.6750  136.0590 C   0  0  2  0  0  3  0  0  0  0  0  0
  179.8880  174.3290  140.3730 C   0  0  0  0  0  2  0  0  0  0  0  0
  181.3650  178.2740  140.4600 C   0  0  0  0  0  0  0  0  0  0  0  0
  181.6510  178.3930  135.0370 C   0  0  1  0  0  3  0  0  0  0  0  0
  184.3300  177.4100  137.5090 C   0  0  0  0  0  2  0  0  0  0  0  0
  179.3840  176.7970  140.7970 C   0  0  2  0  0  3  0  0  0  0  0  0
  182.3240  178.7140  139.3990 C   0  0  1  0  0  3  0  0  0  0  0  0
  180.5610  177.3200  140.0090 C   0  0  0  0  0  0  0  0  0  0  0  0
  183.7690  178.4150  139.7610 C   0  0  0  0  0  0  0  0  0  0  0  0
  178.9310  177.7950  141.8760 C   0  0  0  0  0  2  0  0  0  0  0  0
  180.9160  177.0000  138.6230 C   0  0  2  0  0  3  0  0  0  0  0  0
  179.2680  175.1230  138.1100 C   0  0  0  0  0  3  0  0  0  0  0  0
  181.8280  179.9040  142.1300 O   0  0  0  0  0  0  0  0  0  0  0  0
  180.1120  178.3380  142.6900 C   0  0  0  0  0  2  0  0  0  0  0  0
  180.6310  175.7140  137.8890 C   0  0  0  0  0  2  0  0  0  0  0  0
  184.5290  177.3230  139.0280 C   0  0  0  0  0  2  0  0  0  0  0  0
  181.1480  178.9080  141.7710 C   0  0  0  0  0  0  0  0  0  0  0  0
  181.8980  177.8300  138.2590 C   0  0  2  0  0  3  0  0  0  0  0  0
  179.6470  175.4220  141.4140 C   0  0  0  0  0  2  0  0  0  0  0  0
  178.9340  174.4550  139.2220 C   0  0  0  0  0  3  0  0  0  0  0  0
  182.3170  177.2320  135.7450 C   0  0  2  0  0  0  0  0  0  0  0  0
  182.8560  177.6000  137.1250 C   0  0  1  0  0  0  0  0  0  0  0  0
  184.3550  179.1160  140.7410 C   0  0  0  0  0  3  0  0  0  0  0  0
  180.2640  180.0480  136.2550 C   0  0  0  0  0  1  0  0  0  0  0  0
  180.2830  178.6670  135.6350 C   0  0  0  0  0  2  0  0  0  0  0  0
  183.3100  176.4790  134.8280 C   0  0  0  0  0  2  0  0  0  0  0  0
  183.1370  174.9610  134.6660 C   0  0  0  0  0  2  0  0  0  0  0  0
  181.7600  173.3630  135.3450 C   0  0  0  0  0  1  0  0  0  0  0  0
  181.7840  174.6020  134.7030 O   0  0  0  0  0  0  0  0  0  0  0  0
  185.7790  178.9110  141.1510 C   0  0  0  0  0  2  0  0  0  0  0  0
  186.9760  177.8330  143.0480 C   0  0  0  0  0  3  0  0  0  0  0  0
  185.8560  178.5320  142.5890 C   0  0  0  0  0  0  0  0  0  0  0  0
  184.8090  178.8310  143.4720 C   0  0  0  0  0  3  0  0  0  0  0  0
  183.8820  178.7150  145.6640 F   0  0  0  0  0  0  0  0  0  0  0  0
  186.0110  177.7280  145.2640 C   0  0  0  0  0  3  0  0  0  0  0  0
  184.8890  178.4250  144.8080 C   0  0  0  0  0  0  0  0  0  0  0  0
  187.0560  177.4340  144.3850 C   0  0  0  0  0  3  0  0  0  0  0  0
  1 22  1  0  0  0  0
  2 19  1  0  0  0  0
  3 17  1  0  0  0  0
  4 25  1  0  0  0  0
  4 21  1  0  0  0  0
  4  1  1  0  0  0  0
  5 16  1  0  0  0  0
  6 19  1  0  0  0  0
  6 10  1  0  0  0  0
  7  9  1  0  0  0  0
  7  3  1  0  0  0  0
  8  3  2  0  0  0  0
  8  6  1  0  0  0  0
  9 23  2  0  0  0  0
 10 14  1  0  0  0  0
 11  8  1  0  0  0  0
 12 20  2  0  0  0  0
 15 12  1  0  0  0  0
 15 11  1  0  0  0  0
 16  9  1  0  0  0  0
 17 13  2  0  0  0  0
 17 14  1  0  0  0  0
 18 11  1  0  0  0  0
 18  7  1  0  0  0  0
 20  2  1  0  0  0  0
 21  1  1  0  0  0  0
 21 22  1  0  0  0  0
 22  5  1  0  0  0  0
 22 18  1  0  0  0  0
 23 30  1  0  0  0  0
 25 24  1  0  0  0  0
 26 21  1  0  0  0  0
 27 29  1  0  0  0  0
 27 26  1  0  0  0  0
 29 28  1  0  0  0  0
 30 32  1  0  0  0  0
 31 37  1  0  0  0  0
 32 31  2  0  0  0  0
 32 33  1  0  0  0  0
 33 36  2  0  0  0  0
 36 35  1  0  0  0  0
 36 34  1  0  0  0  0
 37 35  2  0  0  0  0
M  END
>  <MODEL>
7

>  <REMARK>
 VINA RESULT:      -5.5      3.996      6.091
  Name = 
  6 active torsions:
  status: ('A' for Active; 'I' for Inactive)
    1  A    between atoms: C_5  and  C_23
    2  A    between atoms: C_6  and  C_31
    3  A    between atoms: C_17  and  C_26
    4  A    between atoms: C_17  and  C_33
    5  A    between atoms: C_26  and  O_34
    6  A    between atoms: C_31  and  C_37
                            x       y       z     vdW  Elec       q    Type
                         _______ _______ _______ _____ _____    ______ ____

>  <TORSDO>
F 6

$$$$
=
 OpenBabel10262422543D

 37 43  0  0  1  0  0  0  0  0999 V2000
  181.8590  178.9090  137.4900 C   0  0  2  0  0  3  0  0  0  0  0  0
  185.3030  177.6160  143.1560 C   0  0  0  0  0  2  0  0  0  0  0  0
  186.1410  178.1160  139.0570 C   0  0  0  0  0  0  0  0  0  0  0  0
  181.1490  180.0660  138.1720 C   0  0  1  0  0  3  0  0  0  0  0  0
  182.3580  176.4990  137.9120 C   0  0  0  0  0  2  0  0  0  0  0  0
  186.5670  178.9390  141.3730 C   0  0  2  0  0  3  0  0  0  0  0  0
  185.0340  177.9500  138.0640 C   0  0  1  0  0  3  0  0  0  0  0  0
  185.6720  178.5250  140.2290 C   0  0  0  0  0  0  0  0  0  0  0  0
  184.8690  176.5080  137.6140 C   0  0  0  0  0  0  0  0  0  0  0  0
  187.9760  179.3180  140.8870 C   0  0  0  0  0  2  0  0  0  0  0  0
  184.2130  178.6420  140.1540 C   0  0  2  0  0  3  0  0  0  0  0  0
  183.6510  179.3540  142.5370 C   0  0  0  0  0  3  0  0  0  0  0  0
  188.0190  177.8000  137.6320 O   0  0  0  0  0  0  0  0  0  0  0  0
  188.5480  178.2820  139.9130 C   0  0  0  0  0  2  0  0  0  0  0  0
  183.2400  178.5970  141.3060 C   0  0  0  0  0  2  0  0  0  0  0  0
  183.6620  175.7030  138.0610 C   0  0  0  0  0  2  0  0  0  0  0  0
  187.5880  178.0550  138.7860 C   0  0  0  0  0  0  0  0  0  0  0  0
  183.8520  178.3550  138.9000 C   0  0  2  0  0  3  0  0  0  0  0  0
  186.6460  177.8810  142.4760 C   0  0  0  0  0  2  0  0  0  0  0  0
  184.5590  178.8950  143.4070 C   0  0  0  0  0  3  0  0  0  0  0  0
  181.2620  178.7410  138.8960 C   0  0  2  0  0  0  0  0  0  0  0  0
  182.4790  177.9250  138.4670 C   0  0  1  0  0  0  0  0  0  0  0  0
  185.8070  175.9570  136.8320 C   0  0  0  0  0  3  0  0  0  0  0  0
  181.7450  182.4670  138.3500 C   0  0  0  0  0  1  0  0  0  0  0  0
  182.1620  181.0580  138.7170 C   0  0  0  0  0  2  0  0  0  0  0  0
  179.9220  177.9680  138.9130 C   0  0  0  0  0  2  0  0  0  0  0  0
  179.4050  177.4480  140.2640 C   0  0  0  0  0  2  0  0  0  0  0  0
  179.0360  175.2700  140.4390 C   0  0  0  0  0  1  0  0  0  0  0  0
  180.0250  176.2410  140.6080 O   0  0  0  0  0  0  0  0  0  0  0  0
  185.7190  174.5550  136.3180 C   0  0  0  0  0  2  0  0  0  0  0  0
  188.1950  174.7500  136.4860 C   0  0  0  0  0  3  0  0  0  0  0  0
  187.0770  173.9560  136.2090 C   0  0  0  0  0  0  0  0  0  0  0  0
  187.2510  172.6270  135.7970 C   0  0  0  0  0  3  0  0  0  0  0  0
  188.7110  170.8200  135.2670 F   0  0  0  0  0  0  0  0  0  0  0  0
  189.6550  172.9000  135.9410 C   0  0  0  0  0  3  0  0  0  0  0  0
  188.5400  172.1030  135.6610 C   0  0  0  0  0  0  0  0  0  0  0  0
  189.4820  174.2220  136.3550 C   0  0  0  0  0  3  0  0  0  0  0  0
  1  4  1  0  0  0  0
  1 22  1  0  0  0  0
  1 21  1  0  0  0  0
  2 20  1  0  0  0  0
  3  8  2  0  0  0  0
  4 25  1  0  0  0  0
  4 21  1  0  0  0  0
  5 16  1  0  0  0  0
  5 22  1  0  0  0  0
  6 19  1  0  0  0  0
  7 18  1  0  0  0  0
  7  3  1  0  0  0  0
  8  6  1  0  0  0  0
  9 16  1  0  0  0  0
  9  7  1  0  0  0  0
 10  6  1  0  0  0  0
 11  8  1  0  0  0  0
 11 15  1  0  0  0  0
 12 20  2  0  0  0  0
 13 17  2  0  0  0  0
 14 10  1  0  0  0  0
 15 12  1  0  0  0  0
 17  3  1  0  0  0  0
 17 14  1  0  0  0  0
 18 11  1  0  0  0  0
 19  2  1  0  0  0  0
 21 26  1  0  0  0  0
 22 21  1  0  0  0  0
 22 18  1  0  0  0  0
 23  9  2  0  0  0  0
 24 25  1  0  0  0  0
 26 27  1  0  0  0  0
 27 29  1  0  0  0  0
 28 29  1  0  0  0  0
 30 23  1  0  0  0  0
 32 30  1  0  0  0  0
 32 31  2  0  0  0  0
 33 32  1  0  0  0  0
 34 36  1  0  0  0  0
 35 37  2  0  0  0  0
 36 33  2  0  0  0  0
 36 35  1  0  0  0  0
 37 31  1  0  0  0  0
M  END
>  <MODEL>
8

>  <REMARK>
 VINA RESULT:      -5.0      3.060      8.340
  Name = 
  6 active torsions:
  status: ('A' for Active; 'I' for Inactive)
    1  A    between atoms: C_5  and  C_23
    2  A    between atoms: C_6  and  C_31
    3  A    between atoms: C_17  and  C_26
    4  A    between atoms: C_17  and  C_33
    5  A    between atoms: C_26  and  O_34
    6  A    between atoms: C_31  and  C_37
                            x       y       z     vdW  Elec       q    Type
                         _______ _______ _______ _____ _____    ______ ____

>  <TORSDO>
F 6

$$$$
=
 OpenBabel10262422543D

 37 43  0  0  1  0  0  0  0  0999 V2000
  182.0320  177.5000  141.4070 C   0  0  2  0  0  3  0  0  0  0  0  0
  180.8090  182.7840  137.3810 C   0  0  0  0  0  2  0  0  0  0  0  0
  181.4560  178.6430  136.9590 C   0  0  0  0  0  0  0  0  0  0  0  0
  180.8800  177.9070  142.3100 C   0  0  1  0  0  3  0  0  0  0  0  0
  184.0470  178.5300  140.3530 C   0  0  0  0  0  2  0  0  0  0  0  0
  179.8880  180.5430  136.5710 C   0  0  2  0  0  3  0  0  0  0  0  0
  182.1330  177.8970  138.0660 C   0  0  1  0  0  3  0  0  0  0  0  0
  180.8010  179.6980  137.4270 C   0  0  0  0  0  0  0  0  0  0  0  0
  183.6470  177.9090  137.9340 C   0  0  0  0  0  0  0  0  0  0  0  0
  179.4140  179.7850  135.3210 C   0  0  0  0  0  2  0  0  0  0  0  0
  180.9980  179.7880  138.8770 C   0  0  2  0  0  3  0  0  0  0  0  0
  179.7020  181.9160  139.4200 C   0  0  0  0  0  3  0  0  0  0  0  0
  181.8310  177.1320  135.1610 O   0  0  0  0  0  0  0  0  0  0  0  0
  180.5720  179.0840  134.5990 C   0  0  0  0  0  2  0  0  0  0  0  0
  180.8690  181.0230  139.7330 C   0  0  0  0  0  2  0  0  0  0  0  0
  184.4900  178.7270  138.8960 C   0  0  0  0  0  2  0  0  0  0  0  0
  181.3180  178.2100  135.5580 C   0  0  0  0  0  0  0  0  0  0  0  0
  181.7250  178.7300  139.2490 C   0  0  2  0  0  3  0  0  0  0  0  0
  180.5140  181.8830  136.1820 C   0  0  0  0  0  2  0  0  0  0  0  0
  179.6840  182.7520  138.3740 C   0  0  0  0  0  3  0  0  0  0  0  0
  181.8670  178.9610  141.8530 C   0  0  2  0  0  0  0  0  0  0  0  0
  182.5250  178.6280  140.5170 C   0  0  1  0  0  0  0  0  0  0  0  0
  184.2220  177.2010  136.9530 C   0  0  0  0  0  3  0  0  0  0  0  0
  179.2940  176.6650  140.8650 C   0  0  0  0  0  1  0  0  0  0  0  0
  179.5930  178.0010  141.5110 C   0  0  0  0  0  2  0  0  0  0  0  0
  182.8390  179.3800  142.9820 C   0  0  0  0  0  2  0  0  0  0  0  0
  182.5040  178.9540  144.4200 C   0  0  0  0  0  2  0  0  0  0  0  0
  184.6660  178.7600  144.8650 C   0  0  0  0  0  1  0  0  0  0  0  0
  183.4960  179.3760  145.3130 O   0  0  0  0  0  0  0  0  0  0  0  0
  185.7040  177.1320  136.7580 C   0  0  0  0  0  2  0  0  0  0  0  0
  187.5160  175.4340  136.5980 C   0  0  0  0  0  3  0  0  0  0  0  0
  186.1770  175.7250  136.8750 C   0  0  0  0  0  0  0  0  0  0  0  0
  185.2950  174.6920  137.2170 C   0  0  0  0  0  3  0  0  0  0  0  0
  184.9090  172.3730  137.6110 F   0  0  0  0  0  0  0  0  0  0  0  0
  187.0980  173.0860  137.0020 C   0  0  0  0  0  3  0  0  0  0  0  0
  185.7580  173.3730  137.2770 C   0  0  0  0  0  0  0  0  0  0  0  0
  187.9780  174.1170  136.6640 C   0  0  0  0  0  3  0  0  0  0  0  0
  1 21  1  0  0  0  0
  1  4  1  0  0  0  0
  2 20  1  0  0  0  0
  3  8  2  0  0  0  0
  3  7  1  0  0  0  0
  5 22  1  0  0  0  0
  6  8  1  0  0  0  0
  7 18  1  0  0  0  0
  8 11  1  0  0  0  0
  9  7  1  0  0  0  0
  9 16  1  0  0  0  0
 10  6  1  0  0  0  0
 11 18  1  0  0  0  0
 11 15  1  0  0  0  0
 12 15  1  0  0  0  0
 13 17  2  0  0  0  0
 14 10  1  0  0  0  0
 14 17  1  0  0  0  0
 16  5  1  0  0  0  0
 17  3  1  0  0  0  0
 18 22  1  0  0  0  0
 19  6  1  0  0  0  0
 19  2  1  0  0  0  0
 20 12  2  0  0  0  0
 21  4  1  0  0  0  0
 21 26  1  0  0  0  0
 22  1  1  0  0  0  0
 22 21  1  0  0  0  0
 23  9  2  0  0  0  0
 24 25  1  0  0  0  0
 25  4  1  0  0  0  0
 26 27  1  0  0  0  0
 27 29  1  0  0  0  0
 28 29  1  0  0  0  0
 30 32  1  0  0  0  0
 30 23  1  0  0  0  0
 31 37  2  0  0  0  0
 31 32  1  0  0  0  0
 32 33  2  0  0  0  0
 33 36  1  0  0  0  0
 35 36  2  0  0  0  0
 36 34  1  0  0  0  0
 37 35  1  0  0  0  0
M  END
>  <MODEL>
9

>  <REMARK>
 VINA RESULT:      -4.8      3.314      8.236
  Name = 
  6 active torsions:
  status: ('A' for Active; 'I' for Inactive)
    1  A    between atoms: C_5  and  C_23
    2  A    between atoms: C_6  and  C_31
    3  A    between atoms: C_17  and  C_26
    4  A    between atoms: C_17  and  C_33
    5  A    between atoms: C_26  and  O_34
    6  A    between atoms: C_31  and  C_37
                            x       y       z     vdW  Elec       q    Type
                         _______ _______ _______ _____ _____    ______ ____

>  <TORSDO>
F 6

$$$$
