=
 OpenBabel10262423003D

 37 40  0  0  1  0  0  0  0  0999 V2000
  183.4790  180.4600  138.9950 N   0  0  0  0  0  0  0  0  0  0  0  0
  180.4550  177.2070  139.0320 C   0  0  0  0  0  3  0  0  0  0  0  0
  184.2610  179.2920  139.3700 C   0  0  2  0  0  3  0  0  0  0  0  0
  181.5710  178.0130  138.7740 C   0  0  0  0  0  0  0  0  0  0  0  0
  181.3360  179.4000  138.7520 O   0  0  0  0  0  0  0  0  0  0  0  0
  182.8240  177.3920  138.5390 C   0  0  0  0  0  0  0  0  0  0  0  0
  181.7890  175.2060  138.8380 C   0  0  0  0  0  3  0  0  0  0  0  0
  182.2110  180.5030  138.7020 C   0  0  0  0  0  0  0  0  0  0  0  0
  182.9110  175.9900  138.5740 C   0  0  0  0  0  3  0  0  0  0  0  0
  184.0640  178.2060  138.3040 C   0  0  2  0  0  3  0  0  0  0  0  0
  180.5570  175.8160  139.0680 C   0  0  0  0  0  0  0  0  0  0  0  0
  184.9370  177.7600  141.2090 C   0  0  0  0  0  2  0  0  0  0  0  0
  183.9610  178.8470  140.8070 C   0  0  1  0  0  3  0  0  0  0  0  0
  185.1320  179.1670  141.7190 C   0  0  1  0  0  3  0  0  0  0  0  0
  184.6340  179.2420  143.1500 C   0  0  0  0  0  2  0  0  0  0  0  0
  185.7910  179.3960  144.1200 C   0  0  0  0  0  2  0  0  0  0  0  0
  186.5330  178.8050  146.4050 C   0  0  0  0  0  2  0  0  0  0  0  0
  185.7330  178.3200  145.2030 C   0  0  2  0  0  3  0  0  0  0  0  0
  186.7290  177.1640  145.0190 C   0  0  1  0  0  3  0  0  0  0  0  0
  187.5730  176.7320  147.3610 C   0  0  0  0  0  1  0  0  0  0  0  0
  188.9290  178.2610  145.8790 C   0  0  0  0  0  1  0  0  0  0  0  0
  187.4650  177.1310  143.6780 C   0  0  0  0  0  1  0  0  0  0  0  0
  187.5480  177.6980  146.1940 C   0  0  0  0  0  0  0  0  0  0  0  0
  179.3640  174.9850  139.3920 C   0  0  0  0  0  2  0  0  0  0  0  0
  179.6430  174.1340  140.6150 C   0  0  0  0  0  1  0  0  0  0  0  0
  181.6110  181.8230  138.3610 C   0  0  0  0  0  2  0  0  0  0  0  0
  180.3160  181.9180  138.8840 O   0  0  0  0  0  1  0  0  0  0  0  0
  185.2620  177.3920  137.9930 N   0  0  0  0  0  0  0  0  0  0  0  0
  185.1210  176.5710  136.7780 C   0  0  1  0  0  3  0  0  0  0  0  0
  185.6310  177.3270  135.5640 C   0  0  0  0  0  1  0  0  0  0  0  0
  186.9520  175.1780  136.0880 O   0  0  0  0  0  1  0  0  0  0  0  0
  185.7890  175.1980  136.8610 C   0  0  0  0  0  2  0  0  0  0  0  0
  186.4940  178.1750  137.9490 C   0  0  0  0  0  2  0  0  0  0  0  0
  187.5880  177.4560  138.7080 C   0  0  0  0  0  2  0  0  0  0  0  0
  188.1870  178.3880  139.7370 C   0  0  0  0  0  2  0  0  0  0  0  0
  190.1360  176.8740  139.5650 C   0  0  0  0  0  1  0  0  0  0  0  0
  189.2620  177.6600  140.5180 C   0  0  0  0  0  2  0  0  0  0  0  0
  2 11  1  0  0  0  0
  3  1  1  6  0  0  0
  3 13  1  0  0  0  0
  4  2  2  0  0  0  0
  5  4  1  0  0  0  0
  6  9  2  0  0  0  0
  6  4  1  0  0  0  0
  7 11  2  0  0  0  0
  8  5  1  0  0  0  0
  8  1  2  0  0  0  0
  9  7  1  0  0  0  0
 10 28  1  1  0  0  0
 10  6  1  0  0  0  0
 10  3  1  0  0  0  0
 11 24  1  0  0  0  0
 12 14  1  0  0  0  0
 13 12  1  6  0  0  0
 13 14  1  0  0  0  0
 14 15  1  1  0  0  0
 15 16  1  0  0  0  0
 18 16  1  6  0  0  0
 18 17  1  0  0  0  0
 19 22  1  6  0  0  0
 19 18  1  0  0  0  0
 19 23  1  0  0  0  0
 21 23  1  0  0  0  0
 23 17  1  0  0  0  0
 23 20  1  0  0  0  0
 24 25  1  0  0  0  0
 26  8  1  0  0  0  0
 26 27  1  0  0  0  0
 29 30  1  6  0  0  0
 29 32  1  0  0  0  0
 29 28  1  0  0  0  0
 31 32  1  0  0  0  0
 33 28  1  0  0  0  0
 33 34  1  0  0  0  0
 34 35  1  0  0  0  0
 35 37  1  0  0  0  0
 36 37  1  0  0  0  0
M  END
>  <MODEL>
1

>  <REMARK>
 VINA RESULT:      -5.8      0.000      0.000
  Name = 
  13 active torsions:
  status: ('A' for Active; 'I' for Inactive)
    1  A    between atoms: C_1  and  C_12
    2  A    between atoms: C_1  and  N_36
    3  A    between atoms: C_3  and  C_32
    4  A    between atoms: C_6  and  C_31
    5  A    between atoms: C_10  and  C_14
    6  A    between atoms: C_17  and  C_26
    7  A    between atoms: C_17  and  C_33
    8  A    between atoms: C_22  and  C_24
    9  A    between atoms: C_26  and  C_34
   10  A    between atoms: C_27  and  C_37
   11  A    between atoms: C_29  and  N_36
   12  A    between atoms: C_31  and  C_37
   13  A    between atoms: C_33  and  N_36
                            x       y       z     vdW  Elec       q    Type
                         _______ _______ _______ _____ _____    ______ ____

>  <TORSDO>
F 13

$$$$
=
 OpenBabel10262423003D

 37 40  0  0  1  0  0  0  0  0999 V2000
  181.9940  176.9460  137.8750 N   0  0  0  0  0  0  0  0  0  0  0  0
  180.8250  180.8350  136.0780 C   0  0  0  0  0  3  0  0  0  0  0  0
  182.4360  177.9100  138.8690 C   0  0  2  0  0  3  0  0  0  0  0  0
  180.9790  179.7260  136.9190 C   0  0  0  0  0  0  0  0  0  0  0  0
  181.0500  178.4740  136.2800 O   0  0  0  0  0  0  0  0  0  0  0  0
  181.0310  179.9320  138.3210 C   0  0  0  0  0  0  0  0  0  0  0  0
  180.7820  182.3310  137.9700 C   0  0  0  0  0  3  0  0  0  0  0  0
  181.3690  177.1880  136.7590 C   0  0  0  0  0  0  0  0  0  0  0  0
  180.9300  181.2400  138.8250 C   0  0  0  0  0  3  0  0  0  0  0  0
  181.2420  178.7860  139.2690 C   0  0  2  0  0  3  0  0  0  0  0  0
  180.7300  182.1290  136.5920 C   0  0  0  0  0  0  0  0  0  0  0  0
  184.6220  178.8730  139.5640 C   0  0  0  0  0  2  0  0  0  0  0  0
  183.6740  178.6830  138.3970 C   0  0  1  0  0  3  0  0  0  0  0  0
  184.9200  177.8230  138.5220 C   0  0  1  0  0  3  0  0  0  0  0  0
  185.9820  178.3570  137.5790 C   0  0  0  0  0  2  0  0  0  0  0  0
  187.3670  178.2040  138.1800 C   0  0  0  0  0  2  0  0  0  0  0  0
  188.0080  177.5140  135.8930 C   0  0  0  0  0  2  0  0  0  0  0  0
  188.4400  178.3340  137.1010 C   0  0  2  0  0  3  0  0  0  0  0  0
  189.6550  177.4100  137.2820 C   0  0  1  0  0  3  0  0  0  0  0  0
  190.1430  176.6090  134.9360 C   0  0  0  0  0  1  0  0  0  0  0  0
  188.6970  175.1520  136.4050 C   0  0  0  0  0  1  0  0  0  0  0  0
  189.7300  176.6690  138.6180 C   0  0  0  0  0  1  0  0  0  0  0  0
  189.1750  176.5680  136.1010 C   0  0  0  0  0  0  0  0  0  0  0  0
  180.6150  183.2940  135.6720 C   0  0  0  0  0  2  0  0  0  0  0  0
  181.1490  184.5410  136.3480 C   0  0  0  0  0  1  0  0  0  0  0  0
  181.0260  176.0370  135.8770 C   0  0  0  0  0  2  0  0  0  0  0  0
  180.7290  174.9070  136.6470 O   0  0  0  0  0  1  0  0  0  0  0  0
  181.1850  179.1750  140.6970 N   0  0  0  0  0  0  0  0  0  0  0  0
  179.8180  179.4100  141.1920 C   0  0  1  0  0  3  0  0  0  0  0  0
  179.2600  178.1490  141.8290 C   0  0  0  0  0  1  0  0  0  0  0  0
  179.0720  180.1770  143.3430 O   0  0  0  0  0  1  0  0  0  0  0  0
  179.6880  180.5880  142.1590 C   0  0  0  0  0  2  0  0  0  0  0  0
  181.9030  178.2540  141.5730 C   0  0  0  0  0  2  0  0  0  0  0  0
  182.8170  179.0300  142.4970 C   0  0  0  0  0  2  0  0  0  0  0  0
  182.3870  178.8170  143.9310 C   0  0  0  0  0  2  0  0  0  0  0  0
  184.8510  178.6390  144.0580 C   0  0  0  0  0  1  0  0  0  0  0  0
  183.5900  178.9240  144.8450 C   0  0  0  0  0  2  0  0  0  0  0  0
  2 11  2  0  0  0  0
  2  4  1  0  0  0  0
  3  1  1  6  0  0  0
  3 10  1  0  0  0  0
  4  6  2  0  0  0  0
  5  8  1  0  0  0  0
  5  4  1  0  0  0  0
  6  9  1  0  0  0  0
  6 10  1  0  0  0  0
  7  9  2  0  0  0  0
  8  1  2  0  0  0  0
 10 28  1  1  0  0  0
 11  7  1  0  0  0  0
 13 14  1  0  0  0  0
 13  3  1  0  0  0  0
 13 12  1  1  0  0  0
 14 15  1  6  0  0  0
 14 12  1  0  0  0  0
 15 16  1  0  0  0  0
 17 23  1  0  0  0  0
 17 18  1  0  0  0  0
 18 19  1  0  0  0  0
 18 16  1  1  0  0  0
 19 22  1  1  0  0  0
 20 23  1  0  0  0  0
 23 21  1  0  0  0  0
 23 19  1  0  0  0  0
 24 25  1  0  0  0  0
 24 11  1  0  0  0  0
 26 27  1  0  0  0  0
 26  8  1  0  0  0  0
 28 29  1  0  0  0  0
 28 33  1  0  0  0  0
 29 30  1  1  0  0  0
 29 32  1  0  0  0  0
 32 31  1  0  0  0  0
 33 34  1  0  0  0  0
 34 35  1  0  0  0  0
 35 37  1  0  0  0  0
 36 37  1  0  0  0  0
M  END
>  <MODEL>
2

>  <REMARK>
 VINA RESULT:      -5.6      2.707      7.173
  Name = 
  13 active torsions:
  status: ('A' for Active; 'I' for Inactive)
    1  A    between atoms: C_1  and  C_12
    2  A    between atoms: C_1  and  N_36
    3  A    between atoms: C_3  and  C_32
    4  A    between atoms: C_6  and  C_31
    5  A    between atoms: C_10  and  C_14
    6  A    between atoms: C_17  and  C_26
    7  A    between atoms: C_17  and  C_33
    8  A    between atoms: C_22  and  C_24
    9  A    between atoms: C_26  and  C_34
   10  A    between atoms: C_27  and  C_37
   11  A    between atoms: C_29  and  N_36
   12  A    between atoms: C_31  and  C_37
   13  A    between atoms: C_33  and  N_36
                            x       y       z     vdW  Elec       q    Type
                         _______ _______ _______ _____ _____    ______ ____

>  <TORSDO>
F 13

$$$$
=
 OpenBabel10262423003D

 37 40  0  0  1  0  0  0  0  0999 V2000
  185.0790  178.0510  137.1110 N   0  0  0  0  0  0  0  0  0  0  0  0
  185.9100  178.4440  141.4560 C   0  0  0  0  0  3  0  0  0  0  0  0
  183.8080  177.6910  137.7190 C   0  0  2  0  0  3  0  0  0  0  0  0
  185.3850  178.5660  140.1630 C   0  0  0  0  0  0  0  0  0  0  0  0
  186.3220  178.5200  139.1130 O   0  0  0  0  0  0  0  0  0  0  0  0
  183.9880  178.7440  140.0040 C   0  0  0  0  0  0  0  0  0  0  0  0
  183.7110  178.6600  142.4250 C   0  0  0  0  0  3  0  0  0  0  0  0
  186.1660  178.4360  137.7150 C   0  0  0  0  0  0  0  0  0  0  0  0
  183.1690  178.7890  141.1460 C   0  0  0  0  0  3  0  0  0  0  0  0
  183.3640  178.8330  138.6410 C   0  0  2  0  0  3  0  0  0  0  0  0
  185.0840  178.4860  142.5810 C   0  0  0  0  0  0  0  0  0  0  0  0
  182.4720  175.8780  138.7760 C   0  0  0  0  0  2  0  0  0  0  0  0
  183.8710  176.3110  138.3870 C   0  0  1  0  0  3  0  0  0  0  0  0
  183.1270  175.2820  137.5530 C   0  0  1  0  0  3  0  0  0  0  0  0
  183.6460  173.8990  137.9020 C   0  0  0  0  0  2  0  0  0  0  0  0
  183.7280  173.0230  136.6650 C   0  0  0  0  0  2  0  0  0  0  0  0
  185.9520  172.8260  137.7300 C   0  0  0  0  0  2  0  0  0  0  0  0
  185.0660  172.2880  136.6140 C   0  0  2  0  0  3  0  0  0  0  0  0
  186.0620  172.8290  135.5760 C   0  0  1  0  0  3  0  0  0  0  0  0
  188.2770  172.7610  136.7900 C   0  0  0  0  0  1  0  0  0  0  0  0
  186.9810  174.9280  136.8150 C   0  0  0  0  0  1  0  0  0  0  0  0
  185.5010  173.8600  134.5940 C   0  0  0  0  0  1  0  0  0  0  0  0
  186.9100  173.4080  136.7080 C   0  0  0  0  0  0  0  0  0  0  0  0
  185.6630  178.3060  143.9420 C   0  0  0  0  0  2  0  0  0  0  0  0
  186.8820  177.4090  143.8690 C   0  0  0  0  0  1  0  0  0  0  0  0
  187.3660  178.7400  136.8850 C   0  0  0  0  0  2  0  0  0  0  0  0
  188.4060  179.2160  137.6910 O   0  0  0  0  0  1  0  0  0  0  0  0
  181.9070  179.1020  138.6680 N   0  0  0  0  0  0  0  0  0  0  0  0
  181.5640  180.4570  139.1340 C   0  0  1  0  0  3  0  0  0  0  0  0
  181.4450  181.4090  137.9570 C   0  0  0  0  0  1  0  0  0  0  0  0
  179.6400  181.7400  139.7840 O   0  0  0  0  0  1  0  0  0  0  0  0
  180.3030  180.5300  139.9970 C   0  0  0  0  0  2  0  0  0  0  0  0
  181.2440  178.8060  137.4010 C   0  0  0  0  0  2  0  0  0  0  0  0
  180.0020  177.9780  137.6530 C   0  0  0  0  0  2  0  0  0  0  0  0
  179.4080  177.5430  136.3320 C   0  0  0  0  0  2  0  0  0  0  0  0
  180.2240  175.4240  135.3520 C   0  0  0  0  0  1  0  0  0  0  0  0
  180.4830  176.9090  135.4740 C   0  0  0  0  0  2  0  0  0  0  0  0
  1  8  2  0  0  0  0
  2 11  1  0  0  0  0
  3  1  1  1  0  0  0
  3 13  1  0  0  0  0
  3 10  1  0  0  0  0
  4  2  2  0  0  0  0
  5  4  1  0  0  0  0
  6  4  1  0  0  0  0
  6  9  2  0  0  0  0
  7 11  2  0  0  0  0
  8  5  1  0  0  0  0
  9  7  1  0  0  0  0
 10 28  1  1  0  0  0
 10  6  1  0  0  0  0
 11 24  1  0  0  0  0
 13 12  1  1  0  0  0
 14 15  1  1  0  0  0
 14 13  1  0  0  0  0
 14 12  1  0  0  0  0
 16 15  1  0  0  0  0
 18 16  1  6  0  0  0
 18 17  1  0  0  0  0
 19 22  1  6  0  0  0
 19 18  1  0  0  0  0
 19 23  1  0  0  0  0
 23 20  1  0  0  0  0
 23 21  1  0  0  0  0
 23 17  1  0  0  0  0
 25 24  1  0  0  0  0
 26 27  1  0  0  0  0
 26  8  1  0  0  0  0
 28 29  1  0  0  0  0
 29 30  1  6  0  0  0
 29 32  1  0  0  0  0
 31 32  1  0  0  0  0
 33 34  1  0  0  0  0
 33 28  1  0  0  0  0
 35 34  1  0  0  0  0
 36 37  1  0  0  0  0
 37 35  1  0  0  0  0
M  END
>  <MODEL>
3

>  <REMARK>
 VINA RESULT:      -5.4      2.180      7.567
  Name = 
  13 active torsions:
  status: ('A' for Active; 'I' for Inactive)
    1  A    between atoms: C_1  and  C_12
    2  A    between atoms: C_1  and  N_36
    3  A    between atoms: C_3  and  C_32
    4  A    between atoms: C_6  and  C_31
    5  A    between atoms: C_10  and  C_14
    6  A    between atoms: C_17  and  C_26
    7  A    between atoms: C_17  and  C_33
    8  A    between atoms: C_22  and  C_24
    9  A    between atoms: C_26  and  C_34
   10  A    between atoms: C_27  and  C_37
   11  A    between atoms: C_29  and  N_36
   12  A    between atoms: C_31  and  C_37
   13  A    between atoms: C_33  and  N_36
                            x       y       z     vdW  Elec       q    Type
                         _______ _______ _______ _____ _____    ______ ____

>  <TORSDO>
F 13

$$$$
=
 OpenBabel10262423003D

 37 40  0  0  1  0  0  0  0  0999 V2000
  185.1230  178.2830  137.5220 N   0  0  0  0  0  0  0  0  0  0  0  0
  186.1110  178.2380  141.8520 C   0  0  0  0  0  3  0  0  0  0  0  0
  183.8250  178.1010  138.1500 C   0  0  2  0  0  3  0  0  0  0  0  0
  185.5840  178.5330  140.5880 C   0  0  0  0  0  0  0  0  0  0  0  0
  186.4750  178.4010  139.5050 O   0  0  0  0  0  0  0  0  0  0  0  0
  184.2340  178.9530  140.4890 C   0  0  0  0  0  0  0  0  0  0  0  0
  184.0040  178.7550  142.9080 C   0  0  0  0  0  3  0  0  0  0  0  0
  186.2740  178.4380  138.1110 C   0  0  0  0  0  0  0  0  0  0  0  0
  183.4620  179.0590  141.6590 C   0  0  0  0  0  3  0  0  0  0  0  0
  183.6030  179.2370  139.1560 C   0  0  2  0  0  3  0  0  0  0  0  0
  185.3310  178.3430  143.0050 C   0  0  0  0  0  0  0  0  0  0  0  0
  182.2120  176.2750  138.6500 C   0  0  0  0  0  2  0  0  0  0  0  0
  183.6670  176.6880  138.7280 C   0  0  1  0  0  3  0  0  0  0  0  0
  183.2010  175.7220  137.6530 C   0  0  1  0  0  3  0  0  0  0  0  0
  183.5750  174.3110  138.0660 C   0  0  0  0  0  2  0  0  0  0  0  0
  183.4660  173.3550  136.8910 C   0  0  0  0  0  2  0  0  0  0  0  0
  185.6950  172.9090  137.8670 C   0  0  0  0  0  2  0  0  0  0  0  0
  184.6880  172.4400  136.8260 C   0  0  2  0  0  3  0  0  0  0  0  0
  185.6930  172.7810  135.7140 C   0  0  1  0  0  3  0  0  0  0  0  0
  187.9380  172.4720  136.8320 C   0  0  0  0  0  1  0  0  0  0  0  0
  186.9520  174.7960  136.7830 C   0  0  0  0  0  1  0  0  0  0  0  0
  185.2260  173.8250  134.6970 C   0  0  0  0  0  1  0  0  0  0  0  0
  186.6690  173.2970  136.7710 C   0  0  0  0  0  0  0  0  0  0  0  0
  185.9030  177.9770  144.3310 C   0  0  0  0  0  2  0  0  0  0  0  0
  187.2000  177.2170  144.1420 C   0  0  0  0  0  1  0  0  0  0  0  0
  187.4880  178.5910  137.2610 C   0  0  0  0  0  2  0  0  0  0  0  0
  188.5760  179.0020  138.0370 O   0  0  0  0  0  1  0  0  0  0  0  0
  182.2140  179.7450  139.2500 N   0  0  0  0  0  0  0  0  0  0  0  0
  181.8030  180.5610  138.0940 C   0  0  1  0  0  3  0  0  0  0  0  0
  180.8810  179.7670  137.1860 C   0  0  0  0  0  1  0  0  0  0  0  0
  179.8660  181.9730  137.9280 O   0  0  0  0  0  1  0  0  0  0  0  0
  181.1550  181.8970  138.4610 C   0  0  0  0  0  2  0  0  0  0  0  0
  181.2350  178.6960  139.5190 C   0  0  0  0  0  2  0  0  0  0  0  0
  180.2580  179.1630  140.5770 C   0  0  0  0  0  2  0  0  0  0  0  0
  179.8240  177.9860  141.4210 C   0  0  0  0  0  2  0  0  0  0  0  0
  180.0250  179.8190  143.0680 C   0  0  0  0  0  1  0  0  0  0  0  0
  180.0020  178.3180  142.8870 C   0  0  0  0  0  2  0  0  0  0  0  0
  1  8  2  0  0  0  0
  2 11  1  0  0  0  0
  3  1  1  1  0  0  0
  3 13  1  0  0  0  0
  3 10  1  0  0  0  0
  4  2  2  0  0  0  0
  5  4  1  0  0  0  0
  6  4  1  0  0  0  0
  6  9  2  0  0  0  0
  7 11  2  0  0  0  0
  8  5  1  0  0  0  0
  9  7  1  0  0  0  0
 10 28  1  1  0  0  0
 10  6  1  0  0  0  0
 11 24  1  0  0  0  0
 13 12  1  1  0  0  0
 14 15  1  1  0  0  0
 14 12  1  0  0  0  0
 14 13  1  0  0  0  0
 16 15  1  0  0  0  0
 18 16  1  6  0  0  0
 18 17  1  0  0  0  0
 19 22  1  6  0  0  0
 19 23  1  0  0  0  0
 19 18  1  0  0  0  0
 23 21  1  0  0  0  0
 23 20  1  0  0  0  0
 23 17  1  0  0  0  0
 25 24  1  0  0  0  0
 26 27  1  0  0  0  0
 26  8  1  0  0  0  0
 28 33  1  0  0  0  0
 29 30  1  1  0  0  0
 29 32  1  0  0  0  0
 29 28  1  0  0  0  0
 31 32  1  0  0  0  0
 33 34  1  0  0  0  0
 34 35  1  0  0  0  0
 35 37  1  0  0  0  0
 37 36  1  0  0  0  0
M  END
>  <MODEL>
4

>  <REMARK>
 VINA RESULT:      -5.3      2.188      7.516
  Name = 
  13 active torsions:
  status: ('A' for Active; 'I' for Inactive)
    1  A    between atoms: C_1  and  C_12
    2  A    between atoms: C_1  and  N_36
    3  A    between atoms: C_3  and  C_32
    4  A    between atoms: C_6  and  C_31
    5  A    between atoms: C_10  and  C_14
    6  A    between atoms: C_17  and  C_26
    7  A    between atoms: C_17  and  C_33
    8  A    between atoms: C_22  and  C_24
    9  A    between atoms: C_26  and  C_34
   10  A    between atoms: C_27  and  C_37
   11  A    between atoms: C_29  and  N_36
   12  A    between atoms: C_31  and  C_37
   13  A    between atoms: C_33  and  N_36
                            x       y       z     vdW  Elec       q    Type
                         _______ _______ _______ _____ _____    ______ ____

>  <TORSDO>
F 13

$$$$
=
 OpenBabel10262423003D

 37 40  0  0  1  0  0  0  0  0999 V2000
  189.2240  177.8520  136.5940 N   0  0  0  0  0  0  0  0  0  0  0  0
  186.3610  174.4630  136.8050 C   0  0  0  0  0  3  0  0  0  0  0  0
  190.0070  176.8030  137.2280 C   0  0  2  0  0  3  0  0  0  0  0  0
  187.4640  175.2870  136.5490 C   0  0  0  0  0  0  0  0  0  0  0  0
  187.1720  176.6390  136.2860 O   0  0  0  0  0  0  0  0  0  0  0  0
  188.7610  174.7170  136.5500 C   0  0  0  0  0  0  0  0  0  0  0  0
  187.7950  172.5400  137.0690 C   0  0  0  0  0  3  0  0  0  0  0  0
  187.9980  177.7740  136.1610 C   0  0  0  0  0  0  0  0  0  0  0  0
  188.9050  173.3430  136.8110 C   0  0  0  0  0  3  0  0  0  0  0  0
  189.9840  175.5610  136.3280 C   0  0  2  0  0  3  0  0  0  0  0  0
  186.5190  173.1010  137.0670 C   0  0  0  0  0  0  0  0  0  0  0  0
  190.7830  176.4210  139.5600 C   0  0  0  0  0  2  0  0  0  0  0  0
  189.5610  176.5590  138.6750 C   0  0  1  0  0  3  0  0  0  0  0  0
  189.9950  177.7090  139.5680 C   0  0  1  0  0  3  0  0  0  0  0  0
  189.1110  177.7350  140.8010 C   0  0  0  0  0  2  0  0  0  0  0  0
  189.9230  178.0570  142.0420 C   0  0  0  0  0  2  0  0  0  0  0  0
  189.7760  178.5100  144.4700 C   0  0  0  0  0  2  0  0  0  0  0  0
  189.1010  177.7990  143.3040 C   0  0  2  0  0  3  0  0  0  0  0  0
  189.3710  176.4470  143.9850 C   0  0  1  0  0  3  0  0  0  0  0  0
  189.3780  177.0170  146.4470 C   0  0  0  0  0  1  0  0  0  0  0  0
  191.5960  176.9580  145.2400 C   0  0  0  0  0  1  0  0  0  0  0  0
  190.2370  175.4670  143.1920 C   0  0  0  0  0  1  0  0  0  0  0  0
  190.0910  177.1760  145.1190 C   0  0  0  0  0  0  0  0  0  0  0  0
  185.3330  172.2570  137.3840 C   0  0  0  0  0  2  0  0  0  0  0  0
  184.0840  172.8790  136.7930 C   0  0  0  0  0  1  0  0  0  0  0  0
  187.3850  178.9890  135.5560 C   0  0  0  0  0  2  0  0  0  0  0  0
  187.1800  179.9680  136.5350 O   0  0  0  0  0  1  0  0  0  0  0  0
  191.2450  174.7840  136.2790 N   0  0  0  0  0  0  0  0  0  0  0  0
  191.6920  174.4670  134.9120 C   0  0  1  0  0  3  0  0  0  0  0  0
  192.9880  175.1930  134.5960 C   0  0  0  0  0  1  0  0  0  0  0  0
  193.1490  172.5580  134.9010 O   0  0  0  0  0  1  0  0  0  0  0  0
  191.8440  172.9720  134.6260 C   0  0  0  0  0  2  0  0  0  0  0  0
  192.3250  175.3920  137.0510 C   0  0  0  0  0  2  0  0  0  0  0  0
  193.0050  174.3400  137.9000 C   0  0  0  0  0  2  0  0  0  0  0  0
  194.4850  174.3190  137.5920 C   0  0  0  0  0  2  0  0  0  0  0  0
  196.0830  174.4880  139.4730 C   0  0  0  0  0  1  0  0  0  0  0  0
  195.2180  173.5440  138.6670 C   0  0  0  0  0  2  0  0  0  0  0  0
  2 11  1  0  0  0  0
  3  1  1  6  0  0  0
  3 13  1  0  0  0  0
  4  6  1  0  0  0  0
  4  2  2  0  0  0  0
  5  4  1  0  0  0  0
  6  9  2  0  0  0  0
  8  5  1  0  0  0  0
  8  1  2  0  0  0  0
  9  7  1  0  0  0  0
 10 28  1  1  0  0  0
 10  6  1  0  0  0  0
 10  3  1  0  0  0  0
 11  7  2  0  0  0  0
 11 24  1  0  0  0  0
 12 14  1  0  0  0  0
 13 12  1  1  0  0  0
 13 14  1  0  0  0  0
 14 15  1  1  0  0  0
 15 16  1  0  0  0  0
 17 23  1  0  0  0  0
 18 16  1  6  0  0  0
 18 19  1  0  0  0  0
 18 17  1  0  0  0  0
 19 22  1  6  0  0  0
 19 23  1  0  0  0  0
 23 21  1  0  0  0  0
 23 20  1  0  0  0  0
 25 24  1  0  0  0  0
 26  8  1  0  0  0  0
 26 27  1  0  0  0  0
 28 33  1  0  0  0  0
 29 30  1  1  0  0  0
 29 28  1  0  0  0  0
 32 31  1  0  0  0  0
 32 29  1  0  0  0  0
 33 34  1  0  0  0  0
 35 34  1  0  0  0  0
 35 37  1  0  0  0  0
 37 36  1  0  0  0  0
M  END
>  <MODEL>
5

>  <REMARK>
 VINA RESULT:      -5.2      4.320      6.195
  Name = 
  13 active torsions:
  status: ('A' for Active; 'I' for Inactive)
    1  A    between atoms: C_1  and  C_12
    2  A    between atoms: C_1  and  N_36
    3  A    between atoms: C_3  and  C_32
    4  A    between atoms: C_6  and  C_31
    5  A    between atoms: C_10  and  C_14
    6  A    between atoms: C_17  and  C_26
    7  A    between atoms: C_17  and  C_33
    8  A    between atoms: C_22  and  C_24
    9  A    between atoms: C_26  and  C_34
   10  A    between atoms: C_27  and  C_37
   11  A    between atoms: C_29  and  N_36
   12  A    between atoms: C_31  and  C_37
   13  A    between atoms: C_33  and  N_36
                            x       y       z     vdW  Elec       q    Type
                         _______ _______ _______ _____ _____    ______ ____

>  <TORSDO>
F 13

$$$$
=
 OpenBabel10262423003D

 37 40  0  0  1  0  0  0  0  0999 V2000
  182.9380  176.2390  137.8550 N   0  0  0  0  0  0  0  0  0  0  0  0
  181.0200  179.7240  135.8780 C   0  0  0  0  0  3  0  0  0  0  0  0
  183.3540  177.3560  138.6880 C   0  0  2  0  0  3  0  0  0  0  0  0
  181.4300  178.7440  136.7910 C   0  0  0  0  0  0  0  0  0  0  0  0
  181.6010  177.4480  136.2660 O   0  0  0  0  0  0  0  0  0  0  0  0
  181.6210  179.1070  138.1480 C   0  0  0  0  0  0  0  0  0  0  0  0
  180.9930  181.4010  137.6120 C   0  0  0  0  0  3  0  0  0  0  0  0
  182.1550  176.2750  136.8150 C   0  0  0  0  0  0  0  0  0  0  0  0
  181.3960  180.4390  138.5370 C   0  0  0  0  0  3  0  0  0  0  0  0
  182.1050  178.1100  139.1600 C   0  0  2  0  0  3  0  0  0  0  0  0
  180.8060  181.0430  136.2790 C   0  0  0  0  0  0  0  0  0  0  0  0
  185.0170  179.1820  138.9880 C   0  0  0  0  0  2  0  0  0  0  0  0
  184.4040  178.2260  137.9850 C   0  0  1  0  0  3  0  0  0  0  0  0
  185.7870  177.9580  138.5530 C   0  0  1  0  0  3  0  0  0  0  0  0
  186.8280  178.3720  137.5310 C   0  0  0  0  0  2  0  0  0  0  0  0
  188.2250  178.3040  138.1210 C   0  0  0  0  0  2  0  0  0  0  0  0
  189.0620  178.2470  140.4470 C   0  0  0  0  0  2  0  0  0  0  0  0
  188.2220  177.5000  139.4200 C   0  0  2  0  0  3  0  0  0  0  0  0
  189.2240  176.3350  139.4610 C   0  0  1  0  0  3  0  0  0  0  0  0
  190.1620  176.4460  141.8050 C   0  0  0  0  0  1  0  0  0  0  0  0
  191.4420  177.6050  139.9630 C   0  0  0  0  0  1  0  0  0  0  0  0
  189.9080  176.0020  138.1340 C   0  0  0  0  0  1  0  0  0  0  0  0
  190.0800  177.1230  140.4520 C   0  0  0  0  0  0  0  0  0  0  0  0
  180.4160  182.0760  135.2780 C   0  0  0  0  0  2  0  0  0  0  0  0
  180.5570  183.4590  135.8820 C   0  0  0  0  0  1  0  0  0  0  0  0
  181.8760  175.0000  136.0980 C   0  0  0  0  0  2  0  0  0  0  0  0
  182.5070  174.9970  134.8490 O   0  0  0  0  0  1  0  0  0  0  0  0
  182.1650  178.6430  140.5420 N   0  0  0  0  0  0  0  0  0  0  0  0
  180.8550  178.6930  141.2140 C   0  0  1  0  0  3  0  0  0  0  0  0
  180.0940  177.3980  140.9900 C   0  0  0  0  0  1  0  0  0  0  0  0
  180.5840  180.3470  142.9350 O   0  0  0  0  0  1  0  0  0  0  0  0
  180.9220  179.0110  142.7090 C   0  0  0  0  0  2  0  0  0  0  0  0
  183.1510  177.9640  141.3770 C   0  0  0  0  0  2  0  0  0  0  0  0
  184.0810  178.9820  142.0020 C   0  0  0  0  0  2  0  0  0  0  0  0
  185.3290  178.2870  142.5030 C   0  0  0  0  0  2  0  0  0  0  0  0
  184.3840  179.3210  144.5410 C   0  0  0  0  0  1  0  0  0  0  0  0
  185.3210  178.2560  144.0160 C   0  0  0  0  0  2  0  0  0  0  0  0
  2 11  2  0  0  0  0
  2  4  1  0  0  0  0
  3  1  1  6  0  0  0
  3 10  1  0  0  0  0
  4  6  2  0  0  0  0
  5  4  1  0  0  0  0
  5  8  1  0  0  0  0
  6  9  1  0  0  0  0
  6 10  1  0  0  0  0
  7  9  2  0  0  0  0
  8  1  2  0  0  0  0
 10 28  1  1  0  0  0
 11  7  1  0  0  0  0
 13 14  1  0  0  0  0
 13  3  1  0  0  0  0
 13 12  1  1  0  0  0
 14 15  1  6  0  0  0
 14 12  1  0  0  0  0
 15 16  1  0  0  0  0
 17 23  1  0  0  0  0
 18 16  1  6  0  0  0
 18 19  1  0  0  0  0
 18 17  1  0  0  0  0
 19 22  1  6  0  0  0
 19 23  1  0  0  0  0
 21 23  1  0  0  0  0
 23 20  1  0  0  0  0
 24 25  1  0  0  0  0
 24 11  1  0  0  0  0
 26  8  1  0  0  0  0
 27 26  1  0  0  0  0
 28 29  1  0  0  0  0
 28 33  1  0  0  0  0
 29 30  1  1  0  0  0
 29 32  1  0  0  0  0
 32 31  1  0  0  0  0
 33 34  1  0  0  0  0
 34 35  1  0  0  0  0
 35 37  1  0  0  0  0
 37 36  1  0  0  0  0
M  END
>  <MODEL>
6

>  <REMARK>
 VINA RESULT:      -5.1      2.340      5.998
  Name = 
  13 active torsions:
  status: ('A' for Active; 'I' for Inactive)
    1  A    between atoms: C_1  and  C_12
    2  A    between atoms: C_1  and  N_36
    3  A    between atoms: C_3  and  C_32
    4  A    between atoms: C_6  and  C_31
    5  A    between atoms: C_10  and  C_14
    6  A    between atoms: C_17  and  C_26
    7  A    between atoms: C_17  and  C_33
    8  A    between atoms: C_22  and  C_24
    9  A    between atoms: C_26  and  C_34
   10  A    between atoms: C_27  and  C_37
   11  A    between atoms: C_29  and  N_36
   12  A    between atoms: C_31  and  C_37
   13  A    between atoms: C_33  and  N_36
                            x       y       z     vdW  Elec       q    Type
                         _______ _______ _______ _____ _____    ______ ____

>  <TORSDO>
F 13

$$$$
=
 OpenBabel10262423003D

 37 40  0  0  1  0  0  0  0  0999 V2000
  183.2030  177.1220  139.2230 N   0  0  0  0  0  0  0  0  0  0  0  0
  181.8630  181.1640  137.9590 C   0  0  0  0  0  3  0  0  0  0  0  0
  182.1940  177.4560  140.2150 C   0  0  2  0  0  3  0  0  0  0  0  0
  181.9280  179.8110  138.3150 C   0  0  0  0  0  0  0  0  0  0  0  0
  183.0790  179.1190  137.8910 O   0  0  0  0  0  0  0  0  0  0  0  0
  180.8520  179.2400  139.0410 C   0  0  0  0  0  0  0  0  0  0  0  0
  179.7100  181.3930  139.0250 C   0  0  0  0  0  3  0  0  0  0  0  0
  183.5710  177.8350  138.1970 C   0  0  0  0  0  0  0  0  0  0  0  0
  179.7540  180.0470  139.3840 C   0  0  0  0  0  3  0  0  0  0  0  0
  180.8890  177.8080  139.4900 C   0  0  2  0  0  3  0  0  0  0  0  0
  180.7670  181.9540  138.3110 C   0  0  0  0  0  0  0  0  0  0  0  0
  182.7560  177.9360  142.5900 C   0  0  0  0  0  2  0  0  0  0  0  0
  182.6950  178.5240  141.1950 C   0  0  1  0  0  3  0  0  0  0  0  0
  184.0280  178.1130  141.7960 C   0  0  1  0  0  3  0  0  0  0  0  0
  184.7460  179.3540  142.2940 C   0  0  0  0  0  2  0  0  0  0  0  0
  186.0550  178.9890  142.9690 C   0  0  0  0  0  2  0  0  0  0  0  0
  186.4370  178.9290  145.4120 C   0  0  0  0  0  2  0  0  0  0  0  0
  185.7980  178.1890  144.2450 C   0  0  2  0  0  3  0  0  0  0  0  0
  186.7610  177.0130  144.4760 C   0  0  1  0  0  3  0  0  0  0  0  0
  187.2410  177.1210  146.9550 C   0  0  0  0  0  1  0  0  0  0  0  0
  188.8590  178.2600  145.3870 C   0  0  0  0  0  1  0  0  0  0  0  0
  187.6800  176.6690  143.3020 C   0  0  0  0  0  1  0  0  0  0  0  0
  187.4240  177.7950  145.6100 C   0  0  0  0  0  0  0  0  0  0  0  0
  180.7450  183.4020  137.9610 C   0  0  0  0  0  2  0  0  0  0  0  0
  180.8270  183.5710  136.4570 C   0  0  0  0  0  1  0  0  0  0  0  0
  184.6460  177.2990  137.3150 C   0  0  0  0  0  2  0  0  0  0  0  0
  184.5240  175.9110  137.1880 O   0  0  0  0  0  1  0  0  0  0  0  0
  179.6450  177.3600  140.1600 N   0  0  0  0  0  0  0  0  0  0  0  0
  178.9740  176.2420  139.4750 C   0  0  1  0  0  3  0  0  0  0  0  0
  179.3480  176.2200  138.0030 C   0  0  0  0  0  1  0  0  0  0  0  0
  179.8030  174.0080  139.1640 O   0  0  0  0  0  1  0  0  0  0  0  0
  179.2300  174.8700  140.1020 C   0  0  0  0  0  2  0  0  0  0  0  0
  179.8300  177.0640  141.5770 C   0  0  0  0  0  2  0  0  0  0  0  0
  179.0180  178.0290  142.4140 C   0  0  0  0  0  2  0  0  0  0  0  0
  179.6800  178.2150  143.7600 C   0  0  0  0  0  2  0  0  0  0  0  0
  179.6810  180.5110  142.8430 C   0  0  0  0  0  1  0  0  0  0  0  0
  179.7170  179.6870  144.1110 C   0  0  0  0  0  2  0  0  0  0  0  0
  2 11  2  0  0  0  0
  2  4  1  0  0  0  0
  3  1  1  6  0  0  0
  3 13  1  0  0  0  0
  4  6  2  0  0  0  0
  5  8  1  0  0  0  0
  5  4  1  0  0  0  0
  6  9  1  0  0  0  0
  6 10  1  0  0  0  0
  7  9  2  0  0  0  0
  8  1  2  0  0  0  0
 10 28  1  1  0  0  0
 10  3  1  0  0  0  0
 11  7  1  0  0  0  0
 13 14  1  0  0  0  0
 13 12  1  1  0  0  0
 14 15  1  1  0  0  0
 14 12  1  0  0  0  0
 15 16  1  0  0  0  0
 17 23  1  0  0  0  0
 18 16  1  6  0  0  0
 18 19  1  0  0  0  0
 18 17  1  0  0  0  0
 19 22  1  6  0  0  0
 19 23  1  0  0  0  0
 21 23  1  0  0  0  0
 23 20  1  0  0  0  0
 24 11  1  0  0  0  0
 25 24  1  0  0  0  0
 26  8  1  0  0  0  0
 27 26  1  0  0  0  0
 28 33  1  0  0  0  0
 29 30  1  6  0  0  0
 29 32  1  0  0  0  0
 29 28  1  0  0  0  0
 31 32  1  0  0  0  0
 33 34  1  0  0  0  0
 34 35  1  0  0  0  0
 35 37  1  0  0  0  0
 36 37  1  0  0  0  0
M  END
>  <MODEL>
7

>  <REMARK>
 VINA RESULT:      -4.6      2.431      5.669
  Name = 
  13 active torsions:
  status: ('A' for Active; 'I' for Inactive)
    1  A    between atoms: C_1  and  C_12
    2  A    between atoms: C_1  and  N_36
    3  A    between atoms: C_3  and  C_32
    4  A    between atoms: C_6  and  C_31
    5  A    between atoms: C_10  and  C_14
    6  A    between atoms: C_17  and  C_26
    7  A    between atoms: C_17  and  C_33
    8  A    between atoms: C_22  and  C_24
    9  A    between atoms: C_26  and  C_34
   10  A    between atoms: C_27  and  C_37
   11  A    between atoms: C_29  and  N_36
   12  A    between atoms: C_31  and  C_37
   13  A    between atoms: C_33  and  N_36
                            x       y       z     vdW  Elec       q    Type
                         _______ _______ _______ _____ _____    ______ ____

>  <TORSDO>
F 13

$$$$
=
 OpenBabel10262423003D

 37 40  0  0  1  0  0  0  0  0999 V2000
  181.8460  177.0190  138.5200 N   0  0  0  0  0  0  0  0  0  0  0  0
  186.0340  178.3520  137.8840 C   0  0  0  0  0  3  0  0  0  0  0  0
  182.0550  176.7730  137.1020 C   0  0  2  0  0  3  0  0  0  0  0  0
  184.8460  177.6150  137.9530 C   0  0  0  0  0  0  0  0  0  0  0  0
  184.0230  177.8780  139.0650 O   0  0  0  0  0  0  0  0  0  0  0  0
  184.5700  176.6650  136.9380 C   0  0  0  0  0  0  0  0  0  0  0  0
  186.6680  177.2410  135.8390 C   0  0  0  0  0  3  0  0  0  0  0  0
  182.7100  177.4760  139.3800 C   0  0  0  0  0  0  0  0  0  0  0  0
  185.4920  176.4920  135.8920 C   0  0  0  0  0  3  0  0  0  0  0  0
  183.2900  175.8790  136.9350 C   0  0  2  0  0  3  0  0  0  0  0  0
  186.9390  178.1740  136.8370 C   0  0  0  0  0  0  0  0  0  0  0  0
  181.3060  177.9030  135.0160 C   0  0  0  0  0  2  0  0  0  0  0  0
  182.0920  178.0800  136.2990 C   0  0  1  0  0  3  0  0  0  0  0  0
  180.6960  178.6640  136.1680 C   0  0  1  0  0  3  0  0  0  0  0  0
  180.8100  180.1510  135.8860 C   0  0  0  0  0  2  0  0  0  0  0  0
  179.5150  180.8670  136.2210 C   0  0  0  0  0  2  0  0  0  0  0  0
  180.8790  182.6830  135.2410 C   0  0  0  0  0  2  0  0  0  0  0  0
  179.4540  182.2240  135.5230 C   0  0  2  0  0  3  0  0  0  0  0  0
  179.2630  183.4270  136.4610 C   0  0  1  0  0  3  0  0  0  0  0  0
  180.8120  185.1770  135.5020 C   0  0  0  0  0  1  0  0  0  0  0  0
  181.6820  183.7300  137.3790 C   0  0  0  0  0  1  0  0  0  0  0  0
  178.9320  183.0850  137.9150 C   0  0  0  0  0  1  0  0  0  0  0  0
  180.7120  183.8400  136.2070 C   0  0  0  0  0  0  0  0  0  0  0  0
  188.1730  179.0070  136.7620 C   0  0  0  0  0  2  0  0  0  0  0  0
  189.3840  178.1680  137.1220 C   0  0  0  0  0  1  0  0  0  0  0  0
  182.2680  177.6680  140.7900 C   0  0  0  0  0  2  0  0  0  0  0  0
  182.9450  178.7460  141.3690 O   0  0  0  0  0  1  0  0  0  0  0  0
  183.2090  174.8740  135.8490 N   0  0  0  0  0  0  0  0  0  0  0  0
  183.6460  173.5270  136.2550 C   0  0  1  0  0  3  0  0  0  0  0  0
  184.7000  173.0000  135.2970 C   0  0  0  0  0  1  0  0  0  0  0  0
  185.5180  173.1430  137.7110 O   0  0  0  0  0  1  0  0  0  0  0  0
  184.1520  173.4330  137.6950 C   0  0  0  0  0  2  0  0  0  0  0  0
  181.8980  174.8230  135.2090 C   0  0  0  0  0  2  0  0  0  0  0  0
  181.1740  173.5590  135.6210 C   0  0  0  0  0  2  0  0  0  0  0  0
  179.9480  173.9190  136.4300 C   0  0  0  0  0  2  0  0  0  0  0  0
  180.5970  171.8440  137.6090 C   0  0  0  0  0  1  0  0  0  0  0  0
  180.0030  173.2250  137.7750 C   0  0  0  0  0  2  0  0  0  0  0  0
  1  8  2  0  0  0  0
  2  4  1  0  0  0  0
  3  1  1  1  0  0  0
  4  5  1  0  0  0  0
  5  8  1  0  0  0  0
  6  4  2  0  0  0  0
  7  9  2  0  0  0  0
  7 11  1  0  0  0  0
  8 26  1  0  0  0  0
  9  6  1  0  0  0  0
 10 28  1  6  0  0  0
 10  6  1  0  0  0  0
 10  3  1  0  0  0  0
 11  2  2  0  0  0  0
 12 14  1  0  0  0  0
 13 12  1  6  0  0  0
 13  3  1  0  0  0  0
 14 15  1  6  0  0  0
 14 13  1  0  0  0  0
 15 16  1  0  0  0  0
 17 18  1  0  0  0  0
 17 23  1  0  0  0  0
 18 16  1  1  0  0  0
 18 19  1  0  0  0  0
 19 22  1  1  0  0  0
 20 23  1  0  0  0  0
 23 19  1  0  0  0  0
 23 21  1  0  0  0  0
 24 11  1  0  0  0  0
 24 25  1  0  0  0  0
 26 27  1  0  0  0  0
 28 29  1  0  0  0  0
 29 30  1  6  0  0  0
 29 32  1  0  0  0  0
 32 31  1  0  0  0  0
 33 34  1  0  0  0  0
 33 28  1  0  0  0  0
 34 35  1  0  0  0  0
 35 37  1  0  0  0  0
 36 37  1  0  0  0  0
M  END
>  <MODEL>
8

>  <REMARK>
 VINA RESULT:      -4.3      3.970      8.232
  Name = 
  13 active torsions:
  status: ('A' for Active; 'I' for Inactive)
    1  A    between atoms: C_1  and  C_12
    2  A    between atoms: C_1  and  N_36
    3  A    between atoms: C_3  and  C_32
    4  A    between atoms: C_6  and  C_31
    5  A    between atoms: C_10  and  C_14
    6  A    between atoms: C_17  and  C_26
    7  A    between atoms: C_17  and  C_33
    8  A    between atoms: C_22  and  C_24
    9  A    between atoms: C_26  and  C_34
   10  A    between atoms: C_27  and  C_37
   11  A    between atoms: C_29  and  N_36
   12  A    between atoms: C_31  and  C_37
   13  A    between atoms: C_33  and  N_36
                            x       y       z     vdW  Elec       q    Type
                         _______ _______ _______ _____ _____    ______ ____

>  <TORSDO>
F 13

$$$$
=
 OpenBabel10262423003D

 37 40  0  0  1  0  0  0  0  0999 V2000
  189.4680  177.9090  136.7600 N   0  0  0  0  0  0  0  0  0  0  0  0
  186.9520  174.2620  136.4600 C   0  0  0  0  0  3  0  0  0  0  0  0
  190.3550  176.8610  137.2400 C   0  0  2  0  0  3  0  0  0  0  0  0
  187.9660  175.2190  136.3330 C   0  0  0  0  0  0  0  0  0  0  0  0
  187.5420  176.5590  136.2680 O   0  0  0  0  0  0  0  0  0  0  0  0
  189.3140  174.7840  136.2590 C   0  0  0  0  0  0  0  0  0  0  0  0
  188.5680  172.4700  136.4510 C   0  0  0  0  0  3  0  0  0  0  0  0
  188.2520  177.7750  136.3140 C   0  0  0  0  0  0  0  0  0  0  0  0
  189.5930  173.4070  136.3180 C   0  0  0  0  0  3  0  0  0  0  0  0
  190.4450  175.7660  136.1690 C   0  0  2  0  0  3  0  0  0  0  0  0
  187.2440  172.8980  136.5230 C   0  0  0  0  0  0  0  0  0  0  0  0
  191.1290  176.4880  139.5740 C   0  0  0  0  0  2  0  0  0  0  0  0
  189.9470  176.3670  138.6340 C   0  0  1  0  0  3  0  0  0  0  0  0
  190.0130  177.5020  139.6410 C   0  0  1  0  0  3  0  0  0  0  0  0
  189.1170  177.1660  140.8190 C   0  0  0  0  0  2  0  0  0  0  0  0
  189.5300  177.9450  142.0540 C   0  0  0  0  0  2  0  0  0  0  0  0
  190.0470  176.3200  143.8450 C   0  0  0  0  0  2  0  0  0  0  0  0
  190.6610  177.2290  142.7900 C   0  0  2  0  0  3  0  0  0  0  0  0
  191.3330  178.0510  143.9020 C   0  0  1  0  0  3  0  0  0  0  0  0
  191.6710  176.3690  145.7570 C   0  0  0  0  0  1  0  0  0  0  0  0
  189.5930  177.8010  145.8240 C   0  0  0  0  0  1  0  0  0  0  0  0
  190.9400  179.5280  143.9620 C   0  0  0  0  0  1  0  0  0  0  0  0
  190.6630  177.1600  144.9480 C   0  0  0  0  0  0  0  0  0  0  0  0
  186.1490  171.9050  136.7060 C   0  0  0  0  0  2  0  0  0  0  0  0
  184.9440  172.3060  135.8790 C   0  0  0  0  0  1  0  0  0  0  0  0
  187.5180  179.0000  135.8890 C   0  0  0  0  0  2  0  0  0  0  0  0
  187.5010  179.9400  136.9240 O   0  0  0  0  0  1  0  0  0  0  0  0
  191.7760  175.1320  136.0150 N   0  0  0  0  0  0  0  0  0  0  0  0
  192.8990  176.0790  136.1240 C   0  0  1  0  0  3  0  0  0  0  0  0
  193.8150  175.6870  137.2700 C   0  0  0  0  0  1  0  0  0  0  0  0
  194.4750  175.1070  134.5940 O   0  0  0  0  0  1  0  0  0  0  0  0
  193.7100  176.2490  134.8380 C   0  0  0  0  0  2  0  0  0  0  0  0
  191.9740  173.9890  136.9010 C   0  0  0  0  0  2  0  0  0  0  0  0
  192.4170  172.7860  136.0960 C   0  0  0  0  0  2  0  0  0  0  0  0
  193.7810  172.3350  136.5680 C   0  0  0  0  0  2  0  0  0  0  0  0
  193.9300  169.8810  136.8290 C   0  0  0  0  0  1  0  0  0  0  0  0
  194.1550  171.0380  135.8820 C   0  0  0  0  0  2  0  0  0  0  0  0
  2 11  1  0  0  0  0
  3  1  1  6  0  0  0
  3 13  1  0  0  0  0
  4  2  2  0  0  0  0
  5  8  1  0  0  0  0
  5  4  1  0  0  0  0
  6  9  2  0  0  0  0
  6  4  1  0  0  0  0
  7 11  2  0  0  0  0
  8  1  2  0  0  0  0
  9  7  1  0  0  0  0
 10 28  1  1  0  0  0
 10  6  1  0  0  0  0
 10  3  1  0  0  0  0
 11 24  1  0  0  0  0
 12 14  1  0  0  0  0
 13 12  1  1  0  0  0
 13 14  1  0  0  0  0
 14 15  1  1  0  0  0
 15 16  1  0  0  0  0
 17 23  1  0  0  0  0
 18 16  1  1  0  0  0
 18 17  1  0  0  0  0
 18 19  1  0  0  0  0
 19 22  1  1  0  0  0
 19 23  1  0  0  0  0
 23 20  1  0  0  0  0
 23 21  1  0  0  0  0
 25 24  1  0  0  0  0
 26  8  1  0  0  0  0
 26 27  1  0  0  0  0
 28 29  1  0  0  0  0
 28 33  1  0  0  0  0
 29 30  1  1  0  0  0
 31 32  1  0  0  0  0
 32 29  1  0  0  0  0
 34 35  1  0  0  0  0
 34 33  1  0  0  0  0
 37 35  1  0  0  0  0
 37 36  1  0  0  0  0
M  END
>  <MODEL>
9

>  <REMARK>
 VINA RESULT:      -4.2      4.737      6.907
  Name = 
  13 active torsions:
  status: ('A' for Active; 'I' for Inactive)
    1  A    between atoms: C_1  and  C_12
    2  A    between atoms: C_1  and  N_36
    3  A    between atoms: C_3  and  C_32
    4  A    between atoms: C_6  and  C_31
    5  A    between atoms: C_10  and  C_14
    6  A    between atoms: C_17  and  C_26
    7  A    between atoms: C_17  and  C_33
    8  A    between atoms: C_22  and  C_24
    9  A    between atoms: C_26  and  C_34
   10  A    between atoms: C_27  and  C_37
   11  A    between atoms: C_29  and  N_36
   12  A    between atoms: C_31  and  C_37
   13  A    between atoms: C_33  and  N_36
                            x       y       z     vdW  Elec       q    Type
                         _______ _______ _______ _____ _____    ______ ____

>  <TORSDO>
F 13

$$$$
