=
 OpenBabel10262420063D

 27 30  0  0  1  0  0  0  0  0999 V2000
  188.4550  177.9740  142.3180 C   0  0  2  0  0  3  0  0  0  0  0  0
  188.7730  177.8200  140.8970 N   0  0  0  0  0  0  0  0  0  0  0  0
  186.8760  178.7970  140.0000 O   0  0  0  0  0  0  0  0  0  0  0  0
  190.2960  176.8150  136.7850 C   0  0  0  0  0  3  0  0  0  0  0  0
  188.8000  177.5590  135.0700 F   0  0  0  0  0  0  0  0  0  0  0  0
  189.8530  177.2050  140.4210 N   0  0  0  0  0  2  0  0  0  0  0  0
  188.2180  177.9760  137.3550 C   0  0  0  0  0  0  0  0  0  0  0  0
  187.0620  178.5890  136.9950 F   0  0  0  0  0  0  0  0  0  0  0  0
  188.5790  177.8390  138.6930 C   0  0  0  0  0  0  0  0  0  0  0  0
  189.0990  177.4540  136.3880 C   0  0  0  0  0  0  0  0  0  0  0  0
  189.7410  177.2200  139.0780 C   0  0  0  0  0  0  0  0  0  0  0  0
  187.9820  178.2060  139.8730 C   0  0  0  0  0  0  0  0  0  0  0  0
  190.6320  176.6900  138.1470 C   0  0  0  0  0  3  0  0  0  0  0  0
  191.8670  177.5480  144.9080 C   0  0  0  0  0  3  0  0  0  0  0  0
  189.6460  177.7980  143.2170 C   0  0  0  0  0  0  0  0  0  0  0  0
  189.9450  176.5650  143.8150 C   0  0  0  0  0  3  0  0  0  0  0  0
  191.0530  176.4390  144.6570 C   0  0  0  0  0  3  0  0  0  0  0  0
  191.5710  178.7800  144.3190 C   0  0  0  0  0  3  0  0  0  0  0  0
  190.4630  178.9040  143.4770 C   0  0  0  0  0  3  0  0  0  0  0  0
  187.2110  177.1830  142.7460 C   0  0  0  0  0  2  0  0  0  0  0  0
  185.0440  178.8930  146.5020 C   0  0  0  0  0  2  0  0  0  0  0  0
  183.9800  178.7240  145.4450 C   0  0  0  0  0  2  0  0  0  0  0  0
  186.3940  177.8540  143.8030 C   0  0  0  0  0  0  0  0  0  0  0  0
  186.1470  177.8990  146.3480 C   0  0  0  0  0  3  0  0  0  0  0  0
  184.4540  179.4590  144.2140 C   0  0  0  0  0  2  0  0  0  0  0  0
  185.3950  178.6440  143.3850 C   0  0  0  0  0  3  0  0  0  0  0  0
  186.7140  177.4950  145.2060 C   0  0  0  0  0  3  0  0  0  0  0  0
  1 20  1  1  0  0  0
  1 15  1  0  0  0  0
  2  1  1  0  0  0  0
  4 13  1  0  0  0  0
  5 10  1  0  0  0  0
  6  2  1  0  0  0  0
  7  9  2  0  0  0  0
  8  7  1  0  0  0  0
  9 11  1  0  0  0  0
  9 12  1  0  0  0  0
 10  4  2  0  0  0  0
 10  7  1  0  0  0  0
 11  6  1  0  0  0  0
 12  3  2  0  0  0  0
 12  2  1  0  0  0  0
 13 11  2  0  0  0  0
 15 19  2  0  0  0  0
 15 16  1  0  0  0  0
 16 17  2  0  0  0  0
 17 14  1  0  0  0  0
 18 14  2  0  0  0  0
 19 18  1  0  0  0  0
 20 23  1  0  0  0  0
 22 21  1  0  0  0  0
 23 27  1  0  0  0  0
 24 21  1  0  0  0  0
 25 22  1  0  0  0  0
 26 23  2  0  0  0  0
 26 25  1  0  0  0  0
 27 24  2  0  0  0  0
M  END
>  <MODEL>
1

>  <REMARK>
 VINA RESULT:      -9.3      0.000      0.000
  Name = 
  4 active torsions:
  status: ('A' for Active; 'I' for Inactive)
    1  A    between atoms: C_1  and  C_15
    2  A    between atoms: C_1  and  C_18
    3  A    between atoms: N_2  and  C_15
    4  A    between atoms: C_9  and  C_15
                            x       y       z     vdW  Elec       q    Type
                         _______ _______ _______ _____ _____    ______ ____

>  <TORSDO>
F 4

$$$$
=
 OpenBabel10262420063D

 27 30  0  0  1  0  0  0  0  0999 V2000
  188.3440  177.9940  142.6350 C   0  0  2  0  0  3  0  0  0  0  0  0
  188.6920  177.8480  141.2200 N   0  0  0  0  0  0  0  0  0  0  0  0
  190.1600  176.0660  141.3960 O   0  0  0  0  0  0  0  0  0  0  0  0
  189.4480  178.1340  136.7940 C   0  0  0  0  0  3  0  0  0  0  0  0
  191.0000  176.4740  136.0420 F   0  0  0  0  0  0  0  0  0  0  0  0
  188.2570  178.6400  140.2440 N   0  0  0  0  0  2  0  0  0  0  0  0
  190.4250  176.5330  138.3660 C   0  0  0  0  0  0  0  0  0  0  0  0
  191.2410  175.4840  138.6400 F   0  0  0  0  0  0  0  0  0  0  0  0
  189.6810  177.1510  139.3670 C   0  0  0  0  0  0  0  0  0  0  0  0
  190.3000  177.0370  137.0570 C   0  0  0  0  0  0  0  0  0  0  0  0
  188.8530  178.2150  139.1110 C   0  0  0  0  0  0  0  0  0  0  0  0
  189.5610  176.9430  140.7180 C   0  0  0  0  0  0  0  0  0  0  0  0
  188.7090  178.7400  137.8290 C   0  0  0  0  0  3  0  0  0  0  0  0
  191.7330  177.7650  145.2780 C   0  0  0  0  0  3  0  0  0  0  0  0
  189.5330  177.9400  143.5500 C   0  0  0  0  0  0  0  0  0  0  0  0
  190.6320  178.7970  143.3870 C   0  0  0  0  0  3  0  0  0  0  0  0
  191.7280  178.7110  144.2490 C   0  0  0  0  0  3  0  0  0  0  0  0
  190.6430  176.9060  145.4430 C   0  0  0  0  0  3  0  0  0  0  0  0
  189.5470  176.9930  144.5810 C   0  0  0  0  0  3  0  0  0  0  0  0
  187.1710  177.0980  143.0610 C   0  0  0  0  0  2  0  0  0  0  0  0
  183.6120  179.3460  145.0630 C   0  0  0  0  0  2  0  0  0  0  0  0
  183.0230  178.5710  143.9090 C   0  0  0  0  0  2  0  0  0  0  0  0
  185.9530  177.8500  143.4910 C   0  0  0  0  0  0  0  0  0  0  0  0
  184.8180  178.6720  145.6300 C   0  0  0  0  0  3  0  0  0  0  0  0
  183.8020  178.9510  142.6720 C   0  0  0  0  0  2  0  0  0  0  0  0
  185.0730  178.1750  142.5330 C   0  0  0  0  0  3  0  0  0  0  0  0
  185.8000  178.0700  144.9500 C   0  0  0  0  0  3  0  0  0  0  0  0
  1 20  1  1  0  0  0
  1 15  1  0  0  0  0
  2  1  1  0  0  0  0
  4 10  2  0  0  0  0
  4 13  1  0  0  0  0
  5 10  1  0  0  0  0
  6  2  1  0  0  0  0
  7  8  1  0  0  0  0
  7  9  2  0  0  0  0
  9 12  1  0  0  0  0
 10  7  1  0  0  0  0
 11  9  1  0  0  0  0
 11  6  1  0  0  0  0
 12  2  1  0  0  0  0
 12  3  2  0  0  0  0
 13 11  2  0  0  0  0
 14 18  1  0  0  0  0
 15 19  1  0  0  0  0
 16 15  2  0  0  0  0
 16 17  1  0  0  0  0
 17 14  2  0  0  0  0
 19 18  2  0  0  0  0
 20 23  1  0  0  0  0
 21 24  1  0  0  0  0
 22 21  1  0  0  0  0
 23 27  1  0  0  0  0
 25 22  1  0  0  0  0
 26 25  1  0  0  0  0
 26 23  2  0  0  0  0
 27 24  2  0  0  0  0
M  END
>  <MODEL>
2

>  <REMARK>
 VINA RESULT:      -9.0      1.604      2.198
  Name = 
  4 active torsions:
  status: ('A' for Active; 'I' for Inactive)
    1  A    between atoms: C_1  and  C_15
    2  A    between atoms: C_1  and  C_18
    3  A    between atoms: N_2  and  C_15
    4  A    between atoms: C_9  and  C_15
                            x       y       z     vdW  Elec       q    Type
                         _______ _______ _______ _____ _____    ______ ____

>  <TORSDO>
F 4

$$$$
=
 OpenBabel10262420063D

 27 30  0  0  1  0  0  0  0  0999 V2000
  188.0830  177.6420  142.9620 C   0  0  2  0  0  3  0  0  0  0  0  0
  188.4710  177.6120  141.5500 N   0  0  0  0  0  0  0  0  0  0  0  0
  190.1030  175.9740  141.6640 O   0  0  0  0  0  0  0  0  0  0  0  0
  189.2800  178.2230  137.1670 C   0  0  0  0  0  3  0  0  0  0  0  0
  191.0020  176.7660  136.3640 F   0  0  0  0  0  0  0  0  0  0  0  0
  187.9790  178.4130  140.6090 N   0  0  0  0  0  2  0  0  0  0  0  0
  190.3790  176.6360  138.6720 C   0  0  0  0  0  0  0  0  0  0  0  0
  191.2890  175.6570  138.9080 F   0  0  0  0  0  0  0  0  0  0  0  0
  189.5580  177.1220  139.6870 C   0  0  0  0  0  0  0  0  0  0  0  0
  190.2300  177.2000  137.3900 C   0  0  0  0  0  0  0  0  0  0  0  0
  188.6350  178.1130  139.4690 C   0  0  0  0  0  0  0  0  0  0  0  0
  189.4340  176.8260  141.0210 C   0  0  0  0  0  0  0  0  0  0  0  0
  188.4660  178.6940  138.2150 C   0  0  0  0  0  3  0  0  0  0  0  0
  183.9610  178.6770  143.6450 C   0  0  0  0  0  3  0  0  0  0  0  0
  186.6380  177.9930  143.1750 C   0  0  0  0  0  0  0  0  0  0  0  0
  185.7510  178.1610  142.1010 C   0  0  0  0  0  3  0  0  0  0  0  0
  184.4160  178.5010  142.3350 C   0  0  0  0  0  3  0  0  0  0  0  0
  184.8410  178.5150  144.7190 C   0  0  0  0  0  3  0  0  0  0  0  0
  186.1760  178.1750  144.4830 C   0  0  0  0  0  3  0  0  0  0  0  0
  189.0660  178.4310  143.8390 C   0  0  0  0  0  2  0  0  0  0  0  0
  190.5780  176.0800  147.5690 C   0  0  0  0  0  2  0  0  0  0  0  0
  191.8090  176.6540  146.9090 C   0  0  0  0  0  2  0  0  0  0  0  0
  189.7250  177.6140  144.9030 C   0  0  0  0  0  0  0  0  0  0  0  0
  189.3730  176.9320  147.3430 C   0  0  0  0  0  3  0  0  0  0  0  0
  191.7840  176.2160  145.4640 C   0  0  0  0  0  2  0  0  0  0  0  0
  190.9260  177.0940  144.6110 C   0  0  0  0  0  3  0  0  0  0  0  0
  189.0230  177.5480  146.2090 C   0  0  0  0  0  3  0  0  0  0  0  0
  1 15  1  0  0  0  0
  1 20  1  1  0  0  0
  2  1  1  0  0  0  0
  4 10  2  0  0  0  0
  4 13  1  0  0  0  0
  5 10  1  0  0  0  0
  6  2  1  0  0  0  0
  7  8  1  0  0  0  0
  7  9  2  0  0  0  0
  9 12  1  0  0  0  0
 10  7  1  0  0  0  0
 11  9  1  0  0  0  0
 11  6  1  0  0  0  0
 12  2  1  0  0  0  0
 12  3  2  0  0  0  0
 13 11  2  0  0  0  0
 14 18  1  0  0  0  0
 15 19  1  0  0  0  0
 16 17  1  0  0  0  0
 16 15  2  0  0  0  0
 17 14  2  0  0  0  0
 19 18  2  0  0  0  0
 20 23  1  0  0  0  0
 22 21  1  0  0  0  0
 23 27  1  0  0  0  0
 24 21  1  0  0  0  0
 25 22  1  0  0  0  0
 26 23  2  0  0  0  0
 26 25  1  0  0  0  0
 27 24  2  0  0  0  0
M  END
>  <MODEL>
3

>  <REMARK>
 VINA RESULT:      -8.5      1.983      4.549
  Name = 
  4 active torsions:
  status: ('A' for Active; 'I' for Inactive)
    1  A    between atoms: C_1  and  C_15
    2  A    between atoms: C_1  and  C_18
    3  A    between atoms: N_2  and  C_15
    4  A    between atoms: C_9  and  C_15
                            x       y       z     vdW  Elec       q    Type
                         _______ _______ _______ _____ _____    ______ ____

>  <TORSDO>
F 4

$$$$
=
 OpenBabel10262420063D

 27 30  0  0  1  0  0  0  0  0999 V2000
  186.7470  178.0070  143.2540 C   0  0  2  0  0  3  0  0  0  0  0  0
  185.3960  178.1980  142.7230 N   0  0  0  0  0  0  0  0  0  0  0  0
  184.3820  179.0460  144.6230 O   0  0  0  0  0  0  0  0  0  0  0  0
  181.4880  178.3010  140.4960 C   0  0  0  0  0  3  0  0  0  0  0  0
  179.7080  179.1530  141.8520 F   0  0  0  0  0  0  0  0  0  0  0  0
  185.0070  177.8620  141.4960 N   0  0  0  0  0  2  0  0  0  0  0  0
  181.8990  178.9980  142.8060 C   0  0  0  0  0  0  0  0  0  0  0  0
  181.4650  179.4930  143.9930 F   0  0  0  0  0  0  0  0  0  0  0  0
  183.2320  178.6430  142.6130 C   0  0  0  0  0  0  0  0  0  0  0  0
  181.0170  178.8230  141.7230 C   0  0  0  0  0  0  0  0  0  0  0  0
  183.6890  178.1370  141.4230 C   0  0  0  0  0  0  0  0  0  0  0  0
  184.3390  178.6650  143.4220 C   0  0  0  0  0  0  0  0  0  0  0  0
  182.8420  177.9490  140.3340 C   0  0  0  0  0  3  0  0  0  0  0  0
  189.7620  177.5330  140.2180 C   0  0  0  0  0  3  0  0  0  0  0  0
  187.7940  177.8670  142.1860 C   0  0  0  0  0  0  0  0  0  0  0  0
  187.7780  178.6580  141.0270 C   0  0  0  0  0  3  0  0  0  0  0  0
  188.7600  178.4920  140.0470 C   0  0  0  0  0  3  0  0  0  0  0  0
  189.7800  176.7390  141.3690 C   0  0  0  0  0  3  0  0  0  0  0  0
  188.7980  176.9060  142.3490 C   0  0  0  0  0  3  0  0  0  0  0  0
  186.8150  176.9380  144.3550 C   0  0  0  0  0  2  0  0  0  0  0  0
  189.3430  178.1270  148.0870 C   0  0  0  0  0  2  0  0  0  0  0  0
  187.9810  177.7400  148.6100 C   0  0  0  0  0  2  0  0  0  0  0  0
  187.4340  177.4140  145.6300 C   0  0  0  0  0  0  0  0  0  0  0  0
  189.6900  177.3920  146.8340 C   0  0  0  0  0  3  0  0  0  0  0  0
  186.9640  178.5660  147.8570 C   0  0  0  0  0  2  0  0  0  0  0  0
  186.6130  177.9750  146.5300 C   0  0  0  0  0  3  0  0  0  0  0  0
  188.8780  177.1240  145.8060 C   0  0  0  0  0  3  0  0  0  0  0  0
  1 20  1  6  0  0  0
  2  1  1  0  0  0  0
  2 12  1  0  0  0  0
  4 10  1  0  0  0  0
  6  2  1  0  0  0  0
  7  8  1  0  0  0  0
  9  7  1  0  0  0  0
  9 12  1  0  0  0  0
 10  5  1  0  0  0  0
 10  7  2  0  0  0  0
 11  6  1  0  0  0  0
 11  9  2  0  0  0  0
 12  3  2  0  0  0  0
 13  4  2  0  0  0  0
 13 11  1  0  0  0  0
 14 18  1  0  0  0  0
 15 19  1  0  0  0  0
 15  1  1  0  0  0  0
 16 15  2  0  0  0  0
 17 14  2  0  0  0  0
 17 16  1  0  0  0  0
 18 19  2  0  0  0  0
 20 23  1  0  0  0  0
 21 22  1  0  0  0  0
 23 27  1  0  0  0  0
 23 26  2  0  0  0  0
 24 21  1  0  0  0  0
 25 22  1  0  0  0  0
 26 25  1  0  0  0  0
 27 24  2  0  0  0  0
M  END
>  <MODEL>
4

>  <REMARK>
 VINA RESULT:      -8.5      3.728      5.879
  Name = 
  4 active torsions:
  status: ('A' for Active; 'I' for Inactive)
    1  A    between atoms: C_1  and  C_15
    2  A    between atoms: C_1  and  C_18
    3  A    between atoms: N_2  and  C_15
    4  A    between atoms: C_9  and  C_15
                            x       y       z     vdW  Elec       q    Type
                         _______ _______ _______ _____ _____    ______ ____

>  <TORSDO>
F 4

$$$$
=
 OpenBabel10262420063D

 27 30  0  0  1  0  0  0  0  0999 V2000
  187.7710  177.8010  142.7570 C   0  0  2  0  0  3  0  0  0  0  0  0
  186.3420  178.1120  142.6750 N   0  0  0  0  0  0  0  0  0  0  0  0
  185.9650  178.6470  144.8950 O   0  0  0  0  0  0  0  0  0  0  0  0
  181.9850  178.6870  141.7130 C   0  0  0  0  0  3  0  0  0  0  0  0
  180.7220  179.3360  143.6410 F   0  0  0  0  0  0  0  0  0  0  0  0
  185.6020  178.0000  141.5750 N   0  0  0  0  0  2  0  0  0  0  0  0
  183.0750  178.9690  143.8860 C   0  0  0  0  0  0  0  0  0  0  0  0
  183.0280  179.2640  145.2100 F   0  0  0  0  0  0  0  0  0  0  0  0
  184.2710  178.6210  143.2650 C   0  0  0  0  0  0  0  0  0  0  0  0
  181.9150  179.0030  143.0890 C   0  0  0  0  0  0  0  0  0  0  0  0
  184.3400  178.3150  141.9290 C   0  0  0  0  0  0  0  0  0  0  0  0
  185.5600  178.4780  143.7130 C   0  0  0  0  0  0  0  0  0  0  0  0
  183.2110  178.3360  141.1140 C   0  0  0  0  0  3  0  0  0  0  0  0
  189.8040  177.8570  138.9640 C   0  0  0  0  0  3  0  0  0  0  0  0
  188.4680  177.8450  141.4280 C   0  0  0  0  0  0  0  0  0  0  0  0
  187.9850  178.6210  140.3640 C   0  0  0  0  0  3  0  0  0  0  0  0
  188.6510  178.6280  139.1360 C   0  0  0  0  0  3  0  0  0  0  0  0
  190.2880  177.0790  140.0190 C   0  0  0  0  0  3  0  0  0  0  0  0
  189.6210  177.0720  141.2470 C   0  0  0  0  0  3  0  0  0  0  0  0
  188.0660  176.5440  143.5900 C   0  0  0  0  0  2  0  0  0  0  0  0
  191.6810  176.9250  146.5080 C   0  0  0  0  0  2  0  0  0  0  0  0
  190.5020  176.5040  147.3530 C   0  0  0  0  0  2  0  0  0  0  0  0
  189.0740  176.7530  144.6730 C   0  0  0  0  0  0  0  0  0  0  0  0
  191.5730  176.4200  145.1070 C   0  0  0  0  0  3  0  0  0  0  0  0
  189.3920  177.4930  147.0940 C   0  0  0  0  0  2  0  0  0  0  0  0
  188.6110  177.1710  145.8600 C   0  0  0  0  0  3  0  0  0  0  0  0
  190.4730  176.3780  144.3480 C   0  0  0  0  0  3  0  0  0  0  0  0
  1 20  1  6  0  0  0
  2  1  1  0  0  0  0
  2 12  1  0  0  0  0
  4 10  1  0  0  0  0
  6 11  1  0  0  0  0
  6  2  1  0  0  0  0
  7  8  1  0  0  0  0
  9 12  1  0  0  0  0
  9  7  1  0  0  0  0
 10  5  1  0  0  0  0
 10  7  2  0  0  0  0
 11  9  2  0  0  0  0
 12  3  2  0  0  0  0
 13  4  2  0  0  0  0
 13 11  1  0  0  0  0
 14 17  2  0  0  0  0
 14 18  1  0  0  0  0
 15  1  1  0  0  0  0
 16 15  2  0  0  0  0
 17 16  1  0  0  0  0
 18 19  2  0  0  0  0
 19 15  1  0  0  0  0
 20 23  1  0  0  0  0
 21 22  1  0  0  0  0
 23 26  2  0  0  0  0
 24 21  1  0  0  0  0
 25 22  1  0  0  0  0
 26 25  1  0  0  0  0
 27 23  1  0  0  0  0
 27 24  2  0  0  0  0
M  END
>  <MODEL>
5

>  <REMARK>
 VINA RESULT:      -8.4      3.564      6.279
  Name = 
  4 active torsions:
  status: ('A' for Active; 'I' for Inactive)
    1  A    between atoms: C_1  and  C_15
    2  A    between atoms: C_1  and  C_18
    3  A    between atoms: N_2  and  C_15
    4  A    between atoms: C_9  and  C_15
                            x       y       z     vdW  Elec       q    Type
                         _______ _______ _______ _____ _____    ______ ____

>  <TORSDO>
F 4

$$$$
=
 OpenBabel10262420063D

 27 30  0  0  1  0  0  0  0  0999 V2000
  188.4540  177.7530  142.7470 C   0  0  2  0  0  3  0  0  0  0  0  0
  188.7950  177.6360  141.3270 N   0  0  0  0  0  0  0  0  0  0  0  0
  190.4250  176.0000  141.4850 O   0  0  0  0  0  0  0  0  0  0  0  0
  189.4580  177.9800  136.8900 C   0  0  0  0  0  3  0  0  0  0  0  0
  191.1480  176.4700  136.1190 F   0  0  0  0  0  0  0  0  0  0  0  0
  188.2740  178.3820  140.3560 N   0  0  0  0  0  2  0  0  0  0  0  0
  190.6030  176.4810  138.4500 C   0  0  0  0  0  0  0  0  0  0  0  0
  191.5170  175.5140  138.7140 F   0  0  0  0  0  0  0  0  0  0  0  0
  189.8180  177.0300  139.4610 C   0  0  0  0  0  0  0  0  0  0  0  0
  190.4130  176.9680  137.1430 C   0  0  0  0  0  0  0  0  0  0  0  0
  188.8910  178.0110  139.2160 C   0  0  0  0  0  0  0  0  0  0  0  0
  189.7370  176.8160  140.8140 C   0  0  0  0  0  0  0  0  0  0  0  0
  188.6810  178.5170  137.9350 C   0  0  0  0  0  3  0  0  0  0  0  0
  184.3070  178.7320  143.3570 C   0  0  0  0  0  3  0  0  0  0  0  0
  187.0110  178.0950  142.9870 C   0  0  0  0  0  0  0  0  0  0  0  0
  186.3840  177.8340  144.2140 C   0  0  0  0  0  3  0  0  0  0  0  0
  185.0360  178.1530  144.3990 C   0  0  0  0  0  3  0  0  0  0  0  0
  184.9260  178.9910  142.1310 C   0  0  0  0  0  3  0  0  0  0  0  0
  186.2740  178.6720  141.9470 C   0  0  0  0  0  3  0  0  0  0  0  0
  189.4520  178.6120  143.5360 C   0  0  0  0  0  2  0  0  0  0  0  0
  191.3910  176.3900  147.1460 C   0  0  0  0  0  2  0  0  0  0  0  0
  189.8980  176.3130  147.3590 C   0  0  0  0  0  2  0  0  0  0  0  0
  189.9090  177.9940  144.8190 C   0  0  0  0  0  0  0  0  0  0  0  0
  191.7460  176.4470  145.6970 C   0  0  0  0  0  3  0  0  0  0  0  0
  189.3660  177.7250  147.2960 C   0  0  0  0  0  2  0  0  0  0  0  0
  189.1330  178.1900  145.8950 C   0  0  0  0  0  3  0  0  0  0  0  0
  191.1230  177.1460  144.7410 C   0  0  0  0  0  3  0  0  0  0  0  0
  1 15  1  0  0  0  0
  1 20  1  6  0  0  0
  2  1  1  0  0  0  0
  4 10  2  0  0  0  0
  4 13  1  0  0  0  0
  5 10  1  0  0  0  0
  6  2  1  0  0  0  0
  7  8  1  0  0  0  0
  7  9  2  0  0  0  0
  9 12  1  0  0  0  0
 10  7  1  0  0  0  0
 11  9  1  0  0  0  0
 11  6  1  0  0  0  0
 12  2  1  0  0  0  0
 12  3  2  0  0  0  0
 13 11  2  0  0  0  0
 14 17  1  0  0  0  0
 15 16  1  0  0  0  0
 16 17  2  0  0  0  0
 18 14  2  0  0  0  0
 19 18  1  0  0  0  0
 19 15  2  0  0  0  0
 20 23  1  0  0  0  0
 21 22  1  0  0  0  0
 23 26  2  0  0  0  0
 24 21  1  0  0  0  0
 25 22  1  0  0  0  0
 26 25  1  0  0  0  0
 27 23  1  0  0  0  0
 27 24  2  0  0  0  0
M  END
>  <MODEL>
6

>  <REMARK>
 VINA RESULT:      -8.4      2.011      4.354
  Name = 
  4 active torsions:
  status: ('A' for Active; 'I' for Inactive)
    1  A    between atoms: C_1  and  C_15
    2  A    between atoms: C_1  and  C_18
    3  A    between atoms: N_2  and  C_15
    4  A    between atoms: C_9  and  C_15
                            x       y       z     vdW  Elec       q    Type
                         _______ _______ _______ _____ _____    ______ ____

>  <TORSDO>
F 4

$$$$
=
 OpenBabel10262420063D

 27 30  0  0  1  0  0  0  0  0999 V2000
  187.5950  178.0890  142.9690 C   0  0  2  0  0  3  0  0  0  0  0  0
  186.4380  178.4030  142.1280 N   0  0  0  0  0  0  0  0  0  0  0  0
  184.7600  178.0470  143.6820 O   0  0  0  0  0  0  0  0  0  0  0  0
  183.3990  179.2860  138.9310 C   0  0  0  0  0  3  0  0  0  0  0  0
  181.1590  179.1440  139.7630 F   0  0  0  0  0  0  0  0  0  0  0  0
  186.5000  178.7180  140.8370 N   0  0  0  0  0  2  0  0  0  0  0  0
  182.9680  178.7190  141.2720 C   0  0  0  0  0  0  0  0  0  0  0  0
  182.1130  178.4850  142.3000 F   0  0  0  0  0  0  0  0  0  0  0  0
  184.3470  178.6400  141.4450 C   0  0  0  0  0  0  0  0  0  0  0  0
  182.4920  179.0510  139.9900 C   0  0  0  0  0  0  0  0  0  0  0  0
  185.2270  178.8690  140.4180 C   0  0  0  0  0  0  0  0  0  0  0  0
  185.1470  178.3410  142.5190 C   0  0  0  0  0  0  0  0  0  0  0  0
  184.7890  179.1960  139.1370 C   0  0  0  0  0  3  0  0  0  0  0  0
  191.2260  177.3180  140.7890 C   0  0  0  0  0  3  0  0  0  0  0  0
  188.8480  177.8210  142.1850 C   0  0  0  0  0  0  0  0  0  0  0  0
  188.8080  177.2770  140.8920 C   0  0  0  0  0  3  0  0  0  0  0  0
  189.9940  177.0270  140.1960 C   0  0  0  0  0  3  0  0  0  0  0  0
  191.2710  177.8570  142.0780 C   0  0  0  0  0  3  0  0  0  0  0  0
  190.0840  178.1060  142.7730 C   0  0  0  0  0  3  0  0  0  0  0  0
  187.2860  177.0450  144.0520 C   0  0  0  0  0  2  0  0  0  0  0  0
  189.2560  177.9850  148.1710 C   0  0  0  0  0  2  0  0  0  0  0  0
  187.8200  177.6210  148.4660 C   0  0  0  0  0  2  0  0  0  0  0  0
  187.7190  177.4440  145.4260 C   0  0  0  0  0  0  0  0  0  0  0  0
  189.7670  177.2940  146.9500 C   0  0  0  0  0  3  0  0  0  0  0  0
  186.9500  178.5120  147.6120 C   0  0  0  0  0  2  0  0  0  0  0  0
  186.7870  177.9920  146.2200 C   0  0  0  0  0  3  0  0  0  0  0  0
  189.1120  177.0980  145.8010 C   0  0  0  0  0  3  0  0  0  0  0  0
  1 20  1  6  0  0  0
  2 12  1  0  0  0  0
  2  1  1  0  0  0  0
  4 13  2  0  0  0  0
  4 10  1  0  0  0  0
  5 10  1  0  0  0  0
  6  2  1  0  0  0  0
  7  9  1  0  0  0  0
  7  8  1  0  0  0  0
  9 12  1  0  0  0  0
 10  7  2  0  0  0  0
 11  6  1  0  0  0  0
 11  9  2  0  0  0  0
 12  3  2  0  0  0  0
 13 11  1  0  0  0  0
 14 18  1  0  0  0  0
 15 19  1  0  0  0  0
 15  1  1  0  0  0  0
 16 15  2  0  0  0  0
 17 14  2  0  0  0  0
 17 16  1  0  0  0  0
 18 19  2  0  0  0  0
 20 23  1  0  0  0  0
 21 22  1  0  0  0  0
 23 27  1  0  0  0  0
 23 26  2  0  0  0  0
 24 21  1  0  0  0  0
 25 22  1  0  0  0  0
 26 25  1  0  0  0  0
 27 24  2  0  0  0  0
M  END
>  <MODEL>
7

>  <REMARK>
 VINA RESULT:      -8.2      3.124      4.733
  Name = 
  4 active torsions:
  status: ('A' for Active; 'I' for Inactive)
    1  A    between atoms: C_1  and  C_15
    2  A    between atoms: C_1  and  C_18
    3  A    between atoms: N_2  and  C_15
    4  A    between atoms: C_9  and  C_15
                            x       y       z     vdW  Elec       q    Type
                         _______ _______ _______ _____ _____    ______ ____

>  <TORSDO>
F 4

$$$$
=
 OpenBabel10262420063D

 27 30  0  0  1  0  0  0  0  0999 V2000
  186.7470  177.8320  143.0520 C   0  0  2  0  0  3  0  0  0  0  0  0
  185.5580  178.1540  142.2610 N   0  0  0  0  0  0  0  0  0  0  0  0
  186.6010  178.8210  140.3050 O   0  0  0  0  0  0  0  0  0  0  0  0
  181.5200  179.1350  140.5350 C   0  0  0  0  0  3  0  0  0  0  0  0
  181.6820  179.9630  138.2950 F   0  0  0  0  0  0  0  0  0  0  0  0
  184.3070  178.0930  142.7090 N   0  0  0  0  0  2  0  0  0  0  0  0
  183.6970  179.3630  139.4400 C   0  0  0  0  0  0  0  0  0  0  0  0
  184.4590  179.7050  138.3710 F   0  0  0  0  0  0  0  0  0  0  0  0
  184.2710  178.8730  140.6110 C   0  0  0  0  0  0  0  0  0  0  0  0
  182.2950  179.4920  139.4080 C   0  0  0  0  0  0  0  0  0  0  0  0
  183.5180  178.5260  141.7040 C   0  0  0  0  0  0  0  0  0  0  0  0
  185.5650  178.6300  140.9960 C   0  0  0  0  0  0  0  0  0  0  0  0
  182.1310  178.6440  141.7060 C   0  0  0  0  0  3  0  0  0  0  0  0
  186.2890  178.4510  147.2870 C   0  0  0  0  0  3  0  0  0  0  0  0
  186.5620  178.0590  144.5260 C   0  0  0  0  0  0  0  0  0  0  0  0
  185.6460  178.9990  145.0200 C   0  0  0  0  0  3  0  0  0  0  0  0
  185.5090  179.1940  146.3970 C   0  0  0  0  0  3  0  0  0  0  0  0
  187.2050  177.5150  146.8000 C   0  0  0  0  0  3  0  0  0  0  0  0
  187.3420  177.3210  145.4230 C   0  0  0  0  0  3  0  0  0  0  0  0
  188.0360  178.4330  142.4730 C   0  0  0  0  0  2  0  0  0  0  0  0
  191.6640  175.8370  143.8240 C   0  0  0  0  0  2  0  0  0  0  0  0
  191.4670  176.8760  144.9020 C   0  0  0  0  0  2  0  0  0  0  0  0
  189.2890  177.7960  142.9810 C   0  0  0  0  0  0  0  0  0  0  0  0
  190.3820  175.4890  143.1420 C   0  0  0  0  0  3  0  0  0  0  0  0
  191.4730  178.2260  144.2260 C   0  0  0  0  0  2  0  0  0  0  0  0
  190.1420  178.5860  143.6480 C   0  0  0  0  0  3  0  0  0  0  0  0
  189.4090  176.3320  142.7770 C   0  0  0  0  0  3  0  0  0  0  0  0
  1 20  1  6  0  0  0
  1 15  1  0  0  0  0
  2  6  1  0  0  0  0
  2  1  1  0  0  0  0
  3 12  2  0  0  0  0
  4 13  1  0  0  0  0
  5 10  1  0  0  0  0
  7  9  2  0  0  0  0
  8  7  1  0  0  0  0
  9 12  1  0  0  0  0
  9 11  1  0  0  0  0
 10  7  1  0  0  0  0
 10  4  2  0  0  0  0
 11 13  2  0  0  0  0
 11  6  1  0  0  0  0
 12  2  1  0  0  0  0
 15 16  2  0  0  0  0
 15 19  1  0  0  0  0
 16 17  1  0  0  0  0
 17 14  2  0  0  0  0
 18 14  1  0  0  0  0
 19 18  2  0  0  0  0
 20 23  1  0  0  0  0
 21 22  1  0  0  0  0
 23 26  2  0  0  0  0
 24 21  1  0  0  0  0
 25 22  1  0  0  0  0
 26 25  1  0  0  0  0
 27 23  1  0  0  0  0
 27 24  2  0  0  0  0
M  END
>  <MODEL>
8

>  <REMARK>
 VINA RESULT:      -8.1      3.021      5.745
  Name = 
  4 active torsions:
  status: ('A' for Active; 'I' for Inactive)
    1  A    between atoms: C_1  and  C_15
    2  A    between atoms: C_1  and  C_18
    3  A    between atoms: N_2  and  C_15
    4  A    between atoms: C_9  and  C_15
                            x       y       z     vdW  Elec       q    Type
                         _______ _______ _______ _____ _____    ______ ____

>  <TORSDO>
F 4

$$$$
=
 OpenBabel10262420063D

 27 30  0  0  1  0  0  0  0  0999 V2000
  188.2930  177.6040  141.8860 C   0  0  2  0  0  3  0  0  0  0  0  0
  187.0800  177.8560  142.6660 N   0  0  0  0  0  0  0  0  0  0  0  0
  185.6060  178.2370  140.9230 O   0  0  0  0  0  0  0  0  0  0  0  0
  183.8580  178.7260  145.6840 C   0  0  0  0  0  3  0  0  0  0  0  0
  181.7710  179.2550  144.6370 F   0  0  0  0  0  0  0  0  0  0  0  0
  187.0240  177.8910  143.9950 N   0  0  0  0  0  2  0  0  0  0  0  0
  183.6520  178.7490  143.2450 C   0  0  0  0  0  0  0  0  0  0  0  0
  182.9220  178.9280  142.1160 F   0  0  0  0  0  0  0  0  0  0  0  0
  184.9980  178.3960  143.1880 C   0  0  0  0  0  0  0  0  0  0  0  0
  183.0780  178.9130  144.5200 C   0  0  0  0  0  0  0  0  0  0  0  0
  185.7550  178.2130  144.3180 C   0  0  0  0  0  0  0  0  0  0  0  0
  185.8690  178.1660  142.1530 C   0  0  0  0  0  0  0  0  0  0  0  0
  185.2180  178.3710  145.5930 C   0  0  0  0  0  3  0  0  0  0  0  0
  191.7590  176.9590  144.3550 C   0  0  0  0  0  3  0  0  0  0  0  0
  189.5070  177.3550  142.7340 C   0  0  0  0  0  0  0  0  0  0  0  0
  190.0170  176.0630  142.9340 C   0  0  0  0  0  3  0  0  0  0  0  0
  191.1410  175.8660  143.7410 C   0  0  0  0  0  3  0  0  0  0  0  0
  191.2530  178.2470  144.1620 C   0  0  0  0  0  3  0  0  0  0  0  0
  190.1290  178.4440  143.3550 C   0  0  0  0  0  3  0  0  0  0  0  0
  188.5040  178.6230  140.7560 C   0  0  0  0  0  2  0  0  0  0  0  0
  190.2180  176.5980  136.9240 C   0  0  0  0  0  2  0  0  0  0  0  0
  189.3340  177.7250  136.4430 C   0  0  0  0  0  2  0  0  0  0  0  0
  188.8470  178.0100  139.4370 C   0  0  0  0  0  0  0  0  0  0  0  0
  190.8220  176.8920  138.2570 C   0  0  0  0  0  3  0  0  0  0  0  0
  187.9810  177.5340  137.0850 C   0  0  0  0  0  2  0  0  0  0  0  0
  187.9200  178.0890  138.4720 C   0  0  0  0  0  3  0  0  0  0  0  0
  190.2210  177.4650  139.3050 C   0  0  0  0  0  3  0  0  0  0  0  0
  1 20  1  6  0  0  0
  1  2  1  0  0  0  0
  1 15  1  0  0  0  0
  2  6  1  0  0  0  0
  3 12  2  0  0  0  0
  6 11  1  0  0  0  0
  7 10  1  0  0  0  0
  8  7  1  0  0  0  0
  9  7  2  0  0  0  0
  9 11  1  0  0  0  0
 10  5  1  0  0  0  0
 10  4  2  0  0  0  0
 11 13  2  0  0  0  0
 12  2  1  0  0  0  0
 12  9  1  0  0  0  0
 13  4  1  0  0  0  0
 15 16  2  0  0  0  0
 15 19  1  0  0  0  0
 16 17  1  0  0  0  0
 17 14  2  0  0  0  0
 18 14  1  0  0  0  0
 19 18  2  0  0  0  0
 21 24  1  0  0  0  0
 22 21  1  0  0  0  0
 22 25  1  0  0  0  0
 23 20  1  0  0  0  0
 24 27  2  0  0  0  0
 25 26  1  0  0  0  0
 26 23  2  0  0  0  0
 27 23  1  0  0  0  0
M  END
>  <MODEL>
9

>  <REMARK>
 VINA RESULT:      -8.0      2.497      6.617
  Name = 
  4 active torsions:
  status: ('A' for Active; 'I' for Inactive)
    1  A    between atoms: C_1  and  C_15
    2  A    between atoms: C_1  and  C_18
    3  A    between atoms: N_2  and  C_15
    4  A    between atoms: C_9  and  C_15
                            x       y       z     vdW  Elec       q    Type
                         _______ _______ _______ _____ _____    ______ ____

>  <TORSDO>
F 4

$$$$
