=
 OpenBabel10262423383D

 34 40  0  0  1  0  0  0  0  0999 V2000
  187.4150  177.9740  144.9590 C   0  0  2  0  0  3  0  0  0  0  0  0
  191.8530  177.8440  141.8250 C   0  0  0  0  0  2  0  0  0  0  0  0
  189.8900  175.9650  138.0160 C   0  0  2  0  0  3  0  0  0  0  0  0
  189.5600  177.2020  143.1420 C   0  0  1  0  0  0  0  0  0  0  0  0
  186.6760  177.8430  146.1340 O   0  0  0  0  0  1  0  0  0  0  0  0
  187.3310  176.6750  144.1590 C   0  0  0  0  0  2  0  0  0  0  0  0
  188.8680  178.2920  145.3070 C   0  0  0  0  0  2  0  0  0  0  0  0
  189.6940  178.4630  144.0360 C   0  0  1  0  0  3  0  0  0  0  0  0
  191.4430  176.2830  140.0270 C   0  0  2  0  0  3  0  0  0  0  0  0
  191.0080  178.7970  144.3670 O   0  0  0  0  0  1  0  0  0  0  0  0
  190.5860  176.0510  143.1730 C   0  0  0  0  0  0  0  0  0  0  0  0
  188.1080  176.7990  142.8520 C   0  0  0  0  0  2  0  0  0  0  0  0
  191.7220  176.1430  144.1860 C   0  0  0  0  0  1  0  0  0  0  0  0
  190.0570  174.6460  142.9040 C   0  0  0  0  0  1  0  0  0  0  0  0
  192.3780  177.4090  140.4720 C   0  0  0  0  0  2  0  0  0  0  0  0
  188.9690  177.0580  138.5850 C   0  0  2  0  0  3  0  0  0  0  0  0
  189.3280  174.7100  138.2500 O   0  0  0  0  0  1  0  0  0  0  0  0
  189.7180  178.3060  139.0360 C   0  0  0  0  0  2  0  0  0  0  0  0
  191.3390  175.9870  138.5170 C   0  0  2  0  0  3  0  0  0  0  0  0
  190.5680  177.0460  141.9840 C   0  0  2  0  0  0  0  0  0  0  0  0
  189.1630  177.3340  140.0760 C   0  0  2  0  0  3  0  0  0  0  0  0
  190.1530  176.4300  140.7230 N   0  0  1  0  0  0  0  0  0  0  0  0
  192.2150  176.8810  137.6430 C   0  0  0  0  0  2  0  0  0  0  0  0
  194.0330  176.7960  136.1530 C   0  0  0  0  0  2  0  0  0  0  0  0
  193.5130  176.2540  137.4260 N   0  0  0  0  0  0  0  0  0  0  0  0
  192.2940  175.2970  135.4930 O   0  0  0  0  0  1  0  0  0  0  0  0
  193.5010  175.4460  136.1880 C   0  0  1  0  0  0  0  0  0  0  0  0
  194.4930  174.4530  136.0760 O   0  0  0  0  0  0  0  0  0  0  0  0
  195.0410  173.1340  138.1370 C   0  0  0  0  0  2  0  0  0  0  0  0
  195.7110  170.8210  137.4290 C   0  0  0  0  0  2  0  0  0  0  0  0
  194.1840  173.3340  136.8840 C   0  0  2  0  0  3  0  0  0  0  0  0
  193.5560  171.8300  136.0380 S   0  0  0  0  0  0  0  0  0  0  0  0
  195.1510  170.9490  136.0250 C   0  0  0  0  0  2  0  0  0  0  0  0
  196.2030  172.1770  137.9100 C   0  0  0  0  0  2  0  0  0  0  0  0
  1  7  1  0  0  0  0
  1  5  1  1  0  0  0
  3 17  1  1  0  0  0
  3 19  1  0  0  0  0
  3 16  1  0  0  0  0
  4 12  1  6  0  0  0
  4 11  1  0  0  0  0
  4  8  1  0  0  0  0
  6  1  1  0  0  0  0
  8 10  1  1  0  0  0
  8  7  1  0  0  0  0
  9 15  1  6  0  0  0
  9 22  1  0  0  0  0
 11 13  1  0  0  0  0
 12  6  1  0  0  0  0
 14 11  1  0  0  0  0
 15  2  1  0  0  0  0
 16 18  1  6  0  0  0
 16 21  1  0  0  0  0
 19 23  1  6  0  0  0
 19  9  1  0  0  0  0
 20  2  1  6  0  0  0
 20  4  1  0  0  0  0
 20 11  1  0  0  0  0
 21 18  1  6  0  0  0
 21 22  1  0  0  0  0
 22 20  1  0  0  0  0
 24 27  1  0  0  0  0
 24 25  1  0  0  0  0
 25 23  1  0  0  0  0
 26 27  1  0  0  0  0
 27 25  1  0  0  0  0
 28 27  1  0  0  0  0
 28 31  1  0  0  0  0
 30 34  1  0  0  0  0
 31 29  1  0  0  0  0
 32 31  1  0  0  0  0
 33 32  1  0  0  0  0
 33 30  1  0  0  0  0
 34 29  1  0  0  0  0
M  END
>  <MODEL>
1

>  <REMARK>
 VINA RESULT:      -5.5      0.000      0.000
  Name = 
  4 active torsions:
  status: ('A' for Active; 'I' for Inactive)
    1  A    between atoms: C_3  and  N_18
    2  A    between atoms: C_3  and  C_31
    3  A    between atoms: C_14  and  O_16
    4  A    between atoms: O_16  and  C_28
                            x       y       z     vdW  Elec       q    Type
                         _______ _______ _______ _____ _____    ______ ____

>  <TORSDO>
F 4

$$$$
=
 OpenBabel10262423383D

 34 40  0  0  1  0  0  0  0  0999 V2000
  181.8770  176.3270  137.6940 C   0  0  2  0  0  3  0  0  0  0  0  0
  187.0550  174.7490  137.2120 C   0  0  0  0  0  2  0  0  0  0  0  0
  189.0670  178.8760  138.1140 C   0  0  2  0  0  3  0  0  0  0  0  0
  184.7040  176.1050  137.0180 C   0  0  1  0  0  0  0  0  0  0  0  0
  180.5240  176.3870  137.3670 O   0  0  0  0  0  1  0  0  0  0  0  0
  182.6130  177.4860  137.0230 C   0  0  0  0  0  2  0  0  0  0  0  0
  182.4530  174.9910  137.2320 C   0  0  0  0  0  2  0  0  0  0  0  0
  183.9310  174.8930  137.5990 C   0  0  1  0  0  3  0  0  0  0  0  0
  188.4040  176.7280  136.8890 C   0  0  2  0  0  3  0  0  0  0  0  0
  184.4330  173.6500  137.2110 O   0  0  0  0  0  1  0  0  0  0  0  0
  185.4500  176.0440  135.6690 C   0  0  0  0  0  0  0  0  0  0  0  0
  184.0940  177.4640  137.3860 C   0  0  0  0  0  2  0  0  0  0  0  0
  185.3400  174.7570  134.8580 C   0  0  0  0  0  1  0  0  0  0  0  0
  185.5110  177.3330  134.8540 C   0  0  0  0  0  1  0  0  0  0  0  0
  188.4880  175.2410  137.2420 C   0  0  0  0  0  2  0  0  0  0  0  0
  187.9250  178.6300  139.1140 C   0  0  2  0  0  3  0  0  0  0  0  0
  188.6970  179.8760  137.2150 O   0  0  0  0  0  1  0  0  0  0  0  0
  187.8750  177.2000  139.6360 C   0  0  0  0  0  2  0  0  0  0  0  0
  189.5580  177.6430  137.3460 C   0  0  2  0  0  3  0  0  0  0  0  0
  186.2450  176.0190  136.9990 C   0  0  2  0  0  0  0  0  0  0  0  0
  186.8430  177.6730  138.6130 C   0  0  2  0  0  3  0  0  0  0  0  0
  187.0530  177.2200  137.2110 N   0  0  1  0  0  0  0  0  0  0  0  0
  190.6650  176.9200  138.1070 C   0  0  0  0  0  2  0  0  0  0  0  0
  192.3920  177.1290  139.6910 C   0  0  0  0  0  2  0  0  0  0  0  0
  191.1360  177.7450  139.2130 N   0  0  0  0  0  0  0  0  0  0  0  0
  190.6780  175.6520  140.4590 O   0  0  0  0  0  1  0  0  0  0  0  0
  191.1770  176.9620  140.4670 C   0  0  1  0  0  0  0  0  0  0  0  0
  191.1760  177.6970  141.6670 O   0  0  0  0  0  0  0  0  0  0  0  0
  189.3150  176.3820  142.7120 C   0  0  0  0  0  2  0  0  0  0  0  0
  188.7810  177.4160  144.9360 C   0  0  0  0  0  2  0  0  0  0  0  0
  190.7570  176.8940  142.7540 C   0  0  2  0  0  3  0  0  0  0  0  0
  191.4800  177.2600  144.4010 S   0  0  0  0  0  0  0  0  0  0  0  0
  190.0610  178.2260  145.0120 C   0  0  0  0  0  2  0  0  0  0  0  0
  188.3510  177.2720  143.4850 C   0  0  0  0  0  2  0  0  0  0  0  0
  1  5  1  6  0  0  0
  2 15  1  0  0  0  0
  3 17  1  6  0  0  0
  3 16  1  0  0  0  0
  4 12  1  1  0  0  0
  4  8  1  0  0  0  0
  6 12  1  0  0  0  0
  6  1  1  0  0  0  0
  7  8  1  0  0  0  0
  7  1  1  0  0  0  0
  8 10  1  6  0  0  0
  9 22  1  0  0  0  0
  9 15  1  1  0  0  0
  9 19  1  0  0  0  0
 11 20  1  0  0  0  0
 11  4  1  0  0  0  0
 13 11  1  0  0  0  0
 14 11  1  0  0  0  0
 16 18  1  1  0  0  0
 19 23  1  1  0  0  0
 19  3  1  0  0  0  0
 20  4  1  0  0  0  0
 20 22  1  0  0  0  0
 20  2  1  1  0  0  0
 21 16  1  0  0  0  0
 21 18  1  1  0  0  0
 22 21  1  0  0  0  0
 23 25  1  0  0  0  0
 24 27  1  0  0  0  0
 25 24  1  0  0  0  0
 25 27  1  0  0  0  0
 26 27  1  0  0  0  0
 27 28  1  0  0  0  0
 28 31  1  0  0  0  0
 29 31  1  0  0  0  0
 29 34  1  0  0  0  0
 30 33  1  0  0  0  0
 31 32  1  0  0  0  0
 32 33  1  0  0  0  0
 34 30  1  0  0  0  0
M  END
>  <MODEL>
2

>  <REMARK>
 VINA RESULT:      -5.2      4.314      7.739
  Name = 
  4 active torsions:
  status: ('A' for Active; 'I' for Inactive)
    1  A    between atoms: C_3  and  N_18
    2  A    between atoms: C_3  and  C_31
    3  A    between atoms: C_14  and  O_16
    4  A    between atoms: O_16  and  C_28
                            x       y       z     vdW  Elec       q    Type
                         _______ _______ _______ _____ _____    ______ ____

>  <TORSDO>
F 4

$$$$
=
 OpenBabel10262423383D

 34 40  0  0  1  0  0  0  0  0999 V2000
  181.9030  178.9520  140.5380 C   0  0  2  0  0  3  0  0  0  0  0  0
  184.0660  174.9820  137.5220 C   0  0  0  0  0  2  0  0  0  0  0  0
  187.3220  177.5380  135.3420 C   0  0  2  0  0  3  0  0  0  0  0  0
  183.0000  177.3360  138.3740 C   0  0  1  0  0  0  0  0  0  0  0  0
  180.8860  179.6830  141.1480 O   0  0  0  0  0  1  0  0  0  0  0  0
  182.2410  179.5820  139.1880 C   0  0  0  0  0  2  0  0  0  0  0  0
  181.4480  177.5060  140.3530 C   0  0  0  0  0  2  0  0  0  0  0  0
  182.5550  176.6790  139.7060 C   0  0  1  0  0  3  0  0  0  0  0  0
  185.3010  176.0130  135.7190 C   0  0  2  0  0  3  0  0  0  0  0  0
  182.1430  175.3520  139.5840 O   0  0  0  0  0  1  0  0  0  0  0  0
  182.4320  176.9060  137.0060 C   0  0  0  0  0  0  0  0  0  0  0  0
  183.3740  178.8190  138.5090 C   0  0  0  0  0  2  0  0  0  0  0  0
  181.3350  175.8470  136.9980 C   0  0  0  0  0  1  0  0  0  0  0  0
  182.3120  177.9870  135.9360 C   0  0  0  0  0  1  0  0  0  0  0  0
  185.1010  174.6870  136.4560 C   0  0  0  0  0  2  0  0  0  0  0  0
  187.2960  177.9030  136.8360 C   0  0  2  0  0  3  0  0  0  0  0  0
  186.7870  178.5880  134.5940 O   0  0  0  0  0  1  0  0  0  0  0  0
  187.1600  176.6940  137.7520 C   0  0  0  0  0  2  0  0  0  0  0  0
  186.6290  176.2250  134.9640 C   0  0  2  0  0  3  0  0  0  0  0  0
  183.8660  176.4870  137.4200 C   0  0  2  0  0  0  0  0  0  0  0  0
  185.9650  177.6190  137.5320 C   0  0  2  0  0  3  0  0  0  0  0  0
  184.9080  177.1190  136.6100 N   0  0  1  0  0  0  0  0  0  0  0  0
  187.5920  175.0440  135.0500 C   0  0  0  0  0  2  0  0  0  0  0  0
  189.7950  174.3100  134.6760 C   0  0  0  0  0  2  0  0  0  0  0  0
  188.9680  175.5090  134.9290 N   0  0  0  0  0  0  0  0  0  0  0  0
  189.2020  174.1460  136.9850 O   0  0  0  0  0  1  0  0  0  0  0  0
  189.8120  174.9230  135.9910 C   0  0  1  0  0  0  0  0  0  0  0  0
  191.0170  175.5940  136.2790 O   0  0  0  0  0  0  0  0  0  0  0  0
  192.7780  173.9390  136.9450 C   0  0  0  0  0  2  0  0  0  0  0  0
  195.0230  175.0150  136.6230 C   0  0  0  0  0  2  0  0  0  0  0  0
  192.1340  174.8250  135.8750 C   0  0  2  0  0  3  0  0  0  0  0  0
  193.2340  175.5440  134.5940 S   0  0  0  0  0  0  0  0  0  0  0  0
  194.5000  176.1460  135.7570 C   0  0  0  0  0  2  0  0  0  0  0  0
  193.9610  174.6100  137.6320 C   0  0  0  0  0  2  0  0  0  0  0  0
  1  5  1  6  0  0  0
  3 17  1  6  0  0  0
  3 16  1  0  0  0  0
  4 12  1  1  0  0  0
  4  8  1  0  0  0  0
  6  1  1  0  0  0  0
  7  1  1  0  0  0  0
  8 10  1  6  0  0  0
  8  7  1  0  0  0  0
  9 15  1  1  0  0  0
  9 22  1  0  0  0  0
 11 20  1  0  0  0  0
 11  4  1  0  0  0  0
 12  6  1  0  0  0  0
 13 11  1  0  0  0  0
 14 11  1  0  0  0  0
 15  2  1  0  0  0  0
 16 21  1  0  0  0  0
 16 18  1  1  0  0  0
 19 23  1  1  0  0  0
 19  3  1  0  0  0  0
 19  9  1  0  0  0  0
 20  2  1  1  0  0  0
 20  4  1  0  0  0  0
 21 18  1  1  0  0  0
 22 20  1  0  0  0  0
 22 21  1  0  0  0  0
 24 25  1  0  0  0  0
 24 27  1  0  0  0  0
 25 23  1  0  0  0  0
 25 27  1  0  0  0  0
 27 28  1  0  0  0  0
 27 26  1  0  0  0  0
 29 34  1  0  0  0  0
 30 34  1  0  0  0  0
 31 28  1  0  0  0  0
 31 29  1  0  0  0  0
 32 33  1  0  0  0  0
 32 31  1  0  0  0  0
 33 30  1  0  0  0  0
M  END
>  <MODEL>
3

>  <REMARK>
 VINA RESULT:      -5.2      5.049      6.857
  Name = 
  4 active torsions:
  status: ('A' for Active; 'I' for Inactive)
    1  A    between atoms: C_3  and  N_18
    2  A    between atoms: C_3  and  C_31
    3  A    between atoms: C_14  and  O_16
    4  A    between atoms: O_16  and  C_28
                            x       y       z     vdW  Elec       q    Type
                         _______ _______ _______ _____ _____    ______ ____

>  <TORSDO>
F 4

$$$$
=
 OpenBabel10262423383D

 34 40  0  0  1  0  0  0  0  0999 V2000
  180.8190  179.7300  137.2700 C   0  0  2  0  0  3  0  0  0  0  0  0
  185.8870  178.3240  138.6370 C   0  0  0  0  0  2  0  0  0  0  0  0
  186.6260  175.2060  135.2270 C   0  0  2  0  0  3  0  0  0  0  0  0
  183.2660  178.2800  137.9060 C   0  0  1  0  0  0  0  0  0  0  0  0
  179.4840  180.0670  137.4870 O   0  0  0  0  0  1  0  0  0  0  0  0
  180.9270  178.2290  137.0080 C   0  0  0  0  0  2  0  0  0  0  0  0
  181.6450  180.1180  138.4940 C   0  0  0  0  0  2  0  0  0  0  0  0
  183.1160  179.7790  138.2730 C   0  0  1  0  0  3  0  0  0  0  0  0
  186.3820  176.2130  137.5680 C   0  0  2  0  0  3  0  0  0  0  0  0
  183.8650  180.1800  139.3790 O   0  0  0  0  0  1  0  0  0  0  0  0
  183.5920  177.1980  138.9560 C   0  0  0  0  0  0  0  0  0  0  0  0
  182.3760  177.8350  136.7380 C   0  0  0  0  0  2  0  0  0  0  0  0
  183.6850  177.6340  140.4150 C   0  0  0  0  0  1  0  0  0  0  0  0
  183.0080  175.8080  138.7210 C   0  0  0  0  0  1  0  0  0  0  0  0
  187.0340  177.4000  138.2810 C   0  0  0  0  0  2  0  0  0  0  0  0
  185.9440  176.4550  134.6440 C   0  0  2  0  0  3  0  0  0  0  0  0
  185.7210  174.1440  135.2480 O   0  0  0  0  0  1  0  0  0  0  0  0
  186.5030  177.7610  135.1930 C   0  0  0  0  0  2  0  0  0  0  0  0
  187.2580  175.3760  136.6130 C   0  0  2  0  0  3  0  0  0  0  0  0
  184.6850  177.6750  137.9660 C   0  0  2  0  0  0  0  0  0  0  0  0
  185.1360  177.2640  135.6580 C   0  0  2  0  0  3  0  0  0  0  0  0
  185.0880  176.6430  137.0110 N   0  0  1  0  0  0  0  0  0  0  0  0
  188.7030  175.8560  136.5090 C   0  0  0  0  0  2  0  0  0  0  0  0
  190.5060  176.1320  137.9950 C   0  0  0  0  0  2  0  0  0  0  0  0
  189.5370  175.1450  137.4710 N   0  0  0  0  0  0  0  0  0  0  0  0
  191.2660  175.6750  135.7760 O   0  0  0  0  0  1  0  0  0  0  0  0
  190.9490  175.1400  137.0320 C   0  0  1  0  0  0  0  0  0  0  0  0
  191.7780  174.1500  137.5930 O   0  0  0  0  0  0  0  0  0  0  0  0
  193.2490  172.9270  135.9730 C   0  0  0  0  0  2  0  0  0  0  0  0
  195.3150  172.1920  137.1950 C   0  0  0  0  0  2  0  0  0  0  0  0
  193.0270  174.1000  136.9320 C   0  0  2  0  0  3  0  0  0  0  0  0
  194.4880  174.7410  137.8400 S   0  0  0  0  0  0  0  0  0  0  0  0
  195.0960  173.1110  138.3820 C   0  0  0  0  0  2  0  0  0  0  0  0
  193.9730  171.7580  136.6290 C   0  0  0  0  0  2  0  0  0  0  0  0
  1  5  1  1  0  0  0
  1  7  1  0  0  0  0
  3 17  1  1  0  0  0
  3 19  1  0  0  0  0
  4 12  1  6  0  0  0
  4 20  1  0  0  0  0
  4  8  1  0  0  0  0
  4 11  1  0  0  0  0
  6  1  1  0  0  0  0
  8  7  1  0  0  0  0
  8 10  1  1  0  0  0
  9 15  1  6  0  0  0
 11 13  1  0  0  0  0
 12  6  1  0  0  0  0
 14 11  1  0  0  0  0
 15  2  1  0  0  0  0
 16 18  1  1  0  0  0
 16  3  1  0  0  0  0
 16 21  1  0  0  0  0
 19 23  1  6  0  0  0
 19  9  1  0  0  0  0
 20  2  1  1  0  0  0
 20 11  1  0  0  0  0
 21 18  1  1  0  0  0
 21 22  1  0  0  0  0
 22  9  1  0  0  0  0
 22 20  1  0  0  0  0
 23 25  1  0  0  0  0
 25 24  1  0  0  0  0
 26 27  1  0  0  0  0
 27 25  1  0  0  0  0
 27 28  1  0  0  0  0
 27 24  1  0  0  0  0
 29 34  1  0  0  0  0
 29 31  1  0  0  0  0
 30 33  1  0  0  0  0
 31 28  1  0  0  0  0
 31 32  1  0  0  0  0
 32 33  1  0  0  0  0
 34 30  1  0  0  0  0
M  END
>  <MODEL>
4

>  <REMARK>
 VINA RESULT:      -5.1      5.012      6.427
  Name = 
  4 active torsions:
  status: ('A' for Active; 'I' for Inactive)
    1  A    between atoms: C_3  and  N_18
    2  A    between atoms: C_3  and  C_31
    3  A    between atoms: C_14  and  O_16
    4  A    between atoms: O_16  and  C_28
                            x       y       z     vdW  Elec       q    Type
                         _______ _______ _______ _____ _____    ______ ____

>  <TORSDO>
F 4

$$$$
=
 OpenBabel10262423383D

 34 40  0  0  1  0  0  0  0  0999 V2000
  179.3860  177.1450  136.1090 C   0  0  2  0  0  3  0  0  0  0  0  0
  183.0480  177.1890  140.1240 C   0  0  0  0  0  2  0  0  0  0  0  0
  180.5500  179.6260  143.2400 C   0  0  2  0  0  3  0  0  0  0  0  0
  181.1720  177.9000  138.2860 C   0  0  1  0  0  0  0  0  0  0  0  0
  178.9310  177.2210  134.7940 O   0  0  0  0  0  1  0  0  0  0  0  0
  179.2810  178.5220  136.7630 C   0  0  0  0  0  2  0  0  0  0  0  0
  180.8340  176.6600  136.1180 C   0  0  0  0  0  2  0  0  0  0  0  0
  181.3490  176.5470  137.5490 C   0  0  1  0  0  3  0  0  0  0  0  0
  182.4460  178.9600  141.6540 C   0  0  2  0  0  3  0  0  0  0  0  0
  182.6560  176.0600  137.5440 O   0  0  0  0  0  1  0  0  0  0  0  0
  182.3040  178.9420  138.3890 C   0  0  0  0  0  0  0  0  0  0  0  0
  179.7460  178.4630  138.2150 C   0  0  0  0  0  2  0  0  0  0  0  0
  183.6110  178.6410  137.6620 C   0  0  0  0  0  1  0  0  0  0  0  0
  181.8910  180.4100  138.4190 C   0  0  0  0  0  1  0  0  0  0  0  0
  183.3210  177.7120  141.5200 C   0  0  0  0  0  2  0  0  0  0  0  0
  179.6520  178.5700  142.5730 C   0  0  2  0  0  3  0  0  0  0  0  0
  180.1950  180.8970  142.7870 O   0  0  0  0  0  1  0  0  0  0  0  0
  180.3340  177.2180  142.4010 C   0  0  0  0  0  2  0  0  0  0  0  0
  182.0600  179.4190  143.0750 C   0  0  2  0  0  3  0  0  0  0  0  0
  181.9230  178.0820  139.6210 C   0  0  2  0  0  0  0  0  0  0  0  0
  180.1240  178.1240  141.1900 C   0  0  2  0  0  3  0  0  0  0  0  0
  181.3230  178.8610  140.7050 N   0  0  1  0  0  0  0  0  0  0  0  0
  182.6250  178.5440  144.1900 C   0  0  0  0  0  2  0  0  0  0  0  0
  184.5260  179.9210  144.0420 C   0  0  0  0  0  2  0  0  0  0  0  0
  183.5760  179.3040  144.9920 N   0  0  0  0  0  0  0  0  0  0  0  0
  185.1250  177.6090  144.0620 O   0  0  0  0  0  1  0  0  0  0  0  0
  184.9440  178.7710  144.8230 C   0  0  1  0  0  0  0  0  0  0  0  0
  185.8730  179.0900  145.8320 O   0  0  0  0  0  0  0  0  0  0  0  0
  186.8140  177.7270  147.7130 C   0  0  0  0  0  2  0  0  0  0  0  0
  189.3130  177.7060  147.4890 C   0  0  0  0  0  2  0  0  0  0  0  0
  186.6210  177.9520  146.2110 C   0  0  2  0  0  3  0  0  0  0  0  0
  187.9790  177.4240  145.0940 S   0  0  0  0  0  0  0  0  0  0  0  0
  189.3180  178.2010  146.0550 C   0  0  0  0  0  2  0  0  0  0  0  0
  188.1270  178.2990  148.2310 C   0  0  0  0  0  2  0  0  0  0  0  0
  1  5  1  6  0  0  0
  1  7  1  0  0  0  0
  1  6  1  0  0  0  0
  2 15  1  0  0  0  0
  3 17  1  6  0  0  0
  4 12  1  6  0  0  0
  4 11  1  0  0  0  0
  4 20  1  0  0  0  0
  6 12  1  0  0  0  0
  7  8  1  0  0  0  0
  8 10  1  6  0  0  0
  8  4  1  0  0  0  0
  9 15  1  1  0  0  0
  9 19  1  0  0  0  0
 11 14  1  0  0  0  0
 11 20  1  0  0  0  0
 13 11  1  0  0  0  0
 16 18  1  1  0  0  0
 16  3  1  0  0  0  0
 19  3  1  0  0  0  0
 19 23  1  1  0  0  0
 20  2  1  1  0  0  0
 20 22  1  0  0  0  0
 21 18  1  1  0  0  0
 21 16  1  0  0  0  0
 22 21  1  0  0  0  0
 22  9  1  0  0  0  0
 23 25  1  0  0  0  0
 24 27  1  0  0  0  0
 24 25  1  0  0  0  0
 26 27  1  0  0  0  0
 27 25  1  0  0  0  0
 27 28  1  0  0  0  0
 28 31  1  0  0  0  0
 29 34  1  0  0  0  0
 30 34  1  0  0  0  0
 31 29  1  0  0  0  0
 32 33  1  0  0  0  0
 32 31  1  0  0  0  0
 33 30  1  0  0  0  0
M  END
>  <MODEL>
5

>  <REMARK>
 VINA RESULT:      -5.0      8.042     11.490
  Name = 
  4 active torsions:
  status: ('A' for Active; 'I' for Inactive)
    1  A    between atoms: C_3  and  N_18
    2  A    between atoms: C_3  and  C_31
    3  A    between atoms: C_14  and  O_16
    4  A    between atoms: O_16  and  C_28
                            x       y       z     vdW  Elec       q    Type
                         _______ _______ _______ _____ _____    ______ ____

>  <TORSDO>
F 4

$$$$
=
 OpenBabel10262423383D

 34 40  0  0  1  0  0  0  0  0999 V2000
  180.1120  179.9970  138.3950 C   0  0  2  0  0  3  0  0  0  0  0  0
  185.3200  178.4700  138.1260 C   0  0  0  0  0  2  0  0  0  0  0  0
  184.7270  174.6360  135.5100 C   0  0  2  0  0  3  0  0  0  0  0  0
  182.6160  178.5040  138.4240 C   0  0  1  0  0  0  0  0  0  0  0  0
  178.9550  180.4900  138.9950 O   0  0  0  0  0  1  0  0  0  0  0  0
  180.1100  178.4710  138.4700 C   0  0  0  0  0  2  0  0  0  0  0  0
  181.3360  180.5640  139.1110 C   0  0  0  0  0  2  0  0  0  0  0  0
  182.6170  180.0550  138.4580 C   0  0  1  0  0  3  0  0  0  0  0  0
  185.3760  176.1430  137.4750 C   0  0  2  0  0  3  0  0  0  0  0  0
  183.7260  180.6160  139.0930 O   0  0  0  0  0  1  0  0  0  0  0  0
  183.3060  177.6500  139.5070 C   0  0  0  0  0  0  0  0  0  0  0  0
  181.3530  177.8990  137.7960 C   0  0  0  0  0  2  0  0  0  0  0  0
  183.9370  178.3800  140.6870 C   0  0  0  0  0  1  0  0  0  0  0  0
  182.6730  176.3000  139.8300 C   0  0  0  0  0  1  0  0  0  0  0  0
  186.2500  177.3920  137.6050 C   0  0  0  0  0  2  0  0  0  0  0  0
  183.8810  175.7860  134.9380 C   0  0  2  0  0  3  0  0  0  0  0  0
  183.8920  173.6890  136.1030 O   0  0  0  0  0  1  0  0  0  0  0  0
  184.6080  177.1240  134.9260 C   0  0  0  0  0  2  0  0  0  0  0  0
  185.8300  175.0440  136.4930 C   0  0  2  0  0  3  0  0  0  0  0  0
  183.9530  177.8020  138.1070 C   0  0  2  0  0  0  0  0  0  0  0  0
  183.5110  176.8640  135.9570 C   0  0  2  0  0  3  0  0  0  0  0  0
  183.9680  176.5560  137.3400 N   0  0  1  0  0  0  0  0  0  0  0  0
  187.1340  175.3580  135.7640 C   0  0  0  0  0  2  0  0  0  0  0  0
  189.3800  176.0350  135.9390 C   0  0  0  0  0  2  0  0  0  0  0  0
  188.1340  175.8380  136.7100 N   0  0  0  0  0  0  0  0  0  0  0  0
  189.1670  173.6630  136.1270 O   0  0  0  0  0  1  0  0  0  0  0  0
  189.2570  174.8820  136.8120 C   0  0  1  0  0  0  0  0  0  0  0  0
  190.0550  174.9700  137.9680 O   0  0  0  0  0  0  0  0  0  0  0  0
  191.8410  176.7290  138.0290 C   0  0  0  0  0  2  0  0  0  0  0  0
  192.0930  177.5040  140.4030 C   0  0  0  0  0  2  0  0  0  0  0  0
  190.3840  176.3150  138.2570 C   0  0  2  0  0  3  0  0  0  0  0  0
  189.4750  177.1310  139.6270 S   0  0  0  0  0  0  0  0  0  0  0  0
  190.7830  176.9020  140.8750 C   0  0  0  0  0  2  0  0  0  0  0  0
  192.6820  176.6450  139.2960 C   0  0  0  0  0  2  0  0  0  0  0  0
  1  6  1  0  0  0  0
  1  5  1  1  0  0  0
  1  7  1  0  0  0  0
  3 17  1  1  0  0  0
  3 19  1  0  0  0  0
  4 12  1  6  0  0  0
  4  8  1  0  0  0  0
  4 11  1  0  0  0  0
  8 10  1  1  0  0  0
  8  7  1  0  0  0  0
  9 15  1  6  0  0  0
 11 14  1  0  0  0  0
 11 13  1  0  0  0  0
 12  6  1  0  0  0  0
 15  2  1  0  0  0  0
 16 18  1  6  0  0  0
 16  3  1  0  0  0  0
 16 21  1  0  0  0  0
 19 23  1  6  0  0  0
 19  9  1  0  0  0  0
 20  2  1  6  0  0  0
 20  4  1  0  0  0  0
 20 11  1  0  0  0  0
 21 18  1  6  0  0  0
 21 22  1  0  0  0  0
 22  9  1  0  0  0  0
 22 20  1  0  0  0  0
 23 25  1  0  0  0  0
 24 25  1  0  0  0  0
 24 27  1  0  0  0  0
 25 27  1  0  0  0  0
 26 27  1  0  0  0  0
 27 28  1  0  0  0  0
 28 31  1  0  0  0  0
 29 31  1  0  0  0  0
 29 34  1  0  0  0  0
 30 33  1  0  0  0  0
 31 32  1  0  0  0  0
 32 33  1  0  0  0  0
 34 30  1  0  0  0  0
M  END
>  <MODEL>
6

>  <REMARK>
 VINA RESULT:      -4.9      5.664      7.377
  Name = 
  4 active torsions:
  status: ('A' for Active; 'I' for Inactive)
    1  A    between atoms: C_3  and  N_18
    2  A    between atoms: C_3  and  C_31
    3  A    between atoms: C_14  and  O_16
    4  A    between atoms: O_16  and  C_28
                            x       y       z     vdW  Elec       q    Type
                         _______ _______ _______ _____ _____    ______ ____

>  <TORSDO>
F 4

$$$$
=
 OpenBabel10262423383D

 34 40  0  0  1  0  0  0  0  0999 V2000
  180.3850  178.9560  135.6800 C   0  0  2  0  0  3  0  0  0  0  0  0
  184.9650  178.5880  138.5820 C   0  0  0  0  0  2  0  0  0  0  0  0
  187.2040  175.5160  135.8550 C   0  0  2  0  0  3  0  0  0  0  0  0
  182.7320  178.0210  137.1350 C   0  0  1  0  0  0  0  0  0  0  0  0
  179.0110  179.0460  135.4680 O   0  0  0  0  0  1  0  0  0  0  0  0
  180.8150  177.4920  135.6090 C   0  0  0  0  0  2  0  0  0  0  0  0
  180.7270  179.5460  137.0460 C   0  0  0  0  0  2  0  0  0  0  0  0
  182.2320  179.4800  137.2920 C   0  0  1  0  0  3  0  0  0  0  0  0
  186.1020  176.5630  137.9150 C   0  0  2  0  0  3  0  0  0  0  0  0
  182.5350  180.0640  138.5230 O   0  0  0  0  0  1  0  0  0  0  0  0
  182.9000  177.0680  138.3350 C   0  0  0  0  0  0  0  0  0  0  0  0
  182.3220  177.3650  135.8090 C   0  0  0  0  0  2  0  0  0  0  0  0
  182.4760  177.5780  139.7080 C   0  0  0  0  0  1  0  0  0  0  0  0
  182.6540  175.5840  138.0790 C   0  0  0  0  0  1  0  0  0  0  0  0
  186.3030  177.8820  138.6650 C   0  0  0  0  0  2  0  0  0  0  0  0
  186.5320  176.5880  134.9800 C   0  0  2  0  0  3  0  0  0  0  0  0
  186.5250  174.3050  135.7180 O   0  0  0  0  0  1  0  0  0  0  0  0
  186.6750  177.9990  135.5350 C   0  0  0  0  0  2  0  0  0  0  0  0
  187.3510  175.8640  137.3400 C   0  0  2  0  0  3  0  0  0  0  0  0
  184.1460  177.6970  137.6600 C   0  0  2  0  0  0  0  0  0  0  0  0
  185.3330  177.2750  135.6330 C   0  0  2  0  0  3  0  0  0  0  0  0
  184.9840  176.7170  136.9680 N   0  0  1  0  0  0  0  0  0  0  0  0
  188.6600  176.6010  137.6110 C   0  0  0  0  0  2  0  0  0  0  0  0
  189.7370  178.3130  138.8120 C   0  0  0  0  0  2  0  0  0  0  0  0
  188.5040  177.4980  138.7490 N   0  0  0  0  0  0  0  0  0  0  0  0
  190.4130  176.1530  139.5770 O   0  0  0  0  0  1  0  0  0  0  0  0
  189.5450  177.2360  139.7660 C   0  0  1  0  0  0  0  0  0  0  0  0
  189.2760  177.6890  141.0720 O   0  0  0  0  0  0  0  0  0  0  0  0
  188.9190  176.0520  142.9360 C   0  0  0  0  0  2  0  0  0  0  0  0
  189.9420  177.0060  145.0200 C   0  0  0  0  0  2  0  0  0  0  0  0
  189.8720  176.8430  142.0350 C   0  0  2  0  0  3  0  0  0  0  0  0
  191.4710  177.3820  142.7580 S   0  0  0  0  0  0  0  0  0  0  0  0
  190.7590  178.0580  144.2930 C   0  0  0  0  0  2  0  0  0  0  0  0
  188.6490  176.7480  144.2640 C   0  0  0  0  0  2  0  0  0  0  0  0
  1  5  1  1  0  0  0
  1  7  1  0  0  0  0
  2 15  1  0  0  0  0
  3 17  1  1  0  0  0
  3 19  1  0  0  0  0
  4 12  1  6  0  0  0
  4  8  1  0  0  0  0
  4 20  1  0  0  0  0
  4 11  1  0  0  0  0
  6  1  1  0  0  0  0
  6 12  1  0  0  0  0
  7  8  1  0  0  0  0
  8 10  1  1  0  0  0
  9 15  1  6  0  0  0
 11 13  1  0  0  0  0
 14 11  1  0  0  0  0
 16 18  1  1  0  0  0
 16 21  1  0  0  0  0
 16  3  1  0  0  0  0
 19 23  1  6  0  0  0
 19  9  1  0  0  0  0
 20 11  1  0  0  0  0
 20  2  1  1  0  0  0
 21 18  1  1  0  0  0
 21 22  1  0  0  0  0
 22 20  1  0  0  0  0
 22  9  1  0  0  0  0
 23 25  1  0  0  0  0
 24 27  1  0  0  0  0
 25 24  1  0  0  0  0
 25 27  1  0  0  0  0
 26 27  1  0  0  0  0
 27 28  1  0  0  0  0
 28 31  1  0  0  0  0
 29 34  1  0  0  0  0
 31 32  1  0  0  0  0
 31 29  1  0  0  0  0
 32 33  1  0  0  0  0
 33 30  1  0  0  0  0
 34 30  1  0  0  0  0
M  END
>  <MODEL>
7

>  <REMARK>
 VINA RESULT:      -4.8      5.479      8.293
  Name = 
  4 active torsions:
  status: ('A' for Active; 'I' for Inactive)
    1  A    between atoms: C_3  and  N_18
    2  A    between atoms: C_3  and  C_31
    3  A    between atoms: C_14  and  O_16
    4  A    between atoms: O_16  and  C_28
                            x       y       z     vdW  Elec       q    Type
                         _______ _______ _______ _____ _____    ______ ____

>  <TORSDO>
F 4

$$$$
=
 OpenBabel10262423383D

 34 40  0  0  1  0  0  0  0  0999 V2000
  183.1860  170.8360  136.3630 C   0  0  2  0  0  3  0  0  0  0  0  0
  184.8100  175.9300  137.3410 C   0  0  0  0  0  2  0  0  0  0  0  0
  180.6980  177.6500  138.7620 C   0  0  2  0  0  3  0  0  0  0  0  0
  183.4350  173.7380  136.4990 C   0  0  1  0  0  0  0  0  0  0  0  0
  183.1160  169.6280  135.6720 O   0  0  0  0  0  1  0  0  0  0  0  0
  182.0360  171.7400  135.9210 C   0  0  0  0  0  2  0  0  0  0  0  0
  184.5290  171.5060  136.0800 C   0  0  0  0  0  2  0  0  0  0  0  0
  184.6380  172.8220  136.8430 C   0  0  1  0  0  3  0  0  0  0  0  0
  182.8440  177.3330  137.4030 C   0  0  2  0  0  3  0  0  0  0  0  0
  185.8870  173.4010  136.6110 O   0  0  0  0  0  1  0  0  0  0  0  0
  183.5070  174.8280  135.4110 C   0  0  0  0  0  0  0  0  0  0  0  0
  182.0690  173.0620  136.6820 C   0  0  0  0  0  2  0  0  0  0  0  0
  184.7950  174.9360  134.6030 C   0  0  0  0  0  1  0  0  0  0  0  0
  182.2210  175.1250  134.6440 C   0  0  0  0  0  1  0  0  0  0  0  0
  184.3300  177.3020  137.7670 C   0  0  0  0  0  2  0  0  0  0  0  0
  180.9300  176.2710  139.4060 C   0  0  2  0  0  3  0  0  0  0  0  0
  179.6970  177.5530  137.7950 O   0  0  0  0  0  1  0  0  0  0  0  0
  182.3580  176.0650  139.8940 C   0  0  0  0  0  2  0  0  0  0  0  0
  181.9370  178.3230  138.1620 C   0  0  2  0  0  3  0  0  0  0  0  0
  183.5340  175.2220  136.9100 C   0  0  2  0  0  0  0  0  0  0  0  0
  181.8800  175.3630  138.6250 C   0  0  2  0  0  3  0  0  0  0  0  0
  182.3390  175.9510  137.3360 N   0  0  1  0  0  0  0  0  0  0  0  0
  182.6670  179.1690  139.2020 C   0  0  0  0  0  2  0  0  0  0  0  0
  182.8290  179.3730  141.5400 C   0  0  0  0  0  2  0  0  0  0  0  0
  182.8620  178.4010  140.4260 N   0  0  0  0  0  0  0  0  0  0  0  0
  184.9380  179.7530  140.4830 O   0  0  0  0  0  1  0  0  0  0  0  0
  184.1020  178.8210  141.1130 C   0  0  1  0  0  0  0  0  0  0  0  0
  184.6510  177.9080  142.0330 O   0  0  0  0  0  0  0  0  0  0  0  0
  187.1070  178.0780  142.5020 C   0  0  0  0  0  2  0  0  0  0  0  0
  187.4980  177.3850  144.8830 C   0  0  0  0  0  2  0  0  0  0  0  0
  185.6710  178.5150  142.8030 C   0  0  2  0  0  3  0  0  0  0  0  0
  185.2660  178.9640  144.5360 S   0  0  0  0  0  0  0  0  0  0  0  0
  186.0410  177.4980  145.2900 C   0  0  0  0  0  2  0  0  0  0  0  0
  187.5910  176.9670  143.4250 C   0  0  0  0  0  2  0  0  0  0  0  0
  1  5  1  6  0  0  0
  2 15  1  0  0  0  0
  3 17  1  6  0  0  0
  3 16  1  0  0  0  0
  4 12  1  1  0  0  0
  4  8  1  0  0  0  0
  4 20  1  0  0  0  0
  6  1  1  0  0  0  0
  6 12  1  0  0  0  0
  7  1  1  0  0  0  0
  7  8  1  0  0  0  0
  8 10  1  6  0  0  0
  9 15  1  1  0  0  0
  9 19  1  0  0  0  0
 11  4  1  0  0  0  0
 11 20  1  0  0  0  0
 13 11  1  0  0  0  0
 14 11  1  0  0  0  0
 16 18  1  1  0  0  0
 19  3  1  0  0  0  0
 19 23  1  1  0  0  0
 20 22  1  0  0  0  0
 20  2  1  1  0  0  0
 21 16  1  0  0  0  0
 21 18  1  1  0  0  0
 22  9  1  0  0  0  0
 22 21  1  0  0  0  0
 23 25  1  0  0  0  0
 25 27  1  0  0  0  0
 25 24  1  0  0  0  0
 26 27  1  0  0  0  0
 27 24  1  0  0  0  0
 27 28  1  0  0  0  0
 28 31  1  0  0  0  0
 29 31  1  0  0  0  0
 29 34  1  0  0  0  0
 30 33  1  0  0  0  0
 31 32  1  0  0  0  0
 32 33  1  0  0  0  0
 34 30  1  0  0  0  0
M  END
>  <MODEL>
8

>  <REMARK>
 VINA RESULT:      -4.8      6.885     10.753
  Name = 
  4 active torsions:
  status: ('A' for Active; 'I' for Inactive)
    1  A    between atoms: C_3  and  N_18
    2  A    between atoms: C_3  and  C_31
    3  A    between atoms: C_14  and  O_16
    4  A    between atoms: O_16  and  C_28
                            x       y       z     vdW  Elec       q    Type
                         _______ _______ _______ _____ _____    ______ ____

>  <TORSDO>
F 4

$$$$
=
 OpenBabel10262423383D

 34 40  0  0  1  0  0  0  0  0999 V2000
  190.2760  175.0980  137.5150 C   0  0  2  0  0  3  0  0  0  0  0  0
  185.9670  178.1860  138.7120 C   0  0  0  0  0  2  0  0  0  0  0  0
  182.8590  176.0450  135.9460 C   0  0  2  0  0  3  0  0  0  0  0  0
  187.8850  176.7630  137.4080 C   0  0  1  0  0  0  0  0  0  0  0  0
  191.6120  174.8250  137.2270 O   0  0  0  0  0  1  0  0  0  0  0  0
  189.5010  175.2680  136.2090 C   0  0  0  0  0  2  0  0  0  0  0  0
  190.1870  176.3690  138.3570 C   0  0  0  0  0  2  0  0  0  0  0  0
  188.7340  176.6760  138.7040 C   0  0  1  0  0  3  0  0  0  0  0  0
  184.3290  177.8780  136.9620 C   0  0  2  0  0  3  0  0  0  0  0  0
  188.6710  177.8130  139.5100 O   0  0  0  0  0  1  0  0  0  0  0  0
  187.5800  178.1000  136.7050 C   0  0  0  0  0  0  0  0  0  0  0  0
  188.0270  175.5400  136.4920 C   0  0  0  0  0  2  0  0  0  0  0  0
  188.2130  179.3630  137.2800 C   0  0  0  0  0  1  0  0  0  0  0  0
  187.4410  178.0670  135.1860 C   0  0  0  0  0  1  0  0  0  0  0  0
  184.5080  178.4240  138.3810 C   0  0  0  0  0  2  0  0  0  0  0  0
  183.7050  174.9920  136.6830 C   0  0  2  0  0  3  0  0  0  0  0  0
  183.2140  176.0710  134.5970 O   0  0  0  0  0  1  0  0  0  0  0  0
  183.9480  175.3290  138.1480 C   0  0  0  0  0  2  0  0  0  0  0  0
  182.9100  177.4640  136.5240 C   0  0  2  0  0  3  0  0  0  0  0  0
  186.4770  177.3830  137.5240 C   0  0  2  0  0  0  0  0  0  0  0  0
  185.0780  175.4880  137.1330 C   0  0  2  0  0  3  0  0  0  0  0  0
  185.3790  176.8800  136.6980 N   0  0  1  0  0  0  0  0  0  0  0  0
  181.8410  177.6650  137.5950 C   0  0  0  0  0  2  0  0  0  0  0  0
  180.9510  179.2290  139.1100 C   0  0  0  0  0  2  0  0  0  0  0  0
  181.5750  179.0870  137.7770 N   0  0  0  0  0  0  0  0  0  0  0  0
  179.2400  178.2570  137.7560 O   0  0  0  0  0  1  0  0  0  0  0  0
  180.1240  179.3320  137.9220 C   0  0  1  0  0  0  0  0  0  0  0  0
  179.6780  180.6420  137.6640 O   0  0  0  0  0  0  0  0  0  0  0  0
  180.9890  182.7420  137.2710 C   0  0  0  0  0  2  0  0  0  0  0  0
  180.2280  183.7440  135.0990 C   0  0  0  0  0  2  0  0  0  0  0  0
  180.5890  181.3320  136.8300 C   0  0  2  0  0  3  0  0  0  0  0  0
  180.4980  181.0020  135.0260 S   0  0  0  0  0  0  0  0  0  0  0  0
  179.5260  182.4880  134.6180 C   0  0  0  0  0  2  0  0  0  0  0  0
  180.1460  183.8270  136.6150 C   0  0  0  0  0  2  0  0  0  0  0  0
  1  5  1  6  0  0  0
  1  7  1  0  0  0  0
  3 17  1  6  0  0  0
  3 19  1  0  0  0  0
  3 16  1  0  0  0  0
  4 12  1  6  0  0  0
  4 20  1  0  0  0  0
  4  8  1  0  0  0  0
  6 12  1  0  0  0  0
  6  1  1  0  0  0  0
  7  8  1  0  0  0  0
  8 10  1  6  0  0  0
  9 15  1  1  0  0  0
 11 13  1  0  0  0  0
 11  4  1  0  0  0  0
 11 20  1  0  0  0  0
 14 11  1  0  0  0  0
 15  2  1  0  0  0  0
 16 21  1  0  0  0  0
 16 18  1  1  0  0  0
 19  9  1  0  0  0  0
 19 23  1  1  0  0  0
 20  2  1  1  0  0  0
 21 18  1  1  0  0  0
 22  9  1  0  0  0  0
 22 21  1  0  0  0  0
 22 20  1  0  0  0  0
 23 25  1  0  0  0  0
 25 27  1  0  0  0  0
 25 24  1  0  0  0  0
 26 27  1  0  0  0  0
 27 24  1  0  0  0  0
 28 27  1  0  0  0  0
 30 34  1  0  0  0  0
 31 29  1  0  0  0  0
 31 28  1  0  0  0  0
 32 31  1  0  0  0  0
 33 32  1  0  0  0  0
 33 30  1  0  0  0  0
 34 29  1  0  0  0  0
M  END
>  <MODEL>
9

>  <REMARK>
 VINA RESULT:      -4.8      7.198     11.195
  Name = 
  4 active torsions:
  status: ('A' for Active; 'I' for Inactive)
    1  A    between atoms: C_3  and  N_18
    2  A    between atoms: C_3  and  C_31
    3  A    between atoms: C_14  and  O_16
    4  A    between atoms: O_16  and  C_28
                            x       y       z     vdW  Elec       q    Type
                         _______ _______ _______ _____ _____    ______ ____

>  <TORSDO>
F 4

$$$$
