=
 OpenBabel10262423273D

 34 39  0  0  1  0  0  0  0  0999 V2000
  188.7180  177.4070  144.1040 C   0  0  0  0  0  0  0  0  0  0  0  0
  189.8770  177.3450  147.6350 C   0  0  0  0  0  3  0  0  0  0  0  0
  187.7450  177.9600  146.6810 C   0  0  0  0  0  3  0  0  0  0  0  0
  187.1480  178.2260  141.7410 C   0  0  0  0  0  2  0  0  0  0  0  0
  189.2100  177.1510  142.7110 C   0  0  0  0  0  2  0  0  0  0  0  0
  186.4620  177.9000  143.0800 C   0  0  2  0  0  3  0  0  0  0  0  0
  184.5900  178.4280  144.6190 C   0  0  0  0  0  2  0  0  0  0  0  0
  185.2670  178.8150  143.3110 C   0  0  0  0  0  2  0  0  0  0  0  0
  188.6880  178.2550  141.7890 C   0  0  1  0  0  3  0  0  0  0  0  0
  186.9050  178.1140  145.5760 C   0  0  0  0  0  0  0  0  0  0  0  0
  187.3900  177.8420  144.2790 C   0  0  0  0  0  0  0  0  0  0  0  0
  185.5320  178.6900  145.7930 C   0  0  0  0  0  2  0  0  0  0  0  0
  191.1920  176.8960  147.4850 C   0  0  0  0  0  0  0  0  0  0  0  0
  191.6900  176.6170  146.2050 C   0  0  0  0  0  3  0  0  0  0  0  0
  189.0560  177.5110  146.5180 C   0  0  0  0  0  0  0  0  0  0  0  0
  190.8770  176.7840  145.0810 C   0  0  0  0  0  3  0  0  0  0  0  0
  189.5540  177.2300  145.2230 C   0  0  0  0  0  0  0  0  0  0  0  0
  188.2690  176.4940  138.6690 C   0  0  0  0  0  3  0  0  0  0  0  0
  190.4650  177.1280  140.3760 C   0  0  0  0  0  2  0  0  0  0  0  0
  190.8520  174.8450  136.6720 C   0  0  2  0  0  3  0  0  0  0  0  0
  189.4420  174.8420  137.2430 C   0  0  0  0  0  2  0  0  0  0  0  0
  189.3400  176.1390  137.9500 C   0  0  0  0  0  0  0  0  0  0  0  0
  190.5400  177.0060  137.7910 C   0  0  1  0  0  3  0  0  0  0  0  0
  191.3180  177.1990  139.1030 C   0  0  0  0  0  2  0  0  0  0  0  0
  191.4030  176.2670  136.7850 C   0  0  0  0  0  2  0  0  0  0  0  0
  189.3010  178.1350  140.3890 C   0  0  1  0  0  3  0  0  0  0  0  0
  188.1950  177.8390  139.3460 C   0  0  0  0  0  2  0  0  0  0  0  0
  190.8520  174.3920  135.2510 C   0  0  0  0  0  0  0  0  0  0  0  0
  191.9240  174.3930  134.5940 O   0  0  0  0  0  0  0  0  0  0  0  0
  189.6720  173.9690  134.6470 O   0  0  0  0  0  1  0  0  0  0  0  0
  191.9900  176.7320  148.6160 O   0  0  0  0  0  0  0  0  0  0  0  0
  193.1560  176.0730  148.5500 O   0  0  0  0  0  0  0  0  0  0  0  0
  193.5710  177.7570  150.1700 C   0  0  0  0  0  1  0  0  0  0  0  0
  193.7620  176.3070  149.7830 C   0  0  0  0  0  2  0  0  0  0  0  0
  1 11  2  0  0  0  0
  1 17  1  0  0  0  0
  5  1  1  0  0  0  0
  6  4  1  6  0  0  0
  6  8  1  0  0  0  0
  6 11  1  0  0  0  0
  7 12  1  0  0  0  0
  8  7  1  0  0  0  0
  9  4  1  6  0  0  0
  9  5  1  0  0  0  0
 10 12  1  0  0  0  0
 10  3  2  0  0  0  0
 11 10  1  0  0  0  0
 13  2  1  0  0  0  0
 13 31  1  0  0  0  0
 14 13  2  0  0  0  0
 15  3  1  0  0  0  0
 15  2  2  0  0  0  0
 16 17  2  0  0  0  0
 16 14  1  0  0  0  0
 17 15  1  0  0  0  0
 18 27  1  0  0  0  0
 19 26  1  0  0  0  0
 20 28  1  6  0  0  0
 20 25  1  0  0  0  0
 20 21  1  0  0  0  0
 21 22  1  0  0  0  0
 22 18  2  0  0  0  0
 23 25  1  6  0  0  0
 23 22  1  0  0  0  0
 23 24  1  0  0  0  0
 24 19  1  0  0  0  0
 26 27  1  6  0  0  0
 26  9  1  0  0  0  0
 29 28  2  0  0  0  0
 30 28  1  0  0  0  0
 32 31  1  0  0  0  0
 32 34  1  0  0  0  0
 34 33  1  0  0  0  0
M  END
>  <MODEL>
1

>  <REMARK>
 VINA RESULT:      -9.8      0.000      0.000
  Name = 
  5 active torsions:
  status: ('A' for Active; 'I' for Inactive)
    1  A    between atoms: O_3  and  C_24
    2  A    between atoms: O_3  and  O_25
    3  A    between atoms: C_7  and  C_11
    4  A    between atoms: C_18  and  C_30
    5  A    between atoms: C_23  and  O_25
                            x       y       z     vdW  Elec       q    Type
                         _______ _______ _______ _____ _____    ______ ____

>  <TORSDO>
F 5

$$$$
=
 OpenBabel10262423273D

 34 39  0  0  1  0  0  0  0  0999 V2000
  183.7510  178.6640  141.6280 C   0  0  0  0  0  0  0  0  0  0  0  0
  183.0980  177.6340  138.1170 C   0  0  0  0  0  3  0  0  0  0  0  0
  181.6050  177.8650  140.0010 C   0  0  0  0  0  3  0  0  0  0  0  0
  183.3800  178.8510  144.5520 C   0  0  0  0  0  2  0  0  0  0  0  0
  184.8760  179.0670  142.5350 C   0  0  0  0  0  2  0  0  0  0  0  0
  182.2020  179.0600  143.5830 C   0  0  2  0  0  3  0  0  0  0  0  0
  179.7690  178.7600  143.2030 C   0  0  0  0  0  2  0  0  0  0  0  0
  180.9150  178.4900  144.1680 C   0  0  0  0  0  2  0  0  0  0  0  0
  184.6900  178.3800  143.8900 C   0  0  1  0  0  3  0  0  0  0  0  0
  181.3740  178.1960  141.3380 C   0  0  0  0  0  0  0  0  0  0  0  0
  182.4500  178.5930  142.1600 C   0  0  0  0  0  0  0  0  0  0  0  0
  179.9920  177.9960  141.8980 C   0  0  0  0  0  2  0  0  0  0  0  0
  184.3790  177.7160  137.5630 C   0  0  0  0  0  0  0  0  0  0  0  0
  185.4590  178.1130  138.3650 C   0  0  0  0  0  3  0  0  0  0  0  0
  182.8880  177.9510  139.4610 C   0  0  0  0  0  0  0  0  0  0  0  0
  185.2590  178.4280  139.7110 C   0  0  0  0  0  3  0  0  0  0  0  0
  183.9750  178.3530  140.2740 C   0  0  0  0  0  0  0  0  0  0  0  0
  188.2150  177.6550  144.1430 C   0  0  0  0  0  3  0  0  0  0  0  0
  185.9810  177.5670  145.9140 C   0  0  0  0  0  2  0  0  0  0  0  0
  190.0420  176.4480  147.0730 C   0  0  2  0  0  3  0  0  0  0  0  0
  189.8020  176.4000  145.5710 C   0  0  0  0  0  2  0  0  0  0  0  0
  188.7710  177.4360  145.3400 C   0  0  0  0  0  0  0  0  0  0  0  0
  188.4050  178.2040  146.5620 C   0  0  1  0  0  3  0  0  0  0  0  0
  186.9660  177.9350  147.0310 C   0  0  0  0  0  2  0  0  0  0  0  0
  189.3880  177.7210  147.6130 C   0  0  0  0  0  2  0  0  0  0  0  0
  185.9020  178.6230  144.7970 C   0  0  1  0  0  3  0  0  0  0  0  0
  187.1900  178.7440  143.9460 C   0  0  0  0  0  2  0  0  0  0  0  0
  191.5010  176.4340  147.3810 C   0  0  0  0  0  0  0  0  0  0  0  0
  191.9690  177.2370  148.2290 O   0  0  0  0  0  1  0  0  0  0  0  0
  192.3480  175.5400  146.7350 O   0  0  0  0  0  0  0  0  0  0  0  0
  184.5630  177.4010  136.2190 O   0  0  0  0  0  0  0  0  0  0  0  0
  185.4910  176.5130  135.8360 O   0  0  0  0  0  0  0  0  0  0  0  0
  187.2880  177.8960  135.1390 C   0  0  0  0  0  1  0  0  0  0  0  0
  186.0840  177.0850  134.7130 C   0  0  0  0  0  2  0  0  0  0  0  0
  1 11  1  0  0  0  0
  1  5  1  0  0  0  0
  2 15  1  0  0  0  0
  3 10  1  0  0  0  0
  6  8  1  1  0  0  0
  6  4  1  0  0  0  0
  7  8  1  0  0  0  0
  9  5  1  6  0  0  0
  9  4  1  0  0  0  0
  9 26  1  0  0  0  0
 10 12  1  0  0  0  0
 10 11  2  0  0  0  0
 11  6  1  0  0  0  0
 12  7  1  0  0  0  0
 13  2  2  0  0  0  0
 13 14  1  0  0  0  0
 14 16  2  0  0  0  0
 15  3  2  0  0  0  0
 15 17  1  0  0  0  0
 16 17  1  0  0  0  0
 17  1  2  0  0  0  0
 18 22  2  0  0  0  0
 19 24  1  0  0  0  0
 20 28  1  6  0  0  0
 20 25  1  0  0  0  0
 21 20  1  0  0  0  0
 22 21  1  0  0  0  0
 22 23  1  0  0  0  0
 23 24  1  1  0  0  0
 23 25  1  0  0  0  0
 26 27  1  6  0  0  0
 26 19  1  0  0  0  0
 27 18  1  0  0  0  0
 28 29  1  0  0  0  0
 30 28  2  0  0  0  0
 31 13  1  0  0  0  0
 32 31  1  0  0  0  0
 34 33  1  0  0  0  0
 34 32  1  0  0  0  0
M  END
>  <MODEL>
2

>  <REMARK>
 VINA RESULT:      -9.3      3.189      9.565
  Name = 
  5 active torsions:
  status: ('A' for Active; 'I' for Inactive)
    1  A    between atoms: O_3  and  C_24
    2  A    between atoms: O_3  and  O_25
    3  A    between atoms: C_7  and  C_11
    4  A    between atoms: C_18  and  C_30
    5  A    between atoms: C_23  and  O_25
                            x       y       z     vdW  Elec       q    Type
                         _______ _______ _______ _____ _____    ______ ____

>  <TORSDO>
F 5

$$$$
=
 OpenBabel10262423273D

 34 39  0  0  1  0  0  0  0  0999 V2000
  187.6950  178.2880  142.5670 C   0  0  0  0  0  0  0  0  0  0  0  0
  184.1260  178.3530  143.6020 C   0  0  0  0  0  3  0  0  0  0  0  0
  186.1300  177.8780  144.8640 C   0  0  0  0  0  3  0  0  0  0  0  0
  190.5490  177.5300  142.5870 C   0  0  0  0  0  2  0  0  0  0  0  0
  188.5620  178.4690  141.3560 C   0  0  0  0  0  2  0  0  0  0  0  0
  189.8240  177.9420  143.8810 C   0  0  2  0  0  3  0  0  0  0  0  0
  189.6230  177.5980  146.3290 C   0  0  0  0  0  2  0  0  0  0  0  0
  190.3280  177.1270  145.0650 C   0  0  0  0  0  2  0  0  0  0  0  0
  189.6400  177.3840  141.3500 C   0  0  1  0  0  3  0  0  0  0  0  0
  187.5200  177.7600  144.9430 C   0  0  0  0  0  0  0  0  0  0  0  0
  188.3090  177.9600  143.7910 C   0  0  0  0  0  0  0  0  0  0  0  0
  188.1280  177.2960  146.2390 C   0  0  0  0  0  2  0  0  0  0  0  0
  183.4970  178.6960  142.4020 C   0  0  0  0  0  0  0  0  0  0  0  0
  184.2670  178.9030  141.2490 C   0  0  0  0  0  3  0  0  0  0  0  0
  185.5150  178.2220  143.6590 C   0  0  0  0  0  0  0  0  0  0  0  0
  185.6570  178.7690  141.2950 C   0  0  0  0  0  3  0  0  0  0  0  0
  186.2960  178.4290  142.4980 C   0  0  0  0  0  0  0  0  0  0  0  0
  190.1270  175.5520  138.2810 C   0  0  0  0  0  3  0  0  0  0  0  0
  191.8260  176.7620  140.2280 C   0  0  0  0  0  2  0  0  0  0  0  0
  193.2990  174.6390  136.7050 C   0  0  2  0  0  3  0  0  0  0  0  0
  191.8760  174.2640  137.0900 C   0  0  0  0  0  2  0  0  0  0  0  0
  191.3400  175.4910  137.7210 C   0  0  0  0  0  0  0  0  0  0  0  0
  192.2800  176.6460  137.6810 C   0  0  1  0  0  3  0  0  0  0  0  0
  192.7940  177.0480  139.0730 C   0  0  0  0  0  2  0  0  0  0  0  0
  193.4350  176.1570  136.8270 C   0  0  0  0  0  2  0  0  0  0  0  0
  190.4470  177.4210  140.0470 C   0  0  1  0  0  3  0  0  0  0  0  0
  189.6100  176.8340  138.8840 C   0  0  0  0  0  2  0  0  0  0  0  0
  193.6110  174.1920  135.3170 C   0  0  0  0  0  0  0  0  0  0  0  0
  192.8640  173.3560  134.7470 O   0  0  0  0  0  1  0  0  0  0  0  0
  194.7210  174.6940  134.6480 O   0  0  0  0  0  0  0  0  0  0  0  0
  182.1110  178.8290  142.3710 O   0  0  0  0  0  0  0  0  0  0  0  0
  181.4990  179.8570  142.9740 O   0  0  0  0  0  0  0  0  0  0  0  0
  180.0240  178.2950  143.9790 C   0  0  0  0  0  1  0  0  0  0  0  0
  180.1600  179.4780  143.0470 C   0  0  0  0  0  2  0  0  0  0  0  0
  1 11  1  0  0  0  0
  2 15  1  0  0  0  0
  3 10  1  0  0  0  0
  5  1  1  0  0  0  0
  6  4  1  6  0  0  0
  6  8  1  0  0  0  0
  8  7  1  0  0  0  0
  9  5  1  6  0  0  0
  9  4  1  0  0  0  0
 10 12  1  0  0  0  0
 11  6  1  0  0  0  0
 11 10  2  0  0  0  0
 12  7  1  0  0  0  0
 13  2  2  0  0  0  0
 14 16  2  0  0  0  0
 14 13  1  0  0  0  0
 15  3  2  0  0  0  0
 16 17  1  0  0  0  0
 17  1  2  0  0  0  0
 17 15  1  0  0  0  0
 18 27  1  0  0  0  0
 20 28  1  6  0  0  0
 20 25  1  0  0  0  0
 20 21  1  0  0  0  0
 21 22  1  0  0  0  0
 22 18  2  0  0  0  0
 23 25  1  6  0  0  0
 23 22  1  0  0  0  0
 23 24  1  0  0  0  0
 24 19  1  0  0  0  0
 26 27  1  6  0  0  0
 26 19  1  0  0  0  0
 26  9  1  0  0  0  0
 29 28  1  0  0  0  0
 30 28  2  0  0  0  0
 31 13  1  0  0  0  0
 31 32  1  0  0  0  0
 32 34  1  0  0  0  0
 34 33  1  0  0  0  0
M  END
>  <MODEL>
3

>  <REMARK>
 VINA RESULT:      -9.2      3.535      6.136
  Name = 
  5 active torsions:
  status: ('A' for Active; 'I' for Inactive)
    1  A    between atoms: O_3  and  C_24
    2  A    between atoms: O_3  and  O_25
    3  A    between atoms: C_7  and  C_11
    4  A    between atoms: C_18  and  C_30
    5  A    between atoms: C_23  and  O_25
                            x       y       z     vdW  Elec       q    Type
                         _______ _______ _______ _____ _____    ______ ____

>  <TORSDO>
F 5

$$$$
=
 OpenBabel10262423273D

 34 39  0  0  1  0  0  0  0  0999 V2000
  187.9920  177.7470  142.7570 C   0  0  0  0  0  0  0  0  0  0  0  0
  191.6760  177.3250  142.5000 C   0  0  0  0  0  3  0  0  0  0  0  0
  190.2370  177.5140  144.4310 C   0  0  0  0  0  3  0  0  0  0  0  0
  185.3910  178.5490  143.9020 C   0  0  0  0  0  2  0  0  0  0  0  0
  186.7730  177.9040  141.8970 C   0  0  0  0  0  2  0  0  0  0  0  0
  186.4370  177.8010  144.7470 C   0  0  2  0  0  3  0  0  0  0  0  0
  187.4380  177.5020  146.9970 C   0  0  0  0  0  2  0  0  0  0  0  0
  186.4250  178.2990  146.1870 C   0  0  0  0  0  2  0  0  0  0  0  0
  185.8730  178.9830  142.5040 C   0  0  1  0  0  3  0  0  0  0  0  0
  188.9650  177.6450  144.9930 C   0  0  0  0  0  0  0  0  0  0  0  0
  187.8350  177.7670  144.1560 C   0  0  0  0  0  0  0  0  0  0  0  0
  188.8510  177.7780  146.4880 C   0  0  0  0  0  2  0  0  0  0  0  0
  191.8520  177.2840  141.1150 C   0  0  0  0  0  0  0  0  0  0  0  0
  190.7410  177.4000  140.2680 C   0  0  0  0  0  3  0  0  0  0  0  0
  190.3990  177.4740  143.0450 C   0  0  0  0  0  0  0  0  0  0  0  0
  189.4600  177.5540  140.8050 C   0  0  0  0  0  3  0  0  0  0  0  0
  189.2730  177.5910  142.1950 C   0  0  0  0  0  0  0  0  0  0  0  0
  182.8580  177.5220  141.1670 C   0  0  0  0  0  3  0  0  0  0  0  0
  185.0530  179.0030  140.1060 C   0  0  0  0  0  2  0  0  0  0  0  0
  181.7210  177.5380  137.6900 C   0  0  2  0  0  3  0  0  0  0  0  0
  181.8930  176.7920  139.0050 C   0  0  0  0  0  2  0  0  0  0  0  0
  182.4730  177.8040  139.9170 C   0  0  0  0  0  0  0  0  0  0  0  0
  182.5940  179.1600  139.3120 C   0  0  1  0  0  3  0  0  0  0  0  0
  184.0530  179.5940  139.1040 C   0  0  0  0  0  2  0  0  0  0  0  0
  181.8980  179.0310  137.9690 C   0  0  0  0  0  2  0  0  0  0  0  0
  184.6970  179.3010  141.5730 C   0  0  1  0  0  3  0  0  0  0  0  0
  183.4140  178.5920  142.0720 C   0  0  0  0  0  2  0  0  0  0  0  0
  180.3790  177.2690  137.0970 C   0  0  0  0  0  0  0  0  0  0  0  0
  179.3680  177.8750  137.5370 O   0  0  0  0  0  1  0  0  0  0  0  0
  180.2390  176.3520  136.0610 O   0  0  0  0  0  0  0  0  0  0  0  0
  193.1350  177.1280  140.5940 O   0  0  0  0  0  0  0  0  0  0  0  0
  193.4220  177.4930  139.3360 O   0  0  0  0  0  0  0  0  0  0  0  0
  192.7950  176.3710  137.3420 C   0  0  0  0  0  1  0  0  0  0  0  0
  193.5620  176.2920  138.6440 C   0  0  0  0  0  2  0  0  0  0  0  0
  1 11  1  0  0  0  0
  2 15  1  0  0  0  0
  3 10  1  0  0  0  0
  5  1  1  0  0  0  0
  6  4  1  6  0  0  0
  6  8  1  0  0  0  0
  8  7  1  0  0  0  0
  9  5  1  6  0  0  0
  9  4  1  0  0  0  0
 10 12  1  0  0  0  0
 11  6  1  0  0  0  0
 11 10  2  0  0  0  0
 12  7  1  0  0  0  0
 13  2  2  0  0  0  0
 14 16  2  0  0  0  0
 14 13  1  0  0  0  0
 15  3  2  0  0  0  0
 16 17  1  0  0  0  0
 17  1  2  0  0  0  0
 17 15  1  0  0  0  0
 18 27  1  0  0  0  0
 20 28  1  1  0  0  0
 20 25  1  0  0  0  0
 20 21  1  0  0  0  0
 21 22  1  0  0  0  0
 22 18  2  0  0  0  0
 23 25  1  6  0  0  0
 23 22  1  0  0  0  0
 24 23  1  0  0  0  0
 24 19  1  0  0  0  0
 26 19  1  6  0  0  0
 26 27  1  0  0  0  0
 26  9  1  0  0  0  0
 28 29  1  0  0  0  0
 30 28  2  0  0  0  0
 31 13  1  0  0  0  0
 32 31  1  0  0  0  0
 33 34  1  0  0  0  0
 34 32  1  0  0  0  0
M  END
>  <MODEL>
4

>  <REMARK>
 VINA RESULT:      -9.0      4.225      6.937
  Name = 
  5 active torsions:
  status: ('A' for Active; 'I' for Inactive)
    1  A    between atoms: O_3  and  C_24
    2  A    between atoms: O_3  and  O_25
    3  A    between atoms: C_7  and  C_11
    4  A    between atoms: C_18  and  C_30
    5  A    between atoms: C_23  and  O_25
                            x       y       z     vdW  Elec       q    Type
                         _______ _______ _______ _____ _____    ______ ____

>  <TORSDO>
F 5

$$$$
=
 OpenBabel10262423273D

 34 39  0  0  1  0  0  0  0  0999 V2000
  187.5580  178.2230  139.6670 C   0  0  0  0  0  0  0  0  0  0  0  0
  188.4390  176.9370  136.2930 C   0  0  0  0  0  3  0  0  0  0  0  0
  186.3040  177.5440  137.2460 C   0  0  0  0  0  3  0  0  0  0  0  0
  185.9180  178.7480  142.0660 C   0  0  0  0  0  2  0  0  0  0  0  0
  188.1860  178.5680  140.9840 C   0  0  0  0  0  2  0  0  0  0  0  0
  185.3680  179.0070  140.6520 C   0  0  2  0  0  3  0  0  0  0  0  0
  183.3700  178.9820  139.1810 C   0  0  0  0  0  2  0  0  0  0  0  0
  183.8840  178.6670  140.5790 C   0  0  0  0  0  2  0  0  0  0  0  0
  187.2910  178.0500  142.1120 C   0  0  1  0  0  3  0  0  0  0  0  0
  185.5400  178.0340  138.3070 C   0  0  0  0  0  0  0  0  0  0  0  0
  186.1650  178.3720  139.5270 C   0  0  0  0  0  0  0  0  0  0  0  0
  184.0430  178.0690  138.1570 C   0  0  0  0  0  2  0  0  0  0  0  0
  189.8250  176.7990  136.4040 C   0  0  0  0  0  0  0  0  0  0  0  0
  190.4630  177.1340  137.6070 C   0  0  0  0  0  3  0  0  0  0  0  0
  187.6880  177.4120  137.3700 C   0  0  0  0  0  0  0  0  0  0  0  0
  189.7190  177.6060  138.6910 C   0  0  0  0  0  3  0  0  0  0  0  0
  188.3270  177.7520  138.5860 C   0  0  0  0  0  0  0  0  0  0  0  0
  190.4780  177.6320  143.7500 C   0  0  0  0  0  3  0  0  0  0  0  0
  187.7680  176.9860  144.3620 C   0  0  0  0  0  2  0  0  0  0  0  0
  191.1350  176.0580  146.9860 C   0  0  2  0  0  3  0  0  0  0  0  0
  191.5370  176.2810  145.5360 C   0  0  0  0  0  2  0  0  0  0  0  0
  190.5290  177.2380  145.0270 C   0  0  0  0  0  0  0  0  0  0  0  0
  189.5750  177.7140  146.0670 C   0  0  1  0  0  3  0  0  0  0  0  0
  188.1380  177.2210  145.8320 C   0  0  0  0  0  2  0  0  0  0  0  0
  190.1140  177.1320  147.3610 C   0  0  0  0  0  2  0  0  0  0  0  0
  187.9710  178.2260  143.4750 C   0  0  1  0  0  3  0  0  0  0  0  0
  189.4530  178.6340  143.2840 C   0  0  0  0  0  2  0  0  0  0  0  0
  192.3240  176.1240  147.8840 C   0  0  0  0  0  0  0  0  0  0  0  0
  193.2260  175.2530  147.7930 O   0  0  0  0  0  0  0  0  0  0  0  0
  192.4410  177.1440  148.8230 O   0  0  0  0  0  1  0  0  0  0  0  0
  190.5550  176.3300  135.3130 O   0  0  0  0  0  0  0  0  0  0  0  0
  191.5410  175.4370  135.4720 O   0  0  0  0  0  0  0  0  0  0  0  0
  191.8950  173.0980  135.2960 C   0  0  0  0  0  1  0  0  0  0  0  0
  190.8930  174.2050  135.5390 C   0  0  0  0  0  2  0  0  0  0  0  0
  1  5  1  0  0  0  0
  2 13  2  0  0  0  0
  2 15  1  0  0  0  0
  3 15  2  0  0  0  0
  3 10  1  0  0  0  0
  4  9  1  0  0  0  0
  6  8  1  1  0  0  0
  6  4  1  0  0  0  0
  7  8  1  0  0  0  0
  9  5  1  6  0  0  0
  9 26  1  0  0  0  0
 10 11  2  0  0  0  0
 11  1  1  0  0  0  0
 11  6  1  0  0  0  0
 12 10  1  0  0  0  0
 12  7  1  0  0  0  0
 13 14  1  0  0  0  0
 14 16  2  0  0  0  0
 15 17  1  0  0  0  0
 17 16  1  0  0  0  0
 17  1  2  0  0  0  0
 18 22  2  0  0  0  0
 19 24  1  0  0  0  0
 20 25  1  0  0  0  0
 20 28  1  1  0  0  0
 21 20  1  0  0  0  0
 22 21  1  0  0  0  0
 22 23  1  0  0  0  0
 23 24  1  6  0  0  0
 23 25  1  0  0  0  0
 26 27  1  6  0  0  0
 26 19  1  0  0  0  0
 27 18  1  0  0  0  0
 28 30  1  0  0  0  0
 29 28  2  0  0  0  0
 31 32  1  0  0  0  0
 31 13  1  0  0  0  0
 32 34  1  0  0  0  0
 33 34  1  0  0  0  0
M  END
>  <MODEL>
5

>  <REMARK>
 VINA RESULT:      -8.9      1.840      8.996
  Name = 
  5 active torsions:
  status: ('A' for Active; 'I' for Inactive)
    1  A    between atoms: O_3  and  C_24
    2  A    between atoms: O_3  and  O_25
    3  A    between atoms: C_7  and  C_11
    4  A    between atoms: C_18  and  C_30
    5  A    between atoms: C_23  and  O_25
                            x       y       z     vdW  Elec       q    Type
                         _______ _______ _______ _____ _____    ______ ____

>  <TORSDO>
F 5

$$$$
=
 OpenBabel10262423273D

 34 39  0  0  1  0  0  0  0  0999 V2000
  187.7670  177.4710  144.1020 C   0  0  0  0  0  0  0  0  0  0  0  0
  191.3400  177.7290  143.1130 C   0  0  0  0  0  3  0  0  0  0  0  0
  190.2770  177.9440  145.2710 C   0  0  0  0  0  3  0  0  0  0  0  0
  185.3100  177.9310  145.6750 C   0  0  0  0  0  2  0  0  0  0  0  0
  186.4060  177.2520  143.5100 C   0  0  0  0  0  2  0  0  0  0  0  0
  186.6340  177.5420  146.3580 C   0  0  2  0  0  3  0  0  0  0  0  0
  188.0740  177.8030  148.3610 C   0  0  0  0  0  2  0  0  0  0  0  0
  186.7790  178.2510  147.6990 C   0  0  0  0  0  2  0  0  0  0  0  0
  185.4180  178.2200  144.1650 C   0  0  1  0  0  3  0  0  0  0  0  0
  189.1340  177.9160  146.0730 C   0  0  0  0  0  0  0  0  0  0  0  0
  187.8710  177.6830  145.4900 C   0  0  0  0  0  0  0  0  0  0  0  0
  189.2730  178.2610  147.5310 C   0  0  0  0  0  2  0  0  0  0  0  0
  191.2620  177.5020  141.7360 C   0  0  0  0  0  0  0  0  0  0  0  0
  190.0150  177.2660  141.1400 C   0  0  0  0  0  3  0  0  0  0  0  0
  190.1850  177.7150  143.8970 C   0  0  0  0  0  0  0  0  0  0  0  0
  188.8540  177.2540  141.9170 C   0  0  0  0  0  3  0  0  0  0  0  0
  188.9240  177.4770  143.3010 C   0  0  0  0  0  0  0  0  0  0  0  0
  183.8630  178.6200  140.9350 C   0  0  0  0  0  3  0  0  0  0  0  0
  183.3050  179.4950  143.5920 C   0  0  0  0  0  2  0  0  0  0  0  0
  180.8280  180.5000  140.1360 C   0  0  2  0  0  3  0  0  0  0  0  0
  182.2480  180.0930  139.7690 C   0  0  0  0  0  2  0  0  0  0  0  0
  182.6380  179.1500  140.8410 C   0  0  0  0  0  0  0  0  0  0  0  0
  181.5440  178.8510  141.8060 C   0  0  1  0  0  3  0  0  0  0  0  0
  181.8210  179.4020  143.2140 C   0  0  0  0  0  2  0  0  0  0  0  0
  180.3270  179.5390  141.2140 C   0  0  0  0  0  2  0  0  0  0  0  0
  184.0500  178.1540  143.4770 C   0  0  1  0  0  3  0  0  0  0  0  0
  184.2070  177.6370  142.0260 C   0  0  0  0  0  2  0  0  0  0  0  0
  179.9380  180.4600  138.9400 C   0  0  0  0  0  0  0  0  0  0  0  0
  179.3990  181.5190  138.5270 O   0  0  0  0  0  1  0  0  0  0  0  0
  179.7000  179.2600  138.2790 O   0  0  0  0  0  0  0  0  0  0  0  0
  192.4290  177.5140  140.9740 O   0  0  0  0  0  0  0  0  0  0  0  0
  192.3930  177.7560  139.6560 O   0  0  0  0  0  0  0  0  0  0  0  0
  192.5060  176.2410  137.8340 C   0  0  0  0  0  1  0  0  0  0  0  0
  193.1750  176.7490  139.0930 C   0  0  0  0  0  2  0  0  0  0  0  0
  1 11  1  0  0  0  0
  2 15  1  0  0  0  0
  3 10  1  0  0  0  0
  5  1  1  0  0  0  0
  6  4  1  6  0  0  0
  6  8  1  0  0  0  0
  8  7  1  0  0  0  0
  9  5  1  6  0  0  0
  9  4  1  0  0  0  0
 10 12  1  0  0  0  0
 11 10  2  0  0  0  0
 11  6  1  0  0  0  0
 12  7  1  0  0  0  0
 13  2  2  0  0  0  0
 14 13  1  0  0  0  0
 14 16  2  0  0  0  0
 15  3  2  0  0  0  0
 16 17  1  0  0  0  0
 17 15  1  0  0  0  0
 17  1  2  0  0  0  0
 18 27  1  0  0  0  0
 20 28  1  6  0  0  0
 20 25  1  0  0  0  0
 21 20  1  0  0  0  0
 21 22  1  0  0  0  0
 22 18  2  0  0  0  0
 22 23  1  0  0  0  0
 23 25  1  6  0  0  0
 23 24  1  0  0  0  0
 24 19  1  0  0  0  0
 26 27  1  6  0  0  0
 26 19  1  0  0  0  0
 26  9  1  0  0  0  0
 29 28  1  0  0  0  0
 30 28  2  0  0  0  0
 31 13  1  0  0  0  0
 32 31  1  0  0  0  0
 33 34  1  0  0  0  0
 34 32  1  0  0  0  0
M  END
>  <MODEL>
6

>  <REMARK>
 VINA RESULT:      -8.9      4.301      7.685
  Name = 
  5 active torsions:
  status: ('A' for Active; 'I' for Inactive)
    1  A    between atoms: O_3  and  C_24
    2  A    between atoms: O_3  and  O_25
    3  A    between atoms: C_7  and  C_11
    4  A    between atoms: C_18  and  C_30
    5  A    between atoms: C_23  and  O_25
                            x       y       z     vdW  Elec       q    Type
                         _______ _______ _______ _____ _____    ______ ____

>  <TORSDO>
F 5

$$$$
=
 OpenBabel10262423273D

 34 39  0  0  1  0  0  0  0  0999 V2000
  184.5490  178.2940  142.4850 C   0  0  0  0  0  0  0  0  0  0  0  0
  184.8710  178.5730  146.1770 C   0  0  0  0  0  3  0  0  0  0  0  0
  182.9830  178.9550  144.7210 C   0  0  0  0  0  3  0  0  0  0  0  0
  183.5170  178.8190  139.7680 C   0  0  0  0  0  2  0  0  0  0  0  0
  185.3610  177.9760  141.2640 C   0  0  0  0  0  2  0  0  0  0  0  0
  182.5630  178.5400  140.9440 C   0  0  2  0  0  3  0  0  0  0  0  0
  180.3620  179.0340  141.9740 C   0  0  0  0  0  2  0  0  0  0  0  0
  181.2960  179.3760  140.8220 C   0  0  0  0  0  2  0  0  0  0  0  0
  185.0010  178.9690  140.1570 C   0  0  1  0  0  3  0  0  0  0  0  0
  182.4100  178.9650  143.4470 C   0  0  0  0  0  0  0  0  0  0  0  0
  183.1940  178.6380  142.3210 C   0  0  0  0  0  0  0  0  0  0  0  0
  180.9930  179.4500  143.3020 C   0  0  0  0  0  2  0  0  0  0  0  0
  186.2090  178.2150  146.3650 C   0  0  0  0  0  0  0  0  0  0  0  0
  187.0020  177.8840  145.2570 C   0  0  0  0  0  3  0  0  0  0  0  0
  184.3200  178.5950  144.8940 C   0  0  0  0  0  0  0  0  0  0  0  0
  186.4600  177.9080  143.9690 C   0  0  0  0  0  3  0  0  0  0  0  0
  185.1160  178.2610  143.7730 C   0  0  0  0  0  0  0  0  0  0  0  0
  185.8340  176.6050  137.5630 C   0  0  0  0  0  3  0  0  0  0  0  0
  187.3020  178.2560  139.3680 C   0  0  0  0  0  2  0  0  0  0  0  0
  189.1690  175.5700  136.4720 C   0  0  2  0  0  3  0  0  0  0  0  0
  187.7300  175.2030  136.8020 C   0  0  0  0  0  2  0  0  0  0  0  0
  187.0960  176.4990  137.1310 C   0  0  0  0  0  0  0  0  0  0  0  0
  187.9940  177.6730  136.9420 C   0  0  1  0  0  3  0  0  0  0  0  0
  188.3620  178.3630  138.2650 C   0  0  0  0  0  2  0  0  0  0  0  0
  189.2400  177.0870  136.3020 C   0  0  0  0  0  2  0  0  0  0  0  0
  185.9240  178.7950  138.9450 C   0  0  1  0  0  3  0  0  0  0  0  0
  185.2190  177.9500  137.8550 C   0  0  0  0  0  2  0  0  0  0  0  0
  189.6230  174.8790  135.2310 C   0  0  0  0  0  0  0  0  0  0  0  0
  188.8640  174.0520  134.6620 O   0  0  0  0  0  0  0  0  0  0  0  0
  190.8800  175.1420  134.6990 O   0  0  0  0  0  1  0  0  0  0  0  0
  186.7360  178.1930  147.6540 O   0  0  0  0  0  0  0  0  0  0  0  0
  187.7500  178.9970  148.0020 O   0  0  0  0  0  0  0  0  0  0  0  0
  189.5340  177.4600  147.7190 C   0  0  0  0  0  1  0  0  0  0  0  0
  188.6310  178.1730  148.7000 C   0  0  0  0  0  2  0  0  0  0  0  0
  1 17  1  0  0  0  0
  2 13  1  0  0  0  0
  3 15  1  0  0  0  0
  5  1  1  0  0  0  0
  6  4  1  6  0  0  0
  6 11  1  0  0  0  0
  7 12  1  0  0  0  0
  8  6  1  0  0  0  0
  8  7  1  0  0  0  0
  9  4  1  6  0  0  0
  9  5  1  0  0  0  0
 10  3  2  0  0  0  0
 11  1  2  0  0  0  0
 11 10  1  0  0  0  0
 12 10  1  0  0  0  0
 13 31  1  0  0  0  0
 14 13  2  0  0  0  0
 15  2  2  0  0  0  0
 16 14  1  0  0  0  0
 17 16  2  0  0  0  0
 17 15  1  0  0  0  0
 18 27  1  0  0  0  0
 20 28  1  6  0  0  0
 20 21  1  0  0  0  0
 21 22  1  0  0  0  0
 22 18  2  0  0  0  0
 23 25  1  1  0  0  0
 23 22  1  0  0  0  0
 23 24  1  0  0  0  0
 24 19  1  0  0  0  0
 25 20  1  0  0  0  0
 26 27  1  6  0  0  0
 26 19  1  0  0  0  0
 26  9  1  0  0  0  0
 29 28  2  0  0  0  0
 30 28  1  0  0  0  0
 31 32  1  0  0  0  0
 32 34  1  0  0  0  0
 33 34  1  0  0  0  0
M  END
>  <MODEL>
7

>  <REMARK>
 VINA RESULT:      -8.8      2.586      4.243
  Name = 
  5 active torsions:
  status: ('A' for Active; 'I' for Inactive)
    1  A    between atoms: O_3  and  C_24
    2  A    between atoms: O_3  and  O_25
    3  A    between atoms: C_7  and  C_11
    4  A    between atoms: C_18  and  C_30
    5  A    between atoms: C_23  and  O_25
                            x       y       z     vdW  Elec       q    Type
                         _______ _______ _______ _____ _____    ______ ____

>  <TORSDO>
F 5

$$$$
=
 OpenBabel10262423273D

 34 39  0  0  1  0  0  0  0  0999 V2000
  186.7850  178.4760  141.7850 C   0  0  0  0  0  0  0  0  0  0  0  0
  183.0810  178.6280  142.0600 C   0  0  0  0  0  3  0  0  0  0  0  0
  184.7700  178.1180  143.7100 C   0  0  0  0  0  3  0  0  0  0  0  0
  189.5550  177.6560  142.3960 C   0  0  0  0  0  2  0  0  0  0  0  0
  187.8870  178.6290  140.7780 C   0  0  0  0  0  2  0  0  0  0  0  0
  188.5880  178.0940  143.5110 C   0  0  2  0  0  3  0  0  0  0  0  0
  187.8780  177.7720  145.8660 C   0  0  0  0  0  2  0  0  0  0  0  0
  188.8180  177.2760  144.7760 C   0  0  0  0  0  2  0  0  0  0  0  0
  188.9180  177.5210  140.9990 C   0  0  1  0  0  3  0  0  0  0  0  0
  186.1110  177.9700  144.0740 C   0  0  0  0  0  0  0  0  0  0  0  0
  187.1260  178.1440  143.1100 C   0  0  0  0  0  0  0  0  0  0  0  0
  186.4270  177.5020  145.4690 C   0  0  0  0  0  2  0  0  0  0  0  0
  182.7220  178.9750  140.7550 C   0  0  0  0  0  0  0  0  0  0  0  0
  183.7180  179.1560  139.7850 C   0  0  0  0  0  3  0  0  0  0  0  0
  184.4250  178.4660  142.4030 C   0  0  0  0  0  0  0  0  0  0  0  0
  185.0650  178.9920  140.1180 C   0  0  0  0  0  3  0  0  0  0  0  0
  185.4340  178.6480  141.4270 C   0  0  0  0  0  0  0  0  0  0  0  0
  190.0120  175.6340  138.1260 C   0  0  0  0  0  3  0  0  0  0  0  0
  191.2820  176.8660  140.3630 C   0  0  0  0  0  2  0  0  0  0  0  0
  193.4330  174.6750  137.2550 C   0  0  2  0  0  3  0  0  0  0  0  0
  191.9570  174.3150  137.3430 C   0  0  0  0  0  2  0  0  0  0  0  0
  191.3140  175.5560  137.8300 C   0  0  0  0  0  0  0  0  0  0  0  0
  192.2520  176.7050  137.9670 C   0  0  1  0  0  3  0  0  0  0  0  0
  192.4710  177.1270  139.4290 C   0  0  0  0  0  2  0  0  0  0  0  0
  193.5550  176.1930  137.3780 C   0  0  0  0  0  2  0  0  0  0  0  0
  189.9770  177.5310  139.8900 C   0  0  1  0  0  3  0  0  0  0  0  0
  189.3930  176.9290  138.5890 C   0  0  0  0  0  2  0  0  0  0  0  0
  194.0200  174.2020  135.9680 C   0  0  0  0  0  0  0  0  0  0  0  0
  193.5870  174.6580  134.8780 O   0  0  0  0  0  0  0  0  0  0  0  0
  195.0430  173.2610  135.9650 O   0  0  0  0  0  1  0  0  0  0  0  0
  181.3750  179.1380  140.4380 O   0  0  0  0  0  0  0  0  0  0  0  0
  180.8300  180.3570  140.3350 O   0  0  0  0  0  0  0  0  0  0  0  0
  180.9260  181.6970  138.3800 C   0  0  0  0  0  1  0  0  0  0  0  0
  180.3860  180.4360  139.0170 C   0  0  0  0  0  2  0  0  0  0  0  0
  1 11  1  0  0  0  0
  2 15  1  0  0  0  0
  3 10  1  0  0  0  0
  5  1  1  0  0  0  0
  6  4  1  6  0  0  0
  6  8  1  0  0  0  0
  8  7  1  0  0  0  0
  9  5  1  6  0  0  0
  9  4  1  0  0  0  0
 10 12  1  0  0  0  0
 11  6  1  0  0  0  0
 11 10  2  0  0  0  0
 12  7  1  0  0  0  0
 13  2  2  0  0  0  0
 14 16  2  0  0  0  0
 14 13  1  0  0  0  0
 15  3  2  0  0  0  0
 16 17  1  0  0  0  0
 17  1  2  0  0  0  0
 17 15  1  0  0  0  0
 18 27  1  0  0  0  0
 20 28  1  6  0  0  0
 20 21  1  0  0  0  0
 20 25  1  0  0  0  0
 21 22  1  0  0  0  0
 22 23  1  0  0  0  0
 22 18  2  0  0  0  0
 23 25  1  1  0  0  0
 23 24  1  0  0  0  0
 24 19  1  0  0  0  0
 26 27  1  6  0  0  0
 26 19  1  0  0  0  0
 26  9  1  0  0  0  0
 29 28  2  0  0  0  0
 30 28  1  0  0  0  0
 31 13  1  0  0  0  0
 32 31  1  0  0  0  0
 33 34  1  0  0  0  0
 34 32  1  0  0  0  0
M  END
>  <MODEL>
8

>  <REMARK>
 VINA RESULT:      -8.7      3.987      6.992
  Name = 
  5 active torsions:
  status: ('A' for Active; 'I' for Inactive)
    1  A    between atoms: O_3  and  C_24
    2  A    between atoms: O_3  and  O_25
    3  A    between atoms: C_7  and  C_11
    4  A    between atoms: C_18  and  C_30
    5  A    between atoms: C_23  and  O_25
                            x       y       z     vdW  Elec       q    Type
                         _______ _______ _______ _____ _____    ______ ____

>  <TORSDO>
F 5

$$$$
=
 OpenBabel10262423273D

 34 39  0  0  1  0  0  0  0  0999 V2000
  190.2010  177.2140  138.5200 C   0  0  0  0  0  0  0  0  0  0  0  0
  191.9910  175.3820  135.8270 C   0  0  0  0  0  3  0  0  0  0  0  0
  189.7330  176.2310  135.9300 C   0  0  0  0  0  3  0  0  0  0  0  0
  187.9360  178.1810  140.1500 C   0  0  0  0  0  2  0  0  0  0  0  0
  190.4030  177.7260  139.9150 C   0  0  0  0  0  2  0  0  0  0  0  0
  187.8970  178.2450  138.6120 C   0  0  2  0  0  3  0  0  0  0  0  0
  186.4850  178.0910  136.5780 C   0  0  0  0  0  2  0  0  0  0  0  0
  186.4900  177.9700  138.0960 C   0  0  0  0  0  2  0  0  0  0  0  0
  189.1470  177.4320  140.7390 C   0  0  1  0  0  3  0  0  0  0  0  0
  188.7190  176.9160  136.6050 C   0  0  0  0  0  0  0  0  0  0  0  0
  188.9480  177.4070  137.9070 C   0  0  0  0  0  0  0  0  0  0  0  0
  187.3600  177.0000  135.9630 C   0  0  0  0  0  2  0  0  0  0  0  0
  193.2480  175.1960  136.4090 C   0  0  0  0  0  0  0  0  0  0  0  0
  193.4940  175.6810  137.7010 C   0  0  0  0  0  3  0  0  0  0  0  0
  190.9830  176.0530  136.5230 C   0  0  0  0  0  0  0  0  0  0  0  0
  192.4910  176.3500  138.4060 C   0  0  0  0  0  3  0  0  0  0  0  0
  191.2270  176.5450  137.8270 C   0  0  0  0  0  0  0  0  0  0  0  0
  191.6440  177.2650  143.3370 C   0  0  0  0  0  3  0  0  0  0  0  0
  188.8650  176.6570  143.1350 C   0  0  0  0  0  2  0  0  0  0  0  0
  191.2100  176.1070  146.7800 C   0  0  2  0  0  3  0  0  0  0  0  0
  192.0540  176.1580  145.5150 C   0  0  0  0  0  2  0  0  0  0  0  0
  191.2810  177.0300  144.6030 C   0  0  0  0  0  0  0  0  0  0  0  0
  190.0590  177.6150  145.2230 C   0  0  1  0  0  3  0  0  0  0  0  0
  188.7580  177.0750  144.6070 C   0  0  0  0  0  2  0  0  0  0  0  0
  190.1490  177.2020  146.6810 C   0  0  0  0  0  2  0  0  0  0  0  0
  189.3670  177.7840  142.2150 C   0  0  1  0  0  3  0  0  0  0  0  0
  190.8420  178.1880  142.4540 C   0  0  0  0  0  2  0  0  0  0  0  0
  192.0560  176.3000  147.9920 C   0  0  0  0  0  0  0  0  0  0  0  0
  192.8050  175.3700  148.3870 O   0  0  0  0  0  0  0  0  0  0  0  0
  192.0210  177.5020  148.6900 O   0  0  0  0  0  1  0  0  0  0  0  0
  194.2400  174.5290  135.6930 O   0  0  0  0  0  0  0  0  0  0  0  0
  195.4250  174.2460  136.2510 O   0  0  0  0  0  0  0  0  0  0  0  0
  195.5470  172.5460  137.9010 C   0  0  0  0  0  1  0  0  0  0  0  0
  195.4090  172.8640  136.4290 C   0  0  0  0  0  2  0  0  0  0  0  0
  1  5  1  0  0  0  0
  2 13  2  0  0  0  0
  2 15  1  0  0  0  0
  3 15  2  0  0  0  0
  3 10  1  0  0  0  0
  4  9  1  0  0  0  0
  6  8  1  6  0  0  0
  6  4  1  0  0  0  0
  7  8  1  0  0  0  0
  9  5  1  6  0  0  0
  9 26  1  0  0  0  0
 10 11  2  0  0  0  0
 11  1  1  0  0  0  0
 11  6  1  0  0  0  0
 12  7  1  0  0  0  0
 12 10  1  0  0  0  0
 13 14  1  0  0  0  0
 14 16  2  0  0  0  0
 15 17  1  0  0  0  0
 17 16  1  0  0  0  0
 17  1  2  0  0  0  0
 18 22  2  0  0  0  0
 19 24  1  0  0  0  0
 20 28  1  1  0  0  0
 21 20  1  0  0  0  0
 22 23  1  0  0  0  0
 22 21  1  0  0  0  0
 23 24  1  6  0  0  0
 23 25  1  0  0  0  0
 25 20  1  0  0  0  0
 26 27  1  6  0  0  0
 26 19  1  0  0  0  0
 27 18  1  0  0  0  0
 28 29  2  0  0  0  0
 28 30  1  0  0  0  0
 31 32  1  0  0  0  0
 31 13  1  0  0  0  0
 32 34  1  0  0  0  0
 34 33  1  0  0  0  0
M  END
>  <MODEL>
9

>  <REMARK>
 VINA RESULT:      -8.4      2.054      9.171
  Name = 
  5 active torsions:
  status: ('A' for Active; 'I' for Inactive)
    1  A    between atoms: O_3  and  C_24
    2  A    between atoms: O_3  and  O_25
    3  A    between atoms: C_7  and  C_11
    4  A    between atoms: C_18  and  C_30
    5  A    between atoms: C_23  and  O_25
                            x       y       z     vdW  Elec       q    Type
                         _______ _______ _______ _____ _____    ______ ____

>  <TORSDO>
F 5

$$$$
